=
     RDKit          3D

 37 39  0  0  0  0  0  0  0  0999 V2000
    2.8950   60.2910   70.8310 C   0  0  0  0  0  0  0  0  0  0  0  0
    2.2740   59.7200   71.9540 C   0  0  0  0  0  0  0  0  0  0  0  0
    1.3960   60.4650   72.7430 C   0  0  0  0  0  0  0  0  0  0  0  0
    1.1250   61.7970   72.4130 C   0  0  0  0  0  0  0  0  0  0  0  0
    1.7320   62.3850   71.3060 C   0  0  0  0  0  0  0  0  0  0  0  0
    2.6160   61.6340   70.5200 C   0  0  0  0  0  0  0  0  0  0  0  0
    1.4270   63.7840   70.9300 C   0  0  0  0  0  0  0  0  0  0  0  0
    2.0570   64.3160   70.0190 O   0  0  0  0  0  0  0  0  0  0  0  0
    0.3970   64.4130   71.6440 N   0  0  0  0  0  0  0  0  0  0  0  0
   -0.0090   63.8770   72.8790 N   0  0  0  0  0  0  0  0  0  0  0  0
    0.2130   62.5840   73.2570 C   0  0  0  0  0  0  0  0  0  0  0  0
   -0.3080   62.1140   74.2630 O   0  0  0  0  0  0  0  0  0  0  0  0
   -0.1070   65.7030   71.4070 C   0  0  0  0  0  0  0  0  0  0  0  0
   -0.6830   66.3660   72.2730 O   0  0  0  0  0  0  0  0  0  0  0  0
    0.0620   66.3040   70.0660 C   0  0  0  0  0  0  0  0  0  0  0  0
    1.2260   67.0330   69.7940 C   0  0  0  0  0  0  0  0  0  0  0  0
    1.4200   67.5780   68.5240 C   0  0  0  0  0  0  0  0  0  0  0  0
    0.4390   67.4000   67.5440 C   0  0  0  0  0  0  0  0  0  0  0  0
   -0.7520   66.7220   67.8280 C   0  0  0  0  0  0  0  0  0  0  0  0
   -0.9430   66.1730   69.0960 C   0  0  0  0  0  0  0  0  0  0  0  0
    0.6920   68.0350   65.9090 S   0  0  0  0  0  6  0  0  0  0  0  0
   -0.5890   68.4340   65.3760 O   0  0  0  0  0  0  0  0  0  0  0  0
    1.8330   68.9240   65.9280 O   0  0  0  0  0  0  0  0  0  0  0  0
    1.2040   66.6600   65.0840 N   0  0  0  0  0  0  0  0  0  0  0  0
    4.5490   60.1170   69.1310 O   0  0  0  0  0  1  0  0  0  0  0  0
    3.8410   59.4780   69.9690 C   0  0  0  0  0  0  0  0  0  0  0  0
    3.8520   58.2230   70.1590 O   0  0  0  0  0  0  0  0  0  0  0  0
    2.4823   58.6719   72.2152 H   0  0  0  0  0  0  0  0  0  0  0  0
    0.9188   60.0061   73.6214 H   0  0  0  0  0  0  0  0  0  0  0  0
    3.0981   62.1008   69.6484 H   0  0  0  0  0  0  0  0  0  0  0  0
   -0.5030   64.4964   73.5372 H   0  0  0  0  0  0  0  0  0  0  0  0
    1.9843   67.1755   70.5780 H   0  0  0  0  0  0  0  0  0  0  0  0
    2.3363   68.1424   68.2962 H   0  0  0  0  0  0  0  0  0  0  0  0
   -1.5310   66.6229   67.0577 H   0  0  0  0  0  0  0  0  0  0  0  0
   -1.8758   65.6407   69.3339 H   0  0  0  0  0  0  0  0  0  0  0  0
    1.4745   65.9335   65.7622 H   0  0  0  0  0  0  0  0  0  0  0  0
    0.4373   66.3091   64.4925 H   0  0  0  0  0  0  0  0  0  0  0  0
  2  1  2  0
  3  2  1  0
  4  3  2  0
  5  4  1  0
  6  1  1  0
  6  5  2  0
  7  5  1  0
  8  7  2  0
  9  7  1  0
 10  9  1  0
 11 10  1  0
 11  4  1  0
 12 11  2  0
 13  9  1  0
 14 13  2  0
 15 13  1  0
 16 15  2  0
 17 16  1  0
 18 17  2  0
 19 18  1  0
 20 19  2  0
 20 15  1  0
 21 18  1  0
 22 21  2  0
 23 21  2  0
 24 21  1  0
 26 25  1  0
 26  1  1  0
 27 26  2  0
  2 28  1  0
  3 29  1  0
  6 30  1  0
 10 31  1  0
 16 32  1  0
 17 33  1  0
 19 34  1  0
 20 35  1  0
 24 36  1  0
 24 37  1  0
M  CHG  1  25  -1
M  END
>  <score>  (1) 
-10.33

$$$$
=
     RDKit          3D

 37 39  0  0  0  0  0  0  0  0999 V2000
    2.7120   62.8210   69.8670 C   0  0  0  0  0  0  0  0  0  0  0  0
    2.3540   64.1450   70.1700 C   0  0  0  0  0  0  0  0  0  0  0  0
    1.4990   64.4300   71.2360 C   0  0  0  0  0  0  0  0  0  0  0  0
    0.9940   63.3870   72.0200 C   0  0  0  0  0  0  0  0  0  0  0  0
    1.3330   62.0660   71.7360 C   0  0  0  0  0  0  0  0  0  0  0  0
    2.1870   61.7860   70.6610 C   0  0  0  0  0  0  0  0  0  0  0  0
    0.8280   60.9580   72.5780 C   0  0  0  0  0  0  0  0  0  0  0  0
    1.0480   59.7970   72.2440 O   0  0  0  0  0  0  0  0  0  0  0  0
    0.1370   61.3230   73.7420 N   0  0  0  0  0  0  0  0  0  0  0  0
   -0.3770   62.6280   73.8560 N   0  0  0  0  0  0  0  0  0  0  0  0
    0.0790   63.6910   73.1310 C   0  0  0  0  0  0  0  0  0  0  0  0
   -0.2750   64.8370   73.3850 O   0  0  0  0  0  0  0  0  0  0  0  0
   -0.3620   60.4450   74.7190 C   0  0  0  0  0  0  0  0  0  0  0  0
   -1.2930   60.7400   75.4730 O   0  0  0  0  0  0  0  0  0  0  0  0
    0.2460   59.1020   74.8540 C   0  0  0  0  0  0  0  0  0  0  0  0
   -0.4720   57.9880   74.4060 C   0  0  0  0  0  0  0  0  0  0  0  0
    0.0970   56.7170   74.4910 C   0  0  0  0  0  0  0  0  0  0  0  0
    1.3760   56.5740   75.0400 C   0  0  0  0  0  0  0  0  0  0  0  0
    2.0740   57.6780   75.5420 C   0  0  0  0  0  0  0  0  0  0  0  0
    1.5060   58.9480   75.4510 C   0  0  0  0  0  0  0  0  0  0  0  0
    2.1400   54.9770   75.1050 S   0  0  0  0  0  6  0  0  0  0  0  0
    1.5770   54.2520   76.2190 O   0  0  0  0  0  0  0  0  0  0  0  0
    2.1820   54.4280   73.7680 O   0  0  0  0  0  0  0  0  0  0  0  0
    3.7320   55.3740   75.4810 N   0  0  0  0  0  0  0  0  0  0  0  0
    3.6220   63.3080   67.7250 O   0  0  0  0  0  1  0  0  0  0  0  0
    3.6480   62.5130   68.7140 C   0  0  0  0  0  0  0  0  0  0  0  0
    4.3850   61.4870   68.8350 O   0  0  0  0  0  0  0  0  0  0  0  0
    2.7527   64.9683   69.5591 H   0  0  0  0  0  0  0  0  0  0  0  0
    1.2232   65.4713   71.4589 H   0  0  0  0  0  0  0  0  0  0  0  0
    2.4504   60.7422   70.4351 H   0  0  0  0  0  0  0  0  0  0  0  0
   -1.1423   62.7907   74.5259 H   0  0  0  0  0  0  0  0  0  0  0  0
   -1.4817   58.1138   73.9882 H   0  0  0  0  0  0  0  0  0  0  0  0
   -0.4543   55.8362   74.1301 H   0  0  0  0  0  0  0  0  0  0  0  0
    3.0630   57.5449   76.0048 H   0  0  0  0  0  0  0  0  0  0  0  0
    2.0426   59.8238   75.8449 H   0  0  0  0  0  0  0  0  0  0  0  0
    3.8462   55.4025   76.5042 H   0  0  0  0  0  0  0  0  0  0  0  0
    4.3654   54.6652   75.0844 H   0  0  0  0  0  0  0  0  0  0  0  0
  2  1  2  0
  3  2  1  0
  4  3  2  0
  5  4  1  0
  6  1  1  0
  6  5  2  0
  7  5  1  0
  8  7  2  0
  9  7  1  0
 10  9  1  0
 11 10  1  0
 11  4  1  0
 12 11  2  0
 13  9  1  0
 14 13  2  0
 15 13  1  0
 16 15  2  0
 17 16  1  0
 18 17  2  0
 19 18  1  0
 20 19  2  0
 20 15  1  0
 21 18  1  0
 22 21  2  0
 23 21  2  0
 24 21  1  0
 26 25  1  0
 26  1  1  0
 27 26  2  0
  2 28  1  0
  3 29  1  0
  6 30  1  0
 10 31  1  0
 16 32  1  0
 17 33  1  0
 19 34  1  0
 20 35  1  0
 24 36  1  0
 24 37  1  0
M  CHG  1  25  -1
M  END
>  <score>  (2) 
-8.605

$$$$
=
     RDKit          3D

 37 39  0  0  0  0  0  0  0  0999 V2000
    1.4990   64.1800   71.0240 C   0  0  0  0  0  0  0  0  0  0  0  0
    2.7220   64.2410   70.3350 C   0  0  0  0  0  0  0  0  0  0  0  0
    3.7350   63.3140   70.5900 C   0  0  0  0  0  0  0  0  0  0  0  0
    3.5320   62.3060   71.5390 C   0  0  0  0  0  0  0  0  0  0  0  0
    2.3280   62.2290   72.2360 C   0  0  0  0  0  0  0  0  0  0  0  0
    1.3180   63.1650   71.9800 C   0  0  0  0  0  0  0  0  0  0  0  0
    2.0920   61.1480   73.2190 C   0  0  0  0  0  0  0  0  0  0  0  0
    1.0710   61.1640   73.9020 O   0  0  0  0  0  0  0  0  0  0  0  0
    3.0660   60.1410   73.2870 N   0  0  0  0  0  0  0  0  0  0  0  0
    4.3450   60.3850   72.7530 N   0  0  0  0  0  0  0  0  0  0  0  0
    4.6080   61.3430   71.8160 C   0  0  0  0  0  0  0  0  0  0  0  0
    5.6950   61.4050   71.2530 O   0  0  0  0  0  0  0  0  0  0  0  0
    3.0120   58.9890   74.0900 C   0  0  0  0  0  0  0  0  0  0  0  0
    4.0190   58.3690   74.4410 O   0  0  0  0  0  0  0  0  0  0  0  0
    1.6940   58.4920   74.5430 C   0  0  0  0  0  0  0  0  0  0  0  0
    0.8390   57.8960   73.6080 C   0  0  0  0  0  0  0  0  0  0  0  0
   -0.3930   57.3900   74.0210 C   0  0  0  0  0  0  0  0  0  0  0  0
   -0.7640   57.5000   75.3660 C   0  0  0  0  0  0  0  0  0  0  0  0
    0.0620   58.1460   76.2920 C   0  0  0  0  0  0  0  0  0  0  0  0
    1.2960   58.6470   75.8790 C   0  0  0  0  0  0  0  0  0  0  0  0
   -2.3000   56.8120   75.9220 S   0  0  0  0  0  6  0  0  0  0  0  0
   -2.1530   56.4430   77.3100 O   0  0  0  0  0  0  0  0  0  0  0  0
   -3.3800   57.6520   75.4540 O   0  0  0  0  0  0  0  0  0  0  0  0
   -2.3940   55.4030   75.0060 N   0  0  0  0  0  0  0  0  0  0  0  0
    0.0810   65.3590   69.5230 O   0  0  0  0  0  1  0  0  0  0  0  0
    0.3970   65.1820   70.7400 C   0  0  0  0  0  0  0  0  0  0  0  0
   -0.1230   65.7590   71.7440 O   0  0  0  0  0  0  0  0  0  0  0  0
    2.8837   65.0292   69.5849 H   0  0  0  0  0  0  0  0  0  0  0  0
    4.6894   63.3761   70.0466 H   0  0  0  0  0  0  0  0  0  0  0  0
    0.3699   63.1052   72.5346 H   0  0  0  0  0  0  0  0  0  0  0  0
    5.1288   59.8071   73.0886 H   0  0  0  0  0  0  0  0  0  0  0  0
    1.1380   57.8272   72.5517 H   0  0  0  0  0  0  0  0  0  0  0  0
   -1.0668   56.9090   73.2967 H   0  0  0  0  0  0  0  0  0  0  0  0
   -0.2595   58.2579   77.3380 H   0  0  0  0  0  0  0  0  0  0  0  0
    1.9531   59.1605   76.5963 H   0  0  0  0  0  0  0  0  0  0  0  0
   -2.4484   54.5883   75.6339 H   0  0  0  0  0  0  0  0  0  0  0  0
   -3.2347   55.4352   74.4118 H   0  0  0  0  0  0  0  0  0  0  0  0
  2  1  2  0
  3  2  1  0
  4  3  2  0
  5  4  1  0
  6  1  1  0
  6  5  2  0
  7  5  1  0
  8  7  2  0
  9  7  1  0
 10  9  1  0
 11 10  1  0
 11  4  1  0
 12 11  2  0
 13  9  1  0
 14 13  2  0
 15 13  1  0
 16 15  2  0
 17 16  1  0
 18 17  2  0
 19 18  1  0
 20 19  2  0
 20 15  1  0
 21 18  1  0
 22 21  2  0
 23 21  2  0
 24 21  1  0
 26 25  1  0
 26  1  1  0
 27 26  2  0
  2 28  1  0
  3 29  1  0
  6 30  1  0
 10 31  1  0
 16 32  1  0
 17 33  1  0
 19 34  1  0
 20 35  1  0
 24 36  1  0
 24 37  1  0
M  CHG  1  25  -1
M  END
>  <score>  (3) 
-8.329

$$$$
=
     RDKit          3D

 37 39  0  0  0  0  0  0  0  0999 V2000
    0.2740   64.6610   72.7810 C   0  0  0  0  0  0  0  0  0  0  0  0
    0.3950   65.1140   71.4570 C   0  0  0  0  0  0  0  0  0  0  0  0
    1.1290   64.3900   70.5160 C   0  0  0  0  0  0  0  0  0  0  0  0
    1.7510   63.1940   70.8910 C   0  0  0  0  0  0  0  0  0  0  0  0
    1.6470   62.7280   72.1990 C   0  0  0  0  0  0  0  0  0  0  0  0
    0.9140   63.4620   73.1410 C   0  0  0  0  0  0  0  0  0  0  0  0
    2.2750   61.4480   72.5980 C   0  0  0  0  0  0  0  0  0  0  0  0
    2.2660   61.1120   73.7800 O   0  0  0  0  0  0  0  0  0  0  0  0
    2.8300   60.6760   71.5670 N   0  0  0  0  0  0  0  0  0  0  0  0
    3.1180   61.2850   70.3320 N   0  0  0  0  0  0  0  0  0  0  0  0
    2.5370   62.4430   69.9010 C   0  0  0  0  0  0  0  0  0  0  0  0
    2.6860   62.8430   68.7520 O   0  0  0  0  0  0  0  0  0  0  0  0
    3.4070   59.4020   71.7040 C   0  0  0  0  0  0  0  0  0  0  0  0
    4.2330   58.9510   70.9060 O   0  0  0  0  0  0  0  0  0  0  0  0
    3.0180   58.5590   72.8560 C   0  0  0  0  0  0  0  0  0  0  0  0
    3.7970   58.6030   74.0180 C   0  0  0  0  0  0  0  0  0  0  0  0
    3.4280   57.8430   75.1280 C   0  0  0  0  0  0  0  0  0  0  0  0
    2.2890   57.0340   75.0570 C   0  0  0  0  0  0  0  0  0  0  0  0
    1.5400   56.9430   73.8790 C   0  0  0  0  0  0  0  0  0  0  0  0
    1.9070   57.7070   72.7720 C   0  0  0  0  0  0  0  0  0  0  0  0
    1.7710   56.1050   76.4750 S   0  0  0  0  0  6  0  0  0  0  0  0
    2.5940   56.4940   77.5950 O   0  0  0  0  0  0  0  0  0  0  0  0
    0.3260   56.1190   76.5350 O   0  0  0  0  0  0  0  0  0  0  0  0
    2.1900   54.5370   76.0280 N   0  0  0  0  0  0  0  0  0  0  0  0
   -0.5240   65.0120   74.9940 O   0  0  0  0  0  1  0  0  0  0  0  0
   -0.5310   65.4450   73.8000 C   0  0  0  0  0  0  0  0  0  0  0  0
   -1.1430   66.4730   73.3770 O   0  0  0  0  0  0  0  0  0  0  0  0
   -0.0953   66.0521   71.1576 H   0  0  0  0  0  0  0  0  0  0  0  0
    1.2181   64.7583   69.4833 H   0  0  0  0  0  0  0  0  0  0  0  0
    0.8383   63.0955   74.1754 H   0  0  0  0  0  0  0  0  0  0  0  0
    3.8078   60.8306   69.7167 H   0  0  0  0  0  0  0  0  0  0  0  0
    4.6969   59.2345   74.0558 H   0  0  0  0  0  0  0  0  0  0  0  0
    4.0268   57.8795   76.0500 H   0  0  0  0  0  0  0  0  0  0  0  0
    0.6684   56.2740   73.8265 H   0  0  0  0  0  0  0  0  0  0  0  0
    1.3288   57.6420   71.8385 H   0  0  0  0  0  0  0  0  0  0  0  0
    2.3420   53.9681   76.8731 H   0  0  0  0  0  0  0  0  0  0  0  0
    1.4297   54.1247   75.4687 H   0  0  0  0  0  0  0  0  0  0  0  0
  2  1  2  0
  3  2  1  0
  4  3  2  0
  5  4  1  0
  6  1  1  0
  6  5  2  0
  7  5  1  0
  8  7  2  0
  9  7  1  0
 10  9  1  0
 11 10  1  0
 11  4  1  0
 12 11  2  0
 13  9  1  0
 14 13  2  0
 15 13  1  0
 16 15  2  0
 17 16  1  0
 18 17  2  0
 19 18  1  0
 20 19  2  0
 20 15  1  0
 21 18  1  0
 22 21  2  0
 23 21  2  0
 24 21  1  0
 26 25  1  0
 26  1  1  0
 27 26  2  0
  2 28  1  0
  3 29  1  0
  6 30  1  0
 10 31  1  0
 16 32  1  0
 17 33  1  0
 19 34  1  0
 20 35  1  0
 24 36  1  0
 24 37  1  0
M  CHG  1  25  -1
M  END
>  <score>  (4) 
-8.204

$$$$
=
     RDKit          3D

 37 39  0  0  0  0  0  0  0  0999 V2000
    1.8120   63.3440   70.5880 C   0  0  0  0  0  0  0  0  0  0  0  0
    2.6030   62.8600   69.5330 C   0  0  0  0  0  0  0  0  0  0  0  0
    3.0980   61.5550   69.5480 C   0  0  0  0  0  0  0  0  0  0  0  0
    2.8040   60.7130   70.6250 C   0  0  0  0  0  0  0  0  0  0  0  0
    2.0250   61.1720   71.6850 C   0  0  0  0  0  0  0  0  0  0  0  0
    1.5340   62.4840   71.6660 C   0  0  0  0  0  0  0  0  0  0  0  0
    1.6810   60.2780   72.8140 C   0  0  0  0  0  0  0  0  0  0  0  0
    1.0890   60.7360   73.7880 O   0  0  0  0  0  0  0  0  0  0  0  0
    2.0450   58.9310   72.6770 N   0  0  0  0  0  0  0  0  0  0  0  0
    3.0180   58.5750   71.7260 N   0  0  0  0  0  0  0  0  0  0  0  0
    3.3430   59.3440   70.6460 C   0  0  0  0  0  0  0  0  0  0  0  0
    4.0660   58.9190   69.7520 O   0  0  0  0  0  0  0  0  0  0  0  0
    1.7550   57.8990   73.5860 C   0  0  0  0  0  0  0  0  0  0  0  0
    2.4200   56.8620   73.6570 O   0  0  0  0  0  0  0  0  0  0  0  0
    0.6060   58.0550   74.5060 C   0  0  0  0  0  0  0  0  0  0  0  0
    0.8560   58.2960   75.8620 C   0  0  0  0  0  0  0  0  0  0  0  0
   -0.2120   58.4810   76.7400 C   0  0  0  0  0  0  0  0  0  0  0  0
   -1.5210   58.4070   76.2530 C   0  0  0  0  0  0  0  0  0  0  0  0
   -1.7760   58.1100   74.9100 C   0  0  0  0  0  0  0  0  0  0  0  0
   -0.7080   57.9300   74.0320 C   0  0  0  0  0  0  0  0  0  0  0  0
   -2.8900   58.6970   77.3400 S   0  0  0  0  0  6  0  0  0  0  0  0
   -2.9910   57.5770   78.2460 O   0  0  0  0  0  0  0  0  0  0  0  0
   -2.8320   60.0650   77.8050 O   0  0  0  0  0  0  0  0  0  0  0  0
   -4.1910   58.6360   76.2750 N   0  0  0  0  0  0  0  0  0  0  0  0
    1.6610   65.5110   69.6230 O   0  0  0  0  0  1  0  0  0  0  0  0
    1.2660   64.7580   70.5660 C   0  0  0  0  0  0  0  0  0  0  0  0
    0.4550   65.0720   71.4900 O   0  0  0  0  0  0  0  0  0  0  0  0
    2.8356   63.5186   68.6832 H   0  0  0  0  0  0  0  0  0  0  0  0
    3.7173   61.1901   68.7153 H   0  0  0  0  0  0  0  0  0  0  0  0
    0.9227   62.8466   72.5055 H   0  0  0  0  0  0  0  0  0  0  0  0
    3.5146   57.6814   71.8518 H   0  0  0  0  0  0  0  0  0  0  0  0
    1.8904   58.3393   76.2337 H   0  0  0  0  0  0  0  0  0  0  0  0
   -0.0265   58.6832   77.8052 H   0  0  0  0  0  0  0  0  0  0  0  0
   -2.8112   58.0192   74.5494 H   0  0  0  0  0  0  0  0  0  0  0  0
   -0.8948   57.6915   72.9745 H   0  0  0  0  0  0  0  0  0  0  0  0
   -5.0705   58.5948   76.8094 H   0  0  0  0  0  0  0  0  0  0  0  0
   -4.1889   59.4780   75.6818 H   0  0  0  0  0  0  0  0  0  0  0  0
  2  1  2  0
  3  2  1  0
  4  3  2  0
  5  4  1  0
  6  1  1  0
  6  5  2  0
  7  5  1  0
  8  7  2  0
  9  7  1  0
 10  9  1  0
 11 10  1  0
 11  4  1  0
 12 11  2  0
 13  9  1  0
 14 13  2  0
 15 13  1  0
 16 15  2  0
 17 16  1  0
 18 17  2  0
 19 18  1  0
 20 19  2  0
 20 15  1  0
 21 18  1  0
 22 21  2  0
 23 21  2  0
 24 21  1  0
 26 25  1  0
 26  1  1  0
 27 26  2  0
  2 28  1  0
  3 29  1  0
  6 30  1  0
 10 31  1  0
 16 32  1  0
 17 33  1  0
 19 34  1  0
 20 35  1  0
 24 36  1  0
 24 37  1  0
M  CHG  1  25  -1
M  END
>  <score>  (5) 
-7.929

$$$$
=
     RDKit          3D

 37 39  0  0  0  0  0  0  0  0999 V2000
    0.4680   61.5520   72.3580 C   0  0  0  0  0  0  0  0  0  0  0  0
    1.2300   60.3790   72.4870 C   0  0  0  0  0  0  0  0  0  0  0  0
    0.7370   59.2780   73.1880 C   0  0  0  0  0  0  0  0  0  0  0  0
   -0.5350   59.3360   73.7680 C   0  0  0  0  0  0  0  0  0  0  0  0
   -1.3070   60.4900   73.6550 C   0  0  0  0  0  0  0  0  0  0  0  0
   -0.8040   61.5940   72.9550 C   0  0  0  0  0  0  0  0  0  0  0  0
   -2.6670   60.5510   74.2380 C   0  0  0  0  0  0  0  0  0  0  0  0
   -3.2830   61.6130   74.2240 O   0  0  0  0  0  0  0  0  0  0  0  0
   -3.1770   59.3530   74.7580 N   0  0  0  0  0  0  0  0  0  0  0  0
   -2.2920   58.3020   75.0610 N   0  0  0  0  0  0  0  0  0  0  0  0
   -1.0440   58.1790   74.5210 C   0  0  0  0  0  0  0  0  0  0  0  0
   -0.3770   57.1630   74.6760 O   0  0  0  0  0  0  0  0  0  0  0  0
   -4.4650   59.1620   75.2890 C   0  0  0  0  0  0  0  0  0  0  0  0
   -4.7320   58.2650   76.0920 O   0  0  0  0  0  0  0  0  0  0  0  0
   -5.5530   60.0760   74.8760 C   0  0  0  0  0  0  0  0  0  0  0  0
   -5.9050   61.1320   75.7250 C   0  0  0  0  0  0  0  0  0  0  0  0
   -6.9050   62.0260   75.3390 C   0  0  0  0  0  0  0  0  0  0  0  0
   -7.5510   61.8440   74.1120 C   0  0  0  0  0  0  0  0  0  0  0  0
   -7.2420   60.7570   73.2860 C   0  0  0  0  0  0  0  0  0  0  0  0
   -6.2400   59.8670   73.6710 C   0  0  0  0  0  0  0  0  0  0  0  0
   -8.7830   63.0010   73.5770 S   0  0  0  0  0  6  0  0  0  0  0  0
   -8.2320   64.3300   73.6900 O   0  0  0  0  0  0  0  0  0  0  0  0
   -9.3790   62.5120   72.3540 O   0  0  0  0  0  0  0  0  0  0  0  0
   -9.9640   62.8140   74.7620 N   0  0  0  0  0  0  0  0  0  0  0  0
    2.2520   62.7730   71.3660 O   0  0  0  0  0  1  0  0  0  0  0  0
    1.0020   62.7450   71.5880 C   0  0  0  0  0  0  0  0  0  0  0  0
    0.1540   63.6160   71.2240 O   0  0  0  0  0  0  0  0  0  0  0  0
    2.2289   60.3278   72.0292 H   0  0  0  0  0  0  0  0  0  0  0  0
    1.3464   58.3673   73.2844 H   0  0  0  0  0  0  0  0  0  0  0  0
   -1.4127   62.5064   72.8713 H   0  0  0  0  0  0  0  0  0  0  0  0
   -2.6039   57.5831   75.7295 H   0  0  0  0  0  0  0  0  0  0  0  0
   -5.3958   61.2566   76.6920 H   0  0  0  0  0  0  0  0  0  0  0  0
   -7.1823   62.8655   75.9935 H   0  0  0  0  0  0  0  0  0  0  0  0
   -7.7850   60.6062   72.3413 H   0  0  0  0  0  0  0  0  0  0  0  0
   -5.9898   59.0061   73.0336 H   0  0  0  0  0  0  0  0  0  0  0  0
   -9.5297   62.8828   75.6934 H   0  0  0  0  0  0  0  0  0  0  0  0
  -10.6740   63.5531   74.6588 H   0  0  0  0  0  0  0  0  0  0  0  0
  2  1  2  0
  3  2  1  0
  4  3  2  0
  5  4  1  0
  6  1  1  0
  6  5  2  0
  7  5  1  0
  8  7  2  0
  9  7  1  0
 10  9  1  0
 11 10  1  0
 11  4  1  0
 12 11  2  0
 13  9  1  0
 14 13  2  0
 15 13  1  0
 16 15  2  0
 17 16  1  0
 18 17  2  0
 19 18  1  0
 20 19  2  0
 20 15  1  0
 21 18  1  0
 22 21  2  0
 23 21  2  0
 24 21  1  0
 26 25  1  0
 26  1  1  0
 27 26  2  0
  2 28  1  0
  3 29  1  0
  6 30  1  0
 10 31  1  0
 16 32  1  0
 17 33  1  0
 19 34  1  0
 20 35  1  0
 24 36  1  0
 24 37  1  0
M  CHG  1  25  -1
M  END
>  <score>  (6) 
-7.909

$$$$
=
     RDKit          3D

 37 39  0  0  0  0  0  0  0  0999 V2000
    3.4400   61.3100   70.7980 C   0  0  0  0  0  0  0  0  0  0  0  0
    3.4010   62.7010   70.6010 C   0  0  0  0  0  0  0  0  0  0  0  0
    2.3700   63.4720   71.1400 C   0  0  0  0  0  0  0  0  0  0  0  0
    1.3630   62.8580   71.8920 C   0  0  0  0  0  0  0  0  0  0  0  0
    1.3800   61.4800   72.0980 C   0  0  0  0  0  0  0  0  0  0  0  0
    2.4150   60.7110   71.5500 C   0  0  0  0  0  0  0  0  0  0  0  0
    0.3360   60.8250   72.9190 C   0  0  0  0  0  0  0  0  0  0  0  0
    0.3080   59.5990   72.9940 O   0  0  0  0  0  0  0  0  0  0  0  0
   -0.5560   61.6740   73.5890 N   0  0  0  0  0  0  0  0  0  0  0  0
   -0.6810   63.0100   73.1670 N   0  0  0  0  0  0  0  0  0  0  0  0
    0.2690   63.6720   72.4440 C   0  0  0  0  0  0  0  0  0  0  0  0
    0.1970   64.8800   72.2480 O   0  0  0  0  0  0  0  0  0  0  0  0
   -1.5720   61.2750   74.4750 C   0  0  0  0  0  0  0  0  0  0  0  0
   -2.5680   61.9640   74.7040 O   0  0  0  0  0  0  0  0  0  0  0  0
   -1.4520   59.9700   75.1630 C   0  0  0  0  0  0  0  0  0  0  0  0
   -2.2850   58.9190   74.7650 C   0  0  0  0  0  0  0  0  0  0  0  0
   -2.1650   57.6700   75.3760 C   0  0  0  0  0  0  0  0  0  0  0  0
   -1.2190   57.4930   76.3910 C   0  0  0  0  0  0  0  0  0  0  0  0
   -0.4230   58.5570   76.8320 C   0  0  0  0  0  0  0  0  0  0  0  0
   -0.5420   59.8020   76.2170 C   0  0  0  0  0  0  0  0  0  0  0  0
   -1.0100   55.9010   77.1410 S   0  0  0  0  0  6  0  0  0  0  0  0
    0.1760   55.9410   77.9620 O   0  0  0  0  0  0  0  0  0  0  0  0
   -2.2890   55.4560   77.6500 O   0  0  0  0  0  0  0  0  0  0  0  0
   -0.6950   54.9320   75.8020 N   0  0  0  0  0  0  0  0  0  0  0  0
    5.6970   60.5610   70.7900 O   0  0  0  0  0  1  0  0  0  0  0  0
    4.5660   60.4750   70.2200 C   0  0  0  0  0  0  0  0  0  0  0  0
    4.2830   59.7530   69.2150 O   0  0  0  0  0  0  0  0  0  0  0  0
    4.1935   63.1885   70.0143 H   0  0  0  0  0  0  0  0  0  0  0  0
    2.3494   64.5592   70.9739 H   0  0  0  0  0  0  0  0  0  0  0  0
    2.4255   59.6228   71.7107 H   0  0  0  0  0  0  0  0  0  0  0  0
   -1.5404   63.5190   73.4185 H   0  0  0  0  0  0  0  0  0  0  0  0
   -3.0321   59.0765   73.9731 H   0  0  0  0  0  0  0  0  0  0  0  0
   -2.8074   56.8338   75.0628 H   0  0  0  0  0  0  0  0  0  0  0  0
    0.2902   58.4116   77.6568 H   0  0  0  0  0  0  0  0  0  0  0  0
    0.0741   60.6478   76.5562 H   0  0  0  0  0  0  0  0  0  0  0  0
   -0.3918   53.9993   76.1168 H   0  0  0  0  0  0  0  0  0  0  0  0
   -1.5500   54.8417   75.2347 H   0  0  0  0  0  0  0  0  0  0  0  0
  2  1  2  0
  3  2  1  0
  4  3  2  0
  5  4  1  0
  6  1  1  0
  6  5  2  0
  7  5  1  0
  8  7  2  0
  9  7  1  0
 10  9  1  0
 11 10  1  0
 11  4  1  0
 12 11  2  0
 13  9  1  0
 14 13  2  0
 15 13  1  0
 16 15  2  0
 17 16  1  0
 18 17  2  0
 19 18  1  0
 20 19  2  0
 20 15  1  0
 21 18  1  0
 22 21  2  0
 23 21  2  0
 24 21  1  0
 26 25  1  0
 26  1  1  0
 27 26  2  0
  2 28  1  0
  3 29  1  0
  6 30  1  0
 10 31  1  0
 16 32  1  0
 17 33  1  0
 19 34  1  0
 20 35  1  0
 24 36  1  0
 24 37  1  0
M  CHG  1  25  -1
M  END
>  <score>  (7) 
-7.723

$$$$
=
     RDKit          3D

 37 39  0  0  0  0  0  0  0  0999 V2000
    3.7980   67.8070   62.4990 C   0  0  0  0  0  0  0  0  0  0  0  0
    3.3700   68.7910   61.5920 C   0  0  0  0  0  0  0  0  0  0  0  0
    2.1030   69.3670   61.7050 C   0  0  0  0  0  0  0  0  0  0  0  0
    1.2470   68.9640   62.7360 C   0  0  0  0  0  0  0  0  0  0  0  0
    1.6490   67.9880   63.6440 C   0  0  0  0  0  0  0  0  0  0  0  0
    2.9200   67.4100   63.5220 C   0  0  0  0  0  0  0  0  0  0  0  0
    0.7620   67.5780   64.7570 C   0  0  0  0  0  0  0  0  0  0  0  0
    1.0910   66.6390   65.4760 O   0  0  0  0  0  0  0  0  0  0  0  0
   -0.4100   68.3270   64.9290 N   0  0  0  0  0  0  0  0  0  0  0  0
   -0.8790   69.1240   63.8690 N   0  0  0  0  0  0  0  0  0  0  0  0
   -0.0940   69.5610   62.8410 C   0  0  0  0  0  0  0  0  0  0  0  0
   -0.4990   70.3920   62.0360 O   0  0  0  0  0  0  0  0  0  0  0  0
   -1.3540   68.1640   65.9580 C   0  0  0  0  0  0  0  0  0  0  0  0
   -2.5290   68.5210   65.8510 O   0  0  0  0  0  0  0  0  0  0  0  0
   -0.9290   67.5300   67.2260 C   0  0  0  0  0  0  0  0  0  0  0  0
   -1.7810   66.6010   67.8340 C   0  0  0  0  0  0  0  0  0  0  0  0
   -1.3850   65.9660   69.0110 C   0  0  0  0  0  0  0  0  0  0  0  0
   -0.1440   66.2810   69.5760 C   0  0  0  0  0  0  0  0  0  0  0  0
    0.6850   67.2510   69.0030 C   0  0  0  0  0  0  0  0  0  0  0  0
    0.2900   67.8810   67.8240 C   0  0  0  0  0  0  0  0  0  0  0  0
    0.4030   65.4440   71.0400 S   0  0  0  0  0  6  0  0  0  0  0  0
    1.8450   65.4060   71.0260 O   0  0  0  0  0  0  0  0  0  0  0  0
   -0.3470   65.9470   72.1690 O   0  0  0  0  0  0  0  0  0  0  0  0
   -0.1710   63.8840   70.7750 N   0  0  0  0  0  0  0  0  0  0  0  0
    6.1600   67.9900   62.2900 O   0  0  0  0  0  1  0  0  0  0  0  0
    5.1780   67.1900   62.3800 C   0  0  0  0  0  0  0  0  0  0  0  0
    5.2390   65.9220   62.3870 O   0  0  0  0  0  0  0  0  0  0  0  0
    4.0418   69.1118   60.7822 H   0  0  0  0  0  0  0  0  0  0  0  0
    1.7791   70.1344   60.9865 H   0  0  0  0  0  0  0  0  0  0  0  0
    3.2345   66.6352   64.2366 H   0  0  0  0  0  0  0  0  0  0  0  0
   -1.8731   69.3937   63.8684 H   0  0  0  0  0  0  0  0  0  0  0  0
   -2.7591   66.3725   67.3854 H   0  0  0  0  0  0  0  0  0  0  0  0
   -2.0416   65.2250   69.4904 H   0  0  0  0  0  0  0  0  0  0  0  0
    1.6410   67.5146   69.4790 H   0  0  0  0  0  0  0  0  0  0  0  0
    0.9305   68.6488   67.3654 H   0  0  0  0  0  0  0  0  0  0  0  0
   -0.3409   63.4223   71.6799 H   0  0  0  0  0  0  0  0  0  0  0  0
   -1.0509   63.9279   70.2415 H   0  0  0  0  0  0  0  0  0  0  0  0
  2  1  2  0
  3  2  1  0
  4  3  2  0
  5  4  1  0
  6  1  1  0
  6  5  2  0
  7  5  1  0
  8  7  2  0
  9  7  1  0
 10  9  1  0
 11 10  1  0
 11  4  1  0
 12 11  2  0
 13  9  1  0
 14 13  2  0
 15 13  1  0
 16 15  2  0
 17 16  1  0
 18 17  2  0
 19 18  1  0
 20 19  2  0
 20 15  1  0
 21 18  1  0
 22 21  2  0
 23 21  2  0
 24 21  1  0
 26 25  1  0
 26  1  1  0
 27 26  2  0
  2 28  1  0
  3 29  1  0
  6 30  1  0
 10 31  1  0
 16 32  1  0
 17 33  1  0
 19 34  1  0
 20 35  1  0
 24 36  1  0
 24 37  1  0
M  CHG  1  25  -1
M  END
>  <score>  (8) 
-7.71

$$$$
=
     RDKit          3D

 37 39  0  0  0  0  0  0  0  0999 V2000
    1.3630   65.0200   70.5420 C   0  0  0  0  0  0  0  0  0  0  0  0
    2.6160   64.4700   70.2240 C   0  0  0  0  0  0  0  0  0  0  0  0
    3.1240   63.3840   70.9380 C   0  0  0  0  0  0  0  0  0  0  0  0
    2.3780   62.8300   71.9850 C   0  0  0  0  0  0  0  0  0  0  0  0
    1.1350   63.3620   72.3200 C   0  0  0  0  0  0  0  0  0  0  0  0
    0.6330   64.4550   71.6020 C   0  0  0  0  0  0  0  0  0  0  0  0
    0.3250   62.7630   73.4050 C   0  0  0  0  0  0  0  0  0  0  0  0
   -0.7150   63.3150   73.7570 O   0  0  0  0  0  0  0  0  0  0  0  0
    0.8010   61.5630   73.9510 N   0  0  0  0  0  0  0  0  0  0  0  0
    2.1470   61.2050   73.7540 N   0  0  0  0  0  0  0  0  0  0  0  0
    2.9260   61.6970   72.7470 C   0  0  0  0  0  0  0  0  0  0  0  0
    4.0330   61.2300   72.5080 O   0  0  0  0  0  0  0  0  0  0  0  0
    0.1590   60.7870   74.9320 C   0  0  0  0  0  0  0  0  0  0  0  0
    0.7650   60.0070   75.6710 O   0  0  0  0  0  0  0  0  0  0  0  0
   -1.3060   60.9070   75.0960 C   0  0  0  0  0  0  0  0  0  0  0  0
   -1.8070   61.5710   76.2220 C   0  0  0  0  0  0  0  0  0  0  0  0
   -3.1840   61.7260   76.3790 C   0  0  0  0  0  0  0  0  0  0  0  0
   -4.0480   61.2020   75.4110 C   0  0  0  0  0  0  0  0  0  0  0  0
   -3.5550   60.4880   74.3130 C   0  0  0  0  0  0  0  0  0  0  0  0
   -2.1770   60.3380   74.1550 C   0  0  0  0  0  0  0  0  0  0  0  0
   -5.7980   61.4390   75.5610 S   0  0  0  0  0  6  0  0  0  0  0  0
   -6.0820   62.8390   75.3600 O   0  0  0  0  0  0  0  0  0  0  0  0
   -6.4720   60.3980   74.8180 O   0  0  0  0  0  0  0  0  0  0  0  0
   -6.0530   61.0730   77.1840 N   0  0  0  0  0  0  0  0  0  0  0  0
   -0.3200   66.0290   69.1990 O   0  0  0  0  0  1  0  0  0  0  0  0
    0.8080   66.1940   69.7590 C   0  0  0  0  0  0  0  0  0  0  0  0
    1.5140   67.2480   69.7310 O   0  0  0  0  0  0  0  0  0  0  0  0
    3.2047   64.9013   69.4009 H   0  0  0  0  0  0  0  0  0  0  0  0
    4.1074   62.9646   70.6790 H   0  0  0  0  0  0  0  0  0  0  0  0
   -0.3464   64.8771   71.8715 H   0  0  0  0  0  0  0  0  0  0  0  0
    2.5699   60.5315   74.4086 H   0  0  0  0  0  0  0  0  0  0  0  0
   -1.1168   61.9691   76.9804 H   0  0  0  0  0  0  0  0  0  0  0  0
   -3.5870   62.2550   77.2552 H   0  0  0  0  0  0  0  0  0  0  0  0
   -4.2482   60.0487   73.5806 H   0  0  0  0  0  0  0  0  0  0  0  0
   -1.7760   59.7771   73.2979 H   0  0  0  0  0  0  0  0  0  0  0  0
   -5.5697   61.7666   77.7724 H   0  0  0  0  0  0  0  0  0  0  0  0
   -7.0627   61.0950   77.3864 H   0  0  0  0  0  0  0  0  0  0  0  0
  2  1  2  0
  3  2  1  0
  4  3  2  0
  5  4  1  0
  6  1  1  0
  6  5  2  0
  7  5  1  0
  8  7  2  0
  9  7  1  0
 10  9  1  0
 11 10  1  0
 11  4  1  0
 12 11  2  0
 13  9  1  0
 14 13  2  0
 15 13  1  0
 16 15  2  0
 17 16  1  0
 18 17  2  0
 19 18  1  0
 20 19  2  0
 20 15  1  0
 21 18  1  0
 22 21  2  0
 23 21  2  0
 24 21  1  0
 26 25  1  0
 26  1  1  0
 27 26  2  0
  2 28  1  0
  3 29  1  0
  6 30  1  0
 10 31  1  0
 16 32  1  0
 17 33  1  0
 19 34  1  0
 20 35  1  0
 24 36  1  0
 24 37  1  0
M  CHG  1  25  -1
M  END
>  <score>  (9) 
-7.707

$$$$
