=
     RDKit          3D

 74 78  0  0  0  0  0  0  0  0999 V2000
    1.5150   64.9570   70.6460 C   0  0  0  0  0  0  0  0  0  0  0  0
    0.6530   63.8250   71.2030 C   0  0  0  0  0  0  0  0  0  0  0  0
    0.9390   63.4780   72.6710 C   0  0  0  0  0  0  0  0  0  0  0  0
    0.2880   62.1910   73.1870 C   0  0  0  0  0  0  0  0  0  0  0  0
    1.7250   60.0340   74.3370 O   0  0  0  0  0  0  0  0  0  0  0  0
    1.4930   60.0280   73.1330 C   0  0  0  0  0  0  0  0  0  0  0  0
    0.7690   61.0130   72.4940 N   0  0  0  0  0  0  0  0  0  0  0  0
    1.9860   58.9470   72.1950 C   0  0  0  0  0  0  0  0  0  0  0  0
    3.5100   58.8830   72.1990 C   0  0  0  0  0  0  0  0  0  0  0  0
    4.1420   60.2110   71.9340 C   0  0  0  0  0  0  0  0  0  0  0  0
    5.0370   60.8710   72.7530 C   0  0  0  0  0  0  0  0  0  0  0  0
    5.3500   62.0680   72.1690 N   0  0  0  0  0  0  0  0  0  0  0  0
    4.6890   62.2030   70.9710 C   0  0  0  0  0  0  0  0  0  0  0  0
    3.9150   61.0560   70.8000 C   0  0  0  0  0  0  0  0  0  0  0  0
    3.1170   60.9500   69.6420 C   0  0  0  0  0  0  0  0  0  0  0  0
    3.1320   61.9830   68.6970 C   0  0  0  0  0  0  0  0  0  0  0  0
    3.9200   63.1140   68.8950 C   0  0  0  0  0  0  0  0  0  0  0  0
    4.7120   63.2480   70.0390 C   0  0  0  0  0  0  0  0  0  0  0  0
    0.6490   66.0680   70.0400 C   0  0  0  0  0  0  0  0  0  0  0  0
    1.4660   67.2710   69.5540 C   0  0  0  0  0  0  0  0  0  0  0  0
    1.1100   67.6680   68.1170 C   0  0  0  0  0  0  0  0  0  0  0  0
    1.3220   69.1110   67.9380 N   0  0  0  0  0  0  0  0  0  0  0  0
    2.5020   69.3620   67.1690 C   0  0  0  0  0  0  0  0  0  0  0  0
    2.4900   69.0360   65.7980 C   0  0  0  0  0  0  0  0  0  0  0  0
    1.2490   68.4890   65.1340 C   0  0  0  0  0  0  0  0  0  0  0  0
    1.2850   68.5610   63.6090 C   0  0  0  0  0  0  0  0  0  0  0  0
    2.6150   68.0380   63.0870 C   0  0  0  0  0  0  0  0  0  0  0  0
    3.7580   68.9020   63.6040 C   0  0  0  0  0  0  0  0  0  0  0  0
    3.6760   69.1960   65.0800 C   0  0  0  0  0  0  0  0  0  0  0  0
    4.8160   69.6780   65.6310 N   0  0  0  0  0  0  0  0  0  0  0  0
    4.8320   69.9710   66.9360 C   0  0  0  0  0  0  0  0  0  0  0  0
    3.7040   69.8280   67.7730 C   0  0  0  0  0  0  0  0  0  0  0  0
    3.8460   70.1420   69.1480 C   0  0  0  0  0  0  0  0  0  0  0  0
    5.0620   70.5800   69.6710 C   0  0  0  0  0  0  0  0  0  0  0  0
    6.1510   70.7170   68.8250 C   0  0  0  0  0  0  0  0  0  0  0  0
    6.0300   70.4160   67.4720 C   0  0  0  0  0  0  0  0  0  0  0  0
    7.6600   71.2530   69.4540 Cl  0  0  0  0  0  0  0  0  0  0  0  0
    2.1222   65.3794   71.4602 H   0  0  0  0  0  0  0  0  0  0  0  0
    2.1589   64.5467   69.8541 H   0  0  0  0  0  0  0  0  0  0  0  0
   -0.4027   64.1221   71.1184 H   0  0  0  0  0  0  0  0  0  0  0  0
    0.8925   62.9272   70.6142 H   0  0  0  0  0  0  0  0  0  0  0  0
    2.0280   63.3769   72.7886 H   0  0  0  0  0  0  0  0  0  0  0  0
    0.5010   64.2947   73.2636 H   0  0  0  0  0  0  0  0  0  0  0  0
    0.5124   62.0867   74.2588 H   0  0  0  0  0  0  0  0  0  0  0  0
   -0.7946   62.2673   73.0076 H   0  0  0  0  0  0  0  0  0  0  0  0
    0.5634   60.9075   71.4903 H   0  0  0  0  0  0  0  0  0  0  0  0
    1.5830   57.9762   72.5194 H   0  0  0  0  0  0  0  0  0  0  0  0
    1.6447   59.1808   71.1758 H   0  0  0  0  0  0  0  0  0  0  0  0
    3.8449   58.5237   73.1832 H   0  0  0  0  0  0  0  0  0  0  0  0
    3.8168   58.2013   71.3921 H   0  0  0  0  0  0  0  0  0  0  0  0
    5.4305   60.4984   73.7102 H   0  0  0  0  0  0  0  0  0  0  0  0
    5.9899   62.7685   72.5699 H   0  0  0  0  0  0  0  0  0  0  0  0
    2.4874   60.0622   69.4824 H   0  0  0  0  0  0  0  0  0  0  0  0
    2.5156   61.9004   67.7897 H   0  0  0  0  0  0  0  0  0  0  0  0
    3.9192   63.9139   68.1399 H   0  0  0  0  0  0  0  0  0  0  0  0
    5.3313   64.1425   70.2014 H   0  0  0  0  0  0  0  0  0  0  0  0
    0.0950   65.6529   69.1852 H   0  0  0  0  0  0  0  0  0  0  0  0
   -0.0242   66.4276   70.8322 H   0  0  0  0  0  0  0  0  0  0  0  0
    1.2676   68.1257   70.2175 H   0  0  0  0  0  0  0  0  0  0  0  0
    2.5289   66.9884   69.5736 H   0  0  0  0  0  0  0  0  0  0  0  0
    1.7502   67.1139   67.4147 H   0  0  0  0  0  0  0  0  0  0  0  0
    0.0547   67.4266   67.9218 H   0  0  0  0  0  0  0  0  0  0  0  0
    0.7040   69.8434   68.3155 H   0  0  0  0  0  0  0  0  0  0  0  0
    1.1331   67.4357   65.4291 H   0  0  0  0  0  0  0  0  0  0  0  0
    0.4061   69.1134   65.4650 H   0  0  0  0  0  0  0  0  0  0  0  0
    0.4681   67.9500   63.1975 H   0  0  0  0  0  0  0  0  0  0  0  0
    1.1655   69.6091   63.2973 H   0  0  0  0  0  0  0  0  0  0  0  0
    2.7582   67.0026   63.4296 H   0  0  0  0  0  0  0  0  0  0  0  0
    2.6079   68.0716   61.9875 H   0  0  0  0  0  0  0  0  0  0  0  0
    4.7054   68.3792   63.4062 H   0  0  0  0  0  0  0  0  0  0  0  0
    3.6937   69.8671   63.0801 H   0  0  0  0  0  0  0  0  0  0  0  0
    2.9786   70.0379   69.8164 H   0  0  0  0  0  0  0  0  0  0  0  0
    5.1558   70.8139   70.7418 H   0  0  0  0  0  0  0  0  0  0  0  0
    6.9036   70.5337   66.8140 H   0  0  0  0  0  0  0  0  0  0  0  0
  2  1  1  0
  3  2  1  0
  4  3  1  0
  6  5  2  0
  7  6  1  0
  7  4  1  0
  8  6  1  0
  9  8  1  0
 10  9  1  0
 11 10  2  0
 12 11  1  0
 13 12  1  0
 14 13  2  0
 14 10  1  0
 15 14  1  0
 16 15  2  0
 17 16  1  0
 18 17  2  0
 18 13  1  0
 19  1  1  0
 20 19  1  0
 21 20  1  0
 22 21  1  0
 23 22  1  0
 24 23  1  0
 25 24  1  0
 26 25  1  0
 27 26  1  0
 28 27  1  0
 29 28  1  0
 29 24  2  0
 30 29  1  0
 31 30  2  0
 32 31  1  0
 32 23  2  0
 33 32  1  0
 34 33  2  0
 35 34  1  0
 36 31  1  0
 36 35  2  0
 37 35  1  0
  1 38  1  0
  1 39  1  0
  2 40  1  0
  2 41  1  0
  3 42  1  0
  3 43  1  0
  4 44  1  0
  4 45  1  0
  7 46  1  0
  8 47  1  0
  8 48  1  0
  9 49  1  0
  9 50  1  0
 11 51  1  0
 12 52  1  0
 15 53  1  0
 16 54  1  0
 17 55  1  0
 18 56  1  0
 19 57  1  0
 19 58  1  0
 20 59  1  0
 20 60  1  0
 21 61  1  0
 21 62  1  0
 22 63  1  0
 25 64  1  0
 25 65  1  0
 26 66  1  0
 26 67  1  0
 27 68  1  0
 27 69  1  0
 28 70  1  0
 28 71  1  0
 33 72  1  0
 34 73  1  0
 36 74  1  0
M  END
>  <score>  (1) 
-12.181

$$$$
=
     RDKit          3D

 74 78  0  0  0  0  0  0  0  0999 V2000
    1.5680   65.3200   70.5360 C   0  0  0  0  0  0  0  0  0  0  0  0
    0.6900   64.1370   70.9450 C   0  0  0  0  0  0  0  0  0  0  0  0
    1.1340   63.4400   72.2380 C   0  0  0  0  0  0  0  0  0  0  0  0
    0.2310   62.3000   72.7190 C   0  0  0  0  0  0  0  0  0  0  0  0
    1.9130   60.5120   74.1410 O   0  0  0  0  0  0  0  0  0  0  0  0
    1.5380   60.2150   73.0110 C   0  0  0  0  0  0  0  0  0  0  0  0
    0.6890   61.0030   72.2620 N   0  0  0  0  0  0  0  0  0  0  0  0
    1.9730   58.9560   72.2940 C   0  0  0  0  0  0  0  0  0  0  0  0
    3.4940   58.8720   72.2230 C   0  0  0  0  0  0  0  0  0  0  0  0
    4.1310   60.1980   71.9620 C   0  0  0  0  0  0  0  0  0  0  0  0
    5.0370   60.8480   72.7780 C   0  0  0  0  0  0  0  0  0  0  0  0
    5.3520   62.0470   72.2000 N   0  0  0  0  0  0  0  0  0  0  0  0
    4.6820   62.1930   71.0080 C   0  0  0  0  0  0  0  0  0  0  0  0
    3.9000   61.0520   70.8360 C   0  0  0  0  0  0  0  0  0  0  0  0
    3.0920   60.9580   69.6830 C   0  0  0  0  0  0  0  0  0  0  0  0
    3.1050   61.9970   68.7450 C   0  0  0  0  0  0  0  0  0  0  0  0
    3.9010   63.1230   68.9440 C   0  0  0  0  0  0  0  0  0  0  0  0
    4.7030   63.2450   70.0820 C   0  0  0  0  0  0  0  0  0  0  0  0
    0.7580   66.3750   69.7730 C   0  0  0  0  0  0  0  0  0  0  0  0
    1.6040   67.5700   69.3160 C   0  0  0  0  0  0  0  0  0  0  0  0
    1.1400   68.1210   67.9640 C   0  0  0  0  0  0  0  0  0  0  0  0
    1.6320   69.4960   67.7980 N   0  0  0  0  0  0  0  0  0  0  0  0
    2.8620   69.5120   67.0670 C   0  0  0  0  0  0  0  0  0  0  0  0
    4.0260   69.9590   67.7230 C   0  0  0  0  0  0  0  0  0  0  0  0
    3.9990   70.3580   69.1790 C   0  0  0  0  0  0  0  0  0  0  0  0
    5.3840   70.4350   69.8210 C   0  0  0  0  0  0  0  0  0  0  0  0
    6.3370   71.2140   68.9260 C   0  0  0  0  0  0  0  0  0  0  0  0
    6.5010   70.5010   67.5890 C   0  0  0  0  0  0  0  0  0  0  0  0
    5.1980   70.0600   66.9730 C   0  0  0  0  0  0  0  0  0  0  0  0
    5.2720   69.7200   65.6640 N   0  0  0  0  0  0  0  0  0  0  0  0
    4.1630   69.3130   65.0360 C   0  0  0  0  0  0  0  0  0  0  0  0
    2.9130   69.1910   65.6800 C   0  0  0  0  0  0  0  0  0  0  0  0
    1.7980   68.7770   64.9080 C   0  0  0  0  0  0  0  0  0  0  0  0
    1.9230   68.4950   63.5480 C   0  0  0  0  0  0  0  0  0  0  0  0
    3.1640   68.6160   62.9430 C   0  0  0  0  0  0  0  0  0  0  0  0
    4.2690   69.0190   63.6860 C   0  0  0  0  0  0  0  0  0  0  0  0
    3.3360   68.2740   61.2660 Cl  0  0  0  0  0  0  0  0  0  0  0  0
    1.9943   65.7797   71.4399 H   0  0  0  0  0  0  0  0  0  0  0  0
    2.3659   64.9493   69.8758 H   0  0  0  0  0  0  0  0  0  0  0  0
   -0.3377   64.5030   71.0860 H   0  0  0  0  0  0  0  0  0  0  0  0
    0.7708   63.3911   70.1406 H   0  0  0  0  0  0  0  0  0  0  0  0
    2.1402   63.0277   72.0719 H   0  0  0  0  0  0  0  0  0  0  0  0
    1.0926   64.2087   73.0237 H   0  0  0  0  0  0  0  0  0  0  0  0
    0.2151   62.3018   73.8189 H   0  0  0  0  0  0  0  0  0  0  0  0
   -0.7728   62.4678   72.3015 H   0  0  0  0  0  0  0  0  0  0  0  0
    0.3693   60.6576   71.3458 H   0  0  0  0  0  0  0  0  0  0  0  0
    1.5883   58.0803   72.8372 H   0  0  0  0  0  0  0  0  0  0  0  0
    1.5726   58.9771   71.2697 H   0  0  0  0  0  0  0  0  0  0  0  0
    3.8704   58.4827   73.1805 H   0  0  0  0  0  0  0  0  0  0  0  0
    3.7523   58.2076   71.3852 H   0  0  0  0  0  0  0  0  0  0  0  0
    5.4364   60.4666   73.7293 H   0  0  0  0  0  0  0  0  0  0  0  0
    5.9988   62.7414   72.6004 H   0  0  0  0  0  0  0  0  0  0  0  0
    2.4565   60.0746   69.5224 H   0  0  0  0  0  0  0  0  0  0  0  0
    2.4808   61.9237   67.8422 H   0  0  0  0  0  0  0  0  0  0  0  0
    3.8982   63.9279   68.1943 H   0  0  0  0  0  0  0  0  0  0  0  0
    5.3285   64.1350   70.2452 H   0  0  0  0  0  0  0  0  0  0  0  0
    0.3141   65.9007   68.8853 H   0  0  0  0  0  0  0  0  0  0  0  0
   -0.0085   66.7605   70.4614 H   0  0  0  0  0  0  0  0  0  0  0  0
    1.5272   68.3678   70.0694 H   0  0  0  0  0  0  0  0  0  0  0  0
    2.6428   67.2263   69.2032 H   0  0  0  0  0  0  0  0  0  0  0  0
    1.5372   67.4898   67.1554 H   0  0  0  0  0  0  0  0  0  0  0  0
    0.0407   68.1188   67.9260 H   0  0  0  0  0  0  0  0  0  0  0  0
    1.1557   70.3348   68.1591 H   0  0  0  0  0  0  0  0  0  0  0  0
    3.5236   71.3467   69.2593 H   0  0  0  0  0  0  0  0  0  0  0  0
    3.4390   69.5780   69.7156 H   0  0  0  0  0  0  0  0  0  0  0  0
    5.3053   70.9406   70.7947 H   0  0  0  0  0  0  0  0  0  0  0  0
    5.7731   69.4152   69.9571 H   0  0  0  0  0  0  0  0  0  0  0  0
    5.9319   72.2220   68.7534 H   0  0  0  0  0  0  0  0  0  0  0  0
    7.3177   71.2840   69.4192 H   0  0  0  0  0  0  0  0  0  0  0  0
    7.0015   71.1864   66.8891 H   0  0  0  0  0  0  0  0  0  0  0  0
    7.0900   69.5918   67.7800 H   0  0  0  0  0  0  0  0  0  0  0  0
    0.8151   68.6763   65.3914 H   0  0  0  0  0  0  0  0  0  0  0  0
    1.0468   68.1802   62.9622 H   0  0  0  0  0  0  0  0  0  0  0  0
    5.2476   69.1061   63.1913 H   0  0  0  0  0  0  0  0  0  0  0  0
  2  1  1  0
  3  2  1  0
  4  3  1  0
  6  5  2  0
  7  6  1  0
  7  4  1  0
  8  6  1  0
  9  8  1  0
 10  9  1  0
 11 10  2  0
 12 11  1  0
 13 12  1  0
 14 13  2  0
 14 10  1  0
 15 14  1  0
 16 15  2  0
 17 16  1  0
 18 17  2  0
 18 13  1  0
 19  1  1  0
 20 19  1  0
 21 20  1  0
 22 21  1  0
 23 22  1  0
 24 23  1  0
 25 24  1  0
 26 25  1  0
 27 26  1  0
 28 27  1  0
 29 28  1  0
 29 24  2  0
 30 29  1  0
 31 30  2  0
 32 31  1  0
 32 23  2  0
 33 32  1  0
 34 33  2  0
 35 34  1  0
 36 31  1  0
 36 35  2  0
 37 35  1  0
  1 38  1  0
  1 39  1  0
  2 40  1  0
  2 41  1  0
  3 42  1  0
  3 43  1  0
  4 44  1  0
  4 45  1  0
  7 46  1  0
  8 47  1  0
  8 48  1  0
  9 49  1  0
  9 50  1  0
 11 51  1  0
 12 52  1  0
 15 53  1  0
 16 54  1  0
 17 55  1  0
 18 56  1  0
 19 57  1  0
 19 58  1  0
 20 59  1  0
 20 60  1  0
 21 61  1  0
 21 62  1  0
 22 63  1  0
 25 64  1  0
 25 65  1  0
 26 66  1  0
 26 67  1  0
 27 68  1  0
 27 69  1  0
 28 70  1  0
 28 71  1  0
 33 72  1  0
 34 73  1  0
 36 74  1  0
M  END
>  <score>  (2) 
-11.969

$$$$
=
     RDKit          3D

 74 78  0  0  0  0  0  0  0  0999 V2000
   -0.2500   66.4710   68.9860 C   0  0  0  0  0  0  0  0  0  0  0  0
    0.3930   67.6260   68.2180 C   0  0  0  0  0  0  0  0  0  0  0  0
   -0.5860   68.4290   67.3510 C   0  0  0  0  0  0  0  0  0  0  0  0
   -0.4190   68.2640   65.8370 C   0  0  0  0  0  0  0  0  0  0  0  0
    1.1320   66.0970   64.8650 O   0  0  0  0  0  0  0  0  0  0  0  0
    1.6540   67.1990   64.9980 C   0  0  0  0  0  0  0  0  0  0  0  0
    0.9690   68.3180   65.4260 N   0  0  0  0  0  0  0  0  0  0  0  0
    3.1190   67.4640   64.7240 C   0  0  0  0  0  0  0  0  0  0  0  0
    3.3750   68.9590   64.5590 C   0  0  0  0  0  0  0  0  0  0  0  0
    4.4370   69.4650   65.4800 C   0  0  0  0  0  0  0  0  0  0  0  0
    5.7680   69.6600   65.1680 C   0  0  0  0  0  0  0  0  0  0  0  0
    6.4130   70.0990   66.2920 N   0  0  0  0  0  0  0  0  0  0  0  0
    5.5270   70.2130   67.3370 C   0  0  0  0  0  0  0  0  0  0  0  0
    4.2790   69.8130   66.8600 C   0  0  0  0  0  0  0  0  0  0  0  0
    3.1850   69.8220   67.7510 C   0  0  0  0  0  0  0  0  0  0  0  0
    3.3750   70.2400   69.0740 C   0  0  0  0  0  0  0  0  0  0  0  0
    4.6340   70.6380   69.5170 C   0  0  0  0  0  0  0  0  0  0  0  0
    5.7370   70.6290   68.6580 C   0  0  0  0  0  0  0  0  0  0  0  0
    0.6810   65.9510   70.0890 C   0  0  0  0  0  0  0  0  0  0  0  0
    0.0270   65.9440   71.4750 C   0  0  0  0  0  0  0  0  0  0  0  0
    0.1440   64.5780   72.1610 C   0  0  0  0  0  0  0  0  0  0  0  0
    0.2950   63.5280   71.1450 N   0  0  0  0  0  0  0  0  0  0  0  0
    0.9250   62.3690   71.6980 C   0  0  0  0  0  0  0  0  0  0  0  0
    2.2690   62.1100   71.3620 C   0  0  0  0  0  0  0  0  0  0  0  0
    3.0520   63.0580   70.4850 C   0  0  0  0  0  0  0  0  0  0  0  0
    4.5630   62.8410   70.5430 C   0  0  0  0  0  0  0  0  0  0  0  0
    4.8900   61.3630   70.3970 C   0  0  0  0  0  0  0  0  0  0  0  0
    4.2790   60.5740   71.5490 C   0  0  0  0  0  0  0  0  0  0  0  0
    2.8420   60.9280   71.8310 C   0  0  0  0  0  0  0  0  0  0  0  0
    2.1790   60.0440   72.6150 N   0  0  0  0  0  0  0  0  0  0  0  0
    0.8990   60.2800   72.9200 C   0  0  0  0  0  0  0  0  0  0  0  0
    0.2010   61.4280   72.4860 C   0  0  0  0  0  0  0  0  0  0  0  0
   -1.1640   61.5600   72.8460 C   0  0  0  0  0  0  0  0  0  0  0  0
   -1.8100   60.5880   73.6090 C   0  0  0  0  0  0  0  0  0  0  0  0
   -1.0990   59.4740   74.0280 C   0  0  0  0  0  0  0  0  0  0  0  0
    0.2420   59.3290   73.6850 C   0  0  0  0  0  0  0  0  0  0  0  0
   -1.8810   58.2630   74.9670 Cl  0  0  0  0  0  0  0  0  0  0  0  0
   -1.1869   66.8219   69.4433 H   0  0  0  0  0  0  0  0  0  0  0  0
   -0.4461   65.6502   68.2804 H   0  0  0  0  0  0  0  0  0  0  0  0
    0.8508   68.3116   68.9462 H   0  0  0  0  0  0  0  0  0  0  0  0
    1.1277   67.1787   67.5324 H   0  0  0  0  0  0  0  0  0  0  0  0
   -1.6069   68.1158   67.6149 H   0  0  0  0  0  0  0  0  0  0  0  0
   -0.3765   69.4879   67.5630 H   0  0  0  0  0  0  0  0  0  0  0  0
   -0.8382   67.2916   65.5391 H   0  0  0  0  0  0  0  0  0  0  0  0
   -0.9464   69.0966   65.3484 H   0  0  0  0  0  0  0  0  0  0  0  0
    1.4614   69.2222   65.4542 H   0  0  0  0  0  0  0  0  0  0  0  0
    3.7179   67.0858   65.5656 H   0  0  0  0  0  0  0  0  0  0  0  0
    3.4029   66.9517   63.7929 H   0  0  0  0  0  0  0  0  0  0  0  0
    3.6875   69.1506   63.5219 H   0  0  0  0  0  0  0  0  0  0  0  0
    2.4415   69.4861   64.8053 H   0  0  0  0  0  0  0  0  0  0  0  0
    6.2305   69.4913   64.1843 H   0  0  0  0  0  0  0  0  0  0  0  0
    7.4189   70.3135   66.3473 H   0  0  0  0  0  0  0  0  0  0  0  0
    2.1895   69.5028   67.4087 H   0  0  0  0  0  0  0  0  0  0  0  0
    2.5227   70.2541   69.7692 H   0  0  0  0  0  0  0  0  0  0  0  0
    4.7626   70.9647   70.5595 H   0  0  0  0  0  0  0  0  0  0  0  0
    6.7336   70.9374   69.0068 H   0  0  0  0  0  0  0  0  0  0  0  0
    0.9805   64.9227   69.8382 H   0  0  0  0  0  0  0  0  0  0  0  0
    1.5439   66.6315   70.1373 H   0  0  0  0  0  0  0  0  0  0  0  0
    0.5201   66.7000   72.1037 H   0  0  0  0  0  0  0  0  0  0  0  0
   -1.0422   66.1679   71.3461 H   0  0  0  0  0  0  0  0  0  0  0  0
    1.0219   64.5751   72.8238 H   0  0  0  0  0  0  0  0  0  0  0  0
   -0.7639   64.3869   72.7519 H   0  0  0  0  0  0  0  0  0  0  0  0
   -0.0117   63.6147   70.1655 H   0  0  0  0  0  0  0  0  0  0  0  0
    2.7212   62.9223   69.4447 H   0  0  0  0  0  0  0  0  0  0  0  0
    2.8585   64.0748   70.8573 H   0  0  0  0  0  0  0  0  0  0  0  0
    5.0416   63.4010   69.7261 H   0  0  0  0  0  0  0  0  0  0  0  0
    4.9385   63.1963   71.5140 H   0  0  0  0  0  0  0  0  0  0  0  0
    4.4813   60.9924   69.4453 H   0  0  0  0  0  0  0  0  0  0  0  0
    5.9822   61.2332   70.4117 H   0  0  0  0  0  0  0  0  0  0  0  0
    4.3309   59.5032   71.3025 H   0  0  0  0  0  0  0  0  0  0  0  0
    4.8550   60.8254   72.4518 H   0  0  0  0  0  0  0  0  0  0  0  0
   -1.7248   62.4472   72.5167 H   0  0  0  0  0  0  0  0  0  0  0  0
   -2.8710   60.7037   73.8753 H   0  0  0  0  0  0  0  0  0  0  0  0
    0.7923   58.4406   74.0284 H   0  0  0  0  0  0  0  0  0  0  0  0
  2  1  1  0
  3  2  1  0
  4  3  1  0
  6  5  2  0
  7  6  1  0
  7  4  1  0
  8  6  1  0
  9  8  1  0
 10  9  1  0
 11 10  2  0
 12 11  1  0
 13 12  1  0
 14 13  2  0
 14 10  1  0
 15 14  1  0
 16 15  2  0
 17 16  1  0
 18 17  2  0
 18 13  1  0
 19  1  1  0
 20 19  1  0
 21 20  1  0
 22 21  1  0
 23 22  1  0
 24 23  1  0
 25 24  1  0
 26 25  1  0
 27 26  1  0
 28 27  1  0
 29 28  1  0
 29 24  2  0
 30 29  1  0
 31 30  2  0
 32 31  1  0
 32 23  2  0
 33 32  1  0
 34 33  2  0
 35 34  1  0
 36 31  1  0
 36 35  2  0
 37 35  1  0
  1 38  1  0
  1 39  1  0
  2 40  1  0
  2 41  1  0
  3 42  1  0
  3 43  1  0
  4 44  1  0
  4 45  1  0
  7 46  1  0
  8 47  1  0
  8 48  1  0
  9 49  1  0
  9 50  1  0
 11 51  1  0
 12 52  1  0
 15 53  1  0
 16 54  1  0
 17 55  1  0
 18 56  1  0
 19 57  1  0
 19 58  1  0
 20 59  1  0
 20 60  1  0
 21 61  1  0
 21 62  1  0
 22 63  1  0
 25 64  1  0
 25 65  1  0
 26 66  1  0
 26 67  1  0
 27 68  1  0
 27 69  1  0
 28 70  1  0
 28 71  1  0
 33 72  1  0
 34 73  1  0
 36 74  1  0
M  END
>  <score>  (3) 
-11.771

$$$$
=
     RDKit          3D

 74 78  0  0  0  0  0  0  0  0999 V2000
    0.7260   66.5450   69.3850 C   0  0  0  0  0  0  0  0  0  0  0  0
    0.3050   65.8080   70.6570 C   0  0  0  0  0  0  0  0  0  0  0  0
    1.0930   64.5190   70.9290 C   0  0  0  0  0  0  0  0  0  0  0  0
    2.5660   64.5410   70.5100 C   0  0  0  0  0  0  0  0  0  0  0  0
    4.1330   63.0110   68.7080 O   0  0  0  0  0  0  0  0  0  0  0  0
    3.9550   62.5990   69.8500 C   0  0  0  0  0  0  0  0  0  0  0  0
    3.2420   63.2940   70.8050 N   0  0  0  0  0  0  0  0  0  0  0  0
    4.4840   61.2720   70.3480 C   0  0  0  0  0  0  0  0  0  0  0  0
    3.6640   60.1170   69.7820 C   0  0  0  0  0  0  0  0  0  0  0  0
    3.1440   59.2060   70.8450 C   0  0  0  0  0  0  0  0  0  0  0  0
    3.5110   57.8900   71.0500 C   0  0  0  0  0  0  0  0  0  0  0  0
    2.7830   57.3990   72.0990 N   0  0  0  0  0  0  0  0  0  0  0  0
    1.9530   58.3740   72.6010 C   0  0  0  0  0  0  0  0  0  0  0  0
    2.1500   59.5170   71.8280 C   0  0  0  0  0  0  0  0  0  0  0  0
    1.3960   60.6710   72.1300 C   0  0  0  0  0  0  0  0  0  0  0  0
    0.4880   60.6420   73.1950 C   0  0  0  0  0  0  0  0  0  0  0  0
    0.3170   59.4840   73.9510 C   0  0  0  0  0  0  0  0  0  0  0  0
    1.0450   58.3250   73.6660 C   0  0  0  0  0  0  0  0  0  0  0  0
   -0.4810   66.8290   68.4830 C   0  0  0  0  0  0  0  0  0  0  0  0
   -0.0960   67.4790   67.1490 C   0  0  0  0  0  0  0  0  0  0  0  0
    1.4090   67.7530   67.0530 C   0  0  0  0  0  0  0  0  0  0  0  0
    1.6330   69.1740   66.7550 N   0  0  0  0  0  0  0  0  0  0  0  0
    2.9430   69.3820   66.2170 C   0  0  0  0  0  0  0  0  0  0  0  0
    3.1800   69.0300   64.8740 C   0  0  0  0  0  0  0  0  0  0  0  0
    2.0710   68.5010   63.9960 C   0  0  0  0  0  0  0  0  0  0  0  0
    2.3950   68.5440   62.5040 C   0  0  0  0  0  0  0  0  0  0  0  0
    3.7840   67.9790   62.2490 C   0  0  0  0  0  0  0  0  0  0  0  0
    4.8330   68.8250   62.9600 C   0  0  0  0  0  0  0  0  0  0  0  0
    4.4830   69.1490   64.3900 C   0  0  0  0  0  0  0  0  0  0  0  0
    5.5120   69.6140   65.1390 N   0  0  0  0  0  0  0  0  0  0  0  0
    5.2910   69.9300   66.4190 C   0  0  0  0  0  0  0  0  0  0  0  0
    4.0230   69.8310   67.0300 C   0  0  0  0  0  0  0  0  0  0  0  0
    3.9120   70.1670   68.4030 C   0  0  0  0  0  0  0  0  0  0  0  0
    5.0200   70.5850   69.1400 C   0  0  0  0  0  0  0  0  0  0  0  0
    6.2520   70.6800   68.5120 C   0  0  0  0  0  0  0  0  0  0  0  0
    6.3790   70.3570   67.1640 C   0  0  0  0  0  0  0  0  0  0  0  0
    7.6300   71.1920   69.4050 Cl  0  0  0  0  0  0  0  0  0  0  0  0
    1.1986   67.4987   69.6627 H   0  0  0  0  0  0  0  0  0  0  0  0
    1.4322   65.9087   68.8315 H   0  0  0  0  0  0  0  0  0  0  0  0
    0.4476   66.4860   71.5114 H   0  0  0  0  0  0  0  0  0  0  0  0
   -0.7452   65.5122   70.5173 H   0  0  0  0  0  0  0  0  0  0  0  0
    1.0519   64.3193   72.0099 H   0  0  0  0  0  0  0  0  0  0  0  0
    0.6175   63.7410   70.3137 H   0  0  0  0  0  0  0  0  0  0  0  0
    2.6227   64.7262   69.4272 H   0  0  0  0  0  0  0  0  0  0  0  0
    3.0657   65.3371   71.0813 H   0  0  0  0  0  0  0  0  0  0  0  0
    3.1884   62.9132   71.7605 H   0  0  0  0  0  0  0  0  0  0  0  0
    5.5317   61.1596   70.0322 H   0  0  0  0  0  0  0  0  0  0  0  0
    4.4115   61.2522   71.4454 H   0  0  0  0  0  0  0  0  0  0  0  0
    2.8108   60.5308   69.2245 H   0  0  0  0  0  0  0  0  0  0  0  0
    4.3258   59.5262   69.1317 H   0  0  0  0  0  0  0  0  0  0  0  0
    4.2604   57.3324   70.4691 H   0  0  0  0  0  0  0  0  0  0  0  0
    2.8473   56.4369   72.4610 H   0  0  0  0  0  0  0  0  0  0  0  0
    1.5208   61.5864   71.5330 H   0  0  0  0  0  0  0  0  0  0  0  0
   -0.0961   61.5420   73.4374 H   0  0  0  0  0  0  0  0  0  0  0  0
   -0.4012   59.4818   74.7841 H   0  0  0  0  0  0  0  0  0  0  0  0
    0.9094   57.4073   74.2572 H   0  0  0  0  0  0  0  0  0  0  0  0
   -0.9932   65.8782   68.2741 H   0  0  0  0  0  0  0  0  0  0  0  0
   -1.1301   67.5380   69.0177 H   0  0  0  0  0  0  0  0  0  0  0  0
   -0.3866   66.8053   66.3295 H   0  0  0  0  0  0  0  0  0  0  0  0
   -0.6205   68.4433   67.0787 H   0  0  0  0  0  0  0  0  0  0  0  0
    1.8891   67.4994   68.0097 H   0  0  0  0  0  0  0  0  0  0  0  0
    1.8417   67.1386   66.2497 H   0  0  0  0  0  0  0  0  0  0  0  0
    0.9406   69.9202   66.9121 H   0  0  0  0  0  0  0  0  0  0  0  0
    1.8730   67.4565   64.2783 H   0  0  0  0  0  0  0  0  0  0  0  0
    1.1981   69.1515   64.1541 H   0  0  0  0  0  0  0  0  0  0  0  0
    1.6534   67.9459   61.9542 H   0  0  0  0  0  0  0  0  0  0  0  0
    2.3652   69.5888   62.1613 H   0  0  0  0  0  0  0  0  0  0  0  0
    3.8319   66.9471   62.6269 H   0  0  0  0  0  0  0  0  0  0  0  0
    3.9844   67.9916   61.1675 H   0  0  0  0  0  0  0  0  0  0  0  0
    5.7860   68.2757   62.9517 H   0  0  0  0  0  0  0  0  0  0  0  0
    4.8948   69.7812   62.4197 H   0  0  0  0  0  0  0  0  0  0  0  0
    2.9318   70.0966   68.8972 H   0  0  0  0  0  0  0  0  0  0  0  0
    4.9174   70.8361   70.2060 H   0  0  0  0  0  0  0  0  0  0  0  0
    7.3631   70.4424   66.6800 H   0  0  0  0  0  0  0  0  0  0  0  0
  2  1  1  0
  3  2  1  0
  4  3  1  0
  6  5  2  0
  7  6  1  0
  7  4  1  0
  8  6  1  0
  9  8  1  0
 10  9  1  0
 11 10  2  0
 12 11  1  0
 13 12  1  0
 14 13  2  0
 14 10  1  0
 15 14  1  0
 16 15  2  0
 17 16  1  0
 18 17  2  0
 18 13  1  0
 19  1  1  0
 20 19  1  0
 21 20  1  0
 22 21  1  0
 23 22  1  0
 24 23  1  0
 25 24  1  0
 26 25  1  0
 27 26  1  0
 28 27  1  0
 29 28  1  0
 29 24  2  0
 30 29  1  0
 31 30  2  0
 32 31  1  0
 32 23  2  0
 33 32  1  0
 34 33  2  0
 35 34  1  0
 36 31  1  0
 36 35  2  0
 37 35  1  0
  1 38  1  0
  1 39  1  0
  2 40  1  0
  2 41  1  0
  3 42  1  0
  3 43  1  0
  4 44  1  0
  4 45  1  0
  7 46  1  0
  8 47  1  0
  8 48  1  0
  9 49  1  0
  9 50  1  0
 11 51  1  0
 12 52  1  0
 15 53  1  0
 16 54  1  0
 17 55  1  0
 18 56  1  0
 19 57  1  0
 19 58  1  0
 20 59  1  0
 20 60  1  0
 21 61  1  0
 21 62  1  0
 22 63  1  0
 25 64  1  0
 25 65  1  0
 26 66  1  0
 26 67  1  0
 27 68  1  0
 27 69  1  0
 28 70  1  0
 28 71  1  0
 33 72  1  0
 34 73  1  0
 36 74  1  0
M  END
>  <score>  (4) 
-11.738

$$$$
=
     RDKit          3D

 74 78  0  0  0  0  0  0  0  0999 V2000
    1.2370   66.3730   69.9100 C   0  0  0  0  0  0  0  0  0  0  0  0
    1.2310   65.0100   70.6030 C   0  0  0  0  0  0  0  0  0  0  0  0
    0.0420   64.7880   71.5480 C   0  0  0  0  0  0  0  0  0  0  0  0
    0.3600   64.0450   72.8490 C   0  0  0  0  0  0  0  0  0  0  0  0
   -1.3400   62.3070   74.3090 O   0  0  0  0  0  0  0  0  0  0  0  0
   -0.5660   61.8360   73.4830 C   0  0  0  0  0  0  0  0  0  0  0  0
    0.2680   62.6060   72.6990 N   0  0  0  0  0  0  0  0  0  0  0  0
   -0.4190   60.3510   73.2300 C   0  0  0  0  0  0  0  0  0  0  0  0
    0.9110   59.8400   73.7750 C   0  0  0  0  0  0  0  0  0  0  0  0
    1.7540   59.1980   72.7220 C   0  0  0  0  0  0  0  0  0  0  0  0
    2.0410   57.8510   72.6090 C   0  0  0  0  0  0  0  0  0  0  0  0
    2.8700   57.6780   71.5350 N   0  0  0  0  0  0  0  0  0  0  0  0
    3.1240   58.8850   70.9270 C   0  0  0  0  0  0  0  0  0  0  0  0
    2.4440   59.8600   71.6560 C   0  0  0  0  0  0  0  0  0  0  0  0
    2.5530   61.2050   71.2440 C   0  0  0  0  0  0  0  0  0  0  0  0
    3.3240   61.5220   70.1190 C   0  0  0  0  0  0  0  0  0  0  0  0
    3.9880   60.5230   69.4100 C   0  0  0  0  0  0  0  0  0  0  0  0
    3.9030   59.1840   69.8030 C   0  0  0  0  0  0  0  0  0  0  0  0
   -0.0870   66.6320   69.1820 C   0  0  0  0  0  0  0  0  0  0  0  0
    0.0800   67.4610   67.9040 C   0  0  0  0  0  0  0  0  0  0  0  0
    1.5340   67.8920   67.6820 C   0  0  0  0  0  0  0  0  0  0  0  0
    1.5630   69.1650   66.9490 N   0  0  0  0  0  0  0  0  0  0  0  0
    2.8440   69.3790   66.3490 C   0  0  0  0  0  0  0  0  0  0  0  0
    3.0190   69.0230   64.9960 C   0  0  0  0  0  0  0  0  0  0  0  0
    1.8730   68.4840   64.1750 C   0  0  0  0  0  0  0  0  0  0  0  0
    2.1240   68.5230   62.6690 C   0  0  0  0  0  0  0  0  0  0  0  0
    3.5030   67.9650   62.3490 C   0  0  0  0  0  0  0  0  0  0  0  0
    4.5790   68.8200   63.0060 C   0  0  0  0  0  0  0  0  0  0  0  0
    4.2960   69.1480   64.4500 C   0  0  0  0  0  0  0  0  0  0  0  0
    5.3570   69.6220   65.1470 N   0  0  0  0  0  0  0  0  0  0  0  0
    5.1960   69.9420   66.4350 C   0  0  0  0  0  0  0  0  0  0  0  0
    3.9590   69.8380   67.1070 C   0  0  0  0  0  0  0  0  0  0  0  0
    3.9120   70.1780   68.4830 C   0  0  0  0  0  0  0  0  0  0  0  0
    5.0520   70.6070   69.1630 C   0  0  0  0  0  0  0  0  0  0  0  0
    6.2520   70.7060   68.4770 C   0  0  0  0  0  0  0  0  0  0  0  0
    6.3160   70.3780   67.1260 C   0  0  0  0  0  0  0  0  0  0  0  0
    7.6680   71.2300   69.3010 Cl  0  0  0  0  0  0  0  0  0  0  0  0
    1.3908   67.1583   70.6647 H   0  0  0  0  0  0  0  0  0  0  0  0
    2.0493   66.3825   69.1684 H   0  0  0  0  0  0  0  0  0  0  0  0
    1.2059   64.2295   69.8282 H   0  0  0  0  0  0  0  0  0  0  0  0
    2.1387   64.9674   71.2229 H   0  0  0  0  0  0  0  0  0  0  0  0
   -0.3683   65.7736   71.8129 H   0  0  0  0  0  0  0  0  0  0  0  0
   -0.6624   64.1456   70.9993 H   0  0  0  0  0  0  0  0  0  0  0  0
    1.3823   64.3031   73.1626 H   0  0  0  0  0  0  0  0  0  0  0  0
   -0.3814   64.3524   73.6012 H   0  0  0  0  0  0  0  0  0  0  0  0
    0.8450   62.1427   71.9826 H   0  0  0  0  0  0  0  0  0  0  0  0
   -1.2421   59.8168   73.7272 H   0  0  0  0  0  0  0  0  0  0  0  0
   -0.4484   60.1726   72.1450 H   0  0  0  0  0  0  0  0  0  0  0  0
    1.4660   60.6882   74.2022 H   0  0  0  0  0  0  0  0  0  0  0  0
    0.6887   59.0768   74.5353 H   0  0  0  0  0  0  0  0  0  0  0  0
    1.6670   57.0547   73.2694 H   0  0  0  0  0  0  0  0  0  0  0  0
    3.2501   56.7721   71.2255 H   0  0  0  0  0  0  0  0  0  0  0  0
    2.0359   61.9990   71.8027 H   0  0  0  0  0  0  0  0  0  0  0  0
    3.4063   62.5690   69.7920 H   0  0  0  0  0  0  0  0  0  0  0  0
    4.5879   60.7919   68.5281 H   0  0  0  0  0  0  0  0  0  0  0  0
    4.4297   58.3933   69.2485 H   0  0  0  0  0  0  0  0  0  0  0  0
   -0.5345   65.6633   68.9146 H   0  0  0  0  0  0  0  0  0  0  0  0
   -0.7285   67.2086   69.8646 H   0  0  0  0  0  0  0  0  0  0  0  0
   -0.2461   66.8571   67.0444 H   0  0  0  0  0  0  0  0  0  0  0  0
   -0.5306   68.3701   68.0078 H   0  0  0  0  0  0  0  0  0  0  0  0
    2.0313   68.0182   68.6550 H   0  0  0  0  0  0  0  0  0  0  0  0
    2.0588   67.1216   67.0981 H   0  0  0  0  0  0  0  0  0  0  0  0
    0.7680   69.8159   66.8768 H   0  0  0  0  0  0  0  0  0  0  0  0
    1.6955   67.4394   64.4704 H   0  0  0  0  0  0  0  0  0  0  0  0
    1.0047   69.1298   64.3727 H   0  0  0  0  0  0  0  0  0  0  0  0
    1.3603   67.9183   62.1580 H   0  0  0  0  0  0  0  0  0  0  0  0
    2.0712   69.5663   62.3243 H   0  0  0  0  0  0  0  0  0  0  0  0
    3.5754   66.9347   62.7276 H   0  0  0  0  0  0  0  0  0  0  0  0
    3.6512   67.9745   61.2591 H   0  0  0  0  0  0  0  0  0  0  0  0
    5.5339   68.2764   62.9542 H   0  0  0  0  0  0  0  0  0  0  0  0
    4.6086   69.7744   62.4599 H   0  0  0  0  0  0  0  0  0  0  0  0
    2.9577   70.1019   69.0248 H   0  0  0  0  0  0  0  0  0  0  0  0
    4.9990   70.8637   70.2313 H   0  0  0  0  0  0  0  0  0  0  0  0
    7.2754   70.4666   66.5953 H   0  0  0  0  0  0  0  0  0  0  0  0
  2  1  1  0
  3  2  1  0
  4  3  1  0
  6  5  2  0
  7  6  1  0
  7  4  1  0
  8  6  1  0
  9  8  1  0
 10  9  1  0
 11 10  2  0
 12 11  1  0
 13 12  1  0
 14 13  2  0
 14 10  1  0
 15 14  1  0
 16 15  2  0
 17 16  1  0
 18 17  2  0
 18 13  1  0
 19  1  1  0
 20 19  1  0
 21 20  1  0
 22 21  1  0
 23 22  1  0
 24 23  1  0
 25 24  1  0
 26 25  1  0
 27 26  1  0
 28 27  1  0
 29 28  1  0
 29 24  2  0
 30 29  1  0
 31 30  2  0
 32 31  1  0
 32 23  2  0
 33 32  1  0
 34 33  2  0
 35 34  1  0
 36 31  1  0
 36 35  2  0
 37 35  1  0
  1 38  1  0
  1 39  1  0
  2 40  1  0
  2 41  1  0
  3 42  1  0
  3 43  1  0
  4 44  1  0
  4 45  1  0
  7 46  1  0
  8 47  1  0
  8 48  1  0
  9 49  1  0
  9 50  1  0
 11 51  1  0
 12 52  1  0
 15 53  1  0
 16 54  1  0
 17 55  1  0
 18 56  1  0
 19 57  1  0
 19 58  1  0
 20 59  1  0
 20 60  1  0
 21 61  1  0
 21 62  1  0
 22 63  1  0
 25 64  1  0
 25 65  1  0
 26 66  1  0
 26 67  1  0
 27 68  1  0
 27 69  1  0
 28 70  1  0
 28 71  1  0
 33 72  1  0
 34 73  1  0
 36 74  1  0
M  END
>  <score>  (5) 
-11.447

$$$$
=
     RDKit          3D

 74 78  0  0  0  0  0  0  0  0999 V2000
   -0.8500   66.8090   68.6470 C   0  0  0  0  0  0  0  0  0  0  0  0
   -1.2020   66.8930   67.1610 C   0  0  0  0  0  0  0  0  0  0  0  0
   -1.5740   68.3010   66.6800 C   0  0  0  0  0  0  0  0  0  0  0  0
   -0.8500   68.7840   65.4190 C   0  0  0  0  0  0  0  0  0  0  0  0
    0.8210   66.9750   64.0130 O   0  0  0  0  0  0  0  0  0  0  0  0
    1.3180   67.7380   64.8350 C   0  0  0  0  0  0  0  0  0  0  0  0
    0.5910   68.6770   65.5360 N   0  0  0  0  0  0  0  0  0  0  0  0
    2.7880   67.7330   65.1920 C   0  0  0  0  0  0  0  0  0  0  0  0
    3.4680   69.0060   64.6980 C   0  0  0  0  0  0  0  0  0  0  0  0
    4.5120   69.5040   65.6430 C   0  0  0  0  0  0  0  0  0  0  0  0
    5.8540   69.6820   65.3640 C   0  0  0  0  0  0  0  0  0  0  0  0
    6.4740   70.1190   66.5020 N   0  0  0  0  0  0  0  0  0  0  0  0
    5.5630   70.2490   67.5230 C   0  0  0  0  0  0  0  0  0  0  0  0
    4.3230   69.8600   67.0170 C   0  0  0  0  0  0  0  0  0  0  0  0
    3.2070   69.8860   67.8790 C   0  0  0  0  0  0  0  0  0  0  0  0
    3.3680   70.3080   69.2040 C   0  0  0  0  0  0  0  0  0  0  0  0
    4.6200   70.6940   69.6780 C   0  0  0  0  0  0  0  0  0  0  0  0
    5.7440   70.6680   68.8480 C   0  0  0  0  0  0  0  0  0  0  0  0
    0.6500   67.0270   68.8750 C   0  0  0  0  0  0  0  0  0  0  0  0
    1.1400   66.4840   70.2220 C   0  0  0  0  0  0  0  0  0  0  0  0
    1.9360   65.1830   70.0640 C   0  0  0  0  0  0  0  0  0  0  0  0
    1.0420   64.0330   70.2570 N   0  0  0  0  0  0  0  0  0  0  0  0
    1.5680   63.1370   71.2410 C   0  0  0  0  0  0  0  0  0  0  0  0
    2.3530   62.0510   70.8070 C   0  0  0  0  0  0  0  0  0  0  0  0
    2.6870   61.8600   69.3470 C   0  0  0  0  0  0  0  0  0  0  0  0
    3.8420   60.8900   69.1020 C   0  0  0  0  0  0  0  0  0  0  0  0
    3.6480   59.6220   69.9190 C   0  0  0  0  0  0  0  0  0  0  0  0
    3.6480   59.9530   71.4070 C   0  0  0  0  0  0  0  0  0  0  0  0
    2.7800   61.1320   71.7660 C   0  0  0  0  0  0  0  0  0  0  0  0
    2.5030   61.2560   73.0860 N   0  0  0  0  0  0  0  0  0  0  0  0
    1.7420   62.2770   73.4960 C   0  0  0  0  0  0  0  0  0  0  0  0
    1.2310   63.2580   72.6190 C   0  0  0  0  0  0  0  0  0  0  0  0
    0.4110   64.2800   73.1610 C   0  0  0  0  0  0  0  0  0  0  0  0
    0.1120   64.3250   74.5230 C   0  0  0  0  0  0  0  0  0  0  0  0
    0.6340   63.3520   75.3620 C   0  0  0  0  0  0  0  0  0  0  0  0
    1.4420   62.3430   74.8470 C   0  0  0  0  0  0  0  0  0  0  0  0
    0.2730   63.3900   77.0430 Cl  0  0  0  0  0  0  0  0  0  0  0  0
   -1.4118   67.5813   69.1929 H   0  0  0  0  0  0  0  0  0  0  0  0
   -1.1153   65.8056   69.0114 H   0  0  0  0  0  0  0  0  0  0  0  0
   -0.3330   66.5490   66.5810 H   0  0  0  0  0  0  0  0  0  0  0  0
   -2.0915   66.2634   67.0115 H   0  0  0  0  0  0  0  0  0  0  0  0
   -2.6547   68.3139   66.4754 H   0  0  0  0  0  0  0  0  0  0  0  0
   -1.2647   68.9846   67.4844 H   0  0  0  0  0  0  0  0  0  0  0  0
   -1.1817   68.1745   64.5655 H   0  0  0  0  0  0  0  0  0  0  0  0
   -1.0977   69.8461   65.2751 H   0  0  0  0  0  0  0  0  0  0  0  0
    1.0887   69.3242   66.1640 H   0  0  0  0  0  0  0  0  0  0  0  0
    2.8938   67.6681   66.2850 H   0  0  0  0  0  0  0  0  0  0  0  0
    3.2657   66.8674   64.7099 H   0  0  0  0  0  0  0  0  0  0  0  0
    3.9419   68.7982   63.7273 H   0  0  0  0  0  0  0  0  0  0  0  0
    2.6958   69.7849   64.6144 H   0  0  0  0  0  0  0  0  0  0  0  0
    6.3398   69.5030   64.3935 H   0  0  0  0  0  0  0  0  0  0  0  0
    7.4806   70.3219   66.5825 H   0  0  0  0  0  0  0  0  0  0  0  0
    2.2169   69.5768   67.5127 H   0  0  0  0  0  0  0  0  0  0  0  0
    2.4983   70.3351   69.8769 H   0  0  0  0  0  0  0  0  0  0  0  0
    4.7254   71.0244   70.7219 H   0  0  0  0  0  0  0  0  0  0  0  0
    6.7350   70.9657   69.2212 H   0  0  0  0  0  0  0  0  0  0  0  0
    1.2034   66.5196   68.0711 H   0  0  0  0  0  0  0  0  0  0  0  0
    0.8266   68.1127   68.8759 H   0  0  0  0  0  0  0  0  0  0  0  0
    1.7847   67.2391   70.6955 H   0  0  0  0  0  0  0  0  0  0  0  0
    0.2572   66.2680   70.8417 H   0  0  0  0  0  0  0  0  0  0  0  0
    2.3737   65.1415   69.0557 H   0  0  0  0  0  0  0  0  0  0  0  0
    2.7392   65.1521   70.8150 H   0  0  0  0  0  0  0  0  0  0  0  0
    0.1557   63.8909   69.7518 H   0  0  0  0  0  0  0  0  0  0  0  0
    1.7940   61.4730   68.8344 H   0  0  0  0  0  0  0  0  0  0  0  0
    3.0027   62.8397   68.9590 H   0  0  0  0  0  0  0  0  0  0  0  0
    3.8783   60.6313   68.0335 H   0  0  0  0  0  0  0  0  0  0  0  0
    4.7838   61.3707   69.4053 H   0  0  0  0  0  0  0  0  0  0  0  0
    2.6875   59.1587   69.6493 H   0  0  0  0  0  0  0  0  0  0  0  0
    4.4723   58.9258   69.7048 H   0  0  0  0  0  0  0  0  0  0  0  0
    3.2842   59.0734   71.9583 H   0  0  0  0  0  0  0  0  0  0  0  0
    4.6804   60.2202   71.6767 H   0  0  0  0  0  0  0  0  0  0  0  0
    0.0022   65.0532   72.4939 H   0  0  0  0  0  0  0  0  0  0  0  0
   -0.5297   65.1222   74.9263 H   0  0  0  0  0  0  0  0  0  0  0  0
    1.8513   61.5814   75.5271 H   0  0  0  0  0  0  0  0  0  0  0  0
  2  1  1  0
  3  2  1  0
  4  3  1  0
  6  5  2  0
  7  6  1  0
  7  4  1  0
  8  6  1  0
  9  8  1  0
 10  9  1  0
 11 10  2  0
 12 11  1  0
 13 12  1  0
 14 13  2  0
 14 10  1  0
 15 14  1  0
 16 15  2  0
 17 16  1  0
 18 17  2  0
 18 13  1  0
 19  1  1  0
 20 19  1  0
 21 20  1  0
 22 21  1  0
 23 22  1  0
 24 23  1  0
 25 24  1  0
 26 25  1  0
 27 26  1  0
 28 27  1  0
 29 28  1  0
 29 24  2  0
 30 29  1  0
 31 30  2  0
 32 31  1  0
 32 23  2  0
 33 32  1  0
 34 33  2  0
 35 34  1  0
 36 31  1  0
 36 35  2  0
 37 35  1  0
  1 38  1  0
  1 39  1  0
  2 40  1  0
  2 41  1  0
  3 42  1  0
  3 43  1  0
  4 44  1  0
  4 45  1  0
  7 46  1  0
  8 47  1  0
  8 48  1  0
  9 49  1  0
  9 50  1  0
 11 51  1  0
 12 52  1  0
 15 53  1  0
 16 54  1  0
 17 55  1  0
 18 56  1  0
 19 57  1  0
 19 58  1  0
 20 59  1  0
 20 60  1  0
 21 61  1  0
 21 62  1  0
 22 63  1  0
 25 64  1  0
 25 65  1  0
 26 66  1  0
 26 67  1  0
 27 68  1  0
 27 69  1  0
 28 70  1  0
 28 71  1  0
 33 72  1  0
 34 73  1  0
 36 74  1  0
M  END
>  <score>  (6) 
-11.229

$$$$
=
     RDKit          3D

 74 78  0  0  0  0  0  0  0  0999 V2000
    4.4950   65.3540   63.6140 C   0  0  0  0  0  0  0  0  0  0  0  0
    3.4040   64.8450   64.5570 C   0  0  0  0  0  0  0  0  0  0  0  0
    3.7620   63.5480   65.2950 C   0  0  0  0  0  0  0  0  0  0  0  0
    4.0970   63.7020   66.7820 C   0  0  0  0  0  0  0  0  0  0  0  0
    4.4870   63.2640   69.5570 O   0  0  0  0  0  0  0  0  0  0  0  0
    3.6760   62.5750   68.9480 C   0  0  0  0  0  0  0  0  0  0  0  0
    3.3910   62.7430   67.6080 N   0  0  0  0  0  0  0  0  0  0  0  0
    2.8960   61.4460   69.5860 C   0  0  0  0  0  0  0  0  0  0  0  0
    3.0780   61.4530   71.1010 C   0  0  0  0  0  0  0  0  0  0  0  0
    2.8060   60.1200   71.7190 C   0  0  0  0  0  0  0  0  0  0  0  0
    3.6270   59.0100   71.6680 C   0  0  0  0  0  0  0  0  0  0  0  0
    3.0030   57.9850   72.3250 N   0  0  0  0  0  0  0  0  0  0  0  0
    1.7920   58.4040   72.8230 C   0  0  0  0  0  0  0  0  0  0  0  0
    1.6360   59.7390   72.4500 C   0  0  0  0  0  0  0  0  0  0  0  0
    0.4540   60.4080   72.8280 C   0  0  0  0  0  0  0  0  0  0  0  0
   -0.5180   59.7270   73.5710 C   0  0  0  0  0  0  0  0  0  0  0  0
   -0.3300   58.3940   73.9310 C   0  0  0  0  0  0  0  0  0  0  0  0
    0.8280   57.7050   73.5610 C   0  0  0  0  0  0  0  0  0  0  0  0
    4.1200   66.7140   63.0140 C   0  0  0  0  0  0  0  0  0  0  0  0
    5.2610   67.7350   63.0770 C   0  0  0  0  0  0  0  0  0  0  0  0
    5.4850   68.2610   64.4990 C   0  0  0  0  0  0  0  0  0  0  0  0
    4.8270   69.5660   64.6510 N   0  0  0  0  0  0  0  0  0  0  0  0
    4.1420   69.6490   65.9050 C   0  0  0  0  0  0  0  0  0  0  0  0
    4.8560   70.1070   67.0300 C   0  0  0  0  0  0  0  0  0  0  0  0
    6.2920   70.5560   66.9160 C   0  0  0  0  0  0  0  0  0  0  0  0
    6.7790   71.3720   68.1120 C   0  0  0  0  0  0  0  0  0  0  0  0
    6.3900   70.6850   69.4120 C   0  0  0  0  0  0  0  0  0  0  0  0
    4.8730   70.5890   69.5210 C   0  0  0  0  0  0  0  0  0  0  0  0
    4.2050   70.0930   68.2640 C   0  0  0  0  0  0  0  0  0  0  0  0
    2.9200   69.6940   68.4190 N   0  0  0  0  0  0  0  0  0  0  0  0
    2.2470   69.2430   67.3550 C   0  0  0  0  0  0  0  0  0  0  0  0
    2.8040   69.1860   66.0590 C   0  0  0  0  0  0  0  0  0  0  0  0
    2.0080   68.6620   65.0090 C   0  0  0  0  0  0  0  0  0  0  0  0
    0.7080   68.2120   65.2400 C   0  0  0  0  0  0  0  0  0  0  0  0
    0.1840   68.2870   66.5210 C   0  0  0  0  0  0  0  0  0  0  0  0
    0.9510   68.8000   67.5630 C   0  0  0  0  0  0  0  0  0  0  0  0
   -1.4160   67.7340   66.8250 Cl  0  0  0  0  0  0  0  0  0  0  0  0
    5.4352   65.4567   64.1756 H   0  0  0  0  0  0  0  0  0  0  0  0
    4.6102   64.6312   62.7928 H   0  0  0  0  0  0  0  0  0  0  0  0
    3.2057   65.6247   65.3071 H   0  0  0  0  0  0  0  0  0  0  0  0
    2.5271   64.6202   63.9321 H   0  0  0  0  0  0  0  0  0  0  0  0
    2.9053   62.8633   65.2105 H   0  0  0  0  0  0  0  0  0  0  0  0
    4.6797   63.1742   64.8175 H   0  0  0  0  0  0  0  0  0  0  0  0
    5.1789   63.5566   66.9176 H   0  0  0  0  0  0  0  0  0  0  0  0
    3.7842   64.7093   67.0944 H   0  0  0  0  0  0  0  0  0  0  0  0
    2.6515   62.1673   67.1806 H   0  0  0  0  0  0  0  0  0  0  0  0
    1.8284   61.5664   69.3501 H   0  0  0  0  0  0  0  0  0  0  0  0
    3.2693   60.4902   69.1895 H   0  0  0  0  0  0  0  0  0  0  0  0
    4.1142   61.7425   71.3299 H   0  0  0  0  0  0  0  0  0  0  0  0
    2.3547   62.1681   71.5200 H   0  0  0  0  0  0  0  0  0  0  0  0
    4.6128   58.9591   71.1826 H   0  0  0  0  0  0  0  0  0  0  0  0
    3.3859   57.0348   72.4314 H   0  0  0  0  0  0  0  0  0  0  0  0
    0.2964   61.4582   72.5411 H   0  0  0  0  0  0  0  0  0  0  0  0
   -1.4380   60.2488   73.8732 H   0  0  0  0  0  0  0  0  0  0  0  0
   -1.1049   57.8763   74.5153 H   0  0  0  0  0  0  0  0  0  0  0  0
    0.9773   56.6513   73.8393 H   0  0  0  0  0  0  0  0  0  0  0  0
    3.8402   66.5665   61.9605 H   0  0  0  0  0  0  0  0  0  0  0  0
    3.2871   67.1163   63.6094 H   0  0  0  0  0  0  0  0  0  0  0  0
    6.1865   67.2549   62.7263 H   0  0  0  0  0  0  0  0  0  0  0  0
    4.9880   68.5884   62.4389 H   0  0  0  0  0  0  0  0  0  0  0  0
    5.0604   67.5503   65.2234 H   0  0  0  0  0  0  0  0  0  0  0  0
    6.5640   68.3724   64.6816 H   0  0  0  0  0  0  0  0  0  0  0  0
    4.8549   70.3197   63.9495 H   0  0  0  0  0  0  0  0  0  0  0  0
    6.9282   69.6635   66.8228 H   0  0  0  0  0  0  0  0  0  0  0  0
    6.3541   71.2109   66.0344 H   0  0  0  0  0  0  0  0  0  0  0  0
    7.8739   71.4670   68.0651 H   0  0  0  0  0  0  0  0  0  0  0  0
    6.3131   72.3679   68.0798 H   0  0  0  0  0  0  0  0  0  0  0  0
    6.8208   69.6731   69.4316 H   0  0  0  0  0  0  0  0  0  0  0  0
    6.7750   71.2726   70.2585 H   0  0  0  0  0  0  0  0  0  0  0  0
    4.6268   69.8981   70.3408 H   0  0  0  0  0  0  0  0  0  0  0  0
    4.4989   71.6072   69.7033 H   0  0  0  0  0  0  0  0  0  0  0  0
    2.4239   68.6093   63.9920 H   0  0  0  0  0  0  0  0  0  0  0  0
    0.1060   67.8025   64.4154 H   0  0  0  0  0  0  0  0  0  0  0  0
    0.5189   68.8548   68.5731 H   0  0  0  0  0  0  0  0  0  0  0  0
  2  1  1  0
  3  2  1  0
  4  3  1  0
  6  5  2  0
  7  6  1  0
  7  4  1  0
  8  6  1  0
  9  8  1  0
 10  9  1  0
 11 10  2  0
 12 11  1  0
 13 12  1  0
 14 13  2  0
 14 10  1  0
 15 14  1  0
 16 15  2  0
 17 16  1  0
 18 17  2  0
 18 13  1  0
 19  1  1  0
 20 19  1  0
 21 20  1  0
 22 21  1  0
 23 22  1  0
 24 23  1  0
 25 24  1  0
 26 25  1  0
 27 26  1  0
 28 27  1  0
 29 28  1  0
 29 24  2  0
 30 29  1  0
 31 30  2  0
 32 31  1  0
 32 23  2  0
 33 32  1  0
 34 33  2  0
 35 34  1  0
 36 31  1  0
 36 35  2  0
 37 35  1  0
  1 38  1  0
  1 39  1  0
  2 40  1  0
  2 41  1  0
  3 42  1  0
  3 43  1  0
  4 44  1  0
  4 45  1  0
  7 46  1  0
  8 47  1  0
  8 48  1  0
  9 49  1  0
  9 50  1  0
 11 51  1  0
 12 52  1  0
 15 53  1  0
 16 54  1  0
 17 55  1  0
 18 56  1  0
 19 57  1  0
 19 58  1  0
 20 59  1  0
 20 60  1  0
 21 61  1  0
 21 62  1  0
 22 63  1  0
 25 64  1  0
 25 65  1  0
 26 66  1  0
 26 67  1  0
 27 68  1  0
 27 69  1  0
 28 70  1  0
 28 71  1  0
 33 72  1  0
 34 73  1  0
 36 74  1  0
M  END
>  <score>  (7) 
-11.16

$$$$
=
     RDKit          3D

 74 78  0  0  0  0  0  0  0  0999 V2000
    0.3110   63.8370   72.4320 C   0  0  0  0  0  0  0  0  0  0  0  0
    0.4030   63.9560   70.9100 C   0  0  0  0  0  0  0  0  0  0  0  0
    0.8840   65.3250   70.4120 C   0  0  0  0  0  0  0  0  0  0  0  0
   -0.1080   66.0980   69.5380 C   0  0  0  0  0  0  0  0  0  0  0  0
   -1.2760   67.3290   67.2650 O   0  0  0  0  0  0  0  0  0  0  0  0
   -0.0870   67.5130   67.5040 C   0  0  0  0  0  0  0  0  0  0  0  0
    0.5560   66.9890   68.6060 N   0  0  0  0  0  0  0  0  0  0  0  0
    0.8250   68.3270   66.6120 C   0  0  0  0  0  0  0  0  0  0  0  0
    1.7160   69.2440   67.4440 C   0  0  0  0  0  0  0  0  0  0  0  0
    3.0810   69.4040   66.8590 C   0  0  0  0  0  0  0  0  0  0  0  0
    3.4740   69.0490   65.5830 C   0  0  0  0  0  0  0  0  0  0  0  0
    4.8070   69.3250   65.4520 N   0  0  0  0  0  0  0  0  0  0  0  0
    5.2980   69.8710   66.6140 C   0  0  0  0  0  0  0  0  0  0  0  0
    4.2400   69.9240   67.5200 C   0  0  0  0  0  0  0  0  0  0  0  0
    4.4860   70.4360   68.8120 C   0  0  0  0  0  0  0  0  0  0  0  0
    5.7710   70.8830   69.1440 C   0  0  0  0  0  0  0  0  0  0  0  0
    6.8060   70.8200   68.2140 C   0  0  0  0  0  0  0  0  0  0  0  0
    6.5910   70.3090   66.9310 C   0  0  0  0  0  0  0  0  0  0  0  0
   -0.2630   62.4780   72.8500 C   0  0  0  0  0  0  0  0  0  0  0  0
    0.6010   61.7510   73.8850 C   0  0  0  0  0  0  0  0  0  0  0  0
    1.9130   62.4930   74.1640 C   0  0  0  0  0  0  0  0  0  0  0  0
    3.0030   61.5210   74.3270 N   0  0  0  0  0  0  0  0  0  0  0  0
    3.0090   60.5770   73.2510 C   0  0  0  0  0  0  0  0  0  0  0  0
    3.3170   61.0380   71.9560 C   0  0  0  0  0  0  0  0  0  0  0  0
    3.6900   62.4800   71.7070 C   0  0  0  0  0  0  0  0  0  0  0  0
    4.3600   62.7160   70.3550 C   0  0  0  0  0  0  0  0  0  0  0  0
    3.5790   62.0220   69.2500 C   0  0  0  0  0  0  0  0  0  0  0  0
    3.5630   60.5170   69.4850 C   0  0  0  0  0  0  0  0  0  0  0  0
    3.2270   60.1280   70.9020 C   0  0  0  0  0  0  0  0  0  0  0  0
    2.8920   58.8270   71.0740 N   0  0  0  0  0  0  0  0  0  0  0  0
    2.5820   58.3930   72.3000 C   0  0  0  0  0  0  0  0  0  0  0  0
    2.6130   59.2220   73.4420 C   0  0  0  0  0  0  0  0  0  0  0  0
    2.2360   58.6610   74.6890 C   0  0  0  0  0  0  0  0  0  0  0  0
    1.8450   57.3270   74.7950 C   0  0  0  0  0  0  0  0  0  0  0  0
    1.8300   56.5340   73.6580 C   0  0  0  0  0  0  0  0  0  0  0  0
    2.1990   57.0670   72.4270 C   0  0  0  0  0  0  0  0  0  0  0  0
    1.3470   54.8860   73.7700 Cl  0  0  0  0  0  0  0  0  0  0  0  0
    1.3174   63.9486   72.8618 H   0  0  0  0  0  0  0  0  0  0  0  0
   -0.3596   64.6263   72.8024 H   0  0  0  0  0  0  0  0  0  0  0  0
    1.1049   63.1910   70.5464 H   0  0  0  0  0  0  0  0  0  0  0  0
   -0.6169   63.8197   70.5210 H   0  0  0  0  0  0  0  0  0  0  0  0
    1.1130   65.9438   71.2921 H   0  0  0  0  0  0  0  0  0  0  0  0
    1.7549   65.1227   69.7712 H   0  0  0  0  0  0  0  0  0  0  0  0
   -0.7132   65.3775   68.9682 H   0  0  0  0  0  0  0  0  0  0  0  0
   -0.7335   66.7122   70.2024 H   0  0  0  0  0  0  0  0  0  0  0  0
    1.5412   67.2390   68.7727 H   0  0  0  0  0  0  0  0  0  0  0  0
    1.4574   67.6454   66.0242 H   0  0  0  0  0  0  0  0  0  0  0  0
    0.2067   68.9454   65.9446 H   0  0  0  0  0  0  0  0  0  0  0  0
    1.2413   70.2343   67.5068 H   0  0  0  0  0  0  0  0  0  0  0  0
    1.8309   68.7854   68.4372 H   0  0  0  0  0  0  0  0  0  0  0  0
    2.8258   68.6182   64.8057 H   0  0  0  0  0  0  0  0  0  0  0  0
    5.3637   69.1488   64.6035 H   0  0  0  0  0  0  0  0  0  0  0  0
    3.6743   70.4836   69.5528 H   0  0  0  0  0  0  0  0  0  0  0  0
    5.9647   71.2875   70.1484 H   0  0  0  0  0  0  0  0  0  0  0  0
    7.8079   71.1779   68.4936 H   0  0  0  0  0  0  0  0  0  0  0  0
    7.4076   70.2526   66.1962 H   0  0  0  0  0  0  0  0  0  0  0  0
   -1.2629   62.6379   73.2796 H   0  0  0  0  0  0  0  0  0  0  0  0
   -0.2963   61.8463   71.9501 H   0  0  0  0  0  0  0  0  0  0  0  0
    0.0343   61.6670   74.8241 H   0  0  0  0  0  0  0  0  0  0  0  0
    0.8520   60.7594   73.4804 H   0  0  0  0  0  0  0  0  0  0  0  0
    2.1418   63.1619   73.3213 H   0  0  0  0  0  0  0  0  0  0  0  0
    1.8097   63.0846   75.0856 H   0  0  0  0  0  0  0  0  0  0  0  0
    3.6724   61.5192   75.1099 H   0  0  0  0  0  0  0  0  0  0  0  0
    2.7746   63.0883   71.7518 H   0  0  0  0  0  0  0  0  0  0  0  0
    4.4193   62.7617   72.4808 H   0  0  0  0  0  0  0  0  0  0  0  0
    4.3949   63.7964   70.1511 H   0  0  0  0  0  0  0  0  0  0  0  0
    5.3798   62.3047   70.3846 H   0  0  0  0  0  0  0  0  0  0  0  0
    2.5460   62.3999   69.2423 H   0  0  0  0  0  0  0  0  0  0  0  0
    4.0613   62.2300   68.2835 H   0  0  0  0  0  0  0  0  0  0  0  0
    2.8143   60.0690   68.8152 H   0  0  0  0  0  0  0  0  0  0  0  0
    4.5801   60.1496   69.2836 H   0  0  0  0  0  0  0  0  0  0  0  0
    2.2525   59.2911   75.5905 H   0  0  0  0  0  0  0  0  0  0  0  0
    1.5519   56.9087   75.7692 H   0  0  0  0  0  0  0  0  0  0  0  0
    2.1865   56.4225   71.5357 H   0  0  0  0  0  0  0  0  0  0  0  0
  2  1  1  0
  3  2  1  0
  4  3  1  0
  6  5  2  0
  7  6  1  0
  7  4  1  0
  8  6  1  0
  9  8  1  0
 10  9  1  0
 11 10  2  0
 12 11  1  0
 13 12  1  0
 14 13  2  0
 14 10  1  0
 15 14  1  0
 16 15  2  0
 17 16  1  0
 18 17  2  0
 18 13  1  0
 19  1  1  0
 20 19  1  0
 21 20  1  0
 22 21  1  0
 23 22  1  0
 24 23  1  0
 25 24  1  0
 26 25  1  0
 27 26  1  0
 28 27  1  0
 29 28  1  0
 29 24  2  0
 30 29  1  0
 31 30  2  0
 32 31  1  0
 32 23  2  0
 33 32  1  0
 34 33  2  0
 35 34  1  0
 36 31  1  0
 36 35  2  0
 37 35  1  0
  1 38  1  0
  1 39  1  0
  2 40  1  0
  2 41  1  0
  3 42  1  0
  3 43  1  0
  4 44  1  0
  4 45  1  0
  7 46  1  0
  8 47  1  0
  8 48  1  0
  9 49  1  0
  9 50  1  0
 11 51  1  0
 12 52  1  0
 15 53  1  0
 16 54  1  0
 17 55  1  0
 18 56  1  0
 19 57  1  0
 19 58  1  0
 20 59  1  0
 20 60  1  0
 21 61  1  0
 21 62  1  0
 22 63  1  0
 25 64  1  0
 25 65  1  0
 26 66  1  0
 26 67  1  0
 27 68  1  0
 27 69  1  0
 28 70  1  0
 28 71  1  0
 33 72  1  0
 34 73  1  0
 36 74  1  0
M  END
>  <score>  (8) 
-10.805

$$$$
=
     RDKit          3D

 74 78  0  0  0  0  0  0  0  0999 V2000
    3.4150   64.5600   64.8580 C   0  0  0  0  0  0  0  0  0  0  0  0
    4.1730   64.0450   66.0830 C   0  0  0  0  0  0  0  0  0  0  0  0
    3.4000   63.0120   66.9140 C   0  0  0  0  0  0  0  0  0  0  0  0
    3.7520   62.9620   68.4040 C   0  0  0  0  0  0  0  0  0  0  0  0
    2.5550   64.6640   70.3310 O   0  0  0  0  0  0  0  0  0  0  0  0
    2.1120   63.5320   70.1710 C   0  0  0  0  0  0  0  0  0  0  0  0
    2.6040   62.6500   69.2310 N   0  0  0  0  0  0  0  0  0  0  0  0
    0.9800   62.9560   70.9950 C   0  0  0  0  0  0  0  0  0  0  0  0
    1.4590   62.6060   72.4000 C   0  0  0  0  0  0  0  0  0  0  0  0
    1.2670   61.1610   72.7300 C   0  0  0  0  0  0  0  0  0  0  0  0
    0.3920   60.6430   73.6650 C   0  0  0  0  0  0  0  0  0  0  0  0
    0.5440   59.2840   73.6880 N   0  0  0  0  0  0  0  0  0  0  0  0
    1.4920   58.8940   72.7710 C   0  0  0  0  0  0  0  0  0  0  0  0
    1.9710   60.0520   72.1600 C   0  0  0  0  0  0  0  0  0  0  0  0
    2.9760   59.9280   71.1790 C   0  0  0  0  0  0  0  0  0  0  0  0
    3.4550   58.6570   70.8380 C   0  0  0  0  0  0  0  0  0  0  0  0
    2.9520   57.5190   71.4650 C   0  0  0  0  0  0  0  0  0  0  0  0
    1.9620   57.6150   72.4470 C   0  0  0  0  0  0  0  0  0  0  0  0
    4.3820   65.0070   63.7550 C   0  0  0  0  0  0  0  0  0  0  0  0
    4.6520   66.5160   63.7660 C   0  0  0  0  0  0  0  0  0  0  0  0
    3.3780   67.3320   63.5220 C   0  0  0  0  0  0  0  0  0  0  0  0
    3.6360   68.7480   63.8180 N   0  0  0  0  0  0  0  0  0  0  0  0
    3.2570   69.0650   65.1610 C   0  0  0  0  0  0  0  0  0  0  0  0
    4.2300   69.6090   66.0230 C   0  0  0  0  0  0  0  0  0  0  0  0
    5.6270   69.9080   65.5340 C   0  0  0  0  0  0  0  0  0  0  0  0
    6.4160   70.8360   66.4580 C   0  0  0  0  0  0  0  0  0  0  0  0
    6.2910   70.3730   67.9010 C   0  0  0  0  0  0  0  0  0  0  0  0
    4.8340   70.4290   68.3460 C   0  0  0  0  0  0  0  0  0  0  0  0
    3.8740   69.8260   67.3540 C   0  0  0  0  0  0  0  0  0  0  0  0
    2.6360   69.5690   67.8400 N   0  0  0  0  0  0  0  0  0  0  0  0
    1.7170   69.0360   67.0280 C   0  0  0  0  0  0  0  0  0  0  0  0
    1.9640   68.7500   65.6680 C   0  0  0  0  0  0  0  0  0  0  0  0
    0.9230   68.1580   64.9080 C   0  0  0  0  0  0  0  0  0  0  0  0
   -0.3150   67.8630   65.4790 C   0  0  0  0  0  0  0  0  0  0  0  0
   -0.5310   68.1620   66.8150 C   0  0  0  0  0  0  0  0  0  0  0  0
    0.4780   68.7440   67.5760 C   0  0  0  0  0  0  0  0  0  0  0  0
   -2.0510   67.8020   67.5360 Cl  0  0  0  0  0  0  0  0  0  0  0  0
    2.7737   63.7556   64.4686 H   0  0  0  0  0  0  0  0  0  0  0  0
    2.8091   65.4263   65.1621 H   0  0  0  0  0  0  0  0  0  0  0  0
    5.1088   63.5803   65.7391 H   0  0  0  0  0  0  0  0  0  0  0  0
    4.3427   64.9130   66.7370 H   0  0  0  0  0  0  0  0  0  0  0  0
    2.3279   63.2422   66.8273 H   0  0  0  0  0  0  0  0  0  0  0  0
    3.6790   62.0291   66.5064 H   0  0  0  0  0  0  0  0  0  0  0  0
    4.5203   62.1904   68.5601 H   0  0  0  0  0  0  0  0  0  0  0  0
    4.1165   63.9577   68.6968 H   0  0  0  0  0  0  0  0  0  0  0  0
    2.1392   61.7384   69.1131 H   0  0  0  0  0  0  0  0  0  0  0  0
    0.1702   63.6973   71.0639 H   0  0  0  0  0  0  0  0  0  0  0  0
    0.6182   62.0393   70.5064 H   0  0  0  0  0  0  0  0  0  0  0  0
    2.5298   62.8456   72.4769 H   0  0  0  0  0  0  0  0  0  0  0  0
    0.8596   63.1925   73.1118 H   0  0  0  0  0  0  0  0  0  0  0  0
   -0.3070   61.2238   74.2847 H   0  0  0  0  0  0  0  0  0  0  0  0
    0.0229   58.6439   74.3041 H   0  0  0  0  0  0  0  0  0  0  0  0
    3.3811   60.8234   70.6849 H   0  0  0  0  0  0  0  0  0  0  0  0
    4.2348   58.5563   70.0688 H   0  0  0  0  0  0  0  0  0  0  0  0
    3.3402   56.5292   71.1827 H   0  0  0  0  0  0  0  0  0  0  0  0
    1.5664   56.7187   72.9472 H   0  0  0  0  0  0  0  0  0  0  0  0
    5.3375   64.4796   63.8924 H   0  0  0  0  0  0  0  0  0  0  0  0
    3.9126   64.7652   62.7900 H   0  0  0  0  0  0  0  0  0  0  0  0
    5.0693   66.7944   64.7449 H   0  0  0  0  0  0  0  0  0  0  0  0
    5.3580   66.7395   62.9526 H   0  0  0  0  0  0  0  0  0  0  0  0
    3.0720   67.2275   62.4706 H   0  0  0  0  0  0  0  0  0  0  0  0
    2.5757   66.9619   64.1772 H   0  0  0  0  0  0  0  0  0  0  0  0
    4.0357   69.4215   63.1491 H   0  0  0  0  0  0  0  0  0  0  0  0
    6.1747   68.9582   65.4456 H   0  0  0  0  0  0  0  0  0  0  0  0
    5.5258   70.4255   64.5686 H   0  0  0  0  0  0  0  0  0  0  0  0
    7.4759   70.8258   66.1639 H   0  0  0  0  0  0  0  0  0  0  0  0
    6.0116   71.8554   66.3725 H   0  0  0  0  0  0  0  0  0  0  0  0
    6.6571   69.3390   67.9841 H   0  0  0  0  0  0  0  0  0  0  0  0
    6.8891   71.0353   68.5442 H   0  0  0  0  0  0  0  0  0  0  0  0
    4.7399   69.8829   69.2963 H   0  0  0  0  0  0  0  0  0  0  0  0
    4.5687   71.4920   68.4446 H   0  0  0  0  0  0  0  0  0  0  0  0
    1.0955   67.9268   63.8465 H   0  0  0  0  0  0  0  0  0  0  0  0
   -1.1098   67.3989   64.8766 H   0  0  0  0  0  0  0  0  0  0  0  0
    0.2884   68.9771   68.6342 H   0  0  0  0  0  0  0  0  0  0  0  0
  2  1  1  0
  3  2  1  0
  4  3  1  0
  6  5  2  0
  7  6  1  0
  7  4  1  0
  8  6  1  0
  9  8  1  0
 10  9  1  0
 11 10  2  0
 12 11  1  0
 13 12  1  0
 14 13  2  0
 14 10  1  0
 15 14  1  0
 16 15  2  0
 17 16  1  0
 18 17  2  0
 18 13  1  0
 19  1  1  0
 20 19  1  0
 21 20  1  0
 22 21  1  0
 23 22  1  0
 24 23  1  0
 25 24  1  0
 26 25  1  0
 27 26  1  0
 28 27  1  0
 29 28  1  0
 29 24  2  0
 30 29  1  0
 31 30  2  0
 32 31  1  0
 32 23  2  0
 33 32  1  0
 34 33  2  0
 35 34  1  0
 36 31  1  0
 36 35  2  0
 37 35  1  0
  1 38  1  0
  1 39  1  0
  2 40  1  0
  2 41  1  0
  3 42  1  0
  3 43  1  0
  4 44  1  0
  4 45  1  0
  7 46  1  0
  8 47  1  0
  8 48  1  0
  9 49  1  0
  9 50  1  0
 11 51  1  0
 12 52  1  0
 15 53  1  0
 16 54  1  0
 17 55  1  0
 18 56  1  0
 19 57  1  0
 19 58  1  0
 20 59  1  0
 20 60  1  0
 21 61  1  0
 21 62  1  0
 22 63  1  0
 25 64  1  0
 25 65  1  0
 26 66  1  0
 26 67  1  0
 27 68  1  0
 27 69  1  0
 28 70  1  0
 28 71  1  0
 33 72  1  0
 34 73  1  0
 36 74  1  0
M  END
>  <score>  (9) 
-9.811

$$$$
