=
     RDKit          3D

 36 35  0  0  0  0  0  0  0  0999 V2000
    0.9870   68.7660   67.4580 C   0  0  0  0  0  0  0  0  0  0  0  0
   -0.0370   69.4320   67.5450 O   0  0  0  0  0  0  0  0  0  0  0  0
    1.0700   67.6670   66.4070 C   0  0  0  0  0  0  0  0  0  0  0  0
    0.0920   66.9550   66.2140 O   0  0  0  0  0  0  0  0  0  0  0  0
    2.3970   67.5330   65.6910 C   0  0  0  0  0  0  0  0  0  0  0  0
    2.7020   68.7020   64.7540 C   0  0  0  0  0  0  0  0  0  0  0  0
    4.0120   69.4110   65.1130 C   0  0  0  0  0  0  0  0  0  0  0  0
    5.1970   68.9630   64.2530 C   0  0  0  0  0  0  0  0  0  0  0  0
    4.9500   69.0980   62.7590 C   0  0  0  0  0  0  0  0  0  0  0  0
    2.2110   68.9450   68.3290 C   0  0  0  0  0  0  0  0  0  0  0  0
    2.5880   70.4150   68.4930 C   0  0  0  0  0  0  0  0  0  0  0  0
    3.9350   70.5700   69.2020 C   0  0  0  0  0  0  0  0  0  0  0  0
    6.4080   70.9290   68.8750 C   0  0  0  0  0  0  0  0  0  0  0  0
    5.0920   70.5670   68.2040 C   0  0  0  0  0  0  0  0  0  0  0  0
    3.1956   67.4730   66.4451 H   0  0  0  0  0  0  0  0  0  0  0  0
    2.3415   66.6259   65.0712 H   0  0  0  0  0  0  0  0  0  0  0  0
    2.7774   68.3199   63.7252 H   0  0  0  0  0  0  0  0  0  0  0  0
    1.8864   69.4334   64.8532 H   0  0  0  0  0  0  0  0  0  0  0  0
    3.8718   70.4936   64.9778 H   0  0  0  0  0  0  0  0  0  0  0  0
    4.2486   69.1513   66.1554 H   0  0  0  0  0  0  0  0  0  0  0  0
    6.0706   69.5766   64.5179 H   0  0  0  0  0  0  0  0  0  0  0  0
    5.3587   67.8944   64.4580 H   0  0  0  0  0  0  0  0  0  0  0  0
    3.9961   69.6193   62.5907 H   0  0  0  0  0  0  0  0  0  0  0  0
    5.7683   69.6743   62.3027 H   0  0  0  0  0  0  0  0  0  0  0  0
    4.9068   68.0981   62.3027 H   0  0  0  0  0  0  0  0  0  0  0  0
    2.0054   68.5185   69.3219 H   0  0  0  0  0  0  0  0  0  0  0  0
    3.0525   68.4315   67.8410 H   0  0  0  0  0  0  0  0  0  0  0  0
    2.6511   70.8814   67.4988 H   0  0  0  0  0  0  0  0  0  0  0  0
    1.8161   70.9042   69.1053 H   0  0  0  0  0  0  0  0  0  0  0  0
    3.9414   71.5209   69.7550 H   0  0  0  0  0  0  0  0  0  0  0  0
    4.0660   69.7198   69.8876 H   0  0  0  0  0  0  0  0  0  0  0  0
    6.2841   70.8949   69.9675 H   0  0  0  0  0  0  0  0  0  0  0  0
    7.1841   70.2110   68.5714 H   0  0  0  0  0  0  0  0  0  0  0  0
    6.7076   71.9429   68.5714 H   0  0  0  0  0  0  0  0  0  0  0  0
    5.1803   69.5635   67.7621 H   0  0  0  0  0  0  0  0  0  0  0  0
    4.8814   71.3189   67.4293 H   0  0  0  0  0  0  0  0  0  0  0  0
  2  1  2  0
  3  1  1  0
  4  3  2  0
  5  3  1  0
  6  5  1  0
  7  6  1  0
  8  7  1  0
  9  8  1  0
 10  1  1  0
 11 10  1  0
 12 11  1  0
 14 12  1  0
 14 13  1  0
  5 15  1  0
  5 16  1  0
  6 17  1  0
  6 18  1  0
  7 19  1  0
  7 20  1  0
  8 21  1  0
  8 22  1  0
  9 23  1  0
  9 24  1  0
  9 25  1  0
 10 26  1  0
 10 27  1  0
 11 28  1  0
 11 29  1  0
 12 30  1  0
 12 31  1  0
 13 32  1  0
 13 33  1  0
 13 34  1  0
 14 35  1  0
 14 36  1  0
M  END
>  <score>  (1) 
-6.086

$$$$
=
     RDKit          3D

 36 35  0  0  0  0  0  0  0  0999 V2000
    4.4380   67.0970   63.1590 C   0  0  0  0  0  0  0  0  0  0  0  0
    4.8760   66.2010   62.4490 O   0  0  0  0  0  0  0  0  0  0  0  0
    5.2570   68.3700   63.3360 C   0  0  0  0  0  0  0  0  0  0  0  0
    5.4980   69.0610   62.3550 O   0  0  0  0  0  0  0  0  0  0  0  0
    5.7310   68.6610   64.7450 C   0  0  0  0  0  0  0  0  0  0  0  0
    4.9700   69.8040   65.4170 C   0  0  0  0  0  0  0  0  0  0  0  0
    5.2360   69.8730   66.9250 C   0  0  0  0  0  0  0  0  0  0  0  0
    6.6390   70.3780   67.2700 C   0  0  0  0  0  0  0  0  0  0  0  0
    6.7460   70.9720   68.6650 C   0  0  0  0  0  0  0  0  0  0  0  0
    3.1170   67.0510   63.8950 C   0  0  0  0  0  0  0  0  0  0  0  0
    2.1770   68.1720   63.4570 C   0  0  0  0  0  0  0  0  0  0  0  0
    1.4250   68.7670   64.6490 C   0  0  0  0  0  0  0  0  0  0  0  0
    1.7600   68.8070   67.1470 C   0  0  0  0  0  0  0  0  0  0  0  0
    1.6330   67.9300   65.9110 C   0  0  0  0  0  0  0  0  0  0  0  0
    5.6019   67.7522   65.3511 H   0  0  0  0  0  0  0  0  0  0  0  0
    6.7850   68.9684   64.6764 H   0  0  0  0  0  0  0  0  0  0  0  0
    5.2821   70.7542   64.9590 H   0  0  0  0  0  0  0  0  0  0  0  0
    3.8947   69.6226   65.2731 H   0  0  0  0  0  0  0  0  0  0  0  0
    4.4992   70.5521   67.3787 H   0  0  0  0  0  0  0  0  0  0  0  0
    5.1528   68.8488   67.3176 H   0  0  0  0  0  0  0  0  0  0  0  0
    7.3403   69.5337   67.1968 H   0  0  0  0  0  0  0  0  0  0  0  0
    6.8765   71.1821   66.5579 H   0  0  0  0  0  0  0  0  0  0  0  0
    6.6031   70.1785   69.4133 H   0  0  0  0  0  0  0  0  0  0  0  0
    7.7401   71.4244   68.7956 H   0  0  0  0  0  0  0  0  0  0  0  0
    5.9723   71.7429   68.7956 H   0  0  0  0  0  0  0  0  0  0  0  0
    2.6330   66.0836   63.6952 H   0  0  0  0  0  0  0  0  0  0  0  0
    3.3220   67.1802   64.9680 H   0  0  0  0  0  0  0  0  0  0  0  0
    2.7664   68.9650   62.9736 H   0  0  0  0  0  0  0  0  0  0  0  0
    1.4397   67.7521   62.7569 H   0  0  0  0  0  0  0  0  0  0  0  0
    1.7926   69.7876   64.8313 H   0  0  0  0  0  0  0  0  0  0  0  0
    0.3509   68.7767   64.4120 H   0  0  0  0  0  0  0  0  0  0  0  0
    1.6698   68.1843   68.0493 H   0  0  0  0  0  0  0  0  0  0  0  0
    2.7399   69.3068   67.1429 H   0  0  0  0  0  0  0  0  0  0  0  0
    0.9621   69.5642   67.1429 H   0  0  0  0  0  0  0  0  0  0  0  0
    0.7735   67.2554   66.0382 H   0  0  0  0  0  0  0  0  0  0  0  0
    2.5658   67.3584   65.7961 H   0  0  0  0  0  0  0  0  0  0  0  0
  2  1  2  0
  3  1  1  0
  4  3  2  0
  5  3  1  0
  6  5  1  0
  7  6  1  0
  8  7  1  0
  9  8  1  0
 10  1  1  0
 11 10  1  0
 12 11  1  0
 14 12  1  0
 14 13  1  0
  5 15  1  0
  5 16  1  0
  6 17  1  0
  6 18  1  0
  7 19  1  0
  7 20  1  0
  8 21  1  0
  8 22  1  0
  9 23  1  0
  9 24  1  0
  9 25  1  0
 10 26  1  0
 10 27  1  0
 11 28  1  0
 11 29  1  0
 12 30  1  0
 12 31  1  0
 13 32  1  0
 13 33  1  0
 13 34  1  0
 14 35  1  0
 14 36  1  0
M  END
>  <score>  (2) 
-6.055

$$$$
=
     RDKit          3D

 36 35  0  0  0  0  0  0  0  0999 V2000
    2.5650   67.0530   65.1110 C   0  0  0  0  0  0  0  0  0  0  0  0
    2.3290   65.8520   65.1430 O   0  0  0  0  0  0  0  0  0  0  0  0
    3.7720   67.5510   64.3250 C   0  0  0  0  0  0  0  0  0  0  0  0
    4.5010   66.7340   63.7780 O   0  0  0  0  0  0  0  0  0  0  0  0
    3.9800   69.0510   64.3100 C   0  0  0  0  0  0  0  0  0  0  0  0
    5.3070   69.4850   64.9320 C   0  0  0  0  0  0  0  0  0  0  0  0
    5.1660   69.8410   66.4160 C   0  0  0  0  0  0  0  0  0  0  0  0
    6.5000   70.1750   67.0880 C   0  0  0  0  0  0  0  0  0  0  0  0
    6.3770   71.1860   68.2170 C   0  0  0  0  0  0  0  0  0  0  0  0
    1.7400   68.1160   65.8030 C   0  0  0  0  0  0  0  0  0  0  0  0
    1.0450   67.5800   67.0520 C   0  0  0  0  0  0  0  0  0  0  0  0
    1.4640   68.3570   68.3010 C   0  0  0  0  0  0  0  0  0  0  0  0
    2.8980   70.3200   68.9670 C   0  0  0  0  0  0  0  0  0  0  0  0
    1.9080   69.7770   67.9490 C   0  0  0  0  0  0  0  0  0  0  0  0
    3.9546   69.3963   63.2659 H   0  0  0  0  0  0  0  0  0  0  0  0
    3.1763   69.4968   64.9144 H   0  0  0  0  0  0  0  0  0  0  0  0
    6.0299   68.6618   64.8330 H   0  0  0  0  0  0  0  0  0  0  0  0
    5.6483   70.3860   64.4012 H   0  0  0  0  0  0  0  0  0  0  0  0
    4.5025   70.7139   66.5041 H   0  0  0  0  0  0  0  0  0  0  0  0
    4.7570   68.9562   66.9258 H   0  0  0  0  0  0  0  0  0  0  0  0
    6.9251   69.2467   67.4973 H   0  0  0  0  0  0  0  0  0  0  0  0
    7.1440   70.6270   66.3192 H   0  0  0  0  0  0  0  0  0  0  0  0
    6.4403   70.6654   69.1839 H   0  0  0  0  0  0  0  0  0  0  0  0
    7.1924   71.9205   68.1419 H   0  0  0  0  0  0  0  0  0  0  0  0
    5.4093   71.7035   68.1419 H   0  0  0  0  0  0  0  0  0  0  0  0
    2.4016   68.9454   66.0934 H   0  0  0  0  0  0  0  0  0  0  0  0
    0.9631   68.4527   65.1008 H   0  0  0  0  0  0  0  0  0  0  0  0
   -0.0436   67.6707   66.9226 H   0  0  0  0  0  0  0  0  0  0  0  0
    1.3360   66.5276   67.1853 H   0  0  0  0  0  0  0  0  0  0  0  0
    0.6108   68.4096   68.9933 H   0  0  0  0  0  0  0  0  0  0  0  0
    2.3118   67.8337   68.7672 H   0  0  0  0  0  0  0  0  0  0  0  0
    2.5279   70.1170   69.9828 H   0  0  0  0  0  0  0  0  0  0  0  0
    3.8731   69.8305   68.8274 H   0  0  0  0  0  0  0  0  0  0  0  0
    3.0093   71.4054   68.8274 H   0  0  0  0  0  0  0  0  0  0  0  0
    2.3842   69.7671   66.9575 H   0  0  0  0  0  0  0  0  0  0  0  0
    1.0202   70.4265   67.9507 H   0  0  0  0  0  0  0  0  0  0  0  0
  2  1  2  0
  3  1  1  0
  4  3  2  0
  5  3  1  0
  6  5  1  0
  7  6  1  0
  8  7  1  0
  9  8  1  0
 10  1  1  0
 11 10  1  0
 12 11  1  0
 14 12  1  0
 14 13  1  0
  5 15  1  0
  5 16  1  0
  6 17  1  0
  6 18  1  0
  7 19  1  0
  7 20  1  0
  8 21  1  0
  8 22  1  0
  9 23  1  0
  9 24  1  0
  9 25  1  0
 10 26  1  0
 10 27  1  0
 11 28  1  0
 11 29  1  0
 12 30  1  0
 12 31  1  0
 13 32  1  0
 13 33  1  0
 13 34  1  0
 14 35  1  0
 14 36  1  0
M  END
>  <score>  (3) 
-6.025

$$$$
=
     RDKit          3D

 36 35  0  0  0  0  0  0  0  0999 V2000
    2.8190   68.6230   65.4610 C   0  0  0  0  0  0  0  0  0  0  0  0
    2.7950   68.7800   64.2470 O   0  0  0  0  0  0  0  0  0  0  0  0
    1.8910   67.5940   66.0940 C   0  0  0  0  0  0  0  0  0  0  0  0
    1.5330   66.6300   65.4300 O   0  0  0  0  0  0  0  0  0  0  0  0
    1.4650   67.8750   67.5200 C   0  0  0  0  0  0  0  0  0  0  0  0
    0.0110   68.3320   67.6400 C   0  0  0  0  0  0  0  0  0  0  0  0
   -0.9600   67.1550   67.7870 C   0  0  0  0  0  0  0  0  0  0  0  0
   -2.3140   67.4010   67.1170 C   0  0  0  0  0  0  0  0  0  0  0  0
   -2.3020   68.5540   66.1260 C   0  0  0  0  0  0  0  0  0  0  0  0
    3.7160   69.3820   66.4140 C   0  0  0  0  0  0  0  0  0  0  0  0
    5.0290   69.8000   65.7560 C   0  0  0  0  0  0  0  0  0  0  0  0
    6.1550   69.9180   66.7840 C   0  0  0  0  0  0  0  0  0  0  0  0
    6.8630   70.9740   68.9600 C   0  0  0  0  0  0  0  0  0  0  0  0
    5.7020   70.6980   68.0180 C   0  0  0  0  0  0  0  0  0  0  0  0
    1.5912   66.9549   68.1094 H   0  0  0  0  0  0  0  0  0  0  0  0
    2.0954   68.6963   67.8916 H   0  0  0  0  0  0  0  0  0  0  0  0
   -0.0838   68.9809   68.5231 H   0  0  0  0  0  0  0  0  0  0  0  0
   -0.2496   68.8691   66.7161 H   0  0  0  0  0  0  0  0  0  0  0  0
   -0.5015   66.2649   67.3315 H   0  0  0  0  0  0  0  0  0  0  0  0
   -1.1480   67.0196   68.8623 H   0  0  0  0  0  0  0  0  0  0  0  0
   -2.6089   66.4860   66.5824 H   0  0  0  0  0  0  0  0  0  0  0  0
   -3.0244   67.6675   67.9134 H   0  0  0  0  0  0  0  0  0  0  0  0
   -2.2921   69.5080   66.6735 H   0  0  0  0  0  0  0  0  0  0  0  0
   -1.4045   68.4847   65.4937 H   0  0  0  0  0  0  0  0  0  0  0  0
   -3.2007   68.5034   65.4937 H   0  0  0  0  0  0  0  0  0  0  0  0
    3.1876   70.2841   66.7562 H   0  0  0  0  0  0  0  0  0  0  0  0
    3.9557   68.7166   67.2565 H   0  0  0  0  0  0  0  0  0  0  0  0
    5.3082   69.0472   65.0041 H   0  0  0  0  0  0  0  0  0  0  0  0
    4.8835   70.7844   65.2871 H   0  0  0  0  0  0  0  0  0  0  0  0
    6.4657   68.9088   67.0923 H   0  0  0  0  0  0  0  0  0  0  0  0
    6.9929   70.4589   66.3201 H   0  0  0  0  0  0  0  0  0  0  0  0
    6.5178   70.8919   70.0012 H   0  0  0  0  0  0  0  0  0  0  0  0
    7.6633   70.2411   68.7802 H   0  0  0  0  0  0  0  0  0  0  0  0
    7.2479   71.9887   68.7802 H   0  0  0  0  0  0  0  0  0  0  0  0
    5.2677   71.6559   67.6958 H   0  0  0  0  0  0  0  0  0  0  0  0
    4.9580   70.0917   68.5556 H   0  0  0  0  0  0  0  0  0  0  0  0
  2  1  2  0
  3  1  1  0
  4  3  2  0
  5  3  1  0
  6  5  1  0
  7  6  1  0
  8  7  1  0
  9  8  1  0
 10  1  1  0
 11 10  1  0
 12 11  1  0
 14 12  1  0
 14 13  1  0
  5 15  1  0
  5 16  1  0
  6 17  1  0
  6 18  1  0
  7 19  1  0
  7 20  1  0
  8 21  1  0
  8 22  1  0
  9 23  1  0
  9 24  1  0
  9 25  1  0
 10 26  1  0
 10 27  1  0
 11 28  1  0
 11 29  1  0
 12 30  1  0
 12 31  1  0
 13 32  1  0
 13 33  1  0
 13 34  1  0
 14 35  1  0
 14 36  1  0
M  END
>  <score>  (4) 
-6.016

$$$$
=
     RDKit          3D

 36 35  0  0  0  0  0  0  0  0999 V2000
    2.1240   66.9720   65.2550 C   0  0  0  0  0  0  0  0  0  0  0  0
    1.4830   66.0320   64.8020 O   0  0  0  0  0  0  0  0  0  0  0  0
    3.3920   67.4190   64.5380 C   0  0  0  0  0  0  0  0  0  0  0  0
    4.1470   66.5690   64.0830 O   0  0  0  0  0  0  0  0  0  0  0  0
    3.6240   68.9140   64.4720 C   0  0  0  0  0  0  0  0  0  0  0  0
    4.9960   69.3390   64.9980 C   0  0  0  0  0  0  0  0  0  0  0  0
    4.9370   69.8290   66.4490 C   0  0  0  0  0  0  0  0  0  0  0  0
    6.1740   70.6280   66.8680 C   0  0  0  0  0  0  0  0  0  0  0  0
    6.4130   70.6350   68.3700 C   0  0  0  0  0  0  0  0  0  0  0  0
    1.7560   67.7510   66.4980 C   0  0  0  0  0  0  0  0  0  0  0  0
    0.2960   67.5430   66.8940 C   0  0  0  0  0  0  0  0  0  0  0  0
   -0.6240   68.5280   66.1710 C   0  0  0  0  0  0  0  0  0  0  0  0
   -2.2480   67.0860   67.4500 C   0  0  0  0  0  0  0  0  0  0  0  0
   -2.0900   68.2910   66.5350 C   0  0  0  0  0  0  0  0  0  0  0  0
    3.5380   69.2344   63.4232 H   0  0  0  0  0  0  0  0  0  0  0  0
    2.8681   69.3889   65.1148 H   0  0  0  0  0  0  0  0  0  0  0  0
    5.6781   68.4778   64.9430 H   0  0  0  0  0  0  0  0  0  0  0  0
    5.3511   70.1735   64.3754 H   0  0  0  0  0  0  0  0  0  0  0  0
    4.0509   70.4703   66.5654 H   0  0  0  0  0  0  0  0  0  0  0  0
    4.8906   68.9381   67.0926 H   0  0  0  0  0  0  0  0  0  0  0  0
    7.0549   70.1882   66.3775 H   0  0  0  0  0  0  0  0  0  0  0  0
    6.0034   71.6711   66.5632 H   0  0  0  0  0  0  0  0  0  0  0  0
    5.4469   70.6067   68.8951 H   0  0  0  0  0  0  0  0  0  0  0  0
    7.0088   69.7539   68.6506 H   0  0  0  0  0  0  0  0  0  0  0  0
    6.9562   71.5494   68.6506 H   0  0  0  0  0  0  0  0  0  0  0  0
    2.3991   67.4207   67.3271 H   0  0  0  0  0  0  0  0  0  0  0  0
    1.9001   68.8202   66.2832 H   0  0  0  0  0  0  0  0  0  0  0  0
   -0.0028   66.5169   66.6335 H   0  0  0  0  0  0  0  0  0  0  0  0
    0.2033   67.7135   67.9767 H   0  0  0  0  0  0  0  0  0  0  0  0
   -0.3455   69.5533   66.4561 H   0  0  0  0  0  0  0  0  0  0  0  0
   -0.5076   68.3793   65.0873 H   0  0  0  0  0  0  0  0  0  0  0  0
   -2.2050   67.4141   68.4991 H   0  0  0  0  0  0  0  0  0  0  0  0
   -3.2172   66.6031   67.2563 H   0  0  0  0  0  0  0  0  0  0  0  0
   -1.4361   66.3695   67.2563 H   0  0  0  0  0  0  0  0  0  0  0  0
   -2.4800   69.1828   67.0474 H   0  0  0  0  0  0  0  0  0  0  0  0
   -2.6494   68.0969   65.6080 H   0  0  0  0  0  0  0  0  0  0  0  0
  2  1  2  0
  3  1  1  0
  4  3  2  0
  5  3  1  0
  6  5  1  0
  7  6  1  0
  8  7  1  0
  9  8  1  0
 10  1  1  0
 11 10  1  0
 12 11  1  0
 14 12  1  0
 14 13  1  0
  5 15  1  0
  5 16  1  0
  6 17  1  0
  6 18  1  0
  7 19  1  0
  7 20  1  0
  8 21  1  0
  8 22  1  0
  9 23  1  0
  9 24  1  0
  9 25  1  0
 10 26  1  0
 10 27  1  0
 11 28  1  0
 11 29  1  0
 12 30  1  0
 12 31  1  0
 13 32  1  0
 13 33  1  0
 13 34  1  0
 14 35  1  0
 14 36  1  0
M  END
>  <score>  (5) 
-6.01

$$$$
=
     RDKit          3D

 36 35  0  0  0  0  0  0  0  0999 V2000
    1.7860   67.9930   65.9980 C   0  0  0  0  0  0  0  0  0  0  0  0
    1.9340   66.8280   66.3440 O   0  0  0  0  0  0  0  0  0  0  0  0
    0.5630   68.3710   65.1710 C   0  0  0  0  0  0  0  0  0  0  0  0
   -0.5480   68.0590   65.5790 O   0  0  0  0  0  0  0  0  0  0  0  0
    0.8410   69.0990   63.8730 C   0  0  0  0  0  0  0  0  0  0  0  0
    1.3340   68.1790   62.7550 C   0  0  0  0  0  0  0  0  0  0  0  0
    2.4510   68.8210   61.9230 C   0  0  0  0  0  0  0  0  0  0  0  0
    3.7870   68.0840   62.0330 C   0  0  0  0  0  0  0  0  0  0  0  0
    4.9840   69.0110   62.1740 C   0  0  0  0  0  0  0  0  0  0  0  0
    2.7370   69.1220   66.3290 C   0  0  0  0  0  0  0  0  0  0  0  0
    4.0810   68.9660   65.6210 C   0  0  0  0  0  0  0  0  0  0  0  0
    5.1380   69.8950   66.2200 C   0  0  0  0  0  0  0  0  0  0  0  0
    6.0510   70.8200   68.3800 C   0  0  0  0  0  0  0  0  0  0  0  0
    4.8510   70.1880   67.6930 C   0  0  0  0  0  0  0  0  0  0  0  0
   -0.0876   69.5857   63.5402 H   0  0  0  0  0  0  0  0  0  0  0  0
    1.6422   69.8257   64.0730 H   0  0  0  0  0  0  0  0  0  0  0  0
    1.7164   67.2504   63.2038 H   0  0  0  0  0  0  0  0  0  0  0  0
    0.4856   67.9810   62.0835 H   0  0  0  0  0  0  0  0  0  0  0  0
    2.1411   68.8265   60.8676 H   0  0  0  0  0  0  0  0  0  0  0  0
    2.6061   69.8371   62.3146 H   0  0  0  0  0  0  0  0  0  0  0  0
    3.7502   67.4271   62.9145 H   0  0  0  0  0  0  0  0  0  0  0  0
    3.9231   67.5216   61.0975 H   0  0  0  0  0  0  0  0  0  0  0  0
    5.1966   69.1757   63.2406 H   0  0  0  0  0  0  0  0  0  0  0  0
    5.8606   68.5539   61.6917 H   0  0  0  0  0  0  0  0  0  0  0  0
    4.7607   69.9741   61.6917 H   0  0  0  0  0  0  0  0  0  0  0  0
    2.2804   70.0732   66.0181 H   0  0  0  0  0  0  0  0  0  0  0  0
    2.9208   69.1037   67.4134 H   0  0  0  0  0  0  0  0  0  0  0  0
    4.4205   67.9247   65.7229 H   0  0  0  0  0  0  0  0  0  0  0  0
    3.9473   69.2309   64.5618 H   0  0  0  0  0  0  0  0  0  0  0  0
    6.1248   69.4162   66.1357 H   0  0  0  0  0  0  0  0  0  0  0  0
    5.1176   70.8457   65.6670 H   0  0  0  0  0  0  0  0  0  0  0  0
    5.9258   70.7540   69.4709 H   0  0  0  0  0  0  0  0  0  0  0  0
    6.9663   70.2869   68.0831 H   0  0  0  0  0  0  0  0  0  0  0  0
    6.1292   71.8763   68.0831 H   0  0  0  0  0  0  0  0  0  0  0  0
    3.9966   70.8775   67.7603 H   0  0  0  0  0  0  0  0  0  0  0  0
    4.6270   69.2361   68.1967 H   0  0  0  0  0  0  0  0  0  0  0  0
  2  1  2  0
  3  1  1  0
  4  3  2  0
  5  3  1  0
  6  5  1  0
  7  6  1  0
  8  7  1  0
  9  8  1  0
 10  1  1  0
 11 10  1  0
 12 11  1  0
 14 12  1  0
 14 13  1  0
  5 15  1  0
  5 16  1  0
  6 17  1  0
  6 18  1  0
  7 19  1  0
  7 20  1  0
  8 21  1  0
  8 22  1  0
  9 23  1  0
  9 24  1  0
  9 25  1  0
 10 26  1  0
 10 27  1  0
 11 28  1  0
 11 29  1  0
 12 30  1  0
 12 31  1  0
 13 32  1  0
 13 33  1  0
 13 34  1  0
 14 35  1  0
 14 36  1  0
M  END
>  <score>  (6) 
-5.997

$$$$
=
     RDKit          3D

 36 35  0  0  0  0  0  0  0  0999 V2000
    3.2660   67.5810   64.4360 C   0  0  0  0  0  0  0  0  0  0  0  0
    4.0080   66.6470   64.1590 O   0  0  0  0  0  0  0  0  0  0  0  0
    1.8100   67.2940   64.7810 C   0  0  0  0  0  0  0  0  0  0  0  0
    1.4480   66.1310   64.9050 O   0  0  0  0  0  0  0  0  0  0  0  0
    0.9120   68.5050   64.9210 C   0  0  0  0  0  0  0  0  0  0  0  0
    0.0710   68.4920   66.1980 C   0  0  0  0  0  0  0  0  0  0  0  0
    0.8570   68.9900   67.4170 C   0  0  0  0  0  0  0  0  0  0  0  0
    1.2090   67.8760   68.4060 C   0  0  0  0  0  0  0  0  0  0  0  0
    0.0690   66.9030   68.6570 C   0  0  0  0  0  0  0  0  0  0  0  0
    3.6800   69.0350   64.4670 C   0  0  0  0  0  0  0  0  0  0  0  0
    4.7820   69.2960   65.4920 C   0  0  0  0  0  0  0  0  0  0  0  0
    4.2020   69.7740   66.8240 C   0  0  0  0  0  0  0  0  0  0  0  0
    6.6110   70.4840   67.0360 C   0  0  0  0  0  0  0  0  0  0  0  0
    5.3050   70.2390   67.7750 C   0  0  0  0  0  0  0  0  0  0  0  0
    1.5414   69.4071   64.9270 H   0  0  0  0  0  0  0  0  0  0  0  0
    0.2133   68.4916   64.0715 H   0  0  0  0  0  0  0  0  0  0  0  0
   -0.8044   69.1419   66.0518 H   0  0  0  0  0  0  0  0  0  0  0  0
   -0.2292   67.4519   66.3929 H   0  0  0  0  0  0  0  0  0  0  0  0
    1.7909   69.4527   67.0652 H   0  0  0  0  0  0  0  0  0  0  0  0
    0.2143   69.7070   67.9487 H   0  0  0  0  0  0  0  0  0  0  0  0
    2.0650   67.3130   68.0055 H   0  0  0  0  0  0  0  0  0  0  0  0
    1.4388   68.3587   69.3673 H   0  0  0  0  0  0  0  0  0  0  0  0
   -0.0758   66.7794   69.7404 H   0  0  0  0  0  0  0  0  0  0  0  0
   -0.8543   67.2958   68.2061 H   0  0  0  0  0  0  0  0  0  0  0  0
    0.3119   65.9295   68.2061 H   0  0  0  0  0  0  0  0  0  0  0  0
    4.0475   69.3206   63.4703 H   0  0  0  0  0  0  0  0  0  0  0  0
    2.8016   69.6317   64.7541 H   0  0  0  0  0  0  0  0  0  0  0  0
    5.3432   68.3648   65.6594 H   0  0  0  0  0  0  0  0  0  0  0  0
    5.4417   70.0834   65.0987 H   0  0  0  0  0  0  0  0  0  0  0  0
    3.5146   70.6118   66.6355 H   0  0  0  0  0  0  0  0  0  0  0  0
    3.6707   68.9329   67.2932 H   0  0  0  0  0  0  0  0  0  0  0  0
    7.4214   70.6360   67.7641 H   0  0  0  0  0  0  0  0  0  0  0  0
    6.8438   69.6139   66.4046 H   0  0  0  0  0  0  0  0  0  0  0  0
    6.5126   71.3794   66.4046 H   0  0  0  0  0  0  0  0  0  0  0  0
    4.9880   71.1739   68.2602 H   0  0  0  0  0  0  0  0  0  0  0  0
    5.4736   69.4484   68.5210 H   0  0  0  0  0  0  0  0  0  0  0  0
  2  1  2  0
  3  1  1  0
  4  3  2  0
  5  3  1  0
  6  5  1  0
  7  6  1  0
  8  7  1  0
  9  8  1  0
 10  1  1  0
 11 10  1  0
 12 11  1  0
 14 12  1  0
 14 13  1  0
  5 15  1  0
  5 16  1  0
  6 17  1  0
  6 18  1  0
  7 19  1  0
  7 20  1  0
  8 21  1  0
  8 22  1  0
  9 23  1  0
  9 24  1  0
  9 25  1  0
 10 26  1  0
 10 27  1  0
 11 28  1  0
 11 29  1  0
 12 30  1  0
 12 31  1  0
 13 32  1  0
 13 33  1  0
 13 34  1  0
 14 35  1  0
 14 36  1  0
M  END
>  <score>  (7) 
-5.992

$$$$
=
     RDKit          3D

 36 35  0  0  0  0  0  0  0  0999 V2000
    0.1460   68.0000   66.0920 C   0  0  0  0  0  0  0  0  0  0  0  0
   -0.1010   66.8120   66.2500 O   0  0  0  0  0  0  0  0  0  0  0  0
    0.3260   68.5390   64.6790 C   0  0  0  0  0  0  0  0  0  0  0  0
   -0.6610   68.6850   63.9690 O   0  0  0  0  0  0  0  0  0  0  0  0
    1.7510   68.8340   64.2580 C   0  0  0  0  0  0  0  0  0  0  0  0
    2.7540   67.7830   64.7340 C   0  0  0  0  0  0  0  0  0  0  0  0
    4.1580   68.0180   64.1660 C   0  0  0  0  0  0  0  0  0  0  0  0
    4.6930   69.4260   64.4390 C   0  0  0  0  0  0  0  0  0  0  0  0
    5.5840   69.5100   65.6680 C   0  0  0  0  0  0  0  0  0  0  0  0
    0.2920   69.0090   67.2100 C   0  0  0  0  0  0  0  0  0  0  0  0
    1.5210   68.7350   68.0740 C   0  0  0  0  0  0  0  0  0  0  0  0
    2.6190   69.7710   67.8260 C   0  0  0  0  0  0  0  0  0  0  0  0
    4.6000   70.9480   68.8470 C   0  0  0  0  0  0  0  0  0  0  0  0
    3.3500   70.1260   69.1210 C   0  0  0  0  0  0  0  0  0  0  0  0
    1.7879   68.8791   63.1595 H   0  0  0  0  0  0  0  0  0  0  0  0
    2.0361   69.7893   64.7229 H   0  0  0  0  0  0  0  0  0  0  0  0
    2.8068   67.8165   65.8322 H   0  0  0  0  0  0  0  0  0  0  0  0
    2.4072   66.8018   64.3776 H   0  0  0  0  0  0  0  0  0  0  0  0
    4.8451   67.2891   64.6204 H   0  0  0  0  0  0  0  0  0  0  0  0
    4.0921   67.9002   63.0743 H   0  0  0  0  0  0  0  0  0  0  0  0
    5.2748   69.7527   63.5645 H   0  0  0  0  0  0  0  0  0  0  0  0
    3.8223   70.0715   64.6266 H   0  0  0  0  0  0  0  0  0  0  0  0
    4.9642   69.4516   66.5749 H   0  0  0  0  0  0  0  0  0  0  0  0
    6.3005   68.6754   65.6592 H   0  0  0  0  0  0  0  0  0  0  0  0
    6.1319   70.4638   65.6592 H   0  0  0  0  0  0  0  0  0  0  0  0
    0.3835   70.0136   66.7714 H   0  0  0  0  0  0  0  0  0  0  0  0
   -0.5976   68.9337   67.8527 H   0  0  0  0  0  0  0  0  0  0  0  0
    1.2286   68.7699   69.1338 H   0  0  0  0  0  0  0  0  0  0  0  0
    1.9153   67.7424   67.8108 H   0  0  0  0  0  0  0  0  0  0  0  0
    3.3430   69.3607   67.1067 H   0  0  0  0  0  0  0  0  0  0  0  0
    2.1516   70.6844   67.4294 H   0  0  0  0  0  0  0  0  0  0  0  0
    5.0575   71.2488   69.8011 H   0  0  0  0  0  0  0  0  0  0  0  0
    5.3168   70.3444   68.2709 H   0  0  0  0  0  0  0  0  0  0  0  0
    4.3298   71.8453   68.2709 H   0  0  0  0  0  0  0  0  0  0  0  0
    2.6740   70.7071   69.7655 H   0  0  0  0  0  0  0  0  0  0  0  0
    3.6528   69.1907   69.6144 H   0  0  0  0  0  0  0  0  0  0  0  0
  2  1  2  0
  3  1  1  0
  4  3  2  0
  5  3  1  0
  6  5  1  0
  7  6  1  0
  8  7  1  0
  9  8  1  0
 10  1  1  0
 11 10  1  0
 12 11  1  0
 14 12  1  0
 14 13  1  0
  5 15  1  0
  5 16  1  0
  6 17  1  0
  6 18  1  0
  7 19  1  0
  7 20  1  0
  8 21  1  0
  8 22  1  0
  9 23  1  0
  9 24  1  0
  9 25  1  0
 10 26  1  0
 10 27  1  0
 11 28  1  0
 11 29  1  0
 12 30  1  0
 12 31  1  0
 13 32  1  0
 13 33  1  0
 13 34  1  0
 14 35  1  0
 14 36  1  0
M  END
>  <score>  (8) 
-5.958

$$$$
=
     RDKit          3D

 36 35  0  0  0  0  0  0  0  0999 V2000
    4.5920   69.0140   64.1520 C   0  0  0  0  0  0  0  0  0  0  0  0
    5.5630   69.6680   63.7940 O   0  0  0  0  0  0  0  0  0  0  0  0
    4.0190   69.2400   65.5460 C   0  0  0  0  0  0  0  0  0  0  0  0
    2.8810   68.8600   65.7880 O   0  0  0  0  0  0  0  0  0  0  0  0
    4.9250   69.9550   66.5270 C   0  0  0  0  0  0  0  0  0  0  0  0
    4.2670   70.2130   67.8830 C   0  0  0  0  0  0  0  0  0  0  0  0
    5.2850   70.6080   68.9580 C   0  0  0  0  0  0  0  0  0  0  0  0
    6.6850   70.8720   68.3980 C   0  0  0  0  0  0  0  0  0  0  0  0
    7.7580   70.9820   69.4690 C   0  0  0  0  0  0  0  0  0  0  0  0
    3.8910   67.9720   63.3090 C   0  0  0  0  0  0  0  0  0  0  0  0
    3.6540   68.4560   61.8800 C   0  0  0  0  0  0  0  0  0  0  0  0
    2.2230   68.9660   61.6940 C   0  0  0  0  0  0  0  0  0  0  0  0
    0.0260   69.2070   62.9040 C   0  0  0  0  0  0  0  0  0  0  0  0
    1.2790   68.3630   62.7340 C   0  0  0  0  0  0  0  0  0  0  0  0
    5.8222   69.3388   66.6862 H   0  0  0  0  0  0  0  0  0  0  0  0
    5.1667   70.9356   66.0911 H   0  0  0  0  0  0  0  0  0  0  0  0
    3.5358   71.0273   67.7721 H   0  0  0  0  0  0  0  0  0  0  0  0
    3.7829   69.2792   68.2051 H   0  0  0  0  0  0  0  0  0  0  0  0
    4.9300   71.5223   69.4560 H   0  0  0  0  0  0  0  0  0  0  0  0
    5.3673   69.7615   69.6556 H   0  0  0  0  0  0  0  0  0  0  0  0
    6.9510   70.0454   67.7228 H   0  0  0  0  0  0  0  0  0  0  0  0
    6.6472   71.8409   67.8785 H   0  0  0  0  0  0  0  0  0  0  0  0
    7.2899   70.9340   70.4633 H   0  0  0  0  0  0  0  0  0  0  0  0
    8.4719   70.1523   69.3594 H   0  0  0  0  0  0  0  0  0  0  0  0
    8.2887   71.9393   69.3594 H   0  0  0  0  0  0  0  0  0  0  0  0
    4.5115   67.0643   63.2780 H   0  0  0  0  0  0  0  0  0  0  0  0
    2.9110   67.7691   63.7656 H   0  0  0  0  0  0  0  0  0  0  0  0
    4.3568   69.2724   61.6573 H   0  0  0  0  0  0  0  0  0  0  0  0
    3.8114   67.6086   61.1966 H   0  0  0  0  0  0  0  0  0  0  0  0
    2.2167   70.0612   61.7966 H   0  0  0  0  0  0  0  0  0  0  0  0
    1.8750   68.6669   60.6943 H   0  0  0  0  0  0  0  0  0  0  0  0
   -0.1800   69.3458   63.9756 H   0  0  0  0  0  0  0  0  0  0  0  0
    0.1775   70.1879   62.4297 H   0  0  0  0  0  0  0  0  0  0  0  0
   -0.8261   68.6980   62.4297 H   0  0  0  0  0  0  0  0  0  0  0  0
    0.9884   67.3528   62.4100 H   0  0  0  0  0  0  0  0  0  0  0  0
    1.8055   68.3280   63.6992 H   0  0  0  0  0  0  0  0  0  0  0  0
  2  1  2  0
  3  1  1  0
  4  3  2  0
  5  3  1  0
  6  5  1  0
  7  6  1  0
  8  7  1  0
  9  8  1  0
 10  1  1  0
 11 10  1  0
 12 11  1  0
 14 12  1  0
 14 13  1  0
  5 15  1  0
  5 16  1  0
  6 17  1  0
  6 18  1  0
  7 19  1  0
  7 20  1  0
  8 21  1  0
  8 22  1  0
  9 23  1  0
  9 24  1  0
  9 25  1  0
 10 26  1  0
 10 27  1  0
 11 28  1  0
 11 29  1  0
 12 30  1  0
 12 31  1  0
 13 32  1  0
 13 33  1  0
 13 34  1  0
 14 35  1  0
 14 36  1  0
M  END
>  <score>  (9) 
-5.948

$$$$
