=
     RDKit          3D

 27 29  0  0  0  0  0  0  0  0999 V2000
    2.0660   68.5980   65.2710 O   0  0  0  0  0  0  0  0  0  0  0  0
    2.5280   69.0950   66.2830 C   0  0  0  0  0  0  0  0  0  0  0  0
    1.7940   69.4740   67.5640 C   0  0  0  0  0  0  0  0  0  0  0  0
    2.8980   70.0950   68.4110 C   0  0  0  0  0  0  0  0  0  0  0  0
    2.8100   70.5800   69.5250 O   0  0  0  0  0  0  0  0  0  0  0  0
    4.1520   70.0410   67.6610 C   0  0  0  0  0  0  0  0  0  0  0  0
    3.9380   69.4550   66.4240 C   0  0  0  0  0  0  0  0  0  0  0  0
    4.9650   69.2830   65.5140 C   0  0  0  0  0  0  0  0  0  0  0  0
    6.2380   69.7210   65.8860 C   0  0  0  0  0  0  0  0  0  0  0  0
    6.4570   70.3150   67.1440 C   0  0  0  0  0  0  0  0  0  0  0  0
    5.4050   70.4810   68.0490 C   0  0  0  0  0  0  0  0  0  0  0  0
    1.0580   68.3030   68.1840 C   0  0  0  0  0  0  0  0  0  0  0  0
    1.5720   67.5490   69.2500 C   0  0  0  0  0  0  0  0  0  0  0  0
    0.8530   66.4710   69.7750 C   0  0  0  0  0  0  0  0  0  0  0  0
   -0.3870   66.1280   69.2420 C   0  0  0  0  0  0  0  0  0  0  0  0
   -0.9110   66.8630   68.1830 C   0  0  0  0  0  0  0  0  0  0  0  0
   -0.1950   67.9400   67.6590 C   0  0  0  0  0  0  0  0  0  0  0  0
    0.9638   70.1812   67.4205 H   0  0  0  0  0  0  0  0  0  0  0  0
    4.7859   68.8183   64.5332 H   0  0  0  0  0  0  0  0  0  0  0  0
    7.0796   69.6006   65.1880 H   0  0  0  0  0  0  0  0  0  0  0  0
    7.4677   70.6522   67.4175 H   0  0  0  0  0  0  0  0  0  0  0  0
    5.5672   70.9443   69.0334 H   0  0  0  0  0  0  0  0  0  0  0  0
    2.5517   67.8090   69.6774 H   0  0  0  0  0  0  0  0  0  0  0  0
    1.2685   65.8914   70.6125 H   0  0  0  0  0  0  0  0  0  0  0  0
   -0.9503   65.2790   69.6567 H   0  0  0  0  0  0  0  0  0  0  0  0
   -1.8899   66.5950   67.7588 H   0  0  0  0  0  0  0  0  0  0  0  0
   -0.6177   68.5145   66.8215 H   0  0  0  0  0  0  0  0  0  0  0  0
  2  1  2  0
  3  2  1  0
  4  3  1  0
  5  4  2  0
  6  4  1  0
  7  6  2  0
  7  2  1  0
  8  7  1  0
  9  8  2  0
 10  9  1  0
 11  6  1  0
 11 10  2  0
 12  3  1  0
 13 12  2  0
 14 13  1  0
 15 14  2  0
 16 15  1  0
 17 16  2  0
 17 12  1  0
  3 18  1  0
  8 19  1  0
  9 20  1  0
 10 21  1  0
 11 22  1  0
 13 23  1  0
 14 24  1  0
 15 25  1  0
 16 26  1  0
 17 27  1  0
M  END
>  <score>  (1) 
-9.931

$$$$
=
     RDKit          3D

 27 29  0  0  0  0  0  0  0  0999 V2000
    2.1180   69.3270   67.9160 O   0  0  0  0  0  0  0  0  0  0  0  0
    2.1880   68.5640   66.9690 C   0  0  0  0  0  0  0  0  0  0  0  0
    1.3200   67.3440   66.6770 C   0  0  0  0  0  0  0  0  0  0  0  0
    1.9410   66.7880   65.4030 C   0  0  0  0  0  0  0  0  0  0  0  0
    1.6170   65.7940   64.7780 O   0  0  0  0  0  0  0  0  0  0  0  0
    3.0540   67.6500   65.0070 C   0  0  0  0  0  0  0  0  0  0  0  0
    3.1950   68.6860   65.9170 C   0  0  0  0  0  0  0  0  0  0  0  0
    4.1790   69.6480   65.7760 C   0  0  0  0  0  0  0  0  0  0  0  0
    5.0340   69.5420   64.6760 C   0  0  0  0  0  0  0  0  0  0  0  0
    4.8900   68.4900   63.7500 C   0  0  0  0  0  0  0  0  0  0  0  0
    3.8900   67.5270   63.9110 C   0  0  0  0  0  0  0  0  0  0  0  0
   -0.1560   67.6810   66.6070 C   0  0  0  0  0  0  0  0  0  0  0  0
   -0.6840   68.6460   65.7360 C   0  0  0  0  0  0  0  0  0  0  0  0
   -2.0530   68.9240   65.7220 C   0  0  0  0  0  0  0  0  0  0  0  0
   -2.9160   68.2460   66.5800 C   0  0  0  0  0  0  0  0  0  0  0  0
   -2.4100   67.2880   67.4520 C   0  0  0  0  0  0  0  0  0  0  0  0
   -1.0430   67.0080   67.4660 C   0  0  0  0  0  0  0  0  0  0  0  0
    1.3165   66.5864   67.4746 H   0  0  0  0  0  0  0  0  0  0  0  0
    4.2845   70.4665   66.5033 H   0  0  0  0  0  0  0  0  0  0  0  0
    5.8288   70.2886   64.5313 H   0  0  0  0  0  0  0  0  0  0  0  0
    5.5728   68.4258   62.8900 H   0  0  0  0  0  0  0  0  0  0  0  0
    3.7718   66.7019   63.1932 H   0  0  0  0  0  0  0  0  0  0  0  0
   -0.0120   69.1901   65.0561 H   0  0  0  0  0  0  0  0  0  0  0  0
   -2.4511   69.6813   65.0307 H   0  0  0  0  0  0  0  0  0  0  0  0
   -3.9934   68.4675   66.5678 H   0  0  0  0  0  0  0  0  0  0  0  0
   -3.0880   66.7505   68.1313 H   0  0  0  0  0  0  0  0  0  0  0  0
   -0.6531   66.2488   68.1600 H   0  0  0  0  0  0  0  0  0  0  0  0
  2  1  2  0
  3  2  1  0
  4  3  1  0
  5  4  2  0
  6  4  1  0
  7  6  2  0
  7  2  1  0
  8  7  1  0
  9  8  2  0
 10  9  1  0
 11  6  1  0
 11 10  2  0
 12  3  1  0
 13 12  2  0
 14 13  1  0
 15 14  2  0
 16 15  1  0
 17 16  2  0
 17 12  1  0
  3 18  1  0
  8 19  1  0
  9 20  1  0
 10 21  1  0
 11 22  1  0
 13 23  1  0
 14 24  1  0
 15 25  1  0
 16 26  1  0
 17 27  1  0
M  END
>  <score>  (2) 
-9.632

$$$$
=
     RDKit          3D

 27 29  0  0  0  0  0  0  0  0999 V2000
    1.0160   68.4490   66.8930 O   0  0  0  0  0  0  0  0  0  0  0  0
    2.1490   68.7010   66.5250 C   0  0  0  0  0  0  0  0  0  0  0  0
    2.8440   68.2540   65.2430 C   0  0  0  0  0  0  0  0  0  0  0  0
    4.2430   68.8330   65.4010 C   0  0  0  0  0  0  0  0  0  0  0  0
    5.1910   68.7300   64.6430 O   0  0  0  0  0  0  0  0  0  0  0  0
    4.3100   69.5650   66.6650 C   0  0  0  0  0  0  0  0  0  0  0  0
    3.0900   69.4910   67.3180 C   0  0  0  0  0  0  0  0  0  0  0  0
    2.8820   70.1010   68.5420 C   0  0  0  0  0  0  0  0  0  0  0  0
    3.9520   70.8020   69.1040 C   0  0  0  0  0  0  0  0  0  0  0  0
    5.1930   70.8780   68.4410 C   0  0  0  0  0  0  0  0  0  0  0  0
    5.3820   70.2540   67.2050 C   0  0  0  0  0  0  0  0  0  0  0  0
    2.0880   68.6670   63.9960 C   0  0  0  0  0  0  0  0  0  0  0  0
    0.7390   69.0500   64.0060 C   0  0  0  0  0  0  0  0  0  0  0  0
    0.0890   69.4120   62.8220 C   0  0  0  0  0  0  0  0  0  0  0  0
    0.7760   69.3930   61.6110 C   0  0  0  0  0  0  0  0  0  0  0  0
    2.1140   69.0120   61.5810 C   0  0  0  0  0  0  0  0  0  0  0  0
    2.7640   68.6530   62.7620 C   0  0  0  0  0  0  0  0  0  0  0  0
    2.8849   67.1637   65.1029 H   0  0  0  0  0  0  0  0  0  0  0  0
    1.9104   70.0366   69.0538 H   0  0  0  0  0  0  0  0  0  0  0  0
    3.8240   71.3007   70.0761 H   0  0  0  0  0  0  0  0  0  0  0  0
    6.0224   71.4348   68.9015 H   0  0  0  0  0  0  0  0  0  0  0  0
    6.3474   70.3084   66.6805 H   0  0  0  0  0  0  0  0  0  0  0  0
    0.1856   69.0658   64.9565 H   0  0  0  0  0  0  0  0  0  0  0  0
   -0.9688   69.7128   62.8474 H   0  0  0  0  0  0  0  0  0  0  0  0
    0.2626   69.6783   60.6809 H   0  0  0  0  0  0  0  0  0  0  0  0
    2.6593   68.9939   60.6258 H   0  0  0  0  0  0  0  0  0  0  0  0
    3.8221   68.3542   62.7280 H   0  0  0  0  0  0  0  0  0  0  0  0
  2  1  2  0
  3  2  1  0
  4  3  1  0
  5  4  2  0
  6  4  1  0
  7  6  2  0
  7  2  1  0
  8  7  1  0
  9  8  2  0
 10  9  1  0
 11  6  1  0
 11 10  2  0
 12  3  1  0
 13 12  2  0
 14 13  1  0
 15 14  2  0
 16 15  1  0
 17 16  2  0
 17 12  1  0
  3 18  1  0
  8 19  1  0
  9 20  1  0
 10 21  1  0
 11 22  1  0
 13 23  1  0
 14 24  1  0
 15 25  1  0
 16 26  1  0
 17 27  1  0
M  END
>  <score>  (3) 
-9.619

$$$$
=
     RDKit          3D

 27 29  0  0  0  0  0  0  0  0999 V2000
    5.6650   69.6980   64.7520 O   0  0  0  0  0  0  0  0  0  0  0  0
    4.7120   69.5350   65.4930 C   0  0  0  0  0  0  0  0  0  0  0  0
    3.3700   68.8880   65.1700 C   0  0  0  0  0  0  0  0  0  0  0  0
    2.6000   69.0440   66.4750 C   0  0  0  0  0  0  0  0  0  0  0  0
    1.4560   68.7040   66.7200 O   0  0  0  0  0  0  0  0  0  0  0  0
    3.4620   69.7060   67.4530 C   0  0  0  0  0  0  0  0  0  0  0  0
    4.6930   69.9890   66.8830 C   0  0  0  0  0  0  0  0  0  0  0  0
    5.6970   70.6180   67.5950 C   0  0  0  0  0  0  0  0  0  0  0  0
    5.4290   70.9620   68.9230 C   0  0  0  0  0  0  0  0  0  0  0  0
    4.1780   70.6750   69.5040 C   0  0  0  0  0  0  0  0  0  0  0  0
    3.1760   70.0390   68.7650 C   0  0  0  0  0  0  0  0  0  0  0  0
    3.5150   67.4730   64.6480 C   0  0  0  0  0  0  0  0  0  0  0  0
    2.8620   66.3700   65.2200 C   0  0  0  0  0  0  0  0  0  0  0  0
    3.0410   65.0850   64.7020 C   0  0  0  0  0  0  0  0  0  0  0  0
    3.8780   64.8790   63.6070 C   0  0  0  0  0  0  0  0  0  0  0  0
    4.5360   65.9600   63.0280 C   0  0  0  0  0  0  0  0  0  0  0  0
    4.3560   67.2440   63.5430 C   0  0  0  0  0  0  0  0  0  0  0  0
    2.8278   69.3570   64.3357 H   0  0  0  0  0  0  0  0  0  0  0  0
    6.6707   70.8396   67.1337 H   0  0  0  0  0  0  0  0  0  0  0  0
    6.2041   71.4628   69.5217 H   0  0  0  0  0  0  0  0  0  0  0  0
    3.9875   70.9544   70.5507 H   0  0  0  0  0  0  0  0  0  0  0  0
    2.1962   69.8117   69.2104 H   0  0  0  0  0  0  0  0  0  0  0  0
    2.2013   66.5192   66.0867 H   0  0  0  0  0  0  0  0  0  0  0  0
    2.5190   64.2321   65.1604 H   0  0  0  0  0  0  0  0  0  0  0  0
    4.0180   63.8659   63.2019 H   0  0  0  0  0  0  0  0  0  0  0  0
    5.1982   65.8020   62.1640 H   0  0  0  0  0  0  0  0  0  0  0  0
    4.8802   68.0917   63.0776 H   0  0  0  0  0  0  0  0  0  0  0  0
  2  1  2  0
  3  2  1  0
  4  3  1  0
  5  4  2  0
  6  4  1  0
  7  6  2  0
  7  2  1  0
  8  7  1  0
  9  8  2  0
 10  9  1  0
 11  6  1  0
 11 10  2  0
 12  3  1  0
 13 12  2  0
 14 13  1  0
 15 14  2  0
 16 15  1  0
 17 16  2  0
 17 12  1  0
  3 18  1  0
  8 19  1  0
  9 20  1  0
 10 21  1  0
 11 22  1  0
 13 23  1  0
 14 24  1  0
 15 25  1  0
 16 26  1  0
 17 27  1  0
M  END
>  <score>  (4) 
-9.521

$$$$
=
     RDKit          3D

 27 29  0  0  0  0  0  0  0  0999 V2000
    1.5640   66.8720   66.8580 O   0  0  0  0  0  0  0  0  0  0  0  0
    2.3310   67.2610   65.9950 C   0  0  0  0  0  0  0  0  0  0  0  0
    2.7090   68.6980   65.6510 C   0  0  0  0  0  0  0  0  0  0  0  0
    3.6420   68.5220   64.4610 C   0  0  0  0  0  0  0  0  0  0  0  0
    4.1960   69.3860   63.8040 O   0  0  0  0  0  0  0  0  0  0  0  0
    3.7870   67.0940   64.1820 C   0  0  0  0  0  0  0  0  0  0  0  0
    3.0260   66.3600   65.0780 C   0  0  0  0  0  0  0  0  0  0  0  0
    2.9850   64.9780   65.0340 C   0  0  0  0  0  0  0  0  0  0  0  0
    3.7420   64.3400   64.0490 C   0  0  0  0  0  0  0  0  0  0  0  0
    4.5160   65.0860   63.1380 C   0  0  0  0  0  0  0  0  0  0  0  0
    4.5440   66.4820   63.1990 C   0  0  0  0  0  0  0  0  0  0  0  0
    3.2770   69.4510   66.8370 C   0  0  0  0  0  0  0  0  0  0  0  0
    4.6330   69.7890   66.9560 C   0  0  0  0  0  0  0  0  0  0  0  0
    5.1040   70.4760   68.0790 C   0  0  0  0  0  0  0  0  0  0  0  0
    4.2280   70.8330   69.1010 C   0  0  0  0  0  0  0  0  0  0  0  0
    2.8800   70.5040   69.0020 C   0  0  0  0  0  0  0  0  0  0  0  0
    2.4090   69.8200   67.8810 C   0  0  0  0  0  0  0  0  0  0  0  0
    1.8574   69.3436   65.3903 H   0  0  0  0  0  0  0  0  0  0  0  0
    2.3783   64.4026   65.7487 H   0  0  0  0  0  0  0  0  0  0  0  0
    3.7339   63.2420   63.9835 H   0  0  0  0  0  0  0  0  0  0  0  0
    5.1051   64.5635   62.3699 H   0  0  0  0  0  0  0  0  0  0  0  0
    5.1455   67.0721   62.4918 H   0  0  0  0  0  0  0  0  0  0  0  0
    5.3346   69.5102   66.1560 H   0  0  0  0  0  0  0  0  0  0  0  0
    6.1702   70.7354   68.1555 H   0  0  0  0  0  0  0  0  0  0  0  0
    4.6007   71.3734   69.9836 H   0  0  0  0  0  0  0  0  0  0  0  0
    2.1852   70.7832   69.8078 H   0  0  0  0  0  0  0  0  0  0  0  0
    1.3412   69.5649   67.8122 H   0  0  0  0  0  0  0  0  0  0  0  0
  2  1  2  0
  3  2  1  0
  4  3  1  0
  5  4  2  0
  6  4  1  0
  7  6  2  0
  7  2  1  0
  8  7  1  0
  9  8  2  0
 10  9  1  0
 11  6  1  0
 11 10  2  0
 12  3  1  0
 13 12  2  0
 14 13  1  0
 15 14  2  0
 16 15  1  0
 17 16  2  0
 17 12  1  0
  3 18  1  0
  8 19  1  0
  9 20  1  0
 10 21  1  0
 11 22  1  0
 13 23  1  0
 14 24  1  0
 15 25  1  0
 16 26  1  0
 17 27  1  0
M  END
>  <score>  (5) 
-9.434

$$$$
=
     RDKit          3D

 27 29  0  0  0  0  0  0  0  0999 V2000
    4.8020   68.2110   64.2580 O   0  0  0  0  0  0  0  0  0  0  0  0
    3.6510   68.4160   64.6000 C   0  0  0  0  0  0  0  0  0  0  0  0
    3.0730   68.4050   66.0110 C   0  0  0  0  0  0  0  0  0  0  0  0
    1.5930   68.6660   65.7680 C   0  0  0  0  0  0  0  0  0  0  0  0
    0.6940   68.7280   66.5890 O   0  0  0  0  0  0  0  0  0  0  0  0
    1.3730   68.8320   64.3320 C   0  0  0  0  0  0  0  0  0  0  0  0
    2.5730   68.6900   63.6520 C   0  0  0  0  0  0  0  0  0  0  0  0
    2.6450   68.8000   62.2760 C   0  0  0  0  0  0  0  0  0  0  0  0
    1.4590   69.0630   61.5850 C   0  0  0  0  0  0  0  0  0  0  0  0
    0.2400   69.2080   62.2760 C   0  0  0  0  0  0  0  0  0  0  0  0
    0.1880   69.0920   63.6680 C   0  0  0  0  0  0  0  0  0  0  0  0
    3.7780   69.3760   66.9370 C   0  0  0  0  0  0  0  0  0  0  0  0
    5.0700   69.8670   66.6980 C   0  0  0  0  0  0  0  0  0  0  0  0
    5.6760   70.7540   67.5930 C   0  0  0  0  0  0  0  0  0  0  0  0
    5.0020   71.1590   68.7430 C   0  0  0  0  0  0  0  0  0  0  0  0
    3.7210   70.6800   68.9990 C   0  0  0  0  0  0  0  0  0  0  0  0
    3.1150   69.7970   68.1040 C   0  0  0  0  0  0  0  0  0  0  0  0
    3.2204   67.4615   66.5569 H   0  0  0  0  0  0  0  0  0  0  0  0
    3.6010   68.6847   61.7442 H   0  0  0  0  0  0  0  0  0  0  0  0
    1.4776   69.1578   60.4893 H   0  0  0  0  0  0  0  0  0  0  0  0
   -0.6822   69.4150   61.7133 H   0  0  0  0  0  0  0  0  0  0  0  0
   -0.7599   69.2033   64.2148 H   0  0  0  0  0  0  0  0  0  0  0  0
    5.6131   69.5503   65.7954 H   0  0  0  0  0  0  0  0  0  0  0  0
    6.6881   71.1332   67.3884 H   0  0  0  0  0  0  0  0  0  0  0  0
    5.4812   71.8555   69.4467 H   0  0  0  0  0  0  0  0  0  0  0  0
    3.1861   70.9971   69.9064 H   0  0  0  0  0  0  0  0  0  0  0  0
    2.1019   69.4240   68.3148 H   0  0  0  0  0  0  0  0  0  0  0  0
  2  1  2  0
  3  2  1  0
  4  3  1  0
  5  4  2  0
  6  4  1  0
  7  6  2  0
  7  2  1  0
  8  7  1  0
  9  8  2  0
 10  9  1  0
 11  6  1  0
 11 10  2  0
 12  3  1  0
 13 12  2  0
 14 13  1  0
 15 14  2  0
 16 15  1  0
 17 16  2  0
 17 12  1  0
  3 18  1  0
  8 19  1  0
  9 20  1  0
 10 21  1  0
 11 22  1  0
 13 23  1  0
 14 24  1  0
 15 25  1  0
 16 26  1  0
 17 27  1  0
M  END
>  <score>  (6) 
-9.268

$$$$
=
     RDKit          3D

 27 29  0  0  0  0  0  0  0  0999 V2000
    2.1580   68.5350   67.1160 O   0  0  0  0  0  0  0  0  0  0  0  0
    3.0090   68.5700   66.2460 C   0  0  0  0  0  0  0  0  0  0  0  0
    3.9740   69.7050   65.9190 C   0  0  0  0  0  0  0  0  0  0  0  0
    4.7250   69.1670   64.7080 C   0  0  0  0  0  0  0  0  0  0  0  0
    5.5950   69.7170   64.0560 O   0  0  0  0  0  0  0  0  0  0  0  0
    4.2290   67.8260   64.4040 C   0  0  0  0  0  0  0  0  0  0  0  0
    3.2330   67.4770   65.3020 C   0  0  0  0  0  0  0  0  0  0  0  0
    2.5910   66.2530   65.2360 C   0  0  0  0  0  0  0  0  0  0  0  0
    2.9850   65.3710   64.2260 C   0  0  0  0  0  0  0  0  0  0  0  0
    3.9980   65.7250   63.3140 C   0  0  0  0  0  0  0  0  0  0  0  0
    4.6330   66.9670   63.3980 C   0  0  0  0  0  0  0  0  0  0  0  0
    4.8250   70.1080   67.1060 C   0  0  0  0  0  0  0  0  0  0  0  0
    4.2960   70.3620   68.3810 C   0  0  0  0  0  0  0  0  0  0  0  0
    5.1280   70.7420   69.4380 C   0  0  0  0  0  0  0  0  0  0  0  0
    6.5000   70.8780   69.2380 C   0  0  0  0  0  0  0  0  0  0  0  0
    7.0420   70.6330   67.9800 C   0  0  0  0  0  0  0  0  0  0  0  0
    6.2120   70.2520   66.9240 C   0  0  0  0  0  0  0  0  0  0  0  0
    3.4874   70.6634   65.6852 H   0  0  0  0  0  0  0  0  0  0  0  0
    1.8001   65.9842   65.9517 H   0  0  0  0  0  0  0  0  0  0  0  0
    2.4979   64.3883   64.1424 H   0  0  0  0  0  0  0  0  0  0  0  0
    4.2928   65.0158   62.5265 H   0  0  0  0  0  0  0  0  0  0  0  0
    5.4253   67.2512   62.6898 H   0  0  0  0  0  0  0  0  0  0  0  0
    3.2138   70.2608   68.5505 H   0  0  0  0  0  0  0  0  0  0  0  0
    4.6976   70.9345   70.4319 H   0  0  0  0  0  0  0  0  0  0  0  0
    7.1524   71.1779   70.0714 H   0  0  0  0  0  0  0  0  0  0  0  0
    8.1247   70.7395   67.8175 H   0  0  0  0  0  0  0  0  0  0  0  0
    6.6502   70.0613   65.9332 H   0  0  0  0  0  0  0  0  0  0  0  0
  2  1  2  0
  3  2  1  0
  4  3  1  0
  5  4  2  0
  6  4  1  0
  7  6  2  0
  7  2  1  0
  8  7  1  0
  9  8  2  0
 10  9  1  0
 11  6  1  0
 11 10  2  0
 12  3  1  0
 13 12  2  0
 14 13  1  0
 15 14  2  0
 16 15  1  0
 17 16  2  0
 17 12  1  0
  3 18  1  0
  8 19  1  0
  9 20  1  0
 10 21  1  0
 11 22  1  0
 13 23  1  0
 14 24  1  0
 15 25  1  0
 16 26  1  0
 17 27  1  0
M  END
>  <score>  (7) 
-9.124

$$$$
=
     RDKit          3D

 27 29  0  0  0  0  0  0  0  0999 V2000
    1.0730   69.3800   64.6090 O   0  0  0  0  0  0  0  0  0  0  0  0
    0.8760   68.6870   65.5910 C   0  0  0  0  0  0  0  0  0  0  0  0
    1.9080   67.9980   66.4790 C   0  0  0  0  0  0  0  0  0  0  0  0
    1.0400   67.2470   67.4790 C   0  0  0  0  0  0  0  0  0  0  0  0
    1.3980   66.5200   68.3890 O   0  0  0  0  0  0  0  0  0  0  0  0
   -0.3650   67.5190   67.1810 C   0  0  0  0  0  0  0  0  0  0  0  0
   -0.4600   68.3600   66.0840 C   0  0  0  0  0  0  0  0  0  0  0  0
   -1.6840   68.7750   65.5900 C   0  0  0  0  0  0  0  0  0  0  0  0
   -2.8320   68.3150   66.2400 C   0  0  0  0  0  0  0  0  0  0  0  0
   -2.7360   67.4600   67.3560 C   0  0  0  0  0  0  0  0  0  0  0  0
   -1.4890   67.0520   67.8390 C   0  0  0  0  0  0  0  0  0  0  0  0
    2.9130   68.9690   67.0650 C   0  0  0  0  0  0  0  0  0  0  0  0
    4.1270   69.2910   66.4390 C   0  0  0  0  0  0  0  0  0  0  0  0
    5.0220   70.1860   67.0320 C   0  0  0  0  0  0  0  0  0  0  0  0
    4.7220   70.7690   68.2610 C   0  0  0  0  0  0  0  0  0  0  0  0
    3.5240   70.4590   68.8980 C   0  0  0  0  0  0  0  0  0  0  0  0
    2.6290   69.5680   68.3060 C   0  0  0  0  0  0  0  0  0  0  0  0
    2.5798   67.3081   65.9473 H   0  0  0  0  0  0  0  0  0  0  0  0
   -1.7508   69.4422   64.7180 H   0  0  0  0  0  0  0  0  0  0  0  0
   -3.8230   68.6241   65.8761 H   0  0  0  0  0  0  0  0  0  0  0  0
   -3.6527   67.1096   67.8529 H   0  0  0  0  0  0  0  0  0  0  0  0
   -1.4047   66.3848   68.7095 H   0  0  0  0  0  0  0  0  0  0  0  0
    4.3772   68.8337   65.4703 H   0  0  0  0  0  0  0  0  0  0  0  0
    5.9674   70.4310   66.5259 H   0  0  0  0  0  0  0  0  0  0  0  0
    5.4291   71.4716   68.7262 H   0  0  0  0  0  0  0  0  0  0  0  0
    3.2829   70.9169   69.8687 H   0  0  0  0  0  0  0  0  0  0  0  0
    1.6851   69.3296   68.8180 H   0  0  0  0  0  0  0  0  0  0  0  0
  2  1  2  0
  3  2  1  0
  4  3  1  0
  5  4  2  0
  6  4  1  0
  7  6  2  0
  7  2  1  0
  8  7  1  0
  9  8  2  0
 10  9  1  0
 11  6  1  0
 11 10  2  0
 12  3  1  0
 13 12  2  0
 14 13  1  0
 15 14  2  0
 16 15  1  0
 17 16  2  0
 17 12  1  0
  3 18  1  0
  8 19  1  0
  9 20  1  0
 10 21  1  0
 11 22  1  0
 13 23  1  0
 14 24  1  0
 15 25  1  0
 16 26  1  0
 17 27  1  0
M  END
>  <score>  (8) 
-9.086

$$$$
=
     RDKit          3D

 27 29  0  0  0  0  0  0  0  0999 V2000
    0.9600   66.8010   65.1360 O   0  0  0  0  0  0  0  0  0  0  0  0
    1.5560   67.6610   65.7600 C   0  0  0  0  0  0  0  0  0  0  0  0
    1.0770   68.4390   66.9810 C   0  0  0  0  0  0  0  0  0  0  0  0
    2.2350   69.3930   67.2460 C   0  0  0  0  0  0  0  0  0  0  0  0
    2.3250   70.2460   68.1100 O   0  0  0  0  0  0  0  0  0  0  0  0
    3.2840   69.1440   66.2590 C   0  0  0  0  0  0  0  0  0  0  0  0
    2.8910   68.1330   65.3960 C   0  0  0  0  0  0  0  0  0  0  0  0
    3.7040   67.7010   64.3640 C   0  0  0  0  0  0  0  0  0  0  0  0
    4.9470   68.3210   64.2180 C   0  0  0  0  0  0  0  0  0  0  0  0
    5.3480   69.3480   65.0950 C   0  0  0  0  0  0  0  0  0  0  0  0
    4.5110   69.7710   66.1310 C   0  0  0  0  0  0  0  0  0  0  0  0
    0.6820   67.5350   68.1310 C   0  0  0  0  0  0  0  0  0  0  0  0
   -0.5970   66.9750   68.2660 C   0  0  0  0  0  0  0  0  0  0  0  0
   -0.9090   66.1550   69.3540 C   0  0  0  0  0  0  0  0  0  0  0  0
    0.0510   65.8860   70.3280 C   0  0  0  0  0  0  0  0  0  0  0  0
    1.3240   66.4350   70.2130 C   0  0  0  0  0  0  0  0  0  0  0  0
    1.6370   67.2520   69.1250 C   0  0  0  0  0  0  0  0  0  0  0  0
    0.1391   68.9932   66.8285 H   0  0  0  0  0  0  0  0  0  0  0  0
    3.3835   66.8986   63.6832 H   0  0  0  0  0  0  0  0  0  0  0  0
    5.6209   68.0036   63.4086 H   0  0  0  0  0  0  0  0  0  0  0  0
    6.3315   69.8225   64.9627 H   0  0  0  0  0  0  0  0  0  0  0  0
    4.8162   70.5728   66.8194 H   0  0  0  0  0  0  0  0  0  0  0  0
   -1.3642   67.1839   67.5059 H   0  0  0  0  0  0  0  0  0  0  0  0
   -1.9157   65.7204   69.4419 H   0  0  0  0  0  0  0  0  0  0  0  0
   -0.1971   65.2419   71.1845 H   0  0  0  0  0  0  0  0  0  0  0  0
    2.0844   66.2253   70.9797 H   0  0  0  0  0  0  0  0  0  0  0  0
    2.6464   67.6814   69.0435 H   0  0  0  0  0  0  0  0  0  0  0  0
  2  1  2  0
  3  2  1  0
  4  3  1  0
  5  4  2  0
  6  4  1  0
  7  6  2  0
  7  2  1  0
  8  7  1  0
  9  8  2  0
 10  9  1  0
 11  6  1  0
 11 10  2  0
 12  3  1  0
 13 12  2  0
 14 13  1  0
 15 14  2  0
 16 15  1  0
 17 16  2  0
 17 12  1  0
  3 18  1  0
  8 19  1  0
  9 20  1  0
 10 21  1  0
 11 22  1  0
 13 23  1  0
 14 24  1  0
 15 25  1  0
 16 26  1  0
 17 27  1  0
M  END
>  <score>  (9) 
-8.768

$$$$
