=
     RDKit          3D

 43 47  0  0  0  0  0  0  0  0999 V2000
    3.4180   69.1880   66.3040 C   0  0  0  0  0  0  0  0  0  0  0  0
    4.5270   69.8270   66.9170 C   0  0  0  0  0  0  0  0  0  0  0  0
    4.6140   70.1250   68.3000 C   0  0  0  0  0  0  0  0  0  0  0  0
    5.7380   70.7480   68.8450 C   0  0  0  0  0  0  0  0  0  0  0  0
    6.8030   71.0920   68.0230 C   0  0  0  0  0  0  0  0  0  0  0  0
    6.7390   70.8180   66.6570 C   0  0  0  0  0  0  0  0  0  0  0  0
    5.6130   70.1920   66.0950 C   0  0  0  0  0  0  0  0  0  0  0  0
    5.5620   69.9280   64.7170 C   0  0  0  0  0  0  0  0  0  0  0  0
    4.4520   69.3120   64.1160 C   0  0  0  0  0  0  0  0  0  0  0  0
    3.3490   68.9340   64.9090 C   0  0  0  0  0  0  0  0  0  0  0  0
    2.2430   68.3280   64.2600 C   0  0  0  0  0  0  0  0  0  0  0  0
    2.2410   68.0960   62.8840 C   0  0  0  0  0  0  0  0  0  0  0  0
    3.3400   68.4650   62.1190 C   0  0  0  0  0  0  0  0  0  0  0  0
    4.4360   69.0690   62.7320 C   0  0  0  0  0  0  0  0  0  0  0  0
    0.8260   67.2700   68.1330 C   0  0  1  0  0  0  0  0  0  0  0  0
    0.5870   68.6820   68.4000 N   0  0  0  0  0  0  0  0  0  0  0  0
    1.3970   69.4910   67.6490 N   0  0  0  0  0  0  0  0  0  0  0  0
    2.3180   68.7180   67.1580 C   0  0  0  0  0  0  0  0  0  0  0  0
    2.2220   67.2630   67.5230 C   0  0  0  0  0  0  0  0  0  0  0  0
    0.4170   63.8210   73.0690 Cl  0  0  0  0  0  0  0  0  0  0  0  0
    0.5240   64.8040   71.6600 C   0  0  0  0  0  0  0  0  0  0  0  0
    1.5620   64.6020   70.7530 C   0  0  0  0  0  0  0  0  0  0  0  0
    1.6500   65.4010   69.6100 C   0  0  0  0  0  0  0  0  0  0  0  0
    0.6980   66.4010   69.3600 C   0  0  0  0  0  0  0  0  0  0  0  0
   -0.3360   66.5940   70.2920 C   0  0  0  0  0  0  0  0  0  0  0  0
   -0.4250   65.7970   71.4350 C   0  0  0  0  0  0  0  0  0  0  0  0
    3.7752   69.8588   68.9600 H   0  0  0  0  0  0  0  0  0  0  0  0
    5.7800   70.9658   69.9224 H   0  0  0  0  0  0  0  0  0  0  0  0
    7.6935   71.5786   68.4475 H   0  0  0  0  0  0  0  0  0  0  0  0
    7.5833   71.0963   66.0091 H   0  0  0  0  0  0  0  0  0  0  0  0
    6.4185   70.2126   64.0881 H   0  0  0  0  0  0  0  0  0  0  0  0
    1.3661   68.0339   64.8554 H   0  0  0  0  0  0  0  0  0  0  0  0
    1.3710   67.6219   62.4062 H   0  0  0  0  0  0  0  0  0  0  0  0
    3.3452   68.2813   61.0345 H   0  0  0  0  0  0  0  0  0  0  0  0
    5.3037   69.3606   62.1220 H   0  0  0  0  0  0  0  0  0  0  0  0
    0.0735   66.8316   67.4610 H   0  0  0  0  0  0  0  0  0  0  0  0
   -0.1092   69.0306   69.0742 H   0  0  0  0  0  0  0  0  0  0  0  0
    2.2844   66.6100   66.6400 H   0  0  0  0  0  0  0  0  0  0  0  0
    3.0234   66.8814   68.1727 H   0  0  0  0  0  0  0  0  0  0  0  0
    2.3097   63.8162   70.9360 H   0  0  0  0  0  0  0  0  0  0  0  0
    2.4743   65.2444   68.8987 H   0  0  0  0  0  0  0  0  0  0  0  0
   -1.0838   67.3820   70.1190 H   0  0  0  0  0  0  0  0  0  0  0  0
   -1.2419   65.9533   72.1548 H   0  0  0  0  0  0  0  0  0  0  0  0
  2  1  1  0
  3  2  2  0
  4  3  1  0
  5  4  2  0
  6  5  1  0
  7  2  1  0
  7  6  2  0
  8  7  1  0
  9  8  2  0
 10  9  1  0
 10  1  2  0
 11 10  1  0
 12 11  2  0
 13 12  1  0
 14 13  2  0
 14  9  1  0
 16 15  1  0
 17 16  1  0
 18 17  2  0
 18  1  1  0
 19 18  1  0
 19 15  1  0
 21 20  1  0
 22 21  2  0
 23 22  1  0
 24 23  2  0
 24 15  1  0
 25 24  1  0
 26 21  1  0
 26 25  2  0
  3 27  1  0
  4 28  1  0
  5 29  1  0
  6 30  1  0
  8 31  1  0
 11 32  1  0
 12 33  1  0
 13 34  1  0
 14 35  1  0
 15 36  1  6
 16 37  1  0
 19 38  1  0
 19 39  1  0
 22 40  1  0
 23 41  1  0
 25 42  1  0
 26 43  1  0
M  END
>  <score>  (1) 
-11.355

$$$$
=
     RDKit          3D

 43 47  0  0  0  0  0  0  0  0999 V2000
    1.3750   62.6220   71.7640 C   0  0  0  0  0  0  0  0  0  0  0  0
    2.7200   62.2480   71.5060 C   0  0  0  0  0  0  0  0  0  0  0  0
    3.6680   63.0730   70.8510 C   0  0  0  0  0  0  0  0  0  0  0  0
    4.9800   62.6490   70.6350 C   0  0  0  0  0  0  0  0  0  0  0  0
    5.3800   61.3910   71.0650 C   0  0  0  0  0  0  0  0  0  0  0  0
    4.4650   60.5560   71.7050 C   0  0  0  0  0  0  0  0  0  0  0  0
    3.1400   60.9690   71.9280 C   0  0  0  0  0  0  0  0  0  0  0  0
    2.2280   60.1140   72.5690 C   0  0  0  0  0  0  0  0  0  0  0  0
    0.8940   60.4860   72.8030 C   0  0  0  0  0  0  0  0  0  0  0  0
    0.4410   61.7580   72.3940 C   0  0  0  0  0  0  0  0  0  0  0  0
   -0.9160   62.0870   72.6360 C   0  0  0  0  0  0  0  0  0  0  0  0
   -1.7820   61.1960   73.2710 C   0  0  0  0  0  0  0  0  0  0  0  0
   -1.3180   59.9520   73.6760 C   0  0  0  0  0  0  0  0  0  0  0  0
    0.0100   59.6000   73.4420 C   0  0  0  0  0  0  0  0  0  0  0  0
    0.9450   66.0350   70.3810 C   0  0  1  0  0  0  0  0  0  0  0  0
   -0.0060   65.8880   71.4750 N   0  0  0  0  0  0  0  0  0  0  0  0
    0.1720   64.7150   72.1570 N   0  0  0  0  0  0  0  0  0  0  0  0
    0.9470   63.9840   71.4150 C   0  0  0  0  0  0  0  0  0  0  0  0
    1.4000   64.6040   70.1220 C   0  0  0  0  0  0  0  0  0  0  0  0
   -1.3170   68.7060   65.4650 Cl  0  0  0  0  0  0  0  0  0  0  0  0
   -0.6800   67.9460   66.8710 C   0  0  0  0  0  0  0  0  0  0  0  0
    0.6270   68.2130   67.2710 C   0  0  0  0  0  0  0  0  0  0  0  0
    1.1450   67.5960   68.4120 C   0  0  0  0  0  0  0  0  0  0  0  0
    0.3590   66.7120   69.1670 C   0  0  0  0  0  0  0  0  0  0  0  0
   -0.9550   66.4490   68.7430 C   0  0  0  0  0  0  0  0  0  0  0  0
   -1.4740   67.0650   67.6020 C   0  0  0  0  0  0  0  0  0  0  0  0
    3.3625   64.0713   70.5046 H   0  0  0  0  0  0  0  0  0  0  0  0
    5.6959   63.3104   70.1250 H   0  0  0  0  0  0  0  0  0  0  0  0
    6.4144   61.0545   70.9015 H   0  0  0  0  0  0  0  0  0  0  0  0
    4.7850   59.5585   72.0406 H   0  0  0  0  0  0  0  0  0  0  0  0
    2.5696   59.1215   72.8981 H   0  0  0  0  0  0  0  0  0  0  0  0
   -1.2958   63.0684   72.3156 H   0  0  0  0  0  0  0  0  0  0  0  0
   -2.8298   61.4787   73.4502 H   0  0  0  0  0  0  0  0  0  0  0  0
   -1.9957   59.2469   74.1796 H   0  0  0  0  0  0  0  0  0  0  0  0
    0.3723   58.6122   73.7628 H   0  0  0  0  0  0  0  0  0  0  0  0
    1.7826   66.7019   70.6335 H   0  0  0  0  0  0  0  0  0  0  0  0
   -0.7276   66.5852   71.7078 H   0  0  0  0  0  0  0  0  0  0  0  0
    2.4897   64.5340   69.9890 H   0  0  0  0  0  0  0  0  0  0  0  0
    1.0065   64.1376   69.2068 H   0  0  0  0  0  0  0  0  0  0  0  0
    1.2501   68.9084   66.6895 H   0  0  0  0  0  0  0  0  0  0  0  0
    2.1795   67.8051   68.7219 H   0  0  0  0  0  0  0  0  0  0  0  0
   -1.5817   65.7501   69.3163 H   0  0  0  0  0  0  0  0  0  0  0  0
   -2.5053   66.8554   67.2819 H   0  0  0  0  0  0  0  0  0  0  0  0
  2  1  1  0
  3  2  2  0
  4  3  1  0
  5  4  2  0
  6  5  1  0
  7  2  1  0
  7  6  2  0
  8  7  1  0
  9  8  2  0
 10  9  1  0
 10  1  2  0
 11 10  1  0
 12 11  2  0
 13 12  1  0
 14 13  2  0
 14  9  1  0
 16 15  1  0
 17 16  1  0
 18 17  2  0
 18  1  1  0
 19 18  1  0
 19 15  1  0
 21 20  1  0
 22 21  2  0
 23 22  1  0
 24 23  2  0
 24 15  1  0
 25 24  1  0
 26 21  1  0
 26 25  2  0
  3 27  1  0
  4 28  1  0
  5 29  1  0
  6 30  1  0
  8 31  1  0
 11 32  1  0
 12 33  1  0
 13 34  1  0
 14 35  1  0
 15 36  1  1
 16 37  1  0
 19 38  1  0
 19 39  1  0
 22 40  1  0
 23 41  1  0
 25 42  1  0
 26 43  1  0
M  END
>  <score>  (2) 
-11.038

$$$$
=
     RDKit          3D

 43 47  0  0  0  0  0  0  0  0999 V2000
    1.3970   62.7100   71.8760 C   0  0  0  0  0  0  0  0  0  0  0  0
    0.4730   61.8090   72.4640 C   0  0  0  0  0  0  0  0  0  0  0  0
   -0.8660   62.1380   72.7950 C   0  0  0  0  0  0  0  0  0  0  0  0
   -1.7300   61.2020   73.3640 C   0  0  0  0  0  0  0  0  0  0  0  0
   -1.2800   59.9140   73.6220 C   0  0  0  0  0  0  0  0  0  0  0  0
    0.0350   59.5660   73.3140 C   0  0  0  0  0  0  0  0  0  0  0  0
    0.9160   60.4990   72.7410 C   0  0  0  0  0  0  0  0  0  0  0  0
    2.2390   60.1350   72.4430 C   0  0  0  0  0  0  0  0  0  0  0  0
    3.1520   61.0390   71.8770 C   0  0  0  0  0  0  0  0  0  0  0  0
    2.7420   62.3570   71.5870 C   0  0  0  0  0  0  0  0  0  0  0  0
    3.6990   63.2420   71.0310 C   0  0  0  0  0  0  0  0  0  0  0  0
    5.0050   62.8300   70.7610 C   0  0  0  0  0  0  0  0  0  0  0  0
    5.3910   61.5260   71.0430 C   0  0  0  0  0  0  0  0  0  0  0  0
    4.4700   60.6390   71.5980 C   0  0  0  0  0  0  0  0  0  0  0  0
    0.8900   66.0970   70.4550 C   0  0  1  0  0  0  0  0  0  0  0  0
   -0.1190   65.9060   71.4900 N   0  0  0  0  0  0  0  0  0  0  0  0
    0.0740   64.7440   72.1860 N   0  0  0  0  0  0  0  0  0  0  0  0
    0.9260   64.0500   71.4950 C   0  0  0  0  0  0  0  0  0  0  0  0
    1.4270   64.6890   70.2300 C   0  0  0  0  0  0  0  0  0  0  0  0
   -1.3680   68.7160   65.5090 Cl  0  0  0  0  0  0  0  0  0  0  0  0
   -0.7160   67.9680   66.9140 C   0  0  0  0  0  0  0  0  0  0  0  0
   -1.4850   67.0580   67.6350 C   0  0  0  0  0  0  0  0  0  0  0  0
   -0.9570   66.4510   68.7770 C   0  0  0  0  0  0  0  0  0  0  0  0
    0.3470   66.7430   69.2040 C   0  0  0  0  0  0  0  0  0  0  0  0
    1.1050   67.6710   68.4690 C   0  0  0  0  0  0  0  0  0  0  0  0
    0.5780   68.2780   67.3280 C   0  0  0  0  0  0  0  0  0  0  0  0
   -1.2325   63.1563   72.5983 H   0  0  0  0  0  0  0  0  0  0  0  0
   -2.7651   61.4836   73.6076 H   0  0  0  0  0  0  0  0  0  0  0  0
   -1.9579   59.1711   74.0675 H   0  0  0  0  0  0  0  0  0  0  0  0
    0.3881   58.5453   73.5228 H   0  0  0  0  0  0  0  0  0  0  0  0
    2.5707   59.1089   72.6599 H   0  0  0  0  0  0  0  0  0  0  0  0
    3.4057   64.2782   70.8069 H   0  0  0  0  0  0  0  0  0  0  0  0
    5.7270   63.5366   70.3258 H   0  0  0  0  0  0  0  0  0  0  0  0
    6.4180   61.1949   70.8295 H   0  0  0  0  0  0  0  0  0  0  0  0
    4.7804   59.6076   71.8216 H   0  0  0  0  0  0  0  0  0  0  0  0
    1.6779   66.8033   70.7556 H   0  0  0  0  0  0  0  0  0  0  0  0
   -0.8864   66.5676   71.6753 H   0  0  0  0  0  0  0  0  0  0  0  0
    2.5249   64.6705   70.1638 H   0  0  0  0  0  0  0  0  0  0  0  0
    1.1125   64.2034   69.2944 H   0  0  0  0  0  0  0  0  0  0  0  0
   -2.5067   66.8175   67.3058 H   0  0  0  0  0  0  0  0  0  0  0  0
   -1.5697   65.7371   69.3470 H   0  0  0  0  0  0  0  0  0  0  0  0
    2.1247   67.9216   68.7967 H   0  0  0  0  0  0  0  0  0  0  0  0
    1.1821   68.9987   66.7574 H   0  0  0  0  0  0  0  0  0  0  0  0
  2  1  1  0
  3  2  2  0
  4  3  1  0
  5  4  2  0
  6  5  1  0
  7  2  1  0
  7  6  2  0
  8  7  1  0
  9  8  2  0
 10  9  1  0
 10  1  2  0
 11 10  1  0
 12 11  2  0
 13 12  1  0
 14 13  2  0
 14  9  1  0
 16 15  1  0
 17 16  1  0
 18 17  2  0
 18  1  1  0
 19 18  1  0
 19 15  1  0
 21 20  1  0
 22 21  2  0
 23 22  1  0
 24 23  2  0
 24 15  1  0
 25 24  1  0
 26 21  1  0
 26 25  2  0
  3 27  1  0
  4 28  1  0
  5 29  1  0
  6 30  1  0
  8 31  1  0
 11 32  1  0
 12 33  1  0
 13 34  1  0
 14 35  1  0
 15 36  1  1
 16 37  1  0
 19 38  1  0
 19 39  1  0
 22 40  1  0
 23 41  1  0
 25 42  1  0
 26 43  1  0
M  END
>  <score>  (3) 
-10.973

$$$$
=
     RDKit          3D

 43 47  0  0  0  0  0  0  0  0999 V2000
    1.1110   63.9940   71.3320 C   0  0  0  0  0  0  0  0  0  0  0  0
    1.8740   62.8690   70.9230 C   0  0  0  0  0  0  0  0  0  0  0  0
    2.2630   62.6110   69.5840 C   0  0  0  0  0  0  0  0  0  0  0  0
    3.0230   61.4890   69.2480 C   0  0  0  0  0  0  0  0  0  0  0  0
    3.4110   60.5960   70.2360 C   0  0  0  0  0  0  0  0  0  0  0  0
    3.0340   60.8210   71.5600 C   0  0  0  0  0  0  0  0  0  0  0  0
    2.2680   61.9450   71.9130 C   0  0  0  0  0  0  0  0  0  0  0  0
    1.8910   62.1560   73.2500 C   0  0  0  0  0  0  0  0  0  0  0  0
    1.1200   63.2620   73.6420 C   0  0  0  0  0  0  0  0  0  0  0  0
    0.7090   64.2050   72.6770 C   0  0  0  0  0  0  0  0  0  0  0  0
   -0.0800   65.2990   73.1130 C   0  0  0  0  0  0  0  0  0  0  0  0
   -0.4340   65.4560   74.4550 C   0  0  0  0  0  0  0  0  0  0  0  0
   -0.0120   64.5240   75.3940 C   0  0  0  0  0  0  0  0  0  0  0  0
    0.7580   63.4350   74.9890 C   0  0  0  0  0  0  0  0  0  0  0  0
    0.8400   66.9990   69.1780 C   0  0  1  0  0  0  0  0  0  0  0  0
   -0.2650   66.1160   68.8290 N   0  0  0  0  0  0  0  0  0  0  0  0
   -0.3490   65.0410   69.6710 N   0  0  0  0  0  0  0  0  0  0  0  0
    0.7700   65.0130   70.3290 C   0  0  0  0  0  0  0  0  0  0  0  0
    1.7540   66.1020   70.0040 C   0  0  0  0  0  0  0  0  0  0  0  0
    3.6450   69.4470   64.4290 Cl  0  0  0  0  0  0  0  0  0  0  0  0
    2.8370   68.7470   65.7770 C   0  0  0  0  0  0  0  0  0  0  0  0
    2.9120   69.3630   67.0240 C   0  0  0  0  0  0  0  0  0  0  0  0
    2.2580   68.7950   68.1200 C   0  0  0  0  0  0  0  0  0  0  0  0
    1.5180   67.6110   67.9770 C   0  0  0  0  0  0  0  0  0  0  0  0
    1.4610   67.0000   66.7120 C   0  0  0  0  0  0  0  0  0  0  0  0
    2.1150   67.5670   65.6170 C   0  0  0  0  0  0  0  0  0  0  0  0
    1.9590   63.3110   68.7918 H   0  0  0  0  0  0  0  0  0  0  0  0
    3.3136   61.3135   68.2017 H   0  0  0  0  0  0  0  0  0  0  0  0
    4.0139   59.7134   69.9763 H   0  0  0  0  0  0  0  0  0  0  0  0
    3.3409   60.1080   72.3394 H   0  0  0  0  0  0  0  0  0  0  0  0
    2.2100   61.4317   74.0139 H   0  0  0  0  0  0  0  0  0  0  0  0
   -0.4215   66.0418   72.3771 H   0  0  0  0  0  0  0  0  0  0  0  0
   -1.0454   66.3155   74.7672 H   0  0  0  0  0  0  0  0  0  0  0  0
   -0.2842   64.6446   76.4529 H   0  0  0  0  0  0  0  0  0  0  0  0
    1.0880   62.6984   75.7364 H   0  0  0  0  0  0  0  0  0  0  0  0
    0.5121   67.8892   69.7347 H   0  0  0  0  0  0  0  0  0  0  0  0
   -0.9074   66.2816   68.0411 H   0  0  0  0  0  0  0  0  0  0  0  0
    2.1242   66.6084   70.9076 H   0  0  0  0  0  0  0  0  0  0  0  0
    2.6782   65.7752   69.5049 H   0  0  0  0  0  0  0  0  0  0  0  0
    3.4847   70.2943   67.1455 H   0  0  0  0  0  0  0  0  0  0  0  0
    2.3236   69.2805   69.1049 H   0  0  0  0  0  0  0  0  0  0  0  0
    0.8951   66.0654   66.5839 H   0  0  0  0  0  0  0  0  0  0  0  0
    2.0603   67.0832   64.6306 H   0  0  0  0  0  0  0  0  0  0  0  0
  2  1  1  0
  3  2  2  0
  4  3  1  0
  5  4  2  0
  6  5  1  0
  7  2  1  0
  7  6  2  0
  8  7  1  0
  9  8  2  0
 10  9  1  0
 10  1  2  0
 11 10  1  0
 12 11  2  0
 13 12  1  0
 14 13  2  0
 14  9  1  0
 16 15  1  0
 17 16  1  0
 18 17  2  0
 18  1  1  0
 19 18  1  0
 19 15  1  0
 21 20  1  0
 22 21  2  0
 23 22  1  0
 24 23  2  0
 24 15  1  0
 25 24  1  0
 26 21  1  0
 26 25  2  0
  3 27  1  0
  4 28  1  0
  5 29  1  0
  6 30  1  0
  8 31  1  0
 11 32  1  0
 12 33  1  0
 13 34  1  0
 14 35  1  0
 15 36  1  1
 16 37  1  0
 19 38  1  0
 19 39  1  0
 22 40  1  0
 23 41  1  0
 25 42  1  0
 26 43  1  0
M  END
>  <score>  (4) 
-10.504

$$$$
=
     RDKit          3D

 43 47  0  0  0  0  0  0  0  0999 V2000
    3.5240   69.1200   66.2530 C   0  0  0  0  0  0  0  0  0  0  0  0
    3.4290   68.8580   64.8620 C   0  0  0  0  0  0  0  0  0  0  0  0
    2.3660   68.1450   64.2530 C   0  0  0  0  0  0  0  0  0  0  0  0
    2.3260   67.9280   62.8750 C   0  0  0  0  0  0  0  0  0  0  0  0
    3.3470   68.4130   62.0690 C   0  0  0  0  0  0  0  0  0  0  0  0
    4.4090   69.1100   62.6440 C   0  0  0  0  0  0  0  0  0  0  0  0
    4.4630   69.3350   64.0300 C   0  0  0  0  0  0  0  0  0  0  0  0
    5.5430   70.0340   64.5940 C   0  0  0  0  0  0  0  0  0  0  0  0
    5.6370   70.2730   65.9750 C   0  0  0  0  0  0  0  0  0  0  0  0
    4.6210   69.8090   66.8350 C   0  0  0  0  0  0  0  0  0  0  0  0
    4.7630   70.0590   68.2230 C   0  0  0  0  0  0  0  0  0  0  0  0
    5.8620   70.7520   68.7330 C   0  0  0  0  0  0  0  0  0  0  0  0
    6.8490   71.2110   67.8710 C   0  0  0  0  0  0  0  0  0  0  0  0
    6.7370   70.9720   66.5020 C   0  0  0  0  0  0  0  0  0  0  0  0
    0.8460   67.3490   68.1070 C   0  0  1  0  0  0  0  0  0  0  0  0
    0.7030   68.7700   68.3930 N   0  0  0  0  0  0  0  0  0  0  0  0
    1.5500   69.5340   67.6370 N   0  0  0  0  0  0  0  0  0  0  0  0
    2.4120   68.7110   67.1220 C   0  0  0  0  0  0  0  0  0  0  0  0
    2.2290   67.2600   67.4720 C   0  0  0  0  0  0  0  0  0  0  0  0
    0.2980   63.8830   73.0170 Cl  0  0  0  0  0  0  0  0  0  0  0  0
    0.4450   64.8700   71.6150 C   0  0  0  0  0  0  0  0  0  0  0  0
    1.5310   64.7000   70.7590 C   0  0  0  0  0  0  0  0  0  0  0  0
    1.6510   65.5020   69.6220 C   0  0  0  0  0  0  0  0  0  0  0  0
    0.6850   66.4750   69.3270 C   0  0  0  0  0  0  0  0  0  0  0  0
   -0.3990   66.6370   70.2070 C   0  0  0  0  0  0  0  0  0  0  0  0
   -0.5200   65.8360   71.3440 C   0  0  0  0  0  0  0  0  0  0  0  0
    1.5529   67.7532   64.8818 H   0  0  0  0  0  0  0  0  0  0  0  0
    1.4873   67.3738   62.4284 H   0  0  0  0  0  0  0  0  0  0  0  0
    3.3183   68.2482   60.9818 H   0  0  0  0  0  0  0  0  0  0  0  0
    5.2176   69.4899   62.0022 H   0  0  0  0  0  0  0  0  0  0  0  0
    6.3401   70.4059   63.9335 H   0  0  0  0  0  0  0  0  0  0  0  0
    3.9881   69.6980   68.9152 H   0  0  0  0  0  0  0  0  0  0  0  0
    5.9459   70.9340   69.8146 H   0  0  0  0  0  0  0  0  0  0  0  0
    7.7157   71.7609   68.2666 H   0  0  0  0  0  0  0  0  0  0  0  0
    7.5222   71.3363   65.8232 H   0  0  0  0  0  0  0  0  0  0  0  0
    0.0548   66.9681   67.4445 H   0  0  0  0  0  0  0  0  0  0  0  0
    0.0421   69.1546   69.0831 H   0  0  0  0  0  0  0  0  0  0  0  0
    2.2343   66.6155   66.5806 H   0  0  0  0  0  0  0  0  0  0  0  0
    3.0151   66.8196   68.1029 H   0  0  0  0  0  0  0  0  0  0  0  0
    2.2917   63.9363   70.9781 H   0  0  0  0  0  0  0  0  0  0  0  0
    2.5123   65.3691   68.9507 H   0  0  0  0  0  0  0  0  0  0  0  0
   -1.1601   67.4031   69.9976 H   0  0  0  0  0  0  0  0  0  0  0  0
   -1.3750   65.9678   72.0234 H   0  0  0  0  0  0  0  0  0  0  0  0
  2  1  1  0
  3  2  2  0
  4  3  1  0
  5  4  2  0
  6  5  1  0
  7  2  1  0
  7  6  2  0
  8  7  1  0
  9  8  2  0
 10  9  1  0
 10  1  2  0
 11 10  1  0
 12 11  2  0
 13 12  1  0
 14 13  2  0
 14  9  1  0
 16 15  1  0
 17 16  1  0
 18 17  2  0
 18  1  1  0
 19 18  1  0
 19 15  1  0
 21 20  1  0
 22 21  2  0
 23 22  1  0
 24 23  2  0
 24 15  1  0
 25 24  1  0
 26 21  1  0
 26 25  2  0
  3 27  1  0
  4 28  1  0
  5 29  1  0
  6 30  1  0
  8 31  1  0
 11 32  1  0
 12 33  1  0
 13 34  1  0
 14 35  1  0
 15 36  1  6
 16 37  1  0
 19 38  1  0
 19 39  1  0
 22 40  1  0
 23 41  1  0
 25 42  1  0
 26 43  1  0
M  END
>  <score>  (5) 
-10.496

$$$$
=
     RDKit          3D

 43 47  0  0  0  0  0  0  0  0999 V2000
    3.6950   69.0240   65.7140 C   0  0  0  0  0  0  0  0  0  0  0  0
    4.5000   69.6930   66.6730 C   0  0  0  0  0  0  0  0  0  0  0  0
    4.1610   69.8350   68.0420 C   0  0  0  0  0  0  0  0  0  0  0  0
    5.0010   70.4980   68.9380 C   0  0  0  0  0  0  0  0  0  0  0  0
    6.1990   71.0380   68.4910 C   0  0  0  0  0  0  0  0  0  0  0  0
    6.5530   70.9200   67.1470 C   0  0  0  0  0  0  0  0  0  0  0  0
    5.7160   70.2560   66.2330 C   0  0  0  0  0  0  0  0  0  0  0  0
    6.0830   70.1500   64.8820 C   0  0  0  0  0  0  0  0  0  0  0  0
    5.2720   69.5020   63.9370 C   0  0  0  0  0  0  0  0  0  0  0  0
    4.0490   68.9280   64.3420 C   0  0  0  0  0  0  0  0  0  0  0  0
    3.2540   68.2960   63.3540 C   0  0  0  0  0  0  0  0  0  0  0  0
    3.6630   68.2260   62.0210 C   0  0  0  0  0  0  0  0  0  0  0  0
    4.8750   68.7880   61.6400 C   0  0  0  0  0  0  0  0  0  0  0  0
    5.6720   69.4220   62.5920 C   0  0  0  0  0  0  0  0  0  0  0  0
    0.4560   68.0510   67.2320 C   0  0  1  0  0  0  0  0  0  0  0  0
    1.0480   66.8460   66.6670 N   0  0  0  0  0  0  0  0  0  0  0  0
    2.3200   67.0630   66.2120 N   0  0  0  0  0  0  0  0  0  0  0  0
    2.4710   68.3520   66.1720 C   0  0  0  0  0  0  0  0  0  0  0  0
    1.2900   69.1690   66.6180 C   0  0  0  0  0  0  0  0  0  0  0  0
   -5.4350   68.5400   66.0150 Cl  0  0  0  0  0  0  0  0  0  0  0  0
   -3.7570   68.4000   66.3710 C   0  0  0  0  0  0  0  0  0  0  0  0
   -2.8370   69.1970   65.6940 C   0  0  0  0  0  0  0  0  0  0  0  0
   -1.4750   69.0830   65.9820 C   0  0  0  0  0  0  0  0  0  0  0  0
   -1.0220   68.1770   66.9540 C   0  0  0  0  0  0  0  0  0  0  0  0
   -1.9650   67.3770   67.6200 C   0  0  0  0  0  0  0  0  0  0  0  0
   -3.3270   67.4890   67.3330 C   0  0  0  0  0  0  0  0  0  0  0  0
    3.2132   69.4125   68.4070 H   0  0  0  0  0  0  0  0  0  0  0  0
    4.7143   70.5924   69.9958 H   0  0  0  0  0  0  0  0  0  0  0  0
    6.8669   71.5572   69.1942 H   0  0  0  0  0  0  0  0  0  0  0  0
    7.5016   71.3531   66.7968 H   0  0  0  0  0  0  0  0  0  0  0  0
    7.0367   70.5888   64.5534 H   0  0  0  0  0  0  0  0  0  0  0  0
    2.2914   67.8498   63.6442 H   0  0  0  0  0  0  0  0  0  0  0  0
    3.0274   67.7273   61.2745 H   0  0  0  0  0  0  0  0  0  0  0  0
    5.2043   68.7330   60.5919 H   0  0  0  0  0  0  0  0  0  0  0  0
    6.6300   69.8671   62.2854 H   0  0  0  0  0  0  0  0  0  0  0  0
    0.4849   68.0625   68.3316 H   0  0  0  0  0  0  0  0  0  0  0  0
    0.5657   65.9373   66.6160 H   0  0  0  0  0  0  0  0  0  0  0  0
    1.5705   69.9313   67.3598 H   0  0  0  0  0  0  0  0  0  0  0  0
    0.7935   69.7570   65.8320 H   0  0  0  0  0  0  0  0  0  0  0  0
   -3.1820   69.9142   64.9347 H   0  0  0  0  0  0  0  0  0  0  0  0
   -0.7500   69.7095   65.4417 H   0  0  0  0  0  0  0  0  0  0  0  0
   -1.6266   66.6537   68.3766 H   0  0  0  0  0  0  0  0  0  0  0  0
   -4.0570   66.8606   67.8642 H   0  0  0  0  0  0  0  0  0  0  0  0
  2  1  1  0
  3  2  2  0
  4  3  1  0
  5  4  2  0
  6  5  1  0
  7  2  1  0
  7  6  2  0
  8  7  1  0
  9  8  2  0
 10  9  1  0
 10  1  2  0
 11 10  1  0
 12 11  2  0
 13 12  1  0
 14 13  2  0
 14  9  1  0
 16 15  1  0
 17 16  1  0
 18 17  2  0
 18  1  1  0
 19 18  1  0
 19 15  1  0
 21 20  1  0
 22 21  2  0
 23 22  1  0
 24 23  2  0
 24 15  1  0
 25 24  1  0
 26 21  1  0
 26 25  2  0
  3 27  1  0
  4 28  1  0
  5 29  1  0
  6 30  1  0
  8 31  1  0
 11 32  1  0
 12 33  1  0
 13 34  1  0
 14 35  1  0
 15 36  1  1
 16 37  1  0
 19 38  1  0
 19 39  1  0
 22 40  1  0
 23 41  1  0
 25 42  1  0
 26 43  1  0
M  END
>  <score>  (6) 
-10.458

$$$$
=
     RDKit          3D

 43 47  0  0  0  0  0  0  0  0999 V2000
    1.8560   62.6590   72.2960 C   0  0  0  0  0  0  0  0  0  0  0  0
    3.1110   62.0650   72.0020 C   0  0  0  0  0  0  0  0  0  0  0  0
    3.6120   60.9000   72.6340 C   0  0  0  0  0  0  0  0  0  0  0  0
    4.8530   60.3590   72.2940 C   0  0  0  0  0  0  0  0  0  0  0  0
    5.6270   60.9690   71.3160 C   0  0  0  0  0  0  0  0  0  0  0  0
    5.1620   62.1220   70.6850 C   0  0  0  0  0  0  0  0  0  0  0  0
    3.9150   62.6780   71.0180 C   0  0  0  0  0  0  0  0  0  0  0  0
    3.4630   63.8430   70.3770 C   0  0  0  0  0  0  0  0  0  0  0  0
    2.2270   64.4340   70.6880 C   0  0  0  0  0  0  0  0  0  0  0  0
    1.3980   63.8470   71.6670 C   0  0  0  0  0  0  0  0  0  0  0  0
    0.1660   64.4830   71.9600 C   0  0  0  0  0  0  0  0  0  0  0  0
   -0.2320   65.6460   71.2980 C   0  0  0  0  0  0  0  0  0  0  0  0
    0.5910   66.2050   70.3290 C   0  0  0  0  0  0  0  0  0  0  0  0
    1.8110   65.6030   70.0280 C   0  0  0  0  0  0  0  0  0  0  0  0
   -0.8090   60.7510   74.0280 C   0  0  1  0  0  0  0  0  0  0  0  0
   -0.0060   61.4000   75.0550 N   0  0  0  0  0  0  0  0  0  0  0  0
    0.9180   62.2560   74.5190 N   0  0  0  0  0  0  0  0  0  0  0  0
    0.9660   61.9830   73.2500 C   0  0  0  0  0  0  0  0  0  0  0  0
    0.0460   60.8930   72.7750 C   0  0  0  0  0  0  0  0  0  0  0  0
   -2.1200   55.0220   75.4000 Cl  0  0  0  0  0  0  0  0  0  0  0  0
   -1.7550   56.6570   75.0070 C   0  0  0  0  0  0  0  0  0  0  0  0
   -0.6230   56.9510   74.2510 C   0  0  0  0  0  0  0  0  0  0  0  0
   -0.3260   58.2790   73.9320 C   0  0  0  0  0  0  0  0  0  0  0  0
   -1.1620   59.3220   74.3600 C   0  0  0  0  0  0  0  0  0  0  0  0
   -2.2950   59.0050   75.1290 C   0  0  0  0  0  0  0  0  0  0  0  0
   -2.5920   57.6790   75.4490 C   0  0  0  0  0  0  0  0  0  0  0  0
    3.0081   60.4098   73.4118 H   0  0  0  0  0  0  0  0  0  0  0  0
    5.2166   59.4522   72.7994 H   0  0  0  0  0  0  0  0  0  0  0  0
    6.6034   60.5442   71.0400 H   0  0  0  0  0  0  0  0  0  0  0  0
    5.7811   62.6042   69.9142 H   0  0  0  0  0  0  0  0  0  0  0  0
    4.0968   64.3074   69.6071 H   0  0  0  0  0  0  0  0  0  0  0  0
   -0.4925   64.0500   72.7274 H   0  0  0  0  0  0  0  0  0  0  0  0
   -1.1947   66.1182   71.5432 H   0  0  0  0  0  0  0  0  0  0  0  0
    0.2810   67.1191   69.8014 H   0  0  0  0  0  0  0  0  0  0  0  0
    2.4597   66.0504   69.2606 H   0  0  0  0  0  0  0  0  0  0  0  0
   -1.8010   61.2118   73.9119 H   0  0  0  0  0  0  0  0  0  0  0  0
   -0.1198   61.2345   76.0652 H   0  0  0  0  0  0  0  0  0  0  0  0
   -0.5473   61.2034   71.9023 H   0  0  0  0  0  0  0  0  0  0  0  0
    0.5380   59.9725   72.4276 H   0  0  0  0  0  0  0  0  0  0  0  0
    0.0356   56.1403   73.9059 H   0  0  0  0  0  0  0  0  0  0  0  0
    0.5719   58.5090   73.3396 H   0  0  0  0  0  0  0  0  0  0  0  0
   -2.9551   59.8108   75.4826 H   0  0  0  0  0  0  0  0  0  0  0  0
   -3.4837   57.4421   76.0480 H   0  0  0  0  0  0  0  0  0  0  0  0
  2  1  1  0
  3  2  2  0
  4  3  1  0
  5  4  2  0
  6  5  1  0
  7  2  1  0
  7  6  2  0
  8  7  1  0
  9  8  2  0
 10  9  1  0
 10  1  2  0
 11 10  1  0
 12 11  2  0
 13 12  1  0
 14 13  2  0
 14  9  1  0
 16 15  1  0
 17 16  1  0
 18 17  2  0
 18  1  1  0
 19 18  1  0
 19 15  1  0
 21 20  1  0
 22 21  2  0
 23 22  1  0
 24 23  2  0
 24 15  1  0
 25 24  1  0
 26 21  1  0
 26 25  2  0
  3 27  1  0
  4 28  1  0
  5 29  1  0
  6 30  1  0
  8 31  1  0
 11 32  1  0
 12 33  1  0
 13 34  1  0
 14 35  1  0
 15 36  1  6
 16 37  1  0
 19 38  1  0
 19 39  1  0
 22 40  1  0
 23 41  1  0
 25 42  1  0
 26 43  1  0
M  END
>  <score>  (7) 
-10.129

$$$$
=
     RDKit          3D

 43 47  0  0  0  0  0  0  0  0999 V2000
    3.7620   68.9130   65.7280 C   0  0  0  0  0  0  0  0  0  0  0  0
    4.1000   68.7970   64.3540 C   0  0  0  0  0  0  0  0  0  0  0  0
    3.3640   68.0370   63.4110 C   0  0  0  0  0  0  0  0  0  0  0  0
    3.7440   67.9700   62.0700 C   0  0  0  0  0  0  0  0  0  0  0  0
    4.8700   68.6560   61.6360 C   0  0  0  0  0  0  0  0  0  0  0  0
    5.6180   69.4040   62.5450 C   0  0  0  0  0  0  0  0  0  0  0  0
    5.2480   69.4800   63.8990 C   0  0  0  0  0  0  0  0  0  0  0  0
    6.0140   70.2320   64.8030 C   0  0  0  0  0  0  0  0  0  0  0  0
    5.6820   70.3270   66.1640 C   0  0  0  0  0  0  0  0  0  0  0  0
    4.5420   69.6570   66.6540 C   0  0  0  0  0  0  0  0  0  0  0  0
    4.2510   69.7670   68.0360 C   0  0  0  0  0  0  0  0  0  0  0  0
    5.0520   70.5220   68.8940 C   0  0  0  0  0  0  0  0  0  0  0  0
    6.1650   71.1850   68.3940 C   0  0  0  0  0  0  0  0  0  0  0  0
    6.4780   71.0860   67.0400 C   0  0  0  0  0  0  0  0  0  0  0  0
    0.4910   68.0670   67.2530 C   0  0  1  0  0  0  0  0  0  0  0  0
    1.0630   66.8290   66.7410 N   0  0  0  0  0  0  0  0  0  0  0  0
    2.3430   67.0020   66.2910 N   0  0  0  0  0  0  0  0  0  0  0  0
    2.5210   68.2850   66.2000 C   0  0  0  0  0  0  0  0  0  0  0  0
    1.3530   69.1430   66.6030 C   0  0  0  0  0  0  0  0  0  0  0  0
   -5.3780   68.6210   65.9640 Cl  0  0  0  0  0  0  0  0  0  0  0  0
   -3.7070   68.4630   66.3410 C   0  0  0  0  0  0  0  0  0  0  0  0
   -2.7610   69.1720   65.6040 C   0  0  0  0  0  0  0  0  0  0  0  0
   -1.4040   69.0440   65.9090 C   0  0  0  0  0  0  0  0  0  0  0  0
   -0.9810   68.2120   66.9570 C   0  0  0  0  0  0  0  0  0  0  0  0
   -1.9500   67.4990   67.6840 C   0  0  0  0  0  0  0  0  0  0  0  0
   -3.3070   67.6260   67.3800 C   0  0  0  0  0  0  0  0  0  0  0  0
    2.4717   67.4867   63.7442 H   0  0  0  0  0  0  0  0  0  0  0  0
    3.1527   67.3750   61.3585 H   0  0  0  0  0  0  0  0  0  0  0  0
    5.1713   68.6099   60.5791 H   0  0  0  0  0  0  0  0  0  0  0  0
    6.5115   69.9429   62.1969 H   0  0  0  0  0  0  0  0  0  0  0  0
    6.9030   70.7641   64.4335 H   0  0  0  0  0  0  0  0  0  0  0  0
    3.3725   69.2447   68.4427 H   0  0  0  0  0  0  0  0  0  0  0  0
    4.8024   70.5917   69.9630 H   0  0  0  0  0  0  0  0  0  0  0  0
    6.7970   71.7860   69.0643 H   0  0  0  0  0  0  0  0  0  0  0  0
    7.3627   71.6104   66.6497 H   0  0  0  0  0  0  0  0  0  0  0  0
    0.5109   68.1209   68.3515 H   0  0  0  0  0  0  0  0  0  0  0  0
    0.5624   65.9291   66.7203 H   0  0  0  0  0  0  0  0  0  0  0  0
    1.6430   69.9281   67.3168 H   0  0  0  0  0  0  0  0  0  0  0  0
    0.8752   69.7094   65.7901 H   0  0  0  0  0  0  0  0  0  0  0  0
   -3.0820   69.8310   64.7838 H   0  0  0  0  0  0  0  0  0  0  0  0
   -0.6592   69.6011   65.3217 H   0  0  0  0  0  0  0  0  0  0  0  0
   -1.6358   66.8335   68.5016 H   0  0  0  0  0  0  0  0  0  0  0  0
   -4.0571   67.0672   67.9588 H   0  0  0  0  0  0  0  0  0  0  0  0
  2  1  1  0
  3  2  2  0
  4  3  1  0
  5  4  2  0
  6  5  1  0
  7  2  1  0
  7  6  2  0
  8  7  1  0
  9  8  2  0
 10  9  1  0
 10  1  2  0
 11 10  1  0
 12 11  2  0
 13 12  1  0
 14 13  2  0
 14  9  1  0
 16 15  1  0
 17 16  1  0
 18 17  2  0
 18  1  1  0
 19 18  1  0
 19 15  1  0
 21 20  1  0
 22 21  2  0
 23 22  1  0
 24 23  2  0
 24 15  1  0
 25 24  1  0
 26 21  1  0
 26 25  2  0
  3 27  1  0
  4 28  1  0
  5 29  1  0
  6 30  1  0
  8 31  1  0
 11 32  1  0
 12 33  1  0
 13 34  1  0
 14 35  1  0
 15 36  1  1
 16 37  1  0
 19 38  1  0
 19 39  1  0
 22 40  1  0
 23 41  1  0
 25 42  1  0
 26 43  1  0
M  END
>  <score>  (8) 
-9.99

$$$$
=
     RDKit          3D

 43 47  0  0  0  0  0  0  0  0999 V2000
    0.5470   67.5730   67.5780 C   0  0  0  0  0  0  0  0  0  0  0  0
    0.6020   66.6630   68.6650 C   0  0  0  0  0  0  0  0  0  0  0  0
    1.7980   66.2560   69.3070 C   0  0  0  0  0  0  0  0  0  0  0  0
    1.7840   65.3630   70.3790 C   0  0  0  0  0  0  0  0  0  0  0  0
    0.5780   64.8500   70.8360 C   0  0  0  0  0  0  0  0  0  0  0  0
   -0.6130   65.2260   70.2160 C   0  0  0  0  0  0  0  0  0  0  0  0
   -0.6150   66.1240   69.1350 C   0  0  0  0  0  0  0  0  0  0  0  0
   -1.8220   66.4900   68.5170 C   0  0  0  0  0  0  0  0  0  0  0  0
   -1.8640   67.3780   67.4300 C   0  0  0  0  0  0  0  0  0  0  0  0
   -0.6670   67.9340   66.9340 C   0  0  0  0  0  0  0  0  0  0  0  0
   -0.7540   68.8140   65.8270 C   0  0  0  0  0  0  0  0  0  0  0  0
   -1.9800   69.1380   65.2450 C   0  0  0  0  0  0  0  0  0  0  0  0
   -3.1510   68.5890   65.7510 C   0  0  0  0  0  0  0  0  0  0  0  0
   -3.0920   67.7150   66.8340 C   0  0  0  0  0  0  0  0  0  0  0  0
    3.4170   69.8220   66.9110 C   0  0  1  0  0  0  0  0  0  0  0  0
    3.5690   68.6600   66.0470 N   0  0  0  0  0  0  0  0  0  0  0  0
    2.4800   67.8330   66.1020 N   0  0  0  0  0  0  0  0  0  0  0  0
    1.7930   68.2140   67.1350 C   0  0  0  0  0  0  0  0  0  0  0  0
    2.3500   69.3800   67.9050 C   0  0  0  0  0  0  0  0  0  0  0  0
    8.5630   71.4760   69.5960 Cl  0  0  0  0  0  0  0  0  0  0  0  0
    7.0990   71.0100   68.8230 C   0  0  0  0  0  0  0  0  0  0  0  0
    5.9080   70.9980   69.5450 C   0  0  0  0  0  0  0  0  0  0  0  0
    4.7180   70.6190   68.9180 C   0  0  0  0  0  0  0  0  0  0  0  0
    4.7080   70.2540   67.5630 C   0  0  0  0  0  0  0  0  0  0  0  0
    5.9210   70.2640   66.8540 C   0  0  0  0  0  0  0  0  0  0  0  0
    7.1110   70.6430   67.4790 C   0  0  0  0  0  0  0  0  0  0  0  0
    2.7602   66.6535   68.9518 H   0  0  0  0  0  0  0  0  0  0  0  0
    2.7271   65.0661   70.8611 H   0  0  0  0  0  0  0  0  0  0  0  0
    0.5618   64.1495   71.6840 H   0  0  0  0  0  0  0  0  0  0  0  0
   -1.5659   64.8133   70.5787 H   0  0  0  0  0  0  0  0  0  0  0  0
   -2.7642   66.0677   68.8965 H   0  0  0  0  0  0  0  0  0  0  0  0
    0.1675   69.2525   65.4164 H   0  0  0  0  0  0  0  0  0  0  0  0
   -2.0189   69.8263   64.3878 H   0  0  0  0  0  0  0  0  0  0  0  0
   -4.1209   68.8432   65.2985 H   0  0  0  0  0  0  0  0  0  0  0  0
   -4.0221   67.2810   67.2297 H   0  0  0  0  0  0  0  0  0  0  0  0
    3.1244   70.7264   66.3574 H   0  0  0  0  0  0  0  0  0  0  0  0
    4.3985   68.4814   65.4631 H   0  0  0  0  0  0  0  0  0  0  0  0
    1.5950   70.1614   68.0766 H   0  0  0  0  0  0  0  0  0  0  0  0
    2.7088   69.1533   68.9198 H   0  0  0  0  0  0  0  0  0  0  0  0
    5.9041   71.2863   70.6066 H   0  0  0  0  0  0  0  0  0  0  0  0
    3.7799   70.6067   69.4922 H   0  0  0  0  0  0  0  0  0  0  0  0
    5.9335   69.9698   65.7941 H   0  0  0  0  0  0  0  0  0  0  0  0
    8.0539   70.6517   66.9125 H   0  0  0  0  0  0  0  0  0  0  0  0
  2  1  1  0
  3  2  2  0
  4  3  1  0
  5  4  2  0
  6  5  1  0
  7  2  1  0
  7  6  2  0
  8  7  1  0
  9  8  2  0
 10  9  1  0
 10  1  2  0
 11 10  1  0
 12 11  2  0
 13 12  1  0
 14 13  2  0
 14  9  1  0
 16 15  1  0
 17 16  1  0
 18 17  2  0
 18  1  1  0
 19 18  1  0
 19 15  1  0
 21 20  1  0
 22 21  2  0
 23 22  1  0
 24 23  2  0
 24 15  1  0
 25 24  1  0
 26 21  1  0
 26 25  2  0
  3 27  1  0
  4 28  1  0
  5 29  1  0
  6 30  1  0
  8 31  1  0
 11 32  1  0
 12 33  1  0
 13 34  1  0
 14 35  1  0
 15 36  1  6
 16 37  1  0
 19 38  1  0
 19 39  1  0
 22 40  1  0
 23 41  1  0
 25 42  1  0
 26 43  1  0
M  END
>  <score>  (9) 
-9.957

$$$$
