=
     RDKit          3D

 62 61  0  0  0  0  0  0  0  0999 V2000
    6.2900   70.2090   67.5440 C   0  0  0  0  0  0  0  0  0  0  0  0
    5.6660   71.1700   68.5620 C   0  0  0  0  0  0  0  0  0  0  0  0
    4.6430   70.5000   69.4830 C   0  0  0  0  0  0  0  0  0  0  0  0
    3.2320   70.5910   68.8970 C   0  0  0  0  0  0  0  0  0  0  0  0
    2.9610   69.5570   67.8000 C   0  0  0  0  0  0  0  0  0  0  0  0
    1.5550   68.9540   67.8660 C   0  0  0  0  0  0  0  0  0  0  0  0
    1.4680   67.6690   67.0370 C   0  0  0  0  0  0  0  0  0  0  0  0
    0.0330   67.2820   66.6630 C   0  0  0  0  0  0  0  0  0  0  0  0
   -1.0720   68.1880   67.2140 C   0  0  0  0  0  0  0  0  0  0  0  0
   -1.6930   69.1050   66.1550 C   0  0  0  0  0  0  0  0  0  0  0  0
   -3.1400   68.7330   65.8520 C   0  0  0  0  0  0  0  0  0  0  0  0
   -3.7620   68.2130   67.0180 O   0  0  0  0  0  0  0  0  0  0  0  0
    5.9830   70.5070   66.0740 C   0  0  0  0  0  0  0  0  0  0  0  0
    5.6050   69.2980   65.2180 C   0  0  0  0  0  0  0  0  0  0  0  0
    5.5700   69.5950   63.7210 C   0  0  0  0  0  0  0  0  0  0  0  0
    5.7510   68.3800   62.9770 O   0  0  0  0  0  0  0  0  0  0  0  0
    4.6160   67.7780   62.5460 C   0  0  0  0  0  0  0  0  0  0  0  0
    4.5040   66.5980   62.2490 O   0  0  0  0  0  0  0  0  0  0  0  0
    3.6170   68.7020   62.5050 N   0  0  0  0  0  0  0  0  0  0  0  0
    2.2530   68.3680   62.1700 C   0  0  0  0  0  0  0  0  0  0  0  0
    1.2940   68.7290   63.3020 C   0  0  0  0  0  0  0  0  0  0  0  0
   -0.1040   69.0380   62.7680 C   0  0  0  0  0  0  0  0  0  0  0  0
   -0.0430   69.8700   61.4970 C   0  0  0  0  0  0  0  0  0  0  0  0
    7.3818   70.2410   67.6743 H   0  0  0  0  0  0  0  0  0  0  0  0
    5.8446   69.2244   67.7494 H   0  0  0  0  0  0  0  0  0  0  0  0
    6.4707   71.5911   69.1826 H   0  0  0  0  0  0  0  0  0  0  0  0
    5.1317   71.9445   67.9922 H   0  0  0  0  0  0  0  0  0  0  0  0
    4.9122   69.4409   69.6089 H   0  0  0  0  0  0  0  0  0  0  0  0
    4.6529   71.0191   70.4528 H   0  0  0  0  0  0  0  0  0  0  0  0
    2.5065   70.4360   69.7092 H   0  0  0  0  0  0  0  0  0  0  0  0
    3.1350   71.5855   68.4370 H   0  0  0  0  0  0  0  0  0  0  0  0
    3.0853   70.0454   66.8222 H   0  0  0  0  0  0  0  0  0  0  0  0
    3.6747   68.7330   67.9472 H   0  0  0  0  0  0  0  0  0  0  0  0
    1.3117   68.7231   68.9136 H   0  0  0  0  0  0  0  0  0  0  0  0
    0.8416   69.6840   67.4559 H   0  0  0  0  0  0  0  0  0  0  0  0
    2.0433   67.8122   66.1104 H   0  0  0  0  0  0  0  0  0  0  0  0
    1.8730   66.8550   67.6562 H   0  0  0  0  0  0  0  0  0  0  0  0
   -0.0422   67.2888   65.5656 H   0  0  0  0  0  0  0  0  0  0  0  0
   -0.1368   66.2958   67.1198 H   0  0  0  0  0  0  0  0  0  0  0  0
   -1.8660   67.5532   67.6341 H   0  0  0  0  0  0  0  0  0  0  0  0
   -0.6112   68.8360   67.9741 H   0  0  0  0  0  0  0  0  0  0  0  0
   -1.6625   70.1417   66.5215 H   0  0  0  0  0  0  0  0  0  0  0  0
   -1.1129   68.9926   65.2272 H   0  0  0  0  0  0  0  0  0  0  0  0
   -3.6840   69.6286   65.5175 H   0  0  0  0  0  0  0  0  0  0  0  0
   -3.1584   67.9685   65.0613 H   0  0  0  0  0  0  0  0  0  0  0  0
   -3.3186   68.5837   67.8218 H   0  0  0  0  0  0  0  0  0  0  0  0
    5.1456   71.2195   66.0412 H   0  0  0  0  0  0  0  0  0  0  0  0
    6.9177   70.8977   65.6454 H   0  0  0  0  0  0  0  0  0  0  0  0
    6.3419   68.5012   65.3972 H   0  0  0  0  0  0  0  0  0  0  0  0
    4.5873   69.0010   65.5114 H   0  0  0  0  0  0  0  0  0  0  0  0
    4.5989   70.0410   63.4603 H   0  0  0  0  0  0  0  0  0  0  0  0
    6.3802   70.2961   63.4720 H   0  0  0  0  0  0  0  0  0  0  0  0
    3.8444   69.6827   62.7226 H   0  0  0  0  0  0  0  0  0  0  0  0
    1.9617   68.9209   61.2648 H   0  0  0  0  0  0  0  0  0  0  0  0
    2.1950   67.2825   62.0017 H   0  0  0  0  0  0  0  0  0  0  0  0
    1.2312   67.8828   64.0020 H   0  0  0  0  0  0  0  0  0  0  0  0
    1.6780   69.6262   63.8095 H   0  0  0  0  0  0  0  0  0  0  0  0
   -0.6212   68.0917   62.5514 H   0  0  0  0  0  0  0  0  0  0  0  0
   -0.6461   69.6142   63.5323 H   0  0  0  0  0  0  0  0  0  0  0  0
    0.0351   70.9354   61.7595 H   0  0  0  0  0  0  0  0  0  0  0  0
    0.8358   69.5726   60.9059 H   0  0  0  0  0  0  0  0  0  0  0  0
   -0.9557   69.7040   60.9059 H   0  0  0  0  0  0  0  0  0  0  0  0
  2  1  1  0
  3  2  1  0
  4  3  1  0
  5  4  1  0
  6  5  1  0
  7  6  1  0
  8  7  1  0
  9  8  1  0
 10  9  1  0
 11 10  1  0
 12 11  1  0
 13  1  1  0
 14 13  1  0
 15 14  1  0
 16 15  1  0
 17 16  1  0
 18 17  2  0
 19 17  1  0
 20 19  1  0
 21 20  1  0
 22 21  1  0
 23 22  1  0
  1 24  1  0
  1 25  1  0
  2 26  1  0
  2 27  1  0
  3 28  1  0
  3 29  1  0
  4 30  1  0
  4 31  1  0
  5 32  1  0
  5 33  1  0
  6 34  1  0
  6 35  1  0
  7 36  1  0
  7 37  1  0
  8 38  1  0
  8 39  1  0
  9 40  1  0
  9 41  1  0
 10 42  1  0
 10 43  1  0
 11 44  1  0
 11 45  1  0
 12 46  1  0
 13 47  1  0
 13 48  1  0
 14 49  1  0
 14 50  1  0
 15 51  1  0
 15 52  1  0
 19 53  1  0
 20 54  1  0
 20 55  1  0
 21 56  1  0
 21 57  1  0
 22 58  1  0
 22 59  1  0
 23 60  1  0
 23 61  1  0
 23 62  1  0
M  END
>  <score>  (1) 
-6.993

$$$$
=
     RDKit          3D

 62 61  0  0  0  0  0  0  0  0999 V2000
    0.0730   68.3320   65.4250 C   0  0  0  0  0  0  0  0  0  0  0  0
    0.0400   69.0650   64.0790 C   0  0  0  0  0  0  0  0  0  0  0  0
    0.8100   68.3400   62.9730 C   0  0  0  0  0  0  0  0  0  0  0  0
    2.1420   69.0370   62.6820 C   0  0  0  0  0  0  0  0  0  0  0  0
    3.3480   68.3310   63.3070 C   0  0  0  0  0  0  0  0  0  0  0  0
    4.6640   69.0890   63.1140 C   0  0  0  0  0  0  0  0  0  0  0  0
    5.2490   69.5270   64.4600 C   0  0  0  0  0  0  0  0  0  0  0  0
    4.3170   69.2600   65.6460 C   0  0  0  0  0  0  0  0  0  0  0  0
    4.6950   69.9440   66.9640 C   0  0  0  0  0  0  0  0  0  0  0  0
    6.1500   70.4250   67.0040 C   0  0  0  0  0  0  0  0  0  0  0  0
    6.4270   71.3130   68.2120 C   0  0  0  0  0  0  0  0  0  0  0  0
    5.7870   72.5710   68.0460 O   0  0  0  0  0  0  0  0  0  0  0  0
    1.0590   68.8840   66.4580 C   0  0  0  0  0  0  0  0  0  0  0  0
    0.7190   68.5900   67.9200 C   0  0  0  0  0  0  0  0  0  0  0  0
    1.1410   67.1960   68.3770 C   0  0  0  0  0  0  0  0  0  0  0  0
    0.0790   66.5860   69.1280 O   0  0  0  0  0  0  0  0  0  0  0  0
    0.4600   65.8900   70.2280 C   0  0  0  0  0  0  0  0  0  0  0  0
   -0.0280   65.9990   71.3420 O   0  0  0  0  0  0  0  0  0  0  0  0
    1.4720   65.0470   69.8860 N   0  0  0  0  0  0  0  0  0  0  0  0
    2.0490   64.1000   70.8100 C   0  0  0  0  0  0  0  0  0  0  0  0
    3.4920   63.7640   70.4410 C   0  0  0  0  0  0  0  0  0  0  0  0
    3.5620   62.9710   69.1370 C   0  0  0  0  0  0  0  0  0  0  0  0
    3.0710   61.5450   69.3250 C   0  0  0  0  0  0  0  0  0  0  0  0
   -0.9357   68.3806   65.8610 H   0  0  0  0  0  0  0  0  0  0  0  0
    0.4138   67.3103   65.2015 H   0  0  0  0  0  0  0  0  0  0  0  0
   -1.0088   69.1680   63.7637 H   0  0  0  0  0  0  0  0  0  0  0  0
    0.5270   70.0400   64.2282 H   0  0  0  0  0  0  0  0  0  0  0  0
    1.0075   67.3057   63.2912 H   0  0  0  0  0  0  0  0  0  0  0  0
    0.2012   68.3526   62.0569 H   0  0  0  0  0  0  0  0  0  0  0  0
    2.2856   69.0731   61.5920 H   0  0  0  0  0  0  0  0  0  0  0  0
    2.0869   70.0410   63.1281 H   0  0  0  0  0  0  0  0  0  0  0  0
    3.1655   68.2185   64.3859 H   0  0  0  0  0  0  0  0  0  0  0  0
    3.4549   67.3608   62.7998 H   0  0  0  0  0  0  0  0  0  0  0  0
    5.3854   68.4330   62.6049 H   0  0  0  0  0  0  0  0  0  0  0  0
    4.4655   69.9866   62.5100 H   0  0  0  0  0  0  0  0  0  0  0  0
    6.1891   68.9804   64.6257 H   0  0  0  0  0  0  0  0  0  0  0  0
    5.4033   70.6149   64.4076 H   0  0  0  0  0  0  0  0  0  0  0  0
    3.3096   69.6019   65.3661 H   0  0  0  0  0  0  0  0  0  0  0  0
    4.3874   68.1798   65.8414 H   0  0  0  0  0  0  0  0  0  0  0  0
    4.0362   70.8132   67.1074 H   0  0  0  0  0  0  0  0  0  0  0  0
    4.5774   69.1973   67.7631 H   0  0  0  0  0  0  0  0  0  0  0  0
    6.8125   69.5480   67.0490 H   0  0  0  0  0  0  0  0  0  0  0  0
    6.3357   71.0190   66.0970 H   0  0  0  0  0  0  0  0  0  0  0  0
    6.0415   70.8248   69.1193 H   0  0  0  0  0  0  0  0  0  0  0  0
    7.5119   71.4687   68.3051 H   0  0  0  0  0  0  0  0  0  0  0  0
    5.5890   72.9603   68.9344 H   0  0  0  0  0  0  0  0  0  0  0  0
    2.0479   68.4509   66.2469 H   0  0  0  0  0  0  0  0  0  0  0  0
    1.0212   69.9785   66.3548 H   0  0  0  0  0  0  0  0  0  0  0  0
    1.2289   69.3323   68.5517 H   0  0  0  0  0  0  0  0  0  0  0  0
   -0.3758   68.6425   68.0135 H   0  0  0  0  0  0  0  0  0  0  0  0
    1.3679   66.5766   67.4968 H   0  0  0  0  0  0  0  0  0  0  0  0
    2.0343   67.2782   69.0136 H   0  0  0  0  0  0  0  0  0  0  0  0
    1.8425   65.0864   68.9257 H   0  0  0  0  0  0  0  0  0  0  0  0
    2.0302   64.5313   71.8217 H   0  0  0  0  0  0  0  0  0  0  0  0
    1.4579   63.1733   70.7675 H   0  0  0  0  0  0  0  0  0  0  0  0
    4.0584   64.6994   70.3222 H   0  0  0  0  0  0  0  0  0  0  0  0
    3.9212   63.1481   71.2450 H   0  0  0  0  0  0  0  0  0  0  0  0
    2.9351   63.4683   68.3822 H   0  0  0  0  0  0  0  0  0  0  0  0
    4.6121   62.9343   68.8115 H   0  0  0  0  0  0  0  0  0  0  0  0
    2.9943   61.3223   70.3995 H   0  0  0  0  0  0  0  0  0  0  0  0
    2.0824   61.4327   68.8558 H   0  0  0  0  0  0  0  0  0  0  0  0
    3.7809   60.8479   68.8558 H   0  0  0  0  0  0  0  0  0  0  0  0
  2  1  1  0
  3  2  1  0
  4  3  1  0
  5  4  1  0
  6  5  1  0
  7  6  1  0
  8  7  1  0
  9  8  1  0
 10  9  1  0
 11 10  1  0
 12 11  1  0
 13  1  1  0
 14 13  1  0
 15 14  1  0
 16 15  1  0
 17 16  1  0
 18 17  2  0
 19 17  1  0
 20 19  1  0
 21 20  1  0
 22 21  1  0
 23 22  1  0
  1 24  1  0
  1 25  1  0
  2 26  1  0
  2 27  1  0
  3 28  1  0
  3 29  1  0
  4 30  1  0
  4 31  1  0
  5 32  1  0
  5 33  1  0
  6 34  1  0
  6 35  1  0
  7 36  1  0
  7 37  1  0
  8 38  1  0
  8 39  1  0
  9 40  1  0
  9 41  1  0
 10 42  1  0
 10 43  1  0
 11 44  1  0
 11 45  1  0
 12 46  1  0
 13 47  1  0
 13 48  1  0
 14 49  1  0
 14 50  1  0
 15 51  1  0
 15 52  1  0
 19 53  1  0
 20 54  1  0
 20 55  1  0
 21 56  1  0
 21 57  1  0
 22 58  1  0
 22 59  1  0
 23 60  1  0
 23 61  1  0
 23 62  1  0
M  END
>  <score>  (2) 
-6.888

$$$$
=
     RDKit          3D

 62 61  0  0  0  0  0  0  0  0999 V2000
    6.3390   69.9650   67.4300 C   0  0  0  0  0  0  0  0  0  0  0  0
    6.4010   71.1700   68.3740 C   0  0  0  0  0  0  0  0  0  0  0  0
    5.0210   71.6800   68.8010 C   0  0  0  0  0  0  0  0  0  0  0  0
    4.1480   70.5340   69.3180 C   0  0  0  0  0  0  0  0  0  0  0  0
    2.7590   70.4900   68.6750 C   0  0  0  0  0  0  0  0  0  0  0  0
    2.4140   69.1290   68.0640 C   0  0  0  0  0  0  0  0  0  0  0  0
    0.9300   69.0510   67.6940 C   0  0  0  0  0  0  0  0  0  0  0  0
    0.2280   67.8080   68.2490 C   0  0  0  0  0  0  0  0  0  0  0  0
    1.0900   66.8800   69.1110 C   0  0  0  0  0  0  0  0  0  0  0  0
    0.2970   66.1530   70.2030 C   0  0  0  0  0  0  0  0  0  0  0  0
    0.9710   64.8540   70.6320 C   0  0  0  0  0  0  0  0  0  0  0  0
    0.3860   63.7540   69.9480 O   0  0  0  0  0  0  0  0  0  0  0  0
    5.6170   70.2000   66.1000 C   0  0  0  0  0  0  0  0  0  0  0  0
    5.6830   69.0460   65.0980 C   0  0  0  0  0  0  0  0  0  0  0  0
    5.3830   69.4660   63.6610 C   0  0  0  0  0  0  0  0  0  0  0  0
    5.5400   68.3420   62.7810 O   0  0  0  0  0  0  0  0  0  0  0  0
    4.3980   67.8550   62.2380 C   0  0  0  0  0  0  0  0  0  0  0  0
    4.2490   66.7310   61.7840 O   0  0  0  0  0  0  0  0  0  0  0  0
    3.4410   68.8220   62.2870 N   0  0  0  0  0  0  0  0  0  0  0  0
    2.0780   68.5980   61.8670 C   0  0  0  0  0  0  0  0  0  0  0  0
    1.0890   68.9010   62.9900 C   0  0  0  0  0  0  0  0  0  0  0  0
    1.6930   68.5980   64.3600 C   0  0  0  0  0  0  0  0  0  0  0  0
    1.6690   67.1090   64.6630 C   0  0  0  0  0  0  0  0  0  0  0  0
    7.3712   69.6586   67.2047 H   0  0  0  0  0  0  0  0  0  0  0  0
    5.7520   69.1996   67.9588 H   0  0  0  0  0  0  0  0  0  0  0  0
    6.9592   70.8781   69.2758 H   0  0  0  0  0  0  0  0  0  0  0  0
    6.8938   71.9867   67.8261 H   0  0  0  0  0  0  0  0  0  0  0  0
    5.1447   72.4263   69.5995 H   0  0  0  0  0  0  0  0  0  0  0  0
    4.5276   72.1291   67.9265 H   0  0  0  0  0  0  0  0  0  0  0  0
    4.6599   69.5834   69.1076 H   0  0  0  0  0  0  0  0  0  0  0  0
    4.0019   70.6978   70.3959 H   0  0  0  0  0  0  0  0  0  0  0  0
    2.0105   70.7259   69.4457 H   0  0  0  0  0  0  0  0  0  0  0  0
    2.7575   71.2235   67.8552 H   0  0  0  0  0  0  0  0  0  0  0  0
    3.0187   68.9785   67.1575 H   0  0  0  0  0  0  0  0  0  0  0  0
    2.6303   68.3474   68.8072 H   0  0  0  0  0  0  0  0  0  0  0  0
    0.4244   69.9434   68.0915 H   0  0  0  0  0  0  0  0  0  0  0  0
    0.8720   68.9935   66.5970 H   0  0  0  0  0  0  0  0  0  0  0  0
   -0.6202   68.1460   68.8625 H   0  0  0  0  0  0  0  0  0  0  0  0
   -0.0617   67.2131   67.3702 H   0  0  0  0  0  0  0  0  0  0  0  0
    1.5534   66.1269   68.4567 H   0  0  0  0  0  0  0  0  0  0  0  0
    1.8381   67.5083   69.6166 H   0  0  0  0  0  0  0  0  0  0  0  0
    0.2105   66.8137   71.0782 H   0  0  0  0  0  0  0  0  0  0  0  0
   -0.6926   65.9023   69.7933 H   0  0  0  0  0  0  0  0  0  0  0  0
    2.0434   64.9035   70.3921 H   0  0  0  0  0  0  0  0  0  0  0  0
    0.8369   64.7183   71.7153 H   0  0  0  0  0  0  0  0  0  0  0  0
    0.0393   63.1020   70.6074 H   0  0  0  0  0  0  0  0  0  0  0  0
    4.5574   70.3963   66.3205 H   0  0  0  0  0  0  0  0  0  0  0  0
    6.1360   71.0435   65.6214 H   0  0  0  0  0  0  0  0  0  0  0  0
    6.6945   68.6149   65.1303 H   0  0  0  0  0  0  0  0  0  0  0  0
    4.9094   68.3206   65.3901 H   0  0  0  0  0  0  0  0  0  0  0  0
    4.3495   69.8374   63.5976 H   0  0  0  0  0  0  0  0  0  0  0  0
    6.0824   70.2607   63.3622 H   0  0  0  0  0  0  0  0  0  0  0  0
    3.7008   69.7544   62.6392 H   0  0  0  0  0  0  0  0  0  0  0  0
    1.8563   69.2508   61.0098 H   0  0  0  0  0  0  0  0  0  0  0  0
    1.9719   67.5386   61.5905 H   0  0  0  0  0  0  0  0  0  0  0  0
    0.8138   69.9652   62.9474 H   0  0  0  0  0  0  0  0  0  0  0  0
    0.2031   68.2635   62.8531 H   0  0  0  0  0  0  0  0  0  0  0  0
    2.7353   68.9493   64.3766 H   0  0  0  0  0  0  0  0  0  0  0  0
    1.0930   69.1150   65.1234 H   0  0  0  0  0  0  0  0  0  0  0  0
    1.6665   66.9565   65.7524 H   0  0  0  0  0  0  0  0  0  0  0  0
    0.7635   66.6608   64.2280 H   0  0  0  0  0  0  0  0  0  0  0  0
    2.5596   66.6319   64.2280 H   0  0  0  0  0  0  0  0  0  0  0  0
  2  1  1  0
  3  2  1  0
  4  3  1  0
  5  4  1  0
  6  5  1  0
  7  6  1  0
  8  7  1  0
  9  8  1  0
 10  9  1  0
 11 10  1  0
 12 11  1  0
 13  1  1  0
 14 13  1  0
 15 14  1  0
 16 15  1  0
 17 16  1  0
 18 17  2  0
 19 17  1  0
 20 19  1  0
 21 20  1  0
 22 21  1  0
 23 22  1  0
  1 24  1  0
  1 25  1  0
  2 26  1  0
  2 27  1  0
  3 28  1  0
  3 29  1  0
  4 30  1  0
  4 31  1  0
  5 32  1  0
  5 33  1  0
  6 34  1  0
  6 35  1  0
  7 36  1  0
  7 37  1  0
  8 38  1  0
  8 39  1  0
  9 40  1  0
  9 41  1  0
 10 42  1  0
 10 43  1  0
 11 44  1  0
 11 45  1  0
 12 46  1  0
 13 47  1  0
 13 48  1  0
 14 49  1  0
 14 50  1  0
 15 51  1  0
 15 52  1  0
 19 53  1  0
 20 54  1  0
 20 55  1  0
 21 56  1  0
 21 57  1  0
 22 58  1  0
 22 59  1  0
 23 60  1  0
 23 61  1  0
 23 62  1  0
M  END
>  <score>  (3) 
-6.759

$$$$
=
     RDKit          3D

 62 61  0  0  0  0  0  0  0  0999 V2000
    2.0540   69.7770   68.0120 C   0  0  0  0  0  0  0  0  0  0  0  0
    3.0600   69.9310   69.1580 C   0  0  0  0  0  0  0  0  0  0  0  0
    4.0790   71.0500   68.9260 C   0  0  0  0  0  0  0  0  0  0  0  0
    5.4620   70.6530   69.4480 C   0  0  0  0  0  0  0  0  0  0  0  0
    6.5400   70.6360   68.3610 C   0  0  0  0  0  0  0  0  0  0  0  0
    6.0080   70.9890   66.9700 C   0  0  0  0  0  0  0  0  0  0  0  0
    5.9910   69.7590   66.0580 C   0  0  0  0  0  0  0  0  0  0  0  0
    4.6110   69.4590   65.4640 C   0  0  0  0  0  0  0  0  0  0  0  0
    4.6030   68.8450   64.0600 C   0  0  0  0  0  0  0  0  0  0  0  0
    3.7240   67.5960   63.9470 C   0  0  0  0  0  0  0  0  0  0  0  0
    4.5490   66.3280   63.7600 C   0  0  0  0  0  0  0  0  0  0  0  0
    4.2010   65.6980   62.5360 O   0  0  0  0  0  0  0  0  0  0  0  0
    1.7630   68.3390   67.5730 C   0  0  0  0  0  0  0  0  0  0  0  0
    0.6840   67.6080   68.3720 C   0  0  0  0  0  0  0  0  0  0  0  0
    1.2360   66.7820   69.5310 C   0  0  0  0  0  0  0  0  0  0  0  0
    0.2100   65.9230   70.0520 O   0  0  0  0  0  0  0  0  0  0  0  0
    0.6420   64.8290   70.7250 C   0  0  0  0  0  0  0  0  0  0  0  0
    0.3780   64.5560   71.8860 O   0  0  0  0  0  0  0  0  0  0  0  0
    1.4170   64.0800   69.8930 N   0  0  0  0  0  0  0  0  0  0  0  0
    1.9660   62.8000   70.2740 C   0  0  0  0  0  0  0  0  0  0  0  0
    3.1630   62.4220   69.4050 C   0  0  0  0  0  0  0  0  0  0  0  0
    4.4330   63.1360   69.8660 C   0  0  0  0  0  0  0  0  0  0  0  0
    4.9790   62.5270   71.1470 C   0  0  0  0  0  0  0  0  0  0  0  0
    1.1048   70.2313   68.3322 H   0  0  0  0  0  0  0  0  0  0  0  0
    2.5128   70.2693   67.1419 H   0  0  0  0  0  0  0  0  0  0  0  0
    2.5051   70.1507   70.0820 H   0  0  0  0  0  0  0  0  0  0  0  0
    3.6226   68.9882   69.2253 H   0  0  0  0  0  0  0  0  0  0  0  0
    4.1475   71.2556   67.8476 H   0  0  0  0  0  0  0  0  0  0  0  0
    3.7442   71.9456   69.4699 H   0  0  0  0  0  0  0  0  0  0  0  0
    5.7612   71.3722   70.2247 H   0  0  0  0  0  0  0  0  0  0  0  0
    5.3795   69.6285   69.8398 H   0  0  0  0  0  0  0  0  0  0  0  0
    7.3189   71.3642   68.6313 H   0  0  0  0  0  0  0  0  0  0  0  0
    6.9305   69.6090   68.3077 H   0  0  0  0  0  0  0  0  0  0  0  0
    4.9842   71.3797   67.0654 H   0  0  0  0  0  0  0  0  0  0  0  0
    6.6705   71.7455   66.5241 H   0  0  0  0  0  0  0  0  0  0  0  0
    6.6967   69.9284   65.2314 H   0  0  0  0  0  0  0  0  0  0  0  0
    6.2729   68.8936   66.6758 H   0  0  0  0  0  0  0  0  0  0  0  0
    4.0984   68.7591   66.1403 H   0  0  0  0  0  0  0  0  0  0  0  0
    4.1128   70.4346   65.3639 H   0  0  0  0  0  0  0  0  0  0  0  0
    4.2296   69.5993   63.3518 H   0  0  0  0  0  0  0  0  0  0  0  0
    5.6347   68.5373   63.8344 H   0  0  0  0  0  0  0  0  0  0  0  0
    3.1271   67.4983   64.8658 H   0  0  0  0  0  0  0  0  0  0  0  0
    3.0803   67.7142   63.0629 H   0  0  0  0  0  0  0  0  0  0  0  0
    5.6178   66.5878   63.7450 H   0  0  0  0  0  0  0  0  0  0  0  0
    4.3443   65.6382   64.5920 H   0  0  0  0  0  0  0  0  0  0  0  0
    3.7311   64.8473   62.7246 H   0  0  0  0  0  0  0  0  0  0  0  0
    1.4450   68.3647   66.5203 H   0  0  0  0  0  0  0  0  0  0  0  0
    2.6941   67.7788   67.7439 H   0  0  0  0  0  0  0  0  0  0  0  0
   -0.0137   68.3550   68.7786 H   0  0  0  0  0  0  0  0  0  0  0  0
    0.1911   66.9070   67.6823 H   0  0  0  0  0  0  0  0  0  0  0  0
    2.0775   66.1700   69.1743 H   0  0  0  0  0  0  0  0  0  0  0  0
    1.5795   67.4593   70.3268 H   0  0  0  0  0  0  0  0  0  0  0  0
    1.6206   64.4423   68.9506 H   0  0  0  0  0  0  0  0  0  0  0  0
    2.2883   62.8480   71.3246 H   0  0  0  0  0  0  0  0  0  0  0  0
    1.1862   62.0362   70.1374 H   0  0  0  0  0  0  0  0  0  0  0  0
    3.3210   61.3351   69.4662 H   0  0  0  0  0  0  0  0  0  0  0  0
    2.9500   62.7273   68.3699 H   0  0  0  0  0  0  0  0  0  0  0  0
    5.1957   63.0540   69.0776 H   0  0  0  0  0  0  0  0  0  0  0  0
    4.1854   64.1896   70.0623 H   0  0  0  0  0  0  0  0  0  0  0  0
    4.5272   63.0309   72.0142 H   0  0  0  0  0  0  0  0  0  0  0  0
    4.7337   61.4551   71.1770 H   0  0  0  0  0  0  0  0  0  0  0  0
    6.0712   62.6542   71.1770 H   0  0  0  0  0  0  0  0  0  0  0  0
  2  1  1  0
  3  2  1  0
  4  3  1  0
  5  4  1  0
  6  5  1  0
  7  6  1  0
  8  7  1  0
  9  8  1  0
 10  9  1  0
 11 10  1  0
 12 11  1  0
 13  1  1  0
 14 13  1  0
 15 14  1  0
 16 15  1  0
 17 16  1  0
 18 17  2  0
 19 17  1  0
 20 19  1  0
 21 20  1  0
 22 21  1  0
 23 22  1  0
  1 24  1  0
  1 25  1  0
  2 26  1  0
  2 27  1  0
  3 28  1  0
  3 29  1  0
  4 30  1  0
  4 31  1  0
  5 32  1  0
  5 33  1  0
  6 34  1  0
  6 35  1  0
  7 36  1  0
  7 37  1  0
  8 38  1  0
  8 39  1  0
  9 40  1  0
  9 41  1  0
 10 42  1  0
 10 43  1  0
 11 44  1  0
 11 45  1  0
 12 46  1  0
 13 47  1  0
 13 48  1  0
 14 49  1  0
 14 50  1  0
 15 51  1  0
 15 52  1  0
 19 53  1  0
 20 54  1  0
 20 55  1  0
 21 56  1  0
 21 57  1  0
 22 58  1  0
 22 59  1  0
 23 60  1  0
 23 61  1  0
 23 62  1  0
M  END
>  <score>  (4) 
-6.734

$$$$
=
     RDKit          3D

 62 61  0  0  0  0  0  0  0  0999 V2000
    4.0720   70.8950   69.4570 C   0  0  0  0  0  0  0  0  0  0  0  0
    5.1930   71.5780   68.6670 C   0  0  0  0  0  0  0  0  0  0  0  0
    6.5110   70.7980   68.6860 C   0  0  0  0  0  0  0  0  0  0  0  0
    6.8060   70.1810   67.3170 C   0  0  0  0  0  0  0  0  0  0  0  0
    5.7120   70.4500   66.2800 C   0  0  0  0  0  0  0  0  0  0  0  0
    5.4360   69.2560   65.3620 C   0  0  0  0  0  0  0  0  0  0  0  0
    3.9340   69.0860   65.1170 C   0  0  0  0  0  0  0  0  0  0  0  0
    3.5870   68.7590   63.6610 C   0  0  0  0  0  0  0  0  0  0  0  0
    3.2460   67.2950   63.3650 C   0  0  0  0  0  0  0  0  0  0  0  0
    4.2790   66.3060   63.9160 C   0  0  0  0  0  0  0  0  0  0  0  0
    3.7270   64.8870   63.9980 C   0  0  0  0  0  0  0  0  0  0  0  0
    4.5410   64.0050   63.2360 O   0  0  0  0  0  0  0  0  0  0  0  0
    3.3490   69.7550   68.7350 C   0  0  0  0  0  0  0  0  0  0  0  0
    1.9810   70.1040   68.1480 C   0  0  0  0  0  0  0  0  0  0  0  0
    1.0540   68.9000   68.0000 C   0  0  0  0  0  0  0  0  0  0  0  0
    1.5090   67.8260   68.8390 O   0  0  0  0  0  0  0  0  0  0  0  0
    0.6110   66.8370   69.0690 C   0  0  0  0  0  0  0  0  0  0  0  0
   -0.4010   66.6310   68.4180 O   0  0  0  0  0  0  0  0  0  0  0  0
    1.0250   66.1080   70.1410 N   0  0  0  0  0  0  0  0  0  0  0  0
    0.3370   64.9250   70.5970 C   0  0  0  0  0  0  0  0  0  0  0  0
    1.3170   63.8210   70.9890 C   0  0  0  0  0  0  0  0  0  0  0  0
    2.7460   64.1760   70.5810 C   0  0  0  0  0  0  0  0  0  0  0  0
    3.3440   63.1160   69.6710 C   0  0  0  0  0  0  0  0  0  0  0  0
    4.5096   70.4865   70.3798 H   0  0  0  0  0  0  0  0  0  0  0  0
    3.3112   71.6707   69.6287 H   0  0  0  0  0  0  0  0  0  0  0  0
    4.8671   71.6870   67.6221 H   0  0  0  0  0  0  0  0  0  0  0  0
    5.3831   72.5498   69.1460 H   0  0  0  0  0  0  0  0  0  0  0  0
    7.3293   71.4819   68.9557 H   0  0  0  0  0  0  0  0  0  0  0  0
    6.4261   69.9866   69.4239 H   0  0  0  0  0  0  0  0  0  0  0  0
    7.7518   70.5995   66.9425 H   0  0  0  0  0  0  0  0  0  0  0  0
    6.8598   69.0913   67.4569 H   0  0  0  0  0  0  0  0  0  0  0  0
    4.7827   70.7031   66.8114 H   0  0  0  0  0  0  0  0  0  0  0  0
    6.0649   71.2742   65.6427 H   0  0  0  0  0  0  0  0  0  0  0  0
    5.9412   69.4190   64.3986 H   0  0  0  0  0  0  0  0  0  0  0  0
    5.8164   68.3456   65.8482 H   0  0  0  0  0  0  0  0  0  0  0  0
    3.5673   68.2682   65.7547 H   0  0  0  0  0  0  0  0  0  0  0  0
    3.4556   70.0472   65.3563 H   0  0  0  0  0  0  0  0  0  0  0  0
    2.7186   69.3712   63.3762 H   0  0  0  0  0  0  0  0  0  0  0  0
    4.4980   68.9743   63.0832 H   0  0  0  0  0  0  0  0  0  0  0  0
    2.2692   67.0664   63.8162 H   0  0  0  0  0  0  0  0  0  0  0  0
    3.2362   67.1786   62.2712 H   0  0  0  0  0  0  0  0  0  0  0  0
    5.1586   66.3069   63.2554 H   0  0  0  0  0  0  0  0  0  0  0  0
    4.5447   66.6257   64.9344 H   0  0  0  0  0  0  0  0  0  0  0  0
    3.7184   64.5594   65.0480 H   0  0  0  0  0  0  0  0  0  0  0  0
    2.7035   64.8733   63.5951 H   0  0  0  0  0  0  0  0  0  0  0  0
    5.0692   63.4326   63.8471 H   0  0  0  0  0  0  0  0  0  0  0  0
    3.9933   69.4143   67.9111 H   0  0  0  0  0  0  0  0  0  0  0  0
    3.1600   68.9876   69.5001 H   0  0  0  0  0  0  0  0  0  0  0  0
    1.4958   70.8372   68.8090 H   0  0  0  0  0  0  0  0  0  0  0  0
    2.1557   70.5026   67.1377 H   0  0  0  0  0  0  0  0  0  0  0  0
    0.0340   69.1866   68.2956 H   0  0  0  0  0  0  0  0  0  0  0  0
    1.0578   68.5669   66.9516 H   0  0  0  0  0  0  0  0  0  0  0  0
    1.8668   66.4145   70.6492 H   0  0  0  0  0  0  0  0  0  0  0  0
   -0.2774   65.1842   71.4718 H   0  0  0  0  0  0  0  0  0  0  0  0
   -0.2898   64.5524   69.7734 H   0  0  0  0  0  0  0  0  0  0  0  0
    1.2803   63.6799   72.0793 H   0  0  0  0  0  0  0  0  0  0  0  0
    1.0263   62.8975   70.4669 H   0  0  0  0  0  0  0  0  0  0  0  0
    2.7375   65.1395   70.0503 H   0  0  0  0  0  0  0  0  0  0  0  0
    3.3604   64.2364   71.4914 H   0  0  0  0  0  0  0  0  0  0  0  0
    3.7934   62.3193   70.2820 H   0  0  0  0  0  0  0  0  0  0  0  0
    2.5535   62.6894   69.0361 H   0  0  0  0  0  0  0  0  0  0  0  0
    4.1180   63.5720   69.0361 H   0  0  0  0  0  0  0  0  0  0  0  0
  2  1  1  0
  3  2  1  0
  4  3  1  0
  5  4  1  0
  6  5  1  0
  7  6  1  0
  8  7  1  0
  9  8  1  0
 10  9  1  0
 11 10  1  0
 12 11  1  0
 13  1  1  0
 14 13  1  0
 15 14  1  0
 16 15  1  0
 17 16  1  0
 18 17  2  0
 19 17  1  0
 20 19  1  0
 21 20  1  0
 22 21  1  0
 23 22  1  0
  1 24  1  0
  1 25  1  0
  2 26  1  0
  2 27  1  0
  3 28  1  0
  3 29  1  0
  4 30  1  0
  4 31  1  0
  5 32  1  0
  5 33  1  0
  6 34  1  0
  6 35  1  0
  7 36  1  0
  7 37  1  0
  8 38  1  0
  8 39  1  0
  9 40  1  0
  9 41  1  0
 10 42  1  0
 10 43  1  0
 11 44  1  0
 11 45  1  0
 12 46  1  0
 13 47  1  0
 13 48  1  0
 14 49  1  0
 14 50  1  0
 15 51  1  0
 15 52  1  0
 19 53  1  0
 20 54  1  0
 20 55  1  0
 21 56  1  0
 21 57  1  0
 22 58  1  0
 22 59  1  0
 23 60  1  0
 23 61  1  0
 23 62  1  0
M  END
>  <score>  (5) 
-6.71

$$$$
=
     RDKit          3D

 62 61  0  0  0  0  0  0  0  0999 V2000
    5.2980   70.6990   69.4310 C   0  0  0  0  0  0  0  0  0  0  0  0
    6.4690   70.5810   68.4490 C   0  0  0  0  0  0  0  0  0  0  0  0
    6.0840   70.9000   67.0020 C   0  0  0  0  0  0  0  0  0  0  0  0
    6.0210   69.6270   66.1550 C   0  0  0  0  0  0  0  0  0  0  0  0
    4.7620   69.5340   65.2880 C   0  0  0  0  0  0  0  0  0  0  0  0
    5.0590   69.4730   63.7880 C   0  0  0  0  0  0  0  0  0  0  0  0
    5.0920   68.0240   63.2920 C   0  0  0  0  0  0  0  0  0  0  0  0
    3.8400   67.6200   62.5060 C   0  0  0  0  0  0  0  0  0  0  0  0
    2.9350   68.7690   62.0500 C   0  0  0  0  0  0  0  0  0  0  0  0
    1.4820   68.6180   62.5120 C   0  0  0  0  0  0  0  0  0  0  0  0
    1.3420   68.7650   64.0230 C   0  0  0  0  0  0  0  0  0  0  0  0
    0.6040   67.6710   64.5500 O   0  0  0  0  0  0  0  0  0  0  0  0
    3.9240   70.9430   68.8000 C   0  0  0  0  0  0  0  0  0  0  0  0
    2.9300   69.7860   68.9110 C   0  0  0  0  0  0  0  0  0  0  0  0
    2.0790   69.5900   67.6590 C   0  0  0  0  0  0  0  0  0  0  0  0
    0.8440   68.9420   68.0050 O   0  0  0  0  0  0  0  0  0  0  0  0
    0.8950   67.5900   68.1020 C   0  0  0  0  0  0  0  0  0  0  0  0
    1.2980   66.8300   67.2350 O   0  0  0  0  0  0  0  0  0  0  0  0
    0.4290   67.2200   69.3260 N   0  0  0  0  0  0  0  0  0  0  0  0
    0.4310   65.8510   69.7840 C   0  0  0  0  0  0  0  0  0  0  0  0
    1.8180   65.4180   70.2540 C   0  0  0  0  0  0  0  0  0  0  0  0
    1.7810   64.0290   70.8880 C   0  0  0  0  0  0  0  0  0  0  0  0
    0.3580   63.5050   71.0000 C   0  0  0  0  0  0  0  0  0  0  0  0
    5.2441   69.7632   70.0067 H   0  0  0  0  0  0  0  0  0  0  0  0
    5.5088   71.5881   70.0435 H   0  0  0  0  0  0  0  0  0  0  0  0
    7.2583   71.2803   68.7620 H   0  0  0  0  0  0  0  0  0  0  0  0
    6.8074   69.5346   68.4717 H   0  0  0  0  0  0  0  0  0  0  0  0
    5.0980   71.3874   66.9918 H   0  0  0  0  0  0  0  0  0  0  0  0
    6.8489   71.5657   66.5757 H   0  0  0  0  0  0  0  0  0  0  0  0
    6.9010   69.6034   65.4954 H   0  0  0  0  0  0  0  0  0  0  0  0
    5.9994   68.7752   66.8507 H   0  0  0  0  0  0  0  0  0  0  0  0
    4.2101   68.6256   65.5712 H   0  0  0  0  0  0  0  0  0  0  0  0
    4.1774   70.4487   65.4659 H   0  0  0  0  0  0  0  0  0  0  0  0
    4.2759   70.0214   63.2439 H   0  0  0  0  0  0  0  0  0  0  0  0
    6.0446   69.9270   63.6077 H   0  0  0  0  0  0  0  0  0  0  0  0
    5.9686   67.8989   62.6394 H   0  0  0  0  0  0  0  0  0  0  0  0
    5.1393   67.3779   64.1810 H   0  0  0  0  0  0  0  0  0  0  0  0
    4.1671   67.0728   61.6096 H   0  0  0  0  0  0  0  0  0  0  0  0
    3.2329   67.0216   63.2013 H   0  0  0  0  0  0  0  0  0  0  0  0
    3.3343   69.7099   62.4564 H   0  0  0  0  0  0  0  0  0  0  0  0
    2.9289   68.7612   60.9500 H   0  0  0  0  0  0  0  0  0  0  0  0
    0.8720   69.3915   62.0224 H   0  0  0  0  0  0  0  0  0  0  0  0
    1.1425   67.6084   62.2372 H   0  0  0  0  0  0  0  0  0  0  0  0
    2.3417   68.7850   64.4815 H   0  0  0  0  0  0  0  0  0  0  0  0
    0.8105   69.7015   64.2476 H   0  0  0  0  0  0  0  0  0  0  0  0
    0.6262   67.7039   65.5392 H   0  0  0  0  0  0  0  0  0  0  0  0
    3.4776   71.8207   69.2904 H   0  0  0  0  0  0  0  0  0  0  0  0
    4.1074   71.0794   67.7240 H   0  0  0  0  0  0  0  0  0  0  0  0
    3.4936   68.8598   69.0971 H   0  0  0  0  0  0  0  0  0  0  0  0
    2.2421   70.0293   69.7341 H   0  0  0  0  0  0  0  0  0  0  0  0
    1.8632   70.5695   67.2074 H   0  0  0  0  0  0  0  0  0  0  0  0
    2.6287   68.9633   66.9413 H   0  0  0  0  0  0  0  0  0  0  0  0
    0.0587   67.9486   69.9529 H   0  0  0  0  0  0  0  0  0  0  0  0
   -0.2762   65.7534   70.6209 H   0  0  0  0  0  0  0  0  0  0  0  0
    0.1356   65.2062   68.9432 H   0  0  0  0  0  0  0  0  0  0  0  0
    2.4993   65.3997   69.3906 H   0  0  0  0  0  0  0  0  0  0  0  0
    2.1677   66.1357   71.0108 H   0  0  0  0  0  0  0  0  0  0  0  0
    2.3688   63.3370   70.2671 H   0  0  0  0  0  0  0  0  0  0  0  0
    2.2029   64.1009   71.9013 H   0  0  0  0  0  0  0  0  0  0  0  0
    0.0865   63.4050   72.0613 H   0  0  0  0  0  0  0  0  0  0  0  0
   -0.3313   64.2083   70.5099 H   0  0  0  0  0  0  0  0  0  0  0  0
    0.2894   62.5226   70.5099 H   0  0  0  0  0  0  0  0  0  0  0  0
  2  1  1  0
  3  2  1  0
  4  3  1  0
  5  4  1  0
  6  5  1  0
  7  6  1  0
  8  7  1  0
  9  8  1  0
 10  9  1  0
 11 10  1  0
 12 11  1  0
 13  1  1  0
 14 13  1  0
 15 14  1  0
 16 15  1  0
 17 16  1  0
 18 17  2  0
 19 17  1  0
 20 19  1  0
 21 20  1  0
 22 21  1  0
 23 22  1  0
  1 24  1  0
  1 25  1  0
  2 26  1  0
  2 27  1  0
  3 28  1  0
  3 29  1  0
  4 30  1  0
  4 31  1  0
  5 32  1  0
  5 33  1  0
  6 34  1  0
  6 35  1  0
  7 36  1  0
  7 37  1  0
  8 38  1  0
  8 39  1  0
  9 40  1  0
  9 41  1  0
 10 42  1  0
 10 43  1  0
 11 44  1  0
 11 45  1  0
 12 46  1  0
 13 47  1  0
 13 48  1  0
 14 49  1  0
 14 50  1  0
 15 51  1  0
 15 52  1  0
 19 53  1  0
 20 54  1  0
 20 55  1  0
 21 56  1  0
 21 57  1  0
 22 58  1  0
 22 59  1  0
 23 60  1  0
 23 61  1  0
 23 62  1  0
M  END
>  <score>  (6) 
-6.685

$$$$
=
     RDKit          3D

 62 61  0  0  0  0  0  0  0  0999 V2000
    0.0590   66.1330   69.7610 C   0  0  0  0  0  0  0  0  0  0  0  0
    1.0460   65.5500   70.7790 C   0  0  0  0  0  0  0  0  0  0  0  0
    0.7560   64.0910   71.1400 C   0  0  0  0  0  0  0  0  0  0  0  0
    1.8990   63.1760   70.6950 C   0  0  0  0  0  0  0  0  0  0  0  0
    2.9810   63.9010   69.8890 C   0  0  0  0  0  0  0  0  0  0  0  0
    4.2990   63.1280   69.8060 C   0  0  0  0  0  0  0  0  0  0  0  0
    4.7260   62.6170   71.1850 C   0  0  0  0  0  0  0  0  0  0  0  0
    5.1840   61.1540   71.1790 C   0  0  0  0  0  0  0  0  0  0  0  0
    4.3890   60.2070   70.2740 C   0  0  0  0  0  0  0  0  0  0  0  0
    3.1130   59.6680   70.9280 C   0  0  0  0  0  0  0  0  0  0  0  0
    3.2130   58.1790   71.2390 C   0  0  0  0  0  0  0  0  0  0  0  0
    3.8000   57.4920   70.1420 O   0  0  0  0  0  0  0  0  0  0  0  0
    0.6430   67.1500   68.7770 C   0  0  0  0  0  0  0  0  0  0  0  0
   -0.2810   67.5690   67.6330 C   0  0  0  0  0  0  0  0  0  0  0  0
    0.4590   67.8970   66.3390 C   0  0  0  0  0  0  0  0  0  0  0  0
    1.5700   68.7640   66.6170 O   0  0  0  0  0  0  0  0  0  0  0  0
    2.6760   68.5660   65.8590 C   0  0  0  0  0  0  0  0  0  0  0  0
    2.7980   67.7190   64.9870 O   0  0  0  0  0  0  0  0  0  0  0  0
    3.6280   69.4680   66.2250 N   0  0  0  0  0  0  0  0  0  0  0  0
    4.8990   69.5830   65.5510 C   0  0  0  0  0  0  0  0  0  0  0  0
    5.9970   70.0550   66.5010 C   0  0  0  0  0  0  0  0  0  0  0  0
    5.4440   70.3230   67.9000 C   0  0  0  0  0  0  0  0  0  0  0  0
    6.4390   71.0920   68.7540 C   0  0  0  0  0  0  0  0  0  0  0  0
   -0.3568   65.2985   69.1774 H   0  0  0  0  0  0  0  0  0  0  0  0
   -0.6900   66.6822   70.3504 H   0  0  0  0  0  0  0  0  0  0  0  0
    2.0595   65.6096   70.3556 H   0  0  0  0  0  0  0  0  0  0  0  0
    0.9459   66.1391   71.7025 H   0  0  0  0  0  0  0  0  0  0  0  0
    0.6330   64.0082   72.2300 H   0  0  0  0  0  0  0  0  0  0  0  0
   -0.1632   63.7790   70.6225 H   0  0  0  0  0  0  0  0  0  0  0  0
    2.3652   62.7398   71.5908 H   0  0  0  0  0  0  0  0  0  0  0  0
    1.4635   62.4094   70.0372 H   0  0  0  0  0  0  0  0  0  0  0  0
    2.6060   64.0611   68.8674 H   0  0  0  0  0  0  0  0  0  0  0  0
    3.1924   64.8475   70.4080 H   0  0  0  0  0  0  0  0  0  0  0  0
    4.1706   62.2705   69.1290 H   0  0  0  0  0  0  0  0  0  0  0  0
    5.0784   63.8058   69.4278 H   0  0  0  0  0  0  0  0  0  0  0  0
    5.5572   63.2408   71.5456 H   0  0  0  0  0  0  0  0  0  0  0  0
    3.8446   62.6779   71.8403 H   0  0  0  0  0  0  0  0  0  0  0  0
    6.2338   61.1309   70.8514 H   0  0  0  0  0  0  0  0  0  0  0  0
    5.0254   60.7885   72.2043 H   0  0  0  0  0  0  0  0  0  0  0  0
    4.1091   60.7514   69.3601 H   0  0  0  0  0  0  0  0  0  0  0  0
    5.0350   59.3424   70.0619 H   0  0  0  0  0  0  0  0  0  0  0  0
    2.9367   60.2152   71.8658 H   0  0  0  0  0  0  0  0  0  0  0  0
    2.2831   59.8113   70.2203 H   0  0  0  0  0  0  0  0  0  0  0  0
    3.8355   58.0348   72.1344 H   0  0  0  0  0  0  0  0  0  0  0  0
    2.2041   57.7788   71.4178 H   0  0  0  0  0  0  0  0  0  0  0  0
    4.4043   56.7848   70.4807 H   0  0  0  0  0  0  0  0  0  0  0  0
    0.9110   68.0538   69.3438 H   0  0  0  0  0  0  0  0  0  0  0  0
    1.5012   66.6512   68.3030 H   0  0  0  0  0  0  0  0  0  0  0  0
   -0.9826   66.7457   67.4333 H   0  0  0  0  0  0  0  0  0  0  0  0
   -0.7944   68.4878   67.9529 H   0  0  0  0  0  0  0  0  0  0  0  0
    0.8279   66.9660   65.8839 H   0  0  0  0  0  0  0  0  0  0  0  0
   -0.2299   68.4023   65.6461 H   0  0  0  0  0  0  0  0  0  0  0  0
    3.4325   70.0959   67.0177 H   0  0  0  0  0  0  0  0  0  0  0  0
    5.1775   68.5999   65.1436 H   0  0  0  0  0  0  0  0  0  0  0  0
    4.7964   70.3263   64.7466 H   0  0  0  0  0  0  0  0  0  0  0  0
    6.7733   69.2783   66.5654 H   0  0  0  0  0  0  0  0  0  0  0  0
    6.4162   70.9930   66.1080 H   0  0  0  0  0  0  0  0  0  0  0  0
    4.5187   70.9113   67.8120 H   0  0  0  0  0  0  0  0  0  0  0  0
    5.2480   69.3554   68.3850 H   0  0  0  0  0  0  0  0  0  0  0  0
    6.2180   70.9212   69.8179 H   0  0  0  0  0  0  0  0  0  0  0  0
    7.4587   70.7450   68.5310 H   0  0  0  0  0  0  0  0  0  0  0  0
    6.3603   72.1663   68.5310 H   0  0  0  0  0  0  0  0  0  0  0  0
  2  1  1  0
  3  2  1  0
  4  3  1  0
  5  4  1  0
  6  5  1  0
  7  6  1  0
  8  7  1  0
  9  8  1  0
 10  9  1  0
 11 10  1  0
 12 11  1  0
 13  1  1  0
 14 13  1  0
 15 14  1  0
 16 15  1  0
 17 16  1  0
 18 17  2  0
 19 17  1  0
 20 19  1  0
 21 20  1  0
 22 21  1  0
 23 22  1  0
  1 24  1  0
  1 25  1  0
  2 26  1  0
  2 27  1  0
  3 28  1  0
  3 29  1  0
  4 30  1  0
  4 31  1  0
  5 32  1  0
  5 33  1  0
  6 34  1  0
  6 35  1  0
  7 36  1  0
  7 37  1  0
  8 38  1  0
  8 39  1  0
  9 40  1  0
  9 41  1  0
 10 42  1  0
 10 43  1  0
 11 44  1  0
 11 45  1  0
 12 46  1  0
 13 47  1  0
 13 48  1  0
 14 49  1  0
 14 50  1  0
 15 51  1  0
 15 52  1  0
 19 53  1  0
 20 54  1  0
 20 55  1  0
 21 56  1  0
 21 57  1  0
 22 58  1  0
 22 59  1  0
 23 60  1  0
 23 61  1  0
 23 62  1  0
M  END
>  <score>  (7) 
-6.648

$$$$
=
     RDKit          3D

 62 61  0  0  0  0  0  0  0  0999 V2000
    0.7020   64.3870   71.7630 C   0  0  0  0  0  0  0  0  0  0  0  0
    0.7020   63.2910   70.6920 C   0  0  0  0  0  0  0  0  0  0  0  0
    2.1060   62.8780   70.2450 C   0  0  0  0  0  0  0  0  0  0  0  0
    3.1520   63.8960   70.7050 C   0  0  0  0  0  0  0  0  0  0  0  0
    4.5940   63.4250   70.4940 C   0  0  0  0  0  0  0  0  0  0  0  0
    4.7120   61.9210   70.2360 C   0  0  0  0  0  0  0  0  0  0  0  0
    5.3790   61.2100   71.4170 C   0  0  0  0  0  0  0  0  0  0  0  0
    4.4300   60.9600   72.5940 C   0  0  0  0  0  0  0  0  0  0  0  0
    4.0130   59.5040   72.8220 C   0  0  0  0  0  0  0  0  0  0  0  0
    2.9450   59.0150   71.8400 C   0  0  0  0  0  0  0  0  0  0  0  0
    3.4860   57.9590   70.8820 C   0  0  0  0  0  0  0  0  0  0  0  0
    3.7650   58.5470   69.6190 O   0  0  0  0  0  0  0  0  0  0  0  0
   -0.0060   65.6900   71.3820 C   0  0  0  0  0  0  0  0  0  0  0  0
   -0.0690   65.9960   69.8850 C   0  0  0  0  0  0  0  0  0  0  0  0
    1.0670   66.8920   69.3960 C   0  0  0  0  0  0  0  0  0  0  0  0
    1.0590   66.9500   67.9610 O   0  0  0  0  0  0  0  0  0  0  0  0
    1.3030   68.1680   67.4200 C   0  0  0  0  0  0  0  0  0  0  0  0
    0.8450   69.2280   67.8180 O   0  0  0  0  0  0  0  0  0  0  0  0
    2.1460   68.0190   66.3610 N   0  0  0  0  0  0  0  0  0  0  0  0
    2.6740   69.1360   65.6150 C   0  0  0  0  0  0  0  0  0  0  0  0
    3.8010   68.7040   64.6810 C   0  0  0  0  0  0  0  0  0  0  0  0
    5.1410   69.2970   65.1150 C   0  0  0  0  0  0  0  0  0  0  0  0
    5.0620   69.8840   66.5150 C   0  0  0  0  0  0  0  0  0  0  0  0
    0.2075   63.9836   72.6589 H   0  0  0  0  0  0  0  0  0  0  0  0
    1.7578   64.6544   71.9173 H   0  0  0  0  0  0  0  0  0  0  0  0
    0.1912   62.4059   71.0989 H   0  0  0  0  0  0  0  0  0  0  0  0
    0.1873   63.6992   69.8097 H   0  0  0  0  0  0  0  0  0  0  0  0
    2.3463   61.8955   70.6774 H   0  0  0  0  0  0  0  0  0  0  0  0
    2.1234   62.8313   69.1461 H   0  0  0  0  0  0  0  0  0  0  0  0
    3.0035   64.8280   70.1398 H   0  0  0  0  0  0  0  0  0  0  0  0
    3.0122   64.0386   71.7867 H   0  0  0  0  0  0  0  0  0  0  0  0
    5.0125   63.9608   69.6292 H   0  0  0  0  0  0  0  0  0  0  0  0
    5.1439   63.6388   71.4224 H   0  0  0  0  0  0  0  0  0  0  0  0
    3.7060   61.5021   70.0861 H   0  0  0  0  0  0  0  0  0  0  0  0
    5.3319   61.7676   69.3403 H   0  0  0  0  0  0  0  0  0  0  0  0
    5.7637   60.2405   71.0677 H   0  0  0  0  0  0  0  0  0  0  0  0
    6.1804   61.8695   71.7815 H   0  0  0  0  0  0  0  0  0  0  0  0
    4.9273   61.3149   73.5087 H   0  0  0  0  0  0  0  0  0  0  0  0
    3.5033   61.4990   72.3477 H   0  0  0  0  0  0  0  0  0  0  0  0
    4.9027   58.8660   72.7153 H   0  0  0  0  0  0  0  0  0  0  0  0
    3.5772   59.4458   73.8303 H   0  0  0  0  0  0  0  0  0  0  0  0
    2.1104   58.5817   72.4107 H   0  0  0  0  0  0  0  0  0  0  0  0
    2.6150   59.8772   71.2419 H   0  0  0  0  0  0  0  0  0  0  0  0
    4.4103   57.5302   71.2965 H   0  0  0  0  0  0  0  0  0  0  0  0
    2.7329   57.1676   70.7537 H   0  0  0  0  0  0  0  0  0  0  0  0
    4.1855   59.4332   69.7532 H   0  0  0  0  0  0  0  0  0  0  0  0
   -1.0376   65.6374   71.7601 H   0  0  0  0  0  0  0  0  0  0  0  0
    0.5916   66.4982   71.8288 H   0  0  0  0  0  0  0  0  0  0  0  0
   -0.0241   65.0453   69.3335 H   0  0  0  0  0  0  0  0  0  0  0  0
   -1.0085   66.5394   69.7060 H   0  0  0  0  0  0  0  0  0  0  0  0
    0.9337   67.9052   69.8030 H   0  0  0  0  0  0  0  0  0  0  0  0
    2.0276   66.4784   69.7370 H   0  0  0  0  0  0  0  0  0  0  0  0
    2.4190   67.0665   66.0798 H   0  0  0  0  0  0  0  0  0  0  0  0
    1.8649   69.5804   65.0168 H   0  0  0  0  0  0  0  0  0  0  0  0
    3.0801   69.8667   66.3300 H   0  0  0  0  0  0  0  0  0  0  0  0
    3.8746   67.6065   64.6921 H   0  0  0  0  0  0  0  0  0  0  0  0
    3.5718   69.0688   63.6689 H   0  0  0  0  0  0  0  0  0  0  0  0
    5.9038   68.5045   65.1020 H   0  0  0  0  0  0  0  0  0  0  0  0
    5.4041   70.1046   64.4160 H   0  0  0  0  0  0  0  0  0  0  0  0
    5.1703   69.0790   67.2568 H   0  0  0  0  0  0  0  0  0  0  0  0
    5.8694   70.6187   66.6506 H   0  0  0  0  0  0  0  0  0  0  0  0
    4.0891   70.3791   66.6506 H   0  0  0  0  0  0  0  0  0  0  0  0
  2  1  1  0
  3  2  1  0
  4  3  1  0
  5  4  1  0
  6  5  1  0
  7  6  1  0
  8  7  1  0
  9  8  1  0
 10  9  1  0
 11 10  1  0
 12 11  1  0
 13  1  1  0
 14 13  1  0
 15 14  1  0
 16 15  1  0
 17 16  1  0
 18 17  2  0
 19 17  1  0
 20 19  1  0
 21 20  1  0
 22 21  1  0
 23 22  1  0
  1 24  1  0
  1 25  1  0
  2 26  1  0
  2 27  1  0
  3 28  1  0
  3 29  1  0
  4 30  1  0
  4 31  1  0
  5 32  1  0
  5 33  1  0
  6 34  1  0
  6 35  1  0
  7 36  1  0
  7 37  1  0
  8 38  1  0
  8 39  1  0
  9 40  1  0
  9 41  1  0
 10 42  1  0
 10 43  1  0
 11 44  1  0
 11 45  1  0
 12 46  1  0
 13 47  1  0
 13 48  1  0
 14 49  1  0
 14 50  1  0
 15 51  1  0
 15 52  1  0
 19 53  1  0
 20 54  1  0
 20 55  1  0
 21 56  1  0
 21 57  1  0
 22 58  1  0
 22 59  1  0
 23 60  1  0
 23 61  1  0
 23 62  1  0
M  END
>  <score>  (8) 
-6.648

$$$$
=
     RDKit          3D

 62 61  0  0  0  0  0  0  0  0999 V2000
    1.2890   63.3610   71.9280 C   0  0  0  0  0  0  0  0  0  0  0  0
    0.5200   62.1110   72.3690 C   0  0  0  0  0  0  0  0  0  0  0  0
    1.3630   61.1420   73.2030 C   0  0  0  0  0  0  0  0  0  0  0  0
    1.4110   59.7560   72.5550 C   0  0  0  0  0  0  0  0  0  0  0  0
    2.7650   59.4280   71.9200 C   0  0  0  0  0  0  0  0  0  0  0  0
    3.9120   59.3630   72.9330 C   0  0  0  0  0  0  0  0  0  0  0  0
    4.9110   60.5010   72.7060 C   0  0  0  0  0  0  0  0  0  0  0  0
    4.8530   61.0910   71.2930 C   0  0  0  0  0  0  0  0  0  0  0  0
    5.2350   62.5700   71.1680 C   0  0  0  0  0  0  0  0  0  0  0  0
    4.4950   63.2960   70.0400 C   0  0  0  0  0  0  0  0  0  0  0  0
    3.8100   62.3250   69.0840 C   0  0  0  0  0  0  0  0  0  0  0  0
    3.3680   63.0160   67.9250 O   0  0  0  0  0  0  0  0  0  0  0  0
    0.8500   63.9760   70.5960 C   0  0  0  0  0  0  0  0  0  0  0  0
    1.4920   65.3180   70.2430 C   0  0  0  0  0  0  0  0  0  0  0  0
    0.4830   66.4480   70.0580 C   0  0  0  0  0  0  0  0  0  0  0  0
   -0.2120   66.2840   68.8110 O   0  0  0  0  0  0  0  0  0  0  0  0
    0.1430   67.1410   67.8220 C   0  0  0  0  0  0  0  0  0  0  0  0
   -0.0070   66.9470   66.6260 O   0  0  0  0  0  0  0  0  0  0  0  0
    0.6890   68.2550   68.3810 N   0  0  0  0  0  0  0  0  0  0  0  0
    1.0940   69.4030   67.6060 C   0  0  0  0  0  0  0  0  0  0  0  0
    2.6110   69.4730   67.4550 C   0  0  0  0  0  0  0  0  0  0  0  0
    3.0460   69.1060   66.0370 C   0  0  0  0  0  0  0  0  0  0  0  0
    4.4870   69.5130   65.7740 C   0  0  0  0  0  0  0  0  0  0  0  0
    1.1676   64.1256   72.7095 H   0  0  0  0  0  0  0  0  0  0  0  0
    2.3293   63.0358   71.7794 H   0  0  0  0  0  0  0  0  0  0  0  0
   -0.3448   62.4276   72.9705 H   0  0  0  0  0  0  0  0  0  0  0  0
    0.2178   61.5764   71.4564 H   0  0  0  0  0  0  0  0  0  0  0  0
    2.3868   61.5358   73.2855 H   0  0  0  0  0  0  0  0  0  0  0  0
    0.9042   61.0469   74.1982 H   0  0  0  0  0  0  0  0  0  0  0  0
    1.1964   59.0025   73.3271 H   0  0  0  0  0  0  0  0  0  0  0  0
    0.6637   59.7489   71.7479 H   0  0  0  0  0  0  0  0  0  0  0  0
    2.6875   58.4523   71.4179 H   0  0  0  0  0  0  0  0  0  0  0  0
    2.9989   60.2403   71.2161 H   0  0  0  0  0  0  0  0  0  0  0  0
    3.4991   59.4444   73.9493 H   0  0  0  0  0  0  0  0  0  0  0  0
    4.4377   58.4052   72.8056 H   0  0  0  0  0  0  0  0  0  0  0  0
    4.6955   61.3029   73.4275 H   0  0  0  0  0  0  0  0  0  0  0  0
    5.9182   60.0796   72.8401 H   0  0  0  0  0  0  0  0  0  0  0  0
    5.5385   60.5112   70.6574 H   0  0  0  0  0  0  0  0  0  0  0  0
    3.7978   61.0297   70.9884 H   0  0  0  0  0  0  0  0  0  0  0  0
    5.0010   63.0721   72.1183 H   0  0  0  0  0  0  0  0  0  0  0  0
    6.3083   62.6093   70.9304 H   0  0  0  0  0  0  0  0  0  0  0  0
    3.7332   63.9548   70.4823 H   0  0  0  0  0  0  0  0  0  0  0  0
    5.2355   63.8712   69.4649 H   0  0  0  0  0  0  0  0  0  0  0  0
    4.5219   61.5394   68.7906 H   0  0  0  0  0  0  0  0  0  0  0  0
    2.9429   61.8731   69.5879 H   0  0  0  0  0  0  0  0  0  0  0  0
    2.8547   63.8184   68.1948 H   0  0  0  0  0  0  0  0  0  0  0  0
    1.0969   63.2622   69.7963 H   0  0  0  0  0  0  0  0  0  0  0  0
   -0.2269   64.1758   70.6979 H   0  0  0  0  0  0  0  0  0  0  0  0
    2.1821   65.5971   71.0528 H   0  0  0  0  0  0  0  0  0  0  0  0
    2.0081   65.1855   69.2807 H   0  0  0  0  0  0  0  0  0  0  0  0
   -0.2421   66.4285   70.8850 H   0  0  0  0  0  0  0  0  0  0  0  0
    1.0148   67.4109   70.0522 H   0  0  0  0  0  0  0  0  0  0  0  0
    0.8190   68.2800   69.4025 H   0  0  0  0  0  0  0  0  0  0  0  0
    0.6386   69.3377   66.6068 H   0  0  0  0  0  0  0  0  0  0  0  0
    0.7588   70.3088   68.1325 H   0  0  0  0  0  0  0  0  0  0  0  0
    2.9464   70.4964   67.6790 H   0  0  0  0  0  0  0  0  0  0  0  0
    3.0627   68.7534   68.1536 H   0  0  0  0  0  0  0  0  0  0  0  0
    2.9519   68.0181   65.9044 H   0  0  0  0  0  0  0  0  0  0  0  0
    2.4002   69.6440   65.3275 H   0  0  0  0  0  0  0  0  0  0  0  0
    5.0072   69.6599   66.7320 H   0  0  0  0  0  0  0  0  0  0  0  0
    4.9923   68.7224   65.1998 H   0  0  0  0  0  0  0  0  0  0  0  0
    4.5041   70.4511   65.1998 H   0  0  0  0  0  0  0  0  0  0  0  0
  2  1  1  0
  3  2  1  0
  4  3  1  0
  5  4  1  0
  6  5  1  0
  7  6  1  0
  8  7  1  0
  9  8  1  0
 10  9  1  0
 11 10  1  0
 12 11  1  0
 13  1  1  0
 14 13  1  0
 15 14  1  0
 16 15  1  0
 17 16  1  0
 18 17  2  0
 19 17  1  0
 20 19  1  0
 21 20  1  0
 22 21  1  0
 23 22  1  0
  1 24  1  0
  1 25  1  0
  2 26  1  0
  2 27  1  0
  3 28  1  0
  3 29  1  0
  4 30  1  0
  4 31  1  0
  5 32  1  0
  5 33  1  0
  6 34  1  0
  6 35  1  0
  7 36  1  0
  7 37  1  0
  8 38  1  0
  8 39  1  0
  9 40  1  0
  9 41  1  0
 10 42  1  0
 10 43  1  0
 11 44  1  0
 11 45  1  0
 12 46  1  0
 13 47  1  0
 13 48  1  0
 14 49  1  0
 14 50  1  0
 15 51  1  0
 15 52  1  0
 19 53  1  0
 20 54  1  0
 20 55  1  0
 21 56  1  0
 21 57  1  0
 22 58  1  0
 22 59  1  0
 23 60  1  0
 23 61  1  0
 23 62  1  0
M  END
>  <score>  (9) 
-6.529

$$$$
