=
     RDKit          3D

 84 89  0  0  0  0  0  0  0  0999 V2000
   -1.4040   68.8340   66.7480 C   0  0  0  0  0  0  0  0  0  0  0  0
   -1.6390   67.6780   67.6860 C   0  0  0  0  0  0  0  0  0  0  0  0
   -2.7840   67.2630   67.8690 O   0  0  0  0  0  0  0  0  0  0  0  0
   -0.5340   67.1160   68.3210 N   0  0  0  0  0  0  0  0  0  0  0  0
    0.8400   67.6340   68.2190 C   0  0  0  0  0  0  0  0  0  0  0  0
    1.7090   66.8850   67.2040 C   0  0  0  0  0  0  0  0  0  0  0  0
    1.6960   67.4980   65.8060 C   0  0  0  0  0  0  0  0  0  0  0  0
    1.9670   68.9510   65.8320 N   0  0  0  0  0  0  0  0  0  0  0  0
    3.3270   69.2620   65.5250 C   0  0  0  0  0  0  0  0  0  0  0  0
    3.8540   69.0460   64.2410 C   0  0  0  0  0  0  0  0  0  0  0  0
    3.0580   68.6240   63.0330 C   0  0  0  0  0  0  0  0  0  0  0  0
    3.7940   67.5520   62.2220 C   0  0  0  0  0  0  0  0  0  0  0  0
    5.3000   67.7970   62.0560 C   0  0  0  0  0  0  0  0  0  0  0  0
    5.7850   69.1130   62.6600 C   0  0  0  0  0  0  0  0  0  0  0  0
    5.2120   69.3020   64.0410 C   0  0  0  0  0  0  0  0  0  0  0  0
    6.0490   69.7350   65.0070 N   0  0  0  0  0  0  0  0  0  0  0  0
    5.5460   69.9570   66.2300 C   0  0  0  0  0  0  0  0  0  0  0  0
    4.1860   69.7470   66.5490 C   0  0  0  0  0  0  0  0  0  0  0  0
    3.7470   70.0540   67.8580 C   0  0  0  0  0  0  0  0  0  0  0  0
    4.6270   70.5220   68.8320 C   0  0  0  0  0  0  0  0  0  0  0  0
    5.9640   70.7010   68.5120 C   0  0  0  0  0  0  0  0  0  0  0  0
    6.4050   70.4210   67.2160 C   0  0  0  0  0  0  0  0  0  0  0  0
   -0.7960   66.0740   69.3190 C   0  0  0  0  0  0  0  0  0  0  0  0
    0.3800   65.9010   70.2860 C   0  0  0  0  0  0  0  0  0  0  0  0
   -0.0530   65.7160   71.7420 C   0  0  0  0  0  0  0  0  0  0  0  0
    0.3460   64.3610   72.3270 C   0  0  0  0  0  0  0  0  0  0  0  0
   -0.0280   63.3030   71.3800 N   0  0  0  0  0  0  0  0  0  0  0  0
    0.7190   62.1120   71.6080 C   0  0  0  0  0  0  0  0  0  0  0  0
    2.0030   61.9420   71.0670 C   0  0  0  0  0  0  0  0  0  0  0  0
    2.7090   62.9300   70.1760 C   0  0  0  0  0  0  0  0  0  0  0  0
    3.4420   62.2350   69.0230 C   0  0  0  0  0  0  0  0  0  0  0  0
    4.1660   60.9380   69.4100 C   0  0  0  0  0  0  0  0  0  0  0  0
    4.1160   60.6220   70.9010 C   0  0  0  0  0  0  0  0  0  0  0  0
    2.7160   60.7980   71.4320 C   0  0  0  0  0  0  0  0  0  0  0  0
    2.2470   59.8490   72.2700 N   0  0  0  0  0  0  0  0  0  0  0  0
    1.0170   60.0050   72.7800 C   0  0  0  0  0  0  0  0  0  0  0  0
    0.2030   61.1200   72.4890 C   0  0  0  0  0  0  0  0  0  0  0  0
   -1.0850   61.1900   73.0710 C   0  0  0  0  0  0  0  0  0  0  0  0
   -1.5510   60.1940   73.9260 C   0  0  0  0  0  0  0  0  0  0  0  0
   -0.7380   59.1080   74.2120 C   0  0  0  0  0  0  0  0  0  0  0  0
    0.5320   59.0250   73.6370 C   0  0  0  0  0  0  0  0  0  0  0  0
   -1.2182   69.7478   67.3315 H   0  0  0  0  0  0  0  0  0  0  0  0
   -0.5310   68.6201   66.1139 H   0  0  0  0  0  0  0  0  0  0  0  0
   -2.2913   68.9779   66.1139 H   0  0  0  0  0  0  0  0  0  0  0  0
    0.7907   68.6914   67.9200 H   0  0  0  0  0  0  0  0  0  0  0  0
    1.3083   67.4968   69.2049 H   0  0  0  0  0  0  0  0  0  0  0  0
    2.7459   66.8823   67.5712 H   0  0  0  0  0  0  0  0  0  0  0  0
    1.2906   65.8719   67.1120 H   0  0  0  0  0  0  0  0  0  0  0  0
    2.4666   67.0046   65.1954 H   0  0  0  0  0  0  0  0  0  0  0  0
    0.6926   67.3487   65.3806 H   0  0  0  0  0  0  0  0  0  0  0  0
    1.2532   69.6615   66.0479 H   0  0  0  0  0  0  0  0  0  0  0  0
    2.0908   68.2192   63.3658 H   0  0  0  0  0  0  0  0  0  0  0  0
    2.9135   69.5047   62.3900 H   0  0  0  0  0  0  0  0  0  0  0  0
    3.6576   66.5850   62.7283 H   0  0  0  0  0  0  0  0  0  0  0  0
    3.3615   67.5749   61.2109 H   0  0  0  0  0  0  0  0  0  0  0  0
    5.8405   66.9724   62.5438 H   0  0  0  0  0  0  0  0  0  0  0  0
    5.4966   67.8511   60.9751 H   0  0  0  0  0  0  0  0  0  0  0  0
    6.8832   69.0999   62.7223 H   0  0  0  0  0  0  0  0  0  0  0  0
    5.4517   69.9429   62.0196 H   0  0  0  0  0  0  0  0  0  0  0  0
    2.6855   69.9201   68.1134 H   0  0  0  0  0  0  0  0  0  0  0  0
    4.2640   70.7474   69.8456 H   0  0  0  0  0  0  0  0  0  0  0  0
    6.6724   71.0608   69.2727 H   0  0  0  0  0  0  0  0  0  0  0  0
    7.4662   70.5732   66.9697 H   0  0  0  0  0  0  0  0  0  0  0  0
   -1.6920   66.3498   69.8944 H   0  0  0  0  0  0  0  0  0  0  0  0
   -0.9436   65.1222   68.7877 H   0  0  0  0  0  0  0  0  0  0  0  0
    0.9570   65.0163   69.9787 H   0  0  0  0  0  0  0  0  0  0  0  0
    0.9773   66.8235   70.2394 H   0  0  0  0  0  0  0  0  0  0  0  0
    0.4124   66.5078   72.3474 H   0  0  0  0  0  0  0  0  0  0  0  0
   -1.1516   65.7678   71.7630 H   0  0  0  0  0  0  0  0  0  0  0  0
    1.4327   64.3377   72.4958 H   0  0  0  0  0  0  0  0  0  0  0  0
   -0.1714   64.2026   73.2847 H   0  0  0  0  0  0  0  0  0  0  0  0
   -0.7406   63.4088   70.6438 H   0  0  0  0  0  0  0  0  0  0  0  0
    1.9668   63.6259   69.7579 H   0  0  0  0  0  0  0  0  0  0  0  0
    3.4551   63.4646   70.7823 H   0  0  0  0  0  0  0  0  0  0  0  0
    2.7041   61.9955   68.2432 H   0  0  0  0  0  0  0  0  0  0  0  0
    4.2200   62.9348   68.6838 H   0  0  0  0  0  0  0  0  0  0  0  0
    3.6993   60.1050   68.8639 H   0  0  0  0  0  0  0  0  0  0  0  0
    5.2257   61.0744   69.1485 H   0  0  0  0  0  0  0  0  0  0  0  0
    4.4358   59.5818   71.0614 H   0  0  0  0  0  0  0  0  0  0  0  0
    4.7874   61.3118   71.4333 H   0  0  0  0  0  0  0  0  0  0  0  0
   -1.7323   62.0497   72.8432 H   0  0  0  0  0  0  0  0  0  0  0  0
   -2.5546   60.2684   74.3701 H   0  0  0  0  0  0  0  0  0  0  0  0
   -1.0915   58.3158   74.8884 H   0  0  0  0  0  0  0  0  0  0  0  0
    1.1673   58.1577   73.8696 H   0  0  0  0  0  0  0  0  0  0  0  0
  2  1  1  0
  3  2  2  0
  4  2  1  0
  5  4  1  0
  6  5  1  0
  7  6  1  0
  8  7  1  0
  9  8  1  0
 10  9  1  0
 11 10  1  0
 12 11  1  0
 13 12  1  0
 14 13  1  0
 15 10  2  0
 15 14  1  0
 16 15  1  0
 17 16  2  0
 18  9  2  0
 18 17  1  0
 19 18  1  0
 20 19  2  0
 21 20  1  0
 22 21  2  0
 22 17  1  0
 23  4  1  0
 24 23  1  0
 25 24  1  0
 26 25  1  0
 27 26  1  0
 28 27  1  0
 29 28  1  0
 30 29  1  0
 31 30  1  0
 32 31  1  0
 33 32  1  0
 34 33  1  0
 34 29  2  0
 35 34  1  0
 36 35  2  0
 37 36  1  0
 37 28  2  0
 38 37  1  0
 39 38  2  0
 40 39  1  0
 41 40  2  0
 41 36  1  0
  1 42  1  0
  1 43  1  0
  1 44  1  0
  5 45  1  0
  5 46  1  0
  6 47  1  0
  6 48  1  0
  7 49  1  0
  7 50  1  0
  8 51  1  0
 11 52  1  0
 11 53  1  0
 12 54  1  0
 12 55  1  0
 13 56  1  0
 13 57  1  0
 14 58  1  0
 14 59  1  0
 19 60  1  0
 20 61  1  0
 21 62  1  0
 22 63  1  0
 23 64  1  0
 23 65  1  0
 24 66  1  0
 24 67  1  0
 25 68  1  0
 25 69  1  0
 26 70  1  0
 26 71  1  0
 27 72  1  0
 30 73  1  0
 30 74  1  0
 31 75  1  0
 31 76  1  0
 32 77  1  0
 32 78  1  0
 33 79  1  0
 33 80  1  0
 38 81  1  0
 39 82  1  0
 40 83  1  0
 41 84  1  0
M  END
>  <score>  (1) 
-12.438

$$$$
=
     RDKit          3D

 84 89  0  0  0  0  0  0  0  0999 V2000
    2.2970   61.5760   69.3390 C   0  0  0  0  0  0  0  0  0  0  0  0
    2.5500   63.0530   69.5020 C   0  0  0  0  0  0  0  0  0  0  0  0
    3.5640   63.5570   69.0170 O   0  0  0  0  0  0  0  0  0  0  0  0
    1.6120   63.8030   70.2080 N   0  0  0  0  0  0  0  0  0  0  0  0
    0.4380   63.2390   70.8930 C   0  0  0  0  0  0  0  0  0  0  0  0
    0.3690   63.5830   72.3840 C   0  0  0  0  0  0  0  0  0  0  0  0
   -0.1700   62.4530   73.2570 C   0  0  0  0  0  0  0  0  0  0  0  0
    0.8840   61.8430   74.0930 N   0  0  0  0  0  0  0  0  0  0  0  0
    1.4550   60.6770   73.4960 C   0  0  0  0  0  0  0  0  0  0  0  0
    0.7850   59.4430   73.5170 C   0  0  0  0  0  0  0  0  0  0  0  0
   -0.6220   59.2250   74.0110 C   0  0  0  0  0  0  0  0  0  0  0  0
   -0.7290   57.9520   74.8580 C   0  0  0  0  0  0  0  0  0  0  0  0
    0.0460   56.7490   74.3060 C   0  0  0  0  0  0  0  0  0  0  0  0
    0.7220   57.0090   72.9620 C   0  0  0  0  0  0  0  0  0  0  0  0
    1.4420   58.3340   72.9810 C   0  0  0  0  0  0  0  0  0  0  0  0
    2.6830   58.3740   72.4530 N   0  0  0  0  0  0  0  0  0  0  0  0
    3.3190   59.5540   72.4170 C   0  0  0  0  0  0  0  0  0  0  0  0
    2.7510   60.7460   72.9160 C   0  0  0  0  0  0  0  0  0  0  0  0
    3.4880   61.9470   72.7890 C   0  0  0  0  0  0  0  0  0  0  0  0
    4.7590   61.9670   72.2180 C   0  0  0  0  0  0  0  0  0  0  0  0
    5.3150   60.7840   71.7550 C   0  0  0  0  0  0  0  0  0  0  0  0
    4.5880   59.5950   71.8550 C   0  0  0  0  0  0  0  0  0  0  0  0
    1.9350   65.2110   70.4590 C   0  0  0  0  0  0  0  0  0  0  0  0
    0.9150   66.1550   69.8150 C   0  0  0  0  0  0  0  0  0  0  0  0
    1.5030   67.5140   69.4310 C   0  0  0  0  0  0  0  0  0  0  0  0
    1.2780   67.8800   67.9630 C   0  0  0  0  0  0  0  0  0  0  0  0
    1.6730   69.2780   67.7540 N   0  0  0  0  0  0  0  0  0  0  0  0
    2.8910   69.3720   67.0210 C   0  0  0  0  0  0  0  0  0  0  0  0
    2.9420   69.0670   65.6520 C   0  0  0  0  0  0  0  0  0  0  0  0
    1.7810   68.5790   64.8250 C   0  0  0  0  0  0  0  0  0  0  0  0
    2.1980   67.4650   63.8600 C   0  0  0  0  0  0  0  0  0  0  0  0
    3.5550   67.6800   63.1750 C   0  0  0  0  0  0  0  0  0  0  0  0
    4.2050   69.0210   63.4980 C   0  0  0  0  0  0  0  0  0  0  0  0
    4.1450   69.2940   64.9800 C   0  0  0  0  0  0  0  0  0  0  0  0
    5.2580   69.7870   65.5650 N   0  0  0  0  0  0  0  0  0  0  0  0
    5.2140   70.0680   66.8750 C   0  0  0  0  0  0  0  0  0  0  0  0
    4.0550   69.8850   67.6590 C   0  0  0  0  0  0  0  0  0  0  0  0
    4.1100   70.2050   69.0360 C   0  0  0  0  0  0  0  0  0  0  0  0
    5.2730   70.7030   69.6200 C   0  0  0  0  0  0  0  0  0  0  0  0
    6.4020   70.8880   68.8370 C   0  0  0  0  0  0  0  0  0  0  0  0
    6.3610   70.5680   67.4790 C   0  0  0  0  0  0  0  0  0  0  0  0
    2.2165   61.1062   70.3304 H   0  0  0  0  0  0  0  0  0  0  0  0
    1.3597   61.4236   68.7838 H   0  0  0  0  0  0  0  0  0  0  0  0
    3.1302   61.1203   68.7838 H   0  0  0  0  0  0  0  0  0  0  0  0
   -0.4682   63.6272   70.4050 H   0  0  0  0  0  0  0  0  0  0  0  0
    0.5190   62.1444   70.8197 H   0  0  0  0  0  0  0  0  0  0  0  0
    1.3833   63.8329   72.7287 H   0  0  0  0  0  0  0  0  0  0  0  0
   -0.3317   64.4250   72.4845 H   0  0  0  0  0  0  0  0  0  0  0  0
   -0.9544   62.8564   73.9142 H   0  0  0  0  0  0  0  0  0  0  0  0
   -0.5677   61.6724   72.5918 H   0  0  0  0  0  0  0  0  0  0  0  0
    1.1757   62.2175   75.0071 H   0  0  0  0  0  0  0  0  0  0  0  0
   -0.9237   60.0879   74.6229 H   0  0  0  0  0  0  0  0  0  0  0  0
   -1.2813   59.1148   73.1374 H   0  0  0  0  0  0  0  0  0  0  0  0
   -0.3436   58.1759   75.8636 H   0  0  0  0  0  0  0  0  0  0  0  0
   -1.7910   57.6654   74.8560 H   0  0  0  0  0  0  0  0  0  0  0  0
    0.8216   56.4730   75.0356 H   0  0  0  0  0  0  0  0  0  0  0  0
   -0.6876   55.9457   74.1430 H   0  0  0  0  0  0  0  0  0  0  0  0
    1.4463   56.2062   72.7597 H   0  0  0  0  0  0  0  0  0  0  0  0
   -0.0468   57.0329   72.1756 H   0  0  0  0  0  0  0  0  0  0  0  0
    3.0470   62.8879   73.1498 H   0  0  0  0  0  0  0  0  0  0  0  0
    5.3159   62.9120   72.1353 H   0  0  0  0  0  0  0  0  0  0  0  0
    6.3218   60.7817   71.3119 H   0  0  0  0  0  0  0  0  0  0  0  0
    5.0344   58.6634   71.4771 H   0  0  0  0  0  0  0  0  0  0  0  0
    1.9447   65.3854   71.5450 H   0  0  0  0  0  0  0  0  0  0  0  0
    2.9196   65.4191   70.0150 H   0  0  0  0  0  0  0  0  0  0  0  0
    0.5217   65.6759   68.9063 H   0  0  0  0  0  0  0  0  0  0  0  0
    0.1281   66.3406   70.5609 H   0  0  0  0  0  0  0  0  0  0  0  0
    1.0348   68.2865   70.0587 H   0  0  0  0  0  0  0  0  0  0  0  0
    2.5901   67.4536   69.5878 H   0  0  0  0  0  0  0  0  0  0  0  0
    1.8863   67.2250   67.3220 H   0  0  0  0  0  0  0  0  0  0  0  0
    0.2163   67.7510   67.7060 H   0  0  0  0  0  0  0  0  0  0  0  0
    1.1371   70.0890   68.0944 H   0  0  0  0  0  0  0  0  0  0  0  0
    1.0014   68.1933   65.4984 H   0  0  0  0  0  0  0  0  0  0  0  0
    1.4063   69.4245   64.2295 H   0  0  0  0  0  0  0  0  0  0  0  0
    2.2458   66.5227   64.4255 H   0  0  0  0  0  0  0  0  0  0  0  0
    1.4452   67.4527   63.0580 H   0  0  0  0  0  0  0  0  0  0  0  0
    4.2362   66.8785   63.4969 H   0  0  0  0  0  0  0  0  0  0  0  0
    3.3706   67.6677   62.0906 H   0  0  0  0  0  0  0  0  0  0  0  0
    5.2566   69.0004   63.1760 H   0  0  0  0  0  0  0  0  0  0  0  0
    3.6614   69.8167   62.9675 H   0  0  0  0  0  0  0  0  0  0  0  0
    3.2155   70.0575   69.6590 H   0  0  0  0  0  0  0  0  0  0  0  0
    5.2951   70.9471   70.6924 H   0  0  0  0  0  0  0  0  0  0  0  0
    7.3255   71.2850   69.2837 H   0  0  0  0  0  0  0  0  0  0  0  0
    7.2640   70.7161   66.8686 H   0  0  0  0  0  0  0  0  0  0  0  0
  2  1  1  0
  3  2  2  0
  4  2  1  0
  5  4  1  0
  6  5  1  0
  7  6  1  0
  8  7  1  0
  9  8  1  0
 10  9  1  0
 11 10  1  0
 12 11  1  0
 13 12  1  0
 14 13  1  0
 15 10  2  0
 15 14  1  0
 16 15  1  0
 17 16  2  0
 18  9  2  0
 18 17  1  0
 19 18  1  0
 20 19  2  0
 21 20  1  0
 22 21  2  0
 22 17  1  0
 23  4  1  0
 24 23  1  0
 25 24  1  0
 26 25  1  0
 27 26  1  0
 28 27  1  0
 29 28  1  0
 30 29  1  0
 31 30  1  0
 32 31  1  0
 33 32  1  0
 34 33  1  0
 34 29  2  0
 35 34  1  0
 36 35  2  0
 37 36  1  0
 37 28  2  0
 38 37  1  0
 39 38  2  0
 40 39  1  0
 41 40  2  0
 41 36  1  0
  1 42  1  0
  1 43  1  0
  1 44  1  0
  5 45  1  0
  5 46  1  0
  6 47  1  0
  6 48  1  0
  7 49  1  0
  7 50  1  0
  8 51  1  0
 11 52  1  0
 11 53  1  0
 12 54  1  0
 12 55  1  0
 13 56  1  0
 13 57  1  0
 14 58  1  0
 14 59  1  0
 19 60  1  0
 20 61  1  0
 21 62  1  0
 22 63  1  0
 23 64  1  0
 23 65  1  0
 24 66  1  0
 24 67  1  0
 25 68  1  0
 25 69  1  0
 26 70  1  0
 26 71  1  0
 27 72  1  0
 30 73  1  0
 30 74  1  0
 31 75  1  0
 31 76  1  0
 32 77  1  0
 32 78  1  0
 33 79  1  0
 33 80  1  0
 38 81  1  0
 39 82  1  0
 40 83  1  0
 41 84  1  0
M  END
>  <score>  (2) 
-11.83

$$$$
=
     RDKit          3D

 84 89  0  0  0  0  0  0  0  0999 V2000
    2.3790   61.6750   69.2820 C   0  0  0  0  0  0  0  0  0  0  0  0
    2.5600   63.1570   69.4860 C   0  0  0  0  0  0  0  0  0  0  0  0
    3.5620   63.7180   69.0400 O   0  0  0  0  0  0  0  0  0  0  0  0
    1.5710   63.8460   70.1860 N   0  0  0  0  0  0  0  0  0  0  0  0
    0.4080   63.2120   70.8270 C   0  0  0  0  0  0  0  0  0  0  0  0
    0.2770   63.5290   72.3190 C   0  0  0  0  0  0  0  0  0  0  0  0
   -0.2250   62.3580   73.1600 C   0  0  0  0  0  0  0  0  0  0  0  0
    0.8410   61.7820   74.0060 N   0  0  0  0  0  0  0  0  0  0  0  0
    1.4630   60.6430   73.4100 C   0  0  0  0  0  0  0  0  0  0  0  0
    0.8380   59.3850   73.4130 C   0  0  0  0  0  0  0  0  0  0  0  0
   -0.5660   59.1110   73.8860 C   0  0  0  0  0  0  0  0  0  0  0  0
   -0.6370   57.8300   74.7230 C   0  0  0  0  0  0  0  0  0  0  0  0
    0.1900   56.6600   74.1740 C   0  0  0  0  0  0  0  0  0  0  0  0
    0.8740   56.9550   72.8410 C   0  0  0  0  0  0  0  0  0  0  0  0
    1.5440   58.3040   72.8800 C   0  0  0  0  0  0  0  0  0  0  0  0
    2.7900   58.3950   72.3690 N   0  0  0  0  0  0  0  0  0  0  0  0
    3.3820   59.5970   72.3510 C   0  0  0  0  0  0  0  0  0  0  0  0
    2.7640   60.7650   72.8490 C   0  0  0  0  0  0  0  0  0  0  0  0
    3.4570   61.9930   72.7410 C   0  0  0  0  0  0  0  0  0  0  0  0
    4.7340   62.0640   72.1880 C   0  0  0  0  0  0  0  0  0  0  0  0
    5.3400   60.9060   71.7250 C   0  0  0  0  0  0  0  0  0  0  0  0
    4.6570   59.6900   71.8070 C   0  0  0  0  0  0  0  0  0  0  0  0
    1.8240   65.2600   70.4780 C   0  0  0  0  0  0  0  0  0  0  0  0
    0.7980   66.1750   69.8020 C   0  0  0  0  0  0  0  0  0  0  0  0
    1.4060   67.4630   69.2440 C   0  0  0  0  0  0  0  0  0  0  0  0
    1.1200   67.6750   67.7570 C   0  0  0  0  0  0  0  0  0  0  0  0
    1.2970   69.0960   67.4350 N   0  0  0  0  0  0  0  0  0  0  0  0
    2.5120   69.3220   66.7260 C   0  0  0  0  0  0  0  0  0  0  0  0
    3.6760   69.7410   67.3910 C   0  0  0  0  0  0  0  0  0  0  0  0
    3.7770   70.0370   68.8650 C   0  0  0  0  0  0  0  0  0  0  0  0
    4.6170   71.2890   69.1370 C   0  0  0  0  0  0  0  0  0  0  0  0
    5.8750   71.4220   68.2670 C   0  0  0  0  0  0  0  0  0  0  0  0
    6.1250   70.2260   67.3540 C   0  0  0  0  0  0  0  0  0  0  0  0
    4.8540   69.8280   66.6470 C   0  0  0  0  0  0  0  0  0  0  0  0
    4.9420   69.5350   65.3320 N   0  0  0  0  0  0  0  0  0  0  0  0
    3.8300   69.1460   64.6930 C   0  0  0  0  0  0  0  0  0  0  0  0
    2.5820   69.0160   65.3390 C   0  0  0  0  0  0  0  0  0  0  0  0
    1.4630   68.6040   64.5760 C   0  0  0  0  0  0  0  0  0  0  0  0
    1.5760   68.3170   63.2170 C   0  0  0  0  0  0  0  0  0  0  0  0
    2.8100   68.4390   62.5960 C   0  0  0  0  0  0  0  0  0  0  0  0
    3.9190   68.8520   63.3380 C   0  0  0  0  0  0  0  0  0  0  0  0
    2.3179   61.1750   70.2599 H   0  0  0  0  0  0  0  0  0  0  0  0
    1.4519   61.4930   68.7186 H   0  0  0  0  0  0  0  0  0  0  0  0
    3.2350   61.2752   68.7186 H   0  0  0  0  0  0  0  0  0  0  0  0
   -0.5022   63.5605   70.3170 H   0  0  0  0  0  0  0  0  0  0  0  0
    0.5477   62.1243   70.7412 H   0  0  0  0  0  0  0  0  0  0  0  0
    1.2657   63.8280   72.6973 H   0  0  0  0  0  0  0  0  0  0  0  0
   -0.4710   64.3304   72.4100 H   0  0  0  0  0  0  0  0  0  0  0  0
   -1.0402   62.7112   73.8086 H   0  0  0  0  0  0  0  0  0  0  0  0
   -0.5726   61.5726   72.4727 H   0  0  0  0  0  0  0  0  0  0  0  0
    1.1067   62.1611   74.9261 H   0  0  0  0  0  0  0  0  0  0  0  0
   -0.9082   59.9578   74.4990 H   0  0  0  0  0  0  0  0  0  0  0  0
   -1.2086   58.9818   73.0026 H   0  0  0  0  0  0  0  0  0  0  0  0
   -0.2739   58.0613   75.7352 H   0  0  0  0  0  0  0  0  0  0  0  0
   -1.6875   57.5041   74.7046 H   0  0  0  0  0  0  0  0  0  0  0  0
    0.9654   56.4079   74.9124 H   0  0  0  0  0  0  0  0  0  0  0  0
   -0.5105   55.8308   73.9958 H   0  0  0  0  0  0  0  0  0  0  0  0
    1.6298   56.1808   72.6426 H   0  0  0  0  0  0  0  0  0  0  0  0
    0.1156   56.9569   72.0442 H   0  0  0  0  0  0  0  0  0  0  0  0
    2.9764   62.9142   73.1022 H   0  0  0  0  0  0  0  0  0  0  0  0
    5.2564   63.0296   72.1194 H   0  0  0  0  0  0  0  0  0  0  0  0
    6.3521   60.9445   71.2958 H   0  0  0  0  0  0  0  0  0  0  0  0
    5.1435   58.7786   71.4294 H   0  0  0  0  0  0  0  0  0  0  0  0
    1.7744   65.4129   71.5662 H   0  0  0  0  0  0  0  0  0  0  0  0
    2.8196   65.5162   70.0867 H   0  0  0  0  0  0  0  0  0  0  0  0
    0.3309   65.6226   68.9734 H   0  0  0  0  0  0  0  0  0  0  0  0
    0.0679   66.4676   70.5710 H   0  0  0  0  0  0  0  0  0  0  0  0
    0.9922   68.3149   69.8036 H   0  0  0  0  0  0  0  0  0  0  0  0
    2.4972   67.3823   69.3565 H   0  0  0  0  0  0  0  0  0  0  0  0
    1.8172   67.0712   67.1575 H   0  0  0  0  0  0  0  0  0  0  0  0
    0.0887   67.3676   67.5290 H   0  0  0  0  0  0  0  0  0  0  0  0
    0.6275   69.8362   67.6894 H   0  0  0  0  0  0  0  0  0  0  0  0
    2.7651   70.1927   69.2672 H   0  0  0  0  0  0  0  0  0  0  0  0
    4.2687   69.1824   69.3527 H   0  0  0  0  0  0  0  0  0  0  0  0
    3.9838   72.1709   68.9601 H   0  0  0  0  0  0  0  0  0  0  0  0
    4.9668   71.2072   70.1767 H   0  0  0  0  0  0  0  0  0  0  0  0
    5.7692   72.3198   67.6403 H   0  0  0  0  0  0  0  0  0  0  0  0
    6.7324   71.4842   68.9533 H   0  0  0  0  0  0  0  0  0  0  0  0
    6.8865   70.4937   66.6067 H   0  0  0  0  0  0  0  0  0  0  0  0
    6.4738   69.3793   67.9635 H   0  0  0  0  0  0  0  0  0  0  0  0
    0.4831   68.5083   65.0665 H   0  0  0  0  0  0  0  0  0  0  0  0
    0.6946   67.9967   62.6422 H   0  0  0  0  0  0  0  0  0  0  0  0
    2.9149   68.2117   61.5249 H   0  0  0  0  0  0  0  0  0  0  0  0
    4.8923   68.9474   62.8343 H   0  0  0  0  0  0  0  0  0  0  0  0
  2  1  1  0
  3  2  2  0
  4  2  1  0
  5  4  1  0
  6  5  1  0
  7  6  1  0
  8  7  1  0
  9  8  1  0
 10  9  1  0
 11 10  1  0
 12 11  1  0
 13 12  1  0
 14 13  1  0
 15 10  2  0
 15 14  1  0
 16 15  1  0
 17 16  2  0
 18  9  2  0
 18 17  1  0
 19 18  1  0
 20 19  2  0
 21 20  1  0
 22 21  2  0
 22 17  1  0
 23  4  1  0
 24 23  1  0
 25 24  1  0
 26 25  1  0
 27 26  1  0
 28 27  1  0
 29 28  1  0
 30 29  1  0
 31 30  1  0
 32 31  1  0
 33 32  1  0
 34 33  1  0
 34 29  2  0
 35 34  1  0
 36 35  2  0
 37 36  1  0
 37 28  2  0
 38 37  1  0
 39 38  2  0
 40 39  1  0
 41 40  2  0
 41 36  1  0
  1 42  1  0
  1 43  1  0
  1 44  1  0
  5 45  1  0
  5 46  1  0
  6 47  1  0
  6 48  1  0
  7 49  1  0
  7 50  1  0
  8 51  1  0
 11 52  1  0
 11 53  1  0
 12 54  1  0
 12 55  1  0
 13 56  1  0
 13 57  1  0
 14 58  1  0
 14 59  1  0
 19 60  1  0
 20 61  1  0
 21 62  1  0
 22 63  1  0
 23 64  1  0
 23 65  1  0
 24 66  1  0
 24 67  1  0
 25 68  1  0
 25 69  1  0
 26 70  1  0
 26 71  1  0
 27 72  1  0
 30 73  1  0
 30 74  1  0
 31 75  1  0
 31 76  1  0
 32 77  1  0
 32 78  1  0
 33 79  1  0
 33 80  1  0
 38 81  1  0
 39 82  1  0
 40 83  1  0
 41 84  1  0
M  END
>  <score>  (3) 
-11.794

$$$$
=
     RDKit          3D

 84 89  0  0  0  0  0  0  0  0999 V2000
   -2.7310   68.3530   66.1900 C   0  0  0  0  0  0  0  0  0  0  0  0
   -2.3570   67.4570   67.3430 C   0  0  0  0  0  0  0  0  0  0  0  0
   -3.2410   66.8780   67.9780 O   0  0  0  0  0  0  0  0  0  0  0  0
   -1.0060   67.3190   67.6530 N   0  0  0  0  0  0  0  0  0  0  0  0
    0.0800   68.0630   66.9960 C   0  0  0  0  0  0  0  0  0  0  0  0
    0.2000   69.5180   67.4620 C   0  0  0  0  0  0  0  0  0  0  0  0
    1.6320   69.9570   67.7560 C   0  0  0  0  0  0  0  0  0  0  0  0
    2.6140   68.8930   67.4590 N   0  0  0  0  0  0  0  0  0  0  0  0
    3.7420   69.3740   66.7270 C   0  0  0  0  0  0  0  0  0  0  0  0
    3.8460   69.1840   65.3390 C   0  0  0  0  0  0  0  0  0  0  0  0
    2.7670   68.6130   64.4550 C   0  0  0  0  0  0  0  0  0  0  0  0
    3.3410   67.6220   63.4370 C   0  0  0  0  0  0  0  0  0  0  0  0
    4.6600   68.0620   62.7890 C   0  0  0  0  0  0  0  0  0  0  0  0
    5.1280   69.4520   63.2120 C   0  0  0  0  0  0  0  0  0  0  0  0
    5.0150   69.6130   64.7070 C   0  0  0  0  0  0  0  0  0  0  0  0
    6.0520   70.1910   65.3490 N   0  0  0  0  0  0  0  0  0  0  0  0
    5.9490   70.3870   66.6710 C   0  0  0  0  0  0  0  0  0  0  0  0
    4.8120   70.0070   67.4170 C   0  0  0  0  0  0  0  0  0  0  0  0
    4.7840   70.3000   68.8010 C   0  0  0  0  0  0  0  0  0  0  0  0
    5.8590   70.9190   69.4360 C   0  0  0  0  0  0  0  0  0  0  0  0
    6.9800   71.2640   68.6970 C   0  0  0  0  0  0  0  0  0  0  0  0
    7.0100   70.9990   67.3260 C   0  0  0  0  0  0  0  0  0  0  0  0
   -0.6730   66.5420   68.8500 C   0  0  0  0  0  0  0  0  0  0  0  0
    0.6950   66.9310   69.4210 C   0  0  0  0  0  0  0  0  0  0  0  0
    1.3950   65.7860   70.1560 C   0  0  0  0  0  0  0  0  0  0  0  0
    0.4330   64.8850   70.9320 C   0  0  0  0  0  0  0  0  0  0  0  0
    0.5340   63.5170   70.4090 N   0  0  0  0  0  0  0  0  0  0  0  0
    1.2160   62.6600   71.3200 C   0  0  0  0  0  0  0  0  0  0  0  0
    0.5110   61.8270   72.2030 C   0  0  0  0  0  0  0  0  0  0  0  0
   -0.9890   61.7650   72.3290 C   0  0  0  0  0  0  0  0  0  0  0  0
   -1.4340   61.6700   73.7920 C   0  0  0  0  0  0  0  0  0  0  0  0
   -0.5780   60.7430   74.6670 C   0  0  0  0  0  0  0  0  0  0  0  0
    0.5050   59.9940   73.8980 C   0  0  0  0  0  0  0  0  0  0  0  0
    1.2480   60.9330   72.9820 C   0  0  0  0  0  0  0  0  0  0  0  0
    2.5930   60.8220   72.9390 N   0  0  0  0  0  0  0  0  0  0  0  0
    3.2690   61.6250   72.1050 C   0  0  0  0  0  0  0  0  0  0  0  0
    2.6350   62.5640   71.2650 C   0  0  0  0  0  0  0  0  0  0  0  0
    3.4360   63.3720   70.4240 C   0  0  0  0  0  0  0  0  0  0  0  0
    4.8240   63.2470   70.4030 C   0  0  0  0  0  0  0  0  0  0  0  0
    5.4340   62.3130   71.2270 C   0  0  0  0  0  0  0  0  0  0  0  0
    4.6530   61.5160   72.0660 C   0  0  0  0  0  0  0  0  0  0  0  0
   -3.1276   69.3030   66.5776 H   0  0  0  0  0  0  0  0  0  0  0  0
   -1.8404   68.5509   65.5755 H   0  0  0  0  0  0  0  0  0  0  0  0
   -3.4980   67.8590   65.5755 H   0  0  0  0  0  0  0  0  0  0  0  0
    1.0300   67.5508   67.2087 H   0  0  0  0  0  0  0  0  0  0  0  0
   -0.1520   68.0879   65.9210 H   0  0  0  0  0  0  0  0  0  0  0  0
   -0.2069   70.1688   66.6740 H   0  0  0  0  0  0  0  0  0  0  0  0
   -0.3588   69.5981   68.4061 H   0  0  0  0  0  0  0  0  0  0  0  0
    1.8663   70.8374   67.1396 H   0  0  0  0  0  0  0  0  0  0  0  0
    1.7004   70.1899   68.8289 H   0  0  0  0  0  0  0  0  0  0  0  0
    2.4975   67.9114   67.7485 H   0  0  0  0  0  0  0  0  0  0  0  0
    2.0285   68.0930   65.0829 H   0  0  0  0  0  0  0  0  0  0  0  0
    2.2982   69.4414   63.9037 H   0  0  0  0  0  0  0  0  0  0  0  0
    3.5139   66.6647   63.9504 H   0  0  0  0  0  0  0  0  0  0  0  0
    2.6039   67.5494   62.6238 H   0  0  0  0  0  0  0  0  0  0  0  0
    5.4394   67.3362   63.0644 H   0  0  0  0  0  0  0  0  0  0  0  0
    4.4827   68.1031   61.7042 H   0  0  0  0  0  0  0  0  0  0  0  0
    6.1773   69.5882   62.9112 H   0  0  0  0  0  0  0  0  0  0  0  0
    4.4935   70.2059   62.7232 H   0  0  0  0  0  0  0  0  0  0  0  0
    3.8935   70.0331   69.3890 H   0  0  0  0  0  0  0  0  0  0  0  0
    5.8184   71.1320   70.5144 H   0  0  0  0  0  0  0  0  0  0  0  0
    7.8402   71.7433   69.1872 H   0  0  0  0  0  0  0  0  0  0  0  0
    7.9011   71.2837   66.7473 H   0  0  0  0  0  0  0  0  0  0  0  0
   -1.4421   66.7212   69.6158 H   0  0  0  0  0  0  0  0  0  0  0  0
   -0.6351   65.4796   68.5674 H   0  0  0  0  0  0  0  0  0  0  0  0
    1.3389   67.2579   68.5912 H   0  0  0  0  0  0  0  0  0  0  0  0
    0.5243   67.7319   70.1555 H   0  0  0  0  0  0  0  0  0  0  0  0
    1.9286   65.1712   69.4162 H   0  0  0  0  0  0  0  0  0  0  0  0
    2.0780   66.2399   70.8892 H   0  0  0  0  0  0  0  0  0  0  0  0
    0.6999   64.8927   71.9991 H   0  0  0  0  0  0  0  0  0  0  0  0
   -0.5971   65.2528   70.8154 H   0  0  0  0  0  0  0  0  0  0  0  0
    0.1591   63.2150   69.4984 H   0  0  0  0  0  0  0  0  0  0  0  0
   -1.4215   62.6731   71.8836 H   0  0  0  0  0  0  0  0  0  0  0  0
   -1.3389   60.8627   71.8061 H   0  0  0  0  0  0  0  0  0  0  0  0
   -1.3984   62.6798   74.2267 H   0  0  0  0  0  0  0  0  0  0  0  0
   -2.4454   61.2376   73.7804 H   0  0  0  0  0  0  0  0  0  0  0  0
   -0.0929   61.3512   75.4446 H   0  0  0  0  0  0  0  0  0  0  0  0
   -1.2552   59.9840   75.0858 H   0  0  0  0  0  0  0  0  0  0  0  0
    1.2135   59.5487   74.6119 H   0  0  0  0  0  0  0  0  0  0  0  0
    0.0315   59.2071   73.2925 H   0  0  0  0  0  0  0  0  0  0  0  0
    2.9528   64.1150   69.7725 H   0  0  0  0  0  0  0  0  0  0  0  0
    5.4293   63.8825   69.7398 H   0  0  0  0  0  0  0  0  0  0  0  0
    6.5282   62.2007   71.2195 H   0  0  0  0  0  0  0  0  0  0  0  0
    5.1487   60.7796   72.7157 H   0  0  0  0  0  0  0  0  0  0  0  0
  2  1  1  0
  3  2  2  0
  4  2  1  0
  5  4  1  0
  6  5  1  0
  7  6  1  0
  8  7  1  0
  9  8  1  0
 10  9  1  0
 11 10  1  0
 12 11  1  0
 13 12  1  0
 14 13  1  0
 15 10  2  0
 15 14  1  0
 16 15  1  0
 17 16  2  0
 18  9  2  0
 18 17  1  0
 19 18  1  0
 20 19  2  0
 21 20  1  0
 22 21  2  0
 22 17  1  0
 23  4  1  0
 24 23  1  0
 25 24  1  0
 26 25  1  0
 27 26  1  0
 28 27  1  0
 29 28  1  0
 30 29  1  0
 31 30  1  0
 32 31  1  0
 33 32  1  0
 34 33  1  0
 34 29  2  0
 35 34  1  0
 36 35  2  0
 37 36  1  0
 37 28  2  0
 38 37  1  0
 39 38  2  0
 40 39  1  0
 41 40  2  0
 41 36  1  0
  1 42  1  0
  1 43  1  0
  1 44  1  0
  5 45  1  0
  5 46  1  0
  6 47  1  0
  6 48  1  0
  7 49  1  0
  7 50  1  0
  8 51  1  0
 11 52  1  0
 11 53  1  0
 12 54  1  0
 12 55  1  0
 13 56  1  0
 13 57  1  0
 14 58  1  0
 14 59  1  0
 19 60  1  0
 20 61  1  0
 21 62  1  0
 22 63  1  0
 23 64  1  0
 23 65  1  0
 24 66  1  0
 24 67  1  0
 25 68  1  0
 25 69  1  0
 26 70  1  0
 26 71  1  0
 27 72  1  0
 30 73  1  0
 30 74  1  0
 31 75  1  0
 31 76  1  0
 32 77  1  0
 32 78  1  0
 33 79  1  0
 33 80  1  0
 38 81  1  0
 39 82  1  0
 40 83  1  0
 41 84  1  0
M  END
>  <score>  (4) 
-11.599

$$$$
=
     RDKit          3D

 84 89  0  0  0  0  0  0  0  0999 V2000
   -1.1770   68.3630   66.0570 C   0  0  0  0  0  0  0  0  0  0  0  0
   -1.5980   67.5820   67.2760 C   0  0  0  0  0  0  0  0  0  0  0  0
   -2.7940   67.4750   67.5500 O   0  0  0  0  0  0  0  0  0  0  0  0
   -0.6000   67.0060   68.0600 N   0  0  0  0  0  0  0  0  0  0  0  0
    0.8430   67.1880   67.8380 C   0  0  0  0  0  0  0  0  0  0  0  0
    1.4840   68.2270   68.7630 C   0  0  0  0  0  0  0  0  0  0  0  0
    1.9880   69.4730   68.0390 C   0  0  0  0  0  0  0  0  0  0  0  0
    2.0400   69.2840   66.5750 N   0  0  0  0  0  0  0  0  0  0  0  0
    3.3620   69.4140   66.0500 C   0  0  0  0  0  0  0  0  0  0  0  0
    4.4280   69.8450   66.8560 C   0  0  0  0  0  0  0  0  0  0  0  0
    4.3590   70.0700   68.3440 C   0  0  0  0  0  0  0  0  0  0  0  0
    5.0880   71.3540   68.7530 C   0  0  0  0  0  0  0  0  0  0  0  0
    6.4270   71.5840   68.0410 C   0  0  0  0  0  0  0  0  0  0  0  0
    6.8390   70.4480   67.1090 C   0  0  0  0  0  0  0  0  0  0  0  0
    5.6750   70.0220   66.2510 C   0  0  0  0  0  0  0  0  0  0  0  0
    5.9130   69.8130   64.9390 N   0  0  0  0  0  0  0  0  0  0  0  0
    4.9010   69.3870   64.1700 C   0  0  0  0  0  0  0  0  0  0  0  0
    3.6000   69.1600   64.6710 C   0  0  0  0  0  0  0  0  0  0  0  0
    2.6140   68.6670   63.7850 C   0  0  0  0  0  0  0  0  0  0  0  0
    2.8920   68.4360   62.4390 C   0  0  0  0  0  0  0  0  0  0  0  0
    4.1670   68.6870   61.9550 C   0  0  0  0  0  0  0  0  0  0  0  0
    5.1550   69.1540   62.8250 C   0  0  0  0  0  0  0  0  0  0  0  0
   -1.0220   66.3560   69.3040 C   0  0  0  0  0  0  0  0  0  0  0  0
    0.0950   65.4980   69.9070 C   0  0  0  0  0  0  0  0  0  0  0  0
    0.2380   65.6630   71.4210 C   0  0  0  0  0  0  0  0  0  0  0  0
    0.5080   64.3470   72.1530 C   0  0  0  0  0  0  0  0  0  0  0  0
    0.0330   63.2330   71.3230 N   0  0  0  0  0  0  0  0  0  0  0  0
    0.7680   62.0410   71.5830 C   0  0  0  0  0  0  0  0  0  0  0  0
    2.0550   61.8490   71.0580 C   0  0  0  0  0  0  0  0  0  0  0  0
    2.7790   62.8140   70.1550 C   0  0  0  0  0  0  0  0  0  0  0  0
    3.5180   62.0910   69.0240 C   0  0  0  0  0  0  0  0  0  0  0  0
    4.2270   60.7960   69.4440 C   0  0  0  0  0  0  0  0  0  0  0  0
    4.1590   60.5100   70.9400 C   0  0  0  0  0  0  0  0  0  0  0  0
    2.7550   60.7070   71.4530 C   0  0  0  0  0  0  0  0  0  0  0  0
    2.2700   59.7790   72.3050 N   0  0  0  0  0  0  0  0  0  0  0  0
    1.0360   59.9550   72.7980 C   0  0  0  0  0  0  0  0  0  0  0  0
    0.2350   61.0700   72.4770 C   0  0  0  0  0  0  0  0  0  0  0  0
   -1.0590   61.1620   73.0440 C   0  0  0  0  0  0  0  0  0  0  0  0
   -1.5410   60.1870   73.9140 C   0  0  0  0  0  0  0  0  0  0  0  0
   -0.7400   59.1000   74.2300 C   0  0  0  0  0  0  0  0  0  0  0  0
    0.5340   58.9960   73.6700 C   0  0  0  0  0  0  0  0  0  0  0  0
   -0.6767   69.2910   66.3708 H   0  0  0  0  0  0  0  0  0  0  0  0
   -0.4830   67.7577   65.4554 H   0  0  0  0  0  0  0  0  0  0  0  0
   -2.0641   68.6101   65.4554 H   0  0  0  0  0  0  0  0  0  0  0  0
    1.3437   66.2223   68.0014 H   0  0  0  0  0  0  0  0  0  0  0  0
    0.9651   67.5564   66.8087 H   0  0  0  0  0  0  0  0  0  0  0  0
    0.7351   68.5376   69.5064 H   0  0  0  0  0  0  0  0  0  0  0  0
    2.3613   67.7477   69.2219 H   0  0  0  0  0  0  0  0  0  0  0  0
    1.3125   70.3114   68.2643 H   0  0  0  0  0  0  0  0  0  0  0  0
    3.0102   69.6776   68.3899 H   0  0  0  0  0  0  0  0  0  0  0  0
    1.2130   69.0806   65.9957 H   0  0  0  0  0  0  0  0  0  0  0  0
    3.3038   70.1468   68.6452 H   0  0  0  0  0  0  0  0  0  0  0  0
    4.8486   69.2214   68.8441 H   0  0  0  0  0  0  0  0  0  0  0  0
    4.4304   72.2073   68.5306 H   0  0  0  0  0  0  0  0  0  0  0  0
    5.3182   71.2535   69.8239 H   0  0  0  0  0  0  0  0  0  0  0  0
    6.3489   72.5069   67.4476 H   0  0  0  0  0  0  0  0  0  0  0  0
    7.1966   71.6472   68.8244 H   0  0  0  0  0  0  0  0  0  0  0  0
    7.6599   70.7902   66.4617 H   0  0  0  0  0  0  0  0  0  0  0  0
    7.1670   69.5909   67.7154 H   0  0  0  0  0  0  0  0  0  0  0  0
    1.6034   68.4609   64.1674 H   0  0  0  0  0  0  0  0  0  0  0  0
    2.1074   68.0581   61.7669 H   0  0  0  0  0  0  0  0  0  0  0  0
    4.3989   68.5194   60.8928 H   0  0  0  0  0  0  0  0  0  0  0  0
    6.1651   69.3429   62.4326 H   0  0  0  0  0  0  0  0  0  0  0  0
   -1.3074   67.1306   70.0310 H   0  0  0  0  0  0  0  0  0  0  0  0
   -1.8718   65.6967   69.0732 H   0  0  0  0  0  0  0  0  0  0  0  0
   -0.1214   64.4415   69.6903 H   0  0  0  0  0  0  0  0  0  0  0  0
    1.0404   65.8304   69.4535 H   0  0  0  0  0  0  0  0  0  0  0  0
    1.0737   66.3501   71.6194 H   0  0  0  0  0  0  0  0  0  0  0  0
   -0.7194   66.0531   71.7969 H   0  0  0  0  0  0  0  0  0  0  0  0
    1.5880   64.2393   72.3321 H   0  0  0  0  0  0  0  0  0  0  0  0
   -0.0198   64.3432   73.1181 H   0  0  0  0  0  0  0  0  0  0  0  0
   -0.7343   63.3044   70.6395 H   0  0  0  0  0  0  0  0  0  0  0  0
    2.0471   63.5077   69.7155 H   0  0  0  0  0  0  0  0  0  0  0  0
    3.5231   63.3541   70.7588 H   0  0  0  0  0  0  0  0  0  0  0  0
    2.7864   61.8423   68.2411 H   0  0  0  0  0  0  0  0  0  0  0  0
    4.3052   62.7777   68.6794 H   0  0  0  0  0  0  0  0  0  0  0  0
    3.7590   59.9562   68.9095 H   0  0  0  0  0  0  0  0  0  0  0  0
    5.2905   60.9185   69.1910 H   0  0  0  0  0  0  0  0  0  0  0  0
    4.4690   59.4708   71.1241 H   0  0  0  0  0  0  0  0  0  0  0  0
    4.8302   61.2052   71.4655 H   0  0  0  0  0  0  0  0  0  0  0  0
   -1.6973   62.0218   72.7921 H   0  0  0  0  0  0  0  0  0  0  0  0
   -2.5482   60.2784   74.3466 H   0  0  0  0  0  0  0  0  0  0  0  0
   -1.1067   58.3242   74.9182 H   0  0  0  0  0  0  0  0  0  0  0  0
    1.1600   58.1286   73.9265 H   0  0  0  0  0  0  0  0  0  0  0  0
  2  1  1  0
  3  2  2  0
  4  2  1  0
  5  4  1  0
  6  5  1  0
  7  6  1  0
  8  7  1  0
  9  8  1  0
 10  9  1  0
 11 10  1  0
 12 11  1  0
 13 12  1  0
 14 13  1  0
 15 10  2  0
 15 14  1  0
 16 15  1  0
 17 16  2  0
 18  9  2  0
 18 17  1  0
 19 18  1  0
 20 19  2  0
 21 20  1  0
 22 21  2  0
 22 17  1  0
 23  4  1  0
 24 23  1  0
 25 24  1  0
 26 25  1  0
 27 26  1  0
 28 27  1  0
 29 28  1  0
 30 29  1  0
 31 30  1  0
 32 31  1  0
 33 32  1  0
 34 33  1  0
 34 29  2  0
 35 34  1  0
 36 35  2  0
 37 36  1  0
 37 28  2  0
 38 37  1  0
 39 38  2  0
 40 39  1  0
 41 40  2  0
 41 36  1  0
  1 42  1  0
  1 43  1  0
  1 44  1  0
  5 45  1  0
  5 46  1  0
  6 47  1  0
  6 48  1  0
  7 49  1  0
  7 50  1  0
  8 51  1  0
 11 52  1  0
 11 53  1  0
 12 54  1  0
 12 55  1  0
 13 56  1  0
 13 57  1  0
 14 58  1  0
 14 59  1  0
 19 60  1  0
 20 61  1  0
 21 62  1  0
 22 63  1  0
 23 64  1  0
 23 65  1  0
 24 66  1  0
 24 67  1  0
 25 68  1  0
 25 69  1  0
 26 70  1  0
 26 71  1  0
 27 72  1  0
 30 73  1  0
 30 74  1  0
 31 75  1  0
 31 76  1  0
 32 77  1  0
 32 78  1  0
 33 79  1  0
 33 80  1  0
 38 81  1  0
 39 82  1  0
 40 83  1  0
 41 84  1  0
M  END
>  <score>  (5) 
-11.57

$$$$
=
     RDKit          3D

 84 89  0  0  0  0  0  0  0  0999 V2000
    2.3130   61.9670   70.4990 C   0  0  0  0  0  0  0  0  0  0  0  0
    2.3990   63.4230   70.1160 C   0  0  0  0  0  0  0  0  0  0  0  0
    3.4050   63.8440   69.5430 O   0  0  0  0  0  0  0  0  0  0  0  0
    1.3220   64.2470   70.4320 N   0  0  0  0  0  0  0  0  0  0  0  0
    0.1440   63.8210   71.2030 C   0  0  0  0  0  0  0  0  0  0  0  0
    0.3250   63.9340   72.7200 C   0  0  0  0  0  0  0  0  0  0  0  0
    0.3040   62.5920   73.4480 C   0  0  0  0  0  0  0  0  0  0  0  0
   -0.2690   61.5150   72.6150 N   0  0  0  0  0  0  0  0  0  0  0  0
   -0.4940   60.3110   73.3510 C   0  0  0  0  0  0  0  0  0  0  0  0
    0.4850   59.3060   73.4220 C   0  0  0  0  0  0  0  0  0  0  0  0
    1.8900   59.4190   72.8880 C   0  0  0  0  0  0  0  0  0  0  0  0
    2.3220   58.1370   72.1680 C   0  0  0  0  0  0  0  0  0  0  0  0
    1.9110   56.8380   72.8720 C   0  0  0  0  0  0  0  0  0  0  0  0
    1.2120   57.0520   74.2130 C   0  0  0  0  0  0  0  0  0  0  0  0
    0.1610   58.1260   74.0940 C   0  0  0  0  0  0  0  0  0  0  0  0
   -1.0360   57.8900   74.6720 N   0  0  0  0  0  0  0  0  0  0  0  0
   -1.9660   58.8540   74.6180 C   0  0  0  0  0  0  0  0  0  0  0  0
   -1.7500   60.0940   73.9780 C   0  0  0  0  0  0  0  0  0  0  0  0
   -2.7820   61.0610   74.0180 C   0  0  0  0  0  0  0  0  0  0  0  0
   -4.0010   60.8020   74.6410 C   0  0  0  0  0  0  0  0  0  0  0  0
   -4.2090   59.5710   75.2450 C   0  0  0  0  0  0  0  0  0  0  0  0
   -3.1900   58.6160   75.2300 C   0  0  0  0  0  0  0  0  0  0  0  0
    1.4760   65.6800   70.1610 C   0  0  0  0  0  0  0  0  0  0  0  0
    0.2020   66.2890   69.5680 C   0  0  0  0  0  0  0  0  0  0  0  0
    0.4710   67.4600   68.6220 C   0  0  0  0  0  0  0  0  0  0  0  0
    1.8060   68.1590   68.8850 C   0  0  0  0  0  0  0  0  0  0  0  0
    1.8470   69.4120   68.1210 N   0  0  0  0  0  0  0  0  0  0  0  0
    2.9670   69.4500   67.2410 C   0  0  0  0  0  0  0  0  0  0  0  0
    2.8450   69.0810   65.8920 C   0  0  0  0  0  0  0  0  0  0  0  0
    1.5840   68.5780   65.2380 C   0  0  0  0  0  0  0  0  0  0  0  0
    1.8650   67.4130   64.2830 C   0  0  0  0  0  0  0  0  0  0  0  0
    3.1300   67.5710   63.4280 C   0  0  0  0  0  0  0  0  0  0  0  0
    3.8310   68.9140   63.6040 C   0  0  0  0  0  0  0  0  0  0  0  0
    3.9580   69.2550   65.0670 C   0  0  0  0  0  0  0  0  0  0  0  0
    5.1410   69.7540   65.4870 N   0  0  0  0  0  0  0  0  0  0  0  0
    5.2620   70.0960   66.7780 C   0  0  0  0  0  0  0  0  0  0  0  0
    4.2070   69.9700   67.7060 C   0  0  0  0  0  0  0  0  0  0  0  0
    4.4360   70.3520   69.0490 C   0  0  0  0  0  0  0  0  0  0  0  0
    5.6680   70.8550   69.4610 C   0  0  0  0  0  0  0  0  0  0  0  0
    6.6940   70.9830   68.5380 C   0  0  0  0  0  0  0  0  0  0  0  0
    6.4810   70.6020   67.2110 C   0  0  0  0  0  0  0  0  0  0  0  0
    2.3076   61.8759   71.5952 H   0  0  0  0  0  0  0  0  0  0  0  0
    1.3877   61.5345   70.0906 H   0  0  0  0  0  0  0  0  0  0  0  0
    3.1809   61.4285   70.0906 H   0  0  0  0  0  0  0  0  0  0  0  0
   -0.7096   64.4489   70.9077 H   0  0  0  0  0  0  0  0  0  0  0  0
   -0.0190   62.7567   70.9778 H   0  0  0  0  0  0  0  0  0  0  0  0
    1.2916   64.4202   72.9181 H   0  0  0  0  0  0  0  0  0  0  0  0
   -0.5270   64.5166   73.1004 H   0  0  0  0  0  0  0  0  0  0  0  0
    1.3347   62.3199   73.7193 H   0  0  0  0  0  0  0  0  0  0  0  0
   -0.3290   62.7017   74.3409 H   0  0  0  0  0  0  0  0  0  0  0  0
   -0.4830   61.6204   71.6130 H   0  0  0  0  0  0  0  0  0  0  0  0
    1.9368   60.2596   72.1801 H   0  0  0  0  0  0  0  0  0  0  0  0
    2.5697   59.5838   73.7370 H   0  0  0  0  0  0  0  0  0  0  0  0
    1.8727   58.1397   71.1640 H   0  0  0  0  0  0  0  0  0  0  0  0
    3.4218   58.1462   72.1495 H   0  0  0  0  0  0  0  0  0  0  0  0
    1.2271   56.2871   72.2096 H   0  0  0  0  0  0  0  0  0  0  0  0
    2.8373   56.2828   73.0812 H   0  0  0  0  0  0  0  0  0  0  0  0
    0.7351   56.1118   74.5269 H   0  0  0  0  0  0  0  0  0  0  0  0
    1.9585   57.3652   74.9578 H   0  0  0  0  0  0  0  0  0  0  0  0
   -2.6180   62.0409   73.5459 H   0  0  0  0  0  0  0  0  0  0  0  0
   -4.7913   61.5670   74.6537 H   0  0  0  0  0  0  0  0  0  0  0  0
   -5.1697   59.3484   75.7324 H   0  0  0  0  0  0  0  0  0  0  0  0
   -3.3621   57.6453   75.7180 H   0  0  0  0  0  0  0  0  0  0  0  0
    1.7121   66.1967   71.1029 H   0  0  0  0  0  0  0  0  0  0  0  0
    2.2863   65.8031   69.4273 H   0  0  0  0  0  0  0  0  0  0  0  0
   -0.3317   65.5056   69.0099 H   0  0  0  0  0  0  0  0  0  0  0  0
   -0.3918   66.6799   70.4074 H   0  0  0  0  0  0  0  0  0  0  0  0
    0.4735   67.0807   67.5895 H   0  0  0  0  0  0  0  0  0  0  0  0
   -0.3230   68.2024   68.7902 H   0  0  0  0  0  0  0  0  0  0  0  0
    1.9025   68.3781   69.9586 H   0  0  0  0  0  0  0  0  0  0  0  0
    2.6352   67.5064   68.5742 H   0  0  0  0  0  0  0  0  0  0  0  0
    1.1535   70.1683   68.2099 H   0  0  0  0  0  0  0  0  0  0  0  0
    0.8885   68.2381   66.0196 H   0  0  0  0  0  0  0  0  0  0  0  0
    1.1492   69.4023   64.6537 H   0  0  0  0  0  0  0  0  0  0  0  0
    1.9698   66.4968   64.8827 H   0  0  0  0  0  0  0  0  0  0  0  0
    1.0193   67.3782   63.5805 H   0  0  0  0  0  0  0  0  0  0  0  0
    3.8357   66.7733   63.7029 H   0  0  0  0  0  0  0  0  0  0  0  0
    2.8140   67.5112   62.3761 H   0  0  0  0  0  0  0  0  0  0  0  0
    4.8343   68.8601   63.1563 H   0  0  0  0  0  0  0  0  0  0  0  0
    3.2357   69.6941   63.1070 H   0  0  0  0  0  0  0  0  0  0  0  0
    3.6237   70.2496   69.7836 H   0  0  0  0  0  0  0  0  0  0  0  0
    5.8251   71.1480   70.5096 H   0  0  0  0  0  0  0  0  0  0  0  0
    7.6707   71.3824   68.8487 H   0  0  0  0  0  0  0  0  0  0  0  0
    7.3030   70.7058   66.4875 H   0  0  0  0  0  0  0  0  0  0  0  0
  2  1  1  0
  3  2  2  0
  4  2  1  0
  5  4  1  0
  6  5  1  0
  7  6  1  0
  8  7  1  0
  9  8  1  0
 10  9  1  0
 11 10  1  0
 12 11  1  0
 13 12  1  0
 14 13  1  0
 15 10  2  0
 15 14  1  0
 16 15  1  0
 17 16  2  0
 18  9  2  0
 18 17  1  0
 19 18  1  0
 20 19  2  0
 21 20  1  0
 22 21  2  0
 22 17  1  0
 23  4  1  0
 24 23  1  0
 25 24  1  0
 26 25  1  0
 27 26  1  0
 28 27  1  0
 29 28  1  0
 30 29  1  0
 31 30  1  0
 32 31  1  0
 33 32  1  0
 34 33  1  0
 34 29  2  0
 35 34  1  0
 36 35  2  0
 37 36  1  0
 37 28  2  0
 38 37  1  0
 39 38  2  0
 40 39  1  0
 41 40  2  0
 41 36  1  0
  1 42  1  0
  1 43  1  0
  1 44  1  0
  5 45  1  0
  5 46  1  0
  6 47  1  0
  6 48  1  0
  7 49  1  0
  7 50  1  0
  8 51  1  0
 11 52  1  0
 11 53  1  0
 12 54  1  0
 12 55  1  0
 13 56  1  0
 13 57  1  0
 14 58  1  0
 14 59  1  0
 19 60  1  0
 20 61  1  0
 21 62  1  0
 22 63  1  0
 23 64  1  0
 23 65  1  0
 24 66  1  0
 24 67  1  0
 25 68  1  0
 25 69  1  0
 26 70  1  0
 26 71  1  0
 27 72  1  0
 30 73  1  0
 30 74  1  0
 31 75  1  0
 31 76  1  0
 32 77  1  0
 32 78  1  0
 33 79  1  0
 33 80  1  0
 38 81  1  0
 39 82  1  0
 40 83  1  0
 41 84  1  0
M  END
>  <score>  (6) 
-11.46

$$$$
=
     RDKit          3D

 84 89  0  0  0  0  0  0  0  0999 V2000
   -1.3280   68.4070   65.9890 C   0  0  0  0  0  0  0  0  0  0  0  0
   -1.7260   67.6420   67.2250 C   0  0  0  0  0  0  0  0  0  0  0  0
   -2.9150   67.5610   67.5370 O   0  0  0  0  0  0  0  0  0  0  0  0
   -0.7160   67.0500   67.9800 N   0  0  0  0  0  0  0  0  0  0  0  0
    0.7230   67.2000   67.7120 C   0  0  0  0  0  0  0  0  0  0  0  0
    1.4460   68.1060   68.7140 C   0  0  0  0  0  0  0  0  0  0  0  0
    1.9780   69.4010   68.1050 C   0  0  0  0  0  0  0  0  0  0  0  0
    1.9950   69.3580   66.6280 N   0  0  0  0  0  0  0  0  0  0  0  0
    3.3160   69.4440   66.0900 C   0  0  0  0  0  0  0  0  0  0  0  0
    4.4040   69.8390   66.8860 C   0  0  0  0  0  0  0  0  0  0  0  0
    4.3570   70.0660   68.3750 C   0  0  0  0  0  0  0  0  0  0  0  0
    5.1320   71.3260   68.7760 C   0  0  0  0  0  0  0  0  0  0  0  0
    6.4710   71.5100   68.0510 C   0  0  0  0  0  0  0  0  0  0  0  0
    6.8350   70.3610   67.1150 C   0  0  0  0  0  0  0  0  0  0  0  0
    5.6490   69.9740   66.2690 C   0  0  0  0  0  0  0  0  0  0  0  0
    5.8680   69.7570   64.9550 N   0  0  0  0  0  0  0  0  0  0  0  0
    4.8340   69.3640   64.1960 C   0  0  0  0  0  0  0  0  0  0  0  0
    3.5320   69.1810   64.7100 C   0  0  0  0  0  0  0  0  0  0  0  0
    2.5210   68.7210   63.8340 C   0  0  0  0  0  0  0  0  0  0  0  0
    2.7780   68.4810   62.4860 C   0  0  0  0  0  0  0  0  0  0  0  0
    4.0560   68.6890   61.9890 C   0  0  0  0  0  0  0  0  0  0  0  0
    5.0670   69.1230   62.8490 C   0  0  0  0  0  0  0  0  0  0  0  0
   -1.1110   66.4150   69.2410 C   0  0  0  0  0  0  0  0  0  0  0  0
    0.0300   65.5930   69.8490 C   0  0  0  0  0  0  0  0  0  0  0  0
    0.1740   65.7770   71.3610 C   0  0  0  0  0  0  0  0  0  0  0  0
    0.2090   64.4580   72.1330 C   0  0  0  0  0  0  0  0  0  0  0  0
    0.3620   63.3510   71.1810 N   0  0  0  0  0  0  0  0  0  0  0  0
    1.1540   62.3000   71.7270 C   0  0  0  0  0  0  0  0  0  0  0  0
    0.5680   61.2350   72.4290 C   0  0  0  0  0  0  0  0  0  0  0  0
   -0.9030   61.0920   72.7230 C   0  0  0  0  0  0  0  0  0  0  0  0
   -1.1510   60.5880   74.1480 C   0  0  0  0  0  0  0  0  0  0  0  0
   -0.1920   59.4850   74.6170 C   0  0  0  0  0  0  0  0  0  0  0  0
    0.7780   59.0100   73.5410 C   0  0  0  0  0  0  0  0  0  0  0  0
    1.3980   60.1870   72.8310 C   0  0  0  0  0  0  0  0  0  0  0  0
    2.7250   60.1350   72.5880 N   0  0  0  0  0  0  0  0  0  0  0  0
    3.2880   61.1570   71.9280 C   0  0  0  0  0  0  0  0  0  0  0  0
    2.5530   62.2690   71.4670 C   0  0  0  0  0  0  0  0  0  0  0  0
    3.2400   63.3020   70.7850 C   0  0  0  0  0  0  0  0  0  0  0  0
    4.6120   63.2320   70.5540 C   0  0  0  0  0  0  0  0  0  0  0  0
    5.3220   62.1290   71.0040 C   0  0  0  0  0  0  0  0  0  0  0  0
    4.6550   61.1080   71.6840 C   0  0  0  0  0  0  0  0  0  0  0  0
   -0.8386   69.3477   66.2817 H   0  0  0  0  0  0  0  0  0  0  0  0
   -0.6307   67.8013   65.3916 H   0  0  0  0  0  0  0  0  0  0  0  0
   -2.2242   68.6304   65.3916 H   0  0  0  0  0  0  0  0  0  0  0  0
    1.1882   66.2038   67.7464 H   0  0  0  0  0  0  0  0  0  0  0  0
    0.8178   67.6742   66.7240 H   0  0  0  0  0  0  0  0  0  0  0  0
    0.7412   68.3652   69.5178 H   0  0  0  0  0  0  0  0  0  0  0  0
    2.3175   67.5443   69.0814 H   0  0  0  0  0  0  0  0  0  0  0  0
    1.3361   70.2340   68.4277 H   0  0  0  0  0  0  0  0  0  0  0  0
    3.0135   69.5361   68.4507 H   0  0  0  0  0  0  0  0  0  0  0  0
    1.1470   69.2751   66.0493 H   0  0  0  0  0  0  0  0  0  0  0  0
    3.3080   70.1773   68.6866 H   0  0  0  0  0  0  0  0  0  0  0  0
    4.8232   69.2018   68.8707 H   0  0  0  0  0  0  0  0  0  0  0  0
    4.5012   72.2005   68.5586 H   0  0  0  0  0  0  0  0  0  0  0  0
    5.3684   71.2195   69.8450 H   0  0  0  0  0  0  0  0  0  0  0  0
    6.4188   72.4352   67.4583 H   0  0  0  0  0  0  0  0  0  0  0  0
    7.2498   71.5463   68.8270 H   0  0  0  0  0  0  0  0  0  0  0  0
    7.6602   70.6757   66.4593 H   0  0  0  0  0  0  0  0  0  0  0  0
    7.1402   69.4933   67.7184 H   0  0  0  0  0  0  0  0  0  0  0  0
    1.5079   68.5487   64.2265 H   0  0  0  0  0  0  0  0  0  0  0  0
    1.9746   68.1297   61.8218 H   0  0  0  0  0  0  0  0  0  0  0  0
    4.2717   68.5133   60.9248 H   0  0  0  0  0  0  0  0  0  0  0  0
    6.0789   69.2786   62.4467 H   0  0  0  0  0  0  0  0  0  0  0  0
   -1.4059   67.1972   69.9559 H   0  0  0  0  0  0  0  0  0  0  0  0
   -1.9483   65.7330   69.0315 H   0  0  0  0  0  0  0  0  0  0  0  0
   -0.1593   64.5290   69.6439 H   0  0  0  0  0  0  0  0  0  0  0  0
    0.9648   65.9458   69.3889 H   0  0  0  0  0  0  0  0  0  0  0  0
    1.1093   66.3214   71.5584 H   0  0  0  0  0  0  0  0  0  0  0  0
   -0.7110   66.3316   71.7062 H   0  0  0  0  0  0  0  0  0  0  0  0
    1.0577   64.4626   72.8327 H   0  0  0  0  0  0  0  0  0  0  0  0
   -0.7255   64.3342   72.6999 H   0  0  0  0  0  0  0  0  0  0  0  0
   -0.0510   63.3360   70.2376 H   0  0  0  0  0  0  0  0  0  0  0  0
   -1.3873   62.0723   72.6025 H   0  0  0  0  0  0  0  0  0  0  0  0
   -1.3222   60.3556   72.0216 H   0  0  0  0  0  0  0  0  0  0  0  0
   -1.0527   61.4416   74.8348 H   0  0  0  0  0  0  0  0  0  0  0  0
   -2.1574   60.1440   74.1485 H   0  0  0  0  0  0  0  0  0  0  0  0
    0.3932   59.8722   75.4641 H   0  0  0  0  0  0  0  0  0  0  0  0
   -0.8120   58.6191   74.8922 H   0  0  0  0  0  0  0  0  0  0  0  0
    1.5725   58.4104   74.0092 H   0  0  0  0  0  0  0  0  0  0  0  0
    0.2263   58.4031   72.8080 H   0  0  0  0  0  0  0  0  0  0  0  0
    2.6784   64.1787   70.4299 H   0  0  0  0  0  0  0  0  0  0  0  0
    5.1273   64.0439   70.0198 H   0  0  0  0  0  0  0  0  0  0  0  0
    6.4052   62.0588   70.8261 H   0  0  0  0  0  0  0  0  0  0  0  0
    5.2291   60.2387   72.0372 H   0  0  0  0  0  0  0  0  0  0  0  0
  2  1  1  0
  3  2  2  0
  4  2  1  0
  5  4  1  0
  6  5  1  0
  7  6  1  0
  8  7  1  0
  9  8  1  0
 10  9  1  0
 11 10  1  0
 12 11  1  0
 13 12  1  0
 14 13  1  0
 15 10  2  0
 15 14  1  0
 16 15  1  0
 17 16  2  0
 18  9  2  0
 18 17  1  0
 19 18  1  0
 20 19  2  0
 21 20  1  0
 22 21  2  0
 22 17  1  0
 23  4  1  0
 24 23  1  0
 25 24  1  0
 26 25  1  0
 27 26  1  0
 28 27  1  0
 29 28  1  0
 30 29  1  0
 31 30  1  0
 32 31  1  0
 33 32  1  0
 34 33  1  0
 34 29  2  0
 35 34  1  0
 36 35  2  0
 37 36  1  0
 37 28  2  0
 38 37  1  0
 39 38  2  0
 40 39  1  0
 41 40  2  0
 41 36  1  0
  1 42  1  0
  1 43  1  0
  1 44  1  0
  5 45  1  0
  5 46  1  0
  6 47  1  0
  6 48  1  0
  7 49  1  0
  7 50  1  0
  8 51  1  0
 11 52  1  0
 11 53  1  0
 12 54  1  0
 12 55  1  0
 13 56  1  0
 13 57  1  0
 14 58  1  0
 14 59  1  0
 19 60  1  0
 20 61  1  0
 21 62  1  0
 22 63  1  0
 23 64  1  0
 23 65  1  0
 24 66  1  0
 24 67  1  0
 25 68  1  0
 25 69  1  0
 26 70  1  0
 26 71  1  0
 27 72  1  0
 30 73  1  0
 30 74  1  0
 31 75  1  0
 31 76  1  0
 32 77  1  0
 32 78  1  0
 33 79  1  0
 33 80  1  0
 38 81  1  0
 39 82  1  0
 40 83  1  0
 41 84  1  0
M  END
>  <score>  (7) 
-11.293

$$$$
=
     RDKit          3D

 84 89  0  0  0  0  0  0  0  0999 V2000
    2.4100   61.5940   70.1080 C   0  0  0  0  0  0  0  0  0  0  0  0
    2.5870   63.0730   69.8790 C   0  0  0  0  0  0  0  0  0  0  0  0
    3.6240   63.4910   69.3620 O   0  0  0  0  0  0  0  0  0  0  0  0
    1.5550   63.9240   70.2700 N   0  0  0  0  0  0  0  0  0  0  0  0
    0.3430   63.4910   70.9820 C   0  0  0  0  0  0  0  0  0  0  0  0
    0.4020   63.7190   72.4960 C   0  0  0  0  0  0  0  0  0  0  0  0
    0.3100   62.4370   73.3200 C   0  0  0  0  0  0  0  0  0  0  0  0
   -0.2710   61.3190   72.5480 N   0  0  0  0  0  0  0  0  0  0  0  0
   -0.5070   60.1600   73.3500 C   0  0  0  0  0  0  0  0  0  0  0  0
    0.4560   59.1440   73.4660 C   0  0  0  0  0  0  0  0  0  0  0  0
    1.8570   59.2050   72.9140 C   0  0  0  0  0  0  0  0  0  0  0  0
    2.2610   57.8790   72.2600 C   0  0  0  0  0  0  0  0  0  0  0  0
    1.8360   56.6270   73.0380 C   0  0  0  0  0  0  0  0  0  0  0  0
    1.1550   56.9250   74.3710 C   0  0  0  0  0  0  0  0  0  0  0  0
    0.1200   58.0080   74.2050 C   0  0  0  0  0  0  0  0  0  0  0  0
   -1.0740   57.8240   74.8060 N   0  0  0  0  0  0  0  0  0  0  0  0
   -1.9890   58.7990   74.7090 C   0  0  0  0  0  0  0  0  0  0  0  0
   -1.7600   59.9980   74.0000 C   0  0  0  0  0  0  0  0  0  0  0  0
   -2.7760   60.9840   73.9980 C   0  0  0  0  0  0  0  0  0  0  0  0
   -3.9920   60.7790   74.6460 C   0  0  0  0  0  0  0  0  0  0  0  0
   -4.2130   59.5860   75.3180 C   0  0  0  0  0  0  0  0  0  0  0  0
   -3.2100   58.6150   75.3450 C   0  0  0  0  0  0  0  0  0  0  0  0
    1.7970   65.3640   70.1500 C   0  0  0  0  0  0  0  0  0  0  0  0
    0.5050   66.1390   69.8690 C   0  0  0  0  0  0  0  0  0  0  0  0
    0.6390   67.1510   68.7300 C   0  0  0  0  0  0  0  0  0  0  0  0
    1.7520   68.1760   68.9550 C   0  0  0  0  0  0  0  0  0  0  0  0
    1.5530   69.3060   68.0400 N   0  0  0  0  0  0  0  0  0  0  0  0
    2.6370   69.4320   67.1240 C   0  0  0  0  0  0  0  0  0  0  0  0
    3.9070   69.8490   67.5530 C   0  0  0  0  0  0  0  0  0  0  0  0
    4.2630   70.2450   68.9620 C   0  0  0  0  0  0  0  0  0  0  0  0
    5.1730   71.4780   68.9940 C   0  0  0  0  0  0  0  0  0  0  0  0
    6.2690   71.4970   67.9200 C   0  0  0  0  0  0  0  0  0  0  0  0
    6.3280   70.2310   67.0730 C   0  0  0  0  0  0  0  0  0  0  0  0
    4.9450   69.8350   66.6190 C   0  0  0  0  0  0  0  0  0  0  0  0
    4.8020   69.4470   65.3330 N   0  0  0  0  0  0  0  0  0  0  0  0
    3.5880   69.0590   64.9200 C   0  0  0  0  0  0  0  0  0  0  0  0
    2.4640   69.0260   65.7720 C   0  0  0  0  0  0  0  0  0  0  0  0
    1.2210   68.6070   65.2390 C   0  0  0  0  0  0  0  0  0  0  0  0
    1.0950   68.2200   63.9070 C   0  0  0  0  0  0  0  0  0  0  0  0
    2.2100   68.2470   63.0820 C   0  0  0  0  0  0  0  0  0  0  0  0
    3.4390   68.6660   63.5960 C   0  0  0  0  0  0  0  0  0  0  0  0
    2.3857   61.3906   71.1888 H   0  0  0  0  0  0  0  0  0  0  0  0
    1.4658   61.2626   69.6512 H   0  0  0  0  0  0  0  0  0  0  0  0
    3.2494   61.0492   69.6512 H   0  0  0  0  0  0  0  0  0  0  0  0
   -0.5143   64.0507   70.5799 H   0  0  0  0  0  0  0  0  0  0  0  0
    0.2483   62.4065   70.8242 H   0  0  0  0  0  0  0  0  0  0  0  0
    1.3539   64.2160   72.7343 H   0  0  0  0  0  0  0  0  0  0  0  0
   -0.4727   64.3313   72.7604 H   0  0  0  0  0  0  0  0  0  0  0  0
    1.3208   62.1534   73.6484 H   0  0  0  0  0  0  0  0  0  0  0  0
   -0.3489   62.6335   74.1786 H   0  0  0  0  0  0  0  0  0  0  0  0
   -0.4829   61.3696   71.5413 H   0  0  0  0  0  0  0  0  0  0  0  0
    1.9102   60.0056   72.1615 H   0  0  0  0  0  0  0  0  0  0  0  0
    2.5478   59.4039   73.7466 H   0  0  0  0  0  0  0  0  0  0  0  0
    1.8013   57.8349   71.2616 H   0  0  0  0  0  0  0  0  0  0  0  0
    3.3605   57.8688   72.2299 H   0  0  0  0  0  0  0  0  0  0  0  0
    1.1364   56.0525   72.4131 H   0  0  0  0  0  0  0  0  0  0  0  0
    2.7553   56.0686   73.2684 H   0  0  0  0  0  0  0  0  0  0  0  0
    0.6666   56.0111   74.7402 H   0  0  0  0  0  0  0  0  0  0  0  0
    1.9145   57.2662   75.0899 H   0  0  0  0  0  0  0  0  0  0  0  0
   -2.6011   61.9343   73.4724 H   0  0  0  0  0  0  0  0  0  0  0  0
   -4.7700   61.5564   74.6249 H   0  0  0  0  0  0  0  0  0  0  0  0
   -5.1718   59.4060   75.8262 H   0  0  0  0  0  0  0  0  0  0  0  0
   -3.3925   57.6752   75.8867 H   0  0  0  0  0  0  0  0  0  0  0  0
    2.2343   65.7307   71.0903 H   0  0  0  0  0  0  0  0  0  0  0  0
    2.4821   65.5253   69.3047 H   0  0  0  0  0  0  0  0  0  0  0  0
   -0.2831   65.4187   69.6044 H   0  0  0  0  0  0  0  0  0  0  0  0
    0.2617   66.7057   70.7799 H   0  0  0  0  0  0  0  0  0  0  0  0
    0.8524   66.6032   67.8003 H   0  0  0  0  0  0  0  0  0  0  0  0
   -0.3085   67.7073   68.6771 H   0  0  0  0  0  0  0  0  0  0  0  0
    1.7196   68.5333   69.9948 H   0  0  0  0  0  0  0  0  0  0  0  0
    2.7301   67.7106   68.7635 H   0  0  0  0  0  0  0  0  0  0  0  0
    0.7332   69.9293   68.0578 H   0  0  0  0  0  0  0  0  0  0  0  0
    3.3380   70.4707   69.5129 H   0  0  0  0  0  0  0  0  0  0  0  0
    4.8051   69.4078   69.4259 H   0  0  0  0  0  0  0  0  0  0  0  0
    4.5448   72.3706   68.8576 H   0  0  0  0  0  0  0  0  0  0  0  0
    5.6907   71.4557   69.9643 H   0  0  0  0  0  0  0  0  0  0  0  0
    6.0846   72.3517   67.2525 H   0  0  0  0  0  0  0  0  0  0  0  0
    7.2311   71.5722   68.4479 H   0  0  0  0  0  0  0  0  0  0  0  0
    6.9599   70.4142   66.1915 H   0  0  0  0  0  0  0  0  0  0  0  0
    6.7506   69.4163   67.6794 H   0  0  0  0  0  0  0  0  0  0  0  0
    0.3354   68.5867   65.8912 H   0  0  0  0  0  0  0  0  0  0  0  0
    0.1205   67.8960   63.5128 H   0  0  0  0  0  0  0  0  0  0  0  0
    2.1265   67.9401   62.0290 H   0  0  0  0  0  0  0  0  0  0  0  0
    4.3159   68.6854   62.9321 H   0  0  0  0  0  0  0  0  0  0  0  0
  2  1  1  0
  3  2  2  0
  4  2  1  0
  5  4  1  0
  6  5  1  0
  7  6  1  0
  8  7  1  0
  9  8  1  0
 10  9  1  0
 11 10  1  0
 12 11  1  0
 13 12  1  0
 14 13  1  0
 15 10  2  0
 15 14  1  0
 16 15  1  0
 17 16  2  0
 18  9  2  0
 18 17  1  0
 19 18  1  0
 20 19  2  0
 21 20  1  0
 22 21  2  0
 22 17  1  0
 23  4  1  0
 24 23  1  0
 25 24  1  0
 26 25  1  0
 27 26  1  0
 28 27  1  0
 29 28  1  0
 30 29  1  0
 31 30  1  0
 32 31  1  0
 33 32  1  0
 34 33  1  0
 34 29  2  0
 35 34  1  0
 36 35  2  0
 37 36  1  0
 37 28  2  0
 38 37  1  0
 39 38  2  0
 40 39  1  0
 41 40  2  0
 41 36  1  0
  1 42  1  0
  1 43  1  0
  1 44  1  0
  5 45  1  0
  5 46  1  0
  6 47  1  0
  6 48  1  0
  7 49  1  0
  7 50  1  0
  8 51  1  0
 11 52  1  0
 11 53  1  0
 12 54  1  0
 12 55  1  0
 13 56  1  0
 13 57  1  0
 14 58  1  0
 14 59  1  0
 19 60  1  0
 20 61  1  0
 21 62  1  0
 22 63  1  0
 23 64  1  0
 23 65  1  0
 24 66  1  0
 24 67  1  0
 25 68  1  0
 25 69  1  0
 26 70  1  0
 26 71  1  0
 27 72  1  0
 30 73  1  0
 30 74  1  0
 31 75  1  0
 31 76  1  0
 32 77  1  0
 32 78  1  0
 33 79  1  0
 33 80  1  0
 38 81  1  0
 39 82  1  0
 40 83  1  0
 41 84  1  0
M  END
>  <score>  (8) 
-11.261

$$$$
=
     RDKit          3D

 84 89  0  0  0  0  0  0  0  0999 V2000
   -0.1180   63.5690   71.9810 C   0  0  0  0  0  0  0  0  0  0  0  0
    0.1840   64.9700   71.5120 C   0  0  0  0  0  0  0  0  0  0  0  0
   -0.4760   65.9150   71.9460 O   0  0  0  0  0  0  0  0  0  0  0  0
    1.2140   65.1420   70.5900 N   0  0  0  0  0  0  0  0  0  0  0  0
    1.9660   64.0430   69.9640 C   0  0  0  0  0  0  0  0  0  0  0  0
    3.3210   63.7690   70.6220 C   0  0  0  0  0  0  0  0  0  0  0  0
    3.5130   62.3210   71.0660 C   0  0  0  0  0  0  0  0  0  0  0  0
    3.7810   62.2130   72.5150 N   0  0  0  0  0  0  0  0  0  0  0  0
    2.9120   61.2850   73.1680 C   0  0  0  0  0  0  0  0  0  0  0  0
    2.9590   59.9120   72.8770 C   0  0  0  0  0  0  0  0  0  0  0  0
    3.9820   59.2430   71.9960 C   0  0  0  0  0  0  0  0  0  0  0  0
    3.3350   58.2090   71.0690 C   0  0  0  0  0  0  0  0  0  0  0  0
    2.2610   57.3370   71.7340 C   0  0  0  0  0  0  0  0  0  0  0  0
    2.0850   57.5990   73.2270 C   0  0  0  0  0  0  0  0  0  0  0  0
    2.0250   59.0810   73.4990 C   0  0  0  0  0  0  0  0  0  0  0  0
    1.0770   59.5180   74.3540 N   0  0  0  0  0  0  0  0  0  0  0  0
    1.0400   60.8260   74.6460 C   0  0  0  0  0  0  0  0  0  0  0  0
    1.9400   61.7610   74.0900 C   0  0  0  0  0  0  0  0  0  0  0  0
    1.8450   63.1120   74.4980 C   0  0  0  0  0  0  0  0  0  0  0  0
    0.8720   63.5350   75.4010 C   0  0  0  0  0  0  0  0  0  0  0  0
   -0.0210   62.6100   75.9210 C   0  0  0  0  0  0  0  0  0  0  0  0
    0.0760   61.2690   75.5410 C   0  0  0  0  0  0  0  0  0  0  0  0
    1.4120   66.4930   70.0570 C   0  0  0  0  0  0  0  0  0  0  0  0
    0.4590   66.7940   68.8960 C   0  0  0  0  0  0  0  0  0  0  0  0
    0.7390   68.1320   68.2100 C   0  0  0  0  0  0  0  0  0  0  0  0
    1.4230   67.9860   66.8500 C   0  0  0  0  0  0  0  0  0  0  0  0
    1.7900   69.3180   66.3540 N   0  0  0  0  0  0  0  0  0  0  0  0
    3.1730   69.3870   66.0190 C   0  0  0  0  0  0  0  0  0  0  0  0
    3.6230   69.1030   64.7200 C   0  0  0  0  0  0  0  0  0  0  0  0
    2.7500   68.6640   63.5730 C   0  0  0  0  0  0  0  0  0  0  0  0
    3.4090   67.5540   62.7490 C   0  0  0  0  0  0  0  0  0  0  0  0
    4.9130   67.7390   62.5050 C   0  0  0  0  0  0  0  0  0  0  0  0
    5.4690   69.0550   63.0400 C   0  0  0  0  0  0  0  0  0  0  0  0
    4.9760   69.3050   64.4430 C   0  0  0  0  0  0  0  0  0  0  0  0
    5.8750   69.7550   65.3440 N   0  0  0  0  0  0  0  0  0  0  0  0
    5.4490   70.0150   66.5880 C   0  0  0  0  0  0  0  0  0  0  0  0
    4.1050   69.8540   66.9870 C   0  0  0  0  0  0  0  0  0  0  0  0
    3.7550   70.1500   68.3260 C   0  0  0  0  0  0  0  0  0  0  0  0
    4.7010   70.6030   69.2410 C   0  0  0  0  0  0  0  0  0  0  0  0
    6.0170   70.7670   68.8350 C   0  0  0  0  0  0  0  0  0  0  0  0
    6.3750   70.4710   67.5180 C   0  0  0  0  0  0  0  0  0  0  0  0
   -0.1235   63.5437   73.0807 H   0  0  0  0  0  0  0  0  0  0  0  0
   -1.1034   63.2599   71.6022 H   0  0  0  0  0  0  0  0  0  0  0  0
    0.6526   62.8814   71.6022 H   0  0  0  0  0  0  0  0  0  0  0  0
    1.3589   63.1278   70.0259 H   0  0  0  0  0  0  0  0  0  0  0  0
    2.1688   64.3439   68.9256 H   0  0  0  0  0  0  0  0  0  0  0  0
    4.1129   64.0175   69.9001 H   0  0  0  0  0  0  0  0  0  0  0  0
    3.3659   64.3892   71.5294 H   0  0  0  0  0  0  0  0  0  0  0  0
    2.5999   61.7544   70.8313 H   0  0  0  0  0  0  0  0  0  0  0  0
    4.3840   61.9159   70.5301 H   0  0  0  0  0  0  0  0  0  0  0  0
    4.5143   62.7482   73.0016 H   0  0  0  0  0  0  0  0  0  0  0  0
    4.4819   60.0083   71.3841 H   0  0  0  0  0  0  0  0  0  0  0  0
    4.7056   58.7231   72.6411 H   0  0  0  0  0  0  0  0  0  0  0  0
    2.8696   58.7453   70.2289 H   0  0  0  0  0  0  0  0  0  0  0  0
    4.1386   57.5271   70.7540 H   0  0  0  0  0  0  0  0  0  0  0  0
    1.3006   57.5296   71.2335 H   0  0  0  0  0  0  0  0  0  0  0  0
    2.5907   56.2926   71.6311 H   0  0  0  0  0  0  0  0  0  0  0  0
    1.1508   57.1299   73.5693 H   0  0  0  0  0  0  0  0  0  0  0  0
    2.9432   57.1724   73.7669 H   0  0  0  0  0  0  0  0  0  0  0  0
    2.5565   63.8464   74.0926 H   0  0  0  0  0  0  0  0  0  0  0  0
    0.8126   64.5923   75.6986 H   0  0  0  0  0  0  0  0  0  0  0  0
   -0.8006   62.9300   76.6280 H   0  0  0  0  0  0  0  0  0  0  0  0
   -0.6331   60.5422   75.9640 H   0  0  0  0  0  0  0  0  0  0  0  0
    1.2344   67.2222   70.8612 H   0  0  0  0  0  0  0  0  0  0  0  0
    2.4427   66.5629   69.6791 H   0  0  0  0  0  0  0  0  0  0  0  0
    0.5558   65.9924   68.1489 H   0  0  0  0  0  0  0  0  0  0  0  0
   -0.5560   66.8513   69.3162 H   0  0  0  0  0  0  0  0  0  0  0  0
   -0.2171   68.6562   68.0649 H   0  0  0  0  0  0  0  0  0  0  0  0
    1.4262   68.6928   68.8605 H   0  0  0  0  0  0  0  0  0  0  0  0
    2.3280   67.3699   66.9566 H   0  0  0  0  0  0  0  0  0  0  0  0
    0.7376   67.5008   66.1395 H   0  0  0  0  0  0  0  0  0  0  0  0
    1.1307   70.1037   66.2600 H   0  0  0  0  0  0  0  0  0  0  0  0
    1.7960   68.2911   63.9741 H   0  0  0  0  0  0  0  0  0  0  0  0
    2.5903   69.5301   62.9139 H   0  0  0  0  0  0  0  0  0  0  0  0
    3.2632   66.6016   63.2797 H   0  0  0  0  0  0  0  0  0  0  0  0
    2.9298   67.5776   61.7591 H   0  0  0  0  0  0  0  0  0  0  0  0
    5.4477   66.9123   62.9955 H   0  0  0  0  0  0  0  0  0  0  0  0
    5.0606   67.7498   61.4150 H   0  0  0  0  0  0  0  0  0  0  0  0
    6.5680   69.0081   63.0454 H   0  0  0  0  0  0  0  0  0  0  0  0
    5.1277   69.8753   62.3915 H   0  0  0  0  0  0  0  0  0  0  0  0
    2.7122   70.0192   68.6508 H   0  0  0  0  0  0  0  0  0  0  0  0
    4.4075   70.8289   70.2768 H   0  0  0  0  0  0  0  0  0  0  0  0
    6.7744   71.1281   69.5463 H   0  0  0  0  0  0  0  0  0  0  0  0
    7.4220   70.6029   67.2075 H   0  0  0  0  0  0  0  0  0  0  0  0
  2  1  1  0
  3  2  2  0
  4  2  1  0
  5  4  1  0
  6  5  1  0
  7  6  1  0
  8  7  1  0
  9  8  1  0
 10  9  1  0
 11 10  1  0
 12 11  1  0
 13 12  1  0
 14 13  1  0
 15 10  2  0
 15 14  1  0
 16 15  1  0
 17 16  2  0
 18  9  2  0
 18 17  1  0
 19 18  1  0
 20 19  2  0
 21 20  1  0
 22 21  2  0
 22 17  1  0
 23  4  1  0
 24 23  1  0
 25 24  1  0
 26 25  1  0
 27 26  1  0
 28 27  1  0
 29 28  1  0
 30 29  1  0
 31 30  1  0
 32 31  1  0
 33 32  1  0
 34 33  1  0
 34 29  2  0
 35 34  1  0
 36 35  2  0
 37 36  1  0
 37 28  2  0
 38 37  1  0
 39 38  2  0
 40 39  1  0
 41 40  2  0
 41 36  1  0
  1 42  1  0
  1 43  1  0
  1 44  1  0
  5 45  1  0
  5 46  1  0
  6 47  1  0
  6 48  1  0
  7 49  1  0
  7 50  1  0
  8 51  1  0
 11 52  1  0
 11 53  1  0
 12 54  1  0
 12 55  1  0
 13 56  1  0
 13 57  1  0
 14 58  1  0
 14 59  1  0
 19 60  1  0
 20 61  1  0
 21 62  1  0
 22 63  1  0
 23 64  1  0
 23 65  1  0
 24 66  1  0
 24 67  1  0
 25 68  1  0
 25 69  1  0
 26 70  1  0
 26 71  1  0
 27 72  1  0
 30 73  1  0
 30 74  1  0
 31 75  1  0
 31 76  1  0
 32 77  1  0
 32 78  1  0
 33 79  1  0
 33 80  1  0
 38 81  1  0
 39 82  1  0
 40 83  1  0
 41 84  1  0
M  END
>  <score>  (9) 
-11.155

$$$$
