=
     RDKit          3D

 34 35  0  0  0  0  0  0  0  0999 V2000
    1.9380   68.4260   65.5580 C   0  0  0  0  0  0  0  0  0  0  0  0
    2.8410   69.1460   66.5520 C   0  0  0  0  0  0  0  0  0  0  0  0
    2.3830   69.5440   67.8200 C   0  0  0  0  0  0  0  0  0  0  0  0
    3.2370   70.1950   68.7130 C   0  0  0  0  0  0  0  0  0  0  0  0
    4.5550   70.4640   68.3510 C   0  0  0  0  0  0  0  0  0  0  0  0
    5.0210   70.0880   67.0940 C   0  0  0  0  0  0  0  0  0  0  0  0
    4.1690   69.4360   66.1990 C   0  0  0  0  0  0  0  0  0  0  0  0
    0.5400   68.1810   66.1200 C   0  0  0  0  0  0  0  0  0  0  0  0
   -0.5500   68.8750   65.5610 C   0  0  0  0  0  0  0  0  0  0  0  0
   -1.8420   68.7080   66.0630 C   0  0  0  0  0  0  0  0  0  0  0  0
   -2.0680   67.8510   67.1360 C   0  0  0  0  0  0  0  0  0  0  0  0
   -1.0020   67.1640   67.7100 C   0  0  0  0  0  0  0  0  0  0  0  0
    0.2930   67.3310   67.2110 C   0  0  0  0  0  0  0  0  0  0  0  0
    2.7280   66.9000   64.8680 S   0  0  0  0  0  3  0  0  0  0  0  0
    1.5350   65.7640   64.6030 O   0  0  0  0  0  1  0  0  0  0  0  0
    3.1500   67.5980   63.2440 C   0  0  0  0  0  0  0  0  0  0  0  0
    5.2480   67.6030   61.9990 N   0  0  0  0  0  0  0  0  0  0  0  0
    4.3060   66.8420   62.6340 C   0  0  0  0  0  0  0  0  0  0  0  0
    4.4370   65.6260   62.7320 O   0  0  0  0  0  0  0  0  0  0  0  0
    1.8013   69.1028   64.7017 H   0  0  0  0  0  0  0  0  0  0  0  0
    1.3420   69.3408   68.1117 H   0  0  0  0  0  0  0  0  0  0  0  0
    2.8680   70.4960   69.7046 H   0  0  0  0  0  0  0  0  0  0  0  0
    5.2270   70.9730   69.0576 H   0  0  0  0  0  0  0  0  0  0  0  0
    6.0602   70.3043   66.8055 H   0  0  0  0  0  0  0  0  0  0  0  0
    4.5429   69.1463   65.2059 H   0  0  0  0  0  0  0  0  0  0  0  0
   -0.3811   69.5590   64.7162 H   0  0  0  0  0  0  0  0  0  0  0  0
   -2.6823   69.2544   65.6099 H   0  0  0  0  0  0  0  0  0  0  0  0
   -3.0864   67.7168   67.5295 H   0  0  0  0  0  0  0  0  0  0  0  0
   -1.1793   66.4875   68.5591 H   0  0  0  0  0  0  0  0  0  0  0  0
    1.1291   66.7902   67.6784 H   0  0  0  0  0  0  0  0  0  0  0  0
    2.2768   67.5243   62.5792 H   0  0  0  0  0  0  0  0  0  0  0  0
    3.4384   68.6519   63.3711 H   0  0  0  0  0  0  0  0  0  0  0  0
    6.0637   67.1525   61.5602 H   0  0  0  0  0  0  0  0  0  0  0  0
    5.1418   68.6268   61.9594 H   0  0  0  0  0  0  0  0  0  0  0  0
  2  1  1  0
  3  2  2  0
  4  3  1  0
  5  4  2  0
  6  5  1  0
  7  6  2  0
  7  2  1  0
  8  1  1  0
  9  8  2  0
 10  9  1  0
 11 10  2  0
 12 11  1  0
 13 12  2  0
 13  8  1  0
 14  1  1  0
 14 15  1  6
 16 14  1  0
 18 17  1  0
 18 16  1  0
 19 18  2  0
  1 20  1  0
  3 21  1  0
  4 22  1  0
  5 23  1  0
  6 24  1  0
  7 25  1  0
  9 26  1  0
 10 27  1  0
 11 28  1  0
 12 29  1  0
 13 30  1  0
 16 31  1  0
 16 32  1  0
 17 33  1  0
 17 34  1  0
M  CHG  2  14   1  15  -1
M  END
>  <score>  (1) 
-9.635

$$$$
=
     RDKit          3D

 34 35  0  0  0  0  0  0  0  0999 V2000
    1.9370   68.3810   65.6370 C   0  0  0  0  0  0  0  0  0  0  0  0
    2.8430   69.1320   66.6050 C   0  0  0  0  0  0  0  0  0  0  0  0
    4.1820   69.4240   66.2960 C   0  0  0  0  0  0  0  0  0  0  0  0
    4.9860   70.1230   67.2000 C   0  0  0  0  0  0  0  0  0  0  0  0
    4.4660   70.5320   68.4260 C   0  0  0  0  0  0  0  0  0  0  0  0
    3.1460   70.2390   68.7530 C   0  0  0  0  0  0  0  0  0  0  0  0
    2.3390   69.5410   67.8510 C   0  0  0  0  0  0  0  0  0  0  0  0
    0.5300   68.1890   66.1950 C   0  0  0  0  0  0  0  0  0  0  0  0
    0.3410   67.3160   67.2830 C   0  0  0  0  0  0  0  0  0  0  0  0
   -0.9330   67.0850   67.8070 C   0  0  0  0  0  0  0  0  0  0  0  0
   -2.0410   67.7160   67.2510 C   0  0  0  0  0  0  0  0  0  0  0  0
   -1.8770   68.5750   66.1680 C   0  0  0  0  0  0  0  0  0  0  0  0
   -0.6040   68.8070   65.6400 C   0  0  0  0  0  0  0  0  0  0  0  0
    2.7050   66.8080   65.0300 S   0  0  0  0  0  3  0  0  0  0  0  0
    1.4820   65.7480   64.6280 O   0  0  0  0  0  1  0  0  0  0  0  0
    3.3470   67.4780   63.4670 C   0  0  0  0  0  0  0  0  0  0  0  0
    4.2710   65.2320   63.2380 N   0  0  0  0  0  0  0  0  0  0  0  0
    4.3870   66.5490   62.8880 C   0  0  0  0  0  0  0  0  0  0  0  0
    5.2600   66.9220   62.1120 O   0  0  0  0  0  0  0  0  0  0  0  0
    1.8222   69.0178   64.7474 H   0  0  0  0  0  0  0  0  0  0  0  0
    4.6017   69.0990   65.3326 H   0  0  0  0  0  0  0  0  0  0  0  0
    6.0311   70.3507   66.9433 H   0  0  0  0  0  0  0  0  0  0  0  0
    5.0987   71.0862   69.1349 H   0  0  0  0  0  0  0  0  0  0  0  0
    2.7370   70.5573   69.7232 H   0  0  0  0  0  0  0  0  0  0  0  0
    1.2977   69.3092   68.1193 H   0  0  0  0  0  0  0  0  0  0  0  0
    1.2097   66.8081   67.7272 H   0  0  0  0  0  0  0  0  0  0  0  0
   -1.0603   66.4030   68.6607 H   0  0  0  0  0  0  0  0  0  0  0  0
   -3.0438   67.5367   67.6659 H   0  0  0  0  0  0  0  0  0  0  0  0
   -2.7526   69.0730   65.7261 H   0  0  0  0  0  0  0  0  0  0  0  0
   -0.4880   69.4818   64.7791 H   0  0  0  0  0  0  0  0  0  0  0  0
    2.5188   67.5871   62.7513 H   0  0  0  0  0  0  0  0  0  0  0  0
    3.8090   68.4575   63.6599 H   0  0  0  0  0  0  0  0  0  0  0  0
    4.9466   64.5423   62.8792 H   0  0  0  0  0  0  0  0  0  0  0  0
    3.5080   64.9298   63.8604 H   0  0  0  0  0  0  0  0  0  0  0  0
  2  1  1  0
  3  2  2  0
  4  3  1  0
  5  4  2  0
  6  5  1  0
  7  6  2  0
  7  2  1  0
  8  1  1  0
  9  8  2  0
 10  9  1  0
 11 10  2  0
 12 11  1  0
 13 12  2  0
 13  8  1  0
 14  1  1  0
 14 15  1  6
 16 14  1  0
 18 17  1  0
 18 16  1  0
 19 18  2  0
  1 20  1  0
  3 21  1  0
  4 22  1  0
  5 23  1  0
  6 24  1  0
  7 25  1  0
  9 26  1  0
 10 27  1  0
 11 28  1  0
 12 29  1  0
 13 30  1  0
 16 31  1  0
 16 32  1  0
 17 33  1  0
 17 34  1  0
M  CHG  2  14   1  15  -1
M  END
>  <score>  (2) 
-9.544

$$$$
=
     RDKit          3D

 34 35  0  0  0  0  0  0  0  0999 V2000
    2.1170   68.1510   65.7660 C   0  0  0  0  0  0  0  0  0  0  0  0
    2.9320   69.0110   66.7250 C   0  0  0  0  0  0  0  0  0  0  0  0
    2.4200   69.4350   67.9630 C   0  0  0  0  0  0  0  0  0  0  0  0
    3.1940   70.2150   68.8240 C   0  0  0  0  0  0  0  0  0  0  0  0
    4.4850   70.5890   68.4590 C   0  0  0  0  0  0  0  0  0  0  0  0
    5.0030   70.1890   67.2300 C   0  0  0  0  0  0  0  0  0  0  0  0
    4.2320   69.4080   66.3670 C   0  0  0  0  0  0  0  0  0  0  0  0
    2.8710   67.8590   64.4710 C   0  0  0  0  0  0  0  0  0  0  0  0
    3.4990   66.6080   64.3160 C   0  0  0  0  0  0  0  0  0  0  0  0
    4.2260   66.3080   63.1620 C   0  0  0  0  0  0  0  0  0  0  0  0
    4.3450   67.2520   62.1470 C   0  0  0  0  0  0  0  0  0  0  0  0
    3.7400   68.4980   62.2850 C   0  0  0  0  0  0  0  0  0  0  0  0
    3.0130   68.8030   63.4400 C   0  0  0  0  0  0  0  0  0  0  0  0
    0.4160   68.8260   65.4880 S   0  0  0  0  0  3  0  0  0  0  0  0
   -0.1080   68.3280   63.9840 O   0  0  0  0  0  1  0  0  0  0  0  0
   -0.4290   67.7740   66.7070 C   0  0  0  0  0  0  0  0  0  0  0  0
   -2.2750   69.2280   66.0500 N   0  0  0  0  0  0  0  0  0  0  0  0
   -1.8690   68.2020   66.8580 C   0  0  0  0  0  0  0  0  0  0  0  0
   -2.6560   67.6450   67.6160 O   0  0  0  0  0  0  0  0  0  0  0  0
    1.9721   67.1760   66.2542 H   0  0  0  0  0  0  0  0  0  0  0  0
    1.3991   69.1494   68.2566 H   0  0  0  0  0  0  0  0  0  0  0  0
    2.7833   70.5350   69.7930 H   0  0  0  0  0  0  0  0  0  0  0  0
    5.0948   71.1998   69.1410 H   0  0  0  0  0  0  0  0  0  0  0  0
    6.0206   70.4886   66.9388 H   0  0  0  0  0  0  0  0  0  0  0  0
    4.6466   69.0998   65.3958 H   0  0  0  0  0  0  0  0  0  0  0  0
    3.4157   65.8567   65.1151 H   0  0  0  0  0  0  0  0  0  0  0  0
    4.7053   65.3237   63.0554 H   0  0  0  0  0  0  0  0  0  0  0  0
    4.9160   67.0142   61.2374 H   0  0  0  0  0  0  0  0  0  0  0  0
    3.8340   69.2450   61.4831 H   0  0  0  0  0  0  0  0  0  0  0  0
    2.5467   69.7940   63.5426 H   0  0  0  0  0  0  0  0  0  0  0  0
   -0.3947   66.7276   66.3694 H   0  0  0  0  0  0  0  0  0  0  0  0
    0.0779   67.8728   67.6782 H   0  0  0  0  0  0  0  0  0  0  0  0
   -3.2450   69.5706   66.1007 H   0  0  0  0  0  0  0  0  0  0  0  0
   -1.6107   69.6581   65.3907 H   0  0  0  0  0  0  0  0  0  0  0  0
  2  1  1  0
  3  2  2  0
  4  3  1  0
  5  4  2  0
  6  5  1  0
  7  6  2  0
  7  2  1  0
  8  1  1  0
  9  8  2  0
 10  9  1  0
 11 10  2  0
 12 11  1  0
 13 12  2  0
 13  8  1  0
 14  1  1  0
 14 15  1  6
 16 14  1  0
 18 17  1  0
 18 16  1  0
 19 18  2  0
  1 20  1  0
  3 21  1  0
  4 22  1  0
  5 23  1  0
  6 24  1  0
  7 25  1  0
  9 26  1  0
 10 27  1  0
 11 28  1  0
 12 29  1  0
 13 30  1  0
 16 31  1  0
 16 32  1  0
 17 33  1  0
 17 34  1  0
M  CHG  2  14   1  15  -1
M  END
>  <score>  (3) 
-9.326

$$$$
=
     RDKit          3D

 34 35  0  0  0  0  0  0  0  0999 V2000
    3.1160   69.4060   66.0170 C   0  0  0  0  0  0  0  0  0  0  0  0
    3.5010   68.5020   64.8520 C   0  0  0  0  0  0  0  0  0  0  0  0
    3.5820   67.1060   64.9890 C   0  0  0  0  0  0  0  0  0  0  0  0
    3.9280   66.3030   63.9000 C   0  0  0  0  0  0  0  0  0  0  0  0
    4.2050   66.8820   62.6640 C   0  0  0  0  0  0  0  0  0  0  0  0
    4.1410   68.2640   62.5140 C   0  0  0  0  0  0  0  0  0  0  0  0
    3.7940   69.0700   63.6010 C   0  0  0  0  0  0  0  0  0  0  0  0
    4.3280   69.8310   66.8420 C   0  0  0  0  0  0  0  0  0  0  0  0
    4.1340   70.2490   68.1720 C   0  0  0  0  0  0  0  0  0  0  0  0
    5.2080   70.6760   68.9550 C   0  0  0  0  0  0  0  0  0  0  0  0
    6.4940   70.7000   68.4230 C   0  0  0  0  0  0  0  0  0  0  0  0
    6.7050   70.3010   67.1060 C   0  0  0  0  0  0  0  0  0  0  0  0
    5.6320   69.8740   66.3190 C   0  0  0  0  0  0  0  0  0  0  0  0
    1.7470   68.6940   67.0390 S   0  0  0  0  0  3  0  0  0  0  0  0
    1.1210   69.9060   67.9990 O   0  0  0  0  0  1  0  0  0  0  0  0
    0.5700   68.4510   65.6750 C   0  0  0  0  0  0  0  0  0  0  0  0
   -1.5630   69.4400   66.3220 N   0  0  0  0  0  0  0  0  0  0  0  0
   -0.8300   68.2910   66.2140 C   0  0  0  0  0  0  0  0  0  0  0  0
   -1.3180   67.2010   66.4970 O   0  0  0  0  0  0  0  0  0  0  0  0
    2.7099   70.3315   65.5827 H   0  0  0  0  0  0  0  0  0  0  0  0
    3.3709   66.6411   65.9633 H   0  0  0  0  0  0  0  0  0  0  0  0
    3.9819   65.2108   64.0188 H   0  0  0  0  0  0  0  0  0  0  0  0
    4.4742   66.2473   61.8069 H   0  0  0  0  0  0  0  0  0  0  0  0
    4.3638   68.7220   61.5390 H   0  0  0  0  0  0  0  0  0  0  0  0
    3.7497   70.1620   63.4759 H   0  0  0  0  0  0  0  0  0  0  0  0
    3.1211   70.2391   68.6008 H   0  0  0  0  0  0  0  0  0  0  0  0
    5.0377   70.9940   69.9942 H   0  0  0  0  0  0  0  0  0  0  0  0
    7.3408   71.0331   69.0411 H   0  0  0  0  0  0  0  0  0  0  0  0
    7.7203   70.3219   66.6832 H   0  0  0  0  0  0  0  0  0  0  0  0
    5.8101   69.5678   65.2776 H   0  0  0  0  0  0  0  0  0  0  0  0
    0.6040   69.3239   65.0065 H   0  0  0  0  0  0  0  0  0  0  0  0
    0.8465   67.5416   65.1214 H   0  0  0  0  0  0  0  0  0  0  0  0
   -2.5271   69.4038   66.6827 H   0  0  0  0  0  0  0  0  0  0  0  0
   -1.1511   70.3418   66.0426 H   0  0  0  0  0  0  0  0  0  0  0  0
  2  1  1  0
  3  2  2  0
  4  3  1  0
  5  4  2  0
  6  5  1  0
  7  6  2  0
  7  2  1  0
  8  1  1  0
  9  8  2  0
 10  9  1  0
 11 10  2  0
 12 11  1  0
 13 12  2  0
 13  8  1  0
 14  1  1  0
 14 15  1  1
 16 14  1  0
 18 17  1  0
 18 16  1  0
 19 18  2  0
  1 20  1  0
  3 21  1  0
  4 22  1  0
  5 23  1  0
  6 24  1  0
  7 25  1  0
  9 26  1  0
 10 27  1  0
 11 28  1  0
 12 29  1  0
 13 30  1  0
 16 31  1  0
 16 32  1  0
 17 33  1  0
 17 34  1  0
M  CHG  2  14   1  15  -1
M  END
>  <score>  (4) 
-9.323

$$$$
=
     RDKit          3D

 34 35  0  0  0  0  0  0  0  0999 V2000
    1.8600   68.7410   66.1490 C   0  0  0  0  0  0  0  0  0  0  0  0
    2.9930   69.3980   66.9270 C   0  0  0  0  0  0  0  0  0  0  0  0
    4.2970   69.4880   66.4110 C   0  0  0  0  0  0  0  0  0  0  0  0
    5.3130   70.1050   67.1450 C   0  0  0  0  0  0  0  0  0  0  0  0
    5.0430   70.6330   68.4050 C   0  0  0  0  0  0  0  0  0  0  0  0
    3.7600   70.5410   68.9370 C   0  0  0  0  0  0  0  0  0  0  0  0
    2.7420   69.9250   68.2050 C   0  0  0  0  0  0  0  0  0  0  0  0
    0.8690   68.0280   67.0640 C   0  0  0  0  0  0  0  0  0  0  0  0
    1.3440   67.4280   68.2470 C   0  0  0  0  0  0  0  0  0  0  0  0
    0.4800   66.7380   69.0990 C   0  0  0  0  0  0  0  0  0  0  0  0
   -0.8710   66.6270   68.7840 C   0  0  0  0  0  0  0  0  0  0  0  0
   -1.3580   67.2040   67.6140 C   0  0  0  0  0  0  0  0  0  0  0  0
   -0.4960   67.8940   66.7580 C   0  0  0  0  0  0  0  0  0  0  0  0
    2.4810   67.6740   64.7680 S   0  0  0  0  0  3  0  0  0  0  0  0
    1.6140   66.2490   64.7750 O   0  0  0  0  0  1  0  0  0  0  0  0
    1.8150   68.6810   63.4090 C   0  0  0  0  0  0  0  0  0  0  0  0
    2.1670   69.1060   61.0330 N   0  0  0  0  0  0  0  0  0  0  0  0
    2.5430   68.3710   62.1230 C   0  0  0  0  0  0  0  0  0  0  0  0
    3.4520   67.5510   62.0490 O   0  0  0  0  0  0  0  0  0  0  0  0
    1.2922   69.5502   65.6665 H   0  0  0  0  0  0  0  0  0  0  0  0
    4.5200   69.0683   65.4190 H   0  0  0  0  0  0  0  0  0  0  0  0
    6.3281   70.1739   66.7269 H   0  0  0  0  0  0  0  0  0  0  0  0
    5.8432   71.1225   68.9795 H   0  0  0  0  0  0  0  0  0  0  0  0
    3.5476   70.9536   69.9343 H   0  0  0  0  0  0  0  0  0  0  0  0
    1.7319   69.8517   68.6343 H   0  0  0  0  0  0  0  0  0  0  0  0
    2.4111   67.5044   68.5029 H   0  0  0  0  0  0  0  0  0  0  0  0
    0.8678   66.2810   70.0214 H   0  0  0  0  0  0  0  0  0  0  0  0
   -1.5519   66.0853   69.4570 H   0  0  0  0  0  0  0  0  0  0  0  0
   -2.4253   67.1162   67.3628 H   0  0  0  0  0  0  0  0  0  0  0  0
   -0.8909   68.3382   65.8324 H   0  0  0  0  0  0  0  0  0  0  0  0
    0.7450   68.4589   63.2831 H   0  0  0  0  0  0  0  0  0  0  0  0
    1.9525   69.7452   63.6510 H   0  0  0  0  0  0  0  0  0  0  0  0
    2.6221   68.9470   60.1228 H   0  0  0  0  0  0  0  0  0  0  0  0
    1.4287   69.8186   61.1222 H   0  0  0  0  0  0  0  0  0  0  0  0
  2  1  1  0
  3  2  2  0
  4  3  1  0
  5  4  2  0
  6  5  1  0
  7  6  2  0
  7  2  1  0
  8  1  1  0
  9  8  2  0
 10  9  1  0
 11 10  2  0
 12 11  1  0
 13 12  2  0
 13  8  1  0
 14  1  1  0
 14 15  1  1
 16 14  1  0
 18 17  1  0
 18 16  1  0
 19 18  2  0
  1 20  1  0
  3 21  1  0
  4 22  1  0
  5 23  1  0
  6 24  1  0
  7 25  1  0
  9 26  1  0
 10 27  1  0
 11 28  1  0
 12 29  1  0
 13 30  1  0
 16 31  1  0
 16 32  1  0
 17 33  1  0
 17 34  1  0
M  CHG  2  14   1  15  -1
M  END
>  <score>  (5) 
-9.318

$$$$
=
     RDKit          3D

 34 35  0  0  0  0  0  0  0  0999 V2000
    3.4130   67.8270   64.2890 C   0  0  0  0  0  0  0  0  0  0  0  0
    3.9370   68.7350   65.3940 C   0  0  0  0  0  0  0  0  0  0  0  0
    5.2130   69.3210   65.3340 C   0  0  0  0  0  0  0  0  0  0  0  0
    5.6620   70.1570   66.3590 C   0  0  0  0  0  0  0  0  0  0  0  0
    4.8480   70.4130   67.4600 C   0  0  0  0  0  0  0  0  0  0  0  0
    3.5860   69.8310   67.5410 C   0  0  0  0  0  0  0  0  0  0  0  0
    3.1340   68.9950   66.5170 C   0  0  0  0  0  0  0  0  0  0  0  0
    2.1860   68.4120   63.5950 C   0  0  0  0  0  0  0  0  0  0  0  0
    2.2760   68.7630   62.2340 C   0  0  0  0  0  0  0  0  0  0  0  0
    1.1890   69.3300   61.5650 C   0  0  0  0  0  0  0  0  0  0  0  0
   -0.0030   69.5640   62.2440 C   0  0  0  0  0  0  0  0  0  0  0  0
   -0.1090   69.2340   63.5920 C   0  0  0  0  0  0  0  0  0  0  0  0
    0.9780   68.6670   64.2650 C   0  0  0  0  0  0  0  0  0  0  0  0
    3.1680   66.0850   64.8660 S   0  0  0  0  0  3  0  0  0  0  0  0
    1.5770   65.6610   64.5980 O   0  0  0  0  0  1  0  0  0  0  0  0
    4.1450   65.2890   63.5560 C   0  0  0  0  0  0  0  0  0  0  0  0
    3.9820   63.4420   65.1410 N   0  0  0  0  0  0  0  0  0  0  0  0
    4.4290   63.8510   63.9150 C   0  0  0  0  0  0  0  0  0  0  0  0
    4.9810   63.0660   63.1500 O   0  0  0  0  0  0  0  0  0  0  0  0
    4.1965   67.7761   63.5186 H   0  0  0  0  0  0  0  0  0  0  0  0
    5.8647   69.1193   64.4711 H   0  0  0  0  0  0  0  0  0  0  0  0
    6.6605   70.6142   66.2966 H   0  0  0  0  0  0  0  0  0  0  0  0
    5.2020   71.0743   68.2646 H   0  0  0  0  0  0  0  0  0  0  0  0
    2.9442   70.0295   68.4120 H   0  0  0  0  0  0  0  0  0  0  0  0
    2.1376   68.5349   66.5909 H   0  0  0  0  0  0  0  0  0  0  0  0
    3.2160   68.5880   61.6901 H   0  0  0  0  0  0  0  0  0  0  0  0
    1.2752   69.5919   60.5001 H   0  0  0  0  0  0  0  0  0  0  0  0
   -0.8596   70.0088   61.7165 H   0  0  0  0  0  0  0  0  0  0  0  0
   -1.0505   69.4197   64.1296 H   0  0  0  0  0  0  0  0  0  0  0  0
    0.8858   68.4176   65.3324 H   0  0  0  0  0  0  0  0  0  0  0  0
    3.5817   65.3229   62.6118 H   0  0  0  0  0  0  0  0  0  0  0  0
    5.0990   65.8253   63.4451 H   0  0  0  0  0  0  0  0  0  0  0  0
    4.1418   62.4726   65.4503 H   0  0  0  0  0  0  0  0  0  0  0  0
    3.4855   64.1033   65.7551 H   0  0  0  0  0  0  0  0  0  0  0  0
  2  1  1  0
  3  2  2  0
  4  3  1  0
  5  4  2  0
  6  5  1  0
  7  6  2  0
  7  2  1  0
  8  1  1  0
  9  8  2  0
 10  9  1  0
 11 10  2  0
 12 11  1  0
 13 12  2  0
 13  8  1  0
 14  1  1  0
 14 15  1  6
 16 14  1  0
 18 17  1  0
 18 16  1  0
 19 18  2  0
  1 20  1  0
  3 21  1  0
  4 22  1  0
  5 23  1  0
  6 24  1  0
  7 25  1  0
  9 26  1  0
 10 27  1  0
 11 28  1  0
 12 29  1  0
 13 30  1  0
 16 31  1  0
 16 32  1  0
 17 33  1  0
 17 34  1  0
M  CHG  2  14   1  15  -1
M  END
>  <score>  (6) 
-9.257

$$$$
=
     RDKit          3D

 34 35  0  0  0  0  0  0  0  0999 V2000
    3.8440   69.3140   65.4790 C   0  0  0  0  0  0  0  0  0  0  0  0
    4.5910   69.8430   66.6970 C   0  0  0  0  0  0  0  0  0  0  0  0
    3.9260   70.1930   67.8840 C   0  0  0  0  0  0  0  0  0  0  0  0
    4.6390   70.6670   68.9870 C   0  0  0  0  0  0  0  0  0  0  0  0
    6.0240   70.8050   68.9180 C   0  0  0  0  0  0  0  0  0  0  0  0
    6.6970   70.4750   67.7450 C   0  0  0  0  0  0  0  0  0  0  0  0
    5.9860   70.0000   66.6400 C   0  0  0  0  0  0  0  0  0  0  0  0
    2.4750   68.7440   65.8450 C   0  0  0  0  0  0  0  0  0  0  0  0
    1.4070   68.9060   64.9420 C   0  0  0  0  0  0  0  0  0  0  0  0
    0.1300   68.4300   65.2470 C   0  0  0  0  0  0  0  0  0  0  0  0
   -0.1040   67.7910   66.4600 C   0  0  0  0  0  0  0  0  0  0  0  0
    0.9360   67.6300   67.3710 C   0  0  0  0  0  0  0  0  0  0  0  0
    2.2150   68.1070   67.0700 C   0  0  0  0  0  0  0  0  0  0  0  0
    4.8750   68.1530   64.4700 S   0  0  0  0  0  3  0  0  0  0  0  0
    4.0160   66.7390   64.2540 O   0  0  0  0  0  1  0  0  0  0  0  0
    4.7590   69.0750   62.9070 C   0  0  0  0  0  0  0  0  0  0  0  0
    4.4820   67.1200   61.4750 N   0  0  0  0  0  0  0  0  0  0  0  0
    3.9410   68.3010   61.9020 C   0  0  0  0  0  0  0  0  0  0  0  0
    2.8350   68.6650   61.5170 O   0  0  0  0  0  0  0  0  0  0  0  0
    3.6448   70.1766   64.8262 H   0  0  0  0  0  0  0  0  0  0  0  0
    2.8323   70.0926   67.9451 H   0  0  0  0  0  0  0  0  0  0  0  0
    4.1064   70.9320   69.9123 H   0  0  0  0  0  0  0  0  0  0  0  0
    6.5847   71.1742   69.7894 H   0  0  0  0  0  0  0  0  0  0  0  0
    7.7897   70.5883   67.6880 H   0  0  0  0  0  0  0  0  0  0  0  0
    6.5245   69.7461   65.7150 H   0  0  0  0  0  0  0  0  0  0  0  0
    1.5809   69.4148   63.9824 H   0  0  0  0  0  0  0  0  0  0  0  0
   -0.6915   68.5606   64.5272 H   0  0  0  0  0  0  0  0  0  0  0  0
   -1.1092   67.4135   66.6990 H   0  0  0  0  0  0  0  0  0  0  0  0
    0.7508   67.1258   68.3309 H   0  0  0  0  0  0  0  0  0  0  0  0
    3.0275   67.9822   67.8009 H   0  0  0  0  0  0  0  0  0  0  0  0
    4.2793   70.0471   63.0938 H   0  0  0  0  0  0  0  0  0  0  0  0
    5.7715   69.2257   62.5044 H   0  0  0  0  0  0  0  0  0  0  0  0
    3.9773   66.5405   60.7892 H   0  0  0  0  0  0  0  0  0  0  0  0
    5.3942   66.8099   61.8392 H   0  0  0  0  0  0  0  0  0  0  0  0
  2  1  1  0
  3  2  2  0
  4  3  1  0
  5  4  2  0
  6  5  1  0
  7  6  2  0
  7  2  1  0
  8  1  1  0
  9  8  2  0
 10  9  1  0
 11 10  2  0
 12 11  1  0
 13 12  2  0
 13  8  1  0
 14  1  1  0
 14 15  1  6
 16 14  1  0
 18 17  1  0
 18 16  1  0
 19 18  2  0
  1 20  1  0
  3 21  1  0
  4 22  1  0
  5 23  1  0
  6 24  1  0
  7 25  1  0
  9 26  1  0
 10 27  1  0
 11 28  1  0
 12 29  1  0
 13 30  1  0
 16 31  1  0
 16 32  1  0
 17 33  1  0
 17 34  1  0
M  CHG  2  14   1  15  -1
M  END
>  <score>  (7) 
-8.973

$$$$
=
     RDKit          3D

 34 35  0  0  0  0  0  0  0  0999 V2000
    2.9160   68.4520   66.0220 C   0  0  0  0  0  0  0  0  0  0  0  0
    1.4530   68.2270   66.3850 C   0  0  0  0  0  0  0  0  0  0  0  0
    1.0720   67.4190   67.4700 C   0  0  0  0  0  0  0  0  0  0  0  0
   -0.2770   67.2390   67.7840 C   0  0  0  0  0  0  0  0  0  0  0  0
   -1.2620   67.8550   67.0170 C   0  0  0  0  0  0  0  0  0  0  0  0
   -0.9020   68.6490   65.9310 C   0  0  0  0  0  0  0  0  0  0  0  0
    0.4460   68.8320   65.6150 C   0  0  0  0  0  0  0  0  0  0  0  0
    3.6060   69.4200   66.9800 C   0  0  0  0  0  0  0  0  0  0  0  0
    4.9420   69.7880   66.7310 C   0  0  0  0  0  0  0  0  0  0  0  0
    5.6240   70.6460   67.5960 C   0  0  0  0  0  0  0  0  0  0  0  0
    4.9870   71.1440   68.7290 C   0  0  0  0  0  0  0  0  0  0  0  0
    3.6710   70.7840   68.9990 C   0  0  0  0  0  0  0  0  0  0  0  0
    2.9850   69.9250   68.1350 C   0  0  0  0  0  0  0  0  0  0  0  0
    3.1370   68.9030   64.2400 S   0  0  0  0  0  3  0  0  0  0  0  0
    4.7220   69.3670   64.0070 O   0  0  0  0  0  1  0  0  0  0  0  0
    2.9860   67.2170   63.5760 C   0  0  0  0  0  0  0  0  0  0  0  0
    4.1950   67.8330   61.5500 N   0  0  0  0  0  0  0  0  0  0  0  0
    4.0900   66.9440   62.5840 C   0  0  0  0  0  0  0  0  0  0  0  0
    4.8850   66.0180   62.7050 O   0  0  0  0  0  0  0  0  0  0  0  0
    3.4294   67.4876   66.1499 H   0  0  0  0  0  0  0  0  0  0  0  0
    1.8436   66.9236   68.0777 H   0  0  0  0  0  0  0  0  0  0  0  0
   -0.5618   66.6089   68.6395 H   0  0  0  0  0  0  0  0  0  0  0  0
   -2.3236   67.7147   67.2685 H   0  0  0  0  0  0  0  0  0  0  0  0
   -1.6799   69.1323   65.3217 H   0  0  0  0  0  0  0  0  0  0  0  0
    0.7223   69.4572   64.7531 H   0  0  0  0  0  0  0  0  0  0  0  0
    5.4560   69.3938   65.8420 H   0  0  0  0  0  0  0  0  0  0  0  0
    6.6653   70.9286   67.3820 H   0  0  0  0  0  0  0  0  0  0  0  0
    5.5236   71.8212   69.4098 H   0  0  0  0  0  0  0  0  0  0  0  0
    3.1682   71.1764   69.8952 H   0  0  0  0  0  0  0  0  0  0  0  0
    1.9468   69.6411   68.3621 H   0  0  0  0  0  0  0  0  0  0  0  0
    3.0537   66.4941   64.4024 H   0  0  0  0  0  0  0  0  0  0  0  0
    2.0156   67.1182   63.0676 H   0  0  0  0  0  0  0  0  0  0  0  0
    4.9263   67.7079   60.8356 H   0  0  0  0  0  0  0  0  0  0  0  0
    3.5427   68.6276   61.4857 H   0  0  0  0  0  0  0  0  0  0  0  0
  2  1  1  0
  3  2  2  0
  4  3  1  0
  5  4  2  0
  6  5  1  0
  7  6  2  0
  7  2  1  0
  8  1  1  0
  9  8  2  0
 10  9  1  0
 11 10  2  0
 12 11  1  0
 13 12  2  0
 13  8  1  0
 14  1  1  0
 14 15  1  1
 16 14  1  0
 18 17  1  0
 18 16  1  0
 19 18  2  0
  1 20  1  0
  3 21  1  0
  4 22  1  0
  5 23  1  0
  6 24  1  0
  7 25  1  0
  9 26  1  0
 10 27  1  0
 11 28  1  0
 12 29  1  0
 13 30  1  0
 16 31  1  0
 16 32  1  0
 17 33  1  0
 17 34  1  0
M  CHG  2  14   1  15  -1
M  END
>  <score>  (8) 
-8.78

$$$$
=
     RDKit          3D

 34 35  0  0  0  0  0  0  0  0999 V2000
    2.6600   68.4910   66.0390 C   0  0  0  0  0  0  0  0  0  0  0  0
    1.2200   68.3370   66.5150 C   0  0  0  0  0  0  0  0  0  0  0  0
    0.2010   69.2070   66.0940 C   0  0  0  0  0  0  0  0  0  0  0  0
   -1.1120   69.0360   66.5400 C   0  0  0  0  0  0  0  0  0  0  0  0
   -1.4220   68.0000   67.4180 C   0  0  0  0  0  0  0  0  0  0  0  0
   -0.4210   67.1370   67.8550 C   0  0  0  0  0  0  0  0  0  0  0  0
    0.8920   67.3050   67.4090 C   0  0  0  0  0  0  0  0  0  0  0  0
    3.4820   69.3830   66.9650 C   0  0  0  0  0  0  0  0  0  0  0  0
    4.8020   69.7110   66.6010 C   0  0  0  0  0  0  0  0  0  0  0  0
    5.6020   70.4990   67.4310 C   0  0  0  0  0  0  0  0  0  0  0  0
    5.1020   70.9660   68.6430 C   0  0  0  0  0  0  0  0  0  0  0  0
    3.8030   70.6440   69.0270 C   0  0  0  0  0  0  0  0  0  0  0  0
    3.0000   69.8540   68.1990 C   0  0  0  0  0  0  0  0  0  0  0  0
    2.7640   68.9900   64.2590 S   0  0  0  0  0  3  0  0  0  0  0  0
    4.2820   68.5970   63.6900 O   0  0  0  0  0  1  0  0  0  0  0  0
    1.6260   67.7240   63.6190 C   0  0  0  0  0  0  0  0  0  0  0  0
    1.2310   68.9770   61.5640 N   0  0  0  0  0  0  0  0  0  0  0  0
    0.6640   68.3370   62.6310 C   0  0  0  0  0  0  0  0  0  0  0  0
   -0.5550   68.2370   62.7330 O   0  0  0  0  0  0  0  0  0  0  0  0
    3.1228   67.4947   66.0950 H   0  0  0  0  0  0  0  0  0  0  0  0
    0.4391   70.0316   65.4060 H   0  0  0  0  0  0  0  0  0  0  0  0
   -1.9020   69.7204   66.1973 H   0  0  0  0  0  0  0  0  0  0  0  0
   -2.4567   67.8640   67.7657 H   0  0  0  0  0  0  0  0  0  0  0  0
   -0.6643   66.3218   68.5523 H   0  0  0  0  0  0  0  0  0  0  0  0
    1.6779   66.6212   67.7621 H   0  0  0  0  0  0  0  0  0  0  0  0
    5.2092   69.3409   65.6485 H   0  0  0  0  0  0  0  0  0  0  0  0
    6.6286   70.7509   67.1266 H   0  0  0  0  0  0  0  0  0  0  0  0
    5.7317   71.5881   69.2961 H   0  0  0  0  0  0  0  0  0  0  0  0
    3.4073   71.0124   69.9850 H   0  0  0  0  0  0  0  0  0  0  0  0
    1.9786   69.5978   68.5168 H   0  0  0  0  0  0  0  0  0  0  0  0
    2.2058   66.9342   63.1189 H   0  0  0  0  0  0  0  0  0  0  0  0
    1.0554   67.2985   64.4576 H   0  0  0  0  0  0  0  0  0  0  0  0
    0.6329   69.4182   60.8508 H   0  0  0  0  0  0  0  0  0  0  0  0
    2.2562   69.0180   61.4734 H   0  0  0  0  0  0  0  0  0  0  0  0
  2  1  1  0
  3  2  2  0
  4  3  1  0
  5  4  2  0
  6  5  1  0
  7  6  2  0
  7  2  1  0
  8  1  1  0
  9  8  2  0
 10  9  1  0
 11 10  2  0
 12 11  1  0
 13 12  2  0
 13  8  1  0
 14  1  1  0
 14 15  1  6
 16 14  1  0
 18 17  1  0
 18 16  1  0
 19 18  2  0
  1 20  1  0
  3 21  1  0
  4 22  1  0
  5 23  1  0
  6 24  1  0
  7 25  1  0
  9 26  1  0
 10 27  1  0
 11 28  1  0
 12 29  1  0
 13 30  1  0
 16 31  1  0
 16 32  1  0
 17 33  1  0
 17 34  1  0
M  CHG  2  14   1  15  -1
M  END
>  <score>  (9) 
-8.553

$$$$
