=
     RDKit          3D

 42 43  0  0  0  0  0  0  0  0999 V2000
   -0.3090   68.3800   65.6760 C   0  0  0  0  0  0  0  0  0  0  0  0
    0.4890   68.7300   64.4110 C   0  0  0  0  0  0  0  0  0  0  0  0
    3.7410   66.0160   63.9300 C   0  0  0  0  0  0  0  0  0  0  0  0
    2.6320   65.6680   64.7060 C   0  0  0  0  0  0  0  0  0  0  0  0
    1.5780   66.5650   64.8500 C   0  0  0  0  0  0  0  0  0  0  0  0
    1.6180   67.7750   64.2440 N   0  0  0  0  0  4  0  0  0  0  0  0
    2.7020   68.1390   63.5150 C   0  0  0  0  0  0  0  0  0  0  0  0
    3.7820   67.2770   63.3350 C   0  0  0  0  0  0  0  0  0  0  0  0
    5.0950   67.8930   62.4080 Cl  0  0  0  0  0  0  0  0  0  0  0  0
    4.5760   63.8430   63.2330 N   0  0  0  0  0  0  0  0  0  0  0  0
    4.7900   64.9840   63.7960 C   0  0  0  0  0  0  0  0  0  0  0  0
    5.7540   63.0900   63.2910 O   0  0  0  0  0  0  0  0  0  0  0  0
    0.1410   69.2020   66.8950 C   0  0  0  0  0  0  0  0  0  0  0  0
    1.1390   68.4410   67.7810 C   0  0  0  0  0  0  0  0  0  0  0  0
    2.4020   69.2170   67.8960 N   0  0  0  0  0  4  0  0  0  0  0  0
    2.6360   69.9560   69.0070 C   0  0  0  0  0  0  0  0  0  0  0  0
    3.8100   70.6800   69.1430 C   0  0  0  0  0  0  0  0  0  0  0  0
    4.7520   70.6610   68.1150 C   0  0  0  0  0  0  0  0  0  0  0  0
    4.4950   69.9120   66.9710 C   0  0  0  0  0  0  0  0  0  0  0  0
    3.3050   69.1980   66.8830 C   0  0  0  0  0  0  0  0  0  0  0  0
    6.0220   71.3960   68.3260 C   0  0  0  0  0  0  0  0  0  0  0  0
    6.1020   72.5720   68.0020 O   0  0  0  0  0  0  0  0  0  0  0  0
    7.0750   70.7240   68.8720 N   0  0  0  0  0  0  0  0  0  0  0  0
   -1.3745   68.5792   65.4887 H   0  0  0  0  0  0  0  0  0  0  0  0
   -0.1329   67.3180   65.9023 H   0  0  0  0  0  0  0  0  0  0  0  0
   -0.1725   68.6697   63.5342 H   0  0  0  0  0  0  0  0  0  0  0  0
    0.8888   69.7504   64.5057 H   0  0  0  0  0  0  0  0  0  0  0  0
    2.5924   64.6870   65.2020 H   0  0  0  0  0  0  0  0  0  0  0  0
    0.7058   66.2889   65.4608 H   0  0  0  0  0  0  0  0  0  0  0  0
    2.7294   69.1379   63.0551 H   0  0  0  0  0  0  0  0  0  0  0  0
    5.7938   65.1971   64.1922 H   0  0  0  0  0  0  0  0  0  0  0  0
    5.7785   62.1787   62.9050 H   0  0  0  0  0  0  0  0  0  0  0  0
    0.6185   70.1272   66.5400 H   0  0  0  0  0  0  0  0  0  0  0  0
   -0.7509   69.4150   67.5026 H   0  0  0  0  0  0  0  0  0  0  0  0
    0.7049   68.2991   68.7817 H   0  0  0  0  0  0  0  0  0  0  0  0
    1.3538   67.4616   67.3286 H   0  0  0  0  0  0  0  0  0  0  0  0
    1.8854   69.9818   69.8107 H   0  0  0  0  0  0  0  0  0  0  0  0
    3.9973   71.2654   70.0553 H   0  0  0  0  0  0  0  0  0  0  0  0
    5.2234   69.8850   66.1472 H   0  0  0  0  0  0  0  0  0  0  0  0
    3.0923   68.6089   65.9787 H   0  0  0  0  0  0  0  0  0  0  0  0
    7.9696   71.2094   69.0300 H   0  0  0  0  0  0  0  0  0  0  0  0
    6.9760   69.7309   69.1265 H   0  0  0  0  0  0  0  0  0  0  0  0
  2  1  1  0
  4  3  2  0
  5  4  1  0
  6  5  2  0
  6  2  1  0
  7  6  1  0
  8  7  2  0
  8  3  1  0
  9  8  1  0
 11 10  2  0
 11  3  1  0
 12 10  1  0
 13  1  1  0
 14 13  1  0
 15 14  1  0
 16 15  2  0
 17 16  1  0
 18 17  2  0
 19 18  1  0
 20 19  2  0
 20 15  1  0
 21 18  1  0
 22 21  2  0
 23 21  1  0
  1 24  1  0
  1 25  1  0
  2 26  1  0
  2 27  1  0
  4 28  1  0
  5 29  1  0
  7 30  1  0
 11 31  1  0
 12 32  1  0
 13 33  1  0
 13 34  1  0
 14 35  1  0
 14 36  1  0
 16 37  1  0
 17 38  1  0
 19 39  1  0
 20 40  1  0
 23 41  1  0
 23 42  1  0
M  CHG  2   6   1  15   1
M  END
>  <score>  (1) 
-8.934

$$$$
=
     RDKit          3D

 42 43  0  0  0  0  0  0  0  0999 V2000
    0.7170   67.9730   68.0190 C   0  0  0  0  0  0  0  0  0  0  0  0
    0.8730   69.4990   67.9410 C   0  0  0  0  0  0  0  0  0  0  0  0
    4.9980   70.5480   68.1890 C   0  0  0  0  0  0  0  0  0  0  0  0
    4.1040   70.9340   69.1910 C   0  0  0  0  0  0  0  0  0  0  0  0
    2.7610   70.5810   69.0950 C   0  0  0  0  0  0  0  0  0  0  0  0
    2.3120   69.8650   68.0380 N   0  0  0  0  0  4  0  0  0  0  0  0
    3.1620   69.5100   67.0420 C   0  0  0  0  0  0  0  0  0  0  0  0
    4.5170   69.8350   67.0900 C   0  0  0  0  0  0  0  0  0  0  0  0
    5.4610   69.3410   65.7390 Cl  0  0  0  0  0  0  0  0  0  0  0  0
    6.9700   70.9170   69.5600 N   0  0  0  0  0  0  0  0  0  0  0  0
    6.4100   70.9270   68.3980 C   0  0  0  0  0  0  0  0  0  0  0  0
    8.2930   71.3500   69.4210 O   0  0  0  0  0  0  0  0  0  0  0  0
   -0.2190   67.4250   66.9290 C   0  0  0  0  0  0  0  0  0  0  0  0
   -0.1580   68.2500   65.6340 C   0  0  0  0  0  0  0  0  0  0  0  0
    1.0720   67.9040   64.8740 N   0  0  0  0  0  4  0  0  0  0  0  0
    1.7120   66.7370   65.1300 C   0  0  0  0  0  0  0  0  0  0  0  0
    2.8540   66.3860   64.4280 C   0  0  0  0  0  0  0  0  0  0  0  0
    3.3610   67.2540   63.4620 C   0  0  0  0  0  0  0  0  0  0  0  0
    2.7070   68.4570   63.2180 C   0  0  0  0  0  0  0  0  0  0  0  0
    1.5600   68.7630   63.9440 C   0  0  0  0  0  0  0  0  0  0  0  0
    4.5470   66.8130   62.6890 C   0  0  0  0  0  0  0  0  0  0  0  0
    4.8690   65.6340   62.6950 O   0  0  0  0  0  0  0  0  0  0  0  0
    5.2520   67.7510   61.9960 N   0  0  0  0  0  0  0  0  0  0  0  0
    1.7076   67.5097   67.9002 H   0  0  0  0  0  0  0  0  0  0  0  0
    0.2740   67.7298   68.9960 H   0  0  0  0  0  0  0  0  0  0  0  0
    0.4686   69.8588   66.9834 H   0  0  0  0  0  0  0  0  0  0  0  0
    0.3237   69.9629   68.7735 H   0  0  0  0  0  0  0  0  0  0  0  0
    4.4607   71.5156   70.0538 H   0  0  0  0  0  0  0  0  0  0  0  0
    2.0589   70.8865   69.8847 H   0  0  0  0  0  0  0  0  0  0  0  0
    2.7733   68.9530   66.1768 H   0  0  0  0  0  0  0  0  0  0  0  0
    7.0090   71.2304   67.5267 H   0  0  0  0  0  0  0  0  0  0  0  0
    8.8812   71.4070   70.2153 H   0  0  0  0  0  0  0  0  0  0  0  0
    0.0723   66.3889   66.7016 H   0  0  0  0  0  0  0  0  0  0  0  0
   -1.2484   67.4798   67.3129 H   0  0  0  0  0  0  0  0  0  0  0  0
   -1.0422   68.0288   65.0181 H   0  0  0  0  0  0  0  0  0  0  0  0
   -0.1402   69.3206   65.8859 H   0  0  0  0  0  0  0  0  0  0  0  0
    1.3203   66.0606   65.9040 H   0  0  0  0  0  0  0  0  0  0  0  0
    3.3570   65.4292   64.6315 H   0  0  0  0  0  0  0  0  0  0  0  0
    3.0912   69.1570   62.4614 H   0  0  0  0  0  0  0  0  0  0  0  0
    1.0412   69.7156   63.7612 H   0  0  0  0  0  0  0  0  0  0  0  0
    6.0803   67.4735   61.4502 H   0  0  0  0  0  0  0  0  0  0  0  0
    4.9566   68.7375   62.0180 H   0  0  0  0  0  0  0  0  0  0  0  0
  2  1  1  0
  4  3  2  0
  5  4  1  0
  6  5  2  0
  6  2  1  0
  7  6  1  0
  8  7  2  0
  8  3  1  0
  9  8  1  0
 11 10  2  0
 11  3  1  0
 12 10  1  0
 13  1  1  0
 14 13  1  0
 15 14  1  0
 16 15  2  0
 17 16  1  0
 18 17  2  0
 19 18  1  0
 20 19  2  0
 20 15  1  0
 21 18  1  0
 22 21  2  0
 23 21  1  0
  1 24  1  0
  1 25  1  0
  2 26  1  0
  2 27  1  0
  4 28  1  0
  5 29  1  0
  7 30  1  0
 11 31  1  0
 12 32  1  0
 13 33  1  0
 13 34  1  0
 14 35  1  0
 14 36  1  0
 16 37  1  0
 17 38  1  0
 19 39  1  0
 20 40  1  0
 23 41  1  0
 23 42  1  0
M  CHG  2   6   1  15   1
M  END
>  <score>  (2) 
-8.8

$$$$
=
     RDKit          3D

 42 43  0  0  0  0  0  0  0  0999 V2000
    0.2760   67.1380   67.3220 C   0  0  0  0  0  0  0  0  0  0  0  0
   -0.3920   67.9640   66.2120 C   0  0  0  0  0  0  0  0  0  0  0  0
    2.2320   68.2400   62.8630 C   0  0  0  0  0  0  0  0  0  0  0  0
    1.0720   69.0180   62.9250 C   0  0  0  0  0  0  0  0  0  0  0  0
    0.2290   68.9170   64.0270 C   0  0  0  0  0  0  0  0  0  0  0  0
    0.5210   68.0700   65.0420 N   0  0  0  0  0  4  0  0  0  0  0  0
    1.6260   67.2850   64.9800 C   0  0  0  0  0  0  0  0  0  0  0  0
    2.5070   67.3500   63.9020 C   0  0  0  0  0  0  0  0  0  0  0  0
    3.8470   66.2720   63.9540 Cl  0  0  0  0  0  0  0  0  0  0  0  0
    2.7200   69.1540   60.6650 N   0  0  0  0  0  0  0  0  0  0  0  0
    3.0900   68.4480   61.6790 C   0  0  0  0  0  0  0  0  0  0  0  0
    3.7410   69.1320   59.7090 O   0  0  0  0  0  0  0  0  0  0  0  0
    0.8610   68.0220   68.4360 C   0  0  0  0  0  0  0  0  0  0  0  0
    1.0400   69.4830   67.9940 C   0  0  0  0  0  0  0  0  0  0  0  0
    2.4840   69.8350   67.9960 N   0  0  0  0  0  4  0  0  0  0  0  0
    3.2520   69.5230   66.9240 C   0  0  0  0  0  0  0  0  0  0  0  0
    4.5980   69.8500   66.8970 C   0  0  0  0  0  0  0  0  0  0  0  0
    5.1720   70.4900   67.9950 C   0  0  0  0  0  0  0  0  0  0  0  0
    4.3790   70.7920   69.0980 C   0  0  0  0  0  0  0  0  0  0  0  0
    3.0320   70.4480   69.0760 C   0  0  0  0  0  0  0  0  0  0  0  0
    6.6000   70.8810   67.9000 C   0  0  0  0  0  0  0  0  0  0  0  0
    7.0720   71.6490   68.7250 O   0  0  0  0  0  0  0  0  0  0  0  0
    7.3430   70.3710   66.8780 N   0  0  0  0  0  0  0  0  0  0  0  0
   -0.4743   66.4647   67.7621 H   0  0  0  0  0  0  0  0  0  0  0  0
    1.1052   66.5746   66.8693 H   0  0  0  0  0  0  0  0  0  0  0  0
   -1.3259   67.4719   65.9027 H   0  0  0  0  0  0  0  0  0  0  0  0
   -0.6120   68.9723   66.5928 H   0  0  0  0  0  0  0  0  0  0  0  0
    0.8265   69.7083   62.1045 H   0  0  0  0  0  0  0  0  0  0  0  0
   -0.6827   69.5306   64.0741 H   0  0  0  0  0  0  0  0  0  0  0  0
    1.8313   66.5808   65.7997 H   0  0  0  0  0  0  0  0  0  0  0  0
    4.0860   67.9814   61.6612 H   0  0  0  0  0  0  0  0  0  0  0  0
    3.6319   69.6240   58.8569 H   0  0  0  0  0  0  0  0  0  0  0  0
    0.1817   67.9956   69.3008 H   0  0  0  0  0  0  0  0  0  0  0  0
    1.8549   67.6253   68.6907 H   0  0  0  0  0  0  0  0  0  0  0  0
    0.6343   69.6102   66.9795 H   0  0  0  0  0  0  0  0  0  0  0  0
    0.5039   70.1425   68.6923 H   0  0  0  0  0  0  0  0  0  0  0  0
    2.8014   69.0040   66.0652 H   0  0  0  0  0  0  0  0  0  0  0  0
    5.2096   69.6065   66.0157 H   0  0  0  0  0  0  0  0  0  0  0  0
    4.8117   71.2958   69.9749 H   0  0  0  0  0  0  0  0  0  0  0  0
    2.4006   70.6762   69.9474 H   0  0  0  0  0  0  0  0  0  0  0  0
    8.3370   70.6251   66.7872 H   0  0  0  0  0  0  0  0  0  0  0  0
    6.9106   69.7314   66.1962 H   0  0  0  0  0  0  0  0  0  0  0  0
  2  1  1  0
  4  3  2  0
  5  4  1  0
  6  5  2  0
  6  2  1  0
  7  6  1  0
  8  7  2  0
  8  3  1  0
  9  8  1  0
 11 10  2  0
 11  3  1  0
 12 10  1  0
 13  1  1  0
 14 13  1  0
 15 14  1  0
 16 15  2  0
 17 16  1  0
 18 17  2  0
 19 18  1  0
 20 19  2  0
 20 15  1  0
 21 18  1  0
 22 21  2  0
 23 21  1  0
  1 24  1  0
  1 25  1  0
  2 26  1  0
  2 27  1  0
  4 28  1  0
  5 29  1  0
  7 30  1  0
 11 31  1  0
 12 32  1  0
 13 33  1  0
 13 34  1  0
 14 35  1  0
 14 36  1  0
 16 37  1  0
 17 38  1  0
 19 39  1  0
 20 40  1  0
 23 41  1  0
 23 42  1  0
M  CHG  2   6   1  15   1
M  END
>  <score>  (3) 
-8.601

$$$$
=
     RDKit          3D

 42 43  0  0  0  0  0  0  0  0999 V2000
    1.2160   66.9790   69.5240 C   0  0  0  0  0  0  0  0  0  0  0  0
    0.2400   65.9810   70.1640 C   0  0  0  0  0  0  0  0  0  0  0  0
    2.4070   62.6200   71.6400 C   0  0  0  0  0  0  0  0  0  0  0  0
    1.0730   62.8230   72.0050 C   0  0  0  0  0  0  0  0  0  0  0  0
    0.3800   63.9240   71.5110 C   0  0  0  0  0  0  0  0  0  0  0  0
    0.9880   64.8030   70.6800 N   0  0  0  0  0  4  0  0  0  0  0  0
    2.2910   64.6360   70.3430 C   0  0  0  0  0  0  0  0  0  0  0  0
    3.0300   63.5480   70.8060 C   0  0  0  0  0  0  0  0  0  0  0  0
    4.6790   63.4910   70.3150 Cl  0  0  0  0  0  0  0  0  0  0  0  0
    3.9160   61.4300   73.1280 N   0  0  0  0  0  0  0  0  0  0  0  0
    3.0480   61.4010   72.1740 C   0  0  0  0  0  0  0  0  0  0  0  0
    4.3470   60.1240   73.3800 O   0  0  0  0  0  0  0  0  0  0  0  0
    0.7670   67.4170   68.1200 C   0  0  0  0  0  0  0  0  0  0  0  0
    0.8220   68.9410   67.9340 C   0  0  0  0  0  0  0  0  0  0  0  0
    2.2330   69.3760   67.7600 N   0  0  0  0  0  4  0  0  0  0  0  0
    2.8450   70.0740   68.7470 C   0  0  0  0  0  0  0  0  0  0  0  0
    4.1630   70.4820   68.6140 C   0  0  0  0  0  0  0  0  0  0  0  0
    4.8590   70.1860   67.4430 C   0  0  0  0  0  0  0  0  0  0  0  0
    4.2170   69.4820   66.4290 C   0  0  0  0  0  0  0  0  0  0  0  0
    2.8950   69.0900   66.6110 C   0  0  0  0  0  0  0  0  0  0  0  0
    6.2860   70.5820   67.3670 C   0  0  0  0  0  0  0  0  0  0  0  0
    6.9740   70.5640   68.3770 O   0  0  0  0  0  0  0  0  0  0  0  0
    6.7860   70.9680   66.1590 N   0  0  0  0  0  0  0  0  0  0  0  0
    1.2841   67.8688   70.1671 H   0  0  0  0  0  0  0  0  0  0  0  0
    2.1908   66.4791   69.4245 H   0  0  0  0  0  0  0  0  0  0  0  0
   -0.2892   66.4700   70.9952 H   0  0  0  0  0  0  0  0  0  0  0  0
   -0.4853   65.6471   69.4074 H   0  0  0  0  0  0  0  0  0  0  0  0
    0.5723   62.1142   72.6810 H   0  0  0  0  0  0  0  0  0  0  0  0
   -0.6702   64.0814   71.7980 H   0  0  0  0  0  0  0  0  0  0  0  0
    2.7760   65.3759   69.6893 H   0  0  0  0  0  0  0  0  0  0  0  0
    2.7738   60.4280   71.7402 H   0  0  0  0  0  0  0  0  0  0  0  0
    5.0192   59.9522   74.0862 H   0  0  0  0  0  0  0  0  0  0  0  0
    1.4266   66.9467   67.3759 H   0  0  0  0  0  0  0  0  0  0  0  0
   -0.2788   67.1017   67.9898 H   0  0  0  0  0  0  0  0  0  0  0  0
    0.2408   69.2215   67.0432 H   0  0  0  0  0  0  0  0  0  0  0  0
    0.3976   69.4311   68.8226 H   0  0  0  0  0  0  0  0  0  0  0  0
    2.2896   70.3196   69.6642 H   0  0  0  0  0  0  0  0  0  0  0  0
    4.6562   71.0354   69.4267 H   0  0  0  0  0  0  0  0  0  0  0  0
    4.7475   69.2389   65.4966 H   0  0  0  0  0  0  0  0  0  0  0  0
    2.3783   68.5396   65.8109 H   0  0  0  0  0  0  0  0  0  0  0  0
    7.7736   71.2484   66.0762 H   0  0  0  0  0  0  0  0  0  0  0  0
    6.1762   70.9793   65.3290 H   0  0  0  0  0  0  0  0  0  0  0  0
  2  1  1  0
  4  3  2  0
  5  4  1  0
  6  5  2  0
  6  2  1  0
  7  6  1  0
  8  7  2  0
  8  3  1  0
  9  8  1  0
 11 10  2  0
 11  3  1  0
 12 10  1  0
 13  1  1  0
 14 13  1  0
 15 14  1  0
 16 15  2  0
 17 16  1  0
 18 17  2  0
 19 18  1  0
 20 19  2  0
 20 15  1  0
 21 18  1  0
 22 21  2  0
 23 21  1  0
  1 24  1  0
  1 25  1  0
  2 26  1  0
  2 27  1  0
  4 28  1  0
  5 29  1  0
  7 30  1  0
 11 31  1  0
 12 32  1  0
 13 33  1  0
 13 34  1  0
 14 35  1  0
 14 36  1  0
 16 37  1  0
 17 38  1  0
 19 39  1  0
 20 40  1  0
 23 41  1  0
 23 42  1  0
M  CHG  2   6   1  15   1
M  END
>  <score>  (4) 
-8.507

$$$$
=
     RDKit          3D

 42 43  0  0  0  0  0  0  0  0999 V2000
    1.1550   66.8060   69.5430 C   0  0  0  0  0  0  0  0  0  0  0  0
    0.3610   65.9010   70.4970 C   0  0  0  0  0  0  0  0  0  0  0  0
    2.4830   62.2540   71.1040 C   0  0  0  0  0  0  0  0  0  0  0  0
    1.1270   62.3510   71.4290 C   0  0  0  0  0  0  0  0  0  0  0  0
    0.4500   63.5490   71.2210 C   0  0  0  0  0  0  0  0  0  0  0  0
    1.0930   64.6230   70.7080 N   0  0  0  0  0  4  0  0  0  0  0  0
    2.4170   64.5530   70.4180 C   0  0  0  0  0  0  0  0  0  0  0  0
    3.1410   63.3770   70.6020 C   0  0  0  0  0  0  0  0  0  0  0  0
    4.8170   63.4530   70.2160 Cl  0  0  0  0  0  0  0  0  0  0  0  0
    3.5870   60.2260   70.3460 N   0  0  0  0  0  0  0  0  0  0  0  0
    3.1070   60.9320   71.3140 C   0  0  0  0  0  0  0  0  0  0  0  0
    4.0780   59.0260   70.8710 O   0  0  0  0  0  0  0  0  0  0  0  0
    0.3500   67.1810   68.2880 C   0  0  0  0  0  0  0  0  0  0  0  0
    0.4450   68.6780   67.9540 C   0  0  0  0  0  0  0  0  0  0  0  0
    1.7250   68.9560   67.2500 N   0  0  0  0  0  4  0  0  0  0  0  0
    1.8710   68.5850   65.9550 C   0  0  0  0  0  0  0  0  0  0  0  0
    3.0510   68.8430   65.2740 C   0  0  0  0  0  0  0  0  0  0  0  0
    4.1040   69.4720   65.9360 C   0  0  0  0  0  0  0  0  0  0  0  0
    3.9500   69.8340   67.2700 C   0  0  0  0  0  0  0  0  0  0  0  0
    2.7450   69.5590   67.9110 C   0  0  0  0  0  0  0  0  0  0  0  0
    5.3240   69.7870   65.1540 C   0  0  0  0  0  0  0  0  0  0  0  0
    5.4180   69.4010   63.9980 O   0  0  0  0  0  0  0  0  0  0  0  0
    6.3150   70.4980   65.7620 N   0  0  0  0  0  0  0  0  0  0  0  0
    1.4285   67.7284   70.0763 H   0  0  0  0  0  0  0  0  0  0  0  0
    2.0467   66.2505   69.2169 H   0  0  0  0  0  0  0  0  0  0  0  0
    0.2330   66.4119   71.4627 H   0  0  0  0  0  0  0  0  0  0  0  0
   -0.6240   65.6862   70.0570 H   0  0  0  0  0  0  0  0  0  0  0  0
    0.5966   61.4831   71.8479 H   0  0  0  0  0  0  0  0  0  0  0  0
   -0.6175   63.6233   71.4760 H   0  0  0  0  0  0  0  0  0  0  0  0
    2.9300   65.4449   70.0289 H   0  0  0  0  0  0  0  0  0  0  0  0
    3.1651   60.5327   72.3373 H   0  0  0  0  0  0  0  0  0  0  0  0
    4.4870   58.3536   70.2704 H   0  0  0  0  0  0  0  0  0  0  0  0
    0.7369   66.6040   67.4352 H   0  0  0  0  0  0  0  0  0  0  0  0
   -0.7067   66.9491   68.4869 H   0  0  0  0  0  0  0  0  0  0  0  0
   -0.3974   68.9619   67.3061 H   0  0  0  0  0  0  0  0  0  0  0  0
    0.4085   69.2614   68.8858 H   0  0  0  0  0  0  0  0  0  0  0  0
    1.0450   68.0739   65.4387 H   0  0  0  0  0  0  0  0  0  0  0  0
    3.1554   68.5531   64.2180 H   0  0  0  0  0  0  0  0  0  0  0  0
    4.7688   70.3307   67.8111 H   0  0  0  0  0  0  0  0  0  0  0  0
    2.6181   69.8345   68.9684 H   0  0  0  0  0  0  0  0  0  0  0  0
    7.1738   70.7315   65.2435 H   0  0  0  0  0  0  0  0  0  0  0  0
    6.2052   70.8019   66.7400 H   0  0  0  0  0  0  0  0  0  0  0  0
  2  1  1  0
  4  3  2  0
  5  4  1  0
  6  5  2  0
  6  2  1  0
  7  6  1  0
  8  7  2  0
  8  3  1  0
  9  8  1  0
 11 10  2  0
 11  3  1  0
 12 10  1  0
 13  1  1  0
 14 13  1  0
 15 14  1  0
 16 15  2  0
 17 16  1  0
 18 17  2  0
 19 18  1  0
 20 19  2  0
 20 15  1  0
 21 18  1  0
 22 21  2  0
 23 21  1  0
  1 24  1  0
  1 25  1  0
  2 26  1  0
  2 27  1  0
  4 28  1  0
  5 29  1  0
  7 30  1  0
 11 31  1  0
 12 32  1  0
 13 33  1  0
 13 34  1  0
 14 35  1  0
 14 36  1  0
 16 37  1  0
 17 38  1  0
 19 39  1  0
 20 40  1  0
 23 41  1  0
 23 42  1  0
M  CHG  2   6   1  15   1
M  END
>  <score>  (5) 
-8.363

$$$$
=
     RDKit          3D

 42 43  0  0  0  0  0  0  0  0999 V2000
    4.7790   67.7450   62.3190 C   0  0  0  0  0  0  0  0  0  0  0  0
    4.0400   66.6370   63.0830 C   0  0  0  0  0  0  0  0  0  0  0  0
    0.5170   68.2320   64.8790 C   0  0  0  0  0  0  0  0  0  0  0  0
    1.2970   67.2900   65.5550 C   0  0  0  0  0  0  0  0  0  0  0  0
    2.4450   66.7820   64.9550 C   0  0  0  0  0  0  0  0  0  0  0  0
    2.8140   67.1920   63.7190 N   0  0  0  0  0  4  0  0  0  0  0  0
    2.0490   68.0810   63.0370 C   0  0  0  0  0  0  0  0  0  0  0  0
    0.8920   68.6250   63.5940 C   0  0  0  0  0  0  0  0  0  0  0  0
    0.0140   69.7170   62.5950 Cl  0  0  0  0  0  0  0  0  0  0  0  0
   -1.8530   68.7080   65.1300 N   0  0  0  0  0  0  0  0  0  0  0  0
   -0.6560   68.7500   65.6110 C   0  0  0  0  0  0  0  0  0  0  0  0
   -2.7250   69.2980   66.0510 O   0  0  0  0  0  0  0  0  0  0  0  0
    4.7110   69.1000   63.0430 C   0  0  0  0  0  0  0  0  0  0  0  0
    5.9210   69.3380   63.9600 C   0  0  0  0  0  0  0  0  0  0  0  0
    5.4550   69.6570   65.3350 N   0  0  0  0  0  4  0  0  0  0  0  0
    4.1530   69.4710   65.6620 C   0  0  0  0  0  0  0  0  0  0  0  0
    3.6960   69.7510   66.9400 C   0  0  0  0  0  0  0  0  0  0  0  0
    4.5830   70.2490   67.8930 C   0  0  0  0  0  0  0  0  0  0  0  0
    5.9150   70.4530   67.5430 C   0  0  0  0  0  0  0  0  0  0  0  0
    6.3270   70.1520   66.2490 C   0  0  0  0  0  0  0  0  0  0  0  0
    4.0700   70.4750   69.2660 C   0  0  0  0  0  0  0  0  0  0  0  0
    4.8550   70.5480   70.2000 O   0  0  0  0  0  0  0  0  0  0  0  0
    2.7230   70.5850   69.4430 N   0  0  0  0  0  0  0  0  0  0  0  0
    5.8345   67.4553   62.2094 H   0  0  0  0  0  0  0  0  0  0  0  0
    4.2902   67.8620   61.3405 H   0  0  0  0  0  0  0  0  0  0  0  0
    3.7576   65.8370   62.3828 H   0  0  0  0  0  0  0  0  0  0  0  0
    4.7012   66.2317   63.8631 H   0  0  0  0  0  0  0  0  0  0  0  0
    1.0040   66.9508   66.5595 H   0  0  0  0  0  0  0  0  0  0  0  0
    3.0577   66.0411   65.4895 H   0  0  0  0  0  0  0  0  0  0  0  0
    2.3482   68.3795   62.0214 H   0  0  0  0  0  0  0  0  0  0  0  0
   -0.5034   69.1899   66.6076 H   0  0  0  0  0  0  0  0  0  0  0  0
   -3.6926   69.3556   65.8498 H   0  0  0  0  0  0  0  0  0  0  0  0
    4.6760   69.9011   62.2900 H   0  0  0  0  0  0  0  0  0  0  0  0
    3.8092   69.0978   63.6729 H   0  0  0  0  0  0  0  0  0  0  0  0
    6.5433   68.4313   63.9864 H   0  0  0  0  0  0  0  0  0  0  0  0
    6.5112   70.1811   63.5715 H   0  0  0  0  0  0  0  0  0  0  0  0
    3.4508   69.0934   64.9042 H   0  0  0  0  0  0  0  0  0  0  0  0
    2.6408   69.5815   67.2005 H   0  0  0  0  0  0  0  0  0  0  0  0
    6.6313   70.8466   68.2792 H   0  0  0  0  0  0  0  0  0  0  0  0
    7.3760   70.3178   65.9623 H   0  0  0  0  0  0  0  0  0  0  0  0
    2.3386   70.7422   70.3856 H   0  0  0  0  0  0  0  0  0  0  0  0
    2.0895   70.5109   68.6342 H   0  0  0  0  0  0  0  0  0  0  0  0
  2  1  1  0
  4  3  2  0
  5  4  1  0
  6  5  2  0
  6  2  1  0
  7  6  1  0
  8  7  2  0
  8  3  1  0
  9  8  1  0
 11 10  2  0
 11  3  1  0
 12 10  1  0
 13  1  1  0
 14 13  1  0
 15 14  1  0
 16 15  2  0
 17 16  1  0
 18 17  2  0
 19 18  1  0
 20 19  2  0
 20 15  1  0
 21 18  1  0
 22 21  2  0
 23 21  1  0
  1 24  1  0
  1 25  1  0
  2 26  1  0
  2 27  1  0
  4 28  1  0
  5 29  1  0
  7 30  1  0
 11 31  1  0
 12 32  1  0
 13 33  1  0
 13 34  1  0
 14 35  1  0
 14 36  1  0
 16 37  1  0
 17 38  1  0
 19 39  1  0
 20 40  1  0
 23 41  1  0
 23 42  1  0
M  CHG  2   6   1  15   1
M  END
>  <score>  (6) 
-8.318

$$$$
=
     RDKit          3D

 42 43  0  0  0  0  0  0  0  0999 V2000
    1.2210   67.0740   69.4550 C   0  0  0  0  0  0  0  0  0  0  0  0
    0.2390   66.0850   70.1020 C   0  0  0  0  0  0  0  0  0  0  0  0
    2.2960   62.5590   71.3310 C   0  0  0  0  0  0  0  0  0  0  0  0
    2.9680   63.5700   70.6390 C   0  0  0  0  0  0  0  0  0  0  0  0
    2.2810   64.7160   70.2480 C   0  0  0  0  0  0  0  0  0  0  0  0
    0.9660   64.8590   70.5310 N   0  0  0  0  0  4  0  0  0  0  0  0
    0.2930   63.8720   71.1740 C   0  0  0  0  0  0  0  0  0  0  0  0
    0.9330   62.7070   71.5920 C   0  0  0  0  0  0  0  0  0  0  0  0
   -0.0600   61.5350   72.3680 Cl  0  0  0  0  0  0  0  0  0  0  0  0
    3.4980   60.4860   70.9220 N   0  0  0  0  0  0  0  0  0  0  0  0
    3.1150   61.4020   71.7470 C   0  0  0  0  0  0  0  0  0  0  0  0
    4.2280   59.5260   71.6290 O   0  0  0  0  0  0  0  0  0  0  0  0
    0.7900   67.4810   68.0360 C   0  0  0  0  0  0  0  0  0  0  0  0
    0.8200   69.0030   67.8270 C   0  0  0  0  0  0  0  0  0  0  0  0
    2.2290   69.4760   67.7850 N   0  0  0  0  0  4  0  0  0  0  0  0
    2.7360   70.1650   68.8360 C   0  0  0  0  0  0  0  0  0  0  0  0
    4.0500   70.6070   68.8250 C   0  0  0  0  0  0  0  0  0  0  0  0
    4.8500   70.3580   67.7120 C   0  0  0  0  0  0  0  0  0  0  0  0
    4.3150   69.6650   66.6300 C   0  0  0  0  0  0  0  0  0  0  0  0
    2.9930   69.2360   66.6890 C   0  0  0  0  0  0  0  0  0  0  0  0
    6.2670   70.7920   67.7660 C   0  0  0  0  0  0  0  0  0  0  0  0
    6.6150   71.6200   68.5950 O   0  0  0  0  0  0  0  0  0  0  0  0
    7.1430   70.2520   66.8720 N   0  0  0  0  0  0  0  0  0  0  0  0
    1.2768   67.9772   70.0804 H   0  0  0  0  0  0  0  0  0  0  0  0
    2.1990   66.5762   69.3797 H   0  0  0  0  0  0  0  0  0  0  0  0
   -0.2299   66.5567   70.9781 H   0  0  0  0  0  0  0  0  0  0  0  0
   -0.5346   65.8105   69.3698 H   0  0  0  0  0  0  0  0  0  0  0  0
    4.0370   63.4607   70.4038 H   0  0  0  0  0  0  0  0  0  0  0  0
    2.8118   65.5116   69.7046 H   0  0  0  0  0  0  0  0  0  0  0  0
   -0.7825   63.9942   71.3698 H   0  0  0  0  0  0  0  0  0  0  0  0
    3.4106   61.3176   72.8032 H   0  0  0  0  0  0  0  0  0  0  0  0
    4.6042   58.7423   71.1552 H   0  0  0  0  0  0  0  0  0  0  0  0
    1.4720   67.0117   67.3117 H   0  0  0  0  0  0  0  0  0  0  0  0
   -0.2470   67.1436   67.8914 H   0  0  0  0  0  0  0  0  0  0  0  0
    0.3225   69.2515   66.8779 H   0  0  0  0  0  0  0  0  0  0  0  0
    0.2955   69.4951   68.6593 H   0  0  0  0  0  0  0  0  0  0  0  0
    2.0982   70.3758   69.7071 H   0  0  0  0  0  0  0  0  0  0  0  0
    4.4583   71.1508   69.6896 H   0  0  0  0  0  0  0  0  0  0  0  0
    4.9289   69.4594   65.7407 H   0  0  0  0  0  0  0  0  0  0  0  0
    2.5604   68.6943   65.8349 H   0  0  0  0  0  0  0  0  0  0  0  0
    8.1333   70.5348   66.8863 H   0  0  0  0  0  0  0  0  0  0  0  0
    6.8146   69.5611   66.1822 H   0  0  0  0  0  0  0  0  0  0  0  0
  2  1  1  0
  4  3  2  0
  5  4  1  0
  6  5  2  0
  6  2  1  0
  7  6  1  0
  8  7  2  0
  8  3  1  0
  9  8  1  0
 11 10  2  0
 11  3  1  0
 12 10  1  0
 13  1  1  0
 14 13  1  0
 15 14  1  0
 16 15  2  0
 17 16  1  0
 18 17  2  0
 19 18  1  0
 20 19  2  0
 20 15  1  0
 21 18  1  0
 22 21  2  0
 23 21  1  0
  1 24  1  0
  1 25  1  0
  2 26  1  0
  2 27  1  0
  4 28  1  0
  5 29  1  0
  7 30  1  0
 11 31  1  0
 12 32  1  0
 13 33  1  0
 13 34  1  0
 14 35  1  0
 14 36  1  0
 16 37  1  0
 17 38  1  0
 19 39  1  0
 20 40  1  0
 23 41  1  0
 23 42  1  0
M  CHG  2   6   1  15   1
M  END
>  <score>  (7) 
-8.205

$$$$
=
     RDKit          3D

 42 43  0  0  0  0  0  0  0  0999 V2000
    1.5140   65.7650   70.2700 C   0  0  0  0  0  0  0  0  0  0  0  0
    0.0280   66.0770   70.0420 C   0  0  0  0  0  0  0  0  0  0  0  0
   -0.4300   68.2270   66.3890 C   0  0  0  0  0  0  0  0  0  0  0  0
   -1.4910   67.4870   66.9170 C   0  0  0  0  0  0  0  0  0  0  0  0
   -1.3250   66.7940   68.1120 C   0  0  0  0  0  0  0  0  0  0  0  0
   -0.1420   66.8290   68.7690 N   0  0  0  0  0  4  0  0  0  0  0  0
    0.9070   67.5170   68.2520 C   0  0  0  0  0  0  0  0  0  0  0  0
    0.7930   68.2320   67.0610 C   0  0  0  0  0  0  0  0  0  0  0  0
    2.2180   69.0300   66.5190 Cl  0  0  0  0  0  0  0  0  0  0  0  0
   -0.4430   68.4930   63.9730 N   0  0  0  0  0  0  0  0  0  0  0  0
   -0.7110   68.9680   65.1430 C   0  0  0  0  0  0  0  0  0  0  0  0
   -0.8030   69.4440   63.0120 O   0  0  0  0  0  0  0  0  0  0  0  0
    1.7460   64.3050   70.6930 C   0  0  0  0  0  0  0  0  0  0  0  0
    3.1490   63.8010   70.3200 C   0  0  0  0  0  0  0  0  0  0  0  0
    3.2210   62.3280   70.5100 N   0  0  0  0  0  4  0  0  0  0  0  0
    3.2000   61.8130   71.7630 C   0  0  0  0  0  0  0  0  0  0  0  0
    3.2550   60.4430   71.9660 C   0  0  0  0  0  0  0  0  0  0  0  0
    3.3530   59.5880   70.8690 C   0  0  0  0  0  0  0  0  0  0  0  0
    3.3900   60.1280   69.5870 C   0  0  0  0  0  0  0  0  0  0  0  0
    3.3260   61.5100   69.4330 C   0  0  0  0  0  0  0  0  0  0  0  0
    3.3440   58.1280   71.1260 C   0  0  0  0  0  0  0  0  0  0  0  0
    3.9470   57.3780   70.3720 O   0  0  0  0  0  0  0  0  0  0  0  0
    2.6470   57.6640   72.2010 N   0  0  0  0  0  0  0  0  0  0  0  0
    2.0625   65.9538   69.3354 H   0  0  0  0  0  0  0  0  0  0  0  0
    1.8724   66.4120   71.0842 H   0  0  0  0  0  0  0  0  0  0  0  0
   -0.5383   65.1355   69.9879 H   0  0  0  0  0  0  0  0  0  0  0  0
   -0.3460   66.6883   70.8765 H   0  0  0  0  0  0  0  0  0  0  0  0
   -2.4554   67.4524   66.3891 H   0  0  0  0  0  0  0  0  0  0  0  0
   -2.1620   66.2129   68.5263 H   0  0  0  0  0  0  0  0  0  0  0  0
    1.8693   67.5103   68.7849 H   0  0  0  0  0  0  0  0  0  0  0  0
   -1.1676   69.9662   65.2148 H   0  0  0  0  0  0  0  0  0  0  0  0
   -0.6683   69.2514   62.0503 H   0  0  0  0  0  0  0  0  0  0  0  0
    1.6222   64.2296   71.7834 H   0  0  0  0  0  0  0  0  0  0  0  0
    1.0136   63.6816   70.1592 H   0  0  0  0  0  0  0  0  0  0  0  0
    3.3567   64.0442   69.2675 H   0  0  0  0  0  0  0  0  0  0  0  0
    3.8940   64.2879   70.9665 H   0  0  0  0  0  0  0  0  0  0  0  0
    3.1387   62.4893   72.6284 H   0  0  0  0  0  0  0  0  0  0  0  0
    3.2215   60.0329   72.9861 H   0  0  0  0  0  0  0  0  0  0  0  0
    3.4687   59.4719   68.7076 H   0  0  0  0  0  0  0  0  0  0  0  0
    3.3611   61.9451   68.4233 H   0  0  0  0  0  0  0  0  0  0  0  0
    2.6239   56.6543   72.4030 H   0  0  0  0  0  0  0  0  0  0  0  0
    2.1433   58.3230   72.8116 H   0  0  0  0  0  0  0  0  0  0  0  0
  2  1  1  0
  4  3  2  0
  5  4  1  0
  6  5  2  0
  6  2  1  0
  7  6  1  0
  8  7  2  0
  8  3  1  0
  9  8  1  0
 11 10  2  0
 11  3  1  0
 12 10  1  0
 13  1  1  0
 14 13  1  0
 15 14  1  0
 16 15  2  0
 17 16  1  0
 18 17  2  0
 19 18  1  0
 20 19  2  0
 20 15  1  0
 21 18  1  0
 22 21  2  0
 23 21  1  0
  1 24  1  0
  1 25  1  0
  2 26  1  0
  2 27  1  0
  4 28  1  0
  5 29  1  0
  7 30  1  0
 11 31  1  0
 12 32  1  0
 13 33  1  0
 13 34  1  0
 14 35  1  0
 14 36  1  0
 16 37  1  0
 17 38  1  0
 19 39  1  0
 20 40  1  0
 23 41  1  0
 23 42  1  0
M  CHG  2   6   1  15   1
M  END
>  <score>  (8) 
-8.069

$$$$
=
     RDKit          3D

 42 43  0  0  0  0  0  0  0  0999 V2000
    0.4100   67.3750   68.3310 C   0  0  0  0  0  0  0  0  0  0  0  0
    0.9090   68.7730   67.9370 C   0  0  0  0  0  0  0  0  0  0  0  0
    2.7460   68.6290   64.0920 C   0  0  0  0  0  0  0  0  0  0  0  0
    1.4290   68.1940   64.2690 C   0  0  0  0  0  0  0  0  0  0  0  0
    0.8450   68.2510   65.5300 C   0  0  0  0  0  0  0  0  0  0  0  0
    1.5410   68.7240   66.5910 N   0  0  0  0  0  4  0  0  0  0  0  0
    2.8300   69.1190   66.4410 C   0  0  0  0  0  0  0  0  0  0  0  0
    3.4620   69.0870   65.1990 C   0  0  0  0  0  0  0  0  0  0  0  0
    5.1070   69.5930   65.1740 Cl  0  0  0  0  0  0  0  0  0  0  0  0
    2.5670   68.9290   61.6880 N   0  0  0  0  0  0  0  0  0  0  0  0
    3.2670   68.5750   62.7120 C   0  0  0  0  0  0  0  0  0  0  0  0
    3.3340   68.7350   60.5340 O   0  0  0  0  0  0  0  0  0  0  0  0
    1.1850   66.7930   69.5240 C   0  0  0  0  0  0  0  0  0  0  0  0
    0.4020   65.6880   70.2510 C   0  0  0  0  0  0  0  0  0  0  0  0
    1.3130   64.5610   70.5820 N   0  0  0  0  0  4  0  0  0  0  0  0
    2.6380   64.6710   70.3210 C   0  0  0  0  0  0  0  0  0  0  0  0
    3.5090   63.6390   70.6300 C   0  0  0  0  0  0  0  0  0  0  0  0
    3.0120   62.4660   71.1970 C   0  0  0  0  0  0  0  0  0  0  0  0
    1.6470   62.3560   71.4460 C   0  0  0  0  0  0  0  0  0  0  0  0
    0.8130   63.4210   71.1240 C   0  0  0  0  0  0  0  0  0  0  0  0
    3.9850   61.4120   71.5720 C   0  0  0  0  0  0  0  0  0  0  0  0
    3.6020   60.2600   71.7160 O   0  0  0  0  0  0  0  0  0  0  0  0
    5.2870   61.7690   71.7550 N   0  0  0  0  0  0  0  0  0  0  0  0
   -0.6545   67.4423   68.5998 H   0  0  0  0  0  0  0  0  0  0  0  0
    0.5661   66.7075   67.4707 H   0  0  0  0  0  0  0  0  0  0  0  0
    0.0592   69.4711   67.9158 H   0  0  0  0  0  0  0  0  0  0  0  0
    1.6515   69.1136   68.6737 H   0  0  0  0  0  0  0  0  0  0  0  0
    0.8562   67.8077   63.4131 H   0  0  0  0  0  0  0  0  0  0  0  0
   -0.1915   67.9088   65.6667 H   0  0  0  0  0  0  0  0  0  0  0  0
    3.3894   69.4727   67.3196 H   0  0  0  0  0  0  0  0  0  0  0  0
    4.2948   68.2181   62.5501 H   0  0  0  0  0  0  0  0  0  0  0  0
    2.9561   68.9547   59.6457 H   0  0  0  0  0  0  0  0  0  0  0  0
    2.1325   66.3713   69.1574 H   0  0  0  0  0  0  0  0  0  0  0  0
    1.3566   67.6089   70.2416 H   0  0  0  0  0  0  0  0  0  0  0  0
   -0.0280   66.0946   71.1782 H   0  0  0  0  0  0  0  0  0  0  0  0
   -0.4044   65.3237   69.5975 H   0  0  0  0  0  0  0  0  0  0  0  0
    3.0265   65.5903   69.8585 H   0  0  0  0  0  0  0  0  0  0  0  0
    4.5854   63.7442   70.4294 H   0  0  0  0  0  0  0  0  0  0  0  0
    1.2337   61.4391   71.8914 H   0  0  0  0  0  0  0  0  0  0  0  0
   -0.2678   63.3387   71.3112 H   0  0  0  0  0  0  0  0  0  0  0  0
    5.9844   61.0573   72.0159 H   0  0  0  0  0  0  0  0  0  0  0  0
    5.5740   62.7506   71.6325 H   0  0  0  0  0  0  0  0  0  0  0  0
  2  1  1  0
  4  3  2  0
  5  4  1  0
  6  5  2  0
  6  2  1  0
  7  6  1  0
  8  7  2  0
  8  3  1  0
  9  8  1  0
 11 10  2  0
 11  3  1  0
 12 10  1  0
 13  1  1  0
 14 13  1  0
 15 14  1  0
 16 15  2  0
 17 16  1  0
 18 17  2  0
 19 18  1  0
 20 19  2  0
 20 15  1  0
 21 18  1  0
 22 21  2  0
 23 21  1  0
  1 24  1  0
  1 25  1  0
  2 26  1  0
  2 27  1  0
  4 28  1  0
  5 29  1  0
  7 30  1  0
 11 31  1  0
 12 32  1  0
 13 33  1  0
 13 34  1  0
 14 35  1  0
 14 36  1  0
 16 37  1  0
 17 38  1  0
 19 39  1  0
 20 40  1  0
 23 41  1  0
 23 42  1  0
M  CHG  2   6   1  15   1
M  END
>  <score>  (9) 
-7.953

$$$$
