=
     RDKit          3D

 74 76  0  0  0  0  0  0  0  0999 V2000
    1.6070   60.4490   75.3440 C   0  0  2  0  0  0  0  0  0  0  0  0
    0.2990   60.4420   76.1930 C   0  0  2  0  0  0  0  0  0  0  0  0
   -0.9830   60.7190   75.3650 C   0  0  0  0  0  0  0  0  0  0  0  0
   -0.7150   61.0180   73.8850 C   0  0  2  0  0  0  0  0  0  0  0  0
    0.3420   62.1340   73.7330 C   0  0  1  0  0  0  0  0  0  0  0  0
    1.6610   61.7460   74.4770 C   0  0  1  0  0  0  0  0  0  0  0  0
   -1.9900   61.4250   73.1990 N   0  0  0  0  0  4  0  0  0  0  0  0
    0.4040   61.4480   77.3090 N   0  0  0  0  0  4  0  0  0  0  0  0
    1.9020   62.7930   75.4360 O   0  0  0  0  0  0  0  0  0  0  0  0
    0.5110   62.3840   72.3230 O   0  0  0  0  0  0  0  0  0  0  0  0
    1.8150   62.0500   71.7930 C   0  0  1  0  0  0  0  0  0  0  0  0
    1.8740   60.6590   71.5290 O   0  0  0  0  0  0  0  0  0  0  0  0
    3.1880   60.1740   71.1490 C   0  0  1  0  0  0  0  0  0  0  0  0
    3.8990   61.1150   70.1470 C   0  0  2  0  0  0  0  0  0  0  0  0
    2.8340   61.9690   69.4540 C   0  0  1  0  0  0  0  0  0  0  0  0
    2.0710   62.8410   70.4680 C   0  0  1  0  0  0  0  0  0  0  0  0
    3.4580   62.7900   68.3620 N   0  0  0  0  0  4  0  0  0  0  0  0
    0.8580   63.2980   69.8580 O   0  0  0  0  0  0  0  0  0  0  0  0
    4.5970   60.4070   69.1270 O   0  0  0  0  0  0  0  0  0  0  0  0
    4.0550   59.9080   72.3940 C   0  0  0  0  0  0  0  0  0  0  0  0
    3.9290   58.5380   72.7900 O   0  0  0  0  0  0  0  0  0  0  0  0
    1.7070   59.2450   74.5450 O   0  0  0  0  0  0  0  0  0  0  0  0
    0.9370   55.6150   74.9360 C   0  0  1  0  0  0  0  0  0  0  0  0
    1.1070   56.9580   74.3860 O   0  0  0  0  0  0  0  0  0  0  0  0
    1.4110   58.0230   75.2960 C   0  0  1  0  0  0  0  0  0  0  0  0
    2.6250   57.6800   76.2300 C   0  0  1  0  0  0  0  0  0  0  0  0
    2.3790   56.3320   76.9140 C   0  0  0  0  0  0  0  0  0  0  0  0
    2.1030   55.2380   75.8780 C   0  0  2  0  0  0  0  0  0  0  0  0
    3.9080   57.5850   75.4530 N   0  0  0  0  0  4  0  0  0  0  0  0
    3.2950   55.1410   75.0770 O   0  0  0  0  0  0  0  0  0  0  0  0
   -0.4760   55.3740   75.5440 C   0  0  0  0  0  0  0  0  0  0  0  0
   -1.5620   55.3450   74.5220 N   0  0  0  0  0  4  0  0  0  0  0  0
    2.4805   60.4548   76.0125 H   0  0  0  0  0  0  0  0  0  0  0  0
    0.2009   59.4235   76.5967 H   0  0  0  0  0  0  0  0  0  0  0  0
   -1.6333   59.8340   75.4272 H   0  0  0  0  0  0  0  0  0  0  0  0
   -1.4508   61.6181   75.7925 H   0  0  0  0  0  0  0  0  0  0  0  0
   -0.3271   60.1027   73.4141 H   0  0  0  0  0  0  0  0  0  0  0  0
    0.0167   63.0716   74.2075 H   0  0  0  0  0  0  0  0  0  0  0  0
    2.4129   61.5933   73.6887 H   0  0  0  0  0  0  0  0  0  0  0  0
   -2.7030   61.6526   73.9066 H   0  0  0  0  0  0  0  0  0  0  0  0
   -1.8143   62.2517   72.6103 H   0  0  0  0  0  0  0  0  0  0  0  0
   -2.3258   60.6494   72.6103 H   0  0  0  0  0  0  0  0  0  0  0  0
    0.3532   60.9617   78.2155 H   0  0  0  0  0  0  0  0  0  0  0  0
    1.3017   61.9478   77.2373 H   0  0  0  0  0  0  0  0  0  0  0  0
   -0.3712   62.1225   77.2373 H   0  0  0  0  0  0  0  0  0  0  0  0
    1.8178   62.4272   76.3521 H   0  0  0  0  0  0  0  0  0  0  0  0
    2.5848   62.3210   72.5306 H   0  0  0  0  0  0  0  0  0  0  0  0
    3.0428   59.2183   70.6241 H   0  0  0  0  0  0  0  0  0  0  0  0
    4.6256   61.7130   70.7166 H   0  0  0  0  0  0  0  0  0  0  0  0
    2.0928   61.3006   68.9914 H   0  0  0  0  0  0  0  0  0  0  0  0
    2.6718   63.7198   70.7449 H   0  0  0  0  0  0  0  0  0  0  0  0
    4.0279   63.5398   68.7791 H   0  0  0  0  0  0  0  0  0  0  0  0
    4.0566   62.1877   67.7790 H   0  0  0  0  0  0  0  0  0  0  0  0
    2.7175   63.2055   67.7790 H   0  0  0  0  0  0  0  0  0  0  0  0
    0.2067   63.5434   70.5620 H   0  0  0  0  0  0  0  0  0  0  0  0
    5.2280   59.7670   69.5422 H   0  0  0  0  0  0  0  0  0  0  0  0
    5.1075   60.1247   72.1589 H   0  0  0  0  0  0  0  0  0  0  0  0
    3.7175   60.5559   73.2164 H   0  0  0  0  0  0  0  0  0  0  0  0
    3.9236   58.4793   73.7782 H   0  0  0  0  0  0  0  0  0  0  0  0
    0.9868   54.9109   74.0924 H   0  0  0  0  0  0  0  0  0  0  0  0
    0.5279   58.1700   75.9352 H   0  0  0  0  0  0  0  0  0  0  0  0
    2.7146   58.4877   76.9714 H   0  0  0  0  0  0  0  0  0  0  0  0
    3.2685   56.0574   77.5000 H   0  0  0  0  0  0  0  0  0  0  0  0
    1.5013   56.4250   77.5705 H   0  0  0  0  0  0  0  0  0  0  0  0
    1.8364   54.3028   76.3921 H   0  0  0  0  0  0  0  0  0  0  0  0
    4.7018   57.5262   76.1068 H   0  0  0  0  0  0  0  0  0  0  0  0
    3.8887   56.7431   74.8599 H   0  0  0  0  0  0  0  0  0  0  0  0
    4.0129   58.4205   74.8599 H   0  0  0  0  0  0  0  0  0  0  0  0
    4.0860   55.0766   75.6689 H   0  0  0  0  0  0  0  0  0  0  0  0
   -0.4685   54.4094   76.0727 H   0  0  0  0  0  0  0  0  0  0  0  0
   -0.6874   56.2159   76.2196 H   0  0  0  0  0  0  0  0  0  0  0  0
   -2.4771   55.3206   74.9941 H   0  0  0  0  0  0  0  0  0  0  0  0
   -1.5019   56.1879   73.9331 H   0  0  0  0  0  0  0  0  0  0  0  0
   -1.4570   54.5065   73.9331 H   0  0  0  0  0  0  0  0  0  0  0  0
  2  1  1  0
  3  2  1  0
  4  3  1  0
  5  4  1  0
  6  5  1  0
  6  1  1  0
  7  4  1  0
  8  2  1  0
  9  6  1  0
 10  5  1  0
 11 10  1  0
 12 11  1  0
 13 12  1  0
 14 13  1  0
 15 14  1  0
 16 15  1  0
 16 11  1  0
 17 15  1  0
 18 16  1  0
 19 14  1  0
 20 13  1  0
 21 20  1  0
 22  1  1  0
 24 23  1  0
 25 24  1  0
 25 22  1  0
 26 25  1  0
 27 26  1  0
 28 23  1  0
 28 27  1  0
 29 26  1  0
 30 28  1  0
 31 23  1  0
 32 31  1  0
  1 33  1  1
  2 34  1  1
  3 35  1  0
  3 36  1  0
  4 37  1  6
  5 38  1  1
  6 39  1  6
  7 40  1  0
  7 41  1  0
  7 42  1  0
  8 43  1  0
  8 44  1  0
  8 45  1  0
  9 46  1  0
 11 47  1  1
 13 48  1  6
 14 49  1  1
 15 50  1  6
 16 51  1  1
 17 52  1  0
 17 53  1  0
 17 54  1  0
 18 55  1  0
 19 56  1  0
 20 57  1  0
 20 58  1  0
 21 59  1  0
 23 60  1  6
 25 61  1  1
 26 62  1  1
 27 63  1  0
 27 64  1  0
 28 65  1  1
 29 66  1  0
 29 67  1  0
 29 68  1  0
 30 69  1  0
 31 70  1  0
 31 71  1  0
 32 72  1  0
 32 73  1  0
 32 74  1  0
M  CHG  5   7   1   8   1  17   1  29   1  32   1
M  END
>  <score>  (1) 
-6.763

$$$$
=
     RDKit          3D

 74 76  0  0  0  0  0  0  0  0999 V2000
    1.8550   60.2960   73.4990 C   0  0  2  0  0  0  0  0  0  0  0  0
    2.6460   60.8590   74.7200 C   0  0  2  0  0  0  0  0  0  0  0  0
    3.5930   59.8240   75.3810 C   0  0  0  0  0  0  0  0  0  0  0  0
    3.5180   58.4240   74.7560 C   0  0  2  0  0  0  0  0  0  0  0  0
    2.0550   57.9320   74.6870 C   0  0  1  0  0  0  0  0  0  0  0  0
    1.1710   58.9500   73.8960 C   0  0  1  0  0  0  0  0  0  0  0  0
    4.3470   57.4550   75.5540 N   0  0  0  0  0  4  0  0  0  0  0  0
    1.6880   61.3960   75.7510 N   0  0  0  0  0  4  0  0  0  0  0  0
    0.1190   59.3480   74.7960 O   0  0  0  0  0  0  0  0  0  0  0  0
    2.0700   56.6040   74.1270 O   0  0  0  0  0  0  0  0  0  0  0  0
    1.0650   55.7050   74.6520 C   0  0  1  0  0  0  0  0  0  0  0  0
   -0.1410   55.8740   73.9290 O   0  0  0  0  0  0  0  0  0  0  0  0
   -1.2740   55.1460   74.4690 C   0  0  1  0  0  0  0  0  0  0  0  0
   -0.9020   53.7060   74.8990 C   0  0  2  0  0  0  0  0  0  0  0  0
    0.3720   53.2990   74.1550 C   0  0  1  0  0  0  0  0  0  0  0  0
    1.5490   54.2240   74.5160 C   0  0  1  0  0  0  0  0  0  0  0  0
    0.6880   51.8560   74.4200 N   0  0  0  0  0  4  0  0  0  0  0  0
    2.5740   54.0700   73.5260 O   0  0  0  0  0  0  0  0  0  0  0  0
   -1.9060   52.7540   74.5610 O   0  0  0  0  0  0  0  0  0  0  0  0
   -1.9310   55.9310   75.6210 C   0  0  0  0  0  0  0  0  0  0  0  0
   -1.9990   57.3210   75.2830 O   0  0  0  0  0  0  0  0  0  0  0  0
    2.7200   60.1570   72.3460 O   0  0  0  0  0  0  0  0  0  0  0  0
    2.6690   63.6360   71.0000 C   0  0  1  0  0  0  0  0  0  0  0  0
    2.6920   62.4840   71.8980 O   0  0  0  0  0  0  0  0  0  0  0  0
    2.4990   61.1840   71.3260 C   0  0  1  0  0  0  0  0  0  0  0  0
    3.4530   60.9210   70.1080 C   0  0  1  0  0  0  0  0  0  0  0  0
    3.3240   62.0660   69.1000 C   0  0  0  0  0  0  0  0  0  0  0  0
    3.5850   63.4170   69.7740 C   0  0  2  0  0  0  0  0  0  0  0  0
    4.8900   60.8370   70.5420 N   0  0  0  0  0  4  0  0  0  0  0  0
    4.9420   63.3670   70.2480 O   0  0  0  0  0  0  0  0  0  0  0  0
    1.2300   64.1100   70.6440 C   0  0  0  0  0  0  0  0  0  0  0  0
    1.2000   65.3960   69.8880 N   0  0  0  0  0  4  0  0  0  0  0  0
    1.0641   61.0050   73.2132 H   0  0  0  0  0  0  0  0  0  0  0  0
    3.2841   61.6642   74.3269 H   0  0  0  0  0  0  0  0  0  0  0  0
    4.6260   60.1903   75.2871 H   0  0  0  0  0  0  0  0  0  0  0  0
    3.2741   59.7232   76.4289 H   0  0  0  0  0  0  0  0  0  0  0  0
    3.9158   58.4819   73.7321 H   0  0  0  0  0  0  0  0  0  0  0  0
    1.5951   57.8753   75.6846 H   0  0  0  0  0  0  0  0  0  0  0  0
    0.8817   58.4344   72.9684 H   0  0  0  0  0  0  0  0  0  0  0  0
    4.2013   57.6253   76.5593 H   0  0  0  0  0  0  0  0  0  0  0  0
    4.0646   56.4914   75.3245 H   0  0  0  0  0  0  0  0  0  0  0  0
    5.3427   57.5848   75.3245 H   0  0  0  0  0  0  0  0  0  0  0  0
    2.0494   61.1934   76.6940 H   0  0  0  0  0  0  0  0  0  0  0  0
    1.5910   62.4145   75.6320 H   0  0  0  0  0  0  0  0  0  0  0  0
    0.7685   60.9473   75.6320 H   0  0  0  0  0  0  0  0  0  0  0  0
    0.4234   59.2328   75.7310 H   0  0  0  0  0  0  0  0  0  0  0  0
    0.8963   55.9333   75.7147 H   0  0  0  0  0  0  0  0  0  0  0  0
   -2.0116   55.0456   73.6591 H   0  0  0  0  0  0  0  0  0  0  0  0
   -0.7789   53.7106   75.9921 H   0  0  0  0  0  0  0  0  0  0  0  0
    0.2004   53.4133   73.0745 H   0  0  0  0  0  0  0  0  0  0  0  0
    1.9676   53.9453   75.4943 H   0  0  0  0  0  0  0  0  0  0  0  0
    0.7236   51.6934   75.4365 H   0  0  0  0  0  0  0  0  0  0  0  0
   -0.0429   51.2622   74.0027 H   0  0  0  0  0  0  0  0  0  0  0  0
    1.6002   51.6220   74.0027 H   0  0  0  0  0  0  0  0  0  0  0  0
    3.4475   53.9388   73.9730 H   0  0  0  0  0  0  0  0  0  0  0  0
   -2.2994   52.3810   75.3894 H   0  0  0  0  0  0  0  0  0  0  0  0
   -2.9473   55.5465   75.7921 H   0  0  0  0  0  0  0  0  0  0  0  0
   -1.3299   55.8079   76.5340 H   0  0  0  0  0  0  0  0  0  0  0  0
   -2.0254   57.8613   76.1121 H   0  0  0  0  0  0  0  0  0  0  0  0
    3.0983   64.4849   71.5523 H   0  0  0  0  0  0  0  0  0  0  0  0
    1.4641   61.1400   70.9559 H   0  0  0  0  0  0  0  0  0  0  0  0
    3.1591   59.9627   69.6550 H   0  0  0  0  0  0  0  0  0  0  0  0
    4.0556   61.9190   68.2918 H   0  0  0  0  0  0  0  0  0  0  0  0
    2.3010   62.0658   68.6956 H   0  0  0  0  0  0  0  0  0  0  0  0
    3.3955   64.2300   69.0577 H   0  0  0  0  0  0  0  0  0  0  0  0
    4.9383   60.8342   71.5709 H   0  0  0  0  0  0  0  0  0  0  0  0
    5.3090   59.9701   70.1762 H   0  0  0  0  0  0  0  0  0  0  0  0
    5.4072   61.6492   70.1762 H   0  0  0  0  0  0  0  0  0  0  0  0
    4.9460   63.3669   71.2380 H   0  0  0  0  0  0  0  0  0  0  0  0
    0.7488   63.3337   70.0309 H   0  0  0  0  0  0  0  0  0  0  0  0
    0.6995   64.2785   71.5928 H   0  0  0  0  0  0  0  0  0  0  0  0
    1.1816   66.1838   70.5513 H   0  0  0  0  0  0  0  0  0  0  0  0
    2.0396   65.4656   69.2954 H   0  0  0  0  0  0  0  0  0  0  0  0
    0.3581   65.4264   69.2954 H   0  0  0  0  0  0  0  0  0  0  0  0
  2  1  1  0
  3  2  1  0
  4  3  1  0
  5  4  1  0
  6  5  1  0
  6  1  1  0
  7  4  1  0
  8  2  1  0
  9  6  1  0
 10  5  1  0
 11 10  1  0
 12 11  1  0
 13 12  1  0
 14 13  1  0
 15 14  1  0
 16 15  1  0
 16 11  1  0
 17 15  1  0
 18 16  1  0
 19 14  1  0
 20 13  1  0
 21 20  1  0
 22  1  1  0
 24 23  1  0
 25 24  1  0
 25 22  1  0
 26 25  1  0
 27 26  1  0
 28 23  1  0
 28 27  1  0
 29 26  1  0
 30 28  1  0
 31 23  1  0
 32 31  1  0
  1 33  1  6
  2 34  1  6
  3 35  1  0
  3 36  1  0
  4 37  1  6
  5 38  1  1
  6 39  1  6
  7 40  1  0
  7 41  1  0
  7 42  1  0
  8 43  1  0
  8 44  1  0
  8 45  1  0
  9 46  1  0
 11 47  1  1
 13 48  1  6
 14 49  1  1
 15 50  1  6
 16 51  1  1
 17 52  1  0
 17 53  1  0
 17 54  1  0
 18 55  1  0
 19 56  1  0
 20 57  1  0
 20 58  1  0
 21 59  1  0
 23 60  1  1
 25 61  1  6
 26 62  1  6
 27 63  1  0
 27 64  1  0
 28 65  1  6
 29 66  1  0
 29 67  1  0
 29 68  1  0
 30 69  1  0
 31 70  1  0
 31 71  1  0
 32 72  1  0
 32 73  1  0
 32 74  1  0
M  CHG  5   7   1   8   1  17   1  29   1  32   1
M  END
>  <score>  (2) 
-6.568

$$$$
=
     RDKit          3D

 74 76  0  0  0  0  0  0  0  0999 V2000
    4.0220   67.9690   64.9570 C   0  0  2  0  0  0  0  0  0  0  0  0
    4.7510   67.6250   63.6220 C   0  0  2  0  0  0  0  0  0  0  0  0
    4.0310   68.1660   62.3600 C   0  0  0  0  0  0  0  0  0  0  0  0
    2.7030   68.8730   62.6570 C   0  0  2  0  0  0  0  0  0  0  0  0
    1.7880   67.9800   63.5260 C   0  0  1  0  0  0  0  0  0  0  0  0
    2.5160   67.5710   64.8470 C   0  0  1  0  0  0  0  0  0  0  0  0
    2.0030   69.2240   61.3720 N   0  0  0  0  0  4  0  0  0  0  0  0
    4.9270   66.1340   63.5020 N   0  0  0  0  0  4  0  0  0  0  0  0
    2.5370   66.1310   64.8620 O   0  0  0  0  0  0  0  0  0  0  0  0
    0.5520   68.6930   63.7290 O   0  0  0  0  0  0  0  0  0  0  0  0
   -0.2780   68.1900   64.8020 C   0  0  1  0  0  0  0  0  0  0  0  0
   -0.0050   68.9140   65.9880 O   0  0  0  0  0  0  0  0  0  0  0  0
   -0.6550   68.3920   67.1760 C   0  0  1  0  0  0  0  0  0  0  0  0
   -2.1270   67.9880   66.9160 C   0  0  2  0  0  0  0  0  0  0  0  0
   -2.6150   68.7350   65.6720 C   0  0  1  0  0  0  0  0  0  0  0  0
   -1.7890   68.3510   64.4310 C   0  0  1  0  0  0  0  0  0  0  0  0
   -4.0830   68.4960   65.4670 N   0  0  0  0  0  4  0  0  0  0  0  0
   -2.0010   69.3390   63.4150 O   0  0  0  0  0  0  0  0  0  0  0  0
   -2.9940   68.3480   67.9870 O   0  0  0  0  0  0  0  0  0  0  0  0
    0.1560   67.2290   67.7780 C   0  0  0  0  0  0  0  0  0  0  0  0
   -0.7090   66.3750   68.5350 O   0  0  0  0  0  0  0  0  0  0  0  0
    4.2010   69.3660   65.2950 O   0  0  0  0  0  0  0  0  0  0  0  0
    5.7720   71.3310   68.0500 C   0  0  1  0  0  0  0  0  0  0  0  0
    5.3300   70.8710   66.7350 O   0  0  0  0  0  0  0  0  0  0  0  0
    4.7230   69.5760   66.6460 C   0  0  1  0  0  0  0  0  0  0  0  0
    3.5620   69.3890   67.6870 C   0  0  1  0  0  0  0  0  0  0  0  0
    4.0700   69.7400   69.0880 C   0  0  0  0  0  0  0  0  0  0  0  0
    4.6650   71.1510   69.1140 C   0  0  2  0  0  0  0  0  0  0  0  0
    2.3940   70.2810   67.3740 N   0  0  0  0  0  4  0  0  0  0  0  0
    3.5880   72.0420   68.7740 O   0  0  0  0  0  0  0  0  0  0  0  0
    7.1570   70.7560   68.4690 C   0  0  0  0  0  0  0  0  0  0  0  0
    7.4110   70.8350   69.9360 N   0  0  0  0  0  4  0  0  0  0  0  0
    4.4651   67.3886   65.7796 H   0  0  0  0  0  0  0  0  0  0  0  0
    5.7278   68.1289   63.6671 H   0  0  0  0  0  0  0  0  0  0  0  0
    4.7000   68.8817   61.8597 H   0  0  0  0  0  0  0  0  0  0  0  0
    3.7954   67.2960   61.7294 H   0  0  0  0  0  0  0  0  0  0  0  0
    2.9220   69.7962   63.2135 H   0  0  0  0  0  0  0  0  0  0  0  0
    1.5529   67.0278   63.0280 H   0  0  0  0  0  0  0  0  0  0  0  0
    1.9731   68.0822   65.6557 H   0  0  0  0  0  0  0  0  0  0  0  0
    1.1020   69.6758   61.5842 H   0  0  0  0  0  0  0  0  0  0  0  0
    2.5909   69.8700   60.8261 H   0  0  0  0  0  0  0  0  0  0  0  0
    1.8370   68.3665   60.8261 H   0  0  0  0  0  0  0  0  0  0  0  0
    4.9762   65.7173   64.4427 H   0  0  0  0  0  0  0  0  0  0  0  0
    4.1274   65.7339   62.9906 H   0  0  0  0  0  0  0  0  0  0  0  0
    5.7978   65.9311   62.9906 H   0  0  0  0  0  0  0  0  0  0  0  0
    2.5417   65.8108   65.7988 H   0  0  0  0  0  0  0  0  0  0  0  0
   -0.0568   67.1239   64.9586 H   0  0  0  0  0  0  0  0  0  0  0  0
   -0.6844   69.2062   67.9150 H   0  0  0  0  0  0  0  0  0  0  0  0
   -2.1522   66.8945   66.7988 H   0  0  0  0  0  0  0  0  0  0  0  0
   -2.4677   69.8138   65.8285 H   0  0  0  0  0  0  0  0  0  0  0  0
   -2.1172   67.3762   64.0412 H   0  0  0  0  0  0  0  0  0  0  0  0
   -4.5496   68.4200   66.3821 H   0  0  0  0  0  0  0  0  0  0  0  0
   -4.4884   69.2821   64.9391 H   0  0  0  0  0  0  0  0  0  0  0  0
   -4.2181   67.6219   64.9391 H   0  0  0  0  0  0  0  0  0  0  0  0
   -2.1887   70.2136   63.8392 H   0  0  0  0  0  0  0  0  0  0  0  0
   -2.5466   68.1622   68.8504 H   0  0  0  0  0  0  0  0  0  0  0  0
    0.6219   66.6503   66.9668 H   0  0  0  0  0  0  0  0  0  0  0  0
    0.9359   67.6343   68.4395 H   0  0  0  0  0  0  0  0  0  0  0  0
   -0.5572   66.5249   69.5017 H   0  0  0  0  0  0  0  0  0  0  0  0
    5.9465   72.4143   67.9720 H   0  0  0  0  0  0  0  0  0  0  0  0
    5.5015   68.8336   66.8755 H   0  0  0  0  0  0  0  0  0  0  0  0
    3.2349   68.3399   67.6381 H   0  0  0  0  0  0  0  0  0  0  0  0
    3.2319   69.6891   69.7986 H   0  0  0  0  0  0  0  0  0  0  0  0
    4.8545   69.0217   69.3684 H   0  0  0  0  0  0  0  0  0  0  0  0
    5.1070   71.3457   70.1023 H   0  0  0  0  0  0  0  0  0  0  0  0
    1.9664   70.6076   68.2523 H   0  0  0  0  0  0  0  0  0  0  0  0
    2.7179   71.0918   66.8276 H   0  0  0  0  0  0  0  0  0  0  0  0
    1.6971   69.7551   66.8276 H   0  0  0  0  0  0  0  0  0  0  0  0
    3.1710   72.3870   69.6029 H   0  0  0  0  0  0  0  0  0  0  0  0
    7.2033   69.7003   68.1634 H   0  0  0  0  0  0  0  0  0  0  0  0
    7.9259   71.3663   67.9727 H   0  0  0  0  0  0  0  0  0  0  0  0
    6.5571   70.5694   70.4471 H   0  0  0  0  0  0  0  0  0  0  0  0
    8.1755   70.1920   70.1872 H   0  0  0  0  0  0  0  0  0  0  0  0
    7.6759   71.7981   70.1872 H   0  0  0  0  0  0  0  0  0  0  0  0
  2  1  1  0
  3  2  1  0
  4  3  1  0
  5  4  1  0
  6  5  1  0
  6  1  1  0
  7  4  1  0
  8  2  1  0
  9  6  1  0
 10  5  1  0
 11 10  1  0
 12 11  1  0
 13 12  1  0
 14 13  1  0
 15 14  1  0
 16 15  1  0
 16 11  1  0
 17 15  1  0
 18 16  1  0
 19 14  1  0
 20 13  1  0
 21 20  1  0
 22  1  1  0
 24 23  1  0
 25 24  1  0
 25 22  1  0
 26 25  1  0
 27 26  1  0
 28 23  1  0
 28 27  1  0
 29 26  1  0
 30 28  1  0
 31 23  1  0
 32 31  1  0
  1 33  1  1
  2 34  1  1
  3 35  1  0
  3 36  1  0
  4 37  1  1
  5 38  1  6
  6 39  1  1
  7 40  1  0
  7 41  1  0
  7 42  1  0
  8 43  1  0
  8 44  1  0
  8 45  1  0
  9 46  1  0
 11 47  1  1
 13 48  1  1
 14 49  1  6
 15 50  1  1
 16 51  1  6
 17 52  1  0
 17 53  1  0
 17 54  1  0
 18 55  1  0
 19 56  1  0
 20 57  1  0
 20 58  1  0
 21 59  1  0
 23 60  1  6
 25 61  1  1
 26 62  1  1
 27 63  1  0
 27 64  1  0
 28 65  1  1
 29 66  1  0
 29 67  1  0
 29 68  1  0
 30 69  1  0
 31 70  1  0
 31 71  1  0
 32 72  1  0
 32 73  1  0
 32 74  1  0
M  CHG  5   7   1   8   1  17   1  29   1  32   1
M  END
>  <score>  (3) 
-6.558

$$$$
=
     RDKit          3D

 74 76  0  0  0  0  0  0  0  0999 V2000
    2.6880   57.4640   74.7970 C   0  0  2  0  0  0  0  0  0  0  0  0
    3.5030   57.7390   76.0990 C   0  0  2  0  0  0  0  0  0  0  0  0
    3.2000   59.1150   76.7460 C   0  0  0  0  0  0  0  0  0  0  0  0
    2.2130   59.9750   75.9460 C   0  0  2  0  0  0  0  0  0  0  0  0
    2.6610   60.0970   74.4720 C   0  0  1  0  0  0  0  0  0  0  0  0
    2.8250   58.6820   73.8290 C   0  0  1  0  0  0  0  0  0  0  0  0
    2.1000   61.3430   76.5600 N   0  0  0  0  0  4  0  0  0  0  0  0
    4.9780   57.6290   75.8150 N   0  0  0  0  0  4  0  0  0  0  0  0
    4.1880   58.6070   73.3690 O   0  0  0  0  0  0  0  0  0  0  0  0
    1.7110   60.9460   73.7980 O   0  0  0  0  0  0  0  0  0  0  0  0
    2.2740   61.8240   72.7960 C   0  0  1  0  0  0  0  0  0  0  0  0
    2.9410   61.0520   71.8130 O   0  0  0  0  0  0  0  0  0  0  0  0
    3.6900   61.8290   70.8430 C   0  0  1  0  0  0  0  0  0  0  0  0
    2.9120   63.0760   70.3560 C   0  0  2  0  0  0  0  0  0  0  0  0
    1.4220   62.8420   70.6160 C   0  0  1  0  0  0  0  0  0  0  0  0
    1.1390   62.6600   72.1190 C   0  0  1  0  0  0  0  0  0  0  0  0
    0.6120   63.9570   70.0210 N   0  0  0  0  0  4  0  0  0  0  0  0
   -0.1520   62.0590   72.2730 O   0  0  0  0  0  0  0  0  0  0  0  0
    3.0620   63.3070   68.9590 O   0  0  0  0  0  0  0  0  0  0  0  0
    5.0780   62.2030   71.3950 C   0  0  0  0  0  0  0  0  0  0  0  0
    5.6200   61.1020   72.1320 O   0  0  0  0  0  0  0  0  0  0  0  0
    1.3070   57.1590   75.1100 O   0  0  0  0  0  0  0  0  0  0  0  0
   -0.3320   54.1540   76.5940 C   0  0  1  0  0  0  0  0  0  0  0  0
    0.1710   55.5090   76.3740 O   0  0  0  0  0  0  0  0  0  0  0  0
    1.0480   55.7260   75.2620 C   0  0  1  0  0  0  0  0  0  0  0  0
    0.4620   55.1590   73.9210 C   0  0  1  0  0  0  0  0  0  0  0  0
    0.0630   53.6940   74.1170 C   0  0  0  0  0  0  0  0  0  0  0  0
   -0.9060   53.5460   75.2940 C   0  0  2  0  0  0  0  0  0  0  0  0
   -0.7560   55.9240   73.4850 N   0  0  0  0  0  4  0  0  0  0  0  0
   -2.0770   54.3030   74.9400 O   0  0  0  0  0  0  0  0  0  0  0  0
    0.6820   53.2340   77.3330 C   0  0  0  0  0  0  0  0  0  0  0  0
    1.6700   53.9860   78.1600 N   0  0  0  0  0  4  0  0  0  0  0  0
    3.0955   56.5793   74.2859 H   0  0  0  0  0  0  0  0  0  0  0  0
    3.1895   56.9742   76.8248 H   0  0  0  0  0  0  0  0  0  0  0  0
    2.7763   58.9415   77.7462 H   0  0  0  0  0  0  0  0  0  0  0  0
    4.1504   59.6679   76.7796 H   0  0  0  0  0  0  0  0  0  0  0  0
    1.2290   59.4841   75.9736 H   0  0  0  0  0  0  0  0  0  0  0  0
    3.6540   60.5621   74.3840 H   0  0  0  0  0  0  0  0  0  0  0  0
    2.0274   58.6042   73.0755 H   0  0  0  0  0  0  0  0  0  0  0  0
    2.1068   61.2602   77.5866 H   0  0  0  0  0  0  0  0  0  0  0  0
    2.8960   61.9222   76.2570 H   0  0  0  0  0  0  0  0  0  0  0  0
    1.2197   61.7837   76.2570 H   0  0  0  0  0  0  0  0  0  0  0  0
    5.4968   57.5903   76.7039 H   0  0  0  0  0  0  0  0  0  0  0  0
    5.1604   56.7721   75.2734 H   0  0  0  0  0  0  0  0  0  0  0  0
    5.2855   58.4494   75.2734 H   0  0  0  0  0  0  0  0  0  0  0  0
    4.7979   58.5734   74.1481 H   0  0  0  0  0  0  0  0  0  0  0  0
    2.9882   62.5084   73.2771 H   0  0  0  0  0  0  0  0  0  0  0  0
    3.8356   61.1921   69.9581 H   0  0  0  0  0  0  0  0  0  0  0  0
    3.3115   63.9455   70.8986 H   0  0  0  0  0  0  0  0  0  0  0  0
    1.1208   61.9060   70.1229 H   0  0  0  0  0  0  0  0  0  0  0  0
    1.1294   63.6356   72.6271 H   0  0  0  0  0  0  0  0  0  0  0  0
    0.2005   64.5234   70.7765 H   0  0  0  0  0  0  0  0  0  0  0  0
    1.2203   64.5506   69.4391 H   0  0  0  0  0  0  0  0  0  0  0  0
   -0.1406   63.5620   69.4391 H   0  0  0  0  0  0  0  0  0  0  0  0
   -0.3585   61.9629   73.2365 H   0  0  0  0  0  0  0  0  0  0  0  0
    3.5955   64.1286   68.8158 H   0  0  0  0  0  0  0  0  0  0  0  0
    5.7494   62.4485   70.5589 H   0  0  0  0  0  0  0  0  0  0  0  0
    4.9814   63.0732   72.0609 H   0  0  0  0  0  0  0  0  0  0  0  0
    5.5327   61.2793   73.1021 H   0  0  0  0  0  0  0  0  0  0  0  0
   -1.1774   54.2323   77.2934 H   0  0  0  0  0  0  0  0  0  0  0  0
    1.9834   55.1869   75.4727 H   0  0  0  0  0  0  0  0  0  0  0  0
    1.2398   55.2556   73.1491 H   0  0  0  0  0  0  0  0  0  0  0  0
   -0.4236   53.3273   73.2012 H   0  0  0  0  0  0  0  0  0  0  0  0
    0.9689   53.1078   74.3308 H   0  0  0  0  0  0  0  0  0  0  0  0
   -1.1054   52.4796   75.4760 H   0  0  0  0  0  0  0  0  0  0  0  0
   -1.2728   56.2486   74.3147 H   0  0  0  0  0  0  0  0  0  0  0  0
   -0.4677   56.7360   72.9207 H   0  0  0  0  0  0  0  0  0  0  0  0
   -1.3623   55.3117   72.9207 H   0  0  0  0  0  0  0  0  0  0  0  0
   -2.5385   54.6013   75.7635 H   0  0  0  0  0  0  0  0  0  0  0  0
    0.1209   52.5549   77.9917 H   0  0  0  0  0  0  0  0  0  0  0  0
    1.2494   52.6911   76.5627 H   0  0  0  0  0  0  0  0  0  0  0  0
    1.4690   53.8330   79.1586 H   0  0  0  0  0  0  0  0  0  0  0  0
    2.6209   53.6529   77.9462 H   0  0  0  0  0  0  0  0  0  0  0  0
    1.6022   54.9913   77.9462 H   0  0  0  0  0  0  0  0  0  0  0  0
  2  1  1  0
  3  2  1  0
  4  3  1  0
  5  4  1  0
  6  5  1  0
  6  1  1  0
  7  4  1  0
  8  2  1  0
  9  6  1  0
 10  5  1  0
 11 10  1  0
 12 11  1  0
 13 12  1  0
 14 13  1  0
 15 14  1  0
 16 15  1  0
 16 11  1  0
 17 15  1  0
 18 16  1  0
 19 14  1  0
 20 13  1  0
 21 20  1  0
 22  1  1  0
 24 23  1  0
 25 24  1  0
 25 22  1  0
 26 25  1  0
 27 26  1  0
 28 23  1  0
 28 27  1  0
 29 26  1  0
 30 28  1  0
 31 23  1  0
 32 31  1  0
  1 33  1  6
  2 34  1  1
  3 35  1  0
  3 36  1  0
  4 37  1  6
  5 38  1  1
  6 39  1  6
  7 40  1  0
  7 41  1  0
  7 42  1  0
  8 43  1  0
  8 44  1  0
  8 45  1  0
  9 46  1  0
 11 47  1  1
 13 48  1  6
 14 49  1  1
 15 50  1  6
 16 51  1  1
 17 52  1  0
 17 53  1  0
 17 54  1  0
 18 55  1  0
 19 56  1  0
 20 57  1  0
 20 58  1  0
 21 59  1  0
 23 60  1  1
 25 61  1  1
 26 62  1  6
 27 63  1  0
 27 64  1  0
 28 65  1  1
 29 66  1  0
 29 67  1  0
 29 68  1  0
 30 69  1  0
 31 70  1  0
 31 71  1  0
 32 72  1  0
 32 73  1  0
 32 74  1  0
M  CHG  5   7   1   8   1  17   1  29   1  32   1
M  END
>  <score>  (4) 
-6.538

$$$$
=
     RDKit          3D

 74 76  0  0  0  0  0  0  0  0999 V2000
    0.6970   61.9110   73.5410 C   0  0  2  0  0  0  0  0  0  0  0  0
    0.8380   63.1310   74.5040 C   0  0  2  0  0  0  0  0  0  0  0  0
    0.9590   62.7360   75.9980 C   0  0  0  0  0  0  0  0  0  0  0  0
    0.8450   61.2270   76.2540 C   0  0  2  0  0  0  0  0  0  0  0  0
   -0.4260   60.6520   75.5890 C   0  0  1  0  0  0  0  0  0  0  0  0
   -0.4340   60.9660   74.0580 C   0  0  1  0  0  0  0  0  0  0  0  0
    0.8170   60.9530   77.7330 N   0  0  0  0  0  4  0  0  0  0  0  0
   -0.3290   64.0660   74.3230 N   0  0  0  0  0  4  0  0  0  0  0  0
   -1.6440   61.7060   73.8080 O   0  0  0  0  0  0  0  0  0  0  0  0
   -0.4830   59.2470   75.9050 O   0  0  0  0  0  0  0  0  0  0  0  0
    0.6710   58.4780   75.4930 C   0  0  1  0  0  0  0  0  0  0  0  0
    1.3410   57.9830   76.6390 O   0  0  0  0  0  0  0  0  0  0  0  0
    2.6100   57.3340   76.3610 C   0  0  1  0  0  0  0  0  0  0  0  0
    2.5410   56.4050   75.1250 C   0  0  2  0  0  0  0  0  0  0  0  0
    1.0760   56.0310   74.8880 C   0  0  1  0  0  0  0  0  0  0  0  0
    0.2220   57.2780   74.5950 C   0  0  1  0  0  0  0  0  0  0  0  0
    0.9730   55.0090   73.7930 N   0  0  0  0  0  4  0  0  0  0  0  0
   -1.1590   56.9420   74.7800 O   0  0  0  0  0  0  0  0  0  0  0  0
    3.2590   55.1890   75.3100 O   0  0  0  0  0  0  0  0  0  0  0  0
    3.7390   58.3730   76.2310 C   0  0  0  0  0  0  0  0  0  0  0  0
    4.8340   57.8100   75.5010 O   0  0  0  0  0  0  0  0  0  0  0  0
    1.9640   61.2260   73.3920 O   0  0  0  0  0  0  0  0  0  0  0  0
    3.8040   61.9110   70.2190 C   0  0  1  0  0  0  0  0  0  0  0  0
    3.1960   62.0460   71.5410 O   0  0  0  0  0  0  0  0  0  0  0  0
    2.3380   60.9920   71.9960 C   0  0  1  0  0  0  0  0  0  0  0  0
    3.0100   59.5790   71.8670 C   0  0  1  0  0  0  0  0  0  0  0  0
    3.5240   59.3860   70.4380 C   0  0  0  0  0  0  0  0  0  0  0  0
    4.4660   60.5260   70.0390 C   0  0  2  0  0  0  0  0  0  0  0  0
    4.1720   59.4350   72.8080 N   0  0  0  0  0  4  0  0  0  0  0  0
    5.5800   60.4550   70.9470 O   0  0  0  0  0  0  0  0  0  0  0  0
    2.8480   62.3160   69.0590 C   0  0  0  0  0  0  0  0  0  0  0  0
    3.5310   63.0630   67.9630 N   0  0  0  0  0  4  0  0  0  0  0  0
    0.4109   62.2625   72.5387 H   0  0  0  0  0  0  0  0  0  0  0  0
    1.7805   63.6290   74.2326 H   0  0  0  0  0  0  0  0  0  0  0  0
    1.9371   63.0771   76.3682 H   0  0  0  0  0  0  0  0  0  0  0  0
    0.1185   63.2131   76.5233 H   0  0  0  0  0  0  0  0  0  0  0  0
    1.7239   60.7353   75.8116 H   0  0  0  0  0  0  0  0  0  0  0  0
   -1.3404   61.1245   75.9770 H   0  0  0  0  0  0  0  0  0  0  0  0
   -0.3166   59.9946   73.5554 H   0  0  0  0  0  0  0  0  0  0  0  0
    0.9077   61.8402   78.2483 H   0  0  0  0  0  0  0  0  0  0  0  0
   -0.0746   60.5011   77.9816 H   0  0  0  0  0  0  0  0  0  0  0  0
    1.5987   60.3301   77.9816 H   0  0  0  0  0  0  0  0  0  0  0  0
   -0.6861   64.3521   75.2458 H   0  0  0  0  0  0  0  0  0  0  0  0
   -0.0236   64.8990   73.7997 H   0  0  0  0  0  0  0  0  0  0  0  0
   -1.0753   63.5863   73.7997 H   0  0  0  0  0  0  0  0  0  0  0  0
   -2.0595   61.9601   74.6699 H   0  0  0  0  0  0  0  0  0  0  0  0
    1.3486   59.1257   74.9174 H   0  0  0  0  0  0  0  0  0  0  0  0
    2.8401   56.6864   77.2199 H   0  0  0  0  0  0  0  0  0  0  0  0
    2.9874   56.9491   74.2796 H   0  0  0  0  0  0  0  0  0  0  0  0
    0.6743   55.5815   75.8081 H   0  0  0  0  0  0  0  0  0  0  0  0
    0.3641   57.6015   73.5533 H   0  0  0  0  0  0  0  0  0  0  0  0
    0.8784   54.0706   74.2070 H   0  0  0  0  0  0  0  0  0  0  0  0
    0.1482   55.2120   73.2104 H   0  0  0  0  0  0  0  0  0  0  0  0
    1.8217   55.0433   73.2104 H   0  0  0  0  0  0  0  0  0  0  0  0
   -1.3599   56.8931   75.7482 H   0  0  0  0  0  0  0  0  0  0  0  0
    3.3637   55.0117   76.2783 H   0  0  0  0  0  0  0  0  0  0  0  0
    3.3613   59.2580   75.6980 H   0  0  0  0  0  0  0  0  0  0  0  0
    4.0826   58.6636   77.2347 H   0  0  0  0  0  0  0  0  0  0  0  0
    5.5098   57.4625   76.1356 H   0  0  0  0  0  0  0  0  0  0  0  0
    4.6192   62.6473   70.1607 H   0  0  0  0  0  0  0  0  0  0  0  0
    1.4446   60.9975   71.3543 H   0  0  0  0  0  0  0  0  0  0  0  0
    2.2508   58.8234   72.1176 H   0  0  0  0  0  0  0  0  0  0  0  0
    4.0670   58.4314   70.3761 H   0  0  0  0  0  0  0  0  0  0  0  0
    2.6642   59.3832   69.7519 H   0  0  0  0  0  0  0  0  0  0  0  0
    4.7484   60.4185   68.9813 H   0  0  0  0  0  0  0  0  0  0  0  0
    3.8339   59.4769   73.7800 H   0  0  0  0  0  0  0  0  0  0  0  0
    4.6360   58.5301   72.6446 H   0  0  0  0  0  0  0  0  0  0  0  0
    4.8429   60.1993   72.6446 H   0  0  0  0  0  0  0  0  0  0  0  0
    5.2477   60.4762   71.8793 H   0  0  0  0  0  0  0  0  0  0  0  0
    2.4064   61.4018   68.6356 H   0  0  0  0  0  0  0  0  0  0  0  0
    2.0867   62.9865   69.4842 H   0  0  0  0  0  0  0  0  0  0  0  0
    4.1696   63.7614   68.3696 H   0  0  0  0  0  0  0  0  0  0  0  0
    4.0681   62.4042   67.3813 H   0  0  0  0  0  0  0  0  0  0  0  0
    2.8268   63.5391   67.3813 H   0  0  0  0  0  0  0  0  0  0  0  0
  2  1  1  0
  3  2  1  0
  4  3  1  0
  5  4  1  0
  6  5  1  0
  6  1  1  0
  7  4  1  0
  8  2  1  0
  9  6  1  0
 10  5  1  0
 11 10  1  0
 12 11  1  0
 13 12  1  0
 14 13  1  0
 15 14  1  0
 16 15  1  0
 16 11  1  0
 17 15  1  0
 18 16  1  0
 19 14  1  0
 20 13  1  0
 21 20  1  0
 22  1  1  0
 24 23  1  0
 25 24  1  0
 25 22  1  0
 26 25  1  0
 27 26  1  0
 28 23  1  0
 28 27  1  0
 29 26  1  0
 30 28  1  0
 31 23  1  0
 32 31  1  0
  1 33  1  6
  2 34  1  6
  3 35  1  0
  3 36  1  0
  4 37  1  6
  5 38  1  1
  6 39  1  6
  7 40  1  0
  7 41  1  0
  7 42  1  0
  8 43  1  0
  8 44  1  0
  8 45  1  0
  9 46  1  0
 11 47  1  6
 13 48  1  1
 14 49  1  6
 15 50  1  1
 16 51  1  6
 17 52  1  0
 17 53  1  0
 17 54  1  0
 18 55  1  0
 19 56  1  0
 20 57  1  0
 20 58  1  0
 21 59  1  0
 23 60  1  1
 25 61  1  6
 26 62  1  1
 27 63  1  0
 27 64  1  0
 28 65  1  6
 29 66  1  0
 29 67  1  0
 29 68  1  0
 30 69  1  0
 31 70  1  0
 31 71  1  0
 32 72  1  0
 32 73  1  0
 32 74  1  0
M  CHG  5   7   1   8   1  17   1  29   1  32   1
M  END
>  <score>  (5) 
-6.524

$$$$
=
     RDKit          3D

 74 76  0  0  0  0  0  0  0  0999 V2000
    0.6660   61.3160   73.5490 C   0  0  2  0  0  0  0  0  0  0  0  0
    1.9300   61.7110   74.3720 C   0  0  2  0  0  0  0  0  0  0  0  0
    3.0070   60.5960   74.4350 C   0  0  0  0  0  0  0  0  0  0  0  0
    2.5940   59.2930   73.7400 C   0  0  2  0  0  0  0  0  0  0  0  0
    1.2140   58.8150   74.2430 C   0  0  1  0  0  0  0  0  0  0  0  0
    0.1380   59.9290   74.0350 C   0  0  1  0  0  0  0  0  0  0  0  0
    3.6250   58.2250   73.9840 N   0  0  0  0  0  4  0  0  0  0  0  0
    1.5320   62.1060   75.7700 N   0  0  0  0  0  4  0  0  0  0  0  0
   -0.4090   60.2050   75.3390 O   0  0  0  0  0  0  0  0  0  0  0  0
    0.9140   57.5730   73.5750 O   0  0  0  0  0  0  0  0  0  0  0  0
    0.3970   56.5260   74.4290 C   0  0  1  0  0  0  0  0  0  0  0  0
   -0.8200   56.0390   73.8920 O   0  0  0  0  0  0  0  0  0  0  0  0
   -1.5230   55.1000   74.7470 C   0  0  1  0  0  0  0  0  0  0  0  0
   -0.5710   54.0660   75.3980 C   0  0  2  0  0  0  0  0  0  0  0  0
    0.7050   53.9950   74.5560 C   0  0  1  0  0  0  0  0  0  0  0  0
    1.4290   55.3540   74.5250 C   0  0  1  0  0  0  0  0  0  0  0  0
    1.5960   52.8950   75.0580 N   0  0  0  0  0  4  0  0  0  0  0  0
    2.3590   55.3530   73.4350 O   0  0  0  0  0  0  0  0  0  0  0  0
   -1.1240   52.7530   75.4300 O   0  0  0  0  0  0  0  0  0  0  0  0
   -2.3630   55.8430   75.8030 C   0  0  0  0  0  0  0  0  0  0  0  0
   -3.7370   55.8660   75.4020 O   0  0  0  0  0  0  0  0  0  0  0  0
    0.9520   61.3320   72.1290 O   0  0  0  0  0  0  0  0  0  0  0  0
    4.1600   62.0580   70.3690 C   0  0  1  0  0  0  0  0  0  0  0  0
    3.0070   61.3740   70.9510 O   0  0  0  0  0  0  0  0  0  0  0  0
    2.1230   62.1380   71.7810 C   0  0  1  0  0  0  0  0  0  0  0  0
    1.6530   63.4650   71.0870 C   0  0  1  0  0  0  0  0  0  0  0  0
    2.8750   64.2480   70.5990 C   0  0  0  0  0  0  0  0  0  0  0  0
    3.7480   63.3820   69.6860 C   0  0  2  0  0  0  0  0  0  0  0  0
    0.7710   63.1850   69.9030 N   0  0  0  0  0  4  0  0  0  0  0  0
    2.9260   63.0490   68.5530 O   0  0  0  0  0  0  0  0  0  0  0  0
    5.3560   62.1950   71.3550 C   0  0  0  0  0  0  0  0  0  0  0  0
    5.6670   60.9330   72.0880 N   0  0  0  0  0  4  0  0  0  0  0  0
   -0.1297   62.0568   73.7167 H   0  0  0  0  0  0  0  0  0  0  0  0
    2.3861   62.5613   73.8438 H   0  0  0  0  0  0  0  0  0  0  0  0
    3.9220   60.9707   73.9529 H   0  0  0  0  0  0  0  0  0  0  0  0
    3.1572   60.3570   75.4982 H   0  0  0  0  0  0  0  0  0  0  0  0
    2.5237   59.4878   72.6597 H   0  0  0  0  0  0  0  0  0  0  0  0
    1.2178   58.6259   75.3266 H   0  0  0  0  0  0  0  0  0  0  0  0
   -0.5463   59.5410   73.2661 H   0  0  0  0  0  0  0  0  0  0  0  0
    3.7509   58.0946   74.9979 H   0  0  0  0  0  0  0  0  0  0  0  0
    3.3099   57.3405   73.5606 H   0  0  0  0  0  0  0  0  0  0  0  0
    4.5201   58.5087   73.5606 H   0  0  0  0  0  0  0  0  0  0  0  0
    2.0810   61.5611   76.4502 H   0  0  0  0  0  0  0  0  0  0  0  0
    1.7138   63.1104   75.9079 H   0  0  0  0  0  0  0  0  0  0  0  0
    0.5290   61.9166   75.9079 H   0  0  0  0  0  0  0  0  0  0  0  0
    0.2199   59.8877   76.0346 H   0  0  0  0  0  0  0  0  0  0  0  0
    0.2221   56.9350   75.4351 H   0  0  0  0  0  0  0  0  0  0  0  0
   -2.2096   54.5274   74.1061 H   0  0  0  0  0  0  0  0  0  0  0  0
   -0.3868   54.3934   76.4319 H   0  0  0  0  0  0  0  0  0  0  0  0
    0.4292   53.7590   73.5176 H   0  0  0  0  0  0  0  0  0  0  0  0
    1.9888   55.5100   75.4590 H   0  0  0  0  0  0  0  0  0  0  0  0
    1.5954   52.8958   76.0880 H   0  0  0  0  0  0  0  0  0  0  0  0
    1.2483   51.9881   74.7151 H   0  0  0  0  0  0  0  0  0  0  0  0
    2.5553   53.0468   74.7151 H   0  0  0  0  0  0  0  0  0  0  0  0
    3.2832   55.3520   73.7898 H   0  0  0  0  0  0  0  0  0  0  0  0
   -1.2439   52.4683   76.3706 H   0  0  0  0  0  0  0  0  0  0  0  0
   -2.2735   55.3265   76.7701 H   0  0  0  0  0  0  0  0  0  0  0  0
   -1.9954   56.8754   75.8984 H   0  0  0  0  0  0  0  0  0  0  0  0
   -4.3152   55.8757   76.2056 H   0  0  0  0  0  0  0  0  0  0  0  0
    4.5491   61.4115   69.5686 H   0  0  0  0  0  0  0  0  0  0  0  0
    2.6816   62.4138   72.6876 H   0  0  0  0  0  0  0  0  0  0  0  0
    1.0836   64.0453   71.8279 H   0  0  0  0  0  0  0  0  0  0  0  0
    2.5365   65.1331   70.0404 H   0  0  0  0  0  0  0  0  0  0  0  0
    3.4711   64.5508   71.4725 H   0  0  0  0  0  0  0  0  0  0  0  0
    4.6650   63.9298   69.4233 H   0  0  0  0  0  0  0  0  0  0  0  0
   -0.1598   62.8895   70.2305 H   0  0  0  0  0  0  0  0  0  0  0  0
    0.6796   64.0384   69.3335 H   0  0  0  0  0  0  0  0  0  0  0  0
    1.1886   62.4352   69.3335 H   0  0  0  0  0  0  0  0  0  0  0  0
    2.0563   62.6967   68.8685 H   0  0  0  0  0  0  0  0  0  0  0  0
    6.2467   62.4948   70.7833 H   0  0  0  0  0  0  0  0  0  0  0  0
    5.0726   62.9461   72.1071 H   0  0  0  0  0  0  0  0  0  0  0  0
    5.6244   61.1058   73.1025 H   0  0  0  0  0  0  0  0  0  0  0  0
    4.9791   60.2098   71.8337 H   0  0  0  0  0  0  0  0  0  0  0  0
    6.6122   60.6123   71.8337 H   0  0  0  0  0  0  0  0  0  0  0  0
  2  1  1  0
  3  2  1  0
  4  3  1  0
  5  4  1  0
  6  5  1  0
  6  1  1  0
  7  4  1  0
  8  2  1  0
  9  6  1  0
 10  5  1  0
 11 10  1  0
 12 11  1  0
 13 12  1  0
 14 13  1  0
 15 14  1  0
 16 15  1  0
 16 11  1  0
 17 15  1  0
 18 16  1  0
 19 14  1  0
 20 13  1  0
 21 20  1  0
 22  1  1  0
 24 23  1  0
 25 24  1  0
 25 22  1  0
 26 25  1  0
 27 26  1  0
 28 23  1  0
 28 27  1  0
 29 26  1  0
 30 28  1  0
 31 23  1  0
 32 31  1  0
  1 33  1  6
  2 34  1  6
  3 35  1  0
  3 36  1  0
  4 37  1  6
  5 38  1  1
  6 39  1  6
  7 40  1  0
  7 41  1  0
  7 42  1  0
  8 43  1  0
  8 44  1  0
  8 45  1  0
  9 46  1  0
 11 47  1  1
 13 48  1  6
 14 49  1  1
 15 50  1  6
 16 51  1  1
 17 52  1  0
 17 53  1  0
 17 54  1  0
 18 55  1  0
 19 56  1  0
 20 57  1  0
 20 58  1  0
 21 59  1  0
 23 60  1  6
 25 61  1  1
 26 62  1  1
 27 63  1  0
 27 64  1  0
 28 65  1  6
 29 66  1  0
 29 67  1  0
 29 68  1  0
 30 69  1  0
 31 70  1  0
 31 71  1  0
 32 72  1  0
 32 73  1  0
 32 74  1  0
M  CHG  5   7   1   8   1  17   1  29   1  32   1
M  END
>  <score>  (6) 
-6.341

$$$$
=
     RDKit          3D

 74 76  0  0  0  0  0  0  0  0999 V2000
    0.4440   61.5600   73.2200 C   0  0  2  0  0  0  0  0  0  0  0  0
    0.8140   62.9120   73.9040 C   0  0  2  0  0  0  0  0  0  0  0  0
    1.1790   62.7740   75.4050 C   0  0  0  0  0  0  0  0  0  0  0  0
    1.0350   61.3470   75.9510 C   0  0  2  0  0  0  0  0  0  0  0  0
   -0.3610   60.7720   75.6220 C   0  0  1  0  0  0  0  0  0  0  0  0
   -0.6240   60.8150   74.0820 C   0  0  1  0  0  0  0  0  0  0  0  0
    1.2560   61.3360   77.4380 N   0  0  0  0  0  4  0  0  0  0  0  0
   -0.3170   63.8950   73.7490 N   0  0  0  0  0  4  0  0  0  0  0  0
   -1.8200   61.5960   73.9020 O   0  0  0  0  0  0  0  0  0  0  0  0
   -0.4320   59.4510   76.1970 O   0  0  0  0  0  0  0  0  0  0  0  0
   -0.5770   58.3740   75.2430 C   0  0  1  0  0  0  0  0  0  0  0  0
    0.5290   57.4960   75.3520 O   0  0  0  0  0  0  0  0  0  0  0  0
    0.5830   56.4640   74.3320 C   0  0  1  0  0  0  0  0  0  0  0  0
   -0.8030   55.8270   74.0620 C   0  0  2  0  0  0  0  0  0  0  0  0
   -1.6900   56.0770   75.2840 C   0  0  1  0  0  0  0  0  0  0  0  0
   -1.8970   57.5830   75.5250 C   0  0  1  0  0  0  0  0  0  0  0  0
   -2.9930   55.3460   75.1350 N   0  0  0  0  0  4  0  0  0  0  0  0
   -2.3740   57.7720   76.8630 O   0  0  0  0  0  0  0  0  0  0  0  0
   -0.7330   54.4170   73.8760 O   0  0  0  0  0  0  0  0  0  0  0  0
    1.2220   57.0040   73.0390 C   0  0  0  0  0  0  0  0  0  0  0  0
    2.4940   56.3800   72.8290 O   0  0  0  0  0  0  0  0  0  0  0  0
    1.6290   60.7580   72.9930 O   0  0  0  0  0  0  0  0  0  0  0  0
    3.8730   62.2670   70.4230 C   0  0  1  0  0  0  0  0  0  0  0  0
    3.0900   62.0370   71.6350 O   0  0  0  0  0  0  0  0  0  0  0  0
    2.1910   60.9200   71.6510 C   0  0  1  0  0  0  0  0  0  0  0  0
    2.8930   59.5850   71.2170 C   0  0  1  0  0  0  0  0  0  0  0  0
    3.6000   59.7920   69.8740 C   0  0  0  0  0  0  0  0  0  0  0  0
    4.5720   60.9730   69.9460 C   0  0  2  0  0  0  0  0  0  0  0  0
    3.9190   59.1490   72.2250 N   0  0  0  0  0  4  0  0  0  0  0  0
    5.5530   60.6180   70.9380 O   0  0  0  0  0  0  0  0  0  0  0  0
    3.0790   63.0090   69.3090 C   0  0  0  0  0  0  0  0  0  0  0  0
    3.7440   62.9580   67.9740 N   0  0  0  0  0  4  0  0  0  0  0  0
    0.0036   61.7543   72.2309 H   0  0  0  0  0  0  0  0  0  0  0  0
    1.7172   63.2760   73.3923 H   0  0  0  0  0  0  0  0  0  0  0  0
    2.2236   63.0921   75.5382 H   0  0  0  0  0  0  0  0  0  0  0  0
    0.4715   63.4032   75.9649 H   0  0  0  0  0  0  0  0  0  0  0  0
    1.7954   60.7153   75.4685 H   0  0  0  0  0  0  0  0  0  0  0  0
   -1.1669   61.3784   76.0612 H   0  0  0  0  0  0  0  0  0  0  0  0
   -0.6467   59.7648   73.7556 H   0  0  0  0  0  0  0  0  0  0  0  0
    0.3471   61.3812   77.9205 H   0  0  0  0  0  0  0  0  0  0  0  0
    1.7443   60.4697   77.7061 H   0  0  0  0  0  0  0  0  0  0  0  0
    1.8279   62.1496   77.7061 H   0  0  0  0  0  0  0  0  0  0  0  0
   -0.6502   64.1846   74.6796 H   0  0  0  0  0  0  0  0  0  0  0  0
    0.0146   64.7210   73.2307 H   0  0  0  0  0  0  0  0  0  0  0  0
   -1.0887   63.4515   73.2307 H   0  0  0  0  0  0  0  0  0  0  0  0
   -2.1918   61.8388   74.7868 H   0  0  0  0  0  0  0  0  0  0  0  0
   -0.6184   58.7955   74.2278 H   0  0  0  0  0  0  0  0  0  0  0  0
    1.2241   55.6578   74.7181 H   0  0  0  0  0  0  0  0  0  0  0  0
   -1.2009   56.2809   73.1424 H   0  0  0  0  0  0  0  0  0  0  0  0
   -1.1813   55.6820   76.1757 H   0  0  0  0  0  0  0  0  0  0  0  0
   -2.6499   57.9808   74.8287 H   0  0  0  0  0  0  0  0  0  0  0  0
   -3.3750   55.1317   76.0672 H   0  0  0  0  0  0  0  0  0  0  0  0
   -3.6604   55.9359   74.6178 H   0  0  0  0  0  0  0  0  0  0  0  0
   -2.8375   54.4690   74.6178 H   0  0  0  0  0  0  0  0  0  0  0  0
   -1.6736   57.4945   77.5053 H   0  0  0  0  0  0  0  0  0  0  0  0
   -0.7107   53.9685   74.7583 H   0  0  0  0  0  0  0  0  0  0  0  0
    0.5624   56.7846   72.1865 H   0  0  0  0  0  0  0  0  0  0  0  0
    1.3615   58.0914   73.1295 H   0  0  0  0  0  0  0  0  0  0  0  0
    2.9099   56.1760   73.7039 H   0  0  0  0  0  0  0  0  0  0  0  0
    4.6781   62.9685   70.6871 H   0  0  0  0  0  0  0  0  0  0  0  0
    1.3930   61.1307   70.9238 H   0  0  0  0  0  0  0  0  0  0  0  0
    2.1164   58.8099   71.1385 H   0  0  0  0  0  0  0  0  0  0  0  0
    4.1591   58.8803   69.6168 H   0  0  0  0  0  0  0  0  0  0  0  0
    2.8418   60.0064   69.1064 H   0  0  0  0  0  0  0  0  0  0  0  0
    4.9971   61.1627   68.9493 H   0  0  0  0  0  0  0  0  0  0  0  0
    3.5540   59.3041   73.1756 H   0  0  0  0  0  0  0  0  0  0  0  0
    4.1242   58.1480   72.0951 H   0  0  0  0  0  0  0  0  0  0  0  0
    4.7820   59.6960   72.0951 H   0  0  0  0  0  0  0  0  0  0  0  0
    5.1731   60.7555   71.8418 H   0  0  0  0  0  0  0  0  0  0  0  0
    2.0851   62.5458   69.2215 H   0  0  0  0  0  0  0  0  0  0  0  0
    3.0196   64.0675   69.6023 H   0  0  0  0  0  0  0  0  0  0  0  0
    4.7632   62.8798   68.1009 H   0  0  0  0  0  0  0  0  0  0  0  0
    3.3996   62.1410   67.4499 H   0  0  0  0  0  0  0  0  0  0  0  0
    3.5282   63.8180   67.4499 H   0  0  0  0  0  0  0  0  0  0  0  0
  2  1  1  0
  3  2  1  0
  4  3  1  0
  5  4  1  0
  6  5  1  0
  6  1  1  0
  7  4  1  0
  8  2  1  0
  9  6  1  0
 10  5  1  0
 11 10  1  0
 12 11  1  0
 13 12  1  0
 14 13  1  0
 15 14  1  0
 16 15  1  0
 16 11  1  0
 17 15  1  0
 18 16  1  0
 19 14  1  0
 20 13  1  0
 21 20  1  0
 22  1  1  0
 24 23  1  0
 25 24  1  0
 25 22  1  0
 26 25  1  0
 27 26  1  0
 28 23  1  0
 28 27  1  0
 29 26  1  0
 30 28  1  0
 31 23  1  0
 32 31  1  0
  1 33  1  6
  2 34  1  6
  3 35  1  0
  3 36  1  0
  4 37  1  6
  5 38  1  1
  6 39  1  6
  7 40  1  0
  7 41  1  0
  7 42  1  0
  8 43  1  0
  8 44  1  0
  8 45  1  0
  9 46  1  0
 11 47  1  6
 13 48  1  1
 14 49  1  6
 15 50  1  1
 16 51  1  6
 17 52  1  0
 17 53  1  0
 17 54  1  0
 18 55  1  0
 19 56  1  0
 20 57  1  0
 20 58  1  0
 21 59  1  0
 23 60  1  1
 25 61  1  6
 26 62  1  6
 27 63  1  0
 27 64  1  0
 28 65  1  6
 29 66  1  0
 29 67  1  0
 29 68  1  0
 30 69  1  0
 31 70  1  0
 31 71  1  0
 32 72  1  0
 32 73  1  0
 32 74  1  0
M  CHG  5   7   1   8   1  17   1  29   1  32   1
M  END
>  <score>  (7) 
-6.27

$$$$
=
     RDKit          3D

 74 76  0  0  0  0  0  0  0  0999 V2000
    2.0840   58.6260   73.1240 C   0  0  2  0  0  0  0  0  0  0  0  0
    1.3210   57.2850   72.8950 C   0  0  2  0  0  0  0  0  0  0  0  0
    0.1170   57.0810   73.8510 C   0  0  0  0  0  0  0  0  0  0  0  0
   -0.0500   58.1990   74.8880 C   0  0  2  0  0  0  0  0  0  0  0  0
    1.2740   58.4500   75.6440 C   0  0  1  0  0  0  0  0  0  0  0  0
    2.4250   58.7810   74.6400 C   0  0  1  0  0  0  0  0  0  0  0  0
   -1.1370   57.8430   75.8640 N   0  0  0  0  0  4  0  0  0  0  0  0
    2.2710   56.1240   73.0250 N   0  0  0  0  0  4  0  0  0  0  0  0
    3.4490   57.7930   74.8670 O   0  0  0  0  0  0  0  0  0  0  0  0
    1.0270   59.4810   76.6210 O   0  0  0  0  0  0  0  0  0  0  0  0
    0.4280   60.6900   76.0990 C   0  0  1  0  0  0  0  0  0  0  0  0
   -0.7480   60.9860   76.8310 O   0  0  0  0  0  0  0  0  0  0  0  0
   -1.5310   62.0850   76.2950 C   0  0  1  0  0  0  0  0  0  0  0  0
   -0.6500   63.2800   75.8570 C   0  0  2  0  0  0  0  0  0  0  0  0
    0.6900   63.1810   76.5900 C   0  0  1  0  0  0  0  0  0  0  0  0
    1.4320   61.8830   76.2240 C   0  0  1  0  0  0  0  0  0  0  0  0
    1.5210   64.4010   76.3160 N   0  0  0  0  0  4  0  0  0  0  0  0
    2.4480   61.6430   77.2060 O   0  0  0  0  0  0  0  0  0  0  0  0
   -1.2220   64.5390   76.1970 O   0  0  0  0  0  0  0  0  0  0  0  0
   -2.4440   61.6010   75.1530 C   0  0  0  0  0  0  0  0  0  0  0  0
   -1.8710   61.9590   73.8900 O   0  0  0  0  0  0  0  0  0  0  0  0
    1.3210   59.7460   72.6120 O   0  0  0  0  0  0  0  0  0  0  0  0
    3.3930   62.0360   70.5210 C   0  0  1  0  0  0  0  0  0  0  0  0
    2.6790   60.8660   71.0270 O   0  0  0  0  0  0  0  0  0  0  0  0
    2.1350   60.9340   72.3510 C   0  0  1  0  0  0  0  0  0  0  0  0
    1.2620   62.2200   72.5720 C   0  0  1  0  0  0  0  0  0  0  0  0
    2.0670   63.4590   72.1690 C   0  0  0  0  0  0  0  0  0  0  0  0
    2.5790   63.3330   70.7310 C   0  0  2  0  0  0  0  0  0  0  0  0
    0.0090   62.1850   71.7440 N   0  0  0  0  0  4  0  0  0  0  0  0
    1.4070   63.2490   69.9000 O   0  0  0  0  0  0  0  0  0  0  0  0
    4.8650   62.1210   71.0200 C   0  0  0  0  0  0  0  0  0  0  0  0
    5.5300   60.7900   71.1310 N   0  0  0  0  0  4  0  0  0  0  0  0
    3.0313   58.6110   72.5650 H   0  0  0  0  0  0  0  0  0  0  0  0
    0.9089   57.3364   71.8764 H   0  0  0  0  0  0  0  0  0  0  0  0
   -0.8005   57.0297   73.2463 H   0  0  0  0  0  0  0  0  0  0  0  0
    0.3070   56.1529   74.4100 H   0  0  0  0  0  0  0  0  0  0  0  0
   -0.3288   59.1212   74.3571 H   0  0  0  0  0  0  0  0  0  0  0  0
    1.6169   57.5513   76.1777 H   0  0  0  0  0  0  0  0  0  0  0  0
    2.6832   59.8349   74.8206 H   0  0  0  0  0  0  0  0  0  0  0  0
   -0.7862   57.9579   76.8256 H   0  0  0  0  0  0  0  0  0  0  0  0
   -1.9465   58.4628   75.7175 H   0  0  0  0  0  0  0  0  0  0  0  0
   -1.4230   56.8644   75.7175 H   0  0  0  0  0  0  0  0  0  0  0  0
    2.4345   55.9242   74.0221 H   0  0  0  0  0  0  0  0  0  0  0  0
    1.8633   55.2943   72.5709 H   0  0  0  0  0  0  0  0  0  0  0  0
    3.1650   56.3594   72.5709 H   0  0  0  0  0  0  0  0  0  0  0  0
    3.5777   57.6688   75.8407 H   0  0  0  0  0  0  0  0  0  0  0  0
    0.1780   60.5394   75.0384 H   0  0  0  0  0  0  0  0  0  0  0  0
   -2.1712   62.4565   77.1087 H   0  0  0  0  0  0  0  0  0  0  0  0
   -0.5458   63.2282   74.7632 H   0  0  0  0  0  0  0  0  0  0  0  0
    0.4973   63.1400   77.6722 H   0  0  0  0  0  0  0  0  0  0  0  0
    1.9158   61.9842   75.2413 H   0  0  0  0  0  0  0  0  0  0  0  0
    1.8108   64.8265   77.2081 H   0  0  0  0  0  0  0  0  0  0  0  0
    2.3562   64.1333   75.7759 H   0  0  0  0  0  0  0  0  0  0  0  0
    0.9661   65.0802   75.7759 H   0  0  0  0  0  0  0  0  0  0  0  0
    2.0595   61.7348   78.1120 H   0  0  0  0  0  0  0  0  0  0  0  0
   -1.2624   64.6279   77.1822 H   0  0  0  0  0  0  0  0  0  0  0  0
   -2.5507   60.5076   75.2090 H   0  0  0  0  0  0  0  0  0  0  0  0
   -3.4318   62.0749   75.2515 H   0  0  0  0  0  0  0  0  0  0  0  0
   -1.0410   62.4776   74.0393 H   0  0  0  0  0  0  0  0  0  0  0  0
    3.4875   61.9099   69.4323 H   0  0  0  0  0  0  0  0  0  0  0  0
    2.9825   60.9803   73.0507 H   0  0  0  0  0  0  0  0  0  0  0  0
    0.9861   62.2572   73.6362 H   0  0  0  0  0  0  0  0  0  0  0  0
    1.4232   64.3476   72.2457 H   0  0  0  0  0  0  0  0  0  0  0  0
    2.9311   63.5518   72.8433 H   0  0  0  0  0  0  0  0  0  0  0  0
    3.2306   64.1871   70.4947 H   0  0  0  0  0  0  0  0  0  0  0  0
   -0.8124   62.1621   72.3650 H   0  0  0  0  0  0  0  0  0  0  0  0
   -0.0333   63.0251   71.1496 H   0  0  0  0  0  0  0  0  0  0  0  0
    0.0136   61.3438   71.1496 H   0  0  0  0  0  0  0  0  0  0  0  0
    0.6007   63.1912   70.4715 H   0  0  0  0  0  0  0  0  0  0  0  0
    5.4378   62.7393   70.3131 H   0  0  0  0  0  0  0  0  0  0  0  0
    4.8414   62.5578   72.0293 H   0  0  0  0  0  0  0  0  0  0  0  0
    5.6507   60.5483   72.1249 H   0  0  0  0  0  0  0  0  0  0  0  0
    4.9469   60.0755   70.6723 H   0  0  0  0  0  0  0  0  0  0  0  0
    6.4515   60.8273   70.6723 H   0  0  0  0  0  0  0  0  0  0  0  0
  2  1  1  0
  3  2  1  0
  4  3  1  0
  5  4  1  0
  6  5  1  0
  6  1  1  0
  7  4  1  0
  8  2  1  0
  9  6  1  0
 10  5  1  0
 11 10  1  0
 12 11  1  0
 13 12  1  0
 14 13  1  0
 15 14  1  0
 16 15  1  0
 16 11  1  0
 17 15  1  0
 18 16  1  0
 19 14  1  0
 20 13  1  0
 21 20  1  0
 22  1  1  0
 24 23  1  0
 25 24  1  0
 25 22  1  0
 26 25  1  0
 27 26  1  0
 28 23  1  0
 28 27  1  0
 29 26  1  0
 30 28  1  0
 31 23  1  0
 32 31  1  0
  1 33  1  6
  2 34  1  6
  3 35  1  0
  3 36  1  0
  4 37  1  6
  5 38  1  1
  6 39  1  6
  7 40  1  0
  7 41  1  0
  7 42  1  0
  8 43  1  0
  8 44  1  0
  8 45  1  0
  9 46  1  0
 11 47  1  6
 13 48  1  1
 14 49  1  6
 15 50  1  1
 16 51  1  6
 17 52  1  0
 17 53  1  0
 17 54  1  0
 18 55  1  0
 19 56  1  0
 20 57  1  0
 20 58  1  0
 21 59  1  0
 23 60  1  6
 25 61  1  1
 26 62  1  1
 27 63  1  0
 27 64  1  0
 28 65  1  6
 29 66  1  0
 29 67  1  0
 29 68  1  0
 30 69  1  0
 31 70  1  0
 31 71  1  0
 32 72  1  0
 32 73  1  0
 32 74  1  0
M  CHG  5   7   1   8   1  17   1  29   1  32   1
M  END
>  <score>  (8) 
-6.2

$$$$
=
     RDKit          3D

 74 76  0  0  0  0  0  0  0  0999 V2000
    2.6570   61.5730   72.3030 C   0  0  2  0  0  0  0  0  0  0  0  0
    2.9410   61.3810   70.7810 C   0  0  2  0  0  0  0  0  0  0  0  0
    3.1580   59.9030   70.3680 C   0  0  0  0  0  0  0  0  0  0  0  0
    3.1240   58.9170   71.5430 C   0  0  2  0  0  0  0  0  0  0  0  0
    4.0860   59.3680   72.6650 C   0  0  1  0  0  0  0  0  0  0  0  0
    3.7400   60.8170   73.1360 C   0  0  1  0  0  0  0  0  0  0  0  0
    3.4970   57.5370   71.0740 N   0  0  0  0  0  4  0  0  0  0  0  0
    4.1400   62.1990   70.3750 N   0  0  0  0  0  4  0  0  0  0  0  0
    4.9340   61.5980   72.9390 O   0  0  0  0  0  0  0  0  0  0  0  0
    4.0280   58.3770   73.7110 O   0  0  0  0  0  0  0  0  0  0  0  0
    2.7220   58.1890   74.3050 C   0  0  1  0  0  0  0  0  0  0  0  0
    2.3470   56.8270   74.1950 O   0  0  0  0  0  0  0  0  0  0  0  0
    0.9840   56.5420   74.6060 C   0  0  1  0  0  0  0  0  0  0  0  0
    0.5930   57.2810   75.9090 C   0  0  2  0  0  0  0  0  0  0  0  0
    1.8780   57.6510   76.6540 C   0  0  1  0  0  0  0  0  0  0  0  0
    2.7570   58.5970   75.8150 C   0  0  1  0  0  0  0  0  0  0  0  0
    1.5490   58.2330   77.9980 N   0  0  0  0  0  4  0  0  0  0  0  0
    4.0850   58.5890   76.3550 O   0  0  0  0  0  0  0  0  0  0  0  0
   -0.1820   56.4730   76.7890 O   0  0  0  0  0  0  0  0  0  0  0  0
   -0.0060   56.8390   73.4640 C   0  0  0  0  0  0  0  0  0  0  0  0
   -0.7920   55.6750   73.1880 O   0  0  0  0  0  0  0  0  0  0  0  0
    1.3110   61.1480   72.6310 O   0  0  0  0  0  0  0  0  0  0  0  0
   -0.0070   63.2410   75.4230 C   0  0  1  0  0  0  0  0  0  0  0  0
    0.5530   62.8040   74.1460 O   0  0  0  0  0  0  0  0  0  0  0  0
    0.9350   61.4280   74.0180 C   0  0  1  0  0  0  0  0  0  0  0  0
   -0.2110   60.4480   74.4530 C   0  0  1  0  0  0  0  0  0  0  0  0
   -0.7020   60.8260   75.8530 C   0  0  0  0  0  0  0  0  0  0  0  0
   -1.1320   62.2950   75.9030 C   0  0  2  0  0  0  0  0  0  0  0  0
   -1.3810   60.5150   73.5120 N   0  0  0  0  0  4  0  0  0  0  0  0
   -2.2270   62.4180   74.9780 O   0  0  0  0  0  0  0  0  0  0  0  0
    1.0770   63.5380   76.5000 C   0  0  0  0  0  0  0  0  0  0  0  0
    1.7940   64.8270   76.2780 N   0  0  0  0  0  4  0  0  0  0  0  0
    2.7202   62.6410   72.5589 H   0  0  0  0  0  0  0  0  0  0  0  0
    2.0388   61.7256   70.2545 H   0  0  0  0  0  0  0  0  0  0  0  0
    2.3666   59.6223   69.6575 H   0  0  0  0  0  0  0  0  0  0  0  0
    4.1638   59.8394   69.9272 H   0  0  0  0  0  0  0  0  0  0  0  0
    2.1006   58.8972   71.9459 H   0  0  0  0  0  0  0  0  0  0  0  0
    5.1258   59.4288   72.3114 H   0  0  0  0  0  0  0  0  0  0  0  0
    3.3625   60.7123   74.1639 H   0  0  0  0  0  0  0  0  0  0  0  0
    3.6611   56.9298   71.8897 H   0  0  0  0  0  0  0  0  0  0  0  0
    2.7308   57.1488   70.5056 H   0  0  0  0  0  0  0  0  0  0  0  0
    4.3545   57.5876   70.5056 H   0  0  0  0  0  0  0  0  0  0  0  0
    4.6292   62.5328   71.2177 H   0  0  0  0  0  0  0  0  0  0  0  0
    4.7790   61.6169   69.8149 H   0  0  0  0  0  0  0  0  0  0  0  0
    3.8311   63.0063   69.8149 H   0  0  0  0  0  0  0  0  0  0  0  0
    5.3144   61.8468   73.8185 H   0  0  0  0  0  0  0  0  0  0  0  0
    1.9917   58.8200   73.7774 H   0  0  0  0  0  0  0  0  0  0  0  0
    0.9300   55.4670   74.8329 H   0  0  0  0  0  0  0  0  0  0  0  0
   -0.0054   58.1582   75.6217 H   0  0  0  0  0  0  0  0  0  0  0  0
    2.4654   56.7355   76.8180 H   0  0  0  0  0  0  0  0  0  0  0  0
    2.3682   59.6247   75.8659 H   0  0  0  0  0  0  0  0  0  0  0  0
    1.9016   57.6092   78.7379 H   0  0  0  0  0  0  0  0  0  0  0  0
    1.9919   59.1584   78.0892 H   0  0  0  0  0  0  0  0  0  0  0  0
    0.5277   58.3307   78.0892 H   0  0  0  0  0  0  0  0  0  0  0  0
    4.0391   58.5893   77.3439 H   0  0  0  0  0  0  0  0  0  0  0  0
    0.0377   56.7020   77.7268 H   0  0  0  0  0  0  0  0  0  0  0  0
   -0.6688   57.6651   73.7610 H   0  0  0  0  0  0  0  0  0  0  0  0
    0.5555   57.1203   72.5609 H   0  0  0  0  0  0  0  0  0  0  0  0
   -1.0739   55.2575   74.0402 H   0  0  0  0  0  0  0  0  0  0  0  0
   -0.4841   64.2168   75.2490 H   0  0  0  0  0  0  0  0  0  0  0  0
    1.7902   61.2615   74.6895 H   0  0  0  0  0  0  0  0  0  0  0  0
    0.2000   59.4277   74.4406 H   0  0  0  0  0  0  0  0  0  0  0  0
   -1.5599   60.1904   76.1176 H   0  0  0  0  0  0  0  0  0  0  0  0
    0.1216   60.6763   76.5667 H   0  0  0  0  0  0  0  0  0  0  0  0
   -1.3911   62.5695   76.9362 H   0  0  0  0  0  0  0  0  0  0  0  0
   -2.2553   60.5651   74.0542 H   0  0  0  0  0  0  0  0  0  0  0  0
   -1.2967   61.3525   72.9184 H   0  0  0  0  0  0  0  0  0  0  0  0
   -1.3929   59.6733   72.9184 H   0  0  0  0  0  0  0  0  0  0  0  0
   -3.0745   62.5132   75.4807 H   0  0  0  0  0  0  0  0  0  0  0  0
    0.5889   63.5755   77.4851 H   0  0  0  0  0  0  0  0  0  0  0  0
    1.8258   62.7346   76.4377 H   0  0  0  0  0  0  0  0  0  0  0  0
    2.0293   65.2500   77.1872 H   0  0  0  0  0  0  0  0  0  0  0  0
    2.6589   64.6517   75.7468 H   0  0  0  0  0  0  0  0  0  0  0  0
    1.1890   65.4694   75.7468 H   0  0  0  0  0  0  0  0  0  0  0  0
  2  1  1  0
  3  2  1  0
  4  3  1  0
  5  4  1  0
  6  5  1  0
  6  1  1  0
  7  4  1  0
  8  2  1  0
  9  6  1  0
 10  5  1  0
 11 10  1  0
 12 11  1  0
 13 12  1  0
 14 13  1  0
 15 14  1  0
 16 15  1  0
 16 11  1  0
 17 15  1  0
 18 16  1  0
 19 14  1  0
 20 13  1  0
 21 20  1  0
 22  1  1  0
 24 23  1  0
 25 24  1  0
 25 22  1  0
 26 25  1  0
 27 26  1  0
 28 23  1  0
 28 27  1  0
 29 26  1  0
 30 28  1  0
 31 23  1  0
 32 31  1  0
  1 33  1  1
  2 34  1  6
  3 35  1  0
  3 36  1  0
  4 37  1  1
  5 38  1  6
  6 39  1  1
  7 40  1  0
  7 41  1  0
  7 42  1  0
  8 43  1  0
  8 44  1  0
  8 45  1  0
  9 46  1  0
 11 47  1  6
 13 48  1  1
 14 49  1  6
 15 50  1  1
 16 51  1  6
 17 52  1  0
 17 53  1  0
 17 54  1  0
 18 55  1  0
 19 56  1  0
 20 57  1  0
 20 58  1  0
 21 59  1  0
 23 60  1  6
 25 61  1  1
 26 62  1  1
 27 63  1  0
 27 64  1  0
 28 65  1  1
 29 66  1  0
 29 67  1  0
 29 68  1  0
 30 69  1  0
 31 70  1  0
 31 71  1  0
 32 72  1  0
 32 73  1  0
 32 74  1  0
M  CHG  5   7   1   8   1  17   1  29   1  32   1
M  END
>  <score>  (9) 
-6.101

$$$$
