=
     RDKit          3D

 72 76  0  0  0  0  0  0  0  0999 V2000
    0.4430   66.0430   70.3150 C   0  0  0  0  0  0  0  0  0  0  0  0
    0.9490   64.6120   70.5200 C   0  0  0  0  0  0  0  0  0  0  0  0
    2.4720   64.4400   70.5220 C   0  0  0  0  0  0  0  0  0  0  0  0
    2.9730   63.1820   69.8180 C   0  0  0  0  0  0  0  0  0  0  0  0
    3.0770   61.3650   71.4820 C   0  0  0  0  0  0  0  0  0  0  0  0
    4.0490   61.8600   72.0490 O   0  0  0  0  0  0  0  0  0  0  0  0
    2.4530   61.9740   70.4230 N   0  0  0  0  0  0  0  0  0  0  0  0
   -2.0430   57.7130   75.4380 C   0  0  0  0  0  0  0  0  0  0  0  0
   -0.8790   57.6910   74.4910 C   0  0  0  0  0  0  0  0  0  0  0  0
   -0.3330   56.4700   74.0690 C   0  0  0  0  0  0  0  0  0  0  0  0
    0.7690   56.4480   73.2140 C   0  0  0  0  0  0  0  0  0  0  0  0
    1.3250   57.6530   72.7940 C   0  0  0  0  0  0  0  0  0  0  0  0
    0.8140   58.8760   73.2080 C   0  0  0  0  0  0  0  0  0  0  0  0
   -0.2900   58.8930   74.0650 C   0  0  0  0  0  0  0  0  0  0  0  0
    1.4460   60.0960   72.7360 C   0  0  0  0  0  0  0  0  0  0  0  0
    2.5070   60.0480   71.9130 C   0  0  0  0  0  0  0  0  0  0  0  0
    3.0620   58.7460   71.4760 C   0  0  0  0  0  0  0  0  0  0  0  0
    4.0410   58.6730   70.7370 O   0  0  0  0  0  0  0  0  0  0  0  0
    2.4350   57.5930   71.9350 O   0  0  0  0  0  0  0  0  0  0  0  0
    1.3010   66.9280   69.4030 C   0  0  0  0  0  0  0  0  0  0  0  0
    0.5780   67.5320   68.1950 C   0  0  0  0  0  0  0  0  0  0  0  0
    1.4090   67.5850   66.9080 C   0  0  0  0  0  0  0  0  0  0  0  0
    1.5740   68.9820   66.4760 N   0  0  0  0  0  0  0  0  0  0  0  0
    2.9390   69.2820   66.1770 C   0  0  0  0  0  0  0  0  0  0  0  0
    3.4200   69.0120   64.8810 C   0  0  0  0  0  0  0  0  0  0  0  0
    2.4900   68.5600   63.7800 C   0  0  0  0  0  0  0  0  0  0  0  0
    3.2040   68.0340   62.5370 C   0  0  0  0  0  0  0  0  0  0  0  0
    4.3420   68.9630   62.1420 C   0  0  0  0  0  0  0  0  0  0  0  0
    5.3720   69.0230   63.2630 C   0  0  0  0  0  0  0  0  0  0  0  0
    4.7630   69.2810   64.6180 C   0  0  0  0  0  0  0  0  0  0  0  0
    5.6230   69.7450   65.5550 N   0  0  0  0  0  0  0  0  0  0  0  0
    5.1680   69.9890   66.7910 C   0  0  0  0  0  0  0  0  0  0  0  0
    3.8290   69.7770   67.1740 C   0  0  0  0  0  0  0  0  0  0  0  0
    3.4580   70.0720   68.5130 C   0  0  0  0  0  0  0  0  0  0  0  0
    4.3840   70.5560   69.4370 C   0  0  0  0  0  0  0  0  0  0  0  0
    5.6980   70.7570   69.0420 C   0  0  0  0  0  0  0  0  0  0  0  0
    6.0720   70.4720   67.7280 C   0  0  0  0  0  0  0  0  0  0  0  0
   -0.5652   65.9856   69.8788 H   0  0  0  0  0  0  0  0  0  0  0  0
    0.4738   66.5167   71.3073 H   0  0  0  0  0  0  0  0  0  0  0  0
    0.5671   64.2537   71.4873 H   0  0  0  0  0  0  0  0  0  0  0  0
    0.5833   64.0378   69.6560 H   0  0  0  0  0  0  0  0  0  0  0  0
    2.9160   65.3128   70.0209 H   0  0  0  0  0  0  0  0  0  0  0  0
    2.7725   64.3466   71.5760 H   0  0  0  0  0  0  0  0  0  0  0  0
    2.6568   63.2154   68.7649 H   0  0  0  0  0  0  0  0  0  0  0  0
    4.0693   63.1593   69.9058 H   0  0  0  0  0  0  0  0  0  0  0  0
    1.5884   61.5593   70.0470 H   0  0  0  0  0  0  0  0  0  0  0  0
   -1.6731   57.7060   76.4739 H   0  0  0  0  0  0  0  0  0  0  0  0
   -2.6376   58.6225   75.2671 H   0  0  0  0  0  0  0  0  0  0  0  0
   -2.6715   56.8266   75.2671 H   0  0  0  0  0  0  0  0  0  0  0  0
   -0.7763   55.5243   74.4142 H   0  0  0  0  0  0  0  0  0  0  0  0
    1.1931   55.4909   72.8761 H   0  0  0  0  0  0  0  0  0  0  0  0
   -0.7004   59.8541   74.4082 H   0  0  0  0  0  0  0  0  0  0  0  0
    1.0509   61.0713   73.0564 H   0  0  0  0  0  0  0  0  0  0  0  0
    1.6961   67.7562   70.0096 H   0  0  0  0  0  0  0  0  0  0  0  0
    2.0784   66.2689   68.9894 H   0  0  0  0  0  0  0  0  0  0  0  0
   -0.3205   66.9289   67.9974 H   0  0  0  0  0  0  0  0  0  0  0  0
    0.3513   68.5753   68.4600 H   0  0  0  0  0  0  0  0  0  0  0  0
    2.3983   67.1414   67.0940 H   0  0  0  0  0  0  0  0  0  0  0  0
    0.8910   67.0205   66.1187 H   0  0  0  0  0  0  0  0  0  0  0  0
    0.8019   69.6593   66.3987 H   0  0  0  0  0  0  0  0  0  0  0  0
    1.8500   67.7578   64.1761 H   0  0  0  0  0  0  0  0  0  0  0  0
    1.9170   69.4449   63.4658 H   0  0  0  0  0  0  0  0  0  0  0  0
    3.6103   67.0340   62.7491 H   0  0  0  0  0  0  0  0  0  0  0  0
    2.4829   67.9829   61.7079 H   0  0  0  0  0  0  0  0  0  0  0  0
    4.8205   68.5855   61.2263 H   0  0  0  0  0  0  0  0  0  0  0  0
    3.9417   69.9717   61.9622 H   0  0  0  0  0  0  0  0  0  0  0  0
    5.9070   68.0625   63.2976 H   0  0  0  0  0  0  0  0  0  0  0  0
    6.0455   69.8643   63.0425 H   0  0  0  0  0  0  0  0  0  0  0  0
    2.4160   69.9151   68.8286 H   0  0  0  0  0  0  0  0  0  0  0  0
    4.0748   70.7762   70.4694 H   0  0  0  0  0  0  0  0  0  0  0  0
    6.4400   71.1382   69.7590 H   0  0  0  0  0  0  0  0  0  0  0  0
    7.1167   70.6352   67.4247 H   0  0  0  0  0  0  0  0  0  0  0  0
  2  1  1  0
  3  2  1  0
  4  3  1  0
  6  5  2  0
  7  4  1  0
  7  5  1  0
  9  8  1  0
 10  9  2  0
 11 10  1  0
 12 11  2  0
 13 12  1  0
 14 13  2  0
 14  9  1  0
 15 13  1  0
 16 15  2  0
 16  5  1  0
 17 16  1  0
 18 17  2  0
 19 17  1  0
 19 12  1  0
 20  1  1  0
 21 20  1  0
 22 21  1  0
 23 22  1  0
 24 23  1  0
 25 24  1  0
 26 25  1  0
 27 26  1  0
 28 27  1  0
 29 28  1  0
 30 29  1  0
 30 25  2  0
 31 30  1  0
 32 31  2  0
 33 32  1  0
 33 24  2  0
 34 33  1  0
 35 34  2  0
 36 35  1  0
 37 32  1  0
 37 36  2  0
  1 38  1  0
  1 39  1  0
  2 40  1  0
  2 41  1  0
  3 42  1  0
  3 43  1  0
  4 44  1  0
  4 45  1  0
  7 46  1  0
  8 47  1  0
  8 48  1  0
  8 49  1  0
 10 50  1  0
 11 51  1  0
 14 52  1  0
 15 53  1  0
 20 54  1  0
 20 55  1  0
 21 56  1  0
 21 57  1  0
 22 58  1  0
 22 59  1  0
 23 60  1  0
 26 61  1  0
 26 62  1  0
 27 63  1  0
 27 64  1  0
 28 65  1  0
 28 66  1  0
 29 67  1  0
 29 68  1  0
 34 69  1  0
 35 70  1  0
 36 71  1  0
 37 72  1  0
M  END
>  <score>  (1) 
-12.563

$$$$
=
     RDKit          3D

 72 76  0  0  0  0  0  0  0  0999 V2000
    4.7980   64.5760   63.9170 C   0  0  0  0  0  0  0  0  0  0  0  0
    4.2680   63.4450   64.8030 C   0  0  0  0  0  0  0  0  0  0  0  0
    3.6530   63.8810   66.1380 C   0  0  0  0  0  0  0  0  0  0  0  0
    4.0900   63.0510   67.3420 C   0  0  0  0  0  0  0  0  0  0  0  0
    3.2800   62.7850   69.6570 C   0  0  0  0  0  0  0  0  0  0  0  0
    4.4060   62.9220   70.1290 O   0  0  0  0  0  0  0  0  0  0  0  0
    3.0270   62.8930   68.3120 N   0  0  0  0  0  0  0  0  0  0  0  0
    0.0110   58.1530   74.4590 C   0  0  0  0  0  0  0  0  0  0  0  0
    0.0010   59.4440   73.6910 C   0  0  0  0  0  0  0  0  0  0  0  0
   -1.1030   60.3030   73.7670 C   0  0  0  0  0  0  0  0  0  0  0  0
   -1.1280   61.4870   73.0300 C   0  0  0  0  0  0  0  0  0  0  0  0
   -0.0470   61.7970   72.2110 C   0  0  0  0  0  0  0  0  0  0  0  0
    1.0540   60.9570   72.1050 C   0  0  0  0  0  0  0  0  0  0  0  0
    1.0730   59.7720   72.8460 C   0  0  0  0  0  0  0  0  0  0  0  0
    2.1460   61.3400   71.2270 C   0  0  0  0  0  0  0  0  0  0  0  0
    2.0990   62.4850   70.5260 C   0  0  0  0  0  0  0  0  0  0  0  0
    0.9230   63.3800   70.6280 C   0  0  0  0  0  0  0  0  0  0  0  0
    0.8450   64.4250   69.9870 O   0  0  0  0  0  0  0  0  0  0  0  0
   -0.1060   62.9960   71.4810 O   0  0  0  0  0  0  0  0  0  0  0  0
    4.0370   65.9040   64.0050 C   0  0  0  0  0  0  0  0  0  0  0  0
    4.7140   67.1020   63.3320 C   0  0  0  0  0  0  0  0  0  0  0  0
    5.2980   68.1380   64.2980 C   0  0  0  0  0  0  0  0  0  0  0  0
    4.3730   69.2740   64.4340 N   0  0  0  0  0  0  0  0  0  0  0  0
    3.8920   69.4020   65.7730 C   0  0  0  0  0  0  0  0  0  0  0  0
    2.5450   69.0850   66.0380 C   0  0  0  0  0  0  0  0  0  0  0  0
    1.6610   68.4770   64.9750 C   0  0  0  0  0  0  0  0  0  0  0  0
    0.1760   68.4700   65.3290 C   0  0  0  0  0  0  0  0  0  0  0  0
   -0.0310   67.9880   66.7580 C   0  0  0  0  0  0  0  0  0  0  0  0
    0.6600   68.9380   67.7280 C   0  0  0  0  0  0  0  0  0  0  0  0
    2.0850   69.2480   67.3450 C   0  0  0  0  0  0  0  0  0  0  0  0
    2.8560   69.7310   68.3470 N   0  0  0  0  0  0  0  0  0  0  0  0
    4.1330   70.0450   68.0920 C   0  0  0  0  0  0  0  0  0  0  0  0
    4.7200   69.9060   66.8180 C   0  0  0  0  0  0  0  0  0  0  0  0
    6.0840   70.2690   66.6630 C   0  0  0  0  0  0  0  0  0  0  0  0
    6.8360   70.7550   67.7330 C   0  0  0  0  0  0  0  0  0  0  0  0
    6.2410   70.8860   68.9790 C   0  0  0  0  0  0  0  0  0  0  0  0
    4.9020   70.5310   69.1420 C   0  0  0  0  0  0  0  0  0  0  0  0
    5.8433   64.7664   64.2017 H   0  0  0  0  0  0  0  0  0  0  0  0
    4.6732   64.2279   62.8810 H   0  0  0  0  0  0  0  0  0  0  0  0
    3.4963   62.9042   64.2356 H   0  0  0  0  0  0  0  0  0  0  0  0
    5.1430   62.8306   65.0616 H   0  0  0  0  0  0  0  0  0  0  0  0
    3.9383   64.9274   66.3213 H   0  0  0  0  0  0  0  0  0  0  0  0
    2.5665   63.7397   66.0407 H   0  0  0  0  0  0  0  0  0  0  0  0
    4.4011   62.0556   66.9920 H   0  0  0  0  0  0  0  0  0  0  0  0
    4.9199   63.5799   67.8335 H   0  0  0  0  0  0  0  0  0  0  0  0
    2.0515   62.8606   67.9831 H   0  0  0  0  0  0  0  0  0  0  0  0
    0.0093   58.3681   75.5378 H   0  0  0  0  0  0  0  0  0  0  0  0
   -0.8826   57.5658   74.2008 H   0  0  0  0  0  0  0  0  0  0  0  0
    0.9136   57.5797   74.2008 H   0  0  0  0  0  0  0  0  0  0  0  0
   -1.9553   60.0422   74.4117 H   0  0  0  0  0  0  0  0  0  0  0  0
   -1.9907   62.1663   73.0955 H   0  0  0  0  0  0  0  0  0  0  0  0
    1.9338   59.0918   72.7665 H   0  0  0  0  0  0  0  0  0  0  0  0
    3.0236   60.6833   71.1348 H   0  0  0  0  0  0  0  0  0  0  0  0
    3.0536   65.7622   63.5330 H   0  0  0  0  0  0  0  0  0  0  0  0
    3.9857   66.1504   65.0758 H   0  0  0  0  0  0  0  0  0  0  0  0
    5.5320   66.7229   62.7017 H   0  0  0  0  0  0  0  0  0  0  0  0
    3.9293   67.6198   62.7610 H   0  0  0  0  0  0  0  0  0  0  0  0
    5.4512   67.6726   65.2828 H   0  0  0  0  0  0  0  0  0  0  0  0
    6.2592   68.4992   63.9035 H   0  0  0  0  0  0  0  0  0  0  0  0
    4.1056   69.8991   63.6602 H   0  0  0  0  0  0  0  0  0  0  0  0
    1.7921   69.0517   64.0463 H   0  0  0  0  0  0  0  0  0  0  0  0
    1.9674   67.4257   64.8706 H   0  0  0  0  0  0  0  0  0  0  0  0
   -0.2243   69.4898   65.2297 H   0  0  0  0  0  0  0  0  0  0  0  0
   -0.3489   67.7873   64.6446 H   0  0  0  0  0  0  0  0  0  0  0  0
   -1.1078   67.9579   66.9809 H   0  0  0  0  0  0  0  0  0  0  0  0
    0.3984   66.9812   66.8676 H   0  0  0  0  0  0  0  0  0  0  0  0
    0.0933   69.8803   67.7573 H   0  0  0  0  0  0  0  0  0  0  0  0
    0.6868   68.4402   68.7085 H   0  0  0  0  0  0  0  0  0  0  0  0
    6.5589   70.1646   65.6763 H   0  0  0  0  0  0  0  0  0  0  0  0
    7.8909   71.0317   67.5897 H   0  0  0  0  0  0  0  0  0  0  0  0
    6.8209   71.2671   69.8325 H   0  0  0  0  0  0  0  0  0  0  0  0
    4.4398   70.6394   70.1343 H   0  0  0  0  0  0  0  0  0  0  0  0
  2  1  1  0
  3  2  1  0
  4  3  1  0
  6  5  2  0
  7  4  1  0
  7  5  1  0
  9  8  1  0
 10  9  2  0
 11 10  1  0
 12 11  2  0
 13 12  1  0
 14 13  2  0
 14  9  1  0
 15 13  1  0
 16 15  2  0
 16  5  1  0
 17 16  1  0
 18 17  2  0
 19 17  1  0
 19 12  1  0
 20  1  1  0
 21 20  1  0
 22 21  1  0
 23 22  1  0
 24 23  1  0
 25 24  1  0
 26 25  1  0
 27 26  1  0
 28 27  1  0
 29 28  1  0
 30 29  1  0
 30 25  2  0
 31 30  1  0
 32 31  2  0
 33 32  1  0
 33 24  2  0
 34 33  1  0
 35 34  2  0
 36 35  1  0
 37 32  1  0
 37 36  2  0
  1 38  1  0
  1 39  1  0
  2 40  1  0
  2 41  1  0
  3 42  1  0
  3 43  1  0
  4 44  1  0
  4 45  1  0
  7 46  1  0
  8 47  1  0
  8 48  1  0
  8 49  1  0
 10 50  1  0
 11 51  1  0
 14 52  1  0
 15 53  1  0
 20 54  1  0
 20 55  1  0
 21 56  1  0
 21 57  1  0
 22 58  1  0
 22 59  1  0
 23 60  1  0
 26 61  1  0
 26 62  1  0
 27 63  1  0
 27 64  1  0
 28 65  1  0
 28 66  1  0
 29 67  1  0
 29 68  1  0
 34 69  1  0
 35 70  1  0
 36 71  1  0
 37 72  1  0
M  END
>  <score>  (2) 
-12.355

$$$$
=
     RDKit          3D

 72 76  0  0  0  0  0  0  0  0999 V2000
    0.3450   65.9660   70.2920 C   0  0  0  0  0  0  0  0  0  0  0  0
    0.8780   64.5880   70.6940 C   0  0  0  0  0  0  0  0  0  0  0  0
    2.3720   64.3540   70.4410 C   0  0  0  0  0  0  0  0  0  0  0  0
    2.7520   62.9020   70.1630 C   0  0  0  0  0  0  0  0  0  0  0  0
    2.5900   61.0190   71.7480 C   0  0  0  0  0  0  0  0  0  0  0  0
    3.8090   60.9620   71.8960 O   0  0  0  0  0  0  0  0  0  0  0  0
    1.9860   61.9740   70.9680 N   0  0  0  0  0  0  0  0  0  0  0  0
    1.4530   54.0700   74.1200 C   0  0  0  0  0  0  0  0  0  0  0  0
    0.9760   55.4870   73.9820 C   0  0  0  0  0  0  0  0  0  0  0  0
   -0.3010   55.8500   74.4300 C   0  0  0  0  0  0  0  0  0  0  0  0
   -0.7590   57.1590   74.2740 C   0  0  0  0  0  0  0  0  0  0  0  0
    0.0660   58.0950   73.6580 C   0  0  0  0  0  0  0  0  0  0  0  0
    1.3300   57.7600   73.1920 C   0  0  0  0  0  0  0  0  0  0  0  0
    1.7840   56.4470   73.3510 C   0  0  0  0  0  0  0  0  0  0  0  0
    2.1370   58.7860   72.5540 C   0  0  0  0  0  0  0  0  0  0  0  0
    1.6740   60.0390   72.4140 C   0  0  0  0  0  0  0  0  0  0  0  0
    0.3230   60.4000   72.9010 C   0  0  0  0  0  0  0  0  0  0  0  0
   -0.1330   61.5340   72.7720 O   0  0  0  0  0  0  0  0  0  0  0  0
   -0.4280   59.4020   73.5150 O   0  0  0  0  0  0  0  0  0  0  0  0
    1.2870   66.8200   69.4360 C   0  0  0  0  0  0  0  0  0  0  0  0
    0.6340   67.5500   68.2580 C   0  0  0  0  0  0  0  0  0  0  0  0
    1.4780   67.5930   66.9800 C   0  0  0  0  0  0  0  0  0  0  0  0
    1.6430   68.9860   66.5350 N   0  0  0  0  0  0  0  0  0  0  0  0
    3.0040   69.2770   66.2120 C   0  0  0  0  0  0  0  0  0  0  0  0
    3.4610   69.0020   64.9090 C   0  0  0  0  0  0  0  0  0  0  0  0
    2.5100   68.5520   63.8250 C   0  0  0  0  0  0  0  0  0  0  0  0
    3.2000   68.0180   62.5720 C   0  0  0  0  0  0  0  0  0  0  0  0
    4.3370   68.9400   62.1540 C   0  0  0  0  0  0  0  0  0  0  0  0
    5.3860   68.9970   63.2580 C   0  0  0  0  0  0  0  0  0  0  0  0
    4.8010   69.2620   64.6220 C   0  0  0  0  0  0  0  0  0  0  0  0
    5.6800   69.7240   65.5430 N   0  0  0  0  0  0  0  0  0  0  0  0
    5.2470   69.9740   66.7860 C   0  0  0  0  0  0  0  0  0  0  0  0
    3.9140   69.7710   67.1920 C   0  0  0  0  0  0  0  0  0  0  0  0
    3.5670   70.0710   68.5360 C   0  0  0  0  0  0  0  0  0  0  0  0
    4.5110   70.5520   69.4430 C   0  0  0  0  0  0  0  0  0  0  0  0
    5.8190   70.7450   69.0260 C   0  0  0  0  0  0  0  0  0  0  0  0
    6.1700   70.4540   67.7070 C   0  0  0  0  0  0  0  0  0  0  0  0
   -0.5849   65.8160   69.7239 H   0  0  0  0  0  0  0  0  0  0  0  0
    0.2093   66.5206   71.2322 H   0  0  0  0  0  0  0  0  0  0  0  0
    0.6923   64.4544   71.7699 H   0  0  0  0  0  0  0  0  0  0  0  0
    0.3487   63.8640   70.0571 H   0  0  0  0  0  0  0  0  0  0  0  0
    2.6713   64.9589   69.5723 H   0  0  0  0  0  0  0  0  0  0  0  0
    2.8924   64.6395   71.3671 H   0  0  0  0  0  0  0  0  0  0  0  0
    2.5686   62.6847   69.1004 H   0  0  0  0  0  0  0  0  0  0  0  0
    3.8142   62.7753   70.4192 H   0  0  0  0  0  0  0  0  0  0  0  0
    0.9577   62.0319   70.9552 H   0  0  0  0  0  0  0  0  0  0  0  0
    1.5391   53.8143   75.1864 H   0  0  0  0  0  0  0  0  0  0  0  0
    0.7335   53.3923   73.6373 H   0  0  0  0  0  0  0  0  0  0  0  0
    2.4359   53.9653   73.6373 H   0  0  0  0  0  0  0  0  0  0  0  0
   -0.9467   55.0984   74.9077 H   0  0  0  0  0  0  0  0  0  0  0  0
   -1.7582   57.4468   74.6330 H   0  0  0  0  0  0  0  0  0  0  0  0
    2.7801   56.1643   72.9796 H   0  0  0  0  0  0  0  0  0  0  0  0
    3.1404   58.5333   72.1807 H   0  0  0  0  0  0  0  0  0  0  0  0
    1.7460   67.5761   70.0899 H   0  0  0  0  0  0  0  0  0  0  0  0
    2.0083   66.1182   68.9918 H   0  0  0  0  0  0  0  0  0  0  0  0
   -0.3141   67.0434   68.0248 H   0  0  0  0  0  0  0  0  0  0  0  0
    0.5017   68.5945   68.5765 H   0  0  0  0  0  0  0  0  0  0  0  0
    2.4667   67.1548   67.1810 H   0  0  0  0  0  0  0  0  0  0  0  0
    0.9700   67.0187   66.1912 H   0  0  0  0  0  0  0  0  0  0  0  0
    0.8730   69.6666   66.4651 H   0  0  0  0  0  0  0  0  0  0  0  0
    1.8721   67.7548   64.2343 H   0  0  0  0  0  0  0  0  0  0  0  0
    1.9370   69.4392   63.5176 H   0  0  0  0  0  0  0  0  0  0  0  0
    3.6044   67.0165   62.7807 H   0  0  0  0  0  0  0  0  0  0  0  0
    2.4646   67.9681   61.7554 H   0  0  0  0  0  0  0  0  0  0  0  0
    4.7978   68.5569   61.2315 H   0  0  0  0  0  0  0  0  0  0  0  0
    3.9397   69.9504   61.9772 H   0  0  0  0  0  0  0  0  0  0  0  0
    5.9160   68.0335   63.2864 H   0  0  0  0  0  0  0  0  0  0  0  0
    6.0606   69.8338   63.0242 H   0  0  0  0  0  0  0  0  0  0  0  0
    2.5296   69.9205   68.8694 H   0  0  0  0  0  0  0  0  0  0  0  0
    4.2203   70.7762   70.4799 H   0  0  0  0  0  0  0  0  0  0  0  0
    6.5746   71.1247   69.7295 H   0  0  0  0  0  0  0  0  0  0  0  0
    7.2106   70.6096   67.3863 H   0  0  0  0  0  0  0  0  0  0  0  0
  2  1  1  0
  3  2  1  0
  4  3  1  0
  6  5  2  0
  7  4  1  0
  7  5  1  0
  9  8  1  0
 10  9  2  0
 11 10  1  0
 12 11  2  0
 13 12  1  0
 14 13  2  0
 14  9  1  0
 15 13  1  0
 16 15  2  0
 16  5  1  0
 17 16  1  0
 18 17  2  0
 19 17  1  0
 19 12  1  0
 20  1  1  0
 21 20  1  0
 22 21  1  0
 23 22  1  0
 24 23  1  0
 25 24  1  0
 26 25  1  0
 27 26  1  0
 28 27  1  0
 29 28  1  0
 30 29  1  0
 30 25  2  0
 31 30  1  0
 32 31  2  0
 33 32  1  0
 33 24  2  0
 34 33  1  0
 35 34  2  0
 36 35  1  0
 37 32  1  0
 37 36  2  0
  1 38  1  0
  1 39  1  0
  2 40  1  0
  2 41  1  0
  3 42  1  0
  3 43  1  0
  4 44  1  0
  4 45  1  0
  7 46  1  0
  8 47  1  0
  8 48  1  0
  8 49  1  0
 10 50  1  0
 11 51  1  0
 14 52  1  0
 15 53  1  0
 20 54  1  0
 20 55  1  0
 21 56  1  0
 21 57  1  0
 22 58  1  0
 22 59  1  0
 23 60  1  0
 26 61  1  0
 26 62  1  0
 27 63  1  0
 27 64  1  0
 28 65  1  0
 28 66  1  0
 29 67  1  0
 29 68  1  0
 34 69  1  0
 35 70  1  0
 36 71  1  0
 37 72  1  0
M  END
>  <score>  (3) 
-12.335

$$$$
=
     RDKit          3D

 72 76  0  0  0  0  0  0  0  0999 V2000
    0.0570   66.0850   70.3370 C   0  0  0  0  0  0  0  0  0  0  0  0
    0.1200   66.5810   68.8890 C   0  0  0  0  0  0  0  0  0  0  0  0
   -1.2330   66.7940   68.2000 C   0  0  0  0  0  0  0  0  0  0  0  0
   -1.2430   67.8940   67.1420 C   0  0  0  0  0  0  0  0  0  0  0  0
    0.6610   68.3710   65.6480 C   0  0  0  0  0  0  0  0  0  0  0  0
    0.0580   67.9720   64.6550 O   0  0  0  0  0  0  0  0  0  0  0  0
    0.0810   68.4240   66.8910 N   0  0  0  0  0  0  0  0  0  0  0  0
    6.6510   70.9690   69.1940 C   0  0  0  0  0  0  0  0  0  0  0  0
    5.9970   70.4990   67.9270 C   0  0  0  0  0  0  0  0  0  0  0  0
    6.6990   70.5340   66.7140 C   0  0  0  0  0  0  0  0  0  0  0  0
    6.0830   70.1280   65.5300 C   0  0  0  0  0  0  0  0  0  0  0  0
    4.7600   69.6990   65.5690 C   0  0  0  0  0  0  0  0  0  0  0  0
    4.0360   69.6680   66.7540 C   0  0  0  0  0  0  0  0  0  0  0  0
    4.6580   70.0750   67.9370 C   0  0  0  0  0  0  0  0  0  0  0  0
    2.6570   69.2130   66.7210 C   0  0  0  0  0  0  0  0  0  0  0  0
    2.0850   68.8280   65.5680 C   0  0  0  0  0  0  0  0  0  0  0  0
    2.8490   68.8680   64.3000 C   0  0  0  0  0  0  0  0  0  0  0  0
    2.3470   68.5370   63.2280 O   0  0  0  0  0  0  0  0  0  0  0  0
    4.1700   69.2990   64.3580 O   0  0  0  0  0  0  0  0  0  0  0  0
    0.9490   64.8830   70.6670 C   0  0  0  0  0  0  0  0  0  0  0  0
    0.3360   63.5060   70.3880 C   0  0  0  0  0  0  0  0  0  0  0  0
   -0.2170   62.7850   71.6210 C   0  0  0  0  0  0  0  0  0  0  0  0
    0.8150   62.7190   72.6680 N   0  0  0  0  0  0  0  0  0  0  0  0
    1.5460   61.4930   72.6090 C   0  0  0  0  0  0  0  0  0  0  0  0
    0.9450   60.3250   73.1170 C   0  0  0  0  0  0  0  0  0  0  0  0
   -0.4940   60.3220   73.5760 C   0  0  0  0  0  0  0  0  0  0  0  0
   -0.8960   59.0760   74.3610 C   0  0  0  0  0  0  0  0  0  0  0  0
   -0.3900   57.8210   73.6660 C   0  0  0  0  0  0  0  0  0  0  0  0
    1.1320   57.8440   73.6030 C   0  0  0  0  0  0  0  0  0  0  0  0
    1.6870   59.1440   73.0800 C   0  0  0  0  0  0  0  0  0  0  0  0
    2.9590   59.0830   72.6210 N   0  0  0  0  0  0  0  0  0  0  0  0
    3.5350   60.1970   72.1500 C   0  0  0  0  0  0  0  0  0  0  0  0
    2.8820   61.4450   72.1160 C   0  0  0  0  0  0  0  0  0  0  0  0
    3.5900   62.5600   71.5930 C   0  0  0  0  0  0  0  0  0  0  0  0
    4.8990   62.4380   71.1260 C   0  0  0  0  0  0  0  0  0  0  0  0
    5.5260   61.2020   71.1690 C   0  0  0  0  0  0  0  0  0  0  0  0
    4.8380   60.1010   71.6800 C   0  0  0  0  0  0  0  0  0  0  0  0
    0.3545   66.9168   70.9925 H   0  0  0  0  0  0  0  0  0  0  0  0
   -0.9769   65.7428   70.4921 H   0  0  0  0  0  0  0  0  0  0  0  0
    0.6569   67.5411   68.8836 H   0  0  0  0  0  0  0  0  0  0  0  0
    0.6239   65.7851   68.3210 H   0  0  0  0  0  0  0  0  0  0  0  0
   -1.5234   65.8500   67.7157 H   0  0  0  0  0  0  0  0  0  0  0  0
   -1.9352   67.1112   68.9850 H   0  0  0  0  0  0  0  0  0  0  0  0
   -1.6424   67.4800   66.2044 H   0  0  0  0  0  0  0  0  0  0  0  0
   -1.8705   68.7164   67.5160 H   0  0  0  0  0  0  0  0  0  0  0  0
    0.6030   68.8535   67.6682 H   0  0  0  0  0  0  0  0  0  0  0  0
    6.1000   70.5730   70.0598 H   0  0  0  0  0  0  0  0  0  0  0  0
    7.6902   70.6098   69.2253 H   0  0  0  0  0  0  0  0  0  0  0  0
    6.6420   72.0685   69.2253 H   0  0  0  0  0  0  0  0  0  0  0  0
    7.7418   70.8837   66.6957 H   0  0  0  0  0  0  0  0  0  0  0  0
    6.6354   70.1468   64.5790 H   0  0  0  0  0  0  0  0  0  0  0  0
    4.0955   70.0633   68.8822 H   0  0  0  0  0  0  0  0  0  0  0  0
    2.0731   69.1833   67.6527 H   0  0  0  0  0  0  0  0  0  0  0  0
    1.8692   64.9708   70.0707 H   0  0  0  0  0  0  0  0  0  0  0  0
    1.1171   64.9227   71.7534 H   0  0  0  0  0  0  0  0  0  0  0  0
   -0.4877   63.6375   69.6709 H   0  0  0  0  0  0  0  0  0  0  0  0
    1.1521   62.8771   70.0028 H   0  0  0  0  0  0  0  0  0  0  0  0
   -1.0900   63.3342   72.0036 H   0  0  0  0  0  0  0  0  0  0  0  0
   -0.5137   61.7636   71.3403 H   0  0  0  0  0  0  0  0  0  0  0  0
    0.9887   63.4641   73.3576 H   0  0  0  0  0  0  0  0  0  0  0  0
   -0.6535   61.2009   74.2179 H   0  0  0  0  0  0  0  0  0  0  0  0
   -1.1160   60.3394   72.6689 H   0  0  0  0  0  0  0  0  0  0  0  0
   -0.4636   59.1296   75.3710 H   0  0  0  0  0  0  0  0  0  0  0  0
   -1.9935   59.0317   74.4197 H   0  0  0  0  0  0  0  0  0  0  0  0
   -0.7189   56.9345   74.2281 H   0  0  0  0  0  0  0  0  0  0  0  0
   -0.7953   57.7833   72.6441 H   0  0  0  0  0  0  0  0  0  0  0  0
    1.5260   57.6787   74.6166 H   0  0  0  0  0  0  0  0  0  0  0  0
    1.4413   57.0528   72.9042 H   0  0  0  0  0  0  0  0  0  0  0  0
    3.0950   63.5416   71.5554 H   0  0  0  0  0  0  0  0  0  0  0  0
    5.4294   63.3152   70.7269 H   0  0  0  0  0  0  0  0  0  0  0  0
    6.5574   61.0904   70.8032 H   0  0  0  0  0  0  0  0  0  0  0  0
    5.3444   59.1250   71.7116 H   0  0  0  0  0  0  0  0  0  0  0  0
  2  1  1  0
  3  2  1  0
  4  3  1  0
  6  5  2  0
  7  4  1  0
  7  5  1  0
  9  8  1  0
 10  9  2  0
 11 10  1  0
 12 11  2  0
 13 12  1  0
 14 13  2  0
 14  9  1  0
 15 13  1  0
 16 15  2  0
 16  5  1  0
 17 16  1  0
 18 17  2  0
 19 17  1  0
 19 12  1  0
 20  1  1  0
 21 20  1  0
 22 21  1  0
 23 22  1  0
 24 23  1  0
 25 24  1  0
 26 25  1  0
 27 26  1  0
 28 27  1  0
 29 28  1  0
 30 29  1  0
 30 25  2  0
 31 30  1  0
 32 31  2  0
 33 32  1  0
 33 24  2  0
 34 33  1  0
 35 34  2  0
 36 35  1  0
 37 32  1  0
 37 36  2  0
  1 38  1  0
  1 39  1  0
  2 40  1  0
  2 41  1  0
  3 42  1  0
  3 43  1  0
  4 44  1  0
  4 45  1  0
  7 46  1  0
  8 47  1  0
  8 48  1  0
  8 49  1  0
 10 50  1  0
 11 51  1  0
 14 52  1  0
 15 53  1  0
 20 54  1  0
 20 55  1  0
 21 56  1  0
 21 57  1  0
 22 58  1  0
 22 59  1  0
 23 60  1  0
 26 61  1  0
 26 62  1  0
 27 63  1  0
 27 64  1  0
 28 65  1  0
 28 66  1  0
 29 67  1  0
 29 68  1  0
 34 69  1  0
 35 70  1  0
 36 71  1  0
 37 72  1  0
M  END
>  <score>  (4) 
-11.888

$$$$
=
     RDKit          3D

 72 76  0  0  0  0  0  0  0  0999 V2000
   -1.0810   67.9060   66.3180 C   0  0  0  0  0  0  0  0  0  0  0  0
   -2.2730   67.5020   67.1910 C   0  0  0  0  0  0  0  0  0  0  0  0
   -1.9550   66.5500   68.3500 C   0  0  0  0  0  0  0  0  0  0  0  0
   -0.5090   66.5990   68.8370 C   0  0  0  0  0  0  0  0  0  0  0  0
    0.1250   65.1530   70.7310 C   0  0  0  0  0  0  0  0  0  0  0  0
   -0.1550   66.0160   71.5600 O   0  0  0  0  0  0  0  0  0  0  0  0
   -0.0740   65.3320   69.3850 N   0  0  0  0  0  0  0  0  0  0  0  0
   -0.8150   58.6490   74.1990 C   0  0  0  0  0  0  0  0  0  0  0  0
    0.0480   59.5750   73.3930 C   0  0  0  0  0  0  0  0  0  0  0  0
    1.3670   59.2180   73.0800 C   0  0  0  0  0  0  0  0  0  0  0  0
    2.1820   60.0910   72.3580 C   0  0  0  0  0  0  0  0  0  0  0  0
    1.6710   61.3240   71.9630 C   0  0  0  0  0  0  0  0  0  0  0  0
    0.3730   61.7090   72.2720 C   0  0  0  0  0  0  0  0  0  0  0  0
   -0.4390   60.8310   72.9950 C   0  0  0  0  0  0  0  0  0  0  0  0
   -0.0940   63.0120   71.8330 C   0  0  0  0  0  0  0  0  0  0  0  0
    0.7100   63.8360   71.1400 C   0  0  0  0  0  0  0  0  0  0  0  0
    2.0980   63.4340   70.8160 C   0  0  0  0  0  0  0  0  0  0  0  0
    2.8610   64.1730   70.1970 O   0  0  0  0  0  0  0  0  0  0  0  0
    2.5200   62.1780   71.2400 O   0  0  0  0  0  0  0  0  0  0  0  0
   -0.6760   69.3830   66.3880 C   0  0  0  0  0  0  0  0  0  0  0  0
   -0.1700   69.8670   67.7510 C   0  0  0  0  0  0  0  0  0  0  0  0
    1.3290   70.1780   67.8080 C   0  0  0  0  0  0  0  0  0  0  0  0
    2.1030   68.9830   67.4370 N   0  0  0  0  0  0  0  0  0  0  0  0
    3.3050   69.3300   66.7460 C   0  0  0  0  0  0  0  0  0  0  0  0
    3.4080   69.0200   65.3760 C   0  0  0  0  0  0  0  0  0  0  0  0
    2.2290   68.4740   64.6070 C   0  0  0  0  0  0  0  0  0  0  0  0
    2.5850   67.9210   63.2290 C   0  0  0  0  0  0  0  0  0  0  0  0
    3.5070   68.8810   62.4910 C   0  0  0  0  0  0  0  0  0  0  0  0
    4.8100   69.0410   63.2630 C   0  0  0  0  0  0  0  0  0  0  0  0
    4.6020   69.3360   64.7270 C   0  0  0  0  0  0  0  0  0  0  0  0
    5.6670   69.8830   65.3590 N   0  0  0  0  0  0  0  0  0  0  0  0
    5.5730   70.1650   66.6650 C   0  0  0  0  0  0  0  0  0  0  0  0
    4.4140   69.9120   67.4260 C   0  0  0  0  0  0  0  0  0  0  0  0
    4.4270   70.2540   68.8050 C   0  0  0  0  0  0  0  0  0  0  0  0
    5.5510   70.8230   69.4050 C   0  0  0  0  0  0  0  0  0  0  0  0
    6.6820   71.0640   68.6400 C   0  0  0  0  0  0  0  0  0  0  0  0
    6.6790   70.7330   67.2850 C   0  0  0  0  0  0  0  0  0  0  0  0
   -0.2150   67.3030   66.6285 H   0  0  0  0  0  0  0  0  0  0  0  0
   -1.3972   67.7307   65.2791 H   0  0  0  0  0  0  0  0  0  0  0  0
   -2.7069   68.4191   67.6161 H   0  0  0  0  0  0  0  0  0  0  0  0
   -2.9568   66.9508   66.5288 H   0  0  0  0  0  0  0  0  0  0  0  0
   -2.6102   66.8081   69.1951 H   0  0  0  0  0  0  0  0  0  0  0  0
   -2.1205   65.5312   67.9697 H   0  0  0  0  0  0  0  0  0  0  0  0
    0.1417   66.8606   67.9895 H   0  0  0  0  0  0  0  0  0  0  0  0
   -0.4470   67.3521   69.6364 H   0  0  0  0  0  0  0  0  0  0  0  0
    0.0911   64.5413   68.7459 H   0  0  0  0  0  0  0  0  0  0  0  0
   -0.6461   58.8302   75.2707 H   0  0  0  0  0  0  0  0  0  0  0  0
   -1.8728   58.8313   73.9585 H   0  0  0  0  0  0  0  0  0  0  0  0
   -0.5587   57.6066   73.9585 H   0  0  0  0  0  0  0  0  0  0  0  0
    1.7619   58.2442   73.4053 H   0  0  0  0  0  0  0  0  0  0  0  0
    3.2144   59.8085   72.1045 H   0  0  0  0  0  0  0  0  0  0  0  0
   -1.4667   61.1255   73.2542 H   0  0  0  0  0  0  0  0  0  0  0  0
   -1.1201   63.3289   72.0710 H   0  0  0  0  0  0  0  0  0  0  0  0
    0.1237   69.5499   65.6514 H   0  0  0  0  0  0  0  0  0  0  0  0
   -1.5929   69.9563   66.1866 H   0  0  0  0  0  0  0  0  0  0  0  0
   -0.7195   70.7829   68.0141 H   0  0  0  0  0  0  0  0  0  0  0  0
   -0.3410   69.0398   68.4556 H   0  0  0  0  0  0  0  0  0  0  0  0
    1.5591   70.9938   67.1069 H   0  0  0  0  0  0  0  0  0  0  0  0
    1.5975   70.4801   68.8311 H   0  0  0  0  0  0  0  0  0  0  0  0
    1.8147   68.0171   67.6488 H   0  0  0  0  0  0  0  0  0  0  0  0
    1.7765   67.6640   65.1978 H   0  0  0  0  0  0  0  0  0  0  0  0
    1.5405   69.3159   64.4425 H   0  0  0  0  0  0  0  0  0  0  0  0
    3.0917   66.9519   63.3478 H   0  0  0  0  0  0  0  0  0  0  0  0
    1.6605   67.7968   62.6459 H   0  0  0  0  0  0  0  0  0  0  0  0
    3.7229   68.4822   61.4889 H   0  0  0  0  0  0  0  0  0  0  0  0
    3.0150   69.8608   62.4019 H   0  0  0  0  0  0  0  0  0  0  0  0
    5.3862   68.1083   63.1730 H   0  0  0  0  0  0  0  0  0  0  0  0
    5.3428   69.9001   62.8294 H   0  0  0  0  0  0  0  0  0  0  0  0
    3.5303   70.0659   69.4137 H   0  0  0  0  0  0  0  0  0  0  0  0
    5.5399   71.0780   70.4750 H   0  0  0  0  0  0  0  0  0  0  0  0
    7.5754   71.5131   69.0985 H   0  0  0  0  0  0  0  0  0  0  0  0
    7.5819   70.9281   66.6877 H   0  0  0  0  0  0  0  0  0  0  0  0
  2  1  1  0
  3  2  1  0
  4  3  1  0
  6  5  2  0
  7  4  1  0
  7  5  1  0
  9  8  1  0
 10  9  2  0
 11 10  1  0
 12 11  2  0
 13 12  1  0
 14 13  2  0
 14  9  1  0
 15 13  1  0
 16 15  2  0
 16  5  1  0
 17 16  1  0
 18 17  2  0
 19 17  1  0
 19 12  1  0
 20  1  1  0
 21 20  1  0
 22 21  1  0
 23 22  1  0
 24 23  1  0
 25 24  1  0
 26 25  1  0
 27 26  1  0
 28 27  1  0
 29 28  1  0
 30 29  1  0
 30 25  2  0
 31 30  1  0
 32 31  2  0
 33 32  1  0
 33 24  2  0
 34 33  1  0
 35 34  2  0
 36 35  1  0
 37 32  1  0
 37 36  2  0
  1 38  1  0
  1 39  1  0
  2 40  1  0
  2 41  1  0
  3 42  1  0
  3 43  1  0
  4 44  1  0
  4 45  1  0
  7 46  1  0
  8 47  1  0
  8 48  1  0
  8 49  1  0
 10 50  1  0
 11 51  1  0
 14 52  1  0
 15 53  1  0
 20 54  1  0
 20 55  1  0
 21 56  1  0
 21 57  1  0
 22 58  1  0
 22 59  1  0
 23 60  1  0
 26 61  1  0
 26 62  1  0
 27 63  1  0
 27 64  1  0
 28 65  1  0
 28 66  1  0
 29 67  1  0
 29 68  1  0
 34 69  1  0
 35 70  1  0
 36 71  1  0
 37 72  1  0
M  END
>  <score>  (5) 
-11.857

$$$$
=
     RDKit          3D

 72 76  0  0  0  0  0  0  0  0999 V2000
    0.5340   67.3850   68.5640 C   0  0  0  0  0  0  0  0  0  0  0  0
   -0.7200   66.8970   67.8330 C   0  0  0  0  0  0  0  0  0  0  0  0
   -1.6370   67.9950   67.2820 C   0  0  0  0  0  0  0  0  0  0  0  0
   -1.3090   68.4480   65.8620 C   0  0  0  0  0  0  0  0  0  0  0  0
    1.0280   68.2050   65.1120 C   0  0  0  0  0  0  0  0  0  0  0  0
    0.7910   67.1550   64.5200 O   0  0  0  0  0  0  0  0  0  0  0  0
    0.0500   68.9320   65.7430 N   0  0  0  0  0  0  0  0  0  0  0  0
    6.4810   70.9660   69.3360 C   0  0  0  0  0  0  0  0  0  0  0  0
    5.9750   70.5400   67.9890 C   0  0  0  0  0  0  0  0  0  0  0  0
    6.7730   70.7070   66.8480 C   0  0  0  0  0  0  0  0  0  0  0  0
    6.2920   70.3410   65.5910 C   0  0  0  0  0  0  0  0  0  0  0  0
    5.0070   69.8180   65.4840 C   0  0  0  0  0  0  0  0  0  0  0  0
    4.1890   69.6560   66.5940 C   0  0  0  0  0  0  0  0  0  0  0  0
    4.6760   70.0240   67.8520 C   0  0  0  0  0  0  0  0  0  0  0  0
    2.8560   69.1090   66.4100 C   0  0  0  0  0  0  0  0  0  0  0  0
    2.4150   68.7650   65.1880 C   0  0  0  0  0  0  0  0  0  0  0  0
    3.2790   68.9450   63.9990 C   0  0  0  0  0  0  0  0  0  0  0  0
    2.8970   68.6540   62.8680 O   0  0  0  0  0  0  0  0  0  0  0  0
    4.5540   69.4630   64.2020 O   0  0  0  0  0  0  0  0  0  0  0  0
    0.8520   66.6760   69.8850 C   0  0  0  0  0  0  0  0  0  0  0  0
   -0.1210   65.5650   70.2920 C   0  0  0  0  0  0  0  0  0  0  0  0
    0.4340   64.5650   71.3110 C   0  0  0  0  0  0  0  0  0  0  0  0
    0.1980   63.1900   70.8420 N   0  0  0  0  0  0  0  0  0  0  0  0
    0.9850   62.2440   71.5700 C   0  0  0  0  0  0  0  0  0  0  0  0
    2.3670   62.1750   71.3080 C   0  0  0  0  0  0  0  0  0  0  0  0
    3.0410   63.1720   70.3960 C   0  0  0  0  0  0  0  0  0  0  0  0
    4.4620   62.7850   69.9910 C   0  0  0  0  0  0  0  0  0  0  0  0
    5.2530   62.3120   71.2020 C   0  0  0  0  0  0  0  0  0  0  0  0
    4.5970   61.0700   71.7920 C   0  0  0  0  0  0  0  0  0  0  0  0
    3.1130   61.2240   72.0050 C   0  0  0  0  0  0  0  0  0  0  0  0
    2.5640   60.3480   72.8790 N   0  0  0  0  0  0  0  0  0  0  0  0
    1.2470   60.4060   73.1180 C   0  0  0  0  0  0  0  0  0  0  0  0
    0.3920   61.3340   72.4930 C   0  0  0  0  0  0  0  0  0  0  0  0
   -0.9890   61.3050   72.8230 C   0  0  0  0  0  0  0  0  0  0  0  0
   -1.5010   60.3840   73.7380 C   0  0  0  0  0  0  0  0  0  0  0  0
   -0.6440   59.4770   74.3420 C   0  0  0  0  0  0  0  0  0  0  0  0
    0.7150   59.4990   74.0260 C   0  0  0  0  0  0  0  0  0  0  0  0
    1.3929   67.2464   67.8909 H   0  0  0  0  0  0  0  0  0  0  0  0
    0.3379   68.4349   68.8271 H   0  0  0  0  0  0  0  0  0  0  0  0
   -0.3968   66.2709   66.9882 H   0  0  0  0  0  0  0  0  0  0  0  0
   -1.3152   66.3582   68.5849 H   0  0  0  0  0  0  0  0  0  0  0  0
   -2.6693   67.6152   67.2905 H   0  0  0  0  0  0  0  0  0  0  0  0
   -1.4930   68.8730   67.9288 H   0  0  0  0  0  0  0  0  0  0  0  0
   -1.4430   67.5965   65.1786 H   0  0  0  0  0  0  0  0  0  0  0  0
   -1.9862   69.2764   65.6067 H   0  0  0  0  0  0  0  0  0  0  0  0
    0.2902   69.8498   66.1441 H   0  0  0  0  0  0  0  0  0  0  0  0
    5.8925   70.4705   70.1222 H   0  0  0  0  0  0  0  0  0  0  0  0
    7.5391   70.6828   69.4366 H   0  0  0  0  0  0  0  0  0  0  0  0
    6.3823   72.0569   69.4366 H   0  0  0  0  0  0  0  0  0  0  0  0
    7.7842   71.1291   66.9449 H   0  0  0  0  0  0  0  0  0  0  0  0
    6.9200   70.4641   64.6963 H   0  0  0  0  0  0  0  0  0  0  0  0
    4.0375   69.9086   68.7402 H   0  0  0  0  0  0  0  0  0  0  0  0
    2.1991   68.9746   67.2820 H   0  0  0  0  0  0  0  0  0  0  0  0
    1.8547   66.2323   69.7979 H   0  0  0  0  0  0  0  0  0  0  0  0
    0.7723   67.4463   70.6662 H   0  0  0  0  0  0  0  0  0  0  0  0
   -1.0150   66.0357   70.7268 H   0  0  0  0  0  0  0  0  0  0  0  0
   -0.3333   64.9900   69.3786 H   0  0  0  0  0  0  0  0  0  0  0  0
    1.5150   64.7289   71.4316 H   0  0  0  0  0  0  0  0  0  0  0  0
   -0.0737   64.7111   72.2758 H   0  0  0  0  0  0  0  0  0  0  0  0
   -0.4530   62.9404   70.0838 H   0  0  0  0  0  0  0  0  0  0  0  0
    2.4357   63.2689   69.4826 H   0  0  0  0  0  0  0  0  0  0  0  0
    3.1167   64.1149   70.9574 H   0  0  0  0  0  0  0  0  0  0  0  0
    4.4184   61.9746   69.2484 H   0  0  0  0  0  0  0  0  0  0  0  0
    4.9616   63.6664   69.5627 H   0  0  0  0  0  0  0  0  0  0  0  0
    6.2816   62.0713   70.8954 H   0  0  0  0  0  0  0  0  0  0  0  0
    5.2698   63.1093   71.9596 H   0  0  0  0  0  0  0  0  0  0  0  0
    4.7657   60.2268   71.1061 H   0  0  0  0  0  0  0  0  0  0  0  0
    5.0518   60.8988   72.7788 H   0  0  0  0  0  0  0  0  0  0  0  0
   -1.6707   62.0249   72.3465 H   0  0  0  0  0  0  0  0  0  0  0  0
   -2.5745   60.3778   73.9777 H   0  0  0  0  0  0  0  0  0  0  0  0
   -1.0326   58.7450   75.0653 H   0  0  0  0  0  0  0  0  0  0  0  0
    1.3864   58.7752   74.5112 H   0  0  0  0  0  0  0  0  0  0  0  0
  2  1  1  0
  3  2  1  0
  4  3  1  0
  6  5  2  0
  7  4  1  0
  7  5  1  0
  9  8  1  0
 10  9  2  0
 11 10  1  0
 12 11  2  0
 13 12  1  0
 14 13  2  0
 14  9  1  0
 15 13  1  0
 16 15  2  0
 16  5  1  0
 17 16  1  0
 18 17  2  0
 19 17  1  0
 19 12  1  0
 20  1  1  0
 21 20  1  0
 22 21  1  0
 23 22  1  0
 24 23  1  0
 25 24  1  0
 26 25  1  0
 27 26  1  0
 28 27  1  0
 29 28  1  0
 30 29  1  0
 30 25  2  0
 31 30  1  0
 32 31  2  0
 33 32  1  0
 33 24  2  0
 34 33  1  0
 35 34  2  0
 36 35  1  0
 37 32  1  0
 37 36  2  0
  1 38  1  0
  1 39  1  0
  2 40  1  0
  2 41  1  0
  3 42  1  0
  3 43  1  0
  4 44  1  0
  4 45  1  0
  7 46  1  0
  8 47  1  0
  8 48  1  0
  8 49  1  0
 10 50  1  0
 11 51  1  0
 14 52  1  0
 15 53  1  0
 20 54  1  0
 20 55  1  0
 21 56  1  0
 21 57  1  0
 22 58  1  0
 22 59  1  0
 23 60  1  0
 26 61  1  0
 26 62  1  0
 27 63  1  0
 27 64  1  0
 28 65  1  0
 28 66  1  0
 29 67  1  0
 29 68  1  0
 34 69  1  0
 35 70  1  0
 36 71  1  0
 37 72  1  0
M  END
>  <score>  (6) 
-11.801

$$$$
=
     RDKit          3D

 72 76  0  0  0  0  0  0  0  0999 V2000
    1.5120   66.3490   69.8810 C   0  0  0  0  0  0  0  0  0  0  0  0
    0.3950   65.6350   70.6460 C   0  0  0  0  0  0  0  0  0  0  0  0
    0.3970   64.1040   70.5510 C   0  0  0  0  0  0  0  0  0  0  0  0
    1.7660   63.4560   70.7430 C   0  0  0  0  0  0  0  0  0  0  0  0
    1.6290   61.6260   72.3910 C   0  0  0  0  0  0  0  0  0  0  0  0
    1.5760   62.4060   73.3400 O   0  0  0  0  0  0  0  0  0  0  0  0
    1.6630   62.0540   71.0870 N   0  0  0  0  0  0  0  0  0  0  0  0
   -1.6970   55.5710   75.1240 C   0  0  0  0  0  0  0  0  0  0  0  0
   -0.5570   56.1960   74.3720 C   0  0  0  0  0  0  0  0  0  0  0  0
    0.5120   55.4080   73.9250 C   0  0  0  0  0  0  0  0  0  0  0  0
    1.5870   55.9920   73.2550 C   0  0  0  0  0  0  0  0  0  0  0  0
    1.5880   57.3670   73.0470 C   0  0  0  0  0  0  0  0  0  0  0  0
    0.5490   58.1740   73.4920 C   0  0  0  0  0  0  0  0  0  0  0  0
   -0.5260   57.5840   74.1620 C   0  0  0  0  0  0  0  0  0  0  0  0
    0.6170   59.6040   73.2450 C   0  0  0  0  0  0  0  0  0  0  0  0
    1.6640   60.1430   72.5980 C   0  0  0  0  0  0  0  0  0  0  0  0
    2.7790   59.2890   72.1290 C   0  0  0  0  0  0  0  0  0  0  0  0
    3.7560   59.7560   71.5500 O   0  0  0  0  0  0  0  0  0  0  0  0
    2.6880   57.9220   72.3710 O   0  0  0  0  0  0  0  0  0  0  0  0
    1.0840   67.5800   69.0740 C   0  0  0  0  0  0  0  0  0  0  0  0
    0.5140   67.2940   67.6810 C   0  0  0  0  0  0  0  0  0  0  0  0
    1.4840   67.5520   66.5230 C   0  0  0  0  0  0  0  0  0  0  0  0
    1.7010   68.9990   66.3640 N   0  0  0  0  0  0  0  0  0  0  0  0
    3.0610   69.2940   66.0380 C   0  0  0  0  0  0  0  0  0  0  0  0
    3.8890   69.8420   67.0360 C   0  0  0  0  0  0  0  0  0  0  0  0
    3.4110   69.9780   68.4620 C   0  0  0  0  0  0  0  0  0  0  0  0
    4.3070   70.8490   69.3400 C   0  0  0  0  0  0  0  0  0  0  0  0
    5.7710   70.4870   69.1340 C   0  0  0  0  0  0  0  0  0  0  0  0
    6.1670   70.7470   67.6860 C   0  0  0  0  0  0  0  0  0  0  0  0
    5.2040   70.1540   66.6900 C   0  0  0  0  0  0  0  0  0  0  0  0
    5.6990   69.9930   65.4390 N   0  0  0  0  0  0  0  0  0  0  0  0
    4.9060   69.4830   64.4870 C   0  0  0  0  0  0  0  0  0  0  0  0
    3.5670   69.1110   64.7180 C   0  0  0  0  0  0  0  0  0  0  0  0
    2.8200   68.5810   63.6330 C   0  0  0  0  0  0  0  0  0  0  0  0
    3.3820   68.4290   62.3660 C   0  0  0  0  0  0  0  0  0  0  0  0
    4.7010   68.8020   62.1570 C   0  0  0  0  0  0  0  0  0  0  0  0
    5.4440   69.3230   63.2160 C   0  0  0  0  0  0  0  0  0  0  0  0
    2.2696   66.6702   70.6110 H   0  0  0  0  0  0  0  0  0  0  0  0
    1.8827   65.6215   69.1438 H   0  0  0  0  0  0  0  0  0  0  0  0
    0.4848   65.9078   71.7078 H   0  0  0  0  0  0  0  0  0  0  0  0
   -0.5454   65.9631   70.1790 H   0  0  0  0  0  0  0  0  0  0  0  0
   -0.2796   63.7116   71.3244 H   0  0  0  0  0  0  0  0  0  0  0  0
    0.0754   63.8551   69.5289 H   0  0  0  0  0  0  0  0  0  0  0  0
    2.3371   63.5504   69.8076 H   0  0  0  0  0  0  0  0  0  0  0  0
    2.2706   63.9716   71.5734 H   0  0  0  0  0  0  0  0  0  0  0  0
    1.6137   61.3564   70.3308 H   0  0  0  0  0  0  0  0  0  0  0  0
   -1.5200   55.6680   76.2053 H   0  0  0  0  0  0  0  0  0  0  0  0
   -2.6347   56.0812   74.8587 H   0  0  0  0  0  0  0  0  0  0  0  0
   -1.7712   54.5060   74.8587 H   0  0  0  0  0  0  0  0  0  0  0  0
    0.5034   54.3226   74.1035 H   0  0  0  0  0  0  0  0  0  0  0  0
    2.4227   55.3733   72.8960 H   0  0  0  0  0  0  0  0  0  0  0  0
   -1.3530   58.2107   74.5271 H   0  0  0  0  0  0  0  0  0  0  0  0
   -0.1995   60.2541   73.5923 H   0  0  0  0  0  0  0  0  0  0  0  0
    0.3140   68.1123   69.6518 H   0  0  0  0  0  0  0  0  0  0  0  0
    2.0009   68.1650   68.9092 H   0  0  0  0  0  0  0  0  0  0  0  0
    0.2124   66.2367   67.6454 H   0  0  0  0  0  0  0  0  0  0  0  0
   -0.3259   67.9905   67.5417 H   0  0  0  0  0  0  0  0  0  0  0  0
    2.4448   67.0603   66.7356 H   0  0  0  0  0  0  0  0  0  0  0  0
    1.0558   67.1459   65.5947 H   0  0  0  0  0  0  0  0  0  0  0  0
    0.9644   69.7105   66.4740 H   0  0  0  0  0  0  0  0  0  0  0  0
    2.4046   70.4218   68.4481 H   0  0  0  0  0  0  0  0  0  0  0  0
    3.4244   68.9684   68.8985 H   0  0  0  0  0  0  0  0  0  0  0  0
    4.1550   71.9060   69.0759 H   0  0  0  0  0  0  0  0  0  0  0  0
    4.0440   70.6795   70.3946 H   0  0  0  0  0  0  0  0  0  0  0  0
    6.3962   71.1004   69.7995 H   0  0  0  0  0  0  0  0  0  0  0  0
    5.9183   69.4218   69.3656 H   0  0  0  0  0  0  0  0  0  0  0  0
    6.2101   71.8344   67.5255 H   0  0  0  0  0  0  0  0  0  0  0  0
    7.1425   70.2655   67.5231 H   0  0  0  0  0  0  0  0  0  0  0  0
    1.7736   68.2834   63.7958 H   0  0  0  0  0  0  0  0  0  0  0  0
    2.7843   68.0168   61.5396 H   0  0  0  0  0  0  0  0  0  0  0  0
    5.1581   68.6878   61.1630 H   0  0  0  0  0  0  0  0  0  0  0  0
    6.4893   69.6166   63.0394 H   0  0  0  0  0  0  0  0  0  0  0  0
  2  1  1  0
  3  2  1  0
  4  3  1  0
  6  5  2  0
  7  4  1  0
  7  5  1  0
  9  8  1  0
 10  9  2  0
 11 10  1  0
 12 11  2  0
 13 12  1  0
 14 13  2  0
 14  9  1  0
 15 13  1  0
 16 15  2  0
 16  5  1  0
 17 16  1  0
 18 17  2  0
 19 17  1  0
 19 12  1  0
 20  1  1  0
 21 20  1  0
 22 21  1  0
 23 22  1  0
 24 23  1  0
 25 24  1  0
 26 25  1  0
 27 26  1  0
 28 27  1  0
 29 28  1  0
 30 29  1  0
 30 25  2  0
 31 30  1  0
 32 31  2  0
 33 32  1  0
 33 24  2  0
 34 33  1  0
 35 34  2  0
 36 35  1  0
 37 32  1  0
 37 36  2  0
  1 38  1  0
  1 39  1  0
  2 40  1  0
  2 41  1  0
  3 42  1  0
  3 43  1  0
  4 44  1  0
  4 45  1  0
  7 46  1  0
  8 47  1  0
  8 48  1  0
  8 49  1  0
 10 50  1  0
 11 51  1  0
 14 52  1  0
 15 53  1  0
 20 54  1  0
 20 55  1  0
 21 56  1  0
 21 57  1  0
 22 58  1  0
 22 59  1  0
 23 60  1  0
 26 61  1  0
 26 62  1  0
 27 63  1  0
 27 64  1  0
 28 65  1  0
 28 66  1  0
 29 67  1  0
 29 68  1  0
 34 69  1  0
 35 70  1  0
 36 71  1  0
 37 72  1  0
M  END
>  <score>  (7) 
-11.69

$$$$
=
     RDKit          3D

 72 76  0  0  0  0  0  0  0  0999 V2000
    4.2270   63.9160   64.4090 C   0  0  0  0  0  0  0  0  0  0  0  0
    3.7260   64.2120   65.8250 C   0  0  0  0  0  0  0  0  0  0  0  0
    3.7590   63.0310   66.8020 C   0  0  0  0  0  0  0  0  0  0  0  0
    3.9030   63.4220   68.2710 C   0  0  0  0  0  0  0  0  0  0  0  0
    2.6050   63.0070   70.3260 C   0  0  0  0  0  0  0  0  0  0  0  0
    2.6480   64.1870   70.6630 O   0  0  0  0  0  0  0  0  0  0  0  0
    3.1390   62.5570   69.1440 N   0  0  0  0  0  0  0  0  0  0  0  0
   -3.2850   60.9380   74.3550 C   0  0  0  0  0  0  0  0  0  0  0  0
   -1.9240   60.6340   73.7980 C   0  0  0  0  0  0  0  0  0  0  0  0
   -1.2790   59.4330   74.1230 C   0  0  0  0  0  0  0  0  0  0  0  0
   -0.0020   59.1630   73.6320 C   0  0  0  0  0  0  0  0  0  0  0  0
    0.6260   60.1060   72.8240 C   0  0  0  0  0  0  0  0  0  0  0  0
    0.0160   61.3100   72.4980 C   0  0  0  0  0  0  0  0  0  0  0  0
   -1.2640   61.5750   72.9920 C   0  0  0  0  0  0  0  0  0  0  0  0
    0.7310   62.2510   71.6530 C   0  0  0  0  0  0  0  0  0  0  0  0
    1.9610   61.9690   71.1930 C   0  0  0  0  0  0  0  0  0  0  0  0
    2.6200   60.6900   71.5460 C   0  0  0  0  0  0  0  0  0  0  0  0
    3.7510   60.4120   71.1530 O   0  0  0  0  0  0  0  0  0  0  0  0
    1.9130   59.8010   72.3490 O   0  0  0  0  0  0  0  0  0  0  0  0
    4.5330   65.1420   63.5420 C   0  0  0  0  0  0  0  0  0  0  0  0
    3.8010   66.4300   63.9340 C   0  0  0  0  0  0  0  0  0  0  0  0
    4.7120   67.6340   64.1950 C   0  0  0  0  0  0  0  0  0  0  0  0
    3.9160   68.8710   64.2100 N   0  0  0  0  0  0  0  0  0  0  0  0
    3.4420   69.1750   65.5240 C   0  0  0  0  0  0  0  0  0  0  0  0
    4.3570   69.6770   66.4700 C   0  0  0  0  0  0  0  0  0  0  0  0
    5.7710   70.0340   66.0780 C   0  0  0  0  0  0  0  0  0  0  0  0
    6.7040   70.2790   67.2620 C   0  0  0  0  0  0  0  0  0  0  0  0
    6.0300   71.1660   68.2980 C   0  0  0  0  0  0  0  0  0  0  0  0
    4.7850   70.4730   68.8390 C   0  0  0  0  0  0  0  0  0  0  0  0
    3.8830   69.9380   67.7560 C   0  0  0  0  0  0  0  0  0  0  0  0
    2.6090   69.6920   68.1400 N   0  0  0  0  0  0  0  0  0  0  0  0
    1.7420   69.2030   67.2430 C   0  0  0  0  0  0  0  0  0  0  0  0
    2.0950   68.9180   65.9090 C   0  0  0  0  0  0  0  0  0  0  0  0
    1.0930   68.4020   65.0440 C   0  0  0  0  0  0  0  0  0  0  0  0
   -0.2090   68.1750   65.4900 C   0  0  0  0  0  0  0  0  0  0  0  0
   -0.5370   68.4600   66.8070 C   0  0  0  0  0  0  0  0  0  0  0  0
    0.4400   68.9680   67.6640 C   0  0  0  0  0  0  0  0  0  0  0  0
    5.1499   63.3235   64.4941 H   0  0  0  0  0  0  0  0  0  0  0  0
    3.4037   63.3897   63.9038 H   0  0  0  0  0  0  0  0  0  0  0  0
    4.3508   65.0147   66.2437 H   0  0  0  0  0  0  0  0  0  0  0  0
    2.6653   64.4827   65.7174 H   0  0  0  0  0  0  0  0  0  0  0  0
    2.8222   62.4658   66.6881 H   0  0  0  0  0  0  0  0  0  0  0  0
    4.6530   62.4426   66.5480 H   0  0  0  0  0  0  0  0  0  0  0  0
    4.9648   63.3602   68.5517 H   0  0  0  0  0  0  0  0  0  0  0  0
    3.5172   64.4455   68.3875 H   0  0  0  0  0  0  0  0  0  0  0  0
    2.9915   61.5750   68.8706 H   0  0  0  0  0  0  0  0  0  0  0  0
   -3.2419   60.9284   75.4541 H   0  0  0  0  0  0  0  0  0  0  0  0
   -3.6092   61.9307   74.0095 H   0  0  0  0  0  0  0  0  0  0  0  0
   -4.0008   60.1776   74.0095 H   0  0  0  0  0  0  0  0  0  0  0  0
   -1.7829   58.6991   74.7691 H   0  0  0  0  0  0  0  0  0  0  0  0
    0.5021   58.2173   73.8801 H   0  0  0  0  0  0  0  0  0  0  0  0
   -1.7577   62.5272   72.7477 H   0  0  0  0  0  0  0  0  0  0  0  0
    0.2584   63.2078   71.3862 H   0  0  0  0  0  0  0  0  0  0  0  0
    5.6142   65.3362   63.6001 H   0  0  0  0  0  0  0  0  0  0  0  0
    4.1797   64.8911   62.5309 H   0  0  0  0  0  0  0  0  0  0  0  0
    3.1115   66.6933   63.1184 H   0  0  0  0  0  0  0  0  0  0  0  0
    3.2892   66.2178   64.8843 H   0  0  0  0  0  0  0  0  0  0  0  0
    5.2110   67.5097   65.1674 H   0  0  0  0  0  0  0  0  0  0  0  0
    5.4651   67.6980   63.3958 H   0  0  0  0  0  0  0  0  0  0  0  0
    3.7241   69.4464   63.3775 H   0  0  0  0  0  0  0  0  0  0  0  0
    6.1824   69.2079   65.4793 H   0  0  0  0  0  0  0  0  0  0  0  0
    5.7155   70.9788   65.5174 H   0  0  0  0  0  0  0  0  0  0  0  0
    6.9627   69.3150   67.7243 H   0  0  0  0  0  0  0  0  0  0  0  0
    7.6126   70.7825   66.9002 H   0  0  0  0  0  0  0  0  0  0  0  0
    6.7295   71.3581   69.1249 H   0  0  0  0  0  0  0  0  0  0  0  0
    5.7409   72.1179   67.8285 H   0  0  0  0  0  0  0  0  0  0  0  0
    5.1013   69.6340   69.4762 H   0  0  0  0  0  0  0  0  0  0  0  0
    4.2107   71.2252   69.3996 H   0  0  0  0  0  0  0  0  0  0  0  0
    1.3499   68.1763   63.9985 H   0  0  0  0  0  0  0  0  0  0  0  0
   -0.9688   67.7735   64.8033 H   0  0  0  0  0  0  0  0  0  0  0  0
   -1.5597   68.2869   67.1733 H   0  0  0  0  0  0  0  0  0  0  0  0
    0.1699   69.1895   68.7071 H   0  0  0  0  0  0  0  0  0  0  0  0
  2  1  1  0
  3  2  1  0
  4  3  1  0
  6  5  2  0
  7  4  1  0
  7  5  1  0
  9  8  1  0
 10  9  2  0
 11 10  1  0
 12 11  2  0
 13 12  1  0
 14 13  2  0
 14  9  1  0
 15 13  1  0
 16 15  2  0
 16  5  1  0
 17 16  1  0
 18 17  2  0
 19 17  1  0
 19 12  1  0
 20  1  1  0
 21 20  1  0
 22 21  1  0
 23 22  1  0
 24 23  1  0
 25 24  1  0
 26 25  1  0
 27 26  1  0
 28 27  1  0
 29 28  1  0
 30 29  1  0
 30 25  2  0
 31 30  1  0
 32 31  2  0
 33 32  1  0
 33 24  2  0
 34 33  1  0
 35 34  2  0
 36 35  1  0
 37 32  1  0
 37 36  2  0
  1 38  1  0
  1 39  1  0
  2 40  1  0
  2 41  1  0
  3 42  1  0
  3 43  1  0
  4 44  1  0
  4 45  1  0
  7 46  1  0
  8 47  1  0
  8 48  1  0
  8 49  1  0
 10 50  1  0
 11 51  1  0
 14 52  1  0
 15 53  1  0
 20 54  1  0
 20 55  1  0
 21 56  1  0
 21 57  1  0
 22 58  1  0
 22 59  1  0
 23 60  1  0
 26 61  1  0
 26 62  1  0
 27 63  1  0
 27 64  1  0
 28 65  1  0
 28 66  1  0
 29 67  1  0
 29 68  1  0
 34 69  1  0
 35 70  1  0
 36 71  1  0
 37 72  1  0
M  END
>  <score>  (8) 
-11.668

$$$$
=
     RDKit          3D

 72 76  0  0  0  0  0  0  0  0999 V2000
    1.8030   65.5740   70.2730 C   0  0  0  0  0  0  0  0  0  0  0  0
    2.0160   64.0570   70.2440 C   0  0  0  0  0  0  0  0  0  0  0  0
    3.3290   63.5820   69.6120 C   0  0  0  0  0  0  0  0  0  0  0  0
    3.4050   62.0800   69.3540 C   0  0  0  0  0  0  0  0  0  0  0  0
    3.4640   59.9450   70.5860 C   0  0  0  0  0  0  0  0  0  0  0  0
    3.7590   59.3040   69.5800 O   0  0  0  0  0  0  0  0  0  0  0  0
    3.3310   61.3110   70.5770 N   0  0  0  0  0  0  0  0  0  0  0  0
   -0.3300   54.8630   74.4560 C   0  0  0  0  0  0  0  0  0  0  0  0
    0.7420   55.9120   74.3970 C   0  0  0  0  0  0  0  0  0  0  0  0
    1.4540   56.2610   75.5530 C   0  0  0  0  0  0  0  0  0  0  0  0
    2.4290   57.2580   75.5060 C   0  0  0  0  0  0  0  0  0  0  0  0
    2.6760   57.9070   74.3010 C   0  0  0  0  0  0  0  0  0  0  0  0
    1.9760   57.5910   73.1440 C   0  0  0  0  0  0  0  0  0  0  0  0
    1.0010   56.5920   73.1960 C   0  0  0  0  0  0  0  0  0  0  0  0
    2.2820   58.3120   71.9200 C   0  0  0  0  0  0  0  0  0  0  0  0
    3.2250   59.2690   71.9010 C   0  0  0  0  0  0  0  0  0  0  0  0
    3.9680   59.6170   73.1340 C   0  0  0  0  0  0  0  0  0  0  0  0
    4.8240   60.4990   73.1500 O   0  0  0  0  0  0  0  0  0  0  0  0
    3.6630   58.9070   74.2910 O   0  0  0  0  0  0  0  0  0  0  0  0
    0.4500   66.0660   69.7460 C   0  0  0  0  0  0  0  0  0  0  0  0
    0.5070   67.2600   68.7890 C   0  0  0  0  0  0  0  0  0  0  0  0
    1.8070   68.0690   68.8440 C   0  0  0  0  0  0  0  0  0  0  0  0
    1.6870   69.2700   68.0020 N   0  0  0  0  0  0  0  0  0  0  0  0
    2.7610   69.3640   67.0640 C   0  0  0  0  0  0  0  0  0  0  0  0
    3.9830   69.9160   67.4930 C   0  0  0  0  0  0  0  0  0  0  0  0
    4.2180   70.2640   68.9440 C   0  0  0  0  0  0  0  0  0  0  0  0
    5.4630   71.1140   69.1880 C   0  0  0  0  0  0  0  0  0  0  0  0
    6.6480   70.5610   68.4100 C   0  0  0  0  0  0  0  0  0  0  0  0
    6.3530   70.6110   66.9160 C   0  0  0  0  0  0  0  0  0  0  0  0
    5.0100   70.0300   66.5550 C   0  0  0  0  0  0  0  0  0  0  0  0
    4.8680   69.6750   65.2560 N   0  0  0  0  0  0  0  0  0  0  0  0
    3.7010   69.1610   64.8460 C   0  0  0  0  0  0  0  0  0  0  0  0
    2.5970   68.9780   65.7020 C   0  0  0  0  0  0  0  0  0  0  0  0
    1.4090   68.4230   65.1570 C   0  0  0  0  0  0  0  0  0  0  0  0
    1.3200   68.0670   63.8120 C   0  0  0  0  0  0  0  0  0  0  0  0
    2.4160   68.2560   62.9840 C   0  0  0  0  0  0  0  0  0  0  0  0
    3.5890   68.7990   63.5090 C   0  0  0  0  0  0  0  0  0  0  0  0
    1.9014   65.9091   71.3161 H   0  0  0  0  0  0  0  0  0  0  0  0
    2.5599   65.9958   69.5954 H   0  0  0  0  0  0  0  0  0  0  0  0
    1.9888   63.6921   71.2813 H   0  0  0  0  0  0  0  0  0  0  0  0
    1.2141   63.6538   69.6080 H   0  0  0  0  0  0  0  0  0  0  0  0
    3.4544   64.1017   68.6506 H   0  0  0  0  0  0  0  0  0  0  0  0
    4.1242   63.8138   70.3358 H   0  0  0  0  0  0  0  0  0  0  0  0
    2.5680   61.7898   68.7019 H   0  0  0  0  0  0  0  0  0  0  0  0
    4.3745   61.8675   68.8796 H   0  0  0  0  0  0  0  0  0  0  0  0
    3.1738   61.8034   71.4679 H   0  0  0  0  0  0  0  0  0  0  0  0
   -0.5627   54.6353   75.5067 H   0  0  0  0  0  0  0  0  0  0  0  0
   -1.2346   55.2344   73.9523 H   0  0  0  0  0  0  0  0  0  0  0  0
    0.0217   53.9506   73.9523 H   0  0  0  0  0  0  0  0  0  0  0  0
    1.2430   55.7463   76.5020 H   0  0  0  0  0  0  0  0  0  0  0  0
    2.9948   57.5271   76.4101 H   0  0  0  0  0  0  0  0  0  0  0  0
    0.4322   56.3362   72.2899 H   0  0  0  0  0  0  0  0  0  0  0  0
    1.7344   58.0712   70.9969 H   0  0  0  0  0  0  0  0  0  0  0  0
   -0.0309   65.2305   69.2163 H   0  0  0  0  0  0  0  0  0  0  0  0
   -0.1079   66.4137   70.6279 H   0  0  0  0  0  0  0  0  0  0  0  0
    0.3827   66.8822   67.7634 H   0  0  0  0  0  0  0  0  0  0  0  0
   -0.2957   67.9442   69.1011 H   0  0  0  0  0  0  0  0  0  0  0  0
    2.0049   68.3707   69.8832 H   0  0  0  0  0  0  0  0  0  0  0  0
    2.6354   67.4480   68.4722 H   0  0  0  0  0  0  0  0  0  0  0  0
    0.9238   69.9574   68.0792 H   0  0  0  0  0  0  0  0  0  0  0  0
    3.3429   70.8197   69.3120 H   0  0  0  0  0  0  0  0  0  0  0  0
    4.3732   69.3142   69.4767 H   0  0  0  0  0  0  0  0  0  0  0  0
    5.2661   72.1460   68.8621 H   0  0  0  0  0  0  0  0  0  0  0  0
    5.7022   71.0939   70.2615 H   0  0  0  0  0  0  0  0  0  0  0  0
    7.5411   71.1656   68.6263 H   0  0  0  0  0  0  0  0  0  0  0  0
    6.8250   69.5178   68.7106 H   0  0  0  0  0  0  0  0  0  0  0  0
    6.3784   71.6612   66.5898 H   0  0  0  0  0  0  0  0  0  0  0  0
    7.1181   70.0024   66.4117 H   0  0  0  0  0  0  0  0  0  0  0  0
    0.5382   68.2703   65.8116 H   0  0  0  0  0  0  0  0  0  0  0  0
    0.3888   67.6401   63.4113 H   0  0  0  0  0  0  0  0  0  0  0  0
    2.3610   67.9798   61.9207 H   0  0  0  0  0  0  0  0  0  0  0  0
    4.4526   68.9452   62.8435 H   0  0  0  0  0  0  0  0  0  0  0  0
  2  1  1  0
  3  2  1  0
  4  3  1  0
  6  5  2  0
  7  4  1  0
  7  5  1  0
  9  8  1  0
 10  9  2  0
 11 10  1  0
 12 11  2  0
 13 12  1  0
 14 13  2  0
 14  9  1  0
 15 13  1  0
 16 15  2  0
 16  5  1  0
 17 16  1  0
 18 17  2  0
 19 17  1  0
 19 12  1  0
 20  1  1  0
 21 20  1  0
 22 21  1  0
 23 22  1  0
 24 23  1  0
 25 24  1  0
 26 25  1  0
 27 26  1  0
 28 27  1  0
 29 28  1  0
 30 29  1  0
 30 25  2  0
 31 30  1  0
 32 31  2  0
 33 32  1  0
 33 24  2  0
 34 33  1  0
 35 34  2  0
 36 35  1  0
 37 32  1  0
 37 36  2  0
  1 38  1  0
  1 39  1  0
  2 40  1  0
  2 41  1  0
  3 42  1  0
  3 43  1  0
  4 44  1  0
  4 45  1  0
  7 46  1  0
  8 47  1  0
  8 48  1  0
  8 49  1  0
 10 50  1  0
 11 51  1  0
 14 52  1  0
 15 53  1  0
 20 54  1  0
 20 55  1  0
 21 56  1  0
 21 57  1  0
 22 58  1  0
 22 59  1  0
 23 60  1  0
 26 61  1  0
 26 62  1  0
 27 63  1  0
 27 64  1  0
 28 65  1  0
 28 66  1  0
 29 67  1  0
 29 68  1  0
 34 69  1  0
 35 70  1  0
 36 71  1  0
 37 72  1  0
M  END
>  <score>  (9) 
-11.426

$$$$
