=
     RDKit          3D

 38 42  0  0  0  0  0  0  0  0999 V2000
    3.7690   67.0610   61.8230 O   0  0  0  0  0  0  0  0  0  0  0  0
    3.3220   67.3720   62.9270 C   0  0  0  0  0  0  0  0  0  0  0  0
    2.7850   68.7670   63.1660 C   0  0  0  0  0  0  0  0  0  0  0  0
    1.6730   68.7890   64.2030 C   0  0  0  0  0  0  0  0  0  0  0  0
    1.9680   68.0060   65.5140 C   0  0  2  0  0  0  0  0  0  0  0  0
    2.7270   66.7260   65.2340 C   0  0  0  0  0  0  0  0  0  0  0  0
    3.3230   66.4070   64.0730 C   0  0  0  0  0  0  0  0  0  0  0  0
    4.2040   64.7730   63.8520 Br  0  0  0  0  0  0  0  0  0  0  0  0
    0.5760   67.5870   66.0320 C   0  0  0  0  0  0  0  0  0  0  0  0
    0.0630   68.0740   67.1680 C   0  0  0  0  0  0  0  0  0  0  0  0
    0.7570   68.9560   67.9370 N   0  0  0  0  0  0  0  0  0  0  0  0
    2.0690   69.3140   67.6730 C   0  0  0  0  0  0  0  0  0  0  0  0
    2.7130   68.8880   66.5490 C   0  0  0  0  0  0  0  0  0  0  0  0
    4.1660   69.2240   66.3260 C   0  0  0  0  0  0  0  0  0  0  0  0
    4.9340   68.7790   65.3950 N   0  0  0  0  0  0  0  0  0  0  0  0
    6.3950   69.0960   65.4250 C   0  0  0  0  0  0  0  0  0  0  0  0
    6.7940   70.4690   66.0210 C   0  0  0  0  0  0  0  0  0  0  0  0
    5.9600   70.7540   67.2080 C   0  0  0  0  0  0  0  0  0  0  0  0
    4.7050   70.1400   67.2890 C   0  0  0  0  0  0  0  0  0  0  0  0
    4.0640   70.5900   68.4060 C   0  0  0  0  0  0  0  0  0  0  0  0
    2.7300   70.1980   68.7270 C   0  0  0  0  0  0  0  0  0  0  0  0
    2.1280   70.5340   69.7430 O   0  0  0  0  0  0  0  0  0  0  0  0
    4.9220   71.4350   69.0600 N   0  0  0  0  0  0  0  0  0  0  0  0
    6.0870   71.5530   68.3230 C   0  0  0  0  0  0  0  0  0  0  0  0
    3.6079   69.4073   63.5165 H   0  0  0  0  0  0  0  0  0  0  0  0
    2.3665   69.1330   62.2169 H   0  0  0  0  0  0  0  0  0  0  0  0
    1.4792   69.8382   64.4706 H   0  0  0  0  0  0  0  0  0  0  0  0
    0.8133   68.2859   63.7363 H   0  0  0  0  0  0  0  0  0  0  0  0
    2.7964   65.9939   66.0521 H   0  0  0  0  0  0  0  0  0  0  0  0
   -0.0137   66.8646   65.4485 H   0  0  0  0  0  0  0  0  0  0  0  0
   -0.9403   67.7547   67.4865 H   0  0  0  0  0  0  0  0  0  0  0  0
    0.2863   69.3760   68.7512 H   0  0  0  0  0  0  0  0  0  0  0  0
    6.8937   68.3163   66.0195 H   0  0  0  0  0  0  0  0  0  0  0  0
    6.7051   69.1361   64.3704 H   0  0  0  0  0  0  0  0  0  0  0  0
    7.8538   70.4469   66.3147 H   0  0  0  0  0  0  0  0  0  0  0  0
    6.6379   71.2545   65.2670 H   0  0  0  0  0  0  0  0  0  0  0  0
    4.7305   71.9062   69.9557 H   0  0  0  0  0  0  0  0  0  0  0  0
    6.9580   72.1733   68.5810 H   0  0  0  0  0  0  0  0  0  0  0  0
  2  1  2  0
  3  2  1  0
  4  3  1  0
  5  4  1  6
  6  5  1  0
  7  6  2  0
  7  2  1  0
  8  7  1  0
  9  5  1  0
 10  9  2  0
 11 10  1  0
 12 11  1  0
 13 12  2  0
 13  5  1  0
 14 13  1  0
 15 14  2  0
 16 15  1  0
 17 16  1  0
 18 17  1  0
 19 14  1  0
 19 18  1  0
 20 19  2  0
 21 20  1  0
 21 12  1  0
 22 21  2  0
 23 20  1  0
 24 23  1  0
 24 18  2  0
  3 25  1  0
  3 26  1  0
  4 27  1  0
  4 28  1  0
  6 29  1  0
  9 30  1  0
 10 31  1  0
 11 32  1  0
 16 33  1  0
 16 34  1  0
 17 35  1  0
 17 36  1  0
 23 37  1  0
 24 38  1  0
M  END
>  <score>  (1) 
-10.29

$$$$
=
     RDKit          3D

 38 42  0  0  0  0  0  0  0  0999 V2000
   -0.7320   66.8630   67.8880 O   0  0  0  0  0  0  0  0  0  0  0  0
    0.0780   67.2430   67.0420 C   0  0  0  0  0  0  0  0  0  0  0  0
    1.4040   66.5320   66.8840 C   0  0  0  0  0  0  0  0  0  0  0  0
    1.9240   66.5880   65.4560 C   0  0  0  0  0  0  0  0  0  0  0  0
    1.8910   67.9920   64.7890 C   0  0  2  0  0  0  0  0  0  0  0  0
    0.6460   68.7610   65.1810 C   0  0  0  0  0  0  0  0  0  0  0  0
   -0.1970   68.4320   66.1730 C   0  0  0  0  0  0  0  0  0  0  0  0
   -1.7200   69.4550   66.5310 Br  0  0  0  0  0  0  0  0  0  0  0  0
    1.7690   67.6970   63.2790 C   0  0  0  0  0  0  0  0  0  0  0  0
    2.7480   67.9910   62.4150 C   0  0  0  0  0  0  0  0  0  0  0  0
    3.9000   68.5840   62.8260 N   0  0  0  0  0  0  0  0  0  0  0  0
    4.0940   69.0340   64.1220 C   0  0  0  0  0  0  0  0  0  0  0  0
    3.1750   68.8020   65.1030 C   0  0  0  0  0  0  0  0  0  0  0  0
    3.3720   69.3730   66.4850 C   0  0  0  0  0  0  0  0  0  0  0  0
    2.5330   69.3560   67.4600 N   0  0  0  0  0  0  0  0  0  0  0  0
    2.8370   70.1160   68.7120 C   0  0  0  0  0  0  0  0  0  0  0  0
    4.3300   70.2180   69.1160 C   0  0  0  0  0  0  0  0  0  0  0  0
    5.1540   70.4380   67.9080 C   0  0  0  0  0  0  0  0  0  0  0  0
    4.6490   69.9970   66.6800 C   0  0  0  0  0  0  0  0  0  0  0  0
    5.5840   70.2160   65.7120 C   0  0  0  0  0  0  0  0  0  0  0  0
    5.3880   69.8080   64.3590 C   0  0  0  0  0  0  0  0  0  0  0  0
    6.1760   70.0250   63.4420 O   0  0  0  0  0  0  0  0  0  0  0  0
    6.6500   70.8420   66.3040 N   0  0  0  0  0  0  0  0  0  0  0  0
    6.4000   70.9710   67.6590 C   0  0  0  0  0  0  0  0  0  0  0  0
    2.1413   67.0075   67.5476 H   0  0  0  0  0  0  0  0  0  0  0  0
    1.2511   65.4743   67.1446 H   0  0  0  0  0  0  0  0  0  0  0  0
    2.9671   66.2389   65.4607 H   0  0  0  0  0  0  0  0  0  0  0  0
    1.2486   65.9544   64.8624 H   0  0  0  0  0  0  0  0  0  0  0  0
    0.4124   69.6673   64.6030 H   0  0  0  0  0  0  0  0  0  0  0  0
    0.8477   67.2300   62.9007 H   0  0  0  0  0  0  0  0  0  0  0  0
    2.6176   67.7477   61.3502 H   0  0  0  0  0  0  0  0  0  0  0  0
    4.6624   68.7041   62.1439 H   0  0  0  0  0  0  0  0  0  0  0  0
    2.4556   71.1396   68.5821 H   0  0  0  0  0  0  0  0  0  0  0  0
    2.3555   69.5471   69.5211 H   0  0  0  0  0  0  0  0  0  0  0  0
    4.4652   71.0604   69.8104 H   0  0  0  0  0  0  0  0  0  0  0  0
    4.6414   69.2842   69.6070 H   0  0  0  0  0  0  0  0  0  0  0  0
    7.4996   71.1642   65.8189 H   0  0  0  0  0  0  0  0  0  0  0  0
    7.0748   71.4186   68.4035 H   0  0  0  0  0  0  0  0  0  0  0  0
  2  1  2  0
  3  2  1  0
  4  3  1  0
  5  4  1  1
  6  5  1  0
  7  6  2  0
  7  2  1  0
  8  7  1  0
  9  5  1  0
 10  9  2  0
 11 10  1  0
 12 11  1  0
 13 12  2  0
 13  5  1  0
 14 13  1  0
 15 14  2  0
 16 15  1  0
 17 16  1  0
 18 17  1  0
 19 14  1  0
 19 18  1  0
 20 19  2  0
 21 20  1  0
 21 12  1  0
 22 21  2  0
 23 20  1  0
 24 23  1  0
 24 18  2  0
  3 25  1  0
  3 26  1  0
  4 27  1  0
  4 28  1  0
  6 29  1  0
  9 30  1  0
 10 31  1  0
 11 32  1  0
 16 33  1  0
 16 34  1  0
 17 35  1  0
 17 36  1  0
 23 37  1  0
 24 38  1  0
M  END
>  <score>  (2) 
-10.159

$$$$
=
     RDKit          3D

 38 42  0  0  0  0  0  0  0  0999 V2000
   -1.4520   67.4670   67.7730 O   0  0  0  0  0  0  0  0  0  0  0  0
   -0.3430   67.9970   67.8280 C   0  0  0  0  0  0  0  0  0  0  0  0
   -0.0570   69.2510   67.0310 C   0  0  0  0  0  0  0  0  0  0  0  0
    0.9670   70.1480   67.7080 C   0  0  0  0  0  0  0  0  0  0  0  0
    2.2500   69.4300   68.2150 C   0  0  2  0  0  0  0  0  0  0  0  0
    1.9310   68.0650   68.7870 C   0  0  0  0  0  0  0  0  0  0  0  0
    0.7660   67.4110   68.6480 C   0  0  0  0  0  0  0  0  0  0  0  0
    0.4930   65.7380   69.4360 Br  0  0  0  0  0  0  0  0  0  0  0  0
    2.7360   70.2990   69.3940 C   0  0  0  0  0  0  0  0  0  0  0  0
    3.8840   70.9850   69.3470 C   0  0  0  0  0  0  0  0  0  0  0  0
    4.6930   70.9370   68.2550 N   0  0  0  0  0  0  0  0  0  0  0  0
    4.4590   70.0930   67.1820 C   0  0  0  0  0  0  0  0  0  0  0  0
    3.3270   69.3360   67.1020 C   0  0  0  0  0  0  0  0  0  0  0  0
    3.1340   68.3660   65.9650 C   0  0  0  0  0  0  0  0  0  0  0  0
    2.1960   67.4960   65.8350 N   0  0  0  0  0  0  0  0  0  0  0  0
    2.2550   66.5040   64.7180 C   0  0  0  0  0  0  0  0  0  0  0  0
    2.9070   66.9850   63.3970 C   0  0  0  0  0  0  0  0  0  0  0  0
    4.0950   67.8110   63.7050 C   0  0  0  0  0  0  0  0  0  0  0  0
    4.1380   68.4590   64.9440 C   0  0  0  0  0  0  0  0  0  0  0  0
    5.2630   69.2280   65.0030 C   0  0  0  0  0  0  0  0  0  0  0  0
    5.5540   70.0680   66.1190 C   0  0  0  0  0  0  0  0  0  0  0  0
    6.5750   70.7390   66.2420 O   0  0  0  0  0  0  0  0  0  0  0  0
    5.9590   69.0260   63.8390 N   0  0  0  0  0  0  0  0  0  0  0  0
    5.2410   68.1660   63.0280 C   0  0  0  0  0  0  0  0  0  0  0  0
    0.3269   68.9608   66.0418 H   0  0  0  0  0  0  0  0  0  0  0  0
   -0.9964   69.8174   66.9490 H   0  0  0  0  0  0  0  0  0  0  0  0
    1.2726   70.9196   66.9860 H   0  0  0  0  0  0  0  0  0  0  0  0
    0.4717   70.5522   68.6031 H   0  0  0  0  0  0  0  0  0  0  0  0
    2.7215   67.5657   69.3665 H   0  0  0  0  0  0  0  0  0  0  0  0
    2.1187   70.3564   70.3026 H   0  0  0  0  0  0  0  0  0  0  0  0
    4.1794   71.6005   70.2095 H   0  0  0  0  0  0  0  0  0  0  0  0
    5.5160   71.5555   68.2245 H   0  0  0  0  0  0  0  0  0  0  0  0
    2.8256   65.6337   65.0743 H   0  0  0  0  0  0  0  0  0  0  0  0
    1.2063   66.2911   64.4633 H   0  0  0  0  0  0  0  0  0  0  0  0
    3.2117   66.1129   62.7998 H   0  0  0  0  0  0  0  0  0  0  0  0
    2.1816   67.5844   62.8274 H   0  0  0  0  0  0  0  0  0  0  0  0
    6.8698   69.4469   63.6061 H   0  0  0  0  0  0  0  0  0  0  0  0
    5.5326   67.8265   62.0231 H   0  0  0  0  0  0  0  0  0  0  0  0
  2  1  2  0
  3  2  1  0
  4  3  1  0
  5  4  1  6
  6  5  1  0
  7  6  2  0
  7  2  1  0
  8  7  1  0
  9  5  1  0
 10  9  2  0
 11 10  1  0
 12 11  1  0
 13 12  2  0
 13  5  1  0
 14 13  1  0
 15 14  2  0
 16 15  1  0
 17 16  1  0
 18 17  1  0
 19 14  1  0
 19 18  1  0
 20 19  2  0
 21 20  1  0
 21 12  1  0
 22 21  2  0
 23 20  1  0
 24 23  1  0
 24 18  2  0
  3 25  1  0
  3 26  1  0
  4 27  1  0
  4 28  1  0
  6 29  1  0
  9 30  1  0
 10 31  1  0
 11 32  1  0
 16 33  1  0
 16 34  1  0
 17 35  1  0
 17 36  1  0
 23 37  1  0
 24 38  1  0
M  END
>  <score>  (3) 
-9.742

$$$$
=
     RDKit          3D

 38 42  0  0  0  0  0  0  0  0999 V2000
   -1.6030   62.5020   75.0450 O   0  0  0  0  0  0  0  0  0  0  0  0
   -0.7000   62.4290   74.2120 C   0  0  0  0  0  0  0  0  0  0  0  0
   -0.9930   61.9360   72.8120 C   0  0  0  0  0  0  0  0  0  0  0  0
   -0.0740   62.5590   71.7730 C   0  0  0  0  0  0  0  0  0  0  0  0
    1.4390   62.5470   72.1300 C   0  0  2  0  0  0  0  0  0  0  0  0
    1.6630   62.8080   73.6050 C   0  0  0  0  0  0  0  0  0  0  0  0
    0.7150   62.7850   74.5560 C   0  0  0  0  0  0  0  0  0  0  0  0
    1.1220   63.1590   76.3410 Br  0  0  0  0  0  0  0  0  0  0  0  0
    2.0220   63.7610   71.3750 C   0  0  0  0  0  0  0  0  0  0  0  0
    2.8900   63.6220   70.3660 C   0  0  0  0  0  0  0  0  0  0  0  0
    3.3180   62.3950   69.9650 N   0  0  0  0  0  0  0  0  0  0  0  0
    2.9930   61.2280   70.6360 C   0  0  0  0  0  0  0  0  0  0  0  0
    2.1190   61.2260   71.6830 C   0  0  0  0  0  0  0  0  0  0  0  0
    1.8440   59.9570   72.4490 C   0  0  0  0  0  0  0  0  0  0  0  0
    1.1620   59.8330   73.5310 N   0  0  0  0  0  0  0  0  0  0  0  0
    1.1310   58.5170   74.2420 C   0  0  0  0  0  0  0  0  0  0  0  0
    1.2120   57.2490   73.3550 C   0  0  0  0  0  0  0  0  0  0  0  0
    2.1890   57.4690   72.2660 C   0  0  0  0  0  0  0  0  0  0  0  0
    2.4380   58.7870   71.8660 C   0  0  0  0  0  0  0  0  0  0  0  0
    3.2960   58.7730   70.8070 C   0  0  0  0  0  0  0  0  0  0  0  0
    3.6870   59.9660   70.1290 C   0  0  0  0  0  0  0  0  0  0  0  0
    4.4940   60.0130   69.2040 O   0  0  0  0  0  0  0  0  0  0  0  0
    3.6370   57.4670   70.5710 N   0  0  0  0  0  0  0  0  0  0  0  0
    2.9500   56.6550   71.4560 C   0  0  0  0  0  0  0  0  0  0  0  0
   -0.8640   60.8439   72.7880 H   0  0  0  0  0  0  0  0  0  0  0  0
   -2.0246   62.2260   72.5637 H   0  0  0  0  0  0  0  0  0  0  0  0
   -0.2048   62.0081   70.8299 H   0  0  0  0  0  0  0  0  0  0  0  0
   -0.3624   63.6186   71.7088 H   0  0  0  0  0  0  0  0  0  0  0  0
    2.6905   63.0360   73.9248 H   0  0  0  0  0  0  0  0  0  0  0  0
    1.7139   64.7731   71.6763 H   0  0  0  0  0  0  0  0  0  0  0  0
    3.2649   64.5185   69.8505 H   0  0  0  0  0  0  0  0  0  0  0  0
    3.9103   62.3308   69.1248 H   0  0  0  0  0  0  0  0  0  0  0  0
    1.9828   58.4930   74.9377 H   0  0  0  0  0  0  0  0  0  0  0  0
    0.1441   58.4710   74.7256 H   0  0  0  0  0  0  0  0  0  0  0  0
    1.5324   56.3933   73.9674 H   0  0  0  0  0  0  0  0  0  0  0  0
    0.2223   57.0410   72.9224 H   0  0  0  0  0  0  0  0  0  0  0  0
    4.2980   57.1422   69.8510 H   0  0  0  0  0  0  0  0  0  0  0  0
    3.0021   55.5573   71.5041 H   0  0  0  0  0  0  0  0  0  0  0  0
  2  1  2  0
  3  2  1  0
  4  3  1  0
  5  4  1  1
  6  5  1  0
  7  6  2  0
  7  2  1  0
  8  7  1  0
  9  5  1  0
 10  9  2  0
 11 10  1  0
 12 11  1  0
 13 12  2  0
 13  5  1  0
 14 13  1  0
 15 14  2  0
 16 15  1  0
 17 16  1  0
 18 17  1  0
 19 14  1  0
 19 18  1  0
 20 19  2  0
 21 20  1  0
 21 12  1  0
 22 21  2  0
 23 20  1  0
 24 23  1  0
 24 18  2  0
  3 25  1  0
  3 26  1  0
  4 27  1  0
  4 28  1  0
  6 29  1  0
  9 30  1  0
 10 31  1  0
 11 32  1  0
 16 33  1  0
 16 34  1  0
 17 35  1  0
 17 36  1  0
 23 37  1  0
 24 38  1  0
M  END
>  <score>  (4) 
-9.638

$$$$
=
     RDKit          3D

 38 42  0  0  0  0  0  0  0  0999 V2000
   -0.6440   62.4870   76.0290 O   0  0  0  0  0  0  0  0  0  0  0  0
   -0.0730   61.7240   75.2500 C   0  0  0  0  0  0  0  0  0  0  0  0
    1.4390   61.6600   75.2180 C   0  0  0  0  0  0  0  0  0  0  0  0
    1.9520   60.2840   74.8250 C   0  0  0  0  0  0  0  0  0  0  0  0
    1.2780   59.6540   73.5730 C   0  0  2  0  0  0  0  0  0  0  0  0
   -0.2050   59.9580   73.5300 C   0  0  0  0  0  0  0  0  0  0  0  0
   -0.8390   60.8660   74.2900 C   0  0  0  0  0  0  0  0  0  0  0  0
   -2.6860   61.1200   74.1580 Br  0  0  0  0  0  0  0  0  0  0  0  0
    1.4080   58.1310   73.7920 C   0  0  0  0  0  0  0  0  0  0  0  0
    2.1700   57.3620   73.0060 C   0  0  0  0  0  0  0  0  0  0  0  0
    2.8590   57.8850   71.9560 N   0  0  0  0  0  0  0  0  0  0  0  0
    2.7280   59.2040   71.5530 C   0  0  0  0  0  0  0  0  0  0  0  0
    1.9820   60.0970   72.2640 C   0  0  0  0  0  0  0  0  0  0  0  0
    1.7890   61.5050   71.7610 C   0  0  0  0  0  0  0  0  0  0  0  0
    1.0080   62.4050   72.2440 N   0  0  0  0  0  0  0  0  0  0  0  0
    0.8250   63.6980   71.5150 C   0  0  0  0  0  0  0  0  0  0  0  0
    2.0500   64.2300   70.7290 C   0  0  0  0  0  0  0  0  0  0  0  0
    2.7350   63.1030   70.0600 C   0  0  0  0  0  0  0  0  0  0  0  0
    2.5840   61.8250   70.6100 C   0  0  0  0  0  0  0  0  0  0  0  0
    3.3510   60.9460   69.9030 C   0  0  0  0  0  0  0  0  0  0  0  0
    3.4630   59.5710   70.2670 C   0  0  0  0  0  0  0  0  0  0  0  0
    4.0990   58.7300   69.6360 O   0  0  0  0  0  0  0  0  0  0  0  0
    3.9380   61.6430   68.8790 N   0  0  0  0  0  0  0  0  0  0  0  0
    3.5740   62.9750   68.9750 C   0  0  0  0  0  0  0  0  0  0  0  0
    1.8085   62.3963   74.4891 H   0  0  0  0  0  0  0  0  0  0  0  0
    1.8057   61.8780   76.2319 H   0  0  0  0  0  0  0  0  0  0  0  0
    3.0302   60.3684   74.6238 H   0  0  0  0  0  0  0  0  0  0  0  0
    1.7104   59.6184   75.6668 H   0  0  0  0  0  0  0  0  0  0  0  0
   -0.8151   59.3863   72.8152 H   0  0  0  0  0  0  0  0  0  0  0  0
    0.8564   57.6634   74.6209 H   0  0  0  0  0  0  0  0  0  0  0  0
    2.2409   56.2840   73.2131 H   0  0  0  0  0  0  0  0  0  0  0  0
    3.5063   57.2737   71.4381 H   0  0  0  0  0  0  0  0  0  0  0  0
    0.0013   63.5636   70.7985 H   0  0  0  0  0  0  0  0  0  0  0  0
    0.6339   64.4477   72.2970 H   0  0  0  0  0  0  0  0  0  0  0  0
    1.7138   64.9552   69.9733 H   0  0  0  0  0  0  0  0  0  0  0  0
    2.7465   64.7209   71.4247 H   0  0  0  0  0  0  0  0  0  0  0  0
    4.5507   61.2407   68.1553 H   0  0  0  0  0  0  0  0  0  0  0  0
    3.8967   63.7857   68.3052 H   0  0  0  0  0  0  0  0  0  0  0  0
  2  1  2  0
  3  2  1  0
  4  3  1  0
  5  4  1  1
  6  5  1  0
  7  6  2  0
  7  2  1  0
  8  7  1  0
  9  5  1  0
 10  9  2  0
 11 10  1  0
 12 11  1  0
 13 12  2  0
 13  5  1  0
 14 13  1  0
 15 14  2  0
 16 15  1  0
 17 16  1  0
 18 17  1  0
 19 14  1  0
 19 18  1  0
 20 19  2  0
 21 20  1  0
 21 12  1  0
 22 21  2  0
 23 20  1  0
 24 23  1  0
 24 18  2  0
  3 25  1  0
  3 26  1  0
  4 27  1  0
  4 28  1  0
  6 29  1  0
  9 30  1  0
 10 31  1  0
 11 32  1  0
 16 33  1  0
 16 34  1  0
 17 35  1  0
 17 36  1  0
 23 37  1  0
 24 38  1  0
M  END
>  <score>  (5) 
-9.4

$$$$
=
     RDKit          3D

 38 42  0  0  0  0  0  0  0  0999 V2000
    4.2570   58.5780   74.6930 O   0  0  0  0  0  0  0  0  0  0  0  0
    3.7900   59.3060   73.8170 C   0  0  0  0  0  0  0  0  0  0  0  0
    4.3940   60.6700   73.5580 C   0  0  0  0  0  0  0  0  0  0  0  0
    4.2530   61.0990   72.1060 C   0  0  0  0  0  0  0  0  0  0  0  0
    2.8350   60.9220   71.4930 C   0  0  2  0  0  0  0  0  0  0  0  0
    2.1750   59.6490   71.9820 C   0  0  0  0  0  0  0  0  0  0  0  0
    2.5990   58.8930   73.0080 C   0  0  0  0  0  0  0  0  0  0  0  0
    1.7060   57.3230   73.4880 Br  0  0  0  0  0  0  0  0  0  0  0  0
    3.0910   60.7330   69.9820 C   0  0  0  0  0  0  0  0  0  0  0  0
    2.6970   61.6340   69.0760 C   0  0  0  0  0  0  0  0  0  0  0  0
    2.0300   62.7620   69.4420 N   0  0  0  0  0  0  0  0  0  0  0  0
    1.6080   62.9990   70.7400 C   0  0  0  0  0  0  0  0  0  0  0  0
    1.9400   62.1600   71.7630 C   0  0  0  0  0  0  0  0  0  0  0  0
    1.4000   62.3940   73.1510 C   0  0  0  0  0  0  0  0  0  0  0  0
    1.5110   61.6190   74.1710 N   0  0  0  0  0  0  0  0  0  0  0  0
    0.7700   61.9390   75.4290 C   0  0  0  0  0  0  0  0  0  0  0  0
    0.5690   63.4410   75.7520 C   0  0  0  0  0  0  0  0  0  0  0  0
    0.2480   64.1750   74.5080 C   0  0  0  0  0  0  0  0  0  0  0  0
    0.6870   63.6310   73.2950 C   0  0  0  0  0  0  0  0  0  0  0  0
    0.3670   64.4890   72.2840 C   0  0  0  0  0  0  0  0  0  0  0  0
    0.7470   64.2440   70.9310 C   0  0  0  0  0  0  0  0  0  0  0  0
    0.4410   64.9580   69.9790 O   0  0  0  0  0  0  0  0  0  0  0  0
   -0.3190   65.5390   72.8370 N   0  0  0  0  0  0  0  0  0  0  0  0
   -0.3850   65.3610   74.2080 C   0  0  0  0  0  0  0  0  0  0  0  0
    3.8859   61.4084   74.1957 H   0  0  0  0  0  0  0  0  0  0  0  0
    5.4681   60.6108   73.7879 H   0  0  0  0  0  0  0  0  0  0  0  0
    4.5212   62.1637   72.0391 H   0  0  0  0  0  0  0  0  0  0  0  0
    4.9172   60.4388   71.5290 H   0  0  0  0  0  0  0  0  0  0  0  0
    1.2711   59.3153   71.4513 H   0  0  0  0  0  0  0  0  0  0  0  0
    3.6144   59.8280   69.6399 H   0  0  0  0  0  0  0  0  0  0  0  0
    2.9167   61.4596   68.0124 H   0  0  0  0  0  0  0  0  0  0  0  0
    1.8300   63.4710   68.7222 H   0  0  0  0  0  0  0  0  0  0  0  0
   -0.2256   61.4769   75.3568 H   0  0  0  0  0  0  0  0  0  0  0  0
    1.3981   61.5485   76.2432 H   0  0  0  0  0  0  0  0  0  0  0  0
   -0.2581   63.5544   76.4683 H   0  0  0  0  0  0  0  0  0  0  0  0
    1.4922   63.8483   76.1899 H   0  0  0  0  0  0  0  0  0  0  0  0
   -0.7204   66.3320   72.3165 H   0  0  0  0  0  0  0  0  0  0  0  0
   -0.8581   66.0441   74.9288 H   0  0  0  0  0  0  0  0  0  0  0  0
  2  1  2  0
  3  2  1  0
  4  3  1  0
  5  4  1  1
  6  5  1  0
  7  6  2  0
  7  2  1  0
  8  7  1  0
  9  5  1  0
 10  9  2  0
 11 10  1  0
 12 11  1  0
 13 12  2  0
 13  5  1  0
 14 13  1  0
 15 14  2  0
 16 15  1  0
 17 16  1  0
 18 17  1  0
 19 14  1  0
 19 18  1  0
 20 19  2  0
 21 20  1  0
 21 12  1  0
 22 21  2  0
 23 20  1  0
 24 23  1  0
 24 18  2  0
  3 25  1  0
  3 26  1  0
  4 27  1  0
  4 28  1  0
  6 29  1  0
  9 30  1  0
 10 31  1  0
 11 32  1  0
 16 33  1  0
 16 34  1  0
 17 35  1  0
 17 36  1  0
 23 37  1  0
 24 38  1  0
M  END
>  <score>  (6) 
-9.218

$$$$
=
     RDKit          3D

 38 42  0  0  0  0  0  0  0  0999 V2000
    5.8450   60.5580   71.3290 O   0  0  0  0  0  0  0  0  0  0  0  0
    4.6960   60.9390   71.5490 C   0  0  0  0  0  0  0  0  0  0  0  0
    4.2630   61.2810   72.9580 C   0  0  0  0  0  0  0  0  0  0  0  0
    3.1920   62.3590   72.9890 C   0  0  0  0  0  0  0  0  0  0  0  0
    2.0030   62.1460   72.0110 C   0  0  2  0  0  0  0  0  0  0  0  0
    2.4690   61.5690   70.6900 C   0  0  0  0  0  0  0  0  0  0  0  0
    3.6820   61.0430   70.4510 C   0  0  0  0  0  0  0  0  0  0  0  0
    4.1400   60.3920   68.7600 Br  0  0  0  0  0  0  0  0  0  0  0  0
    1.4910   63.5710   71.7110 C   0  0  0  0  0  0  0  0  0  0  0  0
    0.2850   63.9930   72.1090 C   0  0  0  0  0  0  0  0  0  0  0  0
   -0.5630   63.1730   72.7860 N   0  0  0  0  0  0  0  0  0  0  0  0
   -0.3000   61.8310   73.0020 C   0  0  0  0  0  0  0  0  0  0  0  0
    0.8920   61.2700   72.6460 C   0  0  0  0  0  0  0  0  0  0  0  0
    1.1230   59.7910   72.8180 C   0  0  0  0  0  0  0  0  0  0  0  0
    2.1300   59.1070   72.4030 N   0  0  0  0  0  0  0  0  0  0  0  0
    2.1130   57.6160   72.5210 C   0  0  0  0  0  0  0  0  0  0  0  0
    1.3630   57.0260   73.7410 C   0  0  0  0  0  0  0  0  0  0  0  0
    0.1200   57.7920   73.9750 C   0  0  0  0  0  0  0  0  0  0  0  0
    0.0710   59.1160   73.5230 C   0  0  0  0  0  0  0  0  0  0  0  0
   -1.1160   59.6700   73.9030 C   0  0  0  0  0  0  0  0  0  0  0  0
   -1.4330   61.0370   73.6480 C   0  0  0  0  0  0  0  0  0  0  0  0
   -2.5040   61.5690   73.9240 O   0  0  0  0  0  0  0  0  0  0  0  0
   -1.8400   58.6950   74.5380 N   0  0  0  0  0  0  0  0  0  0  0  0
   -1.0820   57.5390   74.5990 C   0  0  0  0  0  0  0  0  0  0  0  0
    3.8648   60.3735   73.4354 H   0  0  0  0  0  0  0  0  0  0  0  0
    5.1423   61.6660   73.4952 H   0  0  0  0  0  0  0  0  0  0  0  0
    2.7869   62.4056   74.0106 H   0  0  0  0  0  0  0  0  0  0  0  0
    3.6868   63.2871   72.6668 H   0  0  0  0  0  0  0  0  0  0  0  0
    1.7530   61.5818   69.8551 H   0  0  0  0  0  0  0  0  0  0  0  0
    2.1386   64.2622   71.1518 H   0  0  0  0  0  0  0  0  0  0  0  0
   -0.0267   65.0237   71.8841 H   0  0  0  0  0  0  0  0  0  0  0  0
   -1.4400   63.5680   73.1544 H   0  0  0  0  0  0  0  0  0  0  0  0
    1.6403   57.2146   71.6125 H   0  0  0  0  0  0  0  0  0  0  0  0
    3.1646   57.3236   72.6575 H   0  0  0  0  0  0  0  0  0  0  0  0
    1.1129   55.9732   73.5433 H   0  0  0  0  0  0  0  0  0  0  0  0
    2.0055   57.0900   74.6316 H   0  0  0  0  0  0  0  0  0  0  0  0
   -2.7942   58.8049   74.9098 H   0  0  0  0  0  0  0  0  0  0  0  0
   -1.3848   56.5885   75.0626 H   0  0  0  0  0  0  0  0  0  0  0  0
  2  1  2  0
  3  2  1  0
  4  3  1  0
  5  4  1  1
  6  5  1  0
  7  6  2  0
  7  2  1  0
  8  7  1  0
  9  5  1  0
 10  9  2  0
 11 10  1  0
 12 11  1  0
 13 12  2  0
 13  5  1  0
 14 13  1  0
 15 14  2  0
 16 15  1  0
 17 16  1  0
 18 17  1  0
 19 14  1  0
 19 18  1  0
 20 19  2  0
 21 20  1  0
 21 12  1  0
 22 21  2  0
 23 20  1  0
 24 23  1  0
 24 18  2  0
  3 25  1  0
  3 26  1  0
  4 27  1  0
  4 28  1  0
  6 29  1  0
  9 30  1  0
 10 31  1  0
 11 32  1  0
 16 33  1  0
 16 34  1  0
 17 35  1  0
 17 36  1  0
 23 37  1  0
 24 38  1  0
M  END
>  <score>  (7) 
-8.89

$$$$
=
     RDKit          3D

 38 42  0  0  0  0  0  0  0  0999 V2000
    0.2410   65.9790   64.6460 O   0  0  0  0  0  0  0  0  0  0  0  0
    1.2240   66.7170   64.5700 C   0  0  0  0  0  0  0  0  0  0  0  0
    2.5550   66.2730   65.1370 C   0  0  0  0  0  0  0  0  0  0  0  0
    3.7320   66.8630   64.3770 C   0  0  0  0  0  0  0  0  0  0  0  0
    3.6530   68.3920   64.1060 C   0  0  2  0  0  0  0  0  0  0  0  0
    2.2380   68.8230   63.7780 C   0  0  0  0  0  0  0  0  0  0  0  0
    1.1340   68.0800   63.9550 C   0  0  0  0  0  0  0  0  0  0  0  0
   -0.5550   68.7250   63.4770 Br  0  0  0  0  0  0  0  0  0  0  0  0
    4.4840   68.5980   62.8220 C   0  0  0  0  0  0  0  0  0  0  0  0
    5.6340   69.2820   62.8200 C   0  0  0  0  0  0  0  0  0  0  0  0
    6.1210   69.8500   63.9560 N   0  0  0  0  0  0  0  0  0  0  0  0
    5.4180   69.8690   65.1490 C   0  0  0  0  0  0  0  0  0  0  0  0
    4.2310   69.2110   65.2890 C   0  0  0  0  0  0  0  0  0  0  0  0
    3.4460   69.3140   66.5720 C   0  0  0  0  0  0  0  0  0  0  0  0
    2.2600   68.8700   66.7960 N   0  0  0  0  0  0  0  0  0  0  0  0
    1.5730   69.2080   68.0810 C   0  0  0  0  0  0  0  0  0  0  0  0
    2.4760   69.3600   69.3310 C   0  0  0  0  0  0  0  0  0  0  0  0
    3.7190   70.0700   68.9580 C   0  0  0  0  0  0  0  0  0  0  0  0
    4.1400   69.9980   67.6250 C   0  0  0  0  0  0  0  0  0  0  0  0
    5.3370   70.6410   67.5040 C   0  0  0  0  0  0  0  0  0  0  0  0
    6.0580   70.6800   66.2730 C   0  0  0  0  0  0  0  0  0  0  0  0
    7.1110   71.2860   66.0990 O   0  0  0  0  0  0  0  0  0  0  0  0
    5.6470   71.1680   68.7300 N   0  0  0  0  0  0  0  0  0  0  0  0
    4.6630   70.8100   69.6350 C   0  0  0  0  0  0  0  0  0  0  0  0
    2.6163   66.5929   66.1877 H   0  0  0  0  0  0  0  0  0  0  0  0
    2.6108   65.1782   65.0463 H   0  0  0  0  0  0  0  0  0  0  0  0
    4.6442   66.6686   64.9602 H   0  0  0  0  0  0  0  0  0  0  0  0
    3.7271   66.3798   63.3888 H   0  0  0  0  0  0  0  0  0  0  0  0
    2.1038   69.8311   63.3589 H   0  0  0  0  0  0  0  0  0  0  0  0
    4.1189   68.1684   61.8774 H   0  0  0  0  0  0  0  0  0  0  0  0
    6.1969   69.3871   61.8808 H   0  0  0  0  0  0  0  0  0  0  0  0
    7.0541   70.2853   63.9276 H   0  0  0  0  0  0  0  0  0  0  0  0
    1.0419   70.1602   67.9351 H   0  0  0  0  0  0  0  0  0  0  0  0
    0.9214   68.3484   68.2965 H   0  0  0  0  0  0  0  0  0  0  0  0
    1.9420   69.9357   70.1013 H   0  0  0  0  0  0  0  0  0  0  0  0
    2.7268   68.3642   69.7254 H   0  0  0  0  0  0  0  0  0  0  0  0
    6.4777   71.7382   68.9436 H   0  0  0  0  0  0  0  0  0  0  0  0
    4.6391   71.0699   70.7036 H   0  0  0  0  0  0  0  0  0  0  0  0
  2  1  2  0
  3  2  1  0
  4  3  1  0
  5  4  1  1
  6  5  1  0
  7  6  2  0
  7  2  1  0
  8  7  1  0
  9  5  1  0
 10  9  2  0
 11 10  1  0
 12 11  1  0
 13 12  2  0
 13  5  1  0
 14 13  1  0
 15 14  2  0
 16 15  1  0
 17 16  1  0
 18 17  1  0
 19 14  1  0
 19 18  1  0
 20 19  2  0
 21 20  1  0
 21 12  1  0
 22 21  2  0
 23 20  1  0
 24 23  1  0
 24 18  2  0
  3 25  1  0
  3 26  1  0
  4 27  1  0
  4 28  1  0
  6 29  1  0
  9 30  1  0
 10 31  1  0
 11 32  1  0
 16 33  1  0
 16 34  1  0
 17 35  1  0
 17 36  1  0
 23 37  1  0
 24 38  1  0
M  END
>  <score>  (8) 
-8.749

$$$$
=
     RDKit          3D

 38 42  0  0  0  0  0  0  0  0999 V2000
    4.1540   66.4810   61.5370 O   0  0  0  0  0  0  0  0  0  0  0  0
    4.2730   67.1590   62.5580 C   0  0  0  0  0  0  0  0  0  0  0  0
    4.2030   66.5040   63.9200 C   0  0  0  0  0  0  0  0  0  0  0  0
    5.0470   67.2300   64.9560 C   0  0  0  0  0  0  0  0  0  0  0  0
    4.8650   68.7740   65.0010 C   0  0  2  0  0  0  0  0  0  0  0  0
    4.6950   69.3510   63.6100 C   0  0  0  0  0  0  0  0  0  0  0  0
    4.4530   68.6450   62.4940 C   0  0  0  0  0  0  0  0  0  0  0  0
    4.2950   69.4840   60.8310 Br  0  0  0  0  0  0  0  0  0  0  0  0
    6.2130   69.3040   65.5350 C   0  0  0  0  0  0  0  0  0  0  0  0
    6.3190   69.9010   66.7280 C   0  0  0  0  0  0  0  0  0  0  0  0
    5.2340   70.0880   67.5260 N   0  0  0  0  0  0  0  0  0  0  0  0
    3.9430   69.7930   67.1210 C   0  0  0  0  0  0  0  0  0  0  0  0
    3.6910   69.1820   65.9270 C   0  0  0  0  0  0  0  0  0  0  0  0
    2.2730   68.9460   65.4730 C   0  0  0  0  0  0  0  0  0  0  0  0
    1.8840   68.5160   64.3250 N   0  0  0  0  0  0  0  0  0  0  0  0
    0.4260   68.4980   63.9950 C   0  0  0  0  0  0  0  0  0  0  0  0
   -0.5480   68.2340   65.1710 C   0  0  0  0  0  0  0  0  0  0  0  0
   -0.0790   68.9590   66.3720 C   0  0  0  0  0  0  0  0  0  0  0  0
    1.2850   69.2570   66.4660 C   0  0  0  0  0  0  0  0  0  0  0  0
    1.5260   69.8480   67.6720 C   0  0  0  0  0  0  0  0  0  0  0  0
    2.8410   70.2080   68.0920 C   0  0  0  0  0  0  0  0  0  0  0  0
    3.1050   70.7860   69.1430 O   0  0  0  0  0  0  0  0  0  0  0  0
    0.3230   69.9780   68.3140 N   0  0  0  0  0  0  0  0  0  0  0  0
   -0.6700   69.4210   67.5270 C   0  0  0  0  0  0  0  0  0  0  0  0
    3.1559   66.5004   64.2569 H   0  0  0  0  0  0  0  0  0  0  0  0
    4.5981   65.4821   63.8216 H   0  0  0  0  0  0  0  0  0  0  0  0
    4.7877   66.8286   65.9468 H   0  0  0  0  0  0  0  0  0  0  0  0
    6.0947   67.0564   64.6693 H   0  0  0  0  0  0  0  0  0  0  0  0
    4.7770   70.4430   63.5057 H   0  0  0  0  0  0  0  0  0  0  0  0
    7.1145   69.1873   64.9156 H   0  0  0  0  0  0  0  0  0  0  0  0
    7.3051   70.2479   67.0704 H   0  0  0  0  0  0  0  0  0  0  0  0
    5.3787   70.4656   68.4733 H   0  0  0  0  0  0  0  0  0  0  0  0
    0.1696   69.4763   63.5624 H   0  0  0  0  0  0  0  0  0  0  0  0
    0.2936   67.6461   63.3118 H   0  0  0  0  0  0  0  0  0  0  0  0
   -1.5542   68.5861   64.8998 H   0  0  0  0  0  0  0  0  0  0  0  0
   -0.5819   67.1553   65.3839 H   0  0  0  0  0  0  0  0  0  0  0  0
    0.1804   70.4190   69.2338 H   0  0  0  0  0  0  0  0  0  0  0  0
   -1.7390   69.3586   67.7788 H   0  0  0  0  0  0  0  0  0  0  0  0
  2  1  2  0
  3  2  1  0
  4  3  1  0
  5  4  1  6
  6  5  1  0
  7  6  2  0
  7  2  1  0
  8  7  1  0
  9  5  1  0
 10  9  2  0
 11 10  1  0
 12 11  1  0
 13 12  2  0
 13  5  1  0
 14 13  1  0
 15 14  2  0
 16 15  1  0
 17 16  1  0
 18 17  1  0
 19 14  1  0
 19 18  1  0
 20 19  2  0
 21 20  1  0
 21 12  1  0
 22 21  2  0
 23 20  1  0
 24 23  1  0
 24 18  2  0
  3 25  1  0
  3 26  1  0
  4 27  1  0
  4 28  1  0
  6 29  1  0
  9 30  1  0
 10 31  1  0
 11 32  1  0
 16 33  1  0
 16 34  1  0
 17 35  1  0
 17 36  1  0
 23 37  1  0
 24 38  1  0
M  END
>  <score>  (9) 
-8.671

$$$$
