=
     RDKit          3D

119127  0  0  0  0  0  0  0  0999 V2000
   -1.1840   62.9570   76.2750 C   0  0  0  0  0  0  0  0  0  0  0  0
   -2.1860   63.7370   76.8630 C   0  0  0  0  0  0  0  0  0  0  0  0
   -3.4950   63.2850   76.8610 C   0  0  0  0  0  0  0  0  0  0  0  0
   -4.6310   63.9090   77.4220 N   0  0  0  0  0  0  0  0  0  0  0  0
   -4.3820   64.8480   78.5200 C   0  0  0  0  0  0  0  0  0  0  0  0
   -5.5830   62.7690   77.6260 C   0  0  2  0  0  0  0  0  0  0  0  0
   -5.3250   61.8630   76.3860 C   0  0  1  0  0  0  0  0  0  0  0  0
   -3.8200   62.0790   76.2380 C   0  0  0  0  0  0  0  0  0  0  0  0
   -2.8420   61.2960   75.6190 C   0  0  0  0  0  0  0  0  0  0  0  0
   -1.4940   61.7190   75.6340 C   0  0  0  0  0  0  0  0  0  0  0  0
   -5.6990   60.3880   76.6030 C   0  0  0  0  0  0  0  0  0  0  0  0
   -6.7190   60.0500   75.5370 C   0  0  0  0  0  0  0  0  0  0  0  0
   -6.4240   61.0120   74.4190 N   0  0  2  0  0  4  0  0  0  0  0  0
   -6.0410   62.3540   75.0920 C   0  0  1  0  0  0  0  0  0  0  0  0
   -7.2380   63.4300   75.1590 C   0  0  2  0  0  0  0  0  0  0  0  0
   -7.3710   64.1440   76.5760 C   0  0  2  0  0  0  0  0  0  0  0  0
   -7.0730   63.1690   77.7270 C   0  0  1  0  0  0  0  0  0  0  0  0
   -8.5790   62.8470   74.6860 C   0  0  0  0  0  0  0  0  0  0  0  0
   -8.6800   61.8010   73.8530 C   0  0  0  0  0  0  0  0  0  0  0  0
   -7.4910   61.0630   73.3790 C   0  0  0  0  0  0  0  0  0  0  0  0
   -0.3020   60.8510   75.0330 C   0  0  1  0  0  0  0  0  0  0  0  0
   -0.8150   59.4920   74.3730 C   0  0  0  0  0  0  0  0  0  0  0  0
    0.0080   58.5390   73.4200 C   0  0  1  0  0  0  0  0  0  0  0  0
    1.2990   59.0290   72.7910 C   0  0  0  0  0  0  0  0  0  0  0  0
    2.3650   59.0590   73.8380 N   0  0  2  0  0  4  0  0  0  0  0  0
    3.4580   60.0570   73.5480 C   0  0  0  0  0  0  0  0  0  0  0  0
    3.0640   61.4780   74.0190 C   0  0  0  0  0  0  0  0  0  0  0  0
    1.7320   61.9810   73.5110 C   0  0  0  0  0  0  0  0  0  0  0  0
    0.4130   61.7050   73.9270 C   0  0  0  0  0  0  0  0  0  0  0  0
   -0.4040   62.4390   73.0760 N   0  0  0  0  0  0  0  0  0  0  0  0
    0.3070   63.1180   72.1280 C   0  0  0  0  0  0  0  0  0  0  0  0
    1.6480   62.8670   72.3730 C   0  0  0  0  0  0  0  0  0  0  0  0
    2.6020   63.4710   71.5230 C   0  0  0  0  0  0  0  0  0  0  0  0
    2.1760   64.2950   70.4750 C   0  0  0  0  0  0  0  0  0  0  0  0
    0.8210   64.5260   70.2630 C   0  0  0  0  0  0  0  0  0  0  0  0
   -0.1420   63.9420   71.0890 C   0  0  0  0  0  0  0  0  0  0  0  0
    2.7740   57.6480   74.1990 C   0  0  0  0  0  0  0  0  0  0  0  0
    1.5300   56.9320   74.8180 C   0  0  2  0  0  0  0  0  0  0  0  0
    0.2560   57.0990   73.9560 C   0  0  0  0  0  0  0  0  0  0  0  0
    1.2000   57.5910   76.0510 O   0  0  0  0  0  0  0  0  0  0  0  0
    1.8220   55.4560   75.1590 C   0  0  0  0  0  0  0  0  0  0  0  0
    1.8800   54.4980   73.9790 C   0  0  0  0  0  0  0  0  0  0  0  0
    0.5950   60.4500   76.2420 C   0  0  0  0  0  0  0  0  0  0  0  0
    1.8150   60.5850   76.2770 O   0  0  0  0  0  0  0  0  0  0  0  0
   -0.1080   59.7900   77.2100 O   0  0  0  0  0  0  0  0  0  0  0  0
    0.2380   60.1340   78.5530 C   0  0  0  0  0  0  0  0  0  0  0  0
    0.5230   64.5840   75.8680 C   0  0  0  0  0  0  0  0  0  0  0  0
    0.1470   63.2880   76.3260 O   0  0  0  0  0  0  0  0  0  0  0  0
   -7.8980   61.9890   77.5310 O   0  0  0  0  0  0  0  0  0  0  0  0
   -7.4120   63.6310   79.1610 C   0  0  0  0  0  0  0  0  0  0  0  0
   -7.3090   64.7700   79.5910 O   0  0  0  0  0  0  0  0  0  0  0  0
   -7.7260   62.5440   79.9340 O   0  0  0  0  0  0  0  0  0  0  0  0
   -8.8740   62.7380   80.7700 C   0  0  0  0  0  0  0  0  0  0  0  0
   -6.8650   64.5360   74.0930 C   0  0  0  0  0  0  0  0  0  0  0  0
   -6.0230   65.7180   74.5610 C   0  0  0  0  0  0  0  0  0  0  0  0
   -8.7070   64.7100   76.6930 O   0  0  0  0  0  0  0  0  0  0  0  0
   -8.8000   66.0710   76.6240 C   0  0  0  0  0  0  0  0  0  0  0  0
   -8.1370   66.8390   77.3030 O   0  0  0  0  0  0  0  0  0  0  0  0
   -9.8400   66.4760   75.6270 C   0  0  0  0  0  0  0  0  0  0  0  0
   -1.9353   64.7037   77.3242 H   0  0  0  0  0  0  0  0  0  0  0  0
   -4.5188   64.3321   79.4818 H   0  0  0  0  0  0  0  0  0  0  0  0
   -3.3520   65.2280   78.4510 H   0  0  0  0  0  0  0  0  0  0  0  0
   -5.0883   65.6884   78.4510 H   0  0  0  0  0  0  0  0  0  0  0  0
   -5.4009   62.2804   78.5946 H   0  0  0  0  0  0  0  0  0  0  0  0
   -3.1203   60.3548   75.1224 H   0  0  0  0  0  0  0  0  0  0  0  0
   -4.8098   59.7494   76.4961 H   0  0  0  0  0  0  0  0  0  0  0  0
   -6.1035   60.2212   77.6122 H   0  0  0  0  0  0  0  0  0  0  0  0
   -6.5981   59.0105   75.1982 H   0  0  0  0  0  0  0  0  0  0  0  0
   -7.7527   60.1366   75.9031 H   0  0  0  0  0  0  0  0  0  0  0  0
   -5.6283   60.6998   73.8443 H   0  0  0  0  0  0  0  0  0  0  0  0
   -5.3608   63.0118   74.5311 H   0  0  0  0  0  0  0  0  0  0  0  0
   -6.6264   64.9505   76.6469 H   0  0  0  0  0  0  0  0  0  0  0  0
   -9.5063   63.3130   75.0505 H   0  0  0  0  0  0  0  0  0  0  0  0
   -9.6767   61.4833   73.5128 H   0  0  0  0  0  0  0  0  0  0  0  0
   -7.7880   60.0355   73.1220 H   0  0  0  0  0  0  0  0  0  0  0  0
   -7.0889   61.5881   72.5000 H   0  0  0  0  0  0  0  0  0  0  0  0
   -1.1147   58.8584   75.2207 H   0  0  0  0  0  0  0  0  0  0  0  0
   -1.5298   59.9029   73.6449 H   0  0  0  0  0  0  0  0  0  0  0  0
   -0.7354   58.5372   72.6092 H   0  0  0  0  0  0  0  0  0  0  0  0
    1.5966   58.3480   71.9800 H   0  0  0  0  0  0  0  0  0  0  0  0
    1.1534   60.0379   72.3775 H   0  0  0  0  0  0  0  0  0  0  0  0
    1.9879   59.4486   74.7137 H   0  0  0  0  0  0  0  0  0  0  0  0
    4.3740   59.7472   74.0723 H   0  0  0  0  0  0  0  0  0  0  0  0
    3.6217   60.0854   72.4606 H   0  0  0  0  0  0  0  0  0  0  0  0
    3.0288   61.4740   75.1184 H   0  0  0  0  0  0  0  0  0  0  0  0
    3.8236   62.1572   73.6047 H   0  0  0  0  0  0  0  0  0  0  0  0
   -1.4308   62.4678   73.1516 H   0  0  0  0  0  0  0  0  0  0  0  0
    3.6756   63.2941   71.6846 H   0  0  0  0  0  0  0  0  0  0  0  0
    2.9192   64.7639   69.8134 H   0  0  0  0  0  0  0  0  0  0  0  0
    0.5039   65.1766   69.4347 H   0  0  0  0  0  0  0  0  0  0  0  0
   -1.2151   64.1230   70.9289 H   0  0  0  0  0  0  0  0  0  0  0  0
    3.1036   57.1118   73.2969 H   0  0  0  0  0  0  0  0  0  0  0  0
    3.6060   57.6619   74.9184 H   0  0  0  0  0  0  0  0  0  0  0  0
    0.3375   56.4228   73.0922 H   0  0  0  0  0  0  0  0  0  0  0  0
   -0.5934   56.8659   74.6149 H   0  0  0  0  0  0  0  0  0  0  0  0
    1.4829   57.0260   76.8131 H   0  0  0  0  0  0  0  0  0  0  0  0
    2.7933   55.4153   75.6736 H   0  0  0  0  0  0  0  0  0  0  0  0
    0.9731   55.1198   75.7725 H   0  0  0  0  0  0  0  0  0  0  0  0
    1.9426   53.4640   74.3489 H   0  0  0  0  0  0  0  0  0  0  0  0
    0.9732   54.6143   73.3673 H   0  0  0  0  0  0  0  0  0  0  0  0
    2.7662   54.7229   73.3673 H   0  0  0  0  0  0  0  0  0  0  0  0
   -0.3645   59.5350   79.2518 H   0  0  0  0  0  0  0  0  0  0  0  0
    1.3057   59.9290   78.7206 H   0  0  0  0  0  0  0  0  0  0  0  0
    0.0392   61.2028   78.7206 H   0  0  0  0  0  0  0  0  0  0  0  0
    0.7126   65.2376   76.7322 H   0  0  0  0  0  0  0  0  0  0  0  0
    1.4359   64.5072   75.2591 H   0  0  0  0  0  0  0  0  0  0  0  0
   -0.2893   65.0077   75.2591 H   0  0  0  0  0  0  0  0  0  0  0  0
   -8.1575   61.6178   78.4113 H   0  0  0  0  0  0  0  0  0  0  0  0
   -8.5712   62.6868   81.8263 H   0  0  0  0  0  0  0  0  0  0  0  0
   -9.3162   63.7236   80.5627 H   0  0  0  0  0  0  0  0  0  0  0  0
   -9.6155   61.9524   80.5627 H   0  0  0  0  0  0  0  0  0  0  0  0
   -6.3108   64.0382   73.2837 H   0  0  0  0  0  0  0  0  0  0  0  0
   -7.8294   64.9794   73.8043 H   0  0  0  0  0  0  0  0  0  0  0  0
   -6.0052   65.7430   75.6606 H   0  0  0  0  0  0  0  0  0  0  0  0
   -4.9967   65.6108   74.1800 H   0  0  0  0  0  0  0  0  0  0  0  0
   -6.4597   66.6530   74.1800 H   0  0  0  0  0  0  0  0  0  0  0  0
  -10.7386   66.8259   76.1562 H   0  0  0  0  0  0  0  0  0  0  0  0
   -9.4470   67.2868   74.9960 H   0  0  0  0  0  0  0  0  0  0  0  0
  -10.0988   65.6129   74.9960 H   0  0  0  0  0  0  0  0  0  0  0  0
  2  1  2  0
  3  2  1  0
  4  3  1  0
  5  4  1  0
  6  4  1  0
  7  6  1  0
  8  7  1  0
  8  3  2  0
  9  8  1  0
 10  9  2  0
 10  1  1  0
  7 11  1  1
 12 11  1  0
 13 12  1  0
 14 13  1  0
 14  7  1  0
 15 14  1  0
 16 15  1  0
 17 16  1  0
 17  6  1  0
 18 15  1  0
 19 18  2  0
 20 19  1  0
 20 13  1  0
 21 10  1  0
 22 21  1  0
 23 22  1  0
 24 23  1  0
 25 24  1  0
 26 25  1  0
 27 26  1  0
 28 27  1  0
 29 28  2  0
 29 21  1  0
 30 29  1  0
 31 30  1  0
 32 31  2  0
 32 28  1  0
 33 32  1  0
 34 33  2  0
 35 34  1  0
 36 35  2  0
 36 31  1  0
 37 25  1  0
 38 37  1  0
 39 38  1  0
 39 23  1  0
 38 40  1  1
 41 38  1  0
 42 41  1  0
 21 43  1  1
 44 43  2  0
 45 43  1  0
 46 45  1  0
 48 47  1  0
 48  1  1  0
 17 49  1  6
 50 17  1  0
 51 50  2  0
 52 50  1  0
 53 52  1  0
 15 54  1  6
 55 54  1  0
 56 16  1  0
 57 56  1  0
 58 57  2  0
 59 57  1  0
  2 60  1  0
  5 61  1  0
  5 62  1  0
  5 63  1  0
  6 64  1  1
  9 65  1  0
 11 66  1  0
 11 67  1  0
 12 68  1  0
 12 69  1  0
 13 70  1  6
 14 71  1  6
 16 72  1  6
 18 73  1  0
 19 74  1  0
 20 75  1  0
 20 76  1  0
 22 77  1  0
 22 78  1  0
 23 79  1  6
 24 80  1  0
 24 81  1  0
 25 82  1  1
 26 83  1  0
 26 84  1  0
 27 85  1  0
 27 86  1  0
 30 87  1  0
 33 88  1  0
 34 89  1  0
 35 90  1  0
 36 91  1  0
 37 92  1  0
 37 93  1  0
 39 94  1  0
 39 95  1  0
 40 96  1  0
 41 97  1  0
 41 98  1  0
 42 99  1  0
 42100  1  0
 42101  1  0
 46102  1  0
 46103  1  0
 46104  1  0
 47105  1  0
 47106  1  0
 47107  1  0
 49108  1  0
 53109  1  0
 53110  1  0
 53111  1  0
 54112  1  0
 54113  1  0
 55114  1  0
 55115  1  0
 55116  1  0
 59117  1  0
 59118  1  0
 59119  1  0
M  CHG  2  13   1  25   1
M  END
>  <score>  (1) 
-7.816

$$$$
=
     RDKit          3D

119127  0  0  0  0  0  0  0  0999 V2000
   -4.0260   60.3340   75.1340 C   0  0  0  0  0  0  0  0  0  0  0  0
   -5.2600   60.9840   75.2590 C   0  0  0  0  0  0  0  0  0  0  0  0
   -5.2990   62.3140   75.6440 C   0  0  0  0  0  0  0  0  0  0  0  0
   -6.4320   63.1410   75.7970 N   0  0  0  0  0  0  0  0  0  0  0  0
   -7.6240   62.7630   75.0310 C   0  0  0  0  0  0  0  0  0  0  0  0
   -5.8690   64.5230   75.6550 C   0  0  2  0  0  0  0  0  0  0  0  0
   -4.4810   64.4160   76.3530 C   0  0  1  0  0  0  0  0  0  0  0  0
   -4.1160   62.9900   75.9490 C   0  0  0  0  0  0  0  0  0  0  0  0
   -2.8750   62.3550   75.8600 C   0  0  0  0  0  0  0  0  0  0  0  0
   -2.8050   61.0080   75.4390 C   0  0  0  0  0  0  0  0  0  0  0  0
   -3.4580   65.4560   75.8680 C   0  0  0  0  0  0  0  0  0  0  0  0
   -3.0320   66.2340   77.0950 C   0  0  0  0  0  0  0  0  0  0  0  0
   -3.2550   65.2800   78.2370 N   0  0  2  0  0  4  0  0  0  0  0  0
   -4.5540   64.5040   77.9070 C   0  0  1  0  0  0  0  0  0  0  0  0
   -5.8700   65.0640   78.6500 C   0  0  2  0  0  0  0  0  0  0  0  0
   -7.1350   65.1910   77.6910 C   0  0  2  0  0  0  0  0  0  0  0  0
   -6.7270   65.6480   76.2800 C   0  0  1  0  0  0  0  0  0  0  0  0
   -5.6010   66.3690   79.4170 C   0  0  0  0  0  0  0  0  0  0  0  0
   -4.3900   66.7300   79.8630 C   0  0  0  0  0  0  0  0  0  0  0  0
   -3.1820   65.9280   79.5780 C   0  0  0  0  0  0  0  0  0  0  0  0
   -1.4310   60.2330   75.2250 C   0  0  1  0  0  0  0  0  0  0  0  0
   -1.6370   58.8150   74.5240 C   0  0  0  0  0  0  0  0  0  0  0  0
   -0.5150   57.9120   73.8770 C   0  0  1  0  0  0  0  0  0  0  0  0
    0.8560   58.4970   73.5910 C   0  0  0  0  0  0  0  0  0  0  0  0
    1.5930   58.6530   74.8830 N   0  0  2  0  0  4  0  0  0  0  0  0
    2.6410   59.7360   74.8450 C   0  0  0  0  0  0  0  0  0  0  0  0
    2.0240   61.1290   75.1170 C   0  0  0  0  0  0  0  0  0  0  0  0
    0.8450   61.4960   74.2460 C   0  0  0  0  0  0  0  0  0  0  0  0
   -0.5120   61.1150   74.3080 C   0  0  0  0  0  0  0  0  0  0  0  0
   -1.1220   61.7480   73.2320 N   0  0  0  0  0  0  0  0  0  0  0  0
   -0.2360   62.4590   72.4740 C   0  0  0  0  0  0  0  0  0  0  0  0
    1.0040   62.3370   73.0830 C   0  0  0  0  0  0  0  0  0  0  0  0
    2.1020   62.9990   72.4890 C   0  0  0  0  0  0  0  0  0  0  0  0
    1.9120   63.7510   71.3230 C   0  0  0  0  0  0  0  0  0  0  0  0
    0.6520   63.8530   70.7450 C   0  0  0  0  0  0  0  0  0  0  0  0
   -0.4500   63.2100   71.3120 C   0  0  0  0  0  0  0  0  0  0  0  0
    1.9970   57.2960   75.4130 C   0  0  0  0  0  0  0  0  0  0  0  0
    0.6920   56.4890   75.7130 C   0  0  2  0  0  0  0  0  0  0  0  0
   -0.3090   56.5160   74.5340 C   0  0  0  0  0  0  0  0  0  0  0  0
   -0.0110   57.1510   76.7770 O   0  0  0  0  0  0  0  0  0  0  0  0
    0.9950   55.0560   76.1970 C   0  0  0  0  0  0  0  0  0  0  0  0
    1.6610   54.1370   75.1830 C   0  0  0  0  0  0  0  0  0  0  0  0
   -0.8670   59.9490   76.6500 C   0  0  0  0  0  0  0  0  0  0  0  0
    0.2570   60.2670   77.0270 O   0  0  0  0  0  0  0  0  0  0  0  0
   -1.7090   59.1720   77.3930 O   0  0  0  0  0  0  0  0  0  0  0  0
   -1.8430   59.5600   78.7620 C   0  0  0  0  0  0  0  0  0  0  0  0
   -4.9110   58.1130   75.0220 C   0  0  0  0  0  0  0  0  0  0  0  0
   -3.9010   59.0520   74.6610 O   0  0  0  0  0  0  0  0  0  0  0  0
   -5.9130   66.8440   76.4220 O   0  0  0  0  0  0  0  0  0  0  0  0
   -7.8520   66.0700   75.3120 C   0  0  0  0  0  0  0  0  0  0  0  0
   -9.0450   66.1090   75.5710 O   0  0  0  0  0  0  0  0  0  0  0  0
   -7.3310   66.2750   74.0600 O   0  0  0  0  0  0  0  0  0  0  0  0
   -8.2480   65.9890   72.9960 C   0  0  0  0  0  0  0  0  0  0  0  0
   -6.2110   63.9910   79.7590 C   0  0  0  0  0  0  0  0  0  0  0  0
   -6.7660   62.6460   79.3000 C   0  0  0  0  0  0  0  0  0  0  0  0
   -8.0880   66.1130   78.2910 O   0  0  0  0  0  0  0  0  0  0  0  0
   -9.1580   65.5520   78.9290 C   0  0  0  0  0  0  0  0  0  0  0  0
   -9.8360   64.6480   78.4660 O   0  0  0  0  0  0  0  0  0  0  0  0
   -9.3890   66.2170   80.2490 C   0  0  0  0  0  0  0  0  0  0  0  0
   -6.1940   60.4409   75.0524 H   0  0  0  0  0  0  0  0  0  0  0  0
   -8.4384   62.5047   75.7238 H   0  0  0  0  0  0  0  0  0  0  0  0
   -7.9353   63.6065   74.3973 H   0  0  0  0  0  0  0  0  0  0  0  0
   -7.3924   61.8942   74.3973 H   0  0  0  0  0  0  0  0  0  0  0  0
   -5.8254   64.8174   74.5960 H   0  0  0  0  0  0  0  0  0  0  0  0
   -1.9556   62.9016   76.1167 H   0  0  0  0  0  0  0  0  0  0  0  0
   -2.5904   64.9546   75.4143 H   0  0  0  0  0  0  0  0  0  0  0  0
   -3.8913   66.1183   75.1040 H   0  0  0  0  0  0  0  0  0  0  0  0
   -1.9717   66.5190   77.0269 H   0  0  0  0  0  0  0  0  0  0  0  0
   -3.5954   67.1712   77.2146 H   0  0  0  0  0  0  0  0  0  0  0  0
   -2.4863   64.6000   78.3242 H   0  0  0  0  0  0  0  0  0  0  0  0
   -4.6425   63.4888   78.3213 H   0  0  0  0  0  0  0  0  0  0  0  0
   -7.6051   64.2029   77.5781 H   0  0  0  0  0  0  0  0  0  0  0  0
   -6.4486   67.0430   79.6102 H   0  0  0  0  0  0  0  0  0  0  0  0
   -4.2923   67.6498   80.4584 H   0  0  0  0  0  0  0  0  0  0  0  0
   -2.3014   66.5865   79.6085 H   0  0  0  0  0  0  0  0  0  0  0  0
   -3.1082   65.1364   80.3382 H   0  0  0  0  0  0  0  0  0  0  0  0
   -2.1044   58.1821   75.2927 H   0  0  0  0  0  0  0  0  0  0  0  0
   -2.1572   59.1390   73.6105 H   0  0  0  0  0  0  0  0  0  0  0  0
   -1.0092   57.8200   72.8986 H   0  0  0  0  0  0  0  0  0  0  0  0
    1.4146   57.8218   72.9260 H   0  0  0  0  0  0  0  0  0  0  0  0
    0.7496   59.4761   73.1011 H   0  0  0  0  0  0  0  0  0  0  0  0
    0.9638   59.0329   75.6046 H   0  0  0  0  0  0  0  0  0  0  0  0
    3.4012   59.5254   75.6117 H   0  0  0  0  0  0  0  0  0  0  0  0
    3.0912   59.7469   73.8414 H   0  0  0  0  0  0  0  0  0  0  0  0
    1.6925   61.1547   76.1656 H   0  0  0  0  0  0  0  0  0  0  0  0
    2.8121   61.8605   74.8850 H   0  0  0  0  0  0  0  0  0  0  0  0
   -2.1299   61.6877   73.0287 H   0  0  0  0  0  0  0  0  0  0  0  0
    3.1022   62.9239   72.9407 H   0  0  0  0  0  0  0  0  0  0  0  0
    2.7673   64.2654   70.8605 H   0  0  0  0  0  0  0  0  0  0  0  0
    0.5214   64.4480   69.8291 H   0  0  0  0  0  0  0  0  0  0  0  0
   -1.4505   63.2906   70.8619 H   0  0  0  0  0  0  0  0  0  0  0  0
    2.5999   56.7656   74.6612 H   0  0  0  0  0  0  0  0  0  0  0  0
    2.5985   57.4055   76.3275 H   0  0  0  0  0  0  0  0  0  0  0  0
    0.0569   55.8254   73.7600 H   0  0  0  0  0  0  0  0  0  0  0  0
   -1.2843   56.2265   74.9524 H   0  0  0  0  0  0  0  0  0  0  0  0
    0.3307   56.8292   77.6486 H   0  0  0  0  0  0  0  0  0  0  0  0
    1.6581   55.1292   77.0716 H   0  0  0  0  0  0  0  0  0  0  0  0
    0.0163   54.6019   76.4114 H   0  0  0  0  0  0  0  0  0  0  0  0
    2.2269   53.3561   75.7121 H   0  0  0  0  0  0  0  0  0  0  0  0
    0.8915   53.6683   74.5520 H   0  0  0  0  0  0  0  0  0  0  0  0
    2.3460   54.7224   74.5520 H   0  0  0  0  0  0  0  0  0  0  0  0
   -1.5531   58.7206   79.4111 H   0  0  0  0  0  0  0  0  0  0  0  0
   -1.1906   60.4222   78.9643 H   0  0  0  0  0  0  0  0  0  0  0  0
   -2.8885   59.8358   78.9643 H   0  0  0  0  0  0  0  0  0  0  0  0
   -4.9784   58.0503   76.1181 H   0  0  0  0  0  0  0  0  0  0  0  0
   -5.8785   58.4398   74.6132 H   0  0  0  0  0  0  0  0  0  0  0  0
   -4.6554   57.1243   74.6132 H   0  0  0  0  0  0  0  0  0  0  0  0
   -5.7795   67.0401   77.3832 H   0  0  0  0  0  0  0  0  0  0  0  0
   -9.2174   65.6866   73.4188 H   0  0  0  0  0  0  0  0  0  0  0  0
   -8.3825   66.8879   72.3764 H   0  0  0  0  0  0  0  0  0  0  0  0
   -7.8477   65.1730   72.3764 H   0  0  0  0  0  0  0  0  0  0  0  0
   -5.2848   63.7905   80.3175 H   0  0  0  0  0  0  0  0  0  0  0  0
   -7.0273   64.4437   80.3411 H   0  0  0  0  0  0  0  0  0  0  0  0
   -7.0184   62.0343   80.1787 H   0  0  0  0  0  0  0  0  0  0  0  0
   -7.6701   62.8096   78.6952 H   0  0  0  0  0  0  0  0  0  0  0  0
   -6.0096   62.1244   78.6952 H   0  0  0  0  0  0  0  0  0  0  0  0
   -9.1453   65.5156   81.0606 H   0  0  0  0  0  0  0  0  0  0  0  0
   -8.7473   67.1069   80.3285 H   0  0  0  0  0  0  0  0  0  0  0  0
  -10.4442   66.5175   80.3285 H   0  0  0  0  0  0  0  0  0  0  0  0
  2  1  2  0
  3  2  1  0
  4  3  1  0
  5  4  1  0
  6  4  1  0
  7  6  1  0
  8  7  1  0
  8  3  2  0
  9  8  1  0
 10  9  2  0
 10  1  1  0
  7 11  1  6
 12 11  1  0
 13 12  1  0
 14 13  1  0
 14  7  1  0
 15 14  1  0
 16 15  1  0
 17 16  1  0
 17  6  1  0
 18 15  1  0
 19 18  2  0
 20 19  1  0
 20 13  1  0
 21 10  1  0
 22 21  1  0
 23 22  1  0
 24 23  1  0
 25 24  1  0
 26 25  1  0
 27 26  1  0
 28 27  1  0
 29 28  2  0
 29 21  1  0
 30 29  1  0
 31 30  1  0
 32 31  2  0
 32 28  1  0
 33 32  1  0
 34 33  2  0
 35 34  1  0
 36 35  2  0
 36 31  1  0
 37 25  1  0
 38 37  1  0
 39 38  1  0
 39 23  1  0
 38 40  1  1
 41 38  1  0
 42 41  1  0
 21 43  1  1
 44 43  2  0
 45 43  1  0
 46 45  1  0
 48 47  1  0
 48  1  1  0
 17 49  1  1
 50 17  1  0
 51 50  2  0
 52 50  1  0
 53 52  1  0
 15 54  1  1
 55 54  1  0
 56 16  1  0
 57 56  1  0
 58 57  2  0
 59 57  1  0
  2 60  1  0
  5 61  1  0
  5 62  1  0
  5 63  1  0
  6 64  1  6
  9 65  1  0
 11 66  1  0
 11 67  1  0
 12 68  1  0
 12 69  1  0
 13 70  1  1
 14 71  1  1
 16 72  1  6
 18 73  1  0
 19 74  1  0
 20 75  1  0
 20 76  1  0
 22 77  1  0
 22 78  1  0
 23 79  1  6
 24 80  1  0
 24 81  1  0
 25 82  1  1
 26 83  1  0
 26 84  1  0
 27 85  1  0
 27 86  1  0
 30 87  1  0
 33 88  1  0
 34 89  1  0
 35 90  1  0
 36 91  1  0
 37 92  1  0
 37 93  1  0
 39 94  1  0
 39 95  1  0
 40 96  1  0
 41 97  1  0
 41 98  1  0
 42 99  1  0
 42100  1  0
 42101  1  0
 46102  1  0
 46103  1  0
 46104  1  0
 47105  1  0
 47106  1  0
 47107  1  0
 49108  1  0
 53109  1  0
 53110  1  0
 53111  1  0
 54112  1  0
 54113  1  0
 55114  1  0
 55115  1  0
 55116  1  0
 59117  1  0
 59118  1  0
 59119  1  0
M  CHG  2  13   1  25   1
M  END
>  <score>  (2) 
-6.466

$$$$
=
     RDKit          3D

119127  0  0  0  0  0  0  0  0999 V2000
   -1.6820   60.0840   77.6420 C   0  0  0  0  0  0  0  0  0  0  0  0
   -2.7270   60.7650   78.2780 C   0  0  0  0  0  0  0  0  0  0  0  0
   -4.0240   60.6170   77.8150 C   0  0  0  0  0  0  0  0  0  0  0  0
   -5.2030   61.1930   78.3350 N   0  0  0  0  0  0  0  0  0  0  0  0
   -5.1720   61.5760   79.7500 C   0  0  0  0  0  0  0  0  0  0  0  0
   -6.2800   60.2740   77.8410 C   0  0  2  0  0  0  0  0  0  0  0  0
   -5.7830   59.8750   76.4200 C   0  0  1  0  0  0  0  0  0  0  0  0
   -4.2820   59.8280   76.6930 C   0  0  0  0  0  0  0  0  0  0  0  0
   -3.2530   59.1620   76.0230 C   0  0  0  0  0  0  0  0  0  0  0  0
   -1.9250   59.2710   76.4940 C   0  0  0  0  0  0  0  0  0  0  0  0
   -6.3430   58.5340   75.9180 C   0  0  0  0  0  0  0  0  0  0  0  0
   -7.0640   58.8350   74.6220 C   0  0  0  0  0  0  0  0  0  0  0  0
   -6.3850   60.0710   74.0970 N   0  0  2  0  0  4  0  0  0  0  0  0
   -6.0710   60.9520   75.3310 C   0  0  1  0  0  0  0  0  0  0  0  0
   -7.1330   62.1360   75.5900 C   0  0  2  0  0  0  0  0  0  0  0  0
   -7.5750   62.2700   77.1140 C   0  0  2  0  0  0  0  0  0  0  0  0
   -7.6960   60.8930   77.7870 C   0  0  1  0  0  0  0  0  0  0  0  0
   -8.3450   62.0550   74.6490 C   0  0  0  0  0  0  0  0  0  0  0  0
   -8.3160   61.4470   73.4550 C   0  0  0  0  0  0  0  0  0  0  0  0
   -7.1200   60.7240   72.9750 C   0  0  0  0  0  0  0  0  0  0  0  0
   -0.7040   58.4780   75.8480 C   0  0  1  0  0  0  0  0  0  0  0  0
   -1.1830   57.3820   74.7930 C   0  0  0  0  0  0  0  0  0  0  0  0
   -0.2780   56.6300   73.7400 C   0  0  1  0  0  0  0  0  0  0  0  0
    1.1170   57.1440   73.4370 C   0  0  0  0  0  0  0  0  0  0  0  0
    2.0140   56.8110   74.5860 N   0  0  2  0  0  4  0  0  0  0  0  0
    3.1890   57.7470   74.7160 C   0  0  0  0  0  0  0  0  0  0  0  0
    2.8050   59.0330   75.4870 C   0  0  0  0  0  0  0  0  0  0  0  0
    1.5940   59.7660   74.9590 C   0  0  0  0  0  0  0  0  0  0  0  0
    0.2150   59.5150   75.1100 C   0  0  0  0  0  0  0  0  0  0  0  0
   -0.4250   60.5110   74.3820 N   0  0  0  0  0  0  0  0  0  0  0  0
    0.4560   61.3400   73.7470 C   0  0  0  0  0  0  0  0  0  0  0  0
    1.7300   60.9150   74.0930 C   0  0  0  0  0  0  0  0  0  0  0  0
    2.8320   61.6250   73.5650 C   0  0  0  0  0  0  0  0  0  0  0  0
    2.6130   62.7220   72.7240 C   0  0  0  0  0  0  0  0  0  0  0  0
    1.3200   63.1210   72.4030 C   0  0  0  0  0  0  0  0  0  0  0  0
    0.2140   62.4370   72.9120 C   0  0  0  0  0  0  0  0  0  0  0  0
    2.2870   55.3250   74.6150 C   0  0  0  0  0  0  0  0  0  0  0  0
    0.9280   54.5910   74.8540 C   0  0  2  0  0  0  0  0  0  0  0  0
   -0.1900   55.0850   73.9060 C   0  0  0  0  0  0  0  0  0  0  0  0
    0.4510   54.9440   76.1630 O   0  0  0  0  0  0  0  0  0  0  0  0
    1.0860   53.0570   74.8310 C   0  0  0  0  0  0  0  0  0  0  0  0
   -0.1120   52.2710   74.3190 C   0  0  0  0  0  0  0  0  0  0  0  0
   -0.0220   57.7050   77.0170 C   0  0  0  0  0  0  0  0  0  0  0  0
    1.1740   57.7660   77.2850 O   0  0  0  0  0  0  0  0  0  0  0  0
   -0.8770   56.8300   77.6250 O   0  0  0  0  0  0  0  0  0  0  0  0
   -0.6320   56.6090   79.0160 C   0  0  0  0  0  0  0  0  0  0  0  0
    0.2450   61.3680   78.2440 C   0  0  0  0  0  0  0  0  0  0  0  0
   -0.3890   60.1000   78.1030 O   0  0  0  0  0  0  0  0  0  0  0  0
   -8.5470   60.0650   76.9490 O   0  0  0  0  0  0  0  0  0  0  0  0
   -8.3640   60.8340   79.1770 C   0  0  0  0  0  0  0  0  0  0  0  0
   -8.4810   61.7660   79.9580 O   0  0  0  0  0  0  0  0  0  0  0  0
   -8.6990   59.5370   79.4730 O   0  0  0  0  0  0  0  0  0  0  0  0
   -8.2660   59.1070   80.7700 C   0  0  0  0  0  0  0  0  0  0  0  0
   -6.3800   63.4670   75.1870 C   0  0  0  0  0  0  0  0  0  0  0  0
   -5.0300   63.7450   75.8400 C   0  0  0  0  0  0  0  0  0  0  0  0
   -8.8320   63.0020   77.1750 O   0  0  0  0  0  0  0  0  0  0  0  0
   -8.7430   64.3470   77.3970 C   0  0  0  0  0  0  0  0  0  0  0  0
   -9.4250   65.1830   76.8250 O   0  0  0  0  0  0  0  0  0  0  0  0
   -7.6830   64.6430   78.4100 C   0  0  0  0  0  0  0  0  0  0  0  0
   -2.5190   61.4144   79.1411 H   0  0  0  0  0  0  0  0  0  0  0  0
   -5.2450   60.6742   80.3756 H   0  0  0  0  0  0  0  0  0  0  0  0
   -4.2287   62.0981   79.9680 H   0  0  0  0  0  0  0  0  0  0  0  0
   -6.0191   62.2430   79.9680 H   0  0  0  0  0  0  0  0  0  0  0  0
   -6.4159   59.4284   78.5313 H   0  0  0  0  0  0  0  0  0  0  0  0
   -3.4754   58.5554   75.1327 H   0  0  0  0  0  0  0  0  0  0  0  0
   -5.5241   57.8210   75.7419 H   0  0  0  0  0  0  0  0  0  0  0  0
   -7.0202   58.0810   76.6571 H   0  0  0  0  0  0  0  0  0  0  0  0
   -6.9564   58.0006   73.9134 H   0  0  0  0  0  0  0  0  0  0  0  0
   -8.1450   58.9785   74.7661 H   0  0  0  0  0  0  0  0  0  0  0  0
   -5.4968   59.8489   73.6251 H   0  0  0  0  0  0  0  0  0  0  0  0
   -5.2042   61.6245   75.2509 H   0  0  0  0  0  0  0  0  0  0  0  0
   -6.8032   62.8240   77.6684 H   0  0  0  0  0  0  0  0  0  0  0  0
   -9.2873   62.5212   74.9728 H   0  0  0  0  0  0  0  0  0  0  0  0
   -9.2087   61.4874   72.8135 H   0  0  0  0  0  0  0  0  0  0  0  0
   -7.4339   59.9521   72.2570 H   0  0  0  0  0  0  0  0  0  0  0  0
   -6.4459   61.4520   72.5001 H   0  0  0  0  0  0  0  0  0  0  0  0
   -1.6401   56.5847   75.3975 H   0  0  0  0  0  0  0  0  0  0  0  0
   -1.7571   58.0262   74.1108 H   0  0  0  0  0  0  0  0  0  0  0  0
   -0.8907   56.9002   72.8673 H   0  0  0  0  0  0  0  0  0  0  0  0
    1.4962   56.6663   72.5216 H   0  0  0  0  0  0  0  0  0  0  0  0
    1.0895   58.2335   73.2883 H   0  0  0  0  0  0  0  0  0  0  0  0
    1.5308   56.9988   75.4760 H   0  0  0  0  0  0  0  0  0  0  0  0
    3.9974   57.2334   75.2571 H   0  0  0  0  0  0  0  0  0  0  0  0
    3.5159   58.0341   73.7057 H   0  0  0  0  0  0  0  0  0  0  0  0
    2.6049   58.7553   76.5324 H   0  0  0  0  0  0  0  0  0  0  0  0
    3.6534   59.7231   75.3684 H   0  0  0  0  0  0  0  0  0  0  0  0
   -1.4485   60.6127   74.3273 H   0  0  0  0  0  0  0  0  0  0  0  0
    3.8581   61.3165   73.8141 H   0  0  0  0  0  0  0  0  0  0  0  0
    3.4714   63.2737   72.3131 H   0  0  0  0  0  0  0  0  0  0  0  0
    1.1667   63.9855   71.7404 H   0  0  0  0  0  0  0  0  0  0  0  0
   -0.8115   62.7494   72.6654 H   0  0  0  0  0  0  0  0  0  0  0  0
    2.7204   55.0059   73.6556 H   0  0  0  0  0  0  0  0  0  0  0  0
    2.9997   55.0821   75.4169 H   0  0  0  0  0  0  0  0  0  0  0  0
   -0.0146   54.6448   72.9133 H   0  0  0  0  0  0  0  0  0  0  0  0
   -1.1404   54.7706   74.3621 H   0  0  0  0  0  0  0  0  0  0  0  0
    1.0248   54.5194   76.8489 H   0  0  0  0  0  0  0  0  0  0  0  0
    1.9458   52.8168   74.1883 H   0  0  0  0  0  0  0  0  0  0  0  0
    1.2114   52.7559   75.8815 H   0  0  0  0  0  0  0  0  0  0  0  0
   -0.6925   51.8902   75.1722 H   0  0  0  0  0  0  0  0  0  0  0  0
   -0.7475   52.9283   73.7073 H   0  0  0  0  0  0  0  0  0  0  0  0
    0.2379   51.4264   73.7073 H   0  0  0  0  0  0  0  0  0  0  0  0
   -1.3185   57.2282   79.6121 H   0  0  0  0  0  0  0  0  0  0  0  0
   -0.7961   55.5475   79.2531 H   0  0  0  0  0  0  0  0  0  0  0  0
    0.4071   56.8813   79.2531 H   0  0  0  0  0  0  0  0  0  0  0  0
    0.3623   61.6025   79.3123 H   0  0  0  0  0  0  0  0  0  0  0  0
    1.2345   61.3386   77.7643 H   0  0  0  0  0  0  0  0  0  0  0  0
   -0.3722   62.1419   77.7643 H   0  0  0  0  0  0  0  0  0  0  0  0
   -9.1260   59.5017   77.5213 H   0  0  0  0  0  0  0  0  0  0  0  0
   -8.8211   59.6583   81.5433 H   0  0  0  0  0  0  0  0  0  0  0  0
   -8.4552   58.0291   80.8810 H   0  0  0  0  0  0  0  0  0  0  0  0
   -7.1894   59.3037   80.8810 H   0  0  0  0  0  0  0  0  0  0  0  0
   -6.2184   63.4363   74.0994 H   0  0  0  0  0  0  0  0  0  0  0  0
   -7.0337   64.2753   75.5466 H   0  0  0  0  0  0  0  0  0  0  0  0
   -5.1404   63.7223   76.9342 H   0  0  0  0  0  0  0  0  0  0  0  0
   -4.3068   62.9769   75.5284 H   0  0  0  0  0  0  0  0  0  0  0  0
   -4.6691   64.7363   75.5284 H   0  0  0  0  0  0  0  0  0  0  0  0
   -8.0996   64.5267   79.4214 H   0  0  0  0  0  0  0  0  0  0  0  0
   -6.8434   63.9450   78.2768 H   0  0  0  0  0  0  0  0  0  0  0  0
   -7.3265   65.6751   78.2768 H   0  0  0  0  0  0  0  0  0  0  0  0
  2  1  2  0
  3  2  1  0
  4  3  1  0
  5  4  1  0
  6  4  1  0
  7  6  1  0
  8  7  1  0
  8  3  2  0
  9  8  1  0
 10  9  2  0
 10  1  1  0
  7 11  1  6
 12 11  1  0
 13 12  1  0
 14 13  1  0
 14  7  1  0
 15 14  1  0
 16 15  1  0
 17 16  1  0
 17  6  1  0
 18 15  1  0
 19 18  2  0
 20 19  1  0
 20 13  1  0
 21 10  1  0
 22 21  1  0
 23 22  1  0
 24 23  1  0
 25 24  1  0
 26 25  1  0
 27 26  1  0
 28 27  1  0
 29 28  2  0
 29 21  1  0
 30 29  1  0
 31 30  1  0
 32 31  2  0
 32 28  1  0
 33 32  1  0
 34 33  2  0
 35 34  1  0
 36 35  2  0
 36 31  1  0
 37 25  1  0
 38 37  1  0
 39 38  1  0
 39 23  1  0
 38 40  1  1
 41 38  1  0
 42 41  1  0
 21 43  1  1
 44 43  2  0
 45 43  1  0
 46 45  1  0
 48 47  1  0
 48  1  1  0
 17 49  1  6
 50 17  1  0
 51 50  2  0
 52 50  1  0
 53 52  1  0
 15 54  1  6
 55 54  1  0
 56 16  1  0
 57 56  1  0
 58 57  2  0
 59 57  1  0
  2 60  1  0
  5 61  1  0
  5 62  1  0
  5 63  1  0
  6 64  1  1
  9 65  1  0
 11 66  1  0
 11 67  1  0
 12 68  1  0
 12 69  1  0
 13 70  1  6
 14 71  1  6
 16 72  1  1
 18 73  1  0
 19 74  1  0
 20 75  1  0
 20 76  1  0
 22 77  1  0
 22 78  1  0
 23 79  1  6
 24 80  1  0
 24 81  1  0
 25 82  1  1
 26 83  1  0
 26 84  1  0
 27 85  1  0
 27 86  1  0
 30 87  1  0
 33 88  1  0
 34 89  1  0
 35 90  1  0
 36 91  1  0
 37 92  1  0
 37 93  1  0
 39 94  1  0
 39 95  1  0
 40 96  1  0
 41 97  1  0
 41 98  1  0
 42 99  1  0
 42100  1  0
 42101  1  0
 46102  1  0
 46103  1  0
 46104  1  0
 47105  1  0
 47106  1  0
 47107  1  0
 49108  1  0
 53109  1  0
 53110  1  0
 53111  1  0
 54112  1  0
 54113  1  0
 55114  1  0
 55115  1  0
 55116  1  0
 59117  1  0
 59118  1  0
 59119  1  0
M  CHG  2  13   1  25   1
M  END
>  <score>  (3) 
-6.42

$$$$
=
     RDKit          3D

119127  0  0  0  0  0  0  0  0999 V2000
   -1.1080   57.3740   77.1660 C   0  0  0  0  0  0  0  0  0  0  0  0
   -2.3450   57.0440   77.7310 C   0  0  0  0  0  0  0  0  0  0  0  0
   -3.4990   57.6420   77.2510 C   0  0  0  0  0  0  0  0  0  0  0  0
   -4.8300   57.4210   77.6670 N   0  0  0  0  0  0  0  0  0  0  0  0
   -5.1100   56.1250   78.2940 C   0  0  0  0  0  0  0  0  0  0  0  0
   -5.6360   57.8600   76.4820 C   0  0  2  0  0  0  0  0  0  0  0  0
   -4.8410   59.0840   75.9430 C   0  0  1  0  0  0  0  0  0  0  0  0
   -3.4230   58.6020   76.2410 C   0  0  0  0  0  0  0  0  0  0  0  0
   -2.1970   58.9700   75.6810 C   0  0  0  0  0  0  0  0  0  0  0  0
   -1.0080   58.3520   76.1300 C   0  0  0  0  0  0  0  0  0  0  0  0
   -5.0740   59.3710   74.4500 C   0  0  0  0  0  0  0  0  0  0  0  0
   -5.5980   60.7890   74.3690 C   0  0  0  0  0  0  0  0  0  0  0  0
   -5.0510   61.4580   75.6010 N   0  0  2  0  0  4  0  0  0  0  0  0
   -5.1080   60.4020   76.7310 C   0  0  1  0  0  0  0  0  0  0  0  0
   -6.3800   60.5430   77.7100 C   0  0  2  0  0  0  0  0  0  0  0  0
   -7.0980   59.1560   78.0240 C   0  0  2  0  0  0  0  0  0  0  0  0
   -7.1050   58.2360   76.7920 C   0  0  1  0  0  0  0  0  0  0  0  0
   -7.3790   61.6060   77.2270 C   0  0  0  0  0  0  0  0  0  0  0  0
   -7.0410   62.6330   76.4340 C   0  0  0  0  0  0  0  0  0  0  0  0
   -5.6770   62.7820   75.8870 C   0  0  0  0  0  0  0  0  0  0  0  0
    0.4210   58.6440   75.4910 C   0  0  1  0  0  0  0  0  0  0  0  0
    0.3610   59.7690   74.3610 C   0  0  0  0  0  0  0  0  0  0  0  0
    1.5880   60.5370   73.7320 C   0  0  1  0  0  0  0  0  0  0  0  0
    2.9460   60.4750   74.4050 C   0  0  0  0  0  0  0  0  0  0  0  0
    3.5440   59.1260   74.1630 N   0  0  2  0  0  4  0  0  0  0  0  0
    4.5310   58.7110   75.2240 C   0  0  0  0  0  0  0  0  0  0  0  0
    3.8160   58.0880   76.4480 C   0  0  0  0  0  0  0  0  0  0  0  0
    2.7080   58.9260   77.0450 C   0  0  0  0  0  0  0  0  0  0  0  0
    1.3760   59.1350   76.6360 C   0  0  0  0  0  0  0  0  0  0  0  0
    0.8390   60.0220   77.5620 N   0  0  0  0  0  0  0  0  0  0  0  0
    1.7550   60.4190   78.4940 C   0  0  0  0  0  0  0  0  0  0  0  0
    2.9340   59.7460   78.2130 C   0  0  0  0  0  0  0  0  0  0  0  0
    4.0480   59.9810   79.0510 C   0  0  0  0  0  0  0  0  0  0  0  0
    3.9320   60.8690   80.1270 C   0  0  0  0  0  0  0  0  0  0  0  0
    2.7310   61.5220   80.3800 C   0  0  0  0  0  0  0  0  0  0  0  0
    1.6150   61.3070   79.5680 C   0  0  0  0  0  0  0  0  0  0  0  0
    3.9680   59.0020   72.7160 C   0  0  0  0  0  0  0  0  0  0  0  0
    2.6860   59.1120   71.8290 C   0  0  2  0  0  0  0  0  0  0  0  0
    1.8050   60.3280   72.2050 C   0  0  0  0  0  0  0  0  0  0  0  0
    1.8480   57.9790   72.1080 O   0  0  0  0  0  0  0  0  0  0  0  0
    3.0180   59.0670   70.3230 C   0  0  0  0  0  0  0  0  0  0  0  0
    3.4860   60.3770   69.7050 C   0  0  0  0  0  0  0  0  0  0  0  0
    0.8570   57.3250   74.7860 C   0  0  0  0  0  0  0  0  0  0  0  0
    1.9610   56.8020   74.9130 O   0  0  0  0  0  0  0  0  0  0  0  0
   -0.0740   56.8880   73.8870 O   0  0  0  0  0  0  0  0  0  0  0  0
   -0.3090   55.4780   73.8940 C   0  0  0  0  0  0  0  0  0  0  0  0
    0.0210   55.3470   77.7510 C   0  0  0  0  0  0  0  0  0  0  0  0
    0.0640   56.7520   77.5180 O   0  0  0  0  0  0  0  0  0  0  0  0
   -7.6460   58.9950   75.6770 O   0  0  0  0  0  0  0  0  0  0  0  0
   -7.9860   56.9710   76.8500 C   0  0  0  0  0  0  0  0  0  0  0  0
   -8.6330   56.5030   75.9250 O   0  0  0  0  0  0  0  0  0  0  0  0
   -8.0450   56.5080   78.1390 O   0  0  0  0  0  0  0  0  0  0  0  0
   -9.2070   55.7170   78.4200 C   0  0  0  0  0  0  0  0  0  0  0  0
   -5.7990   61.1040   79.0700 C   0  0  0  0  0  0  0  0  0  0  0  0
   -4.3080   60.9190   79.3350 C   0  0  0  0  0  0  0  0  0  0  0  0
   -8.4490   59.4230   78.4930 O   0  0  0  0  0  0  0  0  0  0  0  0
   -8.6360   59.4150   79.8460 C   0  0  0  0  0  0  0  0  0  0  0  0
   -8.1070   58.6190   80.6070 O   0  0  0  0  0  0  0  0  0  0  0  0
   -9.5930   60.4910   80.2510 C   0  0  0  0  0  0  0  0  0  0  0  0
   -2.4009   56.3138   78.5518 H   0  0  0  0  0  0  0  0  0  0  0  0
   -5.0864   56.2344   79.3883 H   0  0  0  0  0  0  0  0  0  0  0  0
   -6.1047   55.7740   77.9820 H   0  0  0  0  0  0  0  0  0  0  0  0
   -4.3489   55.3947   77.9820 H   0  0  0  0  0  0  0  0  0  0  0  0
   -5.7473   57.0363   75.7615 H   0  0  0  0  0  0  0  0  0  0  0  0
   -2.1574   59.7375   74.8940 H   0  0  0  0  0  0  0  0  0  0  0  0
   -4.1300   59.2809   73.8926 H   0  0  0  0  0  0  0  0  0  0  0  0
   -5.7845   58.6555   74.0105 H   0  0  0  0  0  0  0  0  0  0  0  0
   -5.2324   61.2882   73.4595 H   0  0  0  0  0  0  0  0  0  0  0  0
   -6.6962   60.8293   74.3211 H   0  0  0  0  0  0  0  0  0  0  0  0
   -4.0695   61.7448   75.4776 H   0  0  0  0  0  0  0  0  0  0  0  0
   -4.3638   60.4990   77.5352 H   0  0  0  0  0  0  0  0  0  0  0  0
   -6.5378   58.6267   78.8089 H   0  0  0  0  0  0  0  0  0  0  0  0
   -8.4273   61.5198   77.5490 H   0  0  0  0  0  0  0  0  0  0  0  0
   -7.8019   63.3868   76.1834 H   0  0  0  0  0  0  0  0  0  0  0  0
   -5.7283   63.3615   74.9534 H   0  0  0  0  0  0  0  0  0  0  0  0
   -5.0605   63.2986   76.6373 H   0  0  0  0  0  0  0  0  0  0  0  0
   -0.1437   59.2907   73.5086 H   0  0  0  0  0  0  0  0  0  0  0  0
   -0.0855   60.5878   74.9442 H   0  0  0  0  0  0  0  0  0  0  0  0
    1.1969   61.5432   73.9432 H   0  0  0  0  0  0  0  0  0  0  0  0
    3.6025   61.2510   73.9845 H   0  0  0  0  0  0  0  0  0  0  0  0
    2.8349   60.6455   75.4860 H   0  0  0  0  0  0  0  0  0  0  0  0
    2.8273   58.3963   74.2845 H   0  0  0  0  0  0  0  0  0  0  0  0
    5.2234   57.9697   74.7984 H   0  0  0  0  0  0  0  0  0  0  0  0
    5.0753   59.6060   75.5596 H   0  0  0  0  0  0  0  0  0  0  0  0
    3.3838   57.1259   76.1357 H   0  0  0  0  0  0  0  0  0  0  0  0
    4.5819   57.9935   77.2319 H   0  0  0  0  0  0  0  0  0  0  0  0
   -0.1394   60.3435   77.5469 H   0  0  0  0  0  0  0  0  0  0  0  0
    5.0019   59.4683   78.8584 H   0  0  0  0  0  0  0  0  0  0  0  0
    4.7993   61.0518   80.7784 H   0  0  0  0  0  0  0  0  0  0  0  0
    2.6587   62.2165   81.2300 H   0  0  0  0  0  0  0  0  0  0  0  0
    0.6604   61.8168   79.7650 H   0  0  0  0  0  0  0  0  0  0  0  0
    4.6692   59.8104   72.4614 H   0  0  0  0  0  0  0  0  0  0  0  0
    4.4708   58.0387   72.5451 H   0  0  0  0  0  0  0  0  0  0  0  0
    2.2825   61.2330   71.8013 H   0  0  0  0  0  0  0  0  0  0  0  0
    0.8108   60.1307   71.7777 H   0  0  0  0  0  0  0  0  0  0  0  0
    1.7633   57.8645   73.0877 H   0  0  0  0  0  0  0  0  0  0  0  0
    3.8136   58.3218   70.1756 H   0  0  0  0  0  0  0  0  0  0  0  0
    2.0726   58.8208   69.8174 H   0  0  0  0  0  0  0  0  0  0  0  0
    3.7404   61.0891   70.5039 H   0  0  0  0  0  0  0  0  0  0  0  0
    4.3737   60.1921   69.0822 H   0  0  0  0  0  0  0  0  0  0  0  0
    2.6821   60.7965   69.0822 H   0  0  0  0  0  0  0  0  0  0  0  0
   -0.3684   55.1213   74.9329 H   0  0  0  0  0  0  0  0  0  0  0  0
   -1.2556   55.2615   73.3773 H   0  0  0  0  0  0  0  0  0  0  0  0
    0.5162   54.9662   73.3773 H   0  0  0  0  0  0  0  0  0  0  0  0
    0.0151   55.1550   78.8341 H   0  0  0  0  0  0  0  0  0  0  0  0
   -0.8904   54.9282   77.2994 H   0  0  0  0  0  0  0  0  0  0  0  0
    0.9051   54.8732   77.2994 H   0  0  0  0  0  0  0  0  0  0  0  0
   -8.1845   59.7505   76.0225 H   0  0  0  0  0  0  0  0  0  0  0  0
   -9.3362   55.6291   79.5088 H   0  0  0  0  0  0  0  0  0  0  0  0
  -10.0937   56.1999   77.9834 H   0  0  0  0  0  0  0  0  0  0  0  0
   -9.0828   54.7150   77.9834 H   0  0  0  0  0  0  0  0  0  0  0  0
   -6.0053   62.1842   79.0945 H   0  0  0  0  0  0  0  0  0  0  0  0
   -6.2957   60.5090   79.8506 H   0  0  0  0  0  0  0  0  0  0  0  0
   -4.1284   60.8967   80.4200 H   0  0  0  0  0  0  0  0  0  0  0  0
   -3.9709   59.9721   78.8880 H   0  0  0  0  0  0  0  0  0  0  0  0
   -3.7497   61.7548   78.8880 H   0  0  0  0  0  0  0  0  0  0  0  0
   -9.6410   60.5449   81.3486 H   0  0  0  0  0  0  0  0  0  0  0  0
   -9.2498   61.4565   79.8511 H   0  0  0  0  0  0  0  0  0  0  0  0
  -10.5920   60.2628   79.8511 H   0  0  0  0  0  0  0  0  0  0  0  0
  2  1  2  0
  3  2  1  0
  4  3  1  0
  5  4  1  0
  6  4  1  0
  7  6  1  0
  8  7  1  0
  8  3  2  0
  9  8  1  0
 10  9  2  0
 10  1  1  0
  7 11  1  6
 12 11  1  0
 13 12  1  0
 14 13  1  0
 14  7  1  0
 15 14  1  0
 16 15  1  0
 17 16  1  0
 17  6  1  0
 18 15  1  0
 19 18  2  0
 20 19  1  0
 20 13  1  0
 21 10  1  0
 22 21  1  0
 23 22  1  0
 24 23  1  0
 25 24  1  0
 26 25  1  0
 27 26  1  0
 28 27  1  0
 29 28  2  0
 29 21  1  0
 30 29  1  0
 31 30  1  0
 32 31  2  0
 32 28  1  0
 33 32  1  0
 34 33  2  0
 35 34  1  0
 36 35  2  0
 36 31  1  0
 37 25  1  0
 38 37  1  0
 39 38  1  0
 39 23  1  0
 38 40  1  1
 41 38  1  0
 42 41  1  0
 21 43  1  6
 44 43  2  0
 45 43  1  0
 46 45  1  0
 48 47  1  0
 48  1  1  0
 17 49  1  6
 50 17  1  0
 51 50  2  0
 52 50  1  0
 53 52  1  0
 15 54  1  1
 55 54  1  0
 56 16  1  0
 57 56  1  0
 58 57  2  0
 59 57  1  0
  2 60  1  0
  5 61  1  0
  5 62  1  0
  5 63  1  0
  6 64  1  6
  9 65  1  0
 11 66  1  0
 11 67  1  0
 12 68  1  0
 12 69  1  0
 13 70  1  6
 14 71  1  1
 16 72  1  1
 18 73  1  0
 19 74  1  0
 20 75  1  0
 20 76  1  0
 22 77  1  0
 22 78  1  0
 23 79  1  6
 24 80  1  0
 24 81  1  0
 25 82  1  6
 26 83  1  0
 26 84  1  0
 27 85  1  0
 27 86  1  0
 30 87  1  0
 33 88  1  0
 34 89  1  0
 35 90  1  0
 36 91  1  0
 37 92  1  0
 37 93  1  0
 39 94  1  0
 39 95  1  0
 40 96  1  0
 41 97  1  0
 41 98  1  0
 42 99  1  0
 42100  1  0
 42101  1  0
 46102  1  0
 46103  1  0
 46104  1  0
 47105  1  0
 47106  1  0
 47107  1  0
 49108  1  0
 53109  1  0
 53110  1  0
 53111  1  0
 54112  1  0
 54113  1  0
 55114  1  0
 55115  1  0
 55116  1  0
 59117  1  0
 59118  1  0
 59119  1  0
M  CHG  2  13   1  25   1
M  END
>  <score>  (4) 
-6.278

$$$$
=
     RDKit          3D

119127  0  0  0  0  0  0  0  0999 V2000
   -5.8110   61.0640   74.6580 C   0  0  0  0  0  0  0  0  0  0  0  0
   -4.7250   60.1810   74.6390 C   0  0  0  0  0  0  0  0  0  0  0  0
   -3.5270   60.5570   75.2230 C   0  0  0  0  0  0  0  0  0  0  0  0
   -2.3370   59.8020   75.3290 N   0  0  0  0  0  0  0  0  0  0  0  0
   -2.4840   58.3440   75.2800 C   0  0  0  0  0  0  0  0  0  0  0  0
   -1.6320   60.4360   76.4900 C   0  0  2  0  0  0  0  0  0  0  0  0
   -1.9660   61.9480   76.3270 C   0  0  1  0  0  0  0  0  0  0  0  0
   -3.3890   61.8260   75.7870 C   0  0  0  0  0  0  0  0  0  0  0  0
   -4.4490   62.7360   75.7920 C   0  0  0  0  0  0  0  0  0  0  0  0
   -5.6920   62.3650   75.2320 C   0  0  0  0  0  0  0  0  0  0  0  0
   -1.8900   62.7480   77.6380 C   0  0  0  0  0  0  0  0  0  0  0  0
   -0.8770   63.8480   77.4040 C   0  0  0  0  0  0  0  0  0  0  0  0
   -0.9070   64.0720   75.9160 N   0  0  2  0  0  4  0  0  0  0  0  0
   -1.0800   62.6750   75.2710 C   0  0  1  0  0  0  0  0  0  0  0  0
    0.2900   62.0150   74.7360 C   0  0  2  0  0  0  0  0  0  0  0  0
    0.4520   60.4810   75.1310 C   0  0  2  0  0  0  0  0  0  0  0  0
   -0.1040   60.2010   76.5360 C   0  0  1  0  0  0  0  0  0  0  0  0
    1.5280   62.8390   75.1230 C   0  0  0  0  0  0  0  0  0  0  0  0
    1.4910   64.1510   75.3920 C   0  0  0  0  0  0  0  0  0  0  0  0
    0.2220   64.9080   75.4160 C   0  0  0  0  0  0  0  0  0  0  0  0
   -6.9790   63.3030   75.2720 C   0  0  1  0  0  0  0  0  0  0  0  0
   -7.8830   63.1480   73.9670 C   0  0  0  0  0  0  0  0  0  0  0  0
   -9.3640   63.6620   73.7810 C   0  0  1  0  0  0  0  0  0  0  0  0
  -10.1740   64.0900   74.9910 C   0  0  0  0  0  0  0  0  0  0  0  0
   -9.6720   65.4170   75.4640 N   0  0  2  0  0  4  0  0  0  0  0  0
   -9.9220   65.6610   76.9310 C   0  0  0  0  0  0  0  0  0  0  0  0
   -8.8200   65.0170   77.8060 C   0  0  0  0  0  0  0  0  0  0  0  0
   -8.5600   63.5510   77.5450 C   0  0  0  0  0  0  0  0  0  0  0  0
   -7.8350   62.9020   76.5250 C   0  0  0  0  0  0  0  0  0  0  0  0
   -7.9620   61.5440   76.7880 N   0  0  0  0  0  0  0  0  0  0  0  0
   -8.7540   61.2950   77.8730 C   0  0  0  0  0  0  0  0  0  0  0  0
   -9.1380   62.5260   78.3830 C   0  0  0  0  0  0  0  0  0  0  0  0
   -9.9650   62.5400   79.5290 C   0  0  0  0  0  0  0  0  0  0  0  0
  -10.3660   61.3320   80.1110 C   0  0  0  0  0  0  0  0  0  0  0  0
   -9.9560   60.1170   79.5740 C   0  0  0  0  0  0  0  0  0  0  0  0
   -9.1380   60.0750   78.4420 C   0  0  0  0  0  0  0  0  0  0  0  0
  -10.0740   66.4990   74.4880 C   0  0  0  0  0  0  0  0  0  0  0  0
   -9.3800   66.1960   73.1210 C   0  0  2  0  0  0  0  0  0  0  0  0
   -9.5740   64.7290   72.6670 C   0  0  0  0  0  0  0  0  0  0  0  0
   -7.9600   66.3160   73.3020 O   0  0  0  0  0  0  0  0  0  0  0  0
   -9.7830   67.2090   72.0300 C   0  0  0  0  0  0  0  0  0  0  0  0
  -10.3010   66.6160   70.7280 C   0  0  0  0  0  0  0  0  0  0  0  0
   -6.4480   64.7680   75.2750 C   0  0  0  0  0  0  0  0  0  0  0  0
   -5.9490   65.3270   74.3030 O   0  0  0  0  0  0  0  0  0  0  0  0
   -6.4590   65.3180   76.5260 O   0  0  0  0  0  0  0  0  0  0  0  0
   -5.4750   66.3290   76.7530 C   0  0  0  0  0  0  0  0  0  0  0  0
   -7.1290   59.7960   73.1140 C   0  0  0  0  0  0  0  0  0  0  0  0
   -7.0570   60.7260   74.1910 O   0  0  0  0  0  0  0  0  0  0  0  0
    0.4980   61.1590   77.4490 O   0  0  0  0  0  0  0  0  0  0  0  0
    0.2110   58.8290   77.1690 C   0  0  0  0  0  0  0  0  0  0  0  0
    0.6440   57.8490   76.5810 O   0  0  0  0  0  0  0  0  0  0  0  0
   -0.1900   58.8220   78.4800 O   0  0  0  0  0  0  0  0  0  0  0  0
   -0.8760   57.6250   78.8710 C   0  0  0  0  0  0  0  0  0  0  0  0
    0.2070   62.1030   73.1600 C   0  0  0  0  0  0  0  0  0  0  0  0
   -1.0910   61.6610   72.4910 C   0  0  0  0  0  0  0  0  0  0  0  0
    1.8580   60.1180   75.0350 O   0  0  0  0  0  0  0  0  0  0  0  0
    2.2400   59.4540   73.9040 C   0  0  0  0  0  0  0  0  0  0  0  0
    3.3450   59.5500   73.3930 O   0  0  0  0  0  0  0  0  0  0  0  0
    1.1120   58.6250   73.3760 C   0  0  0  0  0  0  0  0  0  0  0  0
   -4.8227   59.1942   74.1629 H   0  0  0  0  0  0  0  0  0  0  0  0
   -2.5242   57.9449   76.3043 H   0  0  0  0  0  0  0  0  0  0  0  0
   -3.4126   58.0867   74.7495 H   0  0  0  0  0  0  0  0  0  0  0  0
   -1.6254   57.9065   74.7495 H   0  0  0  0  0  0  0  0  0  0  0  0
   -1.9705   59.9936   77.4385 H   0  0  0  0  0  0  0  0  0  0  0  0
   -4.3165   63.7364   76.2298 H   0  0  0  0  0  0  0  0  0  0  0  0
   -2.8727   63.1797   77.8787 H   0  0  0  0  0  0  0  0  0  0  0  0
   -1.5971   62.1066   78.4823 H   0  0  0  0  0  0  0  0  0  0  0  0
   -1.1649   64.7635   77.9416 H   0  0  0  0  0  0  0  0  0  0  0  0
    0.1257   63.5798   77.7681 H   0  0  0  0  0  0  0  0  0  0  0  0
   -1.7040   64.6595   75.6323 H   0  0  0  0  0  0  0  0  0  0  0  0
   -1.5839   62.6413   74.2938 H   0  0  0  0  0  0  0  0  0  0  0  0
   -0.1322   59.8629   74.4333 H   0  0  0  0  0  0  0  0  0  0  0  0
    2.4978   62.3234   75.1824 H   0  0  0  0  0  0  0  0  0  0  0  0
    2.4325   64.6801   75.6011 H   0  0  0  0  0  0  0  0  0  0  0  0
    0.3393   65.7805   76.0755 H   0  0  0  0  0  0  0  0  0  0  0  0
   -0.0111   65.2211   74.3876 H   0  0  0  0  0  0  0  0  0  0  0  0
   -7.3096   63.6333   73.1634 H   0  0  0  0  0  0  0  0  0  0  0  0
   -8.0709   62.0648   74.0048 H   0  0  0  0  0  0  0  0  0  0  0  0
   -9.7735   62.6871   73.4779 H   0  0  0  0  0  0  0  0  0  0  0  0
  -11.2353   64.1738   74.7143 H   0  0  0  0  0  0  0  0  0  0  0  0
  -10.0695   63.3442   75.7928 H   0  0  0  0  0  0  0  0  0  0  0  0
   -8.6422   65.4300   75.4494 H   0  0  0  0  0  0  0  0  0  0  0  0
   -9.9379   66.7452   77.1159 H   0  0  0  0  0  0  0  0  0  0  0  0
  -10.8869   65.2054   77.1984 H   0  0  0  0  0  0  0  0  0  0  0  0
   -7.8827   65.5648   77.6291 H   0  0  0  0  0  0  0  0  0  0  0  0
   -9.1801   65.0813   78.8434 H   0  0  0  0  0  0  0  0  0  0  0  0
   -7.5098   60.8074   76.2278 H   0  0  0  0  0  0  0  0  0  0  0  0
  -10.2923   63.4968   79.9619 H   0  0  0  0  0  0  0  0  0  0  0  0
  -11.0116   61.3440   81.0016 H   0  0  0  0  0  0  0  0  0  0  0  0
  -10.2794   59.1775   80.0459 H   0  0  0  0  0  0  0  0  0  0  0  0
   -8.8076   59.1174   78.0132 H   0  0  0  0  0  0  0  0  0  0  0  0
  -11.1666   66.4998   74.3602 H   0  0  0  0  0  0  0  0  0  0  0  0
   -9.7664   67.4863   74.8630 H   0  0  0  0  0  0  0  0  0  0  0  0
  -10.5992   64.6236   72.2825 H   0  0  0  0  0  0  0  0  0  0  0  0
   -8.8010   64.5373   71.9083 H   0  0  0  0  0  0  0  0  0  0  0  0
   -7.7510   66.3337   74.2695 H   0  0  0  0  0  0  0  0  0  0  0  0
  -10.5726   67.8533   72.4441 H   0  0  0  0  0  0  0  0  0  0  0  0
   -8.8587   67.7435   71.7655 H   0  0  0  0  0  0  0  0  0  0  0  0
  -11.0096   65.8048   70.9509 H   0  0  0  0  0  0  0  0  0  0  0  0
  -10.8103   67.3981   70.1459 H   0  0  0  0  0  0  0  0  0  0  0  0
   -9.4575   66.2164   70.1459 H   0  0  0  0  0  0  0  0  0  0  0  0
   -5.3374   66.4704   77.8352 H   0  0  0  0  0  0  0  0  0  0  0  0
   -4.5214   66.0210   76.2993 H   0  0  0  0  0  0  0  0  0  0  0  0
   -5.8087   67.2739   76.2993 H   0  0  0  0  0  0  0  0  0  0  0  0
   -7.2080   58.7751   73.5158 H   0  0  0  0  0  0  0  0  0  0  0  0
   -8.0127   60.0168   72.4974 H   0  0  0  0  0  0  0  0  0  0  0  0
   -6.2218   59.8781   72.4974 H   0  0  0  0  0  0  0  0  0  0  0  0
    0.3228   60.8802   78.3826 H   0  0  0  0  0  0  0  0  0  0  0  0
   -0.9108   57.5643   79.9688 H   0  0  0  0  0  0  0  0  0  0  0  0
   -1.9010   57.6428   78.4721 H   0  0  0  0  0  0  0  0  0  0  0  0
   -0.3425   56.7497   78.4721 H   0  0  0  0  0  0  0  0  0  0  0  0
    0.3795   63.1528   72.8803 H   0  0  0  0  0  0  0  0  0  0  0  0
    0.9613   61.3869   72.8021 H   0  0  0  0  0  0  0  0  0  0  0  0
   -1.8334   61.4082   73.2623 H   0  0  0  0  0  0  0  0  0  0  0  0
   -1.4772   62.4783   71.8642 H   0  0  0  0  0  0  0  0  0  0  0  0
   -0.8982   60.7779   71.8642 H   0  0  0  0  0  0  0  0  0  0  0  0
    0.5406   58.2051   74.2170 H   0  0  0  0  0  0  0  0  0  0  0  0
    0.4511   59.2539   72.7614 H   0  0  0  0  0  0  0  0  0  0  0  0
    1.5149   57.8065   72.7614 H   0  0  0  0  0  0  0  0  0  0  0  0
  2  1  2  0
  3  2  1  0
  4  3  1  0
  5  4  1  0
  6  4  1  0
  7  6  1  0
  8  7  1  0
  8  3  2  0
  9  8  1  0
 10  9  2  0
 10  1  1  0
  7 11  1  1
 12 11  1  0
 13 12  1  0
 14 13  1  0
 14  7  1  0
 15 14  1  0
 16 15  1  0
 17 16  1  0
 17  6  1  0
 18 15  1  0
 19 18  2  0
 20 19  1  0
 20 13  1  0
 21 10  1  0
 22 21  1  0
 23 22  1  0
 24 23  1  0
 25 24  1  0
 26 25  1  0
 27 26  1  0
 28 27  1  0
 29 28  2  0
 29 21  1  0
 30 29  1  0
 31 30  1  0
 32 31  2  0
 32 28  1  0
 33 32  1  0
 34 33  2  0
 35 34  1  0
 36 35  2  0
 36 31  1  0
 37 25  1  0
 38 37  1  0
 39 38  1  0
 39 23  1  0
 38 40  1  1
 41 38  1  0
 42 41  1  0
 21 43  1  1
 44 43  2  0
 45 43  1  0
 46 45  1  0
 48 47  1  0
 48  1  1  0
 17 49  1  1
 50 17  1  0
 51 50  2  0
 52 50  1  0
 53 52  1  0
 15 54  1  6
 55 54  1  0
 56 16  1  0
 57 56  1  0
 58 57  2  0
 59 57  1  0
  2 60  1  0
  5 61  1  0
  5 62  1  0
  5 63  1  0
  6 64  1  1
  9 65  1  0
 11 66  1  0
 11 67  1  0
 12 68  1  0
 12 69  1  0
 13 70  1  1
 14 71  1  6
 16 72  1  6
 18 73  1  0
 19 74  1  0
 20 75  1  0
 20 76  1  0
 22 77  1  0
 22 78  1  0
 23 79  1  6
 24 80  1  0
 24 81  1  0
 25 82  1  1
 26 83  1  0
 26 84  1  0
 27 85  1  0
 27 86  1  0
 30 87  1  0
 33 88  1  0
 34 89  1  0
 35 90  1  0
 36 91  1  0
 37 92  1  0
 37 93  1  0
 39 94  1  0
 39 95  1  0
 40 96  1  0
 41 97  1  0
 41 98  1  0
 42 99  1  0
 42100  1  0
 42101  1  0
 46102  1  0
 46103  1  0
 46104  1  0
 47105  1  0
 47106  1  0
 47107  1  0
 49108  1  0
 53109  1  0
 53110  1  0
 53111  1  0
 54112  1  0
 54113  1  0
 55114  1  0
 55115  1  0
 55116  1  0
 59117  1  0
 59118  1  0
 59119  1  0
M  CHG  2  13   1  25   1
M  END
>  <score>  (5) 
-6.052

$$$$
=
     RDKit          3D

119127  0  0  0  0  0  0  0  0999 V2000
   -4.9460   59.1520   74.8610 C   0  0  0  0  0  0  0  0  0  0  0  0
   -3.7740   58.3870   74.8690 C   0  0  0  0  0  0  0  0  0  0  0  0
   -2.7830   58.6620   75.7970 C   0  0  0  0  0  0  0  0  0  0  0  0
   -1.5530   57.9920   75.9800 N   0  0  0  0  0  0  0  0  0  0  0  0
   -1.4950   56.6010   75.5180 C   0  0  0  0  0  0  0  0  0  0  0  0
   -1.1940   58.3170   77.3990 C   0  0  2  0  0  0  0  0  0  0  0  0
   -1.6820   59.7860   77.5630 C   0  0  1  0  0  0  0  0  0  0  0  0
   -2.9330   59.7250   76.6890 C   0  0  0  0  0  0  0  0  0  0  0  0
   -4.0810   60.5220   76.6820 C   0  0  0  0  0  0  0  0  0  0  0  0
   -5.1210   60.2420   75.7670 C   0  0  0  0  0  0  0  0  0  0  0  0
   -1.9860   60.1840   79.0160 C   0  0  0  0  0  0  0  0  0  0  0  0
   -1.0990   61.3710   79.3240 C   0  0  0  0  0  0  0  0  0  0  0  0
   -0.8480   62.0060   77.9830 N   0  0  2  0  0  4  0  0  0  0  0  0
   -0.6980   60.8420   76.9730 C   0  0  1  0  0  0  0  0  0  0  0  0
    0.8270   60.4560   76.6240 C   0  0  2  0  0  0  0  0  0  0  0  0
    1.1030   58.8880   76.6300 C   0  0  2  0  0  0  0  0  0  0  0  0
    0.3080   58.1820   77.7410 C   0  0  1  0  0  0  0  0  0  0  0  0
    1.8390   61.2180   77.4930 C   0  0  0  0  0  0  0  0  0  0  0  0
    1.5760   62.3940   78.0790 C   0  0  0  0  0  0  0  0  0  0  0  0
    0.2410   63.0240   78.0000 C   0  0  0  0  0  0  0  0  0  0  0  0
   -6.4990   61.0390   75.7460 C   0  0  1  0  0  0  0  0  0  0  0  0
   -7.1200   61.1380   74.2800 C   0  0  0  0  0  0  0  0  0  0  0  0
   -8.5930   61.5670   73.9090 C   0  0  1  0  0  0  0  0  0  0  0  0
   -9.6600   61.6230   74.9860 C   0  0  0  0  0  0  0  0  0  0  0  0
   -9.4220   62.8290   75.8380 N   0  0  2  0  0  4  0  0  0  0  0  0
   -9.9670   62.6880   77.2370 C   0  0  0  0  0  0  0  0  0  0  0  0
   -8.9750   61.9370   78.1570 C   0  0  0  0  0  0  0  0  0  0  0  0
   -8.4910   60.6040   77.6350 C   0  0  0  0  0  0  0  0  0  0  0  0
   -7.5150   60.2810   76.6700 C   0  0  0  0  0  0  0  0  0  0  0  0
   -7.5190   58.8930   76.5900 N   0  0  0  0  0  0  0  0  0  0  0  0
   -8.4600   58.3270   77.4020 C   0  0  0  0  0  0  0  0  0  0  0  0
   -9.0820   59.3630   78.0820 C   0  0  0  0  0  0  0  0  0  0  0  0
  -10.1020   59.0340   79.0040 C   0  0  0  0  0  0  0  0  0  0  0  0
  -10.4500   57.6930   79.2050 C   0  0  0  0  0  0  0  0  0  0  0  0
   -9.8000   56.6810   78.5060 C   0  0  0  0  0  0  0  0  0  0  0  0
   -8.7890   56.9790   77.5910 C   0  0  0  0  0  0  0  0  0  0  0  0
   -9.7690   64.0820   75.0670 C   0  0  0  0  0  0  0  0  0  0  0  0
   -8.8020   64.1760   73.8430 C   0  0  2  0  0  0  0  0  0  0  0  0
   -8.7240   62.8540   73.0430 C   0  0  0  0  0  0  0  0  0  0  0  0
   -7.4660   64.3580   74.3390 O   0  0  0  0  0  0  0  0  0  0  0  0
   -9.1180   65.3910   72.9460 C   0  0  0  0  0  0  0  0  0  0  0  0
   -8.9240   65.1840   71.4510 C   0  0  0  0  0  0  0  0  0  0  0  0
   -6.1640   62.4960   76.1870 C   0  0  0  0  0  0  0  0  0  0  0  0
   -6.7660   63.1120   77.0610 O   0  0  0  0  0  0  0  0  0  0  0  0
   -5.2160   63.0720   75.3890 O   0  0  0  0  0  0  0  0  0  0  0  0
   -4.4080   64.0650   76.0260 C   0  0  0  0  0  0  0  0  0  0  0  0
   -6.3470   57.5070   73.8320 C   0  0  0  0  0  0  0  0  0  0  0  0
   -6.0130   58.8760   74.0420 O   0  0  0  0  0  0  0  0  0  0  0  0
    0.5760   58.8800   78.9880 O   0  0  0  0  0  0  0  0  0  0  0  0
    0.6620   56.7120   78.0500 C   0  0  0  0  0  0  0  0  0  0  0  0
    1.1040   55.8970   77.2530 O   0  0  0  0  0  0  0  0  0  0  0  0
    0.2830   56.4040   79.3310 O   0  0  0  0  0  0  0  0  0  0  0  0
    1.0170   55.3170   79.9090 C   0  0  0  0  0  0  0  0  0  0  0  0
    1.0630   60.9820   75.1510 C   0  0  0  0  0  0  0  0  0  0  0  0
   -0.1210   60.9570   74.1890 C   0  0  0  0  0  0  0  0  0  0  0  0
    2.5330   58.6640   76.7780 O   0  0  0  0  0  0  0  0  0  0  0  0
    3.1930   58.1930   75.6780 C   0  0  0  0  0  0  0  0  0  0  0  0
    4.4060   58.2130   75.5460 O   0  0  0  0  0  0  0  0  0  0  0  0
    2.2200   57.6840   74.6610 C   0  0  0  0  0  0  0  0  0  0  0  0
   -3.6406   57.5719   74.1424 H   0  0  0  0  0  0  0  0  0  0  0  0
   -1.4669   55.9269   76.3868 H   0  0  0  0  0  0  0  0  0  0  0  0
   -2.3847   56.3791   74.9104 H   0  0  0  0  0  0  0  0  0  0  0  0
   -0.5899   56.4539   74.9104 H   0  0  0  0  0  0  0  0  0  0  0  0
   -1.6617   57.6020   78.0919 H   0  0  0  0  0  0  0  0  0  0  0  0
   -4.1746   61.3628   77.3850 H   0  0  0  0  0  0  0  0  0  0  0  0
   -3.0450   60.4620   79.1214 H   0  0  0  0  0  0  0  0  0  0  0  0
   -1.7944   59.3506   79.7080 H   0  0  0  0  0  0  0  0  0  0  0  0
   -1.6094   62.0741   79.9986 H   0  0  0  0  0  0  0  0  0  0  0  0
   -0.1678   61.0791   79.8315 H   0  0  0  0  0  0  0  0  0  0  0  0
   -1.6390   62.5938   77.6834 H   0  0  0  0  0  0  0  0  0  0  0  0
   -0.9778   61.0533   75.9304 H   0  0  0  0  0  0  0  0  0  0  0  0
    0.7633   58.4562   75.6771 H   0  0  0  0  0  0  0  0  0  0  0  0
    2.8342   60.7738   77.6424 H   0  0  0  0  0  0  0  0  0  0  0  0
    2.3761   62.9051   78.6346 H   0  0  0  0  0  0  0  0  0  0  0  0
    0.1034   63.6789   78.8731 H   0  0  0  0  0  0  0  0  0  0  0  0
    0.1878   63.5993   77.0640 H   0  0  0  0  0  0  0  0  0  0  0  0
   -6.4725   61.8469   73.7431 H   0  0  0  0  0  0  0  0  0  0  0  0
   -7.1760   60.0672   74.0345 H   0  0  0  0  0  0  0  0  0  0  0  0
   -8.8148   60.6664   73.3176 H   0  0  0  0  0  0  0  0  0  0  0  0
  -10.6536   61.6906   74.5189 H   0  0  0  0  0  0  0  0  0  0  0  0
   -9.6153   60.7141   75.6040 H   0  0  0  0  0  0  0  0  0  0  0  0
   -8.4168   62.9240   76.0417 H   0  0  0  0  0  0  0  0  0  0  0  0
  -10.1513   63.6900   77.6519 H   0  0  0  0  0  0  0  0  0  0  0  0
  -10.9003   62.1078   77.1879 H   0  0  0  0  0  0  0  0  0  0  0  0
   -8.0967   62.5819   78.3077 H   0  0  0  0  0  0  0  0  0  0  0  0
   -9.5261   61.7183   79.0835 H   0  0  0  0  0  0  0  0  0  0  0  0
   -6.8836   58.3522   75.9861 H   0  0  0  0  0  0  0  0  0  0  0  0
  -10.6201   59.8285   79.5612 H   0  0  0  0  0  0  0  0  0  0  0  0
  -11.2442   57.4373   79.9218 H   0  0  0  0  0  0  0  0  0  0  0  0
  -10.0864   55.6327   78.6765 H   0  0  0  0  0  0  0  0  0  0  0  0
   -8.2690   56.1830   77.0378 H   0  0  0  0  0  0  0  0  0  0  0  0
  -10.8106   64.0292   74.7172 H   0  0  0  0  0  0  0  0  0  0  0  0
   -9.6620   64.9689   75.7089 H   0  0  0  0  0  0  0  0  0  0  0  0
   -9.6388   62.7667   72.4384 H   0  0  0  0  0  0  0  0  0  0  0  0
   -7.8057   62.9134   72.4403 H   0  0  0  0  0  0  0  0  0  0  0  0
   -7.4784   64.3563   75.3289 H   0  0  0  0  0  0  0  0  0  0  0  0
  -10.1690   65.6691   73.1138 H   0  0  0  0  0  0  0  0  0  0  0  0
   -8.3954   66.1687   73.2342 H   0  0  0  0  0  0  0  0  0  0  0  0
   -8.1805   64.3907   71.2841 H   0  0  0  0  0  0  0  0  0  0  0  0
   -9.8810   64.8917   70.9941 H   0  0  0  0  0  0  0  0  0  0  0  0
   -8.5703   66.1200   70.9941 H   0  0  0  0  0  0  0  0  0  0  0  0
   -4.4924   63.9613   77.1178 H   0  0  0  0  0  0  0  0  0  0  0  0
   -3.3584   63.9319   75.7251 H   0  0  0  0  0  0  0  0  0  0  0  0
   -4.7517   65.0657   75.7251 H   0  0  0  0  0  0  0  0  0  0  0  0
   -6.4692   57.0062   74.8037 H   0  0  0  0  0  0  0  0  0  0  0  0
   -7.2874   57.4418   73.2651 H   0  0  0  0  0  0  0  0  0  0  0  0
   -5.5423   57.0160   73.2651 H   0  0  0  0  0  0  0  0  0  0  0  0
    0.3499   58.2911   79.7510 H   0  0  0  0  0  0  0  0  0  0  0  0
    0.9707   55.3855   81.0059 H   0  0  0  0  0  0  0  0  0  0  0  0
    0.5775   54.3630   79.5823 H   0  0  0  0  0  0  0  0  0  0  0  0
    2.0661   55.3682   79.5823 H   0  0  0  0  0  0  0  0  0  0  0  0
    1.4032   62.0254   75.2257 H   0  0  0  0  0  0  0  0  0  0  0  0
    1.7874   60.2768   74.7175 H   0  0  0  0  0  0  0  0  0  0  0  0
   -1.0593   60.9372   74.7628 H   0  0  0  0  0  0  0  0  0  0  0  0
   -0.0976   61.8558   73.5553 H   0  0  0  0  0  0  0  0  0  0  0  0
   -0.0597   60.0599   73.5553 H   0  0  0  0  0  0  0  0  0  0  0  0
    1.3572   57.2327   75.1727 H   0  0  0  0  0  0  0  0  0  0  0  0
    1.8775   58.5185   74.0314 H   0  0  0  0  0  0  0  0  0  0  0  0
    2.7102   56.9268   74.0314 H   0  0  0  0  0  0  0  0  0  0  0  0
  2  1  2  0
  3  2  1  0
  4  3  1  0
  5  4  1  0
  6  4  1  0
  7  6  1  0
  8  7  1  0
  8  3  2  0
  9  8  1  0
 10  9  2  0
 10  1  1  0
  7 11  1  1
 12 11  1  0
 13 12  1  0
 14 13  1  0
 14  7  1  0
 15 14  1  0
 16 15  1  0
 17 16  1  0
 17  6  1  0
 18 15  1  0
 19 18  2  0
 20 19  1  0
 20 13  1  0
 21 10  1  0
 22 21  1  0
 23 22  1  0
 24 23  1  0
 25 24  1  0
 26 25  1  0
 27 26  1  0
 28 27  1  0
 29 28  2  0
 29 21  1  0
 30 29  1  0
 31 30  1  0
 32 31  2  0
 32 28  1  0
 33 32  1  0
 34 33  2  0
 35 34  1  0
 36 35  2  0
 36 31  1  0
 37 25  1  0
 38 37  1  0
 39 38  1  0
 39 23  1  0
 38 40  1  1
 41 38  1  0
 42 41  1  0
 21 43  1  1
 44 43  2  0
 45 43  1  0
 46 45  1  0
 48 47  1  0
 48  1  1  0
 17 49  1  1
 50 17  1  0
 51 50  2  0
 52 50  1  0
 53 52  1  0
 15 54  1  6
 55 54  1  0
 56 16  1  0
 57 56  1  0
 58 57  2  0
 59 57  1  0
  2 60  1  0
  5 61  1  0
  5 62  1  0
  5 63  1  0
  6 64  1  1
  9 65  1  0
 11 66  1  0
 11 67  1  0
 12 68  1  0
 12 69  1  0
 13 70  1  6
 14 71  1  6
 16 72  1  6
 18 73  1  0
 19 74  1  0
 20 75  1  0
 20 76  1  0
 22 77  1  0
 22 78  1  0
 23 79  1  6
 24 80  1  0
 24 81  1  0
 25 82  1  1
 26 83  1  0
 26 84  1  0
 27 85  1  0
 27 86  1  0
 30 87  1  0
 33 88  1  0
 34 89  1  0
 35 90  1  0
 36 91  1  0
 37 92  1  0
 37 93  1  0
 39 94  1  0
 39 95  1  0
 40 96  1  0
 41 97  1  0
 41 98  1  0
 42 99  1  0
 42100  1  0
 42101  1  0
 46102  1  0
 46103  1  0
 46104  1  0
 47105  1  0
 47106  1  0
 47107  1  0
 49108  1  0
 53109  1  0
 53110  1  0
 53111  1  0
 54112  1  0
 54113  1  0
 55114  1  0
 55115  1  0
 55116  1  0
 59117  1  0
 59118  1  0
 59119  1  0
M  CHG  2  13   1  25   1
M  END
>  <score>  (6) 
-5.451

$$$$
=
     RDKit          3D

119127  0  0  0  0  0  0  0  0999 V2000
    0.1440   60.8050   75.5510 C   0  0  0  0  0  0  0  0  0  0  0  0
   -0.4220   62.0790   75.4240 C   0  0  0  0  0  0  0  0  0  0  0  0
   -1.4830   62.4420   76.2370 C   0  0  0  0  0  0  0  0  0  0  0  0
   -2.1630   63.6790   76.2780 N   0  0  0  0  0  0  0  0  0  0  0  0
   -1.4160   64.8480   75.8040 C   0  0  0  0  0  0  0  0  0  0  0  0
   -2.7670   63.6920   77.6490 C   0  0  2  0  0  0  0  0  0  0  0  0
   -3.1720   62.2060   77.8750 C   0  0  1  0  0  0  0  0  0  0  0  0
   -2.0140   61.5260   77.1470 C   0  0  0  0  0  0  0  0  0  0  0  0
   -1.4870   60.2390   77.2720 C   0  0  0  0  0  0  0  0  0  0  0  0
   -0.3830   59.8540   76.4770 C   0  0  0  0  0  0  0  0  0  0  0  0
   -3.2640   61.8030   79.3560 C   0  0  0  0  0  0  0  0  0  0  0  0
   -4.6770   61.3020   79.5700 C   0  0  0  0  0  0  0  0  0  0  0  0
   -5.1090   60.8160   78.2140 N   0  0  2  0  0  4  0  0  0  0  0  0
   -4.5120   61.8090   77.1860 C   0  0  1  0  0  0  0  0  0  0  0  0
   -5.5450   62.9310   76.6670 C   0  0  2  0  0  0  0  0  0  0  0  0
   -4.9260   64.3980   76.6330 C   0  0  2  0  0  0  0  0  0  0  0  0
   -3.9800   64.6360   77.8220 C   0  0  1  0  0  0  0  0  0  0  0  0
   -6.8830   62.8930   77.4230 C   0  0  0  0  0  0  0  0  0  0  0  0
   -7.3530   61.8010   78.0410 C   0  0  0  0  0  0  0  0  0  0  0  0
   -6.5730   60.5480   78.1150 C   0  0  0  0  0  0  0  0  0  0  0  0
    0.3380   58.4410   76.6140 C   0  0  1  0  0  0  0  0  0  0  0  0
    1.0120   57.9690   75.2480 C   0  0  0  0  0  0  0  0  0  0  0  0
    2.0600   56.8020   75.0690 C   0  0  1  0  0  0  0  0  0  0  0  0
    2.7620   56.2220   76.2840 C   0  0  0  0  0  0  0  0  0  0  0  0
    1.7940   55.3660   77.0370 N   0  0  2  0  0  4  0  0  0  0  0  0
    2.1220   55.2440   78.5030 C   0  0  0  0  0  0  0  0  0  0  0  0
    1.5670   56.4450   79.3080 C   0  0  0  0  0  0  0  0  0  0  0  0
    1.9560   57.8080   78.7840 C   0  0  0  0  0  0  0  0  0  0  0  0
    1.4570   58.5690   77.7070 C   0  0  0  0  0  0  0  0  0  0  0  0
    2.2160   59.7320   77.6930 N   0  0  0  0  0  0  0  0  0  0  0  0
    3.1850   59.7340   78.6550 C   0  0  0  0  0  0  0  0  0  0  0  0
    3.0480   58.5530   79.3680 C   0  0  0  0  0  0  0  0  0  0  0  0
    3.9400   58.3170   80.4380 C   0  0  0  0  0  0  0  0  0  0  0  0
    4.9200   59.2670   80.7480 C   0  0  0  0  0  0  0  0  0  0  0  0
    5.0240   60.4420   80.0130 C   0  0  0  0  0  0  0  0  0  0  0  0
    4.1550   60.7010   78.9500 C   0  0  0  0  0  0  0  0  0  0  0  0
    1.5210   54.0940   76.2650 C   0  0  0  0  0  0  0  0  0  0  0  0
    0.8430   54.4890   74.9130 C   0  0  2  0  0  0  0  0  0  0  0  0
    1.6030   55.6150   74.1720 C   0  0  0  0  0  0  0  0  0  0  0  0
   -0.4370   55.0730   75.2060 O   0  0  0  0  0  0  0  0  0  0  0  0
    0.5830   53.2620   74.0160 C   0  0  0  0  0  0  0  0  0  0  0  0
   -0.6260   52.4130   74.3810 C   0  0  0  0  0  0  0  0  0  0  0  0
   -0.7870   57.4100   76.9360 C   0  0  0  0  0  0  0  0  0  0  0  0
   -0.7790   56.6550   77.9030 O   0  0  0  0  0  0  0  0  0  0  0  0
   -1.7170   57.3340   75.9390 O   0  0  0  0  0  0  0  0  0  0  0  0
   -3.0530   57.0730   76.3740 C   0  0  0  0  0  0  0  0  0  0  0  0
    1.9990   61.4130   74.1670 C   0  0  0  0  0  0  0  0  0  0  0  0
    1.2580   60.4090   74.8540 O   0  0  0  0  0  0  0  0  0  0  0  0
   -4.6960   64.2750   79.0350 O   0  0  0  0  0  0  0  0  0  0  0  0
   -3.5060   66.0820   78.0800 C   0  0  0  0  0  0  0  0  0  0  0  0
   -3.3750   66.9560   77.2360 O   0  0  0  0  0  0  0  0  0  0  0  0
   -3.1230   66.2160   79.3890 O   0  0  0  0  0  0  0  0  0  0  0  0
   -2.9900   67.5760   79.8200 C   0  0  0  0  0  0  0  0  0  0  0  0
   -5.8950   62.5200   75.1810 C   0  0  0  0  0  0  0  0  0  0  0  0
   -5.3360   61.2000   74.6590 C   0  0  0  0  0  0  0  0  0  0  0  0
   -6.0130   65.3660   76.6190 O   0  0  0  0  0  0  0  0  0  0  0  0
   -6.2560   65.9920   75.4300 C   0  0  0  0  0  0  0  0  0  0  0  0
   -5.3840   66.4310   74.6960 O   0  0  0  0  0  0  0  0  0  0  0  0
   -7.7270   66.0840   75.1750 C   0  0  0  0  0  0  0  0  0  0  0  0
   -0.0261   62.7883   74.6822 H   0  0  0  0  0  0  0  0  0  0  0  0
   -1.0486   65.4229   76.6668 H   0  0  0  0  0  0  0  0  0  0  0  0
   -0.5626   64.5155   75.1948 H   0  0  0  0  0  0  0  0  0  0  0  0
   -2.0763   65.4827   75.1948 H   0  0  0  0  0  0  0  0  0  0  0  0
   -2.0504   64.0864   78.3844 H   0  0  0  0  0  0  0  0  0  0  0  0
   -1.9287   59.5280   77.9857 H   0  0  0  0  0  0  0  0  0  0  0  0
   -2.5389   61.0068   79.5804 H   0  0  0  0  0  0  0  0  0  0  0  0
   -3.0348   62.6515   80.0175 H   0  0  0  0  0  0  0  0  0  0  0  0
   -4.6925   60.4805   80.3014 H   0  0  0  0  0  0  0  0  0  0  0  0
   -5.3431   62.0814   79.9687 H   0  0  0  0  0  0  0  0  0  0  0  0
   -4.7394   59.8768   78.0085 H   0  0  0  0  0  0  0  0  0  0  0  0
   -4.2986   61.4119   76.1826 H   0  0  0  0  0  0  0  0  0  0  0  0
   -4.3217   64.5157   75.7215 H   0  0  0  0  0  0  0  0  0  0  0  0
   -7.4870   63.8117   77.4585 H   0  0  0  0  0  0  0  0  0  0  0  0
   -8.3487   61.8383   78.5070 H   0  0  0  0  0  0  0  0  0  0  0  0
   -6.8926   59.9807   79.0016 H   0  0  0  0  0  0  0  0  0  0  0  0
   -6.7557   59.9748   77.1941 H   0  0  0  0  0  0  0  0  0  0  0  0
    0.1705   57.6997   74.5928 H   0  0  0  0  0  0  0  0  0  0  0  0
    1.6688   58.8318   75.0629 H   0  0  0  0  0  0  0  0  0  0  0  0
    2.8129   57.4185   74.5561 H   0  0  0  0  0  0  0  0  0  0  0  0
    3.6193   55.6136   75.9602 H   0  0  0  0  0  0  0  0  0  0  0  0
    3.1232   57.0353   76.9306 H   0  0  0  0  0  0  0  0  0  0  0  0
    0.8780   55.8337   77.0921 H   0  0  0  0  0  0  0  0  0  0  0  0
    1.6783   54.3161   78.8930 H   0  0  0  0  0  0  0  0  0  0  0  0
    3.2164   55.2296   78.6129 H   0  0  0  0  0  0  0  0  0  0  0  0
    0.4690   56.3795   79.3028 H   0  0  0  0  0  0  0  0  0  0  0  0
    2.0080   56.3679   80.3128 H   0  0  0  0  0  0  0  0  0  0  0  0
    2.0648   60.5064   77.0310 H   0  0  0  0  0  0  0  0  0  0  0  0
    3.8645   57.3900   81.0253 H   0  0  0  0  0  0  0  0  0  0  0  0
    5.6142   59.0820   81.5810 H   0  0  0  0  0  0  0  0  0  0  0  0
    5.8002   61.1773   80.2714 H   0  0  0  0  0  0  0  0  0  0  0  0
    4.2297   61.6302   78.3660 H   0  0  0  0  0  0  0  0  0  0  0  0
    2.4657   53.5656   76.0691 H   0  0  0  0  0  0  0  0  0  0  0  0
    0.8635   53.4282   76.8434 H   0  0  0  0  0  0  0  0  0  0  0  0
    2.4975   55.1743   73.7076 H   0  0  0  0  0  0  0  0  0  0  0  0
    0.8944   56.0358   73.4435 H   0  0  0  0  0  0  0  0  0  0  0  0
   -0.5578   55.1281   76.1871 H   0  0  0  0  0  0  0  0  0  0  0  0
    0.4430   53.6217   72.9860 H   0  0  0  0  0  0  0  0  0  0  0  0
    1.4565   52.6069   74.1492 H   0  0  0  0  0  0  0  0  0  0  0  0
   -0.7137   52.3514   75.4758 H   0  0  0  0  0  0  0  0  0  0  0  0
   -1.5353   52.8720   73.9655 H   0  0  0  0  0  0  0  0  0  0  0  0
   -0.5029   51.4019   73.9655 H   0  0  0  0  0  0  0  0  0  0  0  0
   -3.0860   57.0666   77.4735 H   0  0  0  0  0  0  0  0  0  0  0  0
   -3.7229   57.8573   75.9917 H   0  0  0  0  0  0  0  0  0  0  0  0
   -3.3785   56.0943   75.9917 H   0  0  0  0  0  0  0  0  0  0  0  0
    2.4868   62.0739   74.8987 H   0  0  0  0  0  0  0  0  0  0  0  0
    2.7639   60.9369   73.5359 H   0  0  0  0  0  0  0  0  0  0  0  0
    1.3186   62.0036   73.5359 H   0  0  0  0  0  0  0  0  0  0  0  0
   -4.1632   64.5436   79.8250 H   0  0  0  0  0  0  0  0  0  0  0  0
   -2.9863   67.6135   80.9194 H   0  0  0  0  0  0  0  0  0  0  0  0
   -2.0469   67.9918   79.4358 H   0  0  0  0  0  0  0  0  0  0  0  0
   -3.8347   68.1667   79.4358 H   0  0  0  0  0  0  0  0  0  0  0  0
   -6.9910   62.4654   75.1049 H   0  0  0  0  0  0  0  0  0  0  0  0
   -5.4146   63.2900   74.5595 H   0  0  0  0  0  0  0  0  0  0  0  0
   -5.0633   60.5560   75.5080 H   0  0  0  0  0  0  0  0  0  0  0  0
   -6.0979   60.6959   74.0463 H   0  0  0  0  0  0  0  0  0  0  0  0
   -4.4438   61.3964   74.0463 H   0  0  0  0  0  0  0  0  0  0  0  0
   -8.2640   66.1176   76.1344 H   0  0  0  0  0  0  0  0  0  0  0  0
   -7.9433   66.9974   74.6015 H   0  0  0  0  0  0  0  0  0  0  0  0
   -8.0554   65.2046   74.6015 H   0  0  0  0  0  0  0  0  0  0  0  0
  2  1  2  0
  3  2  1  0
  4  3  1  0
  5  4  1  0
  6  4  1  0
  7  6  1  0
  8  7  1  0
  8  3  2  0
  9  8  1  0
 10  9  2  0
 10  1  1  0
  7 11  1  1
 12 11  1  0
 13 12  1  0
 14 13  1  0
 14  7  1  0
 15 14  1  0
 16 15  1  0
 17 16  1  0
 17  6  1  0
 18 15  1  0
 19 18  2  0
 20 19  1  0
 20 13  1  0
 21 10  1  0
 22 21  1  0
 23 22  1  0
 24 23  1  0
 25 24  1  0
 26 25  1  0
 27 26  1  0
 28 27  1  0
 29 28  2  0
 29 21  1  0
 30 29  1  0
 31 30  1  0
 32 31  2  0
 32 28  1  0
 33 32  1  0
 34 33  2  0
 35 34  1  0
 36 35  2  0
 36 31  1  0
 37 25  1  0
 38 37  1  0
 39 38  1  0
 39 23  1  0
 38 40  1  1
 41 38  1  0
 42 41  1  0
 21 43  1  1
 44 43  2  0
 45 43  1  0
 46 45  1  0
 48 47  1  0
 48  1  1  0
 17 49  1  1
 50 17  1  0
 51 50  2  0
 52 50  1  0
 53 52  1  0
 15 54  1  6
 55 54  1  0
 56 16  1  0
 57 56  1  0
 58 57  2  0
 59 57  1  0
  2 60  1  0
  5 61  1  0
  5 62  1  0
  5 63  1  0
  6 64  1  1
  9 65  1  0
 11 66  1  0
 11 67  1  0
 12 68  1  0
 12 69  1  0
 13 70  1  6
 14 71  1  6
 16 72  1  6
 18 73  1  0
 19 74  1  0
 20 75  1  0
 20 76  1  0
 22 77  1  0
 22 78  1  0
 23 79  1  6
 24 80  1  0
 24 81  1  0
 25 82  1  1
 26 83  1  0
 26 84  1  0
 27 85  1  0
 27 86  1  0
 30 87  1  0
 33 88  1  0
 34 89  1  0
 35 90  1  0
 36 91  1  0
 37 92  1  0
 37 93  1  0
 39 94  1  0
 39 95  1  0
 40 96  1  0
 41 97  1  0
 41 98  1  0
 42 99  1  0
 42100  1  0
 42101  1  0
 46102  1  0
 46103  1  0
 46104  1  0
 47105  1  0
 47106  1  0
 47107  1  0
 49108  1  0
 53109  1  0
 53110  1  0
 53111  1  0
 54112  1  0
 54113  1  0
 55114  1  0
 55115  1  0
 55116  1  0
 59117  1  0
 59118  1  0
 59119  1  0
M  CHG  2  13   1  25   1
M  END
>  <score>  (7) 
-5.416

$$$$
=
     RDKit          3D

119127  0  0  0  0  0  0  0  0999 V2000
   -1.8790   58.5800   77.9530 C   0  0  0  0  0  0  0  0  0  0  0  0
   -3.0460   58.7270   78.7120 C   0  0  0  0  0  0  0  0  0  0  0  0
   -4.2780   58.7390   78.0800 C   0  0  0  0  0  0  0  0  0  0  0  0
   -5.5560   58.8480   78.6690 N   0  0  0  0  0  0  0  0  0  0  0  0
   -5.6680   58.4200   80.0670 C   0  0  0  0  0  0  0  0  0  0  0  0
   -6.4610   58.2470   77.6360 C   0  0  2  0  0  0  0  0  0  0  0  0
   -5.8260   58.7100   76.2920 C   0  0  1  0  0  0  0  0  0  0  0  0
   -4.3520   58.6510   76.6890 C   0  0  0  0  0  0  0  0  0  0  0  0
   -3.2000   58.5340   75.9070 C   0  0  0  0  0  0  0  0  0  0  0  0
   -1.9330   58.4860   76.5300 C   0  0  0  0  0  0  0  0  0  0  0  0
   -6.1610   57.8000   75.0980 C   0  0  0  0  0  0  0  0  0  0  0  0
   -6.8330   58.6840   74.0700 C   0  0  0  0  0  0  0  0  0  0  0  0
   -6.3000   60.0610   74.3560 N   0  0  2  0  0  4  0  0  0  0  0  0
   -6.1910   60.1720   75.8970 C   0  0  1  0  0  0  0  0  0  0  0  0
   -7.4210   60.9420   76.5980 C   0  0  2  0  0  0  0  0  0  0  0  0
   -7.9730   60.2060   77.8980 C   0  0  2  0  0  0  0  0  0  0  0  0
   -7.9440   58.6780   77.7330 C   0  0  1  0  0  0  0  0  0  0  0  0
   -8.5480   61.2730   75.6070 C   0  0  0  0  0  0  0  0  0  0  0  0
   -8.3590   61.3990   74.2860 C   0  0  0  0  0  0  0  0  0  0  0  0
   -7.0470   61.1460   73.6560 C   0  0  0  0  0  0  0  0  0  0  0  0
   -0.5760   58.2660   75.7270 C   0  0  1  0  0  0  0  0  0  0  0  0
    0.6670   58.9790   76.4280 C   0  0  0  0  0  0  0  0  0  0  0  0
    2.1940   58.7350   76.1120 C   0  0  1  0  0  0  0  0  0  0  0  0
    2.6140   57.5260   75.2970 C   0  0  0  0  0  0  0  0  0  0  0  0
    2.2580   57.7630   73.8640 N   0  0  2  0  0  4  0  0  0  0  0  0
    2.0400   56.4900   73.0850 C   0  0  0  0  0  0  0  0  0  0  0  0
    0.6010   55.9530   73.2740 C   0  0  0  0  0  0  0  0  0  0  0  0
    0.1560   55.7850   74.7090 C   0  0  0  0  0  0  0  0  0  0  0  0
   -0.2950   56.7230   75.6590 C   0  0  0  0  0  0  0  0  0  0  0  0
   -0.5400   55.9910   76.8140 N   0  0  0  0  0  0  0  0  0  0  0  0
   -0.2310   54.6690   76.6690 C   0  0  0  0  0  0  0  0  0  0  0  0
    0.1970   54.4960   75.3610 C   0  0  0  0  0  0  0  0  0  0  0  0
    0.5710   53.1960   74.9510 C   0  0  0  0  0  0  0  0  0  0  0  0
    0.4990   52.1340   75.8600 C   0  0  0  0  0  0  0  0  0  0  0  0
    0.0610   52.3460   77.1630 C   0  0  0  0  0  0  0  0  0  0  0  0
   -0.3160   53.6200   77.5930 C   0  0  0  0  0  0  0  0  0  0  0  0
    3.1770   58.8060   73.2700 C   0  0  0  0  0  0  0  0  0  0  0  0
    2.9420   60.1470   74.0380 C   0  0  2  0  0  0  0  0  0  0  0  0
    2.9790   59.9670   75.5750 C   0  0  0  0  0  0  0  0  0  0  0  0
    1.5990   60.5860   73.7750 O   0  0  0  0  0  0  0  0  0  0  0  0
    3.8850   61.2660   73.5520 C   0  0  0  0  0  0  0  0  0  0  0  0
    3.4570   61.9970   72.2880 C   0  0  0  0  0  0  0  0  0  0  0  0
   -0.7710   58.9630   74.3470 C   0  0  0  0  0  0  0  0  0  0  0  0
   -0.6140   58.4110   73.2620 O   0  0  0  0  0  0  0  0  0  0  0  0
   -0.9920   60.3060   74.4740 O   0  0  0  0  0  0  0  0  0  0  0  0
   -1.8620   60.8730   73.4920 C   0  0  0  0  0  0  0  0  0  0  0  0
   -0.5530   58.3830   79.9360 C   0  0  0  0  0  0  0  0  0  0  0  0
   -0.6320   58.4580   78.5150 O   0  0  0  0  0  0  0  0  0  0  0  0
   -8.6160   58.3550   76.4860 O   0  0  0  0  0  0  0  0  0  0  0  0
   -8.6840   57.8310   78.7900 C   0  0  0  0  0  0  0  0  0  0  0  0
   -9.1490   58.2420   79.8420 O   0  0  0  0  0  0  0  0  0  0  0  0
   -8.6320   56.5060   78.4400 O   0  0  0  0  0  0  0  0  0  0  0  0
   -8.5480   55.6130   79.5570 C   0  0  0  0  0  0  0  0  0  0  0  0
   -6.8360   62.3410   77.0460 C   0  0  0  0  0  0  0  0  0  0  0  0
   -5.5820   62.3410   77.9150 C   0  0  0  0  0  0  0  0  0  0  0  0
   -9.3210   60.6840   78.1710 O   0  0  0  0  0  0  0  0  0  0  0  0
   -9.4360   61.6910   79.0860 C   0  0  0  0  0  0  0  0  0  0  0  0
  -10.1940   62.6410   78.9700 O   0  0  0  0  0  0  0  0  0  0  0  0
   -8.4880   61.4760   80.2240 C   0  0  0  0  0  0  0  0  0  0  0  0
   -2.9846   58.8325   79.8052 H   0  0  0  0  0  0  0  0  0  0  0  0
   -5.4457   59.2695   80.7295 H   0  0  0  0  0  0  0  0  0  0  0  0
   -6.6901   58.0621   80.2601 H   0  0  0  0  0  0  0  0  0  0  0  0
   -4.9523   57.6073   80.2601 H   0  0  0  0  0  0  0  0  0  0  0  0
   -6.5204   57.1557   77.7606 H   0  0  0  0  0  0  0  0  0  0  0  0
   -3.2793   58.4795   74.8112 H   0  0  0  0  0  0  0  0  0  0  0  0
   -5.2415   57.3624   74.6821 H   0  0  0  0  0  0  0  0  0  0  0  0
   -6.8136   56.9672   75.3990 H   0  0  0  0  0  0  0  0  0  0  0  0
   -6.5669   58.3674   73.0507 H   0  0  0  0  0  0  0  0  0  0  0  0
   -7.9304   58.6380   74.1303 H   0  0  0  0  0  0  0  0  0  0  0  0
   -5.3616   60.2004   73.9548 H   0  0  0  0  0  0  0  0  0  0  0  0
   -5.4228   60.8544   76.2897 H   0  0  0  0  0  0  0  0  0  0  0  0
   -7.3223   60.4425   78.7528 H   0  0  0  0  0  0  0  0  0  0  0  0
   -9.5645   61.4141   76.0031 H   0  0  0  0  0  0  0  0  0  0  0  0
   -9.2062   61.6998   73.6521 H   0  0  0  0  0  0  0  0  0  0  0  0
   -7.2054   60.8513   72.6081 H   0  0  0  0  0  0  0  0  0  0  0  0
   -6.4519   62.0689   73.7197 H   0  0  0  0  0  0  0  0  0  0  0  0
    0.5097   60.0549   76.2615 H   0  0  0  0  0  0  0  0  0  0  0  0
    0.6102   58.5068   77.4199 H   0  0  0  0  0  0  0  0  0  0  0  0
    2.4776   58.5076   77.1502 H   0  0  0  0  0  0  0  0  0  0  0  0
    3.7001   57.3778   75.3884 H   0  0  0  0  0  0  0  0  0  0  0  0
    2.0970   56.6283   75.6668 H   0  0  0  0  0  0  0  0  0  0  0  0
    1.3191   58.1814   73.7987 H   0  0  0  0  0  0  0  0  0  0  0  0
    2.2101   56.6903   72.0168 H   0  0  0  0  0  0  0  0  0  0  0  0
    2.7447   55.7314   73.4564 H   0  0  0  0  0  0  0  0  0  0  0  0
   -0.0903   56.6544   72.7840 H   0  0  0  0  0  0  0  0  0  0  0  0
    0.5928   54.9450   72.8336 H   0  0  0  0  0  0  0  0  0  0  0  0
   -0.9131   56.3999   77.6827 H   0  0  0  0  0  0  0  0  0  0  0  0
    0.9172   53.0196   73.9219 H   0  0  0  0  0  0  0  0  0  0  0  0
    0.7914   51.1227   75.5410 H   0  0  0  0  0  0  0  0  0  0  0  0
    0.0109   51.4995   77.8636 H   0  0  0  0  0  0  0  0  0  0  0  0
   -0.6672   53.7934   78.6209 H   0  0  0  0  0  0  0  0  0  0  0  0
    4.2243   58.4892   73.3830 H   0  0  0  0  0  0  0  0  0  0  0  0
    2.9665   58.9364   72.1982 H   0  0  0  0  0  0  0  0  0  0  0  0
    4.0303   59.8616   75.8810 H   0  0  0  0  0  0  0  0  0  0  0  0
    2.4872   60.8542   76.0004 H   0  0  0  0  0  0  0  0  0  0  0  0
    1.1283   60.7399   74.6322 H   0  0  0  0  0  0  0  0  0  0  0  0
    3.9689   62.0093   74.3585 H   0  0  0  0  0  0  0  0  0  0  0  0
    4.8321   60.7668   73.2995 H   0  0  0  0  0  0  0  0  0  0  0  0
    2.9186   62.9166   72.5608 H   0  0  0  0  0  0  0  0  0  0  0  0
    4.3466   62.2552   71.6947 H   0  0  0  0  0  0  0  0  0  0  0  0
    2.7964   61.3476   71.6947 H   0  0  0  0  0  0  0  0  0  0  0  0
   -2.6822   61.4075   73.9936 H   0  0  0  0  0  0  0  0  0  0  0  0
   -1.2963   61.5764   72.8633 H   0  0  0  0  0  0  0  0  0  0  0  0
   -2.2771   60.0715   72.8633 H   0  0  0  0  0  0  0  0  0  0  0  0
   -1.2826   59.0757   80.3809 H   0  0  0  0  0  0  0  0  0  0  0  0
   -0.7761   57.3564   80.2620 H   0  0  0  0  0  0  0  0  0  0  0  0
    0.4607   58.6591   80.2620 H   0  0  0  0  0  0  0  0  0  0  0  0
   -9.4907   57.9346   76.6818 H   0  0  0  0  0  0  0  0  0  0  0  0
   -8.6022   56.1895   80.4922 H   0  0  0  0  0  0  0  0  0  0  0  0
   -9.3828   54.8978   79.5182 H   0  0  0  0  0  0  0  0  0  0  0  0
   -7.5944   55.0660   79.5182 H   0  0  0  0  0  0  0  0  0  0  0  0
   -6.6022   62.9069   76.1322 H   0  0  0  0  0  0  0  0  0  0  0  0
   -7.6174   62.7764   77.6862 H   0  0  0  0  0  0  0  0  0  0  0  0
   -5.2806   61.3039   78.1238 H   0  0  0  0  0  0  0  0  0  0  0  0
   -4.7691   62.8595   77.3856 H   0  0  0  0  0  0  0  0  0  0  0  0
   -5.7922   62.8595   78.8621 H   0  0  0  0  0  0  0  0  0  0  0  0
   -9.0248   61.5977   81.1764 H   0  0  0  0  0  0  0  0  0  0  0  0
   -8.0699   60.4602   80.1660 H   0  0  0  0  0  0  0  0  0  0  0  0
   -7.6726   62.2120   80.1660 H   0  0  0  0  0  0  0  0  0  0  0  0
  2  1  2  0
  3  2  1  0
  4  3  1  0
  5  4  1  0
  6  4  1  0
  7  6  1  0
  8  7  1  0
  8  3  2  0
  9  8  1  0
 10  9  2  0
 10  1  1  0
  7 11  1  6
 12 11  1  0
 13 12  1  0
 14 13  1  0
 14  7  1  0
 15 14  1  0
 16 15  1  0
 17 16  1  0
 17  6  1  0
 18 15  1  0
 19 18  2  0
 20 19  1  0
 20 13  1  0
 21 10  1  0
 22 21  1  0
 23 22  1  0
 24 23  1  0
 25 24  1  0
 26 25  1  0
 27 26  1  0
 28 27  1  0
 29 28  2  0
 29 21  1  0
 30 29  1  0
 31 30  1  0
 32 31  2  0
 32 28  1  0
 33 32  1  0
 34 33  2  0
 35 34  1  0
 36 35  2  0
 36 31  1  0
 37 25  1  0
 38 37  1  0
 39 38  1  0
 39 23  1  0
 38 40  1  1
 41 38  1  0
 42 41  1  0
 21 43  1  6
 44 43  2  0
 45 43  1  0
 46 45  1  0
 48 47  1  0
 48  1  1  0
 17 49  1  6
 50 17  1  0
 51 50  2  0
 52 50  1  0
 53 52  1  0
 15 54  1  1
 55 54  1  0
 56 16  1  0
 57 56  1  0
 58 57  2  0
 59 57  1  0
  2 60  1  0
  5 61  1  0
  5 62  1  0
  5 63  1  0
  6 64  1  6
  9 65  1  0
 11 66  1  0
 11 67  1  0
 12 68  1  0
 12 69  1  0
 13 70  1  6
 14 71  1  6
 16 72  1  1
 18 73  1  0
 19 74  1  0
 20 75  1  0
 20 76  1  0
 22 77  1  0
 22 78  1  0
 23 79  1  1
 24 80  1  0
 24 81  1  0
 25 82  1  1
 26 83  1  0
 26 84  1  0
 27 85  1  0
 27 86  1  0
 30 87  1  0
 33 88  1  0
 34 89  1  0
 35 90  1  0
 36 91  1  0
 37 92  1  0
 37 93  1  0
 39 94  1  0
 39 95  1  0
 40 96  1  0
 41 97  1  0
 41 98  1  0
 42 99  1  0
 42100  1  0
 42101  1  0
 46102  1  0
 46103  1  0
 46104  1  0
 47105  1  0
 47106  1  0
 47107  1  0
 49108  1  0
 53109  1  0
 53110  1  0
 53111  1  0
 54112  1  0
 54113  1  0
 55114  1  0
 55115  1  0
 55116  1  0
 59117  1  0
 59118  1  0
 59119  1  0
M  CHG  2  13   1  25   1
M  END
>  <score>  (8) 
-5.394

$$$$
=
     RDKit          3D

119127  0  0  0  0  0  0  0  0999 V2000
   -2.9250   56.9720   79.0400 C   0  0  0  0  0  0  0  0  0  0  0  0
   -4.2770   57.1530   79.3500 C   0  0  0  0  0  0  0  0  0  0  0  0
   -5.0900   57.8630   78.4830 C   0  0  0  0  0  0  0  0  0  0  0  0
   -6.4720   58.1260   78.6050 N   0  0  0  0  0  0  0  0  0  0  0  0
   -7.2440   57.1870   79.4270 C   0  0  0  0  0  0  0  0  0  0  0  0
   -6.8960   58.3950   77.1930 C   0  0  2  0  0  0  0  0  0  0  0  0
   -5.6800   59.1600   76.5950 C   0  0  1  0  0  0  0  0  0  0  0  0
   -4.5540   58.4340   77.3280 C   0  0  0  0  0  0  0  0  0  0  0  0
   -3.2000   58.2930   77.0110 C   0  0  0  0  0  0  0  0  0  0  0  0
   -2.3560   57.5460   77.8630 C   0  0  0  0  0  0  0  0  0  0  0  0
   -5.5650   59.0510   75.0650 C   0  0  0  0  0  0  0  0  0  0  0  0
   -5.5960   60.4690   74.5370 C   0  0  0  0  0  0  0  0  0  0  0  0
   -5.0740   61.3020   75.6770 N   0  0  2  0  0  4  0  0  0  0  0  0
   -5.6430   60.6720   76.9710 C   0  0  1  0  0  0  0  0  0  0  0  0
   -6.9470   61.4160   77.5560 C   0  0  2  0  0  0  0  0  0  0  0  0
   -8.1050   60.4160   77.9970 C   0  0  2  0  0  0  0  0  0  0  0  0
   -8.2010   59.2130   77.0450 C   0  0  1  0  0  0  0  0  0  0  0  0
   -7.4680   62.5140   76.6160 C   0  0  0  0  0  0  0  0  0  0  0  0
   -6.7010   63.1420   75.7140 C   0  0  0  0  0  0  0  0  0  0  0  0
   -5.2890   62.7670   75.4920 C   0  0  0  0  0  0  0  0  0  0  0  0
   -0.8230   57.2590   77.5370 C   0  0  1  0  0  0  0  0  0  0  0  0
    0.0200   56.9130   78.8450 C   0  0  0  0  0  0  0  0  0  0  0  0
    1.4660   56.2800   78.8930 C   0  0  1  0  0  0  0  0  0  0  0  0
    2.0550   55.6450   77.6470 C   0  0  0  0  0  0  0  0  0  0  0  0
    2.4580   56.7270   76.6980 N   0  0  2  0  0  4  0  0  0  0  0  0
    2.4660   56.2840   75.2570 C   0  0  0  0  0  0  0  0  0  0  0  0
    1.0520   56.3680   74.6320 C   0  0  0  0  0  0  0  0  0  0  0  0
   -0.0380   55.6600   75.4030 C   0  0  0  0  0  0  0  0  0  0  0  0
   -0.7550   56.0350   76.5580 C   0  0  0  0  0  0  0  0  0  0  0  0
   -1.6150   54.9750   76.8190 N   0  0  0  0  0  0  0  0  0  0  0  0
   -1.4550   53.9440   75.9380 C   0  0  0  0  0  0  0  0  0  0  0  0
   -0.4860   54.3380   75.0280 C   0  0  0  0  0  0  0  0  0  0  0  0
   -0.1410   53.4380   73.9940 C   0  0  0  0  0  0  0  0  0  0  0  0
   -0.7780   52.1940   73.9150 C   0  0  0  0  0  0  0  0  0  0  0  0
   -1.7490   51.8360   74.8440 C   0  0  0  0  0  0  0  0  0  0  0  0
   -2.1090   52.7070   75.8750 C   0  0  0  0  0  0  0  0  0  0  0  0
    3.6800   57.4470   77.2230 C   0  0  0  0  0  0  0  0  0  0  0  0
    3.2910   58.1300   78.5740 C   0  0  2  0  0  0  0  0  0  0  0  0
    2.5690   57.1640   79.5440 C   0  0  0  0  0  0  0  0  0  0  0  0
    2.3070   59.1410   78.3000 O   0  0  0  0  0  0  0  0  0  0  0  0
    4.4930   58.8380   79.2320 C   0  0  0  0  0  0  0  0  0  0  0  0
    5.4530   57.9430   80.0020 C   0  0  0  0  0  0  0  0  0  0  0  0
   -0.2450   58.5910   76.9710 C   0  0  0  0  0  0  0  0  0  0  0  0
    0.3370   58.6930   75.8950 O   0  0  0  0  0  0  0  0  0  0  0  0
   -0.3230   59.6130   77.8750 O   0  0  0  0  0  0  0  0  0  0  0  0
   -0.5780   60.9020   77.3130 C   0  0  0  0  0  0  0  0  0  0  0  0
   -2.6400   55.0650   80.4570 C   0  0  0  0  0  0  0  0  0  0  0  0
   -2.0810   56.1970   79.7970 O   0  0  0  0  0  0  0  0  0  0  0  0
   -8.2880   59.7280   75.6890 O   0  0  0  0  0  0  0  0  0  0  0  0
   -9.4330   58.2920   77.1780 C   0  0  0  0  0  0  0  0  0  0  0  0
  -10.4650   58.5560   77.7750 O   0  0  0  0  0  0  0  0  0  0  0  0
   -9.1540   57.0650   76.6340 O   0  0  0  0  0  0  0  0  0  0  0  0
  -10.1510   56.0710   76.9000 C   0  0  0  0  0  0  0  0  0  0  0  0
   -6.4480   62.1770   78.8490 C   0  0  0  0  0  0  0  0  0  0  0  0
   -5.2980   61.5580   79.6380 C   0  0  0  0  0  0  0  0  0  0  0  0
   -9.3620   61.1490   78.0540 O   0  0  0  0  0  0  0  0  0  0  0  0
   -9.8170   61.4830   79.2980 C   0  0  0  0  0  0  0  0  0  0  0  0
   -9.7810   60.7370   80.2630 O   0  0  0  0  0  0  0  0  0  0  0  0
  -10.3820   62.8680   79.2950 C   0  0  0  0  0  0  0  0  0  0  0  0
   -4.6922   56.7333   80.2781 H   0  0  0  0  0  0  0  0  0  0  0  0
   -7.0680   57.4011   80.4915 H   0  0  0  0  0  0  0  0  0  0  0  0
   -8.3151   57.2984   79.2028 H   0  0  0  0  0  0  0  0  0  0  0  0
   -6.9276   56.1576   79.2028 H   0  0  0  0  0  0  0  0  0  0  0  0
   -7.1428   57.4557   76.6766 H   0  0  0  0  0  0  0  0  0  0  0  0
   -2.7935   58.7614   76.1025 H   0  0  0  0  0  0  0  0  0  0  0  0
   -4.6198   58.5614   74.7876 H   0  0  0  0  0  0  0  0  0  0  0  0
   -6.3831   58.4484   74.6435 H   0  0  0  0  0  0  0  0  0  0  0  0
   -4.9494   60.5698   73.6528 H   0  0  0  0  0  0  0  0  0  0  0  0
   -6.6028   60.7768   74.2182 H   0  0  0  0  0  0  0  0  0  0  0  0
   -4.0457   61.2765   75.7311 H   0  0  0  0  0  0  0  0  0  0  0  0
   -5.0467   60.8018   77.8862 H   0  0  0  0  0  0  0  0  0  0  0  0
   -7.8744   60.0107   78.9933 H   0  0  0  0  0  0  0  0  0  0  0  0
   -8.5277   62.8001   76.6872 H   0  0  0  0  0  0  0  0  0  0  0  0
   -7.1354   63.9607   75.1215 H   0  0  0  0  0  0  0  0  0  0  0  0
   -5.0034   63.0430   74.4662 H   0  0  0  0  0  0  0  0  0  0  0  0
   -4.6713   63.3011   76.2290 H   0  0  0  0  0  0  0  0  0  0  0  0
    0.1072   57.8653   79.3885 H   0  0  0  0  0  0  0  0  0  0  0  0
   -0.5643   56.0581   79.2161 H   0  0  0  0  0  0  0  0  0  0  0  0
    1.1904   55.4432   79.5516 H   0  0  0  0  0  0  0  0  0  0  0  0
    2.9360   55.0452   77.9192 H   0  0  0  0  0  0  0  0  0  0  0  0
    1.3082   54.9915   77.1725 H   0  0  0  0  0  0  0  0  0  0  0  0
    1.7288   57.4536   76.6628 H   0  0  0  0  0  0  0  0  0  0  0  0
    3.1482   56.9320   74.6872 H   0  0  0  0  0  0  0  0  0  0  0  0
    2.7996   55.2365   75.2188 H   0  0  0  0  0  0  0  0  0  0  0  0
    0.7777   57.4304   74.5536 H   0  0  0  0  0  0  0  0  0  0  0  0
    1.1182   55.8570   73.6601 H   0  0  0  0  0  0  0  0  0  0  0  0
   -2.2970   54.9678   77.5908 H   0  0  0  0  0  0  0  0  0  0  0  0
    0.6250   53.7141   73.2544 H   0  0  0  0  0  0  0  0  0  0  0  0
   -0.5081   51.4934   73.1110 H   0  0  0  0  0  0  0  0  0  0  0  0
   -2.2397   50.8546   74.7659 H   0  0  0  0  0  0  0  0  0  0  0  0
   -2.8785   52.4313   76.6111 H   0  0  0  0  0  0  0  0  0  0  0  0
    4.4953   56.7275   77.3890 H   0  0  0  0  0  0  0  0  0  0  0  0
    4.0227   58.1996   76.4976 H   0  0  0  0  0  0  0  0  0  0  0  0
    3.3239   56.4971   79.9860 H   0  0  0  0  0  0  0  0  0  0  0  0
    2.0580   57.7972   80.2843 H   0  0  0  0  0  0  0  0  0  0  0  0
    1.9569   59.5007   79.1533 H   0  0  0  0  0  0  0  0  0  0  0  0
    5.0645   59.3400   78.4374 H   0  0  0  0  0  0  0  0  0  0  0  0
    4.0627   59.5230   79.9774 H   0  0  0  0  0  0  0  0  0  0  0  0
    5.3005   58.0852   81.0821 H   0  0  0  0  0  0  0  0  0  0  0  0
    5.2638   56.8915   79.7403 H   0  0  0  0  0  0  0  0  0  0  0  0
    6.4887   58.2053   79.7403 H   0  0  0  0  0  0  0  0  0  0  0  0
   -0.7226   61.6328   78.1223 H   0  0  0  0  0  0  0  0  0  0  0  0
    0.2772   61.2070   76.6920 H   0  0  0  0  0  0  0  0  0  0  0  0
   -1.4849   60.8584   76.6920 H   0  0  0  0  0  0  0  0  0  0  0  0
   -2.5711   55.2045   81.5459 H   0  0  0  0  0  0  0  0  0  0  0  0
   -3.6956   54.9559   80.1673 H   0  0  0  0  0  0  0  0  0  0  0  0
   -2.0849   54.1606   80.1673 H   0  0  0  0  0  0  0  0  0  0  0  0
   -8.4528   60.7038   75.7165 H   0  0  0  0  0  0  0  0  0  0  0  0
  -10.2698   55.9526   77.9871 H   0  0  0  0  0  0  0  0  0  0  0  0
  -11.1085   56.3847   76.4585 H   0  0  0  0  0  0  0  0  0  0  0  0
   -9.8402   55.1126   76.4585 H   0  0  0  0  0  0  0  0  0  0  0  0
   -6.1279   63.1817   78.5357 H   0  0  0  0  0  0  0  0  0  0  0  0
   -7.3053   62.1460   79.5375 H   0  0  0  0  0  0  0  0  0  0  0  0
   -5.4939   61.6634   80.7153 H   0  0  0  0  0  0  0  0  0  0  0  0
   -5.2112   60.4913   79.3838 H   0  0  0  0  0  0  0  0  0  0  0  0
   -4.3599   62.0730   79.3838 H   0  0  0  0  0  0  0  0  0  0  0  0
  -10.5213   63.2094   80.3314 H   0  0  0  0  0  0  0  0  0  0  0  0
   -9.6885   63.5458   78.7757 H   0  0  0  0  0  0  0  0  0  0  0  0
  -11.3517   62.8673   78.7757 H   0  0  0  0  0  0  0  0  0  0  0  0
  2  1  2  0
  3  2  1  0
  4  3  1  0
  5  4  1  0
  6  4  1  0
  7  6  1  0
  8  7  1  0
  8  3  2  0
  9  8  1  0
 10  9  2  0
 10  1  1  0
  7 11  1  6
 12 11  1  0
 13 12  1  0
 14 13  1  0
 14  7  1  0
 15 14  1  0
 16 15  1  0
 17 16  1  0
 17  6  1  0
 18 15  1  0
 19 18  2  0
 20 19  1  0
 20 13  1  0
 21 10  1  0
 22 21  1  0
 23 22  1  0
 24 23  1  0
 25 24  1  0
 26 25  1  0
 27 26  1  0
 28 27  1  0
 29 28  2  0
 29 21  1  0
 30 29  1  0
 31 30  1  0
 32 31  2  0
 32 28  1  0
 33 32  1  0
 34 33  2  0
 35 34  1  0
 36 35  2  0
 36 31  1  0
 37 25  1  0
 38 37  1  0
 39 38  1  0
 39 23  1  0
 38 40  1  6
 41 38  1  0
 42 41  1  0
 21 43  1  6
 44 43  2  0
 45 43  1  0
 46 45  1  0
 48 47  1  0
 48  1  1  0
 17 49  1  6
 50 17  1  0
 51 50  2  0
 52 50  1  0
 53 52  1  0
 15 54  1  1
 55 54  1  0
 56 16  1  0
 57 56  1  0
 58 57  2  0
 59 57  1  0
  2 60  1  0
  5 61  1  0
  5 62  1  0
  5 63  1  0
  6 64  1  6
  9 65  1  0
 11 66  1  0
 11 67  1  0
 12 68  1  0
 12 69  1  0
 13 70  1  1
 14 71  1  1
 16 72  1  1
 18 73  1  0
 19 74  1  0
 20 75  1  0
 20 76  1  0
 22 77  1  0
 22 78  1  0
 23 79  1  1
 24 80  1  0
 24 81  1  0
 25 82  1  6
 26 83  1  0
 26 84  1  0
 27 85  1  0
 27 86  1  0
 30 87  1  0
 33 88  1  0
 34 89  1  0
 35 90  1  0
 36 91  1  0
 37 92  1  0
 37 93  1  0
 39 94  1  0
 39 95  1  0
 40 96  1  0
 41 97  1  0
 41 98  1  0
 42 99  1  0
 42100  1  0
 42101  1  0
 46102  1  0
 46103  1  0
 46104  1  0
 47105  1  0
 47106  1  0
 47107  1  0
 49108  1  0
 53109  1  0
 53110  1  0
 53111  1  0
 54112  1  0
 54113  1  0
 55114  1  0
 55115  1  0
 55116  1  0
 59117  1  0
 59118  1  0
 59119  1  0
M  CHG  2  13   1  25   1
M  END
>  <score>  (9) 
-4.904

$$$$
