=
     RDKit          3D

 49 52  0  0  0  0  0  0  0  0999 V2000
    2.1390   68.3910   66.0310 N   0  0  0  0  0  0  0  0  0  0  0  0
    1.1760   67.2960   65.8410 C   0  0  0  0  0  0  0  0  0  0  0  0
   -0.1450   67.5880   66.5790 C   0  0  0  0  0  0  0  0  0  0  0  0
    0.0610   67.8020   68.0830 N   0  0  0  0  0  4  0  0  0  0  0  0
    1.4380   68.3950   68.4100 C   0  0  0  0  0  0  0  0  0  0  0  0
    2.0170   69.2160   67.2430 C   0  0  0  0  0  0  0  0  0  0  0  0
    3.3510   68.6700   61.0430 Cl  0  0  0  0  0  0  0  0  0  0  0  0
    3.7530   68.8560   62.7060 C   0  0  0  0  0  0  0  0  0  0  0  0
    5.0190   69.2980   63.0630 C   0  0  0  0  0  0  0  0  0  0  0  0
    5.3300   69.4400   64.4090 C   0  0  0  0  0  0  0  0  0  0  0  0
    4.3720   69.1370   65.3860 C   0  0  0  0  0  0  0  0  0  0  0  0
    3.0810   68.6860   65.0550 C   0  0  0  0  0  0  0  0  0  0  0  0
    2.7990   68.5560   63.6840 C   0  0  0  0  0  0  0  0  0  0  0  0
   -0.2400   66.5430   68.8790 C   0  0  0  0  0  0  0  0  0  0  0  0
    0.8310   66.3090   69.9400 C   0  0  0  0  0  0  0  0  0  0  0  0
    0.4340   65.1880   70.8970 C   0  0  0  0  0  0  0  0  0  0  0  0
    1.2340   64.0060   70.7030 N   0  0  0  0  0  0  0  0  0  0  0  0
    2.1960   63.9040   69.7200 N   0  0  0  0  0  0  0  0  0  0  0  0
    2.6740   62.7070   69.8880 C   0  0  0  0  0  0  0  0  0  0  0  0
    2.1370   62.0140   70.9280 N   0  0  0  0  0  0  0  0  0  0  0  0
    1.2070   62.8460   71.4990 C   0  0  0  0  0  0  0  0  0  0  0  0
    0.5310   62.6710   72.5000 O   0  0  0  0  0  0  0  0  0  0  0  0
    2.5100   60.7530   71.2990 C   0  0  0  0  0  0  0  0  0  0  0  0
    3.4670   60.1270   70.5970 C   0  0  0  0  0  0  0  0  0  0  0  0
    4.0850   60.7920   69.4630 C   0  0  0  0  0  0  0  0  0  0  0  0
    3.7260   62.0340   69.0960 C   0  0  0  0  0  0  0  0  0  0  0  0
    0.9699   67.1806   64.7667 H   0  0  0  0  0  0  0  0  0  0  0  0
    1.6100   66.3724   66.2516 H   0  0  0  0  0  0  0  0  0  0  0  0
   -0.5954   68.4959   66.1514 H   0  0  0  0  0  0  0  0  0  0  0  0
   -0.8009   66.7142   66.4512 H   0  0  0  0  0  0  0  0  0  0  0  0
   -0.6261   68.5095   68.3800 H   0  0  0  0  0  0  0  0  0  0  0  0
    1.3408   69.0500   69.2884 H   0  0  0  0  0  0  0  0  0  0  0  0
    2.1253   67.5584   68.6044 H   0  0  0  0  0  0  0  0  0  0  0  0
    1.3503   70.0658   67.0347 H   0  0  0  0  0  0  0  0  0  0  0  0
    3.0177   69.5737   67.5271 H   0  0  0  0  0  0  0  0  0  0  0  0
    5.7660   69.5327   62.2904 H   0  0  0  0  0  0  0  0  0  0  0  0
    6.3288   69.7905   64.7084 H   0  0  0  0  0  0  0  0  0  0  0  0
    4.6382   69.2557   66.4467 H   0  0  0  0  0  0  0  0  0  0  0  0
    1.8026   68.2095   63.3723 H   0  0  0  0  0  0  0  0  0  0  0  0
   -1.2181   66.6514   69.3705 H   0  0  0  0  0  0  0  0  0  0  0  0
   -0.2521   65.6839   68.1922 H   0  0  0  0  0  0  0  0  0  0  0  0
    1.7738   66.0374   69.4426 H   0  0  0  0  0  0  0  0  0  0  0  0
    0.9485   67.2348   70.5223 H   0  0  0  0  0  0  0  0  0  0  0  0
    0.5652   65.5402   71.9308 H   0  0  0  0  0  0  0  0  0  0  0  0
   -0.6153   64.9254   70.6970 H   0  0  0  0  0  0  0  0  0  0  0  0
    2.0337   60.2592   72.1588 H   0  0  0  0  0  0  0  0  0  0  0  0
    3.7830   59.1120   70.8798 H   0  0  0  0  0  0  0  0  0  0  0  0
    4.8647   60.2670   68.8916 H   0  0  0  0  0  0  0  0  0  0  0  0
    4.1981   62.5325   68.2366 H   0  0  0  0  0  0  0  0  0  0  0  0
  2  1  1  0
  3  2  1  0
  4  3  1  0
  5  4  1  0
  6  5  1  0
  6  1  1  0
  8  7  1  0
  9  8  2  0
 10  9  1  0
 11 10  2  0
 12 11  1  0
 12  1  1  0
 13 12  2  0
 13  8  1  0
 14  4  1  0
 15 14  1  0
 16 15  1  0
 17 16  1  0
 18 17  1  0
 19 18  2  0
 20 19  1  0
 21 17  1  0
 21 20  1  0
 22 21  2  0
 23 20  1  0
 24 23  2  0
 25 24  1  0
 26 25  2  0
 26 19  1  0
  2 27  1  0
  2 28  1  0
  3 29  1  0
  3 30  1  0
  4 31  1  0
  5 32  1  0
  5 33  1  0
  6 34  1  0
  6 35  1  0
  9 36  1  0
 10 37  1  0
 11 38  1  0
 13 39  1  0
 14 40  1  0
 14 41  1  0
 15 42  1  0
 15 43  1  0
 16 44  1  0
 16 45  1  0
 23 46  1  0
 24 47  1  0
 25 48  1  0
 26 49  1  0
M  CHG  1   4   1
M  END
>  <score>  (1) 
-10.2

$$$$
=
     RDKit          3D

 49 52  0  0  0  0  0  0  0  0999 V2000
    1.5480   67.6580   64.5330 N   0  0  0  0  0  0  0  0  0  0  0  0
    1.9770   68.7380   63.6310 C   0  0  0  0  0  0  0  0  0  0  0  0
    2.5660   68.1670   62.3280 C   0  0  0  0  0  0  0  0  0  0  0  0
    3.7610   67.2400   62.5820 N   0  0  0  0  0  4  0  0  0  0  0  0
    3.6670   66.5180   63.9330 C   0  0  0  0  0  0  0  0  0  0  0  0
    2.2120   66.3510   64.4110 C   0  0  0  0  0  0  0  0  0  0  0  0
   -0.7310   66.4340   68.9750 Cl  0  0  0  0  0  0  0  0  0  0  0  0
   -0.6690   67.3350   67.5090 C   0  0  0  0  0  0  0  0  0  0  0  0
   -1.6760   68.2420   67.2150 C   0  0  0  0  0  0  0  0  0  0  0  0
   -1.6130   68.9580   66.0260 C   0  0  0  0  0  0  0  0  0  0  0  0
   -0.5430   68.7590   65.1430 C   0  0  0  0  0  0  0  0  0  0  0  0
    0.4910   67.8460   65.4140 C   0  0  0  0  0  0  0  0  0  0  0  0
    0.3980   67.1400   66.6260 C   0  0  0  0  0  0  0  0  0  0  0  0
    5.0850   67.9600   62.3930 C   0  0  0  0  0  0  0  0  0  0  0  0
    5.1680   69.1810   63.3030 C   0  0  0  0  0  0  0  0  0  0  0  0
    5.9930   68.8910   64.5550 C   0  0  0  0  0  0  0  0  0  0  0  0
    5.3420   69.3600   65.7510 N   0  0  0  0  0  0  0  0  0  0  0  0
    3.9870   69.2230   65.9700 N   0  0  0  0  0  0  0  0  0  0  0  0
    3.8140   69.7630   67.1400 C   0  0  0  0  0  0  0  0  0  0  0  0
    4.9490   70.2150   67.7380 N   0  0  0  0  0  0  0  0  0  0  0  0
    5.9730   69.9440   66.8650 C   0  0  0  0  0  0  0  0  0  0  0  0
    7.1730   70.1110   67.0110 O   0  0  0  0  0  0  0  0  0  0  0  0
    5.0010   70.7900   68.9760 C   0  0  0  0  0  0  0  0  0  0  0  0
    3.8620   70.9410   69.6700 C   0  0  0  0  0  0  0  0  0  0  0  0
    2.6030   70.4950   69.0980 C   0  0  0  0  0  0  0  0  0  0  0  0
    2.5460   69.9250   67.8830 C   0  0  0  0  0  0  0  0  0  0  0  0
    1.1096   69.3692   63.3875 H   0  0  0  0  0  0  0  0  0  0  0  0
    2.7540   69.3297   64.1372 H   0  0  0  0  0  0  0  0  0  0  0  0
    1.7825   67.5980   61.8060 H   0  0  0  0  0  0  0  0  0  0  0  0
    2.9217   69.0135   61.7222 H   0  0  0  0  0  0  0  0  0  0  0  0
    3.7231   66.5014   61.8651 H   0  0  0  0  0  0  0  0  0  0  0  0
    4.1224   65.5217   63.8333 H   0  0  0  0  0  0  0  0  0  0  0  0
    4.1959   67.1309   64.6777 H   0  0  0  0  0  0  0  0  0  0  0  0
    1.6626   65.7340   63.6848 H   0  0  0  0  0  0  0  0  0  0  0  0
    2.2191   65.8661   65.3983 H   0  0  0  0  0  0  0  0  0  0  0  0
   -2.5126   68.3924   67.9131 H   0  0  0  0  0  0  0  0  0  0  0  0
   -2.4034   69.6815   65.7775 H   0  0  0  0  0  0  0  0  0  0  0  0
   -0.5112   69.3362   64.2071 H   0  0  0  0  0  0  0  0  0  0  0  0
    1.1841   66.4160   66.8865 H   0  0  0  0  0  0  0  0  0  0  0  0
    5.9083   67.2720   62.6356 H   0  0  0  0  0  0  0  0  0  0  0  0
    5.1614   68.2920   61.3471 H   0  0  0  0  0  0  0  0  0  0  0  0
    5.6369   70.0080   62.7496 H   0  0  0  0  0  0  0  0  0  0  0  0
    4.1479   69.4480   63.6161 H   0  0  0  0  0  0  0  0  0  0  0  0
    6.1451   67.8046   64.6362 H   0  0  0  0  0  0  0  0  0  0  0  0
    6.9521   69.4212   64.4601 H   0  0  0  0  0  0  0  0  0  0  0  0
    5.9607   71.1239   69.3974 H   0  0  0  0  0  0  0  0  0  0  0  0
    3.8817   71.4011   70.6690 H   0  0  0  0  0  0  0  0  0  0  0  0
    1.6748   70.6272   69.6734 H   0  0  0  0  0  0  0  0  0  0  0  0
    1.5892   69.5904   67.4557 H   0  0  0  0  0  0  0  0  0  0  0  0
  2  1  1  0
  3  2  1  0
  4  3  1  0
  5  4  1  0
  6  5  1  0
  6  1  1  0
  8  7  1  0
  9  8  2  0
 10  9  1  0
 11 10  2  0
 12 11  1  0
 12  1  1  0
 13 12  2  0
 13  8  1  0
 14  4  1  0
 15 14  1  0
 16 15  1  0
 17 16  1  0
 18 17  1  0
 19 18  2  0
 20 19  1  0
 21 17  1  0
 21 20  1  0
 22 21  2  0
 23 20  1  0
 24 23  2  0
 25 24  1  0
 26 25  2  0
 26 19  1  0
  2 27  1  0
  2 28  1  0
  3 29  1  0
  3 30  1  0
  4 31  1  0
  5 32  1  0
  5 33  1  0
  6 34  1  0
  6 35  1  0
  9 36  1  0
 10 37  1  0
 11 38  1  0
 13 39  1  0
 14 40  1  0
 14 41  1  0
 15 42  1  0
 15 43  1  0
 16 44  1  0
 16 45  1  0
 23 46  1  0
 24 47  1  0
 25 48  1  0
 26 49  1  0
M  CHG  1   4   1
M  END
>  <score>  (2) 
-9.686

$$$$
=
     RDKit          3D

 49 52  0  0  0  0  0  0  0  0999 V2000
    2.1330   68.3660   66.2440 N   0  0  0  0  0  0  0  0  0  0  0  0
    1.0940   67.3590   65.9800 C   0  0  0  0  0  0  0  0  0  0  0  0
   -0.1890   67.6670   66.7740 C   0  0  0  0  0  0  0  0  0  0  0  0
    0.0590   67.7270   68.2860 N   0  0  0  0  0  4  0  0  0  0  0  0
    1.4800   68.1950   68.6310 C   0  0  0  0  0  0  0  0  0  0  0  0
    2.0900   69.0820   67.5290 C   0  0  0  0  0  0  0  0  0  0  0  0
    3.3950   68.6290   61.2680 Cl  0  0  0  0  0  0  0  0  0  0  0  0
    3.7680   68.8550   62.9330 C   0  0  0  0  0  0  0  0  0  0  0  0
    5.0100   69.3560   63.2990 C   0  0  0  0  0  0  0  0  0  0  0  0
    5.2960   69.5300   64.6470 C   0  0  0  0  0  0  0  0  0  0  0  0
    4.3400   69.2000   65.6160 C   0  0  0  0  0  0  0  0  0  0  0  0
    3.0740   68.6880   65.2760 C   0  0  0  0  0  0  0  0  0  0  0  0
    2.8150   68.5280   63.9040 C   0  0  0  0  0  0  0  0  0  0  0  0
   -0.3100   66.4220   68.9710 C   0  0  0  0  0  0  0  0  0  0  0  0
    0.4670   66.2600   70.2730 C   0  0  0  0  0  0  0  0  0  0  0  0
    1.5690   65.2110   70.1390 C   0  0  0  0  0  0  0  0  0  0  0  0
    1.2520   64.0010   70.8530 N   0  0  0  0  0  0  0  0  0  0  0  0
    0.0320   63.7870   71.4610 N   0  0  0  0  0  0  0  0  0  0  0  0
    0.1560   62.6010   71.9770 C   0  0  0  0  0  0  0  0  0  0  0  0
    1.3450   61.9880   71.7310 N   0  0  0  0  0  0  0  0  0  0  0  0
    2.0770   62.8690   70.9750 C   0  0  0  0  0  0  0  0  0  0  0  0
    3.1770   62.7170   70.4660 O   0  0  0  0  0  0  0  0  0  0  0  0
    1.6760   60.7320   72.1540 C   0  0  0  0  0  0  0  0  0  0  0  0
    0.7850   60.0340   72.8750 C   0  0  0  0  0  0  0  0  0  0  0  0
   -0.5070   60.6210   73.1930 C   0  0  0  0  0  0  0  0  0  0  0  0
   -0.8390   61.8540   72.7750 C   0  0  0  0  0  0  0  0  0  0  0  0
    0.8599   67.3572   64.9052 H   0  0  0  0  0  0  0  0  0  0  0  0
    1.4723   66.3751   66.2942 H   0  0  0  0  0  0  0  0  0  0  0  0
   -0.5851   68.6381   66.4423 H   0  0  0  0  0  0  0  0  0  0  0  0
   -0.9044   66.8534   66.5837 H   0  0  0  0  0  0  0  0  0  0  0  0
   -0.5735   68.4473   68.6630 H   0  0  0  0  0  0  0  0  0  0  0  0
    1.4448   68.7700   69.5681 H   0  0  0  0  0  0  0  0  0  0  0  0
    2.1128   67.3007   68.7303 H   0  0  0  0  0  0  0  0  0  0  0  0
    1.4775   69.9887   67.4160 H   0  0  0  0  0  0  0  0  0  0  0  0
    3.1175   69.3468   67.8189 H   0  0  0  0  0  0  0  0  0  0  0  0
    5.7566   69.6114   62.5326 H   0  0  0  0  0  0  0  0  0  0  0  0
    6.2746   69.9275   64.9540 H   0  0  0  0  0  0  0  0  0  0  0  0
    4.5869   69.3459   66.6780 H   0  0  0  0  0  0  0  0  0  0  0  0
    1.8380   68.1356   63.5853 H   0  0  0  0  0  0  0  0  0  0  0  0
   -1.3878   66.4215   69.1909 H   0  0  0  0  0  0  0  0  0  0  0  0
   -0.0575   65.5866   68.3014 H   0  0  0  0  0  0  0  0  0  0  0  0
    0.9224   67.2250   70.5402 H   0  0  0  0  0  0  0  0  0  0  0  0
   -0.2328   65.9283   71.0542 H   0  0  0  0  0  0  0  0  0  0  0  0
    1.7025   64.9703   69.0740 H   0  0  0  0  0  0  0  0  0  0  0  0
    2.4902   65.6290   70.5711 H   0  0  0  0  0  0  0  0  0  0  0  0
    2.6570   60.2997   71.9076 H   0  0  0  0  0  0  0  0  0  0  0  0
    1.0313   59.0205   73.2245 H   0  0  0  0  0  0  0  0  0  0  0  0
   -1.2284   60.0427   73.7889 H   0  0  0  0  0  0  0  0  0  0  0  0
   -1.8180   62.2926   73.0184 H   0  0  0  0  0  0  0  0  0  0  0  0
  2  1  1  0
  3  2  1  0
  4  3  1  0
  5  4  1  0
  6  5  1  0
  6  1  1  0
  8  7  1  0
  9  8  2  0
 10  9  1  0
 11 10  2  0
 12 11  1  0
 12  1  1  0
 13 12  2  0
 13  8  1  0
 14  4  1  0
 15 14  1  0
 16 15  1  0
 17 16  1  0
 18 17  1  0
 19 18  2  0
 20 19  1  0
 21 17  1  0
 21 20  1  0
 22 21  2  0
 23 20  1  0
 24 23  2  0
 25 24  1  0
 26 25  2  0
 26 19  1  0
  2 27  1  0
  2 28  1  0
  3 29  1  0
  3 30  1  0
  4 31  1  0
  5 32  1  0
  5 33  1  0
  6 34  1  0
  6 35  1  0
  9 36  1  0
 10 37  1  0
 11 38  1  0
 13 39  1  0
 14 40  1  0
 14 41  1  0
 15 42  1  0
 15 43  1  0
 16 44  1  0
 16 45  1  0
 23 46  1  0
 24 47  1  0
 25 48  1  0
 26 49  1  0
M  CHG  1   4   1
M  END
>  <score>  (3) 
-9.553

$$$$
=
     RDKit          3D

 49 52  0  0  0  0  0  0  0  0999 V2000
    1.9610   62.2750   71.1040 N   0  0  0  0  0  0  0  0  0  0  0  0
    2.2850   63.1270   69.9500 C   0  0  0  0  0  0  0  0  0  0  0  0
    2.4100   64.6030   70.3710 C   0  0  0  0  0  0  0  0  0  0  0  0
    1.1290   65.1340   71.0270 N   0  0  0  0  0  4  0  0  0  0  0  0
    0.3470   64.0380   71.7640 C   0  0  0  0  0  0  0  0  0  0  0  0
    1.2550   62.8880   72.2390 C   0  0  0  0  0  0  0  0  0  0  0  0
    1.8920   57.7310   73.5070 Cl  0  0  0  0  0  0  0  0  0  0  0  0
    2.4110   58.7490   72.2200 C   0  0  0  0  0  0  0  0  0  0  0  0
    3.2530   58.2440   71.2390 C   0  0  0  0  0  0  0  0  0  0  0  0
    3.6660   59.0800   70.2090 C   0  0  0  0  0  0  0  0  0  0  0  0
    3.2350   60.4130   70.1710 C   0  0  0  0  0  0  0  0  0  0  0  0
    2.3840   60.9530   71.1530 C   0  0  0  0  0  0  0  0  0  0  0  0
    1.9830   60.0800   72.1790 C   0  0  0  0  0  0  0  0  0  0  0  0
    0.2680   65.9060   70.0400 C   0  0  0  0  0  0  0  0  0  0  0  0
    1.0500   67.0710   69.4420 C   0  0  0  0  0  0  0  0  0  0  0  0
    0.4310   67.5430   68.1280 C   0  0  0  0  0  0  0  0  0  0  0  0
    1.4330   67.9250   67.1670 N   0  0  0  0  0  0  0  0  0  0  0  0
    2.4620   68.7960   67.4610 N   0  0  0  0  0  0  0  0  0  0  0  0
    3.1270   68.8660   66.3470 C   0  0  0  0  0  0  0  0  0  0  0  0
    2.6500   68.0830   65.3420 N   0  0  0  0  0  0  0  0  0  0  0  0
    1.5550   67.4330   65.8540 C   0  0  0  0  0  0  0  0  0  0  0  0
    0.8530   66.5800   65.3340 O   0  0  0  0  0  0  0  0  0  0  0  0
    3.2090   67.9830   64.1000 C   0  0  0  0  0  0  0  0  0  0  0  0
    4.3040   68.7070   63.8210 C   0  0  0  0  0  0  0  0  0  0  0  0
    4.8720   69.5790   64.8360 C   0  0  0  0  0  0  0  0  0  0  0  0
    4.3290   69.6770   66.0610 C   0  0  0  0  0  0  0  0  0  0  0  0
    3.2391   62.7952   69.5146 H   0  0  0  0  0  0  0  0  0  0  0  0
    1.4737   63.0407   69.2122 H   0  0  0  0  0  0  0  0  0  0  0  0
    3.2391   64.6970   71.0877 H   0  0  0  0  0  0  0  0  0  0  0  0
    2.5930   65.1966   69.4632 H   0  0  0  0  0  0  0  0  0  0  0  0
    1.4214   65.8050   71.7517 H   0  0  0  0  0  0  0  0  0  0  0  0
   -0.1459   64.4841   72.6404 H   0  0  0  0  0  0  0  0  0  0  0  0
   -0.3863   63.6178   71.0600 H   0  0  0  0  0  0  0  0  0  0  0  0
    1.9937   63.2831   72.9519 H   0  0  0  0  0  0  0  0  0  0  0  0
    0.6295   62.1215   72.7198 H   0  0  0  0  0  0  0  0  0  0  0  0
    3.5885   57.1971   71.2764 H   0  0  0  0  0  0  0  0  0  0  0  0
    4.3319   58.6952   69.4226 H   0  0  0  0  0  0  0  0  0  0  0  0
    3.5730   61.0582   69.3467 H   0  0  0  0  0  0  0  0  0  0  0  0
    1.3156   60.4530   72.9698 H   0  0  0  0  0  0  0  0  0  0  0  0
   -0.0492   65.2307   69.2317 H   0  0  0  0  0  0  0  0  0  0  0  0
   -0.6099   66.3033   70.5704 H   0  0  0  0  0  0  0  0  0  0  0  0
    1.0504   67.9064   70.1576 H   0  0  0  0  0  0  0  0  0  0  0  0
    2.0759   66.7304   69.2382 H   0  0  0  0  0  0  0  0  0  0  0  0
   -0.1728   66.7261   67.7060 H   0  0  0  0  0  0  0  0  0  0  0  0
   -0.1891   68.4260   68.3420 H   0  0  0  0  0  0  0  0  0  0  0  0
    2.7689   67.3198   63.3407 H   0  0  0  0  0  0  0  0  0  0  0  0
    4.7704   68.6408   62.8270 H   0  0  0  0  0  0  0  0  0  0  0  0
    5.7667   70.1721   64.5956 H   0  0  0  0  0  0  0  0  0  0  0  0
    4.7641   70.3382   66.8249 H   0  0  0  0  0  0  0  0  0  0  0  0
  2  1  1  0
  3  2  1  0
  4  3  1  0
  5  4  1  0
  6  5  1  0
  6  1  1  0
  8  7  1  0
  9  8  2  0
 10  9  1  0
 11 10  2  0
 12 11  1  0
 12  1  1  0
 13 12  2  0
 13  8  1  0
 14  4  1  0
 15 14  1  0
 16 15  1  0
 17 16  1  0
 18 17  1  0
 19 18  2  0
 20 19  1  0
 21 17  1  0
 21 20  1  0
 22 21  2  0
 23 20  1  0
 24 23  2  0
 25 24  1  0
 26 25  2  0
 26 19  1  0
  2 27  1  0
  2 28  1  0
  3 29  1  0
  3 30  1  0
  4 31  1  0
  5 32  1  0
  5 33  1  0
  6 34  1  0
  6 35  1  0
  9 36  1  0
 10 37  1  0
 11 38  1  0
 13 39  1  0
 14 40  1  0
 14 41  1  0
 15 42  1  0
 15 43  1  0
 16 44  1  0
 16 45  1  0
 23 46  1  0
 24 47  1  0
 25 48  1  0
 26 49  1  0
M  CHG  1   4   1
M  END
>  <score>  (4) 
-9.542

$$$$
=
     RDKit          3D

 49 52  0  0  0  0  0  0  0  0999 V2000
    1.6560   63.3940   72.0290 N   0  0  0  0  0  0  0  0  0  0  0  0
    0.3890   64.1340   71.9280 C   0  0  0  0  0  0  0  0  0  0  0  0
    0.0360   64.4260   70.4580 C   0  0  0  0  0  0  0  0  0  0  0  0
    1.1290   65.2290   69.7430 N   0  0  0  0  0  4  0  0  0  0  0  0
    2.5290   64.9490   70.3050 C   0  0  0  0  0  0  0  0  0  0  0  0
    2.6360   63.5510   70.9440 C   0  0  0  0  0  0  0  0  0  0  0  0
    4.0250   59.1840   73.7860 Cl  0  0  0  0  0  0  0  0  0  0  0  0
    2.9660   60.5220   74.0080 C   0  0  0  0  0  0  0  0  0  0  0  0
    2.3410   60.7110   75.2330 C   0  0  0  0  0  0  0  0  0  0  0  0
    1.4870   61.7930   75.3940 C   0  0  0  0  0  0  0  0  0  0  0  0
    1.2640   62.6770   74.3300 C   0  0  0  0  0  0  0  0  0  0  0  0
    1.8820   62.5110   73.0770 C   0  0  0  0  0  0  0  0  0  0  0  0
    2.7420   61.4070   72.9480 C   0  0  0  0  0  0  0  0  0  0  0  0
    0.8020   66.7120   69.6970 C   0  0  0  0  0  0  0  0  0  0  0  0
    0.4080   67.1320   68.2840 C   0  0  0  0  0  0  0  0  0  0  0  0
    0.5610   68.6390   68.0860 C   0  0  0  0  0  0  0  0  0  0  0  0
    1.8520   68.9830   67.5480 N   0  0  0  0  0  0  0  0  0  0  0  0
    2.1770   68.8230   66.2170 N   0  0  0  0  0  0  0  0  0  0  0  0
    3.4050   69.2460   66.1530 C   0  0  0  0  0  0  0  0  0  0  0  0
    3.9140   69.7120   67.3250 N   0  0  0  0  0  0  0  0  0  0  0  0
    2.9140   69.5770   68.2550 C   0  0  0  0  0  0  0  0  0  0  0  0
    2.8980   69.9290   69.4240 O   0  0  0  0  0  0  0  0  0  0  0  0
    5.1710   70.2270   67.4780 C   0  0  0  0  0  0  0  0  0  0  0  0
    5.9840   70.2790   66.4120 C   0  0  0  0  0  0  0  0  0  0  0  0
    5.5220   69.7910   65.1240 C   0  0  0  0  0  0  0  0  0  0  0  0
    4.2860   69.2880   64.9670 C   0  0  0  0  0  0  0  0  0  0  0  0
   -0.4151   63.5336   72.3786 H   0  0  0  0  0  0  0  0  0  0  0  0
    0.4990   65.0912   72.4587 H   0  0  0  0  0  0  0  0  0  0  0  0
   -0.1020   63.4702   69.9312 H   0  0  0  0  0  0  0  0  0  0  0  0
   -0.8842   65.0286   70.4473 H   0  0  0  0  0  0  0  0  0  0  0  0
    1.1481   64.9007   68.7669 H   0  0  0  0  0  0  0  0  0  0  0  0
    3.2594   65.0198   69.4855 H   0  0  0  0  0  0  0  0  0  0  0  0
    2.7307   65.6930   71.0897 H   0  0  0  0  0  0  0  0  0  0  0  0
    2.4470   62.7879   70.1747 H   0  0  0  0  0  0  0  0  0  0  0  0
    3.6462   63.4322   71.3627 H   0  0  0  0  0  0  0  0  0  0  0  0
    2.5201   60.0131   76.0642 H   0  0  0  0  0  0  0  0  0  0  0  0
    0.9843   61.9569   76.3586 H   0  0  0  0  0  0  0  0  0  0  0  0
    0.5837   63.5284   74.4792 H   0  0  0  0  0  0  0  0  0  0  0  0
    3.2521   61.2343   71.9889 H   0  0  0  0  0  0  0  0  0  0  0  0
   -0.0335   66.9193   70.3819 H   0  0  0  0  0  0  0  0  0  0  0  0
    1.6932   67.2810   70.0004 H   0  0  0  0  0  0  0  0  0  0  0  0
    1.0531   66.6092   67.5625 H   0  0  0  0  0  0  0  0  0  0  0  0
   -0.6483   66.8682   68.1269 H   0  0  0  0  0  0  0  0  0  0  0  0
   -0.2177   68.9870   67.3913 H   0  0  0  0  0  0  0  0  0  0  0  0
    0.4619   69.1231   69.0687 H   0  0  0  0  0  0  0  0  0  0  0  0
    5.5102   70.5926   68.4585 H   0  0  0  0  0  0  0  0  0  0  0  0
    6.9991   70.6906   66.5131 H   0  0  0  0  0  0  0  0  0  0  0  0
    6.1990   69.8342   64.2581 H   0  0  0  0  0  0  0  0  0  0  0  0
    3.9416   68.9201   63.9893 H   0  0  0  0  0  0  0  0  0  0  0  0
  2  1  1  0
  3  2  1  0
  4  3  1  0
  5  4  1  0
  6  5  1  0
  6  1  1  0
  8  7  1  0
  9  8  2  0
 10  9  1  0
 11 10  2  0
 12 11  1  0
 12  1  1  0
 13 12  2  0
 13  8  1  0
 14  4  1  0
 15 14  1  0
 16 15  1  0
 17 16  1  0
 18 17  1  0
 19 18  2  0
 20 19  1  0
 21 17  1  0
 21 20  1  0
 22 21  2  0
 23 20  1  0
 24 23  2  0
 25 24  1  0
 26 25  2  0
 26 19  1  0
  2 27  1  0
  2 28  1  0
  3 29  1  0
  3 30  1  0
  4 31  1  0
  5 32  1  0
  5 33  1  0
  6 34  1  0
  6 35  1  0
  9 36  1  0
 10 37  1  0
 11 38  1  0
 13 39  1  0
 14 40  1  0
 14 41  1  0
 15 42  1  0
 15 43  1  0
 16 44  1  0
 16 45  1  0
 23 46  1  0
 24 47  1  0
 25 48  1  0
 26 49  1  0
M  CHG  1   4   1
M  END
>  <score>  (5) 
-8.735

$$$$
=
     RDKit          3D

 49 52  0  0  0  0  0  0  0  0999 V2000
    0.7640   63.9850   71.8710 N   0  0  0  0  0  0  0  0  0  0  0  0
   -0.0610   65.1900   71.6970 C   0  0  0  0  0  0  0  0  0  0  0  0
   -0.2430   65.5220   70.2040 C   0  0  0  0  0  0  0  0  0  0  0  0
    1.0950   65.7370   69.4860 N   0  0  0  0  0  4  0  0  0  0  0  0
    2.2340   64.9160   70.1040 C   0  0  0  0  0  0  0  0  0  0  0  0
    1.7250   63.6460   70.8110 C   0  0  0  0  0  0  0  0  0  0  0  0
   -1.5770   59.8960   73.9290 Cl  0  0  0  0  0  0  0  0  0  0  0  0
   -0.4790   61.2170   74.0340 C   0  0  0  0  0  0  0  0  0  0  0  0
    0.2160   61.4430   75.2140 C   0  0  0  0  0  0  0  0  0  0  0  0
    1.0960   62.5160   75.2840 C   0  0  0  0  0  0  0  0  0  0  0  0
    1.2720   63.3530   74.1740 C   0  0  0  0  0  0  0  0  0  0  0  0
    0.5800   63.1500   72.9660 C   0  0  0  0  0  0  0  0  0  0  0  0
   -0.3000   62.0550   72.9280 C   0  0  0  0  0  0  0  0  0  0  0  0
    1.4370   67.2130   69.3600 C   0  0  0  0  0  0  0  0  0  0  0  0
    0.9250   67.7720   68.0360 C   0  0  0  0  0  0  0  0  0  0  0  0
    1.1350   69.2830   67.9490 C   0  0  0  0  0  0  0  0  0  0  0  0
    2.5290   69.6280   67.8420 N   0  0  0  0  0  0  0  0  0  0  0  0
    3.2530   70.1550   68.8910 N   0  0  0  0  0  0  0  0  0  0  0  0
    4.4410   70.3160   68.3870 C   0  0  0  0  0  0  0  0  0  0  0  0
    4.5800   69.9020   67.0990 N   0  0  0  0  0  0  0  0  0  0  0  0
    3.3510   69.4220   66.7190 C   0  0  0  0  0  0  0  0  0  0  0  0
    3.0240   68.8860   65.6720 O   0  0  0  0  0  0  0  0  0  0  0  0
    5.7440   69.9520   66.3860 C   0  0  0  0  0  0  0  0  0  0  0  0
    6.8430   70.4510   66.9730 C   0  0  0  0  0  0  0  0  0  0  0  0
    6.7780   70.9260   68.3440 C   0  0  0  0  0  0  0  0  0  0  0  0
    5.6370   70.8740   69.0520 C   0  0  0  0  0  0  0  0  0  0  0  0
   -1.0484   65.0188   72.1506 H   0  0  0  0  0  0  0  0  0  0  0  0
    0.4454   66.0356   72.1854 H   0  0  0  0  0  0  0  0  0  0  0  0
   -0.7744   64.6898   69.7192 H   0  0  0  0  0  0  0  0  0  0  0  0
   -0.8148   66.4593   70.1359 H   0  0  0  0  0  0  0  0  0  0  0  0
    0.9795   65.3777   68.5276 H   0  0  0  0  0  0  0  0  0  0  0  0
    2.9304   64.6208   69.3054 H   0  0  0  0  0  0  0  0  0  0  0  0
    2.7296   65.5445   70.8586 H   0  0  0  0  0  0  0  0  0  0  0  0
    1.2326   62.9957   70.0730 H   0  0  0  0  0  0  0  0  0  0  0  0
    2.5828   63.1295   71.2664 H   0  0  0  0  0  0  0  0  0  0  0  0
    0.0722   60.7820   76.0814 H   0  0  0  0  0  0  0  0  0  0  0  0
    1.6550   62.7086   76.2116 H   0  0  0  0  0  0  0  0  0  0  0  0
    1.9742   64.1963   74.2496 H   0  0  0  0  0  0  0  0  0  0  0  0
   -0.8626   61.8515   72.0049 H   0  0  0  0  0  0  0  0  0  0  0  0
    0.9704   67.7643   70.1897 H   0  0  0  0  0  0  0  0  0  0  0  0
    2.5305   67.3277   69.3941 H   0  0  0  0  0  0  0  0  0  0  0  0
    1.4663   67.2875   67.2100 H   0  0  0  0  0  0  0  0  0  0  0  0
   -0.1539   67.5685   67.9690 H   0  0  0  0  0  0  0  0  0  0  0  0
    0.6055   69.6649   67.0636 H   0  0  0  0  0  0  0  0  0  0  0  0
    0.7428   69.7345   68.8722 H   0  0  0  0  0  0  0  0  0  0  0  0
    5.7801   69.5894   65.3481 H   0  0  0  0  0  0  0  0  0  0  0  0
    7.7909   70.5001   66.4170 H   0  0  0  0  0  0  0  0  0  0  0  0
    7.6835   71.3378   68.8136 H   0  0  0  0  0  0  0  0  0  0  0  0
    5.5947   71.2343   70.0905 H   0  0  0  0  0  0  0  0  0  0  0  0
  2  1  1  0
  3  2  1  0
  4  3  1  0
  5  4  1  0
  6  5  1  0
  6  1  1  0
  8  7  1  0
  9  8  2  0
 10  9  1  0
 11 10  2  0
 12 11  1  0
 12  1  1  0
 13 12  2  0
 13  8  1  0
 14  4  1  0
 15 14  1  0
 16 15  1  0
 17 16  1  0
 18 17  1  0
 19 18  2  0
 20 19  1  0
 21 17  1  0
 21 20  1  0
 22 21  2  0
 23 20  1  0
 24 23  2  0
 25 24  1  0
 26 25  2  0
 26 19  1  0
  2 27  1  0
  2 28  1  0
  3 29  1  0
  3 30  1  0
  4 31  1  0
  5 32  1  0
  5 33  1  0
  6 34  1  0
  6 35  1  0
  9 36  1  0
 10 37  1  0
 11 38  1  0
 13 39  1  0
 14 40  1  0
 14 41  1  0
 15 42  1  0
 15 43  1  0
 16 44  1  0
 16 45  1  0
 23 46  1  0
 24 47  1  0
 25 48  1  0
 26 49  1  0
M  CHG  1   4   1
M  END
>  <score>  (6) 
-8.541

$$$$
=
     RDKit          3D

 49 52  0  0  0  0  0  0  0  0999 V2000
    1.8760   62.3420   71.6890 N   0  0  0  0  0  0  0  0  0  0  0  0
    0.5460   62.9550   71.8260 C   0  0  0  0  0  0  0  0  0  0  0  0
    0.0760   63.5600   70.4900 C   0  0  0  0  0  0  0  0  0  0  0  0
    1.0480   64.6160   69.9520 N   0  0  0  0  0  4  0  0  0  0  0  0
    2.5000   64.3480   70.3710 C   0  0  0  0  0  0  0  0  0  0  0  0
    2.7670   62.8550   70.6380 C   0  0  0  0  0  0  0  0  0  0  0  0
    2.6240   60.3750   76.3790 Cl  0  0  0  0  0  0  0  0  0  0  0  0
    2.6230   60.2280   74.6640 C   0  0  0  0  0  0  0  0  0  0  0  0
    2.9930   59.0270   74.0750 C   0  0  0  0  0  0  0  0  0  0  0  0
    2.9910   58.9270   72.6900 C   0  0  0  0  0  0  0  0  0  0  0  0
    2.6200   60.0280   71.9070 C   0  0  0  0  0  0  0  0  0  0  0  0
    2.2430   61.2580   72.4750 C   0  0  0  0  0  0  0  0  0  0  0  0
    2.2530   61.3250   73.8790 C   0  0  0  0  0  0  0  0  0  0  0  0
    0.5920   66.0260   70.2890 C   0  0  0  0  0  0  0  0  0  0  0  0
    0.9540   66.9920   69.1650 C   0  0  0  0  0  0  0  0  0  0  0  0
   -0.2310   67.2330   68.2320 C   0  0  0  0  0  0  0  0  0  0  0  0
    0.1940   67.6060   66.9070 N   0  0  0  0  0  0  0  0  0  0  0  0
    1.3970   67.2040   66.3640 N   0  0  0  0  0  0  0  0  0  0  0  0
    1.3890   67.7420   65.1810 C   0  0  0  0  0  0  0  0  0  0  0  0
    0.2610   68.4380   64.8730 N   0  0  0  0  0  0  0  0  0  0  0  0
   -0.5540   68.3470   65.9740 C   0  0  0  0  0  0  0  0  0  0  0  0
   -1.6930   68.7610   66.1240 O   0  0  0  0  0  0  0  0  0  0  0  0
    0.0300   69.0580   63.6780 C   0  0  0  0  0  0  0  0  0  0  0  0
    0.9730   69.0000   62.7250 C   0  0  0  0  0  0  0  0  0  0  0  0
    2.2130   68.2860   62.9760 C   0  0  0  0  0  0  0  0  0  0  0  0
    2.4430   67.6700   64.1480 C   0  0  0  0  0  0  0  0  0  0  0  0
   -0.1731   62.1863   72.1454 H   0  0  0  0  0  0  0  0  0  0  0  0
    0.6069   63.7603   72.5729 H   0  0  0  0  0  0  0  0  0  0  0  0
   -0.0137   62.7523   69.7487 H   0  0  0  0  0  0  0  0  0  0  0  0
   -0.8908   64.0538   70.6674 H   0  0  0  0  0  0  0  0  0  0  0  0
    1.0336   64.5380   68.9251 H   0  0  0  0  0  0  0  0  0  0  0  0
    3.1685   64.6882   69.5665 H   0  0  0  0  0  0  0  0  0  0  0  0
    2.6857   64.8950   71.3071 H   0  0  0  0  0  0  0  0  0  0  0  0
    2.5953   62.2872   69.7116 H   0  0  0  0  0  0  0  0  0  0  0  0
    3.8084   62.7388   70.9727 H   0  0  0  0  0  0  0  0  0  0  0  0
    3.2836   58.1670   74.6962 H   0  0  0  0  0  0  0  0  0  0  0  0
    3.2810   57.9822   72.2070 H   0  0  0  0  0  0  0  0  0  0  0  0
    2.6237   59.9270   70.8117 H   0  0  0  0  0  0  0  0  0  0  0  0
    1.9625   62.2640   74.3729 H   0  0  0  0  0  0  0  0  0  0  0  0
   -0.4989   66.0288   70.4304 H   0  0  0  0  0  0  0  0  0  0  0  0
    1.0967   66.3505   71.2109 H   0  0  0  0  0  0  0  0  0  0  0  0
    1.2643   67.9516   69.6042 H   0  0  0  0  0  0  0  0  0  0  0  0
    1.7714   66.5481   68.5778 H   0  0  0  0  0  0  0  0  0  0  0  0
   -0.8261   66.3101   68.1677 H   0  0  0  0  0  0  0  0  0  0  0  0
   -0.8258   68.0613   68.6444 H   0  0  0  0  0  0  0  0  0  0  0  0
   -0.9130   69.5957   63.4999 H   0  0  0  0  0  0  0  0  0  0  0  0
    0.8073   69.4923   61.7554 H   0  0  0  0  0  0  0  0  0  0  0  0
    2.9808   68.2487   62.1892 H   0  0  0  0  0  0  0  0  0  0  0  0
    3.3838   67.1306   64.3320 H   0  0  0  0  0  0  0  0  0  0  0  0
  2  1  1  0
  3  2  1  0
  4  3  1  0
  5  4  1  0
  6  5  1  0
  6  1  1  0
  8  7  1  0
  9  8  2  0
 10  9  1  0
 11 10  2  0
 12 11  1  0
 12  1  1  0
 13 12  2  0
 13  8  1  0
 14  4  1  0
 15 14  1  0
 16 15  1  0
 17 16  1  0
 18 17  1  0
 19 18  2  0
 20 19  1  0
 21 17  1  0
 21 20  1  0
 22 21  2  0
 23 20  1  0
 24 23  2  0
 25 24  1  0
 26 25  2  0
 26 19  1  0
  2 27  1  0
  2 28  1  0
  3 29  1  0
  3 30  1  0
  4 31  1  0
  5 32  1  0
  5 33  1  0
  6 34  1  0
  6 35  1  0
  9 36  1  0
 10 37  1  0
 11 38  1  0
 13 39  1  0
 14 40  1  0
 14 41  1  0
 15 42  1  0
 15 43  1  0
 16 44  1  0
 16 45  1  0
 23 46  1  0
 24 47  1  0
 25 48  1  0
 26 49  1  0
M  CHG  1   4   1
M  END
>  <score>  (7) 
-8.511

$$$$
=
     RDKit          3D

 49 52  0  0  0  0  0  0  0  0999 V2000
    0.7980   62.1540   73.0970 N   0  0  0  0  0  0  0  0  0  0  0  0
    0.2640   60.8460   72.6870 C   0  0  0  0  0  0  0  0  0  0  0  0
   -0.7850   60.3380   73.6930 C   0  0  0  0  0  0  0  0  0  0  0  0
   -0.2210   60.2130   75.1140 N   0  0  0  0  0  4  0  0  0  0  0  0
    0.8960   61.2270   75.3950 C   0  0  0  0  0  0  0  0  0  0  0  0
    0.7710   62.4940   74.5280 C   0  0  0  0  0  0  0  0  0  0  0  0
   -0.2380   66.1950   70.0920 Cl  0  0  0  0  0  0  0  0  0  0  0  0
    0.8430   64.9950   70.6870 C   0  0  0  0  0  0  0  0  0  0  0  0
    2.1480   64.9480   70.2160 C   0  0  0  0  0  0  0  0  0  0  0  0
    3.0060   63.9710   70.7030 C   0  0  0  0  0  0  0  0  0  0  0  0
    2.5530   63.0500   71.6560 C   0  0  0  0  0  0  0  0  0  0  0  0
    1.2360   63.0710   72.1510 C   0  0  0  0  0  0  0  0  0  0  0  0
    0.3940   64.0730   71.6390 C   0  0  0  0  0  0  0  0  0  0  0  0
    0.1890   58.7850   75.4340 C   0  0  0  0  0  0  0  0  0  0  0  0
    1.6420   58.7340   75.8980 C   0  0  0  0  0  0  0  0  0  0  0  0
    2.4780   57.8080   75.0180 C   0  0  0  0  0  0  0  0  0  0  0  0
    3.0410   58.5010   73.8880 N   0  0  0  0  0  0  0  0  0  0  0  0
    4.0590   59.4250   74.0050 N   0  0  0  0  0  0  0  0  0  0  0  0
    4.2680   59.8010   72.7790 C   0  0  0  0  0  0  0  0  0  0  0  0
    3.5000   59.1760   71.8470 N   0  0  0  0  0  0  0  0  0  0  0  0
    2.7020   58.2990   72.5370 C   0  0  0  0  0  0  0  0  0  0  0  0
    1.9050   57.4800   72.1060 O   0  0  0  0  0  0  0  0  0  0  0  0
    3.5740   59.3980   70.5000 C   0  0  0  0  0  0  0  0  0  0  0  0
    4.4530   60.3010   70.0390 C   0  0  0  0  0  0  0  0  0  0  0  0
    5.3050   61.0220   70.9700 C   0  0  0  0  0  0  0  0  0  0  0  0
    5.2400   60.8040   72.2940 C   0  0  0  0  0  0  0  0  0  0  0  0
   -0.2049   60.9433   71.6967 H   0  0  0  0  0  0  0  0  0  0  0  0
    1.0935   60.1245   72.6515 H   0  0  0  0  0  0  0  0  0  0  0  0
   -1.6293   61.0429   73.7089 H   0  0  0  0  0  0  0  0  0  0  0  0
   -1.1022   59.3358   73.3690 H   0  0  0  0  0  0  0  0  0  0  0  0
   -0.9859   60.4526   75.7608 H   0  0  0  0  0  0  0  0  0  0  0  0
    0.8502   61.5183   76.4548 H   0  0  0  0  0  0  0  0  0  0  0  0
    1.8546   60.7463   75.1500 H   0  0  0  0  0  0  0  0  0  0  0  0
   -0.1787   62.9978   74.7609 H   0  0  0  0  0  0  0  0  0  0  0  0
    1.6208   63.1567   74.7485 H   0  0  0  0  0  0  0  0  0  0  0  0
    2.4974   65.6745   69.4676 H   0  0  0  0  0  0  0  0  0  0  0  0
    4.0431   63.9202   70.3398 H   0  0  0  0  0  0  0  0  0  0  0  0
    3.2496   62.2852   72.0298 H   0  0  0  0  0  0  0  0  0  0  0  0
   -0.6447   64.1340   71.9958 H   0  0  0  0  0  0  0  0  0  0  0  0
   -0.4591   58.3930   76.2317 H   0  0  0  0  0  0  0  0  0  0  0  0
    0.0856   58.1744   74.5249 H   0  0  0  0  0  0  0  0  0  0  0  0
    2.0668   59.7478   75.8550 H   0  0  0  0  0  0  0  0  0  0  0  0
    1.6625   58.3443   76.9264 H   0  0  0  0  0  0  0  0  0  0  0  0
    3.2966   57.3883   75.6211 H   0  0  0  0  0  0  0  0  0  0  0  0
    1.8182   57.0150   74.6361 H   0  0  0  0  0  0  0  0  0  0  0  0
    2.9238   58.8456   69.8057 H   0  0  0  0  0  0  0  0  0  0  0  0
    4.5286   60.4951   68.9589 H   0  0  0  0  0  0  0  0  0  0  0  0
    6.0192   61.7630   70.5817 H   0  0  0  0  0  0  0  0  0  0  0  0
    5.8878   61.3529   72.9933 H   0  0  0  0  0  0  0  0  0  0  0  0
  2  1  1  0
  3  2  1  0
  4  3  1  0
  5  4  1  0
  6  5  1  0
  6  1  1  0
  8  7  1  0
  9  8  2  0
 10  9  1  0
 11 10  2  0
 12 11  1  0
 12  1  1  0
 13 12  2  0
 13  8  1  0
 14  4  1  0
 15 14  1  0
 16 15  1  0
 17 16  1  0
 18 17  1  0
 19 18  2  0
 20 19  1  0
 21 17  1  0
 21 20  1  0
 22 21  2  0
 23 20  1  0
 24 23  2  0
 25 24  1  0
 26 25  2  0
 26 19  1  0
  2 27  1  0
  2 28  1  0
  3 29  1  0
  3 30  1  0
  4 31  1  0
  5 32  1  0
  5 33  1  0
  6 34  1  0
  6 35  1  0
  9 36  1  0
 10 37  1  0
 11 38  1  0
 13 39  1  0
 14 40  1  0
 14 41  1  0
 15 42  1  0
 15 43  1  0
 16 44  1  0
 16 45  1  0
 23 46  1  0
 24 47  1  0
 25 48  1  0
 26 49  1  0
M  CHG  1   4   1
M  END
>  <score>  (8) 
-8.506

$$$$
=
     RDKit          3D

 49 52  0  0  0  0  0  0  0  0999 V2000
    0.7770   62.0710   73.1440 N   0  0  0  0  0  0  0  0  0  0  0  0
    0.0720   60.8530   72.7140 C   0  0  0  0  0  0  0  0  0  0  0  0
   -0.9390   60.3950   73.7800 C   0  0  0  0  0  0  0  0  0  0  0  0
   -0.2760   60.1220   75.1360 N   0  0  0  0  0  4  0  0  0  0  0  0
    0.9640   60.9960   75.3710 C   0  0  0  0  0  0  0  0  0  0  0  0
    0.9050   62.3210   74.5870 C   0  0  0  0  0  0  0  0  0  0  0  0
   -0.1950   66.1560   70.1780 Cl  0  0  0  0  0  0  0  0  0  0  0  0
    0.8700   64.9390   70.7680 C   0  0  0  0  0  0  0  0  0  0  0  0
    2.1780   64.8870   70.3090 C   0  0  0  0  0  0  0  0  0  0  0  0
    3.0240   63.8960   70.7920 C   0  0  0  0  0  0  0  0  0  0  0  0
    2.5530   62.9680   71.7300 C   0  0  0  0  0  0  0  0  0  0  0  0
    1.2320   62.9950   72.2130 C   0  0  0  0  0  0  0  0  0  0  0  0
    0.4040   64.0110   71.7050 C   0  0  0  0  0  0  0  0  0  0  0  0
    0.0020   58.6420   75.3410 C   0  0  0  0  0  0  0  0  0  0  0  0
    0.2420   57.9500   74.0030 C   0  0  0  0  0  0  0  0  0  0  0  0
    1.6610   57.3930   73.9080 C   0  0  0  0  0  0  0  0  0  0  0  0
    2.5140   58.2260   73.1000 N   0  0  0  0  0  0  0  0  0  0  0  0
    2.3430   58.3780   71.7390 N   0  0  0  0  0  0  0  0  0  0  0  0
    3.2980   59.1950   71.4050 C   0  0  0  0  0  0  0  0  0  0  0  0
    4.0680   59.6330   72.4370 N   0  0  0  0  0  0  0  0  0  0  0  0
    3.5650   59.0360   73.5660 C   0  0  0  0  0  0  0  0  0  0  0  0
    3.8980   59.1900   74.7310 O   0  0  0  0  0  0  0  0  0  0  0  0
    5.1050   60.5140   72.3160 C   0  0  0  0  0  0  0  0  0  0  0  0
    5.4130   60.9900   71.1000 C   0  0  0  0  0  0  0  0  0  0  0  0
    4.6460   60.5640   69.9410 C   0  0  0  0  0  0  0  0  0  0  0  0
    3.6220   59.7020   70.0550 C   0  0  0  0  0  0  0  0  0  0  0  0
   -0.4636   61.0598   71.7757 H   0  0  0  0  0  0  0  0  0  0  0  0
    0.8126   60.0530   72.5670 H   0  0  0  0  0  0  0  0  0  0  0  0
   -1.6967   61.1818   73.9093 H   0  0  0  0  0  0  0  0  0  0  0  0
   -1.3902   59.4541   73.4319 H   0  0  0  0  0  0  0  0  0  0  0  0
   -0.9546   60.3973   75.8603 H   0  0  0  0  0  0  0  0  0  0  0  0
    1.0375   61.2237   76.4447 H   0  0  0  0  0  0  0  0  0  0  0  0
    1.8418   60.4354   75.0171 H   0  0  0  0  0  0  0  0  0  0  0  0
    0.0376   62.9041   74.9299 H   0  0  0  0  0  0  0  0  0  0  0  0
    1.8368   62.8774   74.7662 H   0  0  0  0  0  0  0  0  0  0  0  0
    2.5404   65.6199   69.5731 H   0  0  0  0  0  0  0  0  0  0  0  0
    4.0639   63.8401   70.4377 H   0  0  0  0  0  0  0  0  0  0  0  0
    3.2390   62.1924   72.1012 H   0  0  0  0  0  0  0  0  0  0  0  0
   -0.6372   64.0780   72.0533 H   0  0  0  0  0  0  0  0  0  0  0  0
    0.8948   58.5261   75.9731 H   0  0  0  0  0  0  0  0  0  0  0  0
   -0.8709   58.1814   75.8267 H   0  0  0  0  0  0  0  0  0  0  0  0
   -0.4748   57.1227   73.8947 H   0  0  0  0  0  0  0  0  0  0  0  0
    0.1077   58.6916   73.2017 H   0  0  0  0  0  0  0  0  0  0  0  0
    2.0852   57.3268   74.9208 H   0  0  0  0  0  0  0  0  0  0  0  0
    1.6062   56.4017   73.4343 H   0  0  0  0  0  0  0  0  0  0  0  0
    5.6780   60.8280   73.2009 H   0  0  0  0  0  0  0  0  0  0  0  0
    6.2439   61.7009   70.9804 H   0  0  0  0  0  0  0  0  0  0  0  0
    4.9101   60.9564   68.9479 H   0  0  0  0  0  0  0  0  0  0  0  0
    3.0447   59.3845   69.1742 H   0  0  0  0  0  0  0  0  0  0  0  0
  2  1  1  0
  3  2  1  0
  4  3  1  0
  5  4  1  0
  6  5  1  0
  6  1  1  0
  8  7  1  0
  9  8  2  0
 10  9  1  0
 11 10  2  0
 12 11  1  0
 12  1  1  0
 13 12  2  0
 13  8  1  0
 14  4  1  0
 15 14  1  0
 16 15  1  0
 17 16  1  0
 18 17  1  0
 19 18  2  0
 20 19  1  0
 21 17  1  0
 21 20  1  0
 22 21  2  0
 23 20  1  0
 24 23  2  0
 25 24  1  0
 26 25  2  0
 26 19  1  0
  2 27  1  0
  2 28  1  0
  3 29  1  0
  3 30  1  0
  4 31  1  0
  5 32  1  0
  5 33  1  0
  6 34  1  0
  6 35  1  0
  9 36  1  0
 10 37  1  0
 11 38  1  0
 13 39  1  0
 14 40  1  0
 14 41  1  0
 15 42  1  0
 15 43  1  0
 16 44  1  0
 16 45  1  0
 23 46  1  0
 24 47  1  0
 25 48  1  0
 26 49  1  0
M  CHG  1   4   1
M  END
>  <score>  (9) 
-8.416

$$$$
