=
     RDKit          3D

 46 49  0  0  0  0  0  0  0  0999 V2000
    4.7370   64.6010   63.9260 C   0  0  0  0  0  0  0  0  0  0  0  0
    3.5160   64.0730   64.3290 C   0  0  0  0  0  0  0  0  0  0  0  0
    2.4800   64.9280   64.7100 C   0  0  0  0  0  0  0  0  0  0  0  0
    2.6500   66.3220   64.6970 C   0  0  0  0  0  0  0  0  0  0  0  0
    3.8950   66.8710   64.3350 C   0  0  0  0  0  0  0  0  0  0  0  0
    4.9130   65.9880   63.9240 C   0  0  0  0  0  0  0  0  0  0  0  0
    4.1150   68.3950   64.2890 C   0  0  2  0  0  0  0  0  0  0  0  0
    5.5520   68.7630   64.7790 C   0  0  0  0  0  0  0  0  0  0  0  0
    5.6020   70.0080   65.6620 C   0  0  0  0  0  0  0  0  0  0  0  0
    4.7150   69.8550   66.9010 C   0  0  0  0  0  0  0  0  0  0  0  0
    3.3900   69.1370   66.6180 C   0  0  0  0  0  0  0  0  0  0  0  0
    3.0590   69.1750   65.1230 C   0  0  2  0  0  0  0  0  0  0  0  0
    1.6620   68.6740   64.7640 C   0  0  2  0  0  0  0  0  0  0  0  0
    1.4830   67.1870   65.0920 C   0  0  0  0  0  0  0  0  0  0  0  0
    1.4350   69.0190   63.2770 N   0  0  1  0  0  4  0  0  0  0  0  0
    2.4850   68.5000   62.3160 C   0  0  0  0  0  0  0  0  0  0  0  0
    3.8960   68.8240   62.8150 C   0  0  0  0  0  0  0  0  0  0  0  0
    0.0440   68.7170   62.7890 C   0  0  0  0  0  0  0  0  0  0  0  0
    5.6010   62.5410   63.1070 C   0  0  0  0  0  0  0  0  0  0  0  0
    5.8240   63.8890   63.5040 O   0  0  0  0  0  0  0  0  0  0  0  0
    3.3662   62.9834   64.3477 H   0  0  0  0  0  0  0  0  0  0  0  0
    1.5156   64.5031   65.0253 H   0  0  0  0  0  0  0  0  0  0  0  0
    5.8760   66.4026   63.5913 H   0  0  0  0  0  0  0  0  0  0  0  0
    5.9505   67.9139   65.3537 H   0  0  0  0  0  0  0  0  0  0  0  0
    6.1501   68.9820   63.8822 H   0  0  0  0  0  0  0  0  0  0  0  0
    6.6402   70.1757   65.9845 H   0  0  0  0  0  0  0  0  0  0  0  0
    5.2306   70.8614   65.0757 H   0  0  0  0  0  0  0  0  0  0  0  0
    5.2688   69.2791   67.6571 H   0  0  0  0  0  0  0  0  0  0  0  0
    4.4666   70.8685   67.2490 H   0  0  0  0  0  0  0  0  0  0  0  0
    3.4711   68.0892   66.9428 H   0  0  0  0  0  0  0  0  0  0  0  0
    2.5873   69.6480   67.1698 H   0  0  0  0  0  0  0  0  0  0  0  0
    3.0839   70.2444   64.8668 H   0  0  0  0  0  0  0  0  0  0  0  0
    0.8913   69.1690   65.3730 H   0  0  0  0  0  0  0  0  0  0  0  0
    1.3330   67.0890   66.1773 H   0  0  0  0  0  0  0  0  0  0  0  0
    0.6188   66.8369   64.5084 H   0  0  0  0  0  0  0  0  0  0  0  0
    1.5475   70.0428   63.2704 H   0  0  0  0  0  0  0  0  0  0  0  0
    2.3786   67.4092   62.2222 H   0  0  0  0  0  0  0  0  0  0  0  0
    2.3383   68.9876   61.3409 H   0  0  0  0  0  0  0  0  0  0  0  0
    4.6244   68.2965   62.1817 H   0  0  0  0  0  0  0  0  0  0  0  0
    4.0290   69.9145   62.7599 H   0  0  0  0  0  0  0  0  0  0  0  0
   -0.6236   68.5721   63.6511 H   0  0  0  0  0  0  0  0  0  0  0  0
   -0.3212   69.5568   62.1796 H   0  0  0  0  0  0  0  0  0  0  0  0
    0.0599   67.8014   62.1796 H   0  0  0  0  0  0  0  0  0  0  0  0
    5.4963   61.9081   64.0006 H   0  0  0  0  0  0  0  0  0  0  0  0
    4.6810   62.4829   62.5067 H   0  0  0  0  0  0  0  0  0  0  0  0
    6.4532   62.1898   62.5067 H   0  0  0  0  0  0  0  0  0  0  0  0
  2  1  2  0
  3  2  1  0
  4  3  2  0
  5  4  1  0
  6  1  1  0
  6  5  2  0
  7  5  1  0
  7  8  1  1
  9  8  1  0
 10  9  1  0
 11 10  1  0
 12  7  1  0
 12 11  1  0
 13 12  1  0
 14 13  1  0
 14  4  1  0
 15 13  1  0
 16 15  1  0
 17 16  1  0
 17  7  1  0
 18 15  1  0
 20  1  1  0
 20 19  1  0
  2 21  1  0
  3 22  1  0
  6 23  1  0
  8 24  1  0
  8 25  1  0
  9 26  1  0
  9 27  1  0
 10 28  1  0
 10 29  1  0
 11 30  1  0
 11 31  1  0
 12 32  1  6
 13 33  1  1
 14 34  1  0
 14 35  1  0
 15 36  1  1
 16 37  1  0
 16 38  1  0
 17 39  1  0
 17 40  1  0
 18 41  1  0
 18 42  1  0
 18 43  1  0
 19 44  1  0
 19 45  1  0
 19 46  1  0
M  CHG  1  15   1
M  END
>  <score>  (1) 
-9.985

$$$$
=
     RDKit          3D

 46 49  0  0  0  0  0  0  0  0999 V2000
   -0.7280   68.9360   63.6450 C   0  0  0  0  0  0  0  0  0  0  0  0
   -0.1480   69.1370   62.3980 C   0  0  0  0  0  0  0  0  0  0  0  0
    1.2280   68.9640   62.2360 C   0  0  0  0  0  0  0  0  0  0  0  0
    2.0440   68.5910   63.3170 C   0  0  0  0  0  0  0  0  0  0  0  0
    1.4770   68.4300   64.5960 C   0  0  0  0  0  0  0  0  0  0  0  0
    0.0820   68.5780   64.7260 C   0  0  0  0  0  0  0  0  0  0  0  0
    2.3350   68.0020   65.8040 C   0  0  2  0  0  0  0  0  0  0  0  0
    1.8610   68.7270   67.1040 C   0  0  0  0  0  0  0  0  0  0  0  0
    3.0060   69.1910   68.0030 C   0  0  0  0  0  0  0  0  0  0  0  0
    3.9530   70.1390   67.2630 C   0  0  0  0  0  0  0  0  0  0  0  0
    4.2040   69.7360   65.8050 C   0  0  0  0  0  0  0  0  0  0  0  0
    3.8510   68.2630   65.5790 C   0  0  2  0  0  0  0  0  0  0  0  0
    4.2620   67.7070   64.2180 C   0  0  2  0  0  0  0  0  0  0  0  0
    3.5150   68.3940   63.0680 C   0  0  0  0  0  0  0  0  0  0  0  0
    4.0510   66.1800   64.2780 N   0  0  1  0  0  4  0  0  0  0  0  0
    2.6610   65.7260   64.6770 C   0  0  0  0  0  0  0  0  0  0  0  0
    2.1790   66.4650   65.9280 C   0  0  0  0  0  0  0  0  0  0  0  0
    4.5400   65.4510   63.0560 C   0  0  0  0  0  0  0  0  0  0  0  0
   -2.4300   68.8980   65.3080 C   0  0  0  0  0  0  0  0  0  0  0  0
   -2.0580   69.0450   63.9420 O   0  0  0  0  0  0  0  0  0  0  0  0
   -0.7714   69.4316   61.5409 H   0  0  0  0  0  0  0  0  0  0  0  0
    1.6804   69.1223   61.2459 H   0  0  0  0  0  0  0  0  0  0  0  0
   -0.3835   68.4066   65.7078 H   0  0  0  0  0  0  0  0  0  0  0  0
    1.2690   69.6075   66.8139 H   0  0  0  0  0  0  0  0  0  0  0  0
    1.2747   67.9977   67.6822 H   0  0  0  0  0  0  0  0  0  0  0  0
    2.5862   69.7141   68.8748 H   0  0  0  0  0  0  0  0  0  0  0  0
    3.5793   68.3057   68.3154 H   0  0  0  0  0  0  0  0  0  0  0  0
    3.5154   71.1481   67.2751 H   0  0  0  0  0  0  0  0  0  0  0  0
    4.9222   70.0989   67.7817 H   0  0  0  0  0  0  0  0  0  0  0  0
    3.5830   70.3608   65.1462 H   0  0  0  0  0  0  0  0  0  0  0  0
    5.2703   69.8817   65.5777 H   0  0  0  0  0  0  0  0  0  0  0  0
    4.4470   67.7242   66.3303 H   0  0  0  0  0  0  0  0  0  0  0  0
    5.3202   67.9176   64.0039 H   0  0  0  0  0  0  0  0  0  0  0  0
    3.9716   69.3807   62.9011 H   0  0  0  0  0  0  0  0  0  0  0  0
    3.6012   67.7306   62.1948 H   0  0  0  0  0  0  0  0  0  0  0  0
    4.6588   65.9052   65.0628 H   0  0  0  0  0  0  0  0  0  0  0  0
    1.9653   65.9286   63.8494 H   0  0  0  0  0  0  0  0  0  0  0  0
    2.6947   64.6490   64.8981 H   0  0  0  0  0  0  0  0  0  0  0  0
    1.1167   66.2298   66.0898 H   0  0  0  0  0  0  0  0  0  0  0  0
    2.7991   66.1324   66.7735 H   0  0  0  0  0  0  0  0  0  0  0  0
    5.1284   64.5738   63.3633 H   0  0  0  0  0  0  0  0  0  0  0  0
    3.6787   65.1228   62.4557 H   0  0  0  0  0  0  0  0  0  0  0  0
    5.1704   66.1234   62.4557 H   0  0  0  0  0  0  0  0  0  0  0  0
   -1.6002   69.2259   65.9513 H   0  0  0  0  0  0  0  0  0  0  0  0
   -3.3187   69.5125   65.5142 H   0  0  0  0  0  0  0  0  0  0  0  0
   -2.6586   67.8419   65.5142 H   0  0  0  0  0  0  0  0  0  0  0  0
  2  1  2  0
  3  2  1  0
  4  3  2  0
  5  4  1  0
  6  1  1  0
  6  5  2  0
  7  5  1  0
  7  8  1  1
  9  8  1  0
 10  9  1  0
 11 10  1  0
 12  7  1  0
 12 11  1  0
 13 12  1  0
 14 13  1  0
 14  4  1  0
 15 13  1  0
 16 15  1  0
 17 16  1  0
 17  7  1  0
 18 15  1  0
 20  1  1  0
 20 19  1  0
  2 21  1  0
  3 22  1  0
  6 23  1  0
  8 24  1  0
  8 25  1  0
  9 26  1  0
  9 27  1  0
 10 28  1  0
 10 29  1  0
 11 30  1  0
 11 31  1  0
 12 32  1  1
 13 33  1  6
 14 34  1  0
 14 35  1  0
 15 36  1  1
 16 37  1  0
 16 38  1  0
 17 39  1  0
 17 40  1  0
 18 41  1  0
 18 42  1  0
 18 43  1  0
 19 44  1  0
 19 45  1  0
 19 46  1  0
M  CHG  1  15   1
M  END
>  <score>  (2) 
-8.636

$$$$
=
     RDKit          3D

 46 49  0  0  0  0  0  0  0  0999 V2000
    5.2490   70.2170   66.2660 C   0  0  0  0  0  0  0  0  0  0  0  0
    4.3590   69.8230   67.2580 C   0  0  0  0  0  0  0  0  0  0  0  0
    3.3780   68.8710   66.9740 C   0  0  0  0  0  0  0  0  0  0  0  0
    3.2700   68.3020   65.6940 C   0  0  0  0  0  0  0  0  0  0  0  0
    4.1340   68.7250   64.6660 C   0  0  0  0  0  0  0  0  0  0  0  0
    5.1360   69.6630   64.9870 C   0  0  0  0  0  0  0  0  0  0  0  0
    4.0610   68.1110   63.2550 C   0  0  2  0  0  0  0  0  0  0  0  0
    4.3310   69.1960   62.1640 C   0  0  0  0  0  0  0  0  0  0  0  0
    3.4260   69.0770   60.9390 C   0  0  0  0  0  0  0  0  0  0  0  0
    1.9470   69.1640   61.3220 C   0  0  0  0  0  0  0  0  0  0  0  0
    1.6110   68.4360   62.6290 C   0  0  0  0  0  0  0  0  0  0  0  0
    2.6980   67.4160   62.9780 C   0  0  2  0  0  0  0  0  0  0  0  0
    2.3570   66.4910   64.1450 C   0  0  2  0  0  0  0  0  0  0  0  0
    2.2080   67.2610   65.4630 C   0  0  0  0  0  0  0  0  0  0  0  0
    3.4450   65.3970   64.1780 N   0  0  1  0  0  4  0  0  0  0  0  0
    4.8740   65.8970   64.2520 C   0  0  0  0  0  0  0  0  0  0  0  0
    5.1300   66.9890   63.2090 C   0  0  0  0  0  0  0  0  0  0  0  0
    3.1860   64.3140   65.1900 C   0  0  0  0  0  0  0  0  0  0  0  0
    6.7510   71.3450   67.7270 C   0  0  0  0  0  0  0  0  0  0  0  0
    6.2690   71.1150   66.4080 O   0  0  0  0  0  0  0  0  0  0  0  0
    4.4273   70.2604   68.2650 H   0  0  0  0  0  0  0  0  0  0  0  0
    2.6787   68.5616   67.7648 H   0  0  0  0  0  0  0  0  0  0  0  0
    5.8503   69.9683   64.2082 H   0  0  0  0  0  0  0  0  0  0  0  0
    4.1759   70.1873   62.6148 H   0  0  0  0  0  0  0  0  0  0  0  0
    5.3638   69.0493   61.8149 H   0  0  0  0  0  0  0  0  0  0  0  0
    3.6624   69.8925   60.2397 H   0  0  0  0  0  0  0  0  0  0  0  0
    3.6041   68.0966   60.4730 H   0  0  0  0  0  0  0  0  0  0  0  0
    1.6782   70.2246   61.4349 H   0  0  0  0  0  0  0  0  0  0  0  0
    1.3754   68.6724   60.5210 H   0  0  0  0  0  0  0  0  0  0  0  0
    1.5331   69.1725   63.4423 H   0  0  0  0  0  0  0  0  0  0  0  0
    0.6565   67.9043   62.5012 H   0  0  0  0  0  0  0  0  0  0  0  0
    2.7689   66.7799   62.0834 H   0  0  0  0  0  0  0  0  0  0  0  0
    1.3731   66.0190   64.0067 H   0  0  0  0  0  0  0  0  0  0  0  0
    1.2288   67.7621   65.4607 H   0  0  0  0  0  0  0  0  0  0  0  0
    2.3080   66.5231   66.2726 H   0  0  0  0  0  0  0  0  0  0  0  0
    3.3574   64.9714   63.2441 H   0  0  0  0  0  0  0  0  0  0  0  0
    5.0595   66.3078   65.2554 H   0  0  0  0  0  0  0  0  0  0  0  0
    5.5505   65.0538   64.0487 H   0  0  0  0  0  0  0  0  0  0  0  0
    6.1179   67.4341   63.3984 H   0  0  0  0  0  0  0  0  0  0  0  0
    5.0833   66.5212   62.2145 H   0  0  0  0  0  0  0  0  0  0  0  0
    3.2851   64.7285   66.2041 H   0  0  0  0  0  0  0  0  0  0  0  0
    2.1683   63.9198   65.0529 H   0  0  0  0  0  0  0  0  0  0  0  0
    3.9153   63.5020   65.0529 H   0  0  0  0  0  0  0  0  0  0  0  0
    6.0076   70.9903   68.4561 H   0  0  0  0  0  0  0  0  0  0  0  0
    7.6958   70.8007   67.8723 H   0  0  0  0  0  0  0  0  0  0  0  0
    6.9222   72.4218   67.8723 H   0  0  0  0  0  0  0  0  0  0  0  0
  2  1  2  0
  3  2  1  0
  4  3  2  0
  5  4  1  0
  6  1  1  0
  6  5  2  0
  7  5  1  0
  7  8  1  6
  9  8  1  0
 10  9  1  0
 11 10  1  0
 12  7  1  0
 12 11  1  0
 13 12  1  0
 14 13  1  0
 14  4  1  0
 15 13  1  0
 16 15  1  0
 17 16  1  0
 17  7  1  0
 18 15  1  0
 20  1  1  0
 20 19  1  0
  2 21  1  0
  3 22  1  0
  6 23  1  0
  8 24  1  0
  8 25  1  0
  9 26  1  0
  9 27  1  0
 10 28  1  0
 10 29  1  0
 11 30  1  0
 11 31  1  0
 12 32  1  6
 13 33  1  6
 14 34  1  0
 14 35  1  0
 15 36  1  6
 16 37  1  0
 16 38  1  0
 17 39  1  0
 17 40  1  0
 18 41  1  0
 18 42  1  0
 18 43  1  0
 19 44  1  0
 19 45  1  0
 19 46  1  0
M  CHG  1  15   1
M  END
>  <score>  (3) 
-7.992

$$$$
=
     RDKit          3D

 46 49  0  0  0  0  0  0  0  0999 V2000
    4.4910   70.2020   67.6340 C   0  0  0  0  0  0  0  0  0  0  0  0
    3.6510   70.8020   68.5640 C   0  0  0  0  0  0  0  0  0  0  0  0
    2.2800   70.5440   68.5320 C   0  0  0  0  0  0  0  0  0  0  0  0
    1.7270   69.6850   67.5670 C   0  0  0  0  0  0  0  0  0  0  0  0
    2.5580   69.1060   66.5900 C   0  0  0  0  0  0  0  0  0  0  0  0
    3.9430   69.3570   66.6640 C   0  0  0  0  0  0  0  0  0  0  0  0
    1.9940   68.1430   65.5270 C   0  0  2  0  0  0  0  0  0  0  0  0
    2.7070   68.3540   64.1530 C   0  0  0  0  0  0  0  0  0  0  0  0
    1.7650   68.2910   62.9530 C   0  0  0  0  0  0  0  0  0  0  0  0
    0.6480   69.3320   63.0600 C   0  0  0  0  0  0  0  0  0  0  0  0
    0.1070   69.5040   64.4840 C   0  0  0  0  0  0  0  0  0  0  0  0
    0.4570   68.2880   65.3490 C   0  0  2  0  0  0  0  0  0  0  0  0
   -0.2150   68.2630   66.7190 C   0  0  2  0  0  0  0  0  0  0  0  0
    0.2450   69.4280   67.6060 C   0  0  0  0  0  0  0  0  0  0  0  0
    0.0590   66.8700   67.3240 N   0  0  1  0  0  4  0  0  0  0  0  0
    1.5170   66.4650   67.4020 C   0  0  0  0  0  0  0  0  0  0  0  0
    2.2280   66.7090   66.0680 C   0  0  0  0  0  0  0  0  0  0  0  0
   -0.6530   66.6230   68.6270 C   0  0  0  0  0  0  0  0  0  0  0  0
    6.4440   71.3140   68.4180 C   0  0  0  0  0  0  0  0  0  0  0  0
    5.8480   70.3430   67.5640 O   0  0  0  0  0  0  0  0  0  0  0  0
    4.0662   71.4796   69.3246 H   0  0  0  0  0  0  0  0  0  0  0  0
    1.6219   71.0204   69.2736 H   0  0  0  0  0  0  0  0  0  0  0  0
    4.6126   68.8739   65.9372 H   0  0  0  0  0  0  0  0  0  0  0  0
    3.1915   69.3415   64.1619 H   0  0  0  0  0  0  0  0  0  0  0  0
    3.4284   67.5317   64.0371 H   0  0  0  0  0  0  0  0  0  0  0  0
    2.3420   68.4792   62.0356 H   0  0  0  0  0  0  0  0  0  0  0  0
    1.3043   67.2924   62.9286 H   0  0  0  0  0  0  0  0  0  0  0  0
    1.0408   70.3007   62.7174 H   0  0  0  0  0  0  0  0  0  0  0  0
   -0.1864   68.9765   62.4376 H   0  0  0  0  0  0  0  0  0  0  0  0
    0.5508   70.4052   64.9321 H   0  0  0  0  0  0  0  0  0  0  0  0
   -0.9878   69.5999   64.4364 H   0  0  0  0  0  0  0  0  0  0  0  0
    0.0556   67.4313   64.7878 H   0  0  0  0  0  0  0  0  0  0  0  0
   -1.3013   68.4136   66.6334 H   0  0  0  0  0  0  0  0  0  0  0  0
   -0.2722   70.3400   67.2732 H   0  0  0  0  0  0  0  0  0  0  0  0
   -0.0009   69.1526   68.6422 H   0  0  0  0  0  0  0  0  0  0  0  0
   -0.3572   66.2407   66.6228 H   0  0  0  0  0  0  0  0  0  0  0  0
    2.0126   67.0555   68.1867 H   0  0  0  0  0  0  0  0  0  0  0  0
    1.5698   65.3913   67.6353 H   0  0  0  0  0  0  0  0  0  0  0  0
    3.3081   66.5571   66.2104 H   0  0  0  0  0  0  0  0  0  0  0  0
    1.8148   66.0020   65.3336 H   0  0  0  0  0  0  0  0  0  0  0  0
    0.0217   66.8571   69.4636 H   0  0  0  0  0  0  0  0  0  0  0  0
   -1.5449   67.2643   68.6848 H   0  0  0  0  0  0  0  0  0  0  0  0
   -0.9562   65.5672   68.6848 H   0  0  0  0  0  0  0  0  0  0  0  0
    6.2721   71.0339   69.4678 H   0  0  0  0  0  0  0  0  0  0  0  0
    7.5256   71.3593   68.2230 H   0  0  0  0  0  0  0  0  0  0  0  0
    5.9947   72.2989   68.2230 H   0  0  0  0  0  0  0  0  0  0  0  0
  2  1  2  0
  3  2  1  0
  4  3  2  0
  5  4  1  0
  6  1  1  0
  6  5  2  0
  7  5  1  0
  7  8  1  6
  9  8  1  0
 10  9  1  0
 11 10  1  0
 12  7  1  0
 12 11  1  0
 13 12  1  0
 14 13  1  0
 14  4  1  0
 15 13  1  0
 16 15  1  0
 17 16  1  0
 17  7  1  0
 18 15  1  0
 20  1  1  0
 20 19  1  0
  2 21  1  0
  3 22  1  0
  6 23  1  0
  8 24  1  0
  8 25  1  0
  9 26  1  0
  9 27  1  0
 10 28  1  0
 10 29  1  0
 11 30  1  0
 11 31  1  0
 12 32  1  6
 13 33  1  6
 14 34  1  0
 14 35  1  0
 15 36  1  6
 16 37  1  0
 16 38  1  0
 17 39  1  0
 17 40  1  0
 18 41  1  0
 18 42  1  0
 18 43  1  0
 19 44  1  0
 19 45  1  0
 19 46  1  0
M  CHG  1  15   1
M  END
>  <score>  (4) 
-7.879

$$$$
=
     RDKit          3D

 46 49  0  0  0  0  0  0  0  0999 V2000
   -0.0210   62.6940   72.6620 C   0  0  0  0  0  0  0  0  0  0  0  0
   -0.8490   61.6700   73.1040 C   0  0  0  0  0  0  0  0  0  0  0  0
   -0.3610   60.3640   73.1790 C   0  0  0  0  0  0  0  0  0  0  0  0
    0.9600   60.0620   72.8090 C   0  0  0  0  0  0  0  0  0  0  0  0
    1.7960   61.0810   72.3140 C   0  0  0  0  0  0  0  0  0  0  0  0
    1.2910   62.3950   72.2800 C   0  0  0  0  0  0  0  0  0  0  0  0
    3.2580   60.7940   71.9170 C   0  0  2  0  0  0  0  0  0  0  0  0
    3.6650   61.6310   70.6630 C   0  0  0  0  0  0  0  0  0  0  0  0
    4.5200   60.8610   69.6580 C   0  0  0  0  0  0  0  0  0  0  0  0
    3.8050   59.6010   69.1620 C   0  0  0  0  0  0  0  0  0  0  0  0
    3.0200   58.8720   70.2590 C   0  0  0  0  0  0  0  0  0  0  0  0
    3.5160   59.2850   71.6480 C   0  0  2  0  0  0  0  0  0  0  0  0
    2.9480   58.4620   72.8020 C   0  0  2  0  0  0  0  0  0  0  0  0
    1.4300   58.6390   72.9400 C   0  0  0  0  0  0  0  0  0  0  0  0
    3.7410   58.8580   74.0650 N   0  0  1  0  0  4  0  0  0  0  0  0
    3.7660   60.3390   74.3850 C   0  0  0  0  0  0  0  0  0  0  0  0
    4.1260   61.1640   73.1470 C   0  0  0  0  0  0  0  0  0  0  0  0
    3.4010   58.0360   75.2780 C   0  0  0  0  0  0  0  0  0  0  0  0
    0.3300   64.7850   71.5800 C   0  0  0  0  0  0  0  0  0  0  0  0
   -0.3550   64.0160   72.5630 O   0  0  0  0  0  0  0  0  0  0  0  0
   -1.8874   61.8877   73.3944 H   0  0  0  0  0  0  0  0  0  0  0  0
   -1.0214   59.5589   73.5334 H   0  0  0  0  0  0  0  0  0  0  0  0
    1.9477   63.2106   71.9430 H   0  0  0  0  0  0  0  0  0  0  0  0
    2.7475   61.9630   70.1551 H   0  0  0  0  0  0  0  0  0  0  0  0
    4.2749   62.4723   71.0238 H   0  0  0  0  0  0  0  0  0  0  0  0
    4.7343   61.5124   68.7979 H   0  0  0  0  0  0  0  0  0  0  0  0
    5.4503   60.5553   70.1591 H   0  0  0  0  0  0  0  0  0  0  0  0
    3.1038   59.8894   68.3650 H   0  0  0  0  0  0  0  0  0  0  0  0
    4.5808   58.9081   68.8041 H   0  0  0  0  0  0  0  0  0  0  0  0
    1.9532   59.1240   70.1673 H   0  0  0  0  0  0  0  0  0  0  0  0
    3.1690   57.7888   70.1389 H   0  0  0  0  0  0  0  0  0  0  0  0
    4.5967   59.0816   71.6205 H   0  0  0  0  0  0  0  0  0  0  0  0
    3.0703   57.3839   72.6212 H   0  0  0  0  0  0  0  0  0  0  0  0
    0.9405   58.0407   72.1574 H   0  0  0  0  0  0  0  0  0  0  0  0
    1.1649   58.3111   73.9560 H   0  0  0  0  0  0  0  0  0  0  0  0
    4.7084   58.6251   73.7989 H   0  0  0  0  0  0  0  0  0  0  0  0
    2.7728   60.6457   74.7448 H   0  0  0  0  0  0  0  0  0  0  0  0
    4.5287   60.5168   75.1574 H   0  0  0  0  0  0  0  0  0  0  0  0
    3.9769   62.2293   73.3769 H   0  0  0  0  0  0  0  0  0  0  0  0
    5.1747   60.9490   72.8942 H   0  0  0  0  0  0  0  0  0  0  0  0
    3.6378   58.6084   76.1870 H   0  0  0  0  0  0  0  0  0  0  0  0
    2.3283   57.7925   75.2670 H   0  0  0  0  0  0  0  0  0  0  0  0
    3.9882   57.1059   75.2670 H   0  0  0  0  0  0  0  0  0  0  0  0
    0.9827   65.5178   72.0770 H   0  0  0  0  0  0  0  0  0  0  0  0
    0.9389   64.1183   70.9517 H   0  0  0  0  0  0  0  0  0  0  0  0
   -0.4024   65.3131   70.9517 H   0  0  0  0  0  0  0  0  0  0  0  0
  2  1  2  0
  3  2  1  0
  4  3  2  0
  5  4  1  0
  6  1  1  0
  6  5  2  0
  7  5  1  0
  7  8  1  6
  9  8  1  0
 10  9  1  0
 11 10  1  0
 12  7  1  0
 12 11  1  0
 13 12  1  0
 14 13  1  0
 14  4  1  0
 15 13  1  0
 16 15  1  0
 17 16  1  0
 17  7  1  0
 18 15  1  0
 20  1  1  0
 20 19  1  0
  2 21  1  0
  3 22  1  0
  6 23  1  0
  8 24  1  0
  8 25  1  0
  9 26  1  0
  9 27  1  0
 10 28  1  0
 10 29  1  0
 11 30  1  0
 11 31  1  0
 12 32  1  6
 13 33  1  6
 14 34  1  0
 14 35  1  0
 15 36  1  6
 16 37  1  0
 16 38  1  0
 17 39  1  0
 17 40  1  0
 18 41  1  0
 18 42  1  0
 18 43  1  0
 19 44  1  0
 19 45  1  0
 19 46  1  0
M  CHG  1  15   1
M  END
>  <score>  (5) 
-7.844

$$$$
=
     RDKit          3D

 46 49  0  0  0  0  0  0  0  0999 V2000
    0.7260   69.3580   61.8250 C   0  0  0  0  0  0  0  0  0  0  0  0
   -0.3900   69.4120   62.6510 C   0  0  0  0  0  0  0  0  0  0  0  0
   -0.3230   68.8960   63.9460 C   0  0  0  0  0  0  0  0  0  0  0  0
    0.8600   68.3150   64.4340 C   0  0  0  0  0  0  0  0  0  0  0  0
    1.9850   68.2110   63.5930 C   0  0  0  0  0  0  0  0  0  0  0  0
    1.9010   68.7690   62.3020 C   0  0  0  0  0  0  0  0  0  0  0  0
    3.3070   67.6000   64.0970 C   0  0  2  0  0  0  0  0  0  0  0  0
    3.9990   66.7720   62.9680 C   0  0  0  0  0  0  0  0  0  0  0  0
    4.6220   65.4650   63.4560 C   0  0  0  0  0  0  0  0  0  0  0  0
    3.5820   64.5610   64.1220 C   0  0  0  0  0  0  0  0  0  0  0  0
    2.5690   65.3260   64.9830 C   0  0  0  0  0  0  0  0  0  0  0  0
    3.1090   66.7100   65.3560 C   0  0  2  0  0  0  0  0  0  0  0  0
    2.2710   67.4670   66.3840 C   0  0  2  0  0  0  0  0  0  0  0  0
    0.8740   67.8040   65.8490 C   0  0  0  0  0  0  0  0  0  0  0  0
    3.0940   68.7030   66.8050 N   0  0  1  0  0  4  0  0  0  0  0  0
    3.5510   69.6030   65.6740 C   0  0  0  0  0  0  0  0  0  0  0  0
    4.1950   68.7880   64.5490 C   0  0  0  0  0  0  0  0  0  0  0  0
    2.4720   69.4940   67.9230 C   0  0  0  0  0  0  0  0  0  0  0  0
   -0.3850   69.8480   59.7780 C   0  0  0  0  0  0  0  0  0  0  0  0
    0.8100   69.8440   60.5510 O   0  0  0  0  0  0  0  0  0  0  0  0
   -1.3251   69.8609   62.2847 H   0  0  0  0  0  0  0  0  0  0  0  0
   -1.2099   68.9448   64.5948 H   0  0  0  0  0  0  0  0  0  0  0  0
    2.7863   68.7404   61.6498 H   0  0  0  0  0  0  0  0  0  0  0  0
    3.2464   66.5329   62.2022 H   0  0  0  0  0  0  0  0  0  0  0  0
    4.8189   67.3903   62.5736 H   0  0  0  0  0  0  0  0  0  0  0  0
    5.0585   64.9347   62.5968 H   0  0  0  0  0  0  0  0  0  0  0  0
    5.3945   65.7082   64.2004 H   0  0  0  0  0  0  0  0  0  0  0  0
    3.0337   64.0223   63.3351 H   0  0  0  0  0  0  0  0  0  0  0  0
    4.1268   63.8794   64.7917 H   0  0  0  0  0  0  0  0  0  0  0  0
    1.6323   65.4443   64.4186 H   0  0  0  0  0  0  0  0  0  0  0  0
    2.3896   64.7564   65.9068 H   0  0  0  0  0  0  0  0  0  0  0  0
    4.0787   66.5036   65.8325 H   0  0  0  0  0  0  0  0  0  0  0  0
    2.0690   66.8466   67.2696 H   0  0  0  0  0  0  0  0  0  0  0  0
    0.2593   66.8928   65.8924 H   0  0  0  0  0  0  0  0  0  0  0  0
    0.4817   68.6146   66.4807 H   0  0  0  0  0  0  0  0  0  0  0  0
    3.9564   68.2770   67.1733 H   0  0  0  0  0  0  0  0  0  0  0  0
    2.6823   70.1457   65.2729 H   0  0  0  0  0  0  0  0  0  0  0  0
    4.2982   70.3078   66.0676 H   0  0  0  0  0  0  0  0  0  0  0  0
    4.3659   69.4494   63.6868 H   0  0  0  0  0  0  0  0  0  0  0  0
    5.1391   68.3741   64.9328 H   0  0  0  0  0  0  0  0  0  0  0  0
    2.7969   69.0809   68.8893 H   0  0  0  0  0  0  0  0  0  0  0  0
    2.7881   70.5450   67.8486 H   0  0  0  0  0  0  0  0  0  0  0  0
    1.3761   69.4346   67.8486 H   0  0  0  0  0  0  0  0  0  0  0  0
   -1.2561   69.8509   60.4496 H   0  0  0  0  0  0  0  0  0  0  0  0
   -0.4082   70.7462   59.1435 H   0  0  0  0  0  0  0  0  0  0  0  0
   -0.4142   68.9499   59.1435 H   0  0  0  0  0  0  0  0  0  0  0  0
  2  1  2  0
  3  2  1  0
  4  3  2  0
  5  4  1  0
  6  1  1  0
  6  5  2  0
  7  5  1  0
  7  8  1  6
  9  8  1  0
 10  9  1  0
 11 10  1  0
 12  7  1  0
 12 11  1  0
 13 12  1  0
 14 13  1  0
 14  4  1  0
 15 13  1  0
 16 15  1  0
 17 16  1  0
 17  7  1  0
 18 15  1  0
 20  1  1  0
 20 19  1  0
  2 21  1  0
  3 22  1  0
  6 23  1  0
  8 24  1  0
  8 25  1  0
  9 26  1  0
  9 27  1  0
 10 28  1  0
 10 29  1  0
 11 30  1  0
 11 31  1  0
 12 32  1  1
 13 33  1  1
 14 34  1  0
 14 35  1  0
 15 36  1  1
 16 37  1  0
 16 38  1  0
 17 39  1  0
 17 40  1  0
 18 41  1  0
 18 42  1  0
 18 43  1  0
 19 44  1  0
 19 45  1  0
 19 46  1  0
M  CHG  1  15   1
M  END
>  <score>  (6) 
-7.622

$$$$
=
     RDKit          3D

 46 49  0  0  0  0  0  0  0  0999 V2000
   -0.6120   61.8890   72.5660 C   0  0  0  0  0  0  0  0  0  0  0  0
   -1.6200   61.2320   73.2610 C   0  0  0  0  0  0  0  0  0  0  0  0
   -1.3500   60.0180   73.8960 C   0  0  0  0  0  0  0  0  0  0  0  0
   -0.0700   59.4410   73.8430 C   0  0  0  0  0  0  0  0  0  0  0  0
    0.9490   60.0720   73.1030 C   0  0  0  0  0  0  0  0  0  0  0  0
    0.6600   61.3120   72.5000 C   0  0  0  0  0  0  0  0  0  0  0  0
    2.3720   59.4820   73.0370 C   0  0  2  0  0  0  0  0  0  0  0  0
    2.9930   59.6930   71.6190 C   0  0  0  0  0  0  0  0  0  0  0  0
    3.7840   58.4910   71.1080 C   0  0  0  0  0  0  0  0  0  0  0  0
    2.9170   57.2310   71.0510 C   0  0  0  0  0  0  0  0  0  0  0  0
    1.9530   57.0990   72.2360 C   0  0  0  0  0  0  0  0  0  0  0  0
    2.4080   57.9730   73.4080 C   0  0  2  0  0  0  0  0  0  0  0  0
    1.6380   57.7530   74.7070 C   0  0  2  0  0  0  0  0  0  0  0  0
    0.1610   58.1450   74.5720 C   0  0  0  0  0  0  0  0  0  0  0  0
    2.3930   58.5270   75.8090 N   0  0  1  0  0  4  0  0  0  0  0  0
    2.6270   59.9980   75.5320 C   0  0  0  0  0  0  0  0  0  0  0  0
    3.1990   60.2100   74.1280 C   0  0  0  0  0  0  0  0  0  0  0  0
    1.8430   58.3060   77.1920 C   0  0  0  0  0  0  0  0  0  0  0  0
    0.3970   63.9610   71.9740 C   0  0  0  0  0  0  0  0  0  0  0  0
   -0.7260   63.0890   71.9230 O   0  0  0  0  0  0  0  0  0  0  0  0
   -2.6289   61.6674   73.3109 H   0  0  0  0  0  0  0  0  0  0  0  0
   -2.1524   59.5051   74.4466 H   0  0  0  0  0  0  0  0  0  0  0  0
    1.4590   61.8422   71.9611 H   0  0  0  0  0  0  0  0  0  0  0  0
    2.1773   59.8982   70.9101 H   0  0  0  0  0  0  0  0  0  0  0  0
    3.7006   60.5312   71.7004 H   0  0  0  0  0  0  0  0  0  0  0  0
    4.1585   58.7130   70.0978 H   0  0  0  0  0  0  0  0  0  0  0  0
    4.6165   58.3055   71.8027 H   0  0  0  0  0  0  0  0  0  0  0  0
    2.3269   57.2559   70.1230 H   0  0  0  0  0  0  0  0  0  0  0  0
    3.5974   56.3675   71.0891 H   0  0  0  0  0  0  0  0  0  0  0  0
    0.9478   57.4147   71.9199 H   0  0  0  0  0  0  0  0  0  0  0  0
    1.9396   56.0491   72.5639 H   0  0  0  0  0  0  0  0  0  0  0  0
    3.4425   57.6521   73.5997 H   0  0  0  0  0  0  0  0  0  0  0  0
    1.6015   56.6865   74.9739 H   0  0  0  0  0  0  0  0  0  0  0  0
   -0.3596   57.3446   74.0258 H   0  0  0  0  0  0  0  0  0  0  0  0
   -0.2232   58.2844   75.5932 H   0  0  0  0  0  0  0  0  0  0  0  0
    3.3280   58.0960   75.7789 H   0  0  0  0  0  0  0  0  0  0  0  0
    1.6711   60.5358   75.6155 H   0  0  0  0  0  0  0  0  0  0  0  0
    3.3514   60.3809   76.2660 H   0  0  0  0  0  0  0  0  0  0  0  0
    3.2037   61.2877   73.9074 H   0  0  0  0  0  0  0  0  0  0  0  0
    4.2161   59.7912   74.1133 H   0  0  0  0  0  0  0  0  0  0  0  0
    2.5935   58.6076   77.9376 H   0  0  0  0  0  0  0  0  0  0  0  0
    0.9319   58.9078   77.3247 H   0  0  0  0  0  0  0  0  0  0  0  0
    1.6016   57.2411   77.3247 H   0  0  0  0  0  0  0  0  0  0  0  0
    0.6571   64.1629   73.0236 H   0  0  0  0  0  0  0  0  0  0  0  0
    1.2519   63.4877   71.4689 H   0  0  0  0  0  0  0  0  0  0  0  0
    0.1503   64.9065   71.4689 H   0  0  0  0  0  0  0  0  0  0  0  0
  2  1  2  0
  3  2  1  0
  4  3  2  0
  5  4  1  0
  6  1  1  0
  6  5  2  0
  7  5  1  0
  7  8  1  6
  9  8  1  0
 10  9  1  0
 11 10  1  0
 12  7  1  0
 12 11  1  0
 13 12  1  0
 14 13  1  0
 14  4  1  0
 15 13  1  0
 16 15  1  0
 17 16  1  0
 17  7  1  0
 18 15  1  0
 20  1  1  0
 20 19  1  0
  2 21  1  0
  3 22  1  0
  6 23  1  0
  8 24  1  0
  8 25  1  0
  9 26  1  0
  9 27  1  0
 10 28  1  0
 10 29  1  0
 11 30  1  0
 11 31  1  0
 12 32  1  1
 13 33  1  1
 14 34  1  0
 14 35  1  0
 15 36  1  1
 16 37  1  0
 16 38  1  0
 17 39  1  0
 17 40  1  0
 18 41  1  0
 18 42  1  0
 18 43  1  0
 19 44  1  0
 19 45  1  0
 19 46  1  0
M  CHG  1  15   1
M  END
>  <score>  (7) 
-7.138

$$$$
=
     RDKit          3D

 46 49  0  0  0  0  0  0  0  0999 V2000
    4.1640   62.4370   70.9820 C   0  0  0  0  0  0  0  0  0  0  0  0
    5.0180   61.6080   71.6990 C   0  0  0  0  0  0  0  0  0  0  0  0
    4.5980   61.0570   72.9110 C   0  0  0  0  0  0  0  0  0  0  0  0
    3.3190   61.3290   73.4260 C   0  0  0  0  0  0  0  0  0  0  0  0
    2.4600   62.2040   72.7340 C   0  0  0  0  0  0  0  0  0  0  0  0
    2.8950   62.7200   71.4980 C   0  0  0  0  0  0  0  0  0  0  0  0
    1.0420   62.5120   73.2550 C   0  0  2  0  0  0  0  0  0  0  0  0
    0.6650   64.0040   72.9870 C   0  0  0  0  0  0  0  0  0  0  0  0
   -0.0850   64.6660   74.1410 C   0  0  0  0  0  0  0  0  0  0  0  0
    0.7250   64.6190   75.4400 C   0  0  0  0  0  0  0  0  0  0  0  0
    1.4810   63.3000   75.6400 C   0  0  0  0  0  0  0  0  0  0  0  0
    0.8820   62.1920   74.7680 C   0  0  2  0  0  0  0  0  0  0  0  0
    1.4240   60.7930   75.0490 C   0  0  2  0  0  0  0  0  0  0  0  0
    2.9190   60.6810   74.7240 C   0  0  0  0  0  0  0  0  0  0  0  0
    0.5370   59.8050   74.2620 N   0  0  1  0  0  4  0  0  0  0  0  0
    0.4130   60.0760   72.7760 C   0  0  0  0  0  0  0  0  0  0  0  0
    0.0830   61.5470   72.5110 C   0  0  0  0  0  0  0  0  0  0  0  0
    0.8480   58.3590   74.5360 C   0  0  0  0  0  0  0  0  0  0  0  0
    3.5810   62.6790   68.6870 C   0  0  0  0  0  0  0  0  0  0  0  0
    4.4310   63.0220   69.7760 O   0  0  0  0  0  0  0  0  0  0  0  0
    6.0236   61.3862   71.3122 H   0  0  0  0  0  0  0  0  0  0  0  0
    5.2788   60.3996   73.4717 H   0  0  0  0  0  0  0  0  0  0  0  0
    2.2163   63.3652   70.9208 H   0  0  0  0  0  0  0  0  0  0  0  0
    1.5914   64.5688   72.8058 H   0  0  0  0  0  0  0  0  0  0  0  0
   -0.0099   64.0134   72.1184 H   0  0  0  0  0  0  0  0  0  0  0  0
   -0.2836   65.7164   73.8819 H   0  0  0  0  0  0  0  0  0  0  0  0
   -1.0245   64.1167   74.3011 H   0  0  0  0  0  0  0  0  0  0  0  0
    1.4560   65.4408   75.4248 H   0  0  0  0  0  0  0  0  0  0  0  0
    0.0106   64.7126   76.2712 H   0  0  0  0  0  0  0  0  0  0  0  0
    2.5364   63.4441   75.3655 H   0  0  0  0  0  0  0  0  0  0  0  0
    1.3971   63.0021   76.6956 H   0  0  0  0  0  0  0  0  0  0  0  0
   -0.1828   62.1762   75.0437 H   0  0  0  0  0  0  0  0  0  0  0  0
    1.3710   60.5523   76.1210 H   0  0  0  0  0  0  0  0  0  0  0  0
    3.4854   61.1589   75.5369 H   0  0  0  0  0  0  0  0  0  0  0  0
    3.1407   59.6083   74.6230 H   0  0  0  0  0  0  0  0  0  0  0  0
   -0.3988   59.9954   74.6478 H   0  0  0  0  0  0  0  0  0  0  0  0
    1.3651   59.8270   72.2845 H   0  0  0  0  0  0  0  0  0  0  0  0
   -0.4024   59.4566   72.3742 H   0  0  0  0  0  0  0  0  0  0  0  0
    0.1594   61.7369   71.4302 H   0  0  0  0  0  0  0  0  0  0  0  0
   -0.9353   61.7342   72.8825 H   0  0  0  0  0  0  0  0  0  0  0  0
    0.8841   58.1912   75.6225 H   0  0  0  0  0  0  0  0  0  0  0  0
    0.0656   57.7253   74.0929 H   0  0  0  0  0  0  0  0  0  0  0  0
    1.8217   58.1030   74.0929 H   0  0  0  0  0  0  0  0  0  0  0  0
    2.6262   62.2937   69.0743 H   0  0  0  0  0  0  0  0  0  0  0  0
    3.3938   63.5720   68.0726 H   0  0  0  0  0  0  0  0  0  0  0  0
    4.0660   61.9062   68.0726 H   0  0  0  0  0  0  0  0  0  0  0  0
  2  1  2  0
  3  2  1  0
  4  3  2  0
  5  4  1  0
  6  1  1  0
  6  5  2  0
  7  5  1  0
  7  8  1  1
  9  8  1  0
 10  9  1  0
 11 10  1  0
 12  7  1  0
 12 11  1  0
 13 12  1  0
 14 13  1  0
 14  4  1  0
 15 13  1  0
 16 15  1  0
 17 16  1  0
 17  7  1  0
 18 15  1  0
 20  1  1  0
 20 19  1  0
  2 21  1  0
  3 22  1  0
  6 23  1  0
  8 24  1  0
  8 25  1  0
  9 26  1  0
  9 27  1  0
 10 28  1  0
 10 29  1  0
 11 30  1  0
 11 31  1  0
 12 32  1  1
 13 33  1  1
 14 34  1  0
 14 35  1  0
 15 36  1  1
 16 37  1  0
 16 38  1  0
 17 39  1  0
 17 40  1  0
 18 41  1  0
 18 42  1  0
 18 43  1  0
 19 44  1  0
 19 45  1  0
 19 46  1  0
M  CHG  1  15   1
M  END
>  <score>  (8) 
-7.03

$$$$
