=
     RDKit          3D

 60 63  0  0  0  0  0  0  0  0999 V2000
    0.5150   66.2200   69.5330 C   0  0  0  0  0  0  0  0  0  0  0  0
   -0.7090   66.1440   68.8550 C   0  0  0  0  0  0  0  0  0  0  0  0
   -0.9940   67.0100   67.7920 C   0  0  0  0  0  0  0  0  0  0  0  0
   -0.0650   67.9790   67.3860 C   0  0  0  0  0  0  0  0  0  0  0  0
    1.1630   68.0430   68.0590 C   0  0  0  0  0  0  0  0  0  0  0  0
    1.4460   67.1800   69.1220 C   0  0  0  0  0  0  0  0  0  0  0  0
    3.4620   61.5800   72.3810 C   0  0  0  0  0  0  0  0  0  0  0  0
    3.1630   62.4710   71.3390 C   0  0  0  0  0  0  0  0  0  0  0  0
    2.1550   63.4260   71.4980 C   0  0  0  0  0  0  0  0  0  0  0  0
    1.8100   64.3690   70.4450 C   0  0  0  0  0  0  0  0  0  0  0  0
    0.8400   65.2800   70.6280 C   0  0  0  0  0  0  0  0  0  0  0  0
    0.0810   65.3340   71.9150 C   0  0  0  0  0  0  0  0  0  0  0  0
   -0.8200   66.1460   72.1020 O   0  0  0  0  0  0  0  0  0  0  0  0
    0.4360   64.4190   72.8980 O   0  0  0  0  0  0  0  0  0  0  0  0
    1.4600   63.4760   72.6980 C   0  0  0  0  0  0  0  0  0  0  0  0
    1.7370   62.6040   73.7480 C   0  0  0  0  0  0  0  0  0  0  0  0
    2.7440   61.6480   73.5950 C   0  0  0  0  0  0  0  0  0  0  0  0
    5.5870   60.8710   71.5290 C   0  0  0  0  0  0  0  0  0  0  0  0
    4.4330   60.6120   72.3150 O   0  0  0  0  0  0  0  0  0  0  0  0
    3.1030   60.7390   74.5580 O   0  0  0  0  0  0  0  0  0  0  0  0
    2.2010   60.5230   75.6340 C   0  0  0  0  0  0  0  0  0  0  0  0
   -0.3450   68.9010   66.2270 C   0  0  0  0  0  0  0  0  0  0  0  0
    0.1170   68.4380   64.8530 N   0  0  1  0  0  4  0  0  0  0  0  0
   -0.7700   68.8290   63.6960 C   0  0  0  0  0  0  0  0  0  0  0  0
    0.0170   69.5480   62.6150 C   0  0  0  0  0  0  0  0  0  0  0  0
    1.5710   68.7670   64.5600 C   0  0  0  0  0  0  0  0  0  0  0  0
    2.4400   67.5630   64.3110 C   0  0  0  0  0  0  0  0  0  0  0  0
    2.1350   66.3180   64.8860 C   0  0  0  0  0  0  0  0  0  0  0  0
    2.9520   65.2100   64.6520 C   0  0  0  0  0  0  0  0  0  0  0  0
    4.0710   65.3280   63.8330 C   0  0  0  0  0  0  0  0  0  0  0  0
    4.3700   66.5500   63.2340 C   0  0  0  0  0  0  0  0  0  0  0  0
    3.5560   67.6590   63.4660 C   0  0  0  0  0  0  0  0  0  0  0  0
   -1.4546   65.3955   69.1613 H   0  0  0  0  0  0  0  0  0  0  0  0
   -1.9584   66.9292   67.2691 H   0  0  0  0  0  0  0  0  0  0  0  0
    1.9147   68.7827   67.7463 H   0  0  0  0  0  0  0  0  0  0  0  0
    2.4125   67.2568   69.6415 H   0  0  0  0  0  0  0  0  0  0  0  0
    3.7237   62.4177   70.3941 H   0  0  0  0  0  0  0  0  0  0  0  0
    2.3501   64.3355   69.4873 H   0  0  0  0  0  0  0  0  0  0  0  0
    1.1689   62.6674   74.6878 H   0  0  0  0  0  0  0  0  0  0  0  0
    6.4451   61.0636   72.1898 H   0  0  0  0  0  0  0  0  0  0  0  0
    5.8016   59.9987   70.8942 H   0  0  0  0  0  0  0  0  0  0  0  0
    5.4082   61.7514   70.8942 H   0  0  0  0  0  0  0  0  0  0  0  0
    2.7321   60.6502   76.5888 H   0  0  0  0  0  0  0  0  0  0  0  0
    1.3771   61.2492   75.5732 H   0  0  0  0  0  0  0  0  0  0  0  0
    1.7954   59.5023   75.5732 H   0  0  0  0  0  0  0  0  0  0  0  0
   -1.4334   69.0527   66.1782 H   0  0  0  0  0  0  0  0  0  0  0  0
    0.2390   69.8096   66.4353 H   0  0  0  0  0  0  0  0  0  0  0  0
    0.0306   67.4143   64.9271 H   0  0  0  0  0  0  0  0  0  0  0  0
   -1.2206   67.9216   63.2675 H   0  0  0  0  0  0  0  0  0  0  0  0
   -1.5479   69.5108   64.0703 H   0  0  0  0  0  0  0  0  0  0  0  0
    0.7523   70.2197   63.0821 H   0  0  0  0  0  0  0  0  0  0  0  0
    0.5403   68.8095   61.9898 H   0  0  0  0  0  0  0  0  0  0  0  0
   -0.6713   70.1357   61.9898 H   0  0  0  0  0  0  0  0  0  0  0  0
    1.6060   69.4080   63.6667 H   0  0  0  0  0  0  0  0  0  0  0  0
    1.9691   69.2629   65.4575 H   0  0  0  0  0  0  0  0  0  0  0  0
    1.2458   66.2152   65.5254 H   0  0  0  0  0  0  0  0  0  0  0  0
    2.7107   64.2422   65.1158 H   0  0  0  0  0  0  0  0  0  0  0  0
    4.7193   64.4567   63.6586 H   0  0  0  0  0  0  0  0  0  0  0  0
    5.2483   66.6403   62.5779 H   0  0  0  0  0  0  0  0  0  0  0  0
    3.7914   68.6182   62.9817 H   0  0  0  0  0  0  0  0  0  0  0  0
  2  1  2  0
  3  2  1  0
  4  3  2  0
  5  4  1  0
  6  5  2  0
  6  1  1  0
  8  7  2  0
  9  8  1  0
 10  9  1  0
 11 10  2  0
 11  1  1  0
 12 11  1  0
 13 12  2  0
 14 12  1  0
 15 14  1  0
 15  9  2  0
 16 15  1  0
 17 16  2  0
 17  7  1  0
 19  7  1  0
 19 18  1  0
 20 17  1  0
 21 20  1  0
 22  4  1  0
 23 22  1  0
 24 23  1  0
 25 24  1  0
 26 23  1  0
 27 26  1  0
 28 27  2  0
 29 28  1  0
 30 29  2  0
 31 30  1  0
 32 31  2  0
 32 27  1  0
  2 33  1  0
  3 34  1  0
  5 35  1  0
  6 36  1  0
  8 37  1  0
 10 38  1  0
 16 39  1  0
 18 40  1  0
 18 41  1  0
 18 42  1  0
 21 43  1  0
 21 44  1  0
 21 45  1  0
 22 46  1  0
 22 47  1  0
 23 48  1  1
 24 49  1  0
 24 50  1  0
 25 51  1  0
 25 52  1  0
 25 53  1  0
 26 54  1  0
 26 55  1  0
 28 56  1  0
 29 57  1  0
 30 58  1  0
 31 59  1  0
 32 60  1  0
M  CHG  1  23   1
M  END
>  <score>  (1) 
-10.185

$$$$
=
     RDKit          3D

 60 63  0  0  0  0  0  0  0  0999 V2000
    1.4290   62.8410   71.2420 C   0  0  0  0  0  0  0  0  0  0  0  0
    2.3570   63.3160   70.3070 C   0  0  0  0  0  0  0  0  0  0  0  0
    2.2880   64.6320   69.8340 C   0  0  0  0  0  0  0  0  0  0  0  0
    1.2830   65.5040   70.2790 C   0  0  0  0  0  0  0  0  0  0  0  0
    0.3640   65.0280   71.2250 C   0  0  0  0  0  0  0  0  0  0  0  0
    0.4320   63.7130   71.6940 C   0  0  0  0  0  0  0  0  0  0  0  0
   -0.3330   57.8260   74.4160 C   0  0  0  0  0  0  0  0  0  0  0  0
   -0.4300   59.1290   73.9060 C   0  0  0  0  0  0  0  0  0  0  0  0
    0.5880   59.6490   73.1030 C   0  0  0  0  0  0  0  0  0  0  0  0
    0.5300   60.9950   72.5530 C   0  0  0  0  0  0  0  0  0  0  0  0
    1.5210   61.4660   71.7790 C   0  0  0  0  0  0  0  0  0  0  0  0
    2.7170   60.6210   71.4770 C   0  0  0  0  0  0  0  0  0  0  0  0
    3.6430   61.0320   70.7850 O   0  0  0  0  0  0  0  0  0  0  0  0
    2.7390   59.3410   72.0180 O   0  0  0  0  0  0  0  0  0  0  0  0
    1.6910   58.8560   72.8200 C   0  0  0  0  0  0  0  0  0  0  0  0
    1.8130   57.5590   73.3120 C   0  0  0  0  0  0  0  0  0  0  0  0
    0.7980   57.0340   74.1150 C   0  0  0  0  0  0  0  0  0  0  0  0
   -2.4790   57.9500   75.4740 C   0  0  0  0  0  0  0  0  0  0  0  0
   -1.2820   57.2340   75.2120 O   0  0  0  0  0  0  0  0  0  0  0  0
    0.8100   55.7730   74.6550 O   0  0  0  0  0  0  0  0  0  0  0  0
    2.0420   55.2820   75.1650 C   0  0  0  0  0  0  0  0  0  0  0  0
    1.2110   66.9320   69.8000 C   0  0  0  0  0  0  0  0  0  0  0  0
    0.5820   67.1670   68.4350 N   0  0  1  0  0  4  0  0  0  0  0  0
   -0.8180   66.6320   68.2560 C   0  0  0  0  0  0  0  0  0  0  0  0
   -1.5770   67.4140   67.2000 C   0  0  0  0  0  0  0  0  0  0  0  0
    0.6790   68.6080   67.9630 C   0  0  0  0  0  0  0  0  0  0  0  0
    2.0590   69.0250   67.5270 C   0  0  0  0  0  0  0  0  0  0  0  0
    2.5410   68.7060   66.2470 C   0  0  0  0  0  0  0  0  0  0  0  0
    3.8240   69.0940   65.8560 C   0  0  0  0  0  0  0  0  0  0  0  0
    4.6330   69.8150   66.7300 C   0  0  0  0  0  0  0  0  0  0  0  0
    4.1570   70.1620   67.9920 C   0  0  0  0  0  0  0  0  0  0  0  0
    2.8750   69.7760   68.3870 C   0  0  0  0  0  0  0  0  0  0  0  0
    3.1495   62.6473   69.9398 H   0  0  0  0  0  0  0  0  0  0  0  0
    3.0310   64.9866   69.1044 H   0  0  0  0  0  0  0  0  0  0  0  0
   -0.4214   65.6988   71.6033 H   0  0  0  0  0  0  0  0  0  0  0  0
   -0.3074   63.3591   72.4275 H   0  0  0  0  0  0  0  0  0  0  0  0
   -1.3116   59.7441   74.1394 H   0  0  0  0  0  0  0  0  0  0  0  0
   -0.3369   61.6349   72.7742 H   0  0  0  0  0  0  0  0  0  0  0  0
    2.6996   56.9542   73.0707 H   0  0  0  0  0  0  0  0  0  0  0  0
   -2.6239   58.0367   76.5610 H   0  0  0  0  0  0  0  0  0  0  0  0
   -2.4094   58.9549   75.0321 H   0  0  0  0  0  0  0  0  0  0  0  0
   -3.3315   57.4134   75.0321 H   0  0  0  0  0  0  0  0  0  0  0  0
    2.0141   55.2931   76.2646 H   0  0  0  0  0  0  0  0  0  0  0  0
    2.2003   54.2521   74.8126 H   0  0  0  0  0  0  0  0  0  0  0  0
    2.8653   55.9207   74.8126 H   0  0  0  0  0  0  0  0  0  0  0  0
    0.6269   67.5014   70.5380 H   0  0  0  0  0  0  0  0  0  0  0  0
    2.2578   67.2528   69.6935 H   0  0  0  0  0  0  0  0  0  0  0  0
    1.1733   66.5898   67.8202 H   0  0  0  0  0  0  0  0  0  0  0  0
   -0.7619   65.5771   67.9492 H   0  0  0  0  0  0  0  0  0  0  0  0
   -1.3523   66.7316   69.2123 H   0  0  0  0  0  0  0  0  0  0  0  0
   -2.2630   68.1208   67.6896 H   0  0  0  0  0  0  0  0  0  0  0  0
   -0.8646   67.9696   66.5724 H   0  0  0  0  0  0  0  0  0  0  0  0
   -2.1536   66.7185   66.5724 H   0  0  0  0  0  0  0  0  0  0  0  0
   -0.0055   68.7387   67.1119 H   0  0  0  0  0  0  0  0  0  0  0  0
    0.4158   69.2402   68.8238 H   0  0  0  0  0  0  0  0  0  0  0  0
    1.9030   68.1463   65.5473 H   0  0  0  0  0  0  0  0  0  0  0  0
    4.1963   68.8294   64.8553 H   0  0  0  0  0  0  0  0  0  0  0  0
    5.6475   70.1104   66.4240 H   0  0  0  0  0  0  0  0  0  0  0  0
    4.7922   70.7411   68.6785 H   0  0  0  0  0  0  0  0  0  0  0  0
    2.5011   70.0630   69.3809 H   0  0  0  0  0  0  0  0  0  0  0  0
  2  1  2  0
  3  2  1  0
  4  3  2  0
  5  4  1  0
  6  5  2  0
  6  1  1  0
  8  7  2  0
  9  8  1  0
 10  9  1  0
 11 10  2  0
 11  1  1  0
 12 11  1  0
 13 12  2  0
 14 12  1  0
 15 14  1  0
 15  9  2  0
 16 15  1  0
 17 16  2  0
 17  7  1  0
 19  7  1  0
 19 18  1  0
 20 17  1  0
 21 20  1  0
 22  4  1  0
 23 22  1  0
 24 23  1  0
 25 24  1  0
 26 23  1  0
 27 26  1  0
 28 27  2  0
 29 28  1  0
 30 29  2  0
 31 30  1  0
 32 31  2  0
 32 27  1  0
  2 33  1  0
  3 34  1  0
  5 35  1  0
  6 36  1  0
  8 37  1  0
 10 38  1  0
 16 39  1  0
 18 40  1  0
 18 41  1  0
 18 42  1  0
 21 43  1  0
 21 44  1  0
 21 45  1  0
 22 46  1  0
 22 47  1  0
 23 48  1  6
 24 49  1  0
 24 50  1  0
 25 51  1  0
 25 52  1  0
 25 53  1  0
 26 54  1  0
 26 55  1  0
 28 56  1  0
 29 57  1  0
 30 58  1  0
 31 59  1  0
 32 60  1  0
M  CHG  1  23   1
M  END
>  <score>  (2) 
-9.659

$$$$
=
     RDKit          3D

 60 63  0  0  0  0  0  0  0  0999 V2000
    1.5850   63.5960   70.9920 C   0  0  0  0  0  0  0  0  0  0  0  0
    2.4350   64.6550   70.6490 C   0  0  0  0  0  0  0  0  0  0  0  0
    1.9340   65.7960   70.0100 C   0  0  0  0  0  0  0  0  0  0  0  0
    0.5720   65.9020   69.6900 C   0  0  0  0  0  0  0  0  0  0  0  0
   -0.2760   64.8450   70.0480 C   0  0  0  0  0  0  0  0  0  0  0  0
    0.2250   63.7040   70.6830 C   0  0  0  0  0  0  0  0  0  0  0  0
    2.6760   59.8660   75.8110 C   0  0  0  0  0  0  0  0  0  0  0  0
    2.1820   60.9940   75.1400 C   0  0  0  0  0  0  0  0  0  0  0  0
    2.3860   61.1410   73.7660 C   0  0  0  0  0  0  0  0  0  0  0  0
    1.8920   62.2950   73.0290 C   0  0  0  0  0  0  0  0  0  0  0  0
    2.0990   62.4060   71.7070 C   0  0  0  0  0  0  0  0  0  0  0  0
    2.8550   61.3530   70.9630 C   0  0  0  0  0  0  0  0  0  0  0  0
    3.0710   61.4370   69.7580 O   0  0  0  0  0  0  0  0  0  0  0  0
    3.3120   60.2650   71.6980 O   0  0  0  0  0  0  0  0  0  0  0  0
    3.0830   60.1550   73.0810 C   0  0  0  0  0  0  0  0  0  0  0  0
    3.5830   59.0250   73.7220 C   0  0  0  0  0  0  0  0  0  0  0  0
    3.3820   58.8730   75.0960 C   0  0  0  0  0  0  0  0  0  0  0  0
    3.2480   60.4580   78.0620 C   0  0  0  0  0  0  0  0  0  0  0  0
    2.5250   59.6380   77.1570 O   0  0  0  0  0  0  0  0  0  0  0  0
    3.8290   57.8050   75.8320 O   0  0  0  0  0  0  0  0  0  0  0  0
    3.0830   56.5970   75.7670 C   0  0  0  0  0  0  0  0  0  0  0  0
    0.0140   67.1350   69.0270 C   0  0  0  0  0  0  0  0  0  0  0  0
    0.7610   67.6580   67.8090 N   0  0  1  0  0  4  0  0  0  0  0  0
    0.2040   67.2440   66.4690 C   0  0  0  0  0  0  0  0  0  0  0  0
   -0.3590   68.4330   65.7130 C   0  0  0  0  0  0  0  0  0  0  0  0
    1.0180   69.1550   67.8530 C   0  0  0  0  0  0  0  0  0  0  0  0
    2.4710   69.5370   67.7370 C   0  0  0  0  0  0  0  0  0  0  0  0
    3.1950   69.2820   66.5600 C   0  0  0  0  0  0  0  0  0  0  0  0
    4.5420   69.6360   66.4670 C   0  0  0  0  0  0  0  0  0  0  0  0
    5.1760   70.2590   67.5380 C   0  0  0  0  0  0  0  0  0  0  0  0
    4.4630   70.5430   68.7000 C   0  0  0  0  0  0  0  0  0  0  0  0
    3.1160   70.1900   68.7970 C   0  0  0  0  0  0  0  0  0  0  0  0
    3.5076   64.5898   70.8841 H   0  0  0  0  0  0  0  0  0  0  0  0
    2.6171   66.6198   69.7557 H   0  0  0  0  0  0  0  0  0  0  0  0
   -1.3512   64.9139   69.8263 H   0  0  0  0  0  0  0  0  0  0  0  0
   -0.4584   62.8820   70.9425 H   0  0  0  0  0  0  0  0  0  0  0  0
    1.6317   61.7660   75.6979 H   0  0  0  0  0  0  0  0  0  0  0  0
    1.3426   63.0854   73.5614 H   0  0  0  0  0  0  0  0  0  0  0  0
    4.1307   58.2597   73.1525 H   0  0  0  0  0  0  0  0  0  0  0  0
    2.9974   60.1738   79.0947 H   0  0  0  0  0  0  0  0  0  0  0  0
    4.3272   60.3239   77.8964 H   0  0  0  0  0  0  0  0  0  0  0  0
    2.9798   61.5119   77.8964 H   0  0  0  0  0  0  0  0  0  0  0  0
    2.8656   56.2450   76.7862 H   0  0  0  0  0  0  0  0  0  0  0  0
    2.1388   56.7774   75.2322 H   0  0  0  0  0  0  0  0  0  0  0  0
    3.6672   55.8336   75.2322 H   0  0  0  0  0  0  0  0  0  0  0  0
   -1.0153   66.9069   68.7132 H   0  0  0  0  0  0  0  0  0  0  0  0
    0.1010   67.9311   69.7811 H   0  0  0  0  0  0  0  0  0  0  0  0
    1.6681   67.1761   67.8858 H   0  0  0  0  0  0  0  0  0  0  0  0
    1.0080   66.7885   65.8723 H   0  0  0  0  0  0  0  0  0  0  0  0
   -0.6105   66.5246   66.6396 H   0  0  0  0  0  0  0  0  0  0  0  0
   -0.7162   69.1873   66.4295 H   0  0  0  0  0  0  0  0  0  0  0  0
    0.4273   68.8712   65.0807 H   0  0  0  0  0  0  0  0  0  0  0  0
   -1.1962   68.1025   65.0807 H   0  0  0  0  0  0  0  0  0  0  0  0
    0.4710   69.6233   67.0215 H   0  0  0  0  0  0  0  0  0  0  0  0
    0.6774   69.5049   68.8387 H   0  0  0  0  0  0  0  0  0  0  0  0
    2.6968   68.8000   65.7059 H   0  0  0  0  0  0  0  0  0  0  0  0
    5.1035   69.4222   65.5456 H   0  0  0  0  0  0  0  0  0  0  0  0
    6.2404   70.5271   67.4666 H   0  0  0  0  0  0  0  0  0  0  0  0
    4.9615   71.0458   69.5418 H   0  0  0  0  0  0  0  0  0  0  0  0
    2.5554   70.4263   69.7134 H   0  0  0  0  0  0  0  0  0  0  0  0
  2  1  2  0
  3  2  1  0
  4  3  2  0
  5  4  1  0
  6  5  2  0
  6  1  1  0
  8  7  2  0
  9  8  1  0
 10  9  1  0
 11 10  2  0
 11  1  1  0
 12 11  1  0
 13 12  2  0
 14 12  1  0
 15 14  1  0
 15  9  2  0
 16 15  1  0
 17 16  2  0
 17  7  1  0
 19  7  1  0
 19 18  1  0
 20 17  1  0
 21 20  1  0
 22  4  1  0
 23 22  1  0
 24 23  1  0
 25 24  1  0
 26 23  1  0
 27 26  1  0
 28 27  2  0
 29 28  1  0
 30 29  2  0
 31 30  1  0
 32 31  2  0
 32 27  1  0
  2 33  1  0
  3 34  1  0
  5 35  1  0
  6 36  1  0
  8 37  1  0
 10 38  1  0
 16 39  1  0
 18 40  1  0
 18 41  1  0
 18 42  1  0
 21 43  1  0
 21 44  1  0
 21 45  1  0
 22 46  1  0
 22 47  1  0
 23 48  1  1
 24 49  1  0
 24 50  1  0
 25 51  1  0
 25 52  1  0
 25 53  1  0
 26 54  1  0
 26 55  1  0
 28 56  1  0
 29 57  1  0
 30 58  1  0
 31 59  1  0
 32 60  1  0
M  CHG  1  23   1
M  END
>  <score>  (3) 
-9.248

$$$$
=
     RDKit          3D

 60 63  0  0  0  0  0  0  0  0999 V2000
    0.8290   64.8800   70.6080 C   0  0  0  0  0  0  0  0  0  0  0  0
    1.9690   65.6440   70.3260 C   0  0  0  0  0  0  0  0  0  0  0  0
    1.8980   66.7450   69.4650 C   0  0  0  0  0  0  0  0  0  0  0  0
    0.6860   67.1060   68.8560 C   0  0  0  0  0  0  0  0  0  0  0  0
   -0.4540   66.3460   69.1510 C   0  0  0  0  0  0  0  0  0  0  0  0
   -0.3820   65.2450   70.0090 C   0  0  0  0  0  0  0  0  0  0  0  0
    2.2240   59.1870   72.5990 C   0  0  0  0  0  0  0  0  0  0  0  0
    2.1780   60.2640   71.7010 C   0  0  0  0  0  0  0  0  0  0  0  0
    1.5570   61.4600   72.0680 C   0  0  0  0  0  0  0  0  0  0  0  0
    1.4850   62.6030   71.1690 C   0  0  0  0  0  0  0  0  0  0  0  0
    0.8870   63.7420   71.5510 C   0  0  0  0  0  0  0  0  0  0  0  0
    0.2660   63.8580   72.9060 C   0  0  0  0  0  0  0  0  0  0  0  0
   -0.3010   64.8820   73.2750 O   0  0  0  0  0  0  0  0  0  0  0  0
    0.3530   62.7480   73.7380 O   0  0  0  0  0  0  0  0  0  0  0  0
    0.9900   61.5630   73.3300 C   0  0  0  0  0  0  0  0  0  0  0  0
    1.0220   60.5100   74.2410 C   0  0  0  0  0  0  0  0  0  0  0  0
    1.6420   59.3120   73.8800 C   0  0  0  0  0  0  0  0  0  0  0  0
    3.2810   57.7410   71.0060 C   0  0  0  0  0  0  0  0  0  0  0  0
    2.8110   57.9760   72.3250 O   0  0  0  0  0  0  0  0  0  0  0  0
    1.7340   58.2100   74.6920 O   0  0  0  0  0  0  0  0  0  0  0  0
    0.5410   57.4860   74.9630 C   0  0  0  0  0  0  0  0  0  0  0  0
    0.5880   68.3040   67.9470 C   0  0  0  0  0  0  0  0  0  0  0  0
    1.8860   68.8100   67.3350 N   0  0  1  0  0  4  0  0  0  0  0  0
    1.8730   69.0060   65.8380 C   0  0  0  0  0  0  0  0  0  0  0  0
    0.7270   68.2480   65.1930 C   0  0  0  0  0  0  0  0  0  0  0  0
    2.4520   70.0320   68.0380 C   0  0  0  0  0  0  0  0  0  0  0  0
    3.9440   70.1880   67.9020 C   0  0  0  0  0  0  0  0  0  0  0  0
    4.7140   70.7300   68.9440 C   0  0  0  0  0  0  0  0  0  0  0  0
    6.0960   70.8740   68.8030 C   0  0  0  0  0  0  0  0  0  0  0  0
    6.7250   70.4680   67.6290 C   0  0  0  0  0  0  0  0  0  0  0  0
    5.9770   69.9030   66.5990 C   0  0  0  0  0  0  0  0  0  0  0  0
    4.5960   69.7580   66.7360 C   0  0  0  0  0  0  0  0  0  0  0  0
    2.9311   65.3753   70.7867 H   0  0  0  0  0  0  0  0  0  0  0  0
    2.8040   67.3352   69.2629 H   0  0  0  0  0  0  0  0  0  0  0  0
   -1.4195   66.6200   68.7007 H   0  0  0  0  0  0  0  0  0  0  0  0
   -1.2888   64.6578   70.2161 H   0  0  0  0  0  0  0  0  0  0  0  0
    2.6327   60.1661   70.7042 H   0  0  0  0  0  0  0  0  0  0  0  0
    1.9264   62.5320   70.1639 H   0  0  0  0  0  0  0  0  0  0  0  0
    0.5636   60.6209   75.2347 H   0  0  0  0  0  0  0  0  0  0  0  0
    4.2641   57.2494   71.0492 H   0  0  0  0  0  0  0  0  0  0  0  0
    2.5698   57.0924   70.4735 H   0  0  0  0  0  0  0  0  0  0  0  0
    3.3732   58.6991   70.4735 H   0  0  0  0  0  0  0  0  0  0  0  0
    0.4023   57.4018   76.0510 H   0  0  0  0  0  0  0  0  0  0  0  0
   -0.3172   58.0158   74.5239 H   0  0  0  0  0  0  0  0  0  0  0  0
    0.6147   56.4802   74.5239 H   0  0  0  0  0  0  0  0  0  0  0  0
   -0.0886   68.0401   67.1208 H   0  0  0  0  0  0  0  0  0  0  0  0
    0.2343   69.1240   68.5893 H   0  0  0  0  0  0  0  0  0  0  0  0
    2.5272   68.0212   67.5009 H   0  0  0  0  0  0  0  0  0  0  0  0
    1.7625   70.0781   65.6178 H   0  0  0  0  0  0  0  0  0  0  0  0
    2.8185   68.6204   65.4289 H   0  0  0  0  0  0  0  0  0  0  0  0
    0.0826   67.8218   65.9760 H   0  0  0  0  0  0  0  0  0  0  0  0
    0.1385   68.9356   64.5678 H   0  0  0  0  0  0  0  0  0  0  0  0
    1.1294   67.4373   64.5678 H   0  0  0  0  0  0  0  0  0  0  0  0
    1.9718   70.9266   67.6147 H   0  0  0  0  0  0  0  0  0  0  0  0
    2.2445   69.9035   69.1106 H   0  0  0  0  0  0  0  0  0  0  0  0
    4.2250   71.0434   69.8781 H   0  0  0  0  0  0  0  0  0  0  0  0
    6.6888   71.3091   69.6211 H   0  0  0  0  0  0  0  0  0  0  0  0
    7.8119   70.5934   67.5151 H   0  0  0  0  0  0  0  0  0  0  0  0
    6.4755   69.5707   65.6764 H   0  0  0  0  0  0  0  0  0  0  0  0
    4.0127   69.3023   65.9223 H   0  0  0  0  0  0  0  0  0  0  0  0
  2  1  2  0
  3  2  1  0
  4  3  2  0
  5  4  1  0
  6  5  2  0
  6  1  1  0
  8  7  2  0
  9  8  1  0
 10  9  1  0
 11 10  2  0
 11  1  1  0
 12 11  1  0
 13 12  2  0
 14 12  1  0
 15 14  1  0
 15  9  2  0
 16 15  1  0
 17 16  2  0
 17  7  1  0
 19  7  1  0
 19 18  1  0
 20 17  1  0
 21 20  1  0
 22  4  1  0
 23 22  1  0
 24 23  1  0
 25 24  1  0
 26 23  1  0
 27 26  1  0
 28 27  2  0
 29 28  1  0
 30 29  2  0
 31 30  1  0
 32 31  2  0
 32 27  1  0
  2 33  1  0
  3 34  1  0
  5 35  1  0
  6 36  1  0
  8 37  1  0
 10 38  1  0
 16 39  1  0
 18 40  1  0
 18 41  1  0
 18 42  1  0
 21 43  1  0
 21 44  1  0
 21 45  1  0
 22 46  1  0
 22 47  1  0
 23 48  1  6
 24 49  1  0
 24 50  1  0
 25 51  1  0
 25 52  1  0
 25 53  1  0
 26 54  1  0
 26 55  1  0
 28 56  1  0
 29 57  1  0
 30 58  1  0
 31 59  1  0
 32 60  1  0
M  CHG  1  23   1
M  END
>  <score>  (4) 
-9.154

$$$$
=
     RDKit          3D

 60 63  0  0  0  0  0  0  0  0999 V2000
    0.7000   65.9410   70.0940 C   0  0  0  0  0  0  0  0  0  0  0  0
   -0.2840   66.0880   69.1070 C   0  0  0  0  0  0  0  0  0  0  0  0
   -0.2110   67.1290   68.1730 C   0  0  0  0  0  0  0  0  0  0  0  0
    0.8440   68.0540   68.2080 C   0  0  0  0  0  0  0  0  0  0  0  0
    1.8320   67.8950   69.1890 C   0  0  0  0  0  0  0  0  0  0  0  0
    1.7570   66.8580   70.1240 C   0  0  0  0  0  0  0  0  0  0  0  0
    1.7960   60.2570   72.2860 C   0  0  0  0  0  0  0  0  0  0  0  0
    1.8490   61.3170   71.3700 C   0  0  0  0  0  0  0  0  0  0  0  0
    1.2270   62.5330   71.6650 C   0  0  0  0  0  0  0  0  0  0  0  0
    1.2560   63.6610   70.7440 C   0  0  0  0  0  0  0  0  0  0  0  0
    0.6530   64.8190   71.0570 C   0  0  0  0  0  0  0  0  0  0  0  0
   -0.0750   64.9730   72.3540 C   0  0  0  0  0  0  0  0  0  0  0  0
   -0.6460   66.0160   72.6580 O   0  0  0  0  0  0  0  0  0  0  0  0
   -0.0810   63.8770   73.2080 O   0  0  0  0  0  0  0  0  0  0  0  0
    0.5600   62.6710   72.8730 C   0  0  0  0  0  0  0  0  0  0  0  0
    0.4930   61.6340   73.8010 C   0  0  0  0  0  0  0  0  0  0  0  0
    1.1130   60.4170   73.5120 C   0  0  0  0  0  0  0  0  0  0  0  0
    3.7930   58.9530   72.0520 C   0  0  0  0  0  0  0  0  0  0  0  0
    2.3760   59.0290   72.0820 O   0  0  0  0  0  0  0  0  0  0  0  0
    1.1120   59.3290   74.3470 O   0  0  0  0  0  0  0  0  0  0  0  0
    0.9170   59.5580   75.7350 C   0  0  0  0  0  0  0  0  0  0  0  0
    0.9500   69.1630   67.1930 C   0  0  0  0  0  0  0  0  0  0  0  0
    2.3070   69.3650   66.5350 N   0  0  1  0  0  4  0  0  0  0  0  0
    3.4130   69.8430   67.4440 C   0  0  0  0  0  0  0  0  0  0  0  0
    4.7530   69.8390   66.7320 C   0  0  0  0  0  0  0  0  0  0  0  0
    2.7600   68.1760   65.7050 C   0  0  0  0  0  0  0  0  0  0  0  0
    2.7280   68.4120   64.2170 C   0  0  0  0  0  0  0  0  0  0  0  0
    1.5110   68.5900   63.5390 C   0  0  0  0  0  0  0  0  0  0  0  0
    1.4940   68.8030   62.1590 C   0  0  0  0  0  0  0  0  0  0  0  0
    2.6880   68.8530   61.4450 C   0  0  0  0  0  0  0  0  0  0  0  0
    3.9030   68.7060   62.1100 C   0  0  0  0  0  0  0  0  0  0  0  0
    3.9240   68.4930   63.4890 C   0  0  0  0  0  0  0  0  0  0  0  0
   -1.1230   65.3778   69.0654 H   0  0  0  0  0  0  0  0  0  0  0  0
   -0.9903   67.2229   67.4023 H   0  0  0  0  0  0  0  0  0  0  0  0
    2.6788   68.5962   69.2240 H   0  0  0  0  0  0  0  0  0  0  0  0
    2.5382   66.7617   70.8924 H   0  0  0  0  0  0  0  0  0  0  0  0
    2.3819   61.1910   70.4160 H   0  0  0  0  0  0  0  0  0  0  0  0
    1.7780   63.5630   69.7807 H   0  0  0  0  0  0  0  0  0  0  0  0
   -0.0429   61.7727   74.7516 H   0  0  0  0  0  0  0  0  0  0  0  0
    4.1809   58.9322   73.0811 H   0  0  0  0  0  0  0  0  0  0  0  0
    4.1000   58.0371   71.5258 H   0  0  0  0  0  0  0  0  0  0  0  0
    4.1962   59.8308   71.5258 H   0  0  0  0  0  0  0  0  0  0  0  0
    1.5238   58.8454   76.3130 H   0  0  0  0  0  0  0  0  0  0  0  0
    1.2219   60.5853   75.9835 H   0  0  0  0  0  0  0  0  0  0  0  0
   -0.1457   59.4207   75.9835 H   0  0  0  0  0  0  0  0  0  0  0  0
    0.2215   68.9547   66.3956 H   0  0  0  0  0  0  0  0  0  0  0  0
    0.7641   70.0883   67.7580 H   0  0  0  0  0  0  0  0  0  0  0  0
    2.1244   70.1505   65.8943 H   0  0  0  0  0  0  0  0  0  0  0  0
    3.1866   70.8671   67.7757 H   0  0  0  0  0  0  0  0  0  0  0  0
    3.4750   69.1599   68.3039 H   0  0  0  0  0  0  0  0  0  0  0  0
    5.5634   69.8366   67.4758 H   0  0  0  0  0  0  0  0  0  0  0  0
    4.8308   68.9406   66.1020 H   0  0  0  0  0  0  0  0  0  0  0  0
    4.8362   70.7369   66.1020 H   0  0  0  0  0  0  0  0  0  0  0  0
    3.7924   67.9280   65.9926 H   0  0  0  0  0  0  0  0  0  0  0  0
    2.0520   67.3596   65.9104 H   0  0  0  0  0  0  0  0  0  0  0  0
    0.5646   68.5614   64.0989 H   0  0  0  0  0  0  0  0  0  0  0  0
    0.5353   68.9315   61.6351 H   0  0  0  0  0  0  0  0  0  0  0  0
    2.6719   69.0085   60.3562 H   0  0  0  0  0  0  0  0  0  0  0  0
    4.8469   68.7579   61.5476 H   0  0  0  0  0  0  0  0  0  0  0  0
    4.8872   68.3877   64.0097 H   0  0  0  0  0  0  0  0  0  0  0  0
  2  1  2  0
  3  2  1  0
  4  3  2  0
  5  4  1  0
  6  5  2  0
  6  1  1  0
  8  7  2  0
  9  8  1  0
 10  9  1  0
 11 10  2  0
 11  1  1  0
 12 11  1  0
 13 12  2  0
 14 12  1  0
 15 14  1  0
 15  9  2  0
 16 15  1  0
 17 16  2  0
 17  7  1  0
 19  7  1  0
 19 18  1  0
 20 17  1  0
 21 20  1  0
 22  4  1  0
 23 22  1  0
 24 23  1  0
 25 24  1  0
 26 23  1  0
 27 26  1  0
 28 27  2  0
 29 28  1  0
 30 29  2  0
 31 30  1  0
 32 31  2  0
 32 27  1  0
  2 33  1  0
  3 34  1  0
  5 35  1  0
  6 36  1  0
  8 37  1  0
 10 38  1  0
 16 39  1  0
 18 40  1  0
 18 41  1  0
 18 42  1  0
 21 43  1  0
 21 44  1  0
 21 45  1  0
 22 46  1  0
 22 47  1  0
 23 48  1  6
 24 49  1  0
 24 50  1  0
 25 51  1  0
 25 52  1  0
 25 53  1  0
 26 54  1  0
 26 55  1  0
 28 56  1  0
 29 57  1  0
 30 58  1  0
 31 59  1  0
 32 60  1  0
M  CHG  1  23   1
M  END
>  <score>  (5) 
-9.024

$$$$
=
     RDKit          3D

 60 63  0  0  0  0  0  0  0  0999 V2000
    0.5190   65.9670   69.8600 C   0  0  0  0  0  0  0  0  0  0  0  0
    1.4720   66.9350   69.5160 C   0  0  0  0  0  0  0  0  0  0  0  0
    1.2380   67.8250   68.4600 C   0  0  0  0  0  0  0  0  0  0  0  0
    0.0500   67.7630   67.7160 C   0  0  0  0  0  0  0  0  0  0  0  0
   -0.9040   66.8010   68.0730 C   0  0  0  0  0  0  0  0  0  0  0  0
   -0.6710   65.9110   69.1250 C   0  0  0  0  0  0  0  0  0  0  0  0
   -0.0880   63.7880   75.6220 C   0  0  0  0  0  0  0  0  0  0  0  0
   -0.3050   64.6580   74.5430 C   0  0  0  0  0  0  0  0  0  0  0  0
    0.3230   64.4270   73.3170 C   0  0  0  0  0  0  0  0  0  0  0  0
    0.1270   65.3020   72.1700 C   0  0  0  0  0  0  0  0  0  0  0  0
    0.7390   65.0520   71.0020 C   0  0  0  0  0  0  0  0  0  0  0  0
    1.6500   63.8760   70.8560 C   0  0  0  0  0  0  0  0  0  0  0  0
    2.2340   63.6330   69.8040 O   0  0  0  0  0  0  0  0  0  0  0  0
    1.8140   63.0620   71.9700 O   0  0  0  0  0  0  0  0  0  0  0  0
    1.1600   63.3290   73.1860 C   0  0  0  0  0  0  0  0  0  0  0  0
    1.3930   62.4490   74.2420 C   0  0  0  0  0  0  0  0  0  0  0  0
    0.7680   62.6750   75.4700 C   0  0  0  0  0  0  0  0  0  0  0  0
   -2.0700   63.8060   76.9700 C   0  0  0  0  0  0  0  0  0  0  0  0
   -0.6600   63.9360   76.8620 O   0  0  0  0  0  0  0  0  0  0  0  0
    0.9230   61.8790   76.5760 O   0  0  0  0  0  0  0  0  0  0  0  0
    0.7260   60.4800   76.4200 C   0  0  0  0  0  0  0  0  0  0  0  0
   -0.2270   68.7310   66.5940 C   0  0  0  0  0  0  0  0  0  0  0  0
    0.1050   68.2630   65.1850 N   0  0  1  0  0  4  0  0  0  0  0  0
    0.1250   69.3360   64.1250 C   0  0  0  0  0  0  0  0  0  0  0  0
   -0.3660   68.8040   62.7910 C   0  0  0  0  0  0  0  0  0  0  0  0
    1.3550   67.4010   65.1110 C   0  0  0  0  0  0  0  0  0  0  0  0
    2.6260   68.1750   64.8790 C   0  0  0  0  0  0  0  0  0  0  0  0
    3.2040   68.2530   63.6010 C   0  0  0  0  0  0  0  0  0  0  0  0
    4.3850   68.9690   63.4000 C   0  0  0  0  0  0  0  0  0  0  0  0
    4.9950   69.6240   64.4670 C   0  0  0  0  0  0  0  0  0  0  0  0
    4.4190   69.5770   65.7340 C   0  0  0  0  0  0  0  0  0  0  0  0
    3.2380   68.8630   65.9380 C   0  0  0  0  0  0  0  0  0  0  0  0
    2.4137   66.9966   70.0812 H   0  0  0  0  0  0  0  0  0  0  0  0
    1.9956   68.5825   68.2107 H   0  0  0  0  0  0  0  0  0  0  0  0
   -1.8512   66.7454   67.5165 H   0  0  0  0  0  0  0  0  0  0  0  0
   -1.4315   65.1578   69.3784 H   0  0  0  0  0  0  0  0  0  0  0  0
   -0.9717   65.5247   74.6629 H   0  0  0  0  0  0  0  0  0  0  0  0
   -0.5308   66.1788   72.2618 H   0  0  0  0  0  0  0  0  0  0  0  0
    2.0620   61.5860   74.1092 H   0  0  0  0  0  0  0  0  0  0  0  0
   -2.3555   63.7797   78.0320 H   0  0  0  0  0  0  0  0  0  0  0  0
   -2.5558   64.6632   76.4808 H   0  0  0  0  0  0  0  0  0  0  0  0
   -2.3909   62.8745   76.4808 H   0  0  0  0  0  0  0  0  0  0  0  0
    0.6593   60.0064   77.4106 H   0  0  0  0  0  0  0  0  0  0  0  0
   -0.2063   60.3007   75.8643 H   0  0  0  0  0  0  0  0  0  0  0  0
    1.5725   60.0502   75.8643 H   0  0  0  0  0  0  0  0  0  0  0  0
   -1.2999   68.9722   66.6201 H   0  0  0  0  0  0  0  0  0  0  0  0
    0.4426   69.5840   66.7786 H   0  0  0  0  0  0  0  0  0  0  0  0
   -0.7052   67.6698   64.9556 H   0  0  0  0  0  0  0  0  0  0  0  0
   -0.5258   70.1644   64.4416 H   0  0  0  0  0  0  0  0  0  0  0  0
    1.1621   69.6809   64.0003 H   0  0  0  0  0  0  0  0  0  0  0  0
   -1.1028   68.0056   62.9634 H   0  0  0  0  0  0  0  0  0  0  0  0
   -0.8355   69.6195   62.2214 H   0  0  0  0  0  0  0  0  0  0  0  0
    0.4845   68.4013   62.2214 H   0  0  0  0  0  0  0  0  0  0  0  0
    1.4530   66.8533   66.0599 H   0  0  0  0  0  0  0  0  0  0  0  0
    1.2284   66.7344   64.2452 H   0  0  0  0  0  0  0  0  0  0  0  0
    2.7221   67.7458   62.7522 H   0  0  0  0  0  0  0  0  0  0  0  0
    4.8347   69.0161   62.3972 H   0  0  0  0  0  0  0  0  0  0  0  0
    5.9318   70.1785   64.3089 H   0  0  0  0  0  0  0  0  0  0  0  0
    4.8955   70.1031   66.5744 H   0  0  0  0  0  0  0  0  0  0  0  0
    2.7820   68.8391   66.9388 H   0  0  0  0  0  0  0  0  0  0  0  0
  2  1  2  0
  3  2  1  0
  4  3  2  0
  5  4  1  0
  6  5  2  0
  6  1  1  0
  8  7  2  0
  9  8  1  0
 10  9  1  0
 11 10  2  0
 11  1  1  0
 12 11  1  0
 13 12  2  0
 14 12  1  0
 15 14  1  0
 15  9  2  0
 16 15  1  0
 17 16  2  0
 17  7  1  0
 19  7  1  0
 19 18  1  0
 20 17  1  0
 21 20  1  0
 22  4  1  0
 23 22  1  0
 24 23  1  0
 25 24  1  0
 26 23  1  0
 27 26  1  0
 28 27  2  0
 29 28  1  0
 30 29  2  0
 31 30  1  0
 32 31  2  0
 32 27  1  0
  2 33  1  0
  3 34  1  0
  5 35  1  0
  6 36  1  0
  8 37  1  0
 10 38  1  0
 16 39  1  0
 18 40  1  0
 18 41  1  0
 18 42  1  0
 21 43  1  0
 21 44  1  0
 21 45  1  0
 22 46  1  0
 22 47  1  0
 23 48  1  6
 24 49  1  0
 24 50  1  0
 25 51  1  0
 25 52  1  0
 25 53  1  0
 26 54  1  0
 26 55  1  0
 28 56  1  0
 29 57  1  0
 30 58  1  0
 31 59  1  0
 32 60  1  0
M  CHG  1  23   1
M  END
>  <score>  (6) 
-9.021

$$$$
=
     RDKit          3D

 60 63  0  0  0  0  0  0  0  0999 V2000
    0.7890   60.0630   73.1690 C   0  0  0  0  0  0  0  0  0  0  0  0
   -0.3320   60.7120   72.6360 C   0  0  0  0  0  0  0  0  0  0  0  0
   -0.3080   62.0890   72.3830 C   0  0  0  0  0  0  0  0  0  0  0  0
    0.8350   62.8530   72.6650 C   0  0  0  0  0  0  0  0  0  0  0  0
    1.9570   62.1960   73.1860 C   0  0  0  0  0  0  0  0  0  0  0  0
    1.9330   60.8220   73.4410 C   0  0  0  0  0  0  0  0  0  0  0  0
   -1.3580   54.6010   75.1360 C   0  0  0  0  0  0  0  0  0  0  0  0
   -1.3660   55.9860   74.9180 C   0  0  0  0  0  0  0  0  0  0  0  0
   -0.2920   56.6030   74.2730 C   0  0  0  0  0  0  0  0  0  0  0  0
   -0.2570   58.0370   74.0260 C   0  0  0  0  0  0  0  0  0  0  0  0
    0.7870   58.6010   73.3980 C   0  0  0  0  0  0  0  0  0  0  0  0
    1.9470   57.7700   72.9520 C   0  0  0  0  0  0  0  0  0  0  0  0
    2.9200   58.2630   72.3890 O   0  0  0  0  0  0  0  0  0  0  0  0
    1.8800   56.4050   73.2030 O   0  0  0  0  0  0  0  0  0  0  0  0
    0.7770   55.8240   73.8540 C   0  0  0  0  0  0  0  0  0  0  0  0
    0.8100   54.4460   74.0570 C   0  0  0  0  0  0  0  0  0  0  0  0
   -0.2610   53.8240   74.7010 C   0  0  0  0  0  0  0  0  0  0  0  0
   -3.0090   54.5180   76.8720 C   0  0  0  0  0  0  0  0  0  0  0  0
   -2.3680   53.9100   75.7610 O   0  0  0  0  0  0  0  0  0  0  0  0
   -0.3380   52.4790   74.9560 O   0  0  0  0  0  0  0  0  0  0  0  0
    0.5900   51.9250   75.8800 C   0  0  0  0  0  0  0  0  0  0  0  0
    0.8840   64.3310   72.3730 C   0  0  0  0  0  0  0  0  0  0  0  0
    0.8930   64.7430   70.9090 N   0  0  1  0  0  4  0  0  0  0  0  0
    0.1020   65.9830   70.5710 C   0  0  0  0  0  0  0  0  0  0  0  0
    0.8200   66.8310   69.5370 C   0  0  0  0  0  0  0  0  0  0  0  0
    2.2860   64.8040   70.3040 C   0  0  0  0  0  0  0  0  0  0  0  0
    2.9800   63.4700   70.2160 C   0  0  0  0  0  0  0  0  0  0  0  0
    2.3700   62.3760   69.5800 C   0  0  0  0  0  0  0  0  0  0  0  0
    3.0230   61.1450   69.5080 C   0  0  0  0  0  0  0  0  0  0  0  0
    4.2930   60.9940   70.0570 C   0  0  0  0  0  0  0  0  0  0  0  0
    4.9210   62.0770   70.6660 C   0  0  0  0  0  0  0  0  0  0  0  0
    4.2720   63.3110   70.7400 C   0  0  0  0  0  0  0  0  0  0  0  0
   -1.2410   60.1337   72.4138 H   0  0  0  0  0  0  0  0  0  0  0  0
   -1.1966   62.5783   71.9577 H   0  0  0  0  0  0  0  0  0  0  0  0
    2.8710   62.7702   73.3977 H   0  0  0  0  0  0  0  0  0  0  0  0
    2.8237   60.3314   73.8604 H   0  0  0  0  0  0  0  0  0  0  0  0
   -2.2216   56.5889   75.2563 H   0  0  0  0  0  0  0  0  0  0  0  0
   -1.0960   58.6662   74.3579 H   0  0  0  0  0  0  0  0  0  0  0  0
    1.6712   53.8542   73.7133 H   0  0  0  0  0  0  0  0  0  0  0  0
   -2.5856   54.1164   77.8045 H   0  0  0  0  0  0  0  0  0  0  0  0
   -2.8510   55.6060   76.8362 H   0  0  0  0  0  0  0  0  0  0  0  0
   -4.0871   54.3027   76.8362 H   0  0  0  0  0  0  0  0  0  0  0  0
    0.2506   52.1276   76.9065 H   0  0  0  0  0  0  0  0  0  0  0  0
    0.6582   50.8382   75.7241 H   0  0  0  0  0  0  0  0  0  0  0  0
    1.5790   52.3806   75.7241 H   0  0  0  0  0  0  0  0  0  0  0  0
    0.0025   64.7919   72.8426 H   0  0  0  0  0  0  0  0  0  0  0  0
    1.8511   64.6704   72.7725 H   0  0  0  0  0  0  0  0  0  0  0  0
    0.3852   63.9666   70.4615 H   0  0  0  0  0  0  0  0  0  0  0  0
   -0.8784   65.6846   70.1713 H   0  0  0  0  0  0  0  0  0  0  0  0
   -0.0163   66.5797   71.4875 H   0  0  0  0  0  0  0  0  0  0  0  0
    1.4500   67.5750   70.0464 H   0  0  0  0  0  0  0  0  0  0  0  0
    1.4506   66.1859   68.9076 H   0  0  0  0  0  0  0  0  0  0  0  0
    0.0797   67.3466   68.9076 H   0  0  0  0  0  0  0  0  0  0  0  0
    2.2030   65.2174   69.2880 H   0  0  0  0  0  0  0  0  0  0  0  0
    2.8933   65.4328   70.9717 H   0  0  0  0  0  0  0  0  0  0  0  0
    1.3703   62.4906   69.1355 H   0  0  0  0  0  0  0  0  0  0  0  0
    2.5329   60.2918   69.0162 H   0  0  0  0  0  0  0  0  0  0  0  0
    4.8004   60.0192   70.0097 H   0  0  0  0  0  0  0  0  0  0  0  0
    5.9296   61.9604   71.0893 H   0  0  0  0  0  0  0  0  0  0  0  0
    4.7777   64.1657   71.2130 H   0  0  0  0  0  0  0  0  0  0  0  0
  2  1  2  0
  3  2  1  0
  4  3  2  0
  5  4  1  0
  6  5  2  0
  6  1  1  0
  8  7  2  0
  9  8  1  0
 10  9  1  0
 11 10  2  0
 11  1  1  0
 12 11  1  0
 13 12  2  0
 14 12  1  0
 15 14  1  0
 15  9  2  0
 16 15  1  0
 17 16  2  0
 17  7  1  0
 19  7  1  0
 19 18  1  0
 20 17  1  0
 21 20  1  0
 22  4  1  0
 23 22  1  0
 24 23  1  0
 25 24  1  0
 26 23  1  0
 27 26  1  0
 28 27  2  0
 29 28  1  0
 30 29  2  0
 31 30  1  0
 32 31  2  0
 32 27  1  0
  2 33  1  0
  3 34  1  0
  5 35  1  0
  6 36  1  0
  8 37  1  0
 10 38  1  0
 16 39  1  0
 18 40  1  0
 18 41  1  0
 18 42  1  0
 21 43  1  0
 21 44  1  0
 21 45  1  0
 22 46  1  0
 22 47  1  0
 23 48  1  6
 24 49  1  0
 24 50  1  0
 25 51  1  0
 25 52  1  0
 25 53  1  0
 26 54  1  0
 26 55  1  0
 28 56  1  0
 29 57  1  0
 30 58  1  0
 31 59  1  0
 32 60  1  0
M  CHG  1  23   1
M  END
>  <score>  (7) 
-8.886

$$$$
=
     RDKit          3D

 60 63  0  0  0  0  0  0  0  0999 V2000
    0.7860   65.0350   70.5090 C   0  0  0  0  0  0  0  0  0  0  0  0
    1.8950   65.8550   70.2650 C   0  0  0  0  0  0  0  0  0  0  0  0
    1.7970   66.9520   69.4010 C   0  0  0  0  0  0  0  0  0  0  0  0
    0.5890   67.2510   68.7510 C   0  0  0  0  0  0  0  0  0  0  0  0
   -0.5200   66.4350   69.0090 C   0  0  0  0  0  0  0  0  0  0  0  0
   -0.4220   65.3370   69.8700 C   0  0  0  0  0  0  0  0  0  0  0  0
    2.3010   59.3760   72.5090 C   0  0  0  0  0  0  0  0  0  0  0  0
    2.2310   60.4490   71.6090 C   0  0  0  0  0  0  0  0  0  0  0  0
    1.5870   61.6330   71.9750 C   0  0  0  0  0  0  0  0  0  0  0  0
    1.4890   62.7720   71.0740 C   0  0  0  0  0  0  0  0  0  0  0  0
    0.8690   63.9000   71.4550 C   0  0  0  0  0  0  0  0  0  0  0  0
    0.2510   64.0070   72.8120 C   0  0  0  0  0  0  0  0  0  0  0  0
   -0.3350   65.0210   73.1800 O   0  0  0  0  0  0  0  0  0  0  0  0
    0.3630   62.9020   73.6470 O   0  0  0  0  0  0  0  0  0  0  0  0
    1.0220   61.7290   73.2390 C   0  0  0  0  0  0  0  0  0  0  0  0
    1.0790   60.6780   74.1530 C   0  0  0  0  0  0  0  0  0  0  0  0
    1.7210   59.4920   73.7920 C   0  0  0  0  0  0  0  0  0  0  0  0
    3.3420   57.9290   70.9070 C   0  0  0  0  0  0  0  0  0  0  0  0
    2.9120   58.1760   72.2370 O   0  0  0  0  0  0  0  0  0  0  0  0
    1.8370   58.3950   74.6070 O   0  0  0  0  0  0  0  0  0  0  0  0
    1.3370   58.4980   75.9330 C   0  0  0  0  0  0  0  0  0  0  0  0
    0.4610   68.4440   67.8390 C   0  0  0  0  0  0  0  0  0  0  0  0
    1.2080   68.3790   66.5150 N   0  0  1  0  0  4  0  0  0  0  0  0
    0.4090   68.7600   65.2920 C   0  0  0  0  0  0  0  0  0  0  0  0
   -1.0790   68.7890   65.5910 C   0  0  0  0  0  0  0  0  0  0  0  0
    2.5450   69.0990   66.5370 C   0  0  0  0  0  0  0  0  0  0  0  0
    3.3390   68.9710   65.2630 C   0  0  0  0  0  0  0  0  0  0  0  0
    4.5900   69.5930   65.1230 C   0  0  0  0  0  0  0  0  0  0  0  0
    5.3130   69.4700   63.9350 C   0  0  0  0  0  0  0  0  0  0  0  0
    4.8040   68.7160   62.8820 C   0  0  0  0  0  0  0  0  0  0  0  0
    3.5770   68.0710   63.0170 C   0  0  0  0  0  0  0  0  0  0  0  0
    2.8510   68.1910   64.2030 C   0  0  0  0  0  0  0  0  0  0  0  0
    2.8535   65.6345   70.7577 H   0  0  0  0  0  0  0  0  0  0  0  0
    2.6779   67.5880   69.2291 H   0  0  0  0  0  0  0  0  0  0  0  0
   -1.4826   66.6612   68.5271 H   0  0  0  0  0  0  0  0  0  0  0  0
   -1.3040   64.7039   70.0468 H   0  0  0  0  0  0  0  0  0  0  0  0
    2.6849   60.3579   70.6112 H   0  0  0  0  0  0  0  0  0  0  0  0
    1.9287   62.7076   70.0678 H   0  0  0  0  0  0  0  0  0  0  0  0
    0.6228   60.7821   75.1485 H   0  0  0  0  0  0  0  0  0  0  0  0
    4.2957   57.3812   70.9258 H   0  0  0  0  0  0  0  0  0  0  0  0
    2.5844   57.3284   70.3823 H   0  0  0  0  0  0  0  0  0  0  0  0
    3.4791   58.8860   70.3823 H   0  0  0  0  0  0  0  0  0  0  0  0
    2.1559   58.3293   76.6478 H   0  0  0  0  0  0  0  0  0  0  0  0
    0.9152   59.5019   76.0889 H   0  0  0  0  0  0  0  0  0  0  0  0
    0.5528   57.7425   76.0889 H   0  0  0  0  0  0  0  0  0  0  0  0
   -0.6072   68.5763   67.6122 H   0  0  0  0  0  0  0  0  0  0  0  0
    0.9223   69.2774   68.3890 H   0  0  0  0  0  0  0  0  0  0  0  0
    1.3914   67.3702   66.4172 H   0  0  0  0  0  0  0  0  0  0  0  0
    0.7258   69.7576   64.9537 H   0  0  0  0  0  0  0  0  0  0  0  0
    0.5911   68.0075   64.5106 H   0  0  0  0  0  0  0  0  0  0  0  0
   -1.2342   68.7920   66.6800 H   0  0  0  0  0  0  0  0  0  0  0  0
   -1.5230   69.6960   65.1548 H   0  0  0  0  0  0  0  0  0  0  0  0
   -1.5580   67.9000   65.1548 H   0  0  0  0  0  0  0  0  0  0  0  0
    2.3580   70.1673   66.7205 H   0  0  0  0  0  0  0  0  0  0  0  0
    3.1438   68.6274   67.3301 H   0  0  0  0  0  0  0  0  0  0  0  0
    5.0034   70.1815   65.9554 H   0  0  0  0  0  0  0  0  0  0  0  0
    6.2872   69.9702   63.8311 H   0  0  0  0  0  0  0  0  0  0  0  0
    5.3706   68.6294   61.9432 H   0  0  0  0  0  0  0  0  0  0  0  0
    3.1798   67.4665   62.1883 H   0  0  0  0  0  0  0  0  0  0  0  0
    1.8880   67.6698   64.3079 H   0  0  0  0  0  0  0  0  0  0  0  0
  2  1  2  0
  3  2  1  0
  4  3  2  0
  5  4  1  0
  6  5  2  0
  6  1  1  0
  8  7  2  0
  9  8  1  0
 10  9  1  0
 11 10  2  0
 11  1  1  0
 12 11  1  0
 13 12  2  0
 14 12  1  0
 15 14  1  0
 15  9  2  0
 16 15  1  0
 17 16  2  0
 17  7  1  0
 19  7  1  0
 19 18  1  0
 20 17  1  0
 21 20  1  0
 22  4  1  0
 23 22  1  0
 24 23  1  0
 25 24  1  0
 26 23  1  0
 27 26  1  0
 28 27  2  0
 29 28  1  0
 30 29  2  0
 31 30  1  0
 32 31  2  0
 32 27  1  0
  2 33  1  0
  3 34  1  0
  5 35  1  0
  6 36  1  0
  8 37  1  0
 10 38  1  0
 16 39  1  0
 18 40  1  0
 18 41  1  0
 18 42  1  0
 21 43  1  0
 21 44  1  0
 21 45  1  0
 22 46  1  0
 22 47  1  0
 23 48  1  6
 24 49  1  0
 24 50  1  0
 25 51  1  0
 25 52  1  0
 25 53  1  0
 26 54  1  0
 26 55  1  0
 28 56  1  0
 29 57  1  0
 30 58  1  0
 31 59  1  0
 32 60  1  0
M  CHG  1  23   1
M  END
>  <score>  (8) 
-8.406

$$$$
=
     RDKit          3D

 60 63  0  0  0  0  0  0  0  0999 V2000
   -0.3640   60.0530   73.7000 C   0  0  0  0  0  0  0  0  0  0  0  0
    0.9790   60.3860   73.9200 C   0  0  0  0  0  0  0  0  0  0  0  0
    1.4970   61.6050   73.4650 C   0  0  0  0  0  0  0  0  0  0  0  0
    0.6870   62.5170   72.7730 C   0  0  0  0  0  0  0  0  0  0  0  0
   -0.6590   62.1840   72.5670 C   0  0  0  0  0  0  0  0  0  0  0  0
   -1.1760   60.9660   73.0180 C   0  0  0  0  0  0  0  0  0  0  0  0
   -0.7940   53.9410   74.5880 C   0  0  0  0  0  0  0  0  0  0  0  0
   -0.2480   55.1380   74.1000 C   0  0  0  0  0  0  0  0  0  0  0  0
   -0.8570   56.3600   74.3960 C   0  0  0  0  0  0  0  0  0  0  0  0
   -0.3260   57.6260   73.9110 C   0  0  0  0  0  0  0  0  0  0  0  0
   -0.9300   58.7860   74.2150 C   0  0  0  0  0  0  0  0  0  0  0  0
   -2.1720   58.8020   75.0480 C   0  0  0  0  0  0  0  0  0  0  0  0
   -2.7510   59.8470   75.3280 O   0  0  0  0  0  0  0  0  0  0  0  0
   -2.6500   57.5760   75.4940 O   0  0  0  0  0  0  0  0  0  0  0  0
   -2.0040   56.3690   75.1760 C   0  0  0  0  0  0  0  0  0  0  0  0
   -2.5660   55.1950   75.6730 C   0  0  0  0  0  0  0  0  0  0  0  0
   -1.9620   53.9700   75.3820 C   0  0  0  0  0  0  0  0  0  0  0  0
    0.8010   52.2510   75.1740 C   0  0  0  0  0  0  0  0  0  0  0  0
   -0.2650   52.6960   74.3490 O   0  0  0  0  0  0  0  0  0  0  0  0
   -2.4250   52.7540   75.8150 O   0  0  0  0  0  0  0  0  0  0  0  0
   -2.4860   52.5290   77.2170 C   0  0  0  0  0  0  0  0  0  0  0  0
    1.2230   63.8450   72.3010 C   0  0  0  0  0  0  0  0  0  0  0  0
    1.2000   64.1010   70.8010 N   0  0  1  0  0  4  0  0  0  0  0  0
    0.4070   65.3050   70.3540 C   0  0  0  0  0  0  0  0  0  0  0  0
    1.3190   66.4560   69.9700 C   0  0  0  0  0  0  0  0  0  0  0  0
    2.5790   64.0900   70.1630 C   0  0  0  0  0  0  0  0  0  0  0  0
    3.3130   62.7820   70.3010 C   0  0  0  0  0  0  0  0  0  0  0  0
    4.5160   62.6990   71.0220 C   0  0  0  0  0  0  0  0  0  0  0  0
    5.1900   61.4820   71.1380 C   0  0  0  0  0  0  0  0  0  0  0  0
    4.6660   60.3340   70.5490 C   0  0  0  0  0  0  0  0  0  0  0  0
    3.4610   60.3970   69.8540 C   0  0  0  0  0  0  0  0  0  0  0  0
    2.7840   61.6120   69.7360 C   0  0  0  0  0  0  0  0  0  0  0  0
    1.6334   59.6826   74.4557 H   0  0  0  0  0  0  0  0  0  0  0  0
    2.5527   61.8503   73.6528 H   0  0  0  0  0  0  0  0  0  0  0  0
   -1.3181   62.8916   72.0427 H   0  0  0  0  0  0  0  0  0  0  0  0
   -2.2330   60.7226   72.8347 H   0  0  0  0  0  0  0  0  0  0  0  0
    0.6621   55.1141   73.4826 H   0  0  0  0  0  0  0  0  0  0  0  0
    0.5807   57.6322   73.2882 H   0  0  0  0  0  0  0  0  0  0  0  0
   -3.4768   55.2327   76.2887 H   0  0  0  0  0  0  0  0  0  0  0  0
    0.5201   52.3683   76.2311 H   0  0  0  0  0  0  0  0  0  0  0  0
    1.0085   51.1911   74.9651 H   0  0  0  0  0  0  0  0  0  0  0  0
    1.7005   52.8488   74.9651 H   0  0  0  0  0  0  0  0  0  0  0  0
   -2.2340   53.4584   77.7488 H   0  0  0  0  0  0  0  0  0  0  0  0
   -3.5024   52.2123   77.4936 H   0  0  0  0  0  0  0  0  0  0  0  0
   -1.7687   51.7422   77.4936 H   0  0  0  0  0  0  0  0  0  0  0  0
    0.6270   64.6343   72.7823 H   0  0  0  0  0  0  0  0  0  0  0  0
    2.2882   63.8391   72.5754 H   0  0  0  0  0  0  0  0  0  0  0  0
    0.6793   63.2855   70.4477 H   0  0  0  0  0  0  0  0  0  0  0  0
   -0.2053   65.0274   69.4833 H   0  0  0  0  0  0  0  0  0  0  0  0
   -0.2293   65.6309   71.1900 H   0  0  0  0  0  0  0  0  0  0  0  0
    1.7022   66.9397   70.8806 H   0  0  0  0  0  0  0  0  0  0  0  0
    2.1618   66.0734   69.3756 H   0  0  0  0  0  0  0  0  0  0  0  0
    0.7539   67.1890   69.3756 H   0  0  0  0  0  0  0  0  0  0  0  0
    2.4650   64.3101   69.0913 H   0  0  0  0  0  0  0  0  0  0  0  0
    3.1780   64.8458   70.6921 H   0  0  0  0  0  0  0  0  0  0  0  0
    4.9299   63.5998   71.4987 H   0  0  0  0  0  0  0  0  0  0  0  0
    6.1367   61.4297   71.6957 H   0  0  0  0  0  0  0  0  0  0  0  0
    5.2037   59.3780   70.6327 H   0  0  0  0  0  0  0  0  0  0  0  0
    3.0421   59.4882   69.3974 H   0  0  0  0  0  0  0  0  0  0  0  0
    1.8270   61.6524   69.1951 H   0  0  0  0  0  0  0  0  0  0  0  0
  2  1  2  0
  3  2  1  0
  4  3  2  0
  5  4  1  0
  6  5  2  0
  6  1  1  0
  8  7  2  0
  9  8  1  0
 10  9  1  0
 11 10  2  0
 11  1  1  0
 12 11  1  0
 13 12  2  0
 14 12  1  0
 15 14  1  0
 15  9  2  0
 16 15  1  0
 17 16  2  0
 17  7  1  0
 19  7  1  0
 19 18  1  0
 20 17  1  0
 21 20  1  0
 22  4  1  0
 23 22  1  0
 24 23  1  0
 25 24  1  0
 26 23  1  0
 27 26  1  0
 28 27  2  0
 29 28  1  0
 30 29  2  0
 31 30  1  0
 32 31  2  0
 32 27  1  0
  2 33  1  0
  3 34  1  0
  5 35  1  0
  6 36  1  0
  8 37  1  0
 10 38  1  0
 16 39  1  0
 18 40  1  0
 18 41  1  0
 18 42  1  0
 21 43  1  0
 21 44  1  0
 21 45  1  0
 22 46  1  0
 22 47  1  0
 23 48  1  6
 24 49  1  0
 24 50  1  0
 25 51  1  0
 25 52  1  0
 25 53  1  0
 26 54  1  0
 26 55  1  0
 28 56  1  0
 29 57  1  0
 30 58  1  0
 31 59  1  0
 32 60  1  0
M  CHG  1  23   1
M  END
>  <score>  (9) 
-8.337

$$$$
