=
     RDKit          3D

 46 50  0  0  0  0  0  0  0  0999 V2000
    1.8830   57.5230   72.5540 C   0  0  0  0  0  0  0  0  0  0  0  0
    1.5860   58.8850   72.7500 C   0  0  0  0  0  0  0  0  0  0  0  0
    2.2240   59.9170   72.0350 C   0  0  0  0  0  0  0  0  0  0  0  0
    3.1560   59.5560   71.0460 C   0  0  0  0  0  0  0  0  0  0  0  0
    3.4190   58.2150   70.7680 C   0  0  0  0  0  0  0  0  0  0  0  0
    2.7830   57.2270   71.5070 C   0  0  0  0  0  0  0  0  0  0  0  0
    3.0710   55.9510   71.2030 F   0  0  0  0  0  0  0  0  0  0  0  0
    3.8890   60.6050   70.2930 C   0  0  0  0  0  0  0  0  0  0  0  0
    4.8140   60.2720   69.5620 O   0  0  0  0  0  0  0  0  0  0  0  0
    3.4680   61.9930   70.5230 C   0  0  0  0  0  0  0  0  0  0  0  0
    2.5610   62.2390   71.4770 C   0  0  0  0  0  0  0  0  0  0  0  0
    1.9730   61.2940   72.2960 N   0  0  0  0  0  0  0  0  0  0  0  0
    0.5180   58.2350   76.4010 C   0  0  0  0  0  0  0  0  0  0  0  0
   -0.2090   57.1080   75.7430 N   0  0  1  0  0  4  0  0  0  0  0  0
   -0.7720   57.4580   74.3460 C   0  0  0  0  0  0  0  0  0  0  0  0
   -0.1670   56.3430   73.4580 C   0  0  2  0  0  0  0  0  0  0  0  0
   -0.2430   55.1440   74.4130 C   0  0  0  0  0  0  0  0  0  0  0  0
    0.6230   55.8170   75.4730 C   0  0  1  0  0  0  0  0  0  0  0  0
    1.8950   56.1440   74.6390 C   0  0  0  0  0  0  0  0  0  0  0  0
    1.3000   56.5400   73.3420 N   0  0  0  0  0  0  0  0  0  0  0  0
    0.9100   61.7490   73.2120 C   0  0  0  0  0  0  0  0  0  0  0  0
   -0.5200   61.9180   72.7560 C   0  0  0  0  0  0  0  0  0  0  0  0
    0.2940   63.1230   73.1010 C   0  0  0  0  0  0  0  0  0  0  0  0
    3.9960   63.1560   69.7210 C   0  0  0  0  0  0  0  0  0  0  0  0
    3.3860   63.3680   68.6320 O   0  0  0  0  0  0  0  0  0  0  0  0
    5.0370   63.7030   70.1780 O   0  0  0  0  0  1  0  0  0  0  0  0
    0.8222   59.1550   73.4941 H   0  0  0  0  0  0  0  0  0  0  0  0
    4.1248   57.9424   69.9695 H   0  0  0  0  0  0  0  0  0  0  0  0
    2.2571   63.2863   71.6215 H   0  0  0  0  0  0  0  0  0  0  0  0
    0.4488   58.1277   77.4936 H   0  0  0  0  0  0  0  0  0  0  0  0
    1.5750   58.2167   76.0970 H   0  0  0  0  0  0  0  0  0  0  0  0
    0.0655   59.1904   76.0970 H   0  0  0  0  0  0  0  0  0  0  0  0
   -0.9384   56.9380   76.4501 H   0  0  0  0  0  0  0  0  0  0  0  0
   -1.8713   57.4206   74.3387 H   0  0  0  0  0  0  0  0  0  0  0  0
   -0.5184   58.4745   74.0108 H   0  0  0  0  0  0  0  0  0  0  0  0
   -0.6504   56.2799   72.4719 H   0  0  0  0  0  0  0  0  0  0  0  0
   -1.2644   54.9267   74.7588 H   0  0  0  0  0  0  0  0  0  0  0  0
    0.0576   54.1541   74.0392 H   0  0  0  0  0  0  0  0  0  0  0  0
    0.8732   55.2907   76.4059 H   0  0  0  0  0  0  0  0  0  0  0  0
    2.4688   56.9687   75.0869 H   0  0  0  0  0  0  0  0  0  0  0  0
    2.6130   55.3136   74.5696 H   0  0  0  0  0  0  0  0  0  0  0  0
    1.4155   61.1802   74.0063 H   0  0  0  0  0  0  0  0  0  0  0  0
   -0.7894   61.7189   71.7082 H   0  0  0  0  0  0  0  0  0  0  0  0
   -1.4911   61.5180   73.0830 H   0  0  0  0  0  0  0  0  0  0  0  0
    0.6225   63.8094   72.3067 H   0  0  0  0  0  0  0  0  0  0  0  0
    0.1678   63.9742   73.7863 H   0  0  0  0  0  0  0  0  0  0  0  0
  2  1  2  0
  3  2  1  0
  4  3  2  0
  5  4  1  0
  6  5  2  0
  6  1  1  0
  7  6  1  0
  8  4  1  0
  9  8  2  0
 10  8  1  0
 11 10  2  0
 12  3  1  0
 12 11  1  0
 14 13  1  0
 15 14  1  0
 16 15  1  0
 17 16  1  0
 18 17  1  0
 18 14  1  0
 19 18  1  0
 20 19  1  0
 20 16  1  0
 20  1  1  0
 21 12  1  0
 22 21  1  0
 23 22  1  0
 23 21  1  0
 24 10  1  0
 25 24  2  0
 26 24  1  0
  2 27  1  0
  5 28  1  0
 11 29  1  0
 13 30  1  0
 13 31  1  0
 13 32  1  0
 14 33  1  1
 15 34  1  0
 15 35  1  0
 16 36  1  6
 17 37  1  0
 17 38  1  0
 18 39  1  1
 19 40  1  0
 19 41  1  0
 21 42  1  0
 22 43  1  0
 22 44  1  0
 23 45  1  0
 23 46  1  0
M  CHG  2  14   1  26  -1
M  END
>  <score>  (1) 
-8.411

$$$$
=
     RDKit          3D

 46 50  0  0  0  0  0  0  0  0999 V2000
    1.6310   61.3800   74.1650 C   0  0  0  0  0  0  0  0  0  0  0  0
    2.0200   61.6000   72.8290 C   0  0  0  0  0  0  0  0  0  0  0  0
    1.6180   62.7300   72.0910 C   0  0  0  0  0  0  0  0  0  0  0  0
    0.8380   63.7010   72.7450 C   0  0  0  0  0  0  0  0  0  0  0  0
    0.4990   63.5570   74.0900 C   0  0  0  0  0  0  0  0  0  0  0  0
    0.9010   62.4210   74.7780 C   0  0  0  0  0  0  0  0  0  0  0  0
    0.5470   62.3270   76.0710 F   0  0  0  0  0  0  0  0  0  0  0  0
    0.3500   64.8900   72.0020 C   0  0  0  0  0  0  0  0  0  0  0  0
   -0.4630   65.6310   72.5400 O   0  0  0  0  0  0  0  0  0  0  0  0
    0.8580   65.0630   70.6350 C   0  0  0  0  0  0  0  0  0  0  0  0
    1.6070   64.0900   70.1000 C   0  0  0  0  0  0  0  0  0  0  0  0
    1.9520   62.9030   70.7180 N   0  0  0  0  0  0  0  0  0  0  0  0
    2.3220   57.7950   72.2050 C   0  0  0  0  0  0  0  0  0  0  0  0
    3.0580   57.8810   73.5010 N   0  0  1  0  0  4  0  0  0  0  0  0
    3.8960   59.1700   73.6620 C   0  0  0  0  0  0  0  0  0  0  0  0
    3.3710   59.7420   75.0010 C   0  0  2  0  0  0  0  0  0  0  0  0
    3.1660   58.4480   75.8030 C   0  0  0  0  0  0  0  0  0  0  0  0
    2.1820   57.8700   74.7910 C   0  0  1  0  0  0  0  0  0  0  0  0
    1.1180   59.0040   74.7470 C   0  0  0  0  0  0  0  0  0  0  0  0
    1.9720   60.2100   74.8290 N   0  0  0  0  0  0  0  0  0  0  0  0
    2.8800   62.0050   70.0070 C   0  0  0  0  0  0  0  0  0  0  0  0
    4.3770   62.1990   70.0580 C   0  0  0  0  0  0  0  0  0  0  0  0
    3.6410   62.4520   68.7820 C   0  0  0  0  0  0  0  0  0  0  0  0
    0.5900   66.2950   69.8080 C   0  0  0  0  0  0  0  0  0  0  0  0
   -0.4290   66.2190   69.0600 O   0  0  0  0  0  0  0  0  0  0  0  0
    1.4650   67.2010   69.8840 O   0  0  0  0  0  1  0  0  0  0  0  0
    2.6665   60.8560   72.3406 H   0  0  0  0  0  0  0  0  0  0  0  0
   -0.0826   64.3380   74.6016 H   0  0  0  0  0  0  0  0  0  0  0  0
    1.9807   64.2499   69.0779 H   0  0  0  0  0  0  0  0  0  0  0  0
    1.2470   57.6694   72.4015 H   0  0  0  0  0  0  0  0  0  0  0  0
    2.4841   58.7182   71.6293 H   0  0  0  0  0  0  0  0  0  0  0  0
    2.6926   56.9340   71.6293 H   0  0  0  0  0  0  0  0  0  0  0  0
    3.6279   57.0259   73.4306 H   0  0  0  0  0  0  0  0  0  0  0  0
    4.9704   58.9415   73.7207 H   0  0  0  0  0  0  0  0  0  0  0  0
    3.7970   59.8673   72.8170 H   0  0  0  0  0  0  0  0  0  0  0  0
    4.0201   60.5326   75.4055 H   0  0  0  0  0  0  0  0  0  0  0  0
    4.0837   57.8508   75.9084 H   0  0  0  0  0  0  0  0  0  0  0  0
    2.8545   58.5248   76.8552 H   0  0  0  0  0  0  0  0  0  0  0  0
    1.7205   56.8860   74.9605 H   0  0  0  0  0  0  0  0  0  0  0  0
    0.5439   58.9807   73.8090 H   0  0  0  0  0  0  0  0  0  0  0  0
    0.3572   58.9374   75.5387 H   0  0  0  0  0  0  0  0  0  0  0  0
    2.1901   61.1812   70.2423 H   0  0  0  0  0  0  0  0  0  0  0  0
    4.8026   63.0416   70.6228 H   0  0  0  0  0  0  0  0  0  0  0  0
    5.2314   61.5704   70.3494 H   0  0  0  0  0  0  0  0  0  0  0  0
    3.5260   63.4805   68.4092 H   0  0  0  0  0  0  0  0  0  0  0  0
    3.7315   62.0860   67.7486 H   0  0  0  0  0  0  0  0  0  0  0  0
  2  1  2  0
  3  2  1  0
  4  3  2  0
  5  4  1  0
  6  5  2  0
  6  1  1  0
  7  6  1  0
  8  4  1  0
  9  8  2  0
 10  8  1  0
 11 10  2  0
 12  3  1  0
 12 11  1  0
 14 13  1  0
 15 14  1  0
 16 15  1  0
 17 16  1  0
 18 17  1  0
 18 14  1  0
 19 18  1  0
 20 19  1  0
 20 16  1  0
 20  1  1  0
 21 12  1  0
 22 21  1  0
 23 22  1  0
 23 21  1  0
 24 10  1  0
 25 24  2  0
 26 24  1  0
  2 27  1  0
  5 28  1  0
 11 29  1  0
 13 30  1  0
 13 31  1  0
 13 32  1  0
 14 33  1  1
 15 34  1  0
 15 35  1  0
 16 36  1  1
 17 37  1  0
 17 38  1  0
 18 39  1  1
 19 40  1  0
 19 41  1  0
 21 42  1  0
 22 43  1  0
 22 44  1  0
 23 45  1  0
 23 46  1  0
M  CHG  2  14   1  26  -1
M  END
>  <score>  (2) 
-8.305

$$$$
=
     RDKit          3D

 46 50  0  0  0  0  0  0  0  0999 V2000
    1.3030   62.0680   71.3700 C   0  0  0  0  0  0  0  0  0  0  0  0
    1.4410   60.8620   72.0840 C   0  0  0  0  0  0  0  0  0  0  0  0
    0.4660   60.3880   72.9820 C   0  0  0  0  0  0  0  0  0  0  0  0
   -0.7180   61.1330   73.1230 C   0  0  0  0  0  0  0  0  0  0  0  0
   -0.9270   62.2910   72.3740 C   0  0  0  0  0  0  0  0  0  0  0  0
    0.0670   62.7350   71.5120 C   0  0  0  0  0  0  0  0  0  0  0  0
   -0.1800   63.8560   70.8150 F   0  0  0  0  0  0  0  0  0  0  0  0
   -1.7610   60.7020   74.0880 C   0  0  0  0  0  0  0  0  0  0  0  0
   -2.7020   61.4530   74.3180 O   0  0  0  0  0  0  0  0  0  0  0  0
   -1.5550   59.4020   74.7390 C   0  0  0  0  0  0  0  0  0  0  0  0
   -0.3990   58.7570   74.5340 C   0  0  0  0  0  0  0  0  0  0  0  0
    0.6510   59.2080   73.7570 N   0  0  0  0  0  0  0  0  0  0  0  0
    5.2250   60.7730   71.6990 C   0  0  0  0  0  0  0  0  0  0  0  0
    4.9040   61.2580   70.3240 N   0  0  1  0  0  4  0  0  0  0  0  0
    3.6330   60.6200   69.7160 C   0  0  0  0  0  0  0  0  0  0  0  0
    2.7910   61.8610   69.3330 C   0  0  2  0  0  0  0  0  0  0  0  0
    3.8920   62.8130   68.8460 C   0  0  0  0  0  0  0  0  0  0  0  0
    4.6320   62.7860   70.1800 C   0  0  1  0  0  0  0  0  0  0  0  0
    3.4990   63.2400   71.1450 C   0  0  0  0  0  0  0  0  0  0  0  0
    2.3260   62.5470   70.5650 N   0  0  0  0  0  0  0  0  0  0  0  0
    1.7970   58.3000   73.5610 C   0  0  0  0  0  0  0  0  0  0  0  0
    1.7990   57.2350   72.4900 C   0  0  0  0  0  0  0  0  0  0  0  0
    1.7280   56.8370   73.9290 C   0  0  0  0  0  0  0  0  0  0  0  0
   -2.5930   58.7480   75.6170 C   0  0  0  0  0  0  0  0  0  0  0  0
   -3.6310   58.3570   75.0060 O   0  0  0  0  0  0  0  0  0  0  0  0
   -2.3480   58.7670   76.8540 O   0  0  0  0  0  1  0  0  0  0  0  0
    2.3515   60.2635   71.9332 H   0  0  0  0  0  0  0  0  0  0  0  0
   -1.8713   62.8478   72.4654 H   0  0  0  0  0  0  0  0  0  0  0  0
   -0.2745   57.7820   75.0279 H   0  0  0  0  0  0  0  0  0  0  0  0
    4.7767   61.4504   72.4407 H   0  0  0  0  0  0  0  0  0  0  0  0
    4.8185   59.7599   71.8347 H   0  0  0  0  0  0  0  0  0  0  0  0
    6.3164   60.7513   71.8347 H   0  0  0  0  0  0  0  0  0  0  0  0
    5.7722   60.9880   69.8400 H   0  0  0  0  0  0  0  0  0  0  0  0
    3.8759   60.0148   68.8302 H   0  0  0  0  0  0  0  0  0  0  0  0
    3.1158   59.9312   70.4002 H   0  0  0  0  0  0  0  0  0  0  0  0
    1.9546   61.6136   68.6627 H   0  0  0  0  0  0  0  0  0  0  0  0
    4.4825   62.4056   68.0121 H   0  0  0  0  0  0  0  0  0  0  0  0
    3.5980   63.7868   68.4273 H   0  0  0  0  0  0  0  0  0  0  0  0
    5.5482   63.3778   70.3227 H   0  0  0  0  0  0  0  0  0  0  0  0
    3.6923   62.9094   72.1762 H   0  0  0  0  0  0  0  0  0  0  0  0
    3.3840   64.3313   71.2216 H   0  0  0  0  0  0  0  0  0  0  0  0
    2.4515   59.1435   73.8260 H   0  0  0  0  0  0  0  0  0  0  0  0
    0.9201   57.1073   71.8410 H   0  0  0  0  0  0  0  0  0  0  0  0
    2.4596   56.9835   71.6471 H   0  0  0  0  0  0  0  0  0  0  0  0
    0.7969   56.4168   74.3371 H   0  0  0  0  0  0  0  0  0  0  0  0
    2.3149   56.1723   74.5799 H   0  0  0  0  0  0  0  0  0  0  0  0
  2  1  2  0
  3  2  1  0
  4  3  2  0
  5  4  1  0
  6  5  2  0
  6  1  1  0
  7  6  1  0
  8  4  1  0
  9  8  2  0
 10  8  1  0
 11 10  2  0
 12  3  1  0
 12 11  1  0
 14 13  1  0
 15 14  1  0
 16 15  1  0
 17 16  1  0
 18 17  1  0
 18 14  1  0
 19 18  1  0
 20 19  1  0
 20 16  1  0
 20  1  1  0
 21 12  1  0
 22 21  1  0
 23 22  1  0
 23 21  1  0
 24 10  1  0
 25 24  2  0
 26 24  1  0
  2 27  1  0
  5 28  1  0
 11 29  1  0
 13 30  1  0
 13 31  1  0
 13 32  1  0
 14 33  1  6
 15 34  1  0
 15 35  1  0
 16 36  1  6
 17 37  1  0
 17 38  1  0
 18 39  1  6
 19 40  1  0
 19 41  1  0
 21 42  1  0
 22 43  1  0
 22 44  1  0
 23 45  1  0
 23 46  1  0
M  CHG  2  14   1  26  -1
M  END
>  <score>  (3) 
-8.047

$$$$
=
     RDKit          3D

 46 50  0  0  0  0  0  0  0  0999 V2000
   -1.6230   60.5390   73.9320 C   0  0  0  0  0  0  0  0  0  0  0  0
   -0.8350   61.4430   73.1930 C   0  0  0  0  0  0  0  0  0  0  0  0
    0.4260   61.1040   72.6650 C   0  0  0  0  0  0  0  0  0  0  0  0
    0.8820   59.7860   72.8440 C   0  0  0  0  0  0  0  0  0  0  0  0
    0.0960   58.8400   73.5010 C   0  0  0  0  0  0  0  0  0  0  0  0
   -1.1340   59.2180   74.0220 C   0  0  0  0  0  0  0  0  0  0  0  0
   -1.8530   58.2720   74.6490 F   0  0  0  0  0  0  0  0  0  0  0  0
    2.2230   59.3870   72.3450 C   0  0  0  0  0  0  0  0  0  0  0  0
    2.6690   58.2900   72.6600 O   0  0  0  0  0  0  0  0  0  0  0  0
    2.9430   60.3780   71.5360 C   0  0  0  0  0  0  0  0  0  0  0  0
    2.4220   61.6050   71.4090 C   0  0  0  0  0  0  0  0  0  0  0  0
    1.2480   62.0480   71.9880 N   0  0  0  0  0  0  0  0  0  0  0  0
   -3.0660   58.9120   77.4600 C   0  0  0  0  0  0  0  0  0  0  0  0
   -3.5540   60.3060   77.2390 N   0  0  1  0  0  4  0  0  0  0  0  0
   -2.4310   61.3230   76.9320 C   0  0  0  0  0  0  0  0  0  0  0  0
   -2.9060   61.9480   75.5980 C   0  0  2  0  0  0  0  0  0  0  0  0
   -4.4210   62.0130   75.8380 C   0  0  0  0  0  0  0  0  0  0  0  0
   -4.5440   60.5080   76.0500 C   0  0  1  0  0  0  0  0  0  0  0  0
   -3.9280   59.9800   74.7230 C   0  0  0  0  0  0  0  0  0  0  0  0
   -2.8190   60.9380   74.5140 N   0  0  0  0  0  0  0  0  0  0  0  0
    0.7810   63.4020   71.6380 C   0  0  0  0  0  0  0  0  0  0  0  0
    0.1580   63.7110   70.2960 C   0  0  0  0  0  0  0  0  0  0  0  0
    1.5070   64.2620   70.6310 C   0  0  0  0  0  0  0  0  0  0  0  0
    4.2370   60.0730   70.8220 C   0  0  0  0  0  0  0  0  0  0  0  0
    4.1020   59.4620   69.7210 O   0  0  0  0  0  0  0  0  0  0  0  0
    5.2880   60.3670   71.4540 O   0  0  0  0  0  1  0  0  0  0  0  0
   -1.2215   62.4584   73.0207 H   0  0  0  0  0  0  0  0  0  0  0  0
    0.4476   57.8030   73.6056 H   0  0  0  0  0  0  0  0  0  0  0  0
    2.9776   62.3239   70.7890 H   0  0  0  0  0  0  0  0  0  0  0  0
   -2.9969   58.7146   78.5399 H   0  0  0  0  0  0  0  0  0  0  0  0
   -3.7685   58.2006   77.0014 H   0  0  0  0  0  0  0  0  0  0  0  0
   -2.0731   58.7941   77.0014 H   0  0  0  0  0  0  0  0  0  0  0  0
   -4.0199   60.4685   78.1431 H   0  0  0  0  0  0  0  0  0  0  0  0
   -2.3552   62.0834   77.7233 H   0  0  0  0  0  0  0  0  0  0  0  0
   -1.4305   60.8695   76.8738 H   0  0  0  0  0  0  0  0  0  0  0  0
   -2.3579   62.8673   75.3441 H   0  0  0  0  0  0  0  0  0  0  0  0
   -4.6965   62.6018   76.7254 H   0  0  0  0  0  0  0  0  0  0  0  0
   -5.0543   62.4902   75.0756 H   0  0  0  0  0  0  0  0  0  0  0  0
   -5.5238   60.0512   76.2530 H   0  0  0  0  0  0  0  0  0  0  0  0
   -3.5552   58.9510   74.8339 H   0  0  0  0  0  0  0  0  0  0  0  0
   -4.6402   59.9273   73.8864 H   0  0  0  0  0  0  0  0  0  0  0  0
    0.4739   63.5171   72.6880 H   0  0  0  0  0  0  0  0  0  0  0  0
    0.0610   62.9180   69.5399 H   0  0  0  0  0  0  0  0  0  0  0  0
   -0.7972   64.1448   69.9653 H   0  0  0  0  0  0  0  0  0  0  0  0
    2.4007   63.8738   70.1206 H   0  0  0  0  0  0  0  0  0  0  0  0
    1.9516   65.2680   70.6476 H   0  0  0  0  0  0  0  0  0  0  0  0
  2  1  2  0
  3  2  1  0
  4  3  2  0
  5  4  1  0
  6  5  2  0
  6  1  1  0
  7  6  1  0
  8  4  1  0
  9  8  2  0
 10  8  1  0
 11 10  2  0
 12  3  1  0
 12 11  1  0
 14 13  1  0
 15 14  1  0
 16 15  1  0
 17 16  1  0
 18 17  1  0
 18 14  1  0
 19 18  1  0
 20 19  1  0
 20 16  1  0
 20  1  1  0
 21 12  1  0
 22 21  1  0
 23 22  1  0
 23 21  1  0
 24 10  1  0
 25 24  2  0
 26 24  1  0
  2 27  1  0
  5 28  1  0
 11 29  1  0
 13 30  1  0
 13 31  1  0
 13 32  1  0
 14 33  1  1
 15 34  1  0
 15 35  1  0
 16 36  1  6
 17 37  1  0
 17 38  1  0
 18 39  1  1
 19 40  1  0
 19 41  1  0
 21 42  1  0
 22 43  1  0
 22 44  1  0
 23 45  1  0
 23 46  1  0
M  CHG  2  14   1  26  -1
M  END
>  <score>  (4) 
-7.428

$$$$
=
     RDKit          3D

 46 50  0  0  0  0  0  0  0  0999 V2000
   -0.2040   62.6410   74.2680 C   0  0  0  0  0  0  0  0  0  0  0  0
    0.2770   61.3330   74.0630 C   0  0  0  0  0  0  0  0  0  0  0  0
    1.1980   61.0070   73.0490 C   0  0  0  0  0  0  0  0  0  0  0  0
    1.6940   62.0510   72.2480 C   0  0  0  0  0  0  0  0  0  0  0  0
    1.3020   63.3700   72.4710 C   0  0  0  0  0  0  0  0  0  0  0  0
    0.3780   63.6490   73.4690 C   0  0  0  0  0  0  0  0  0  0  0  0
    0.0300   64.9350   73.6440 F   0  0  0  0  0  0  0  0  0  0  0  0
    2.6340   61.7570   71.1360 C   0  0  0  0  0  0  0  0  0  0  0  0
    2.9170   62.6510   70.3490 O   0  0  0  0  0  0  0  0  0  0  0  0
    3.1240   60.3760   71.0410 C   0  0  0  0  0  0  0  0  0  0  0  0
    2.6030   59.4510   71.8580 C   0  0  0  0  0  0  0  0  0  0  0  0
    1.6170   59.6690   72.8010 N   0  0  0  0  0  0  0  0  0  0  0  0
   -0.6000   60.4540   77.7660 C   0  0  0  0  0  0  0  0  0  0  0  0
   -1.1180   61.8480   77.9090 N   0  0  1  0  0  4  0  0  0  0  0  0
   -0.1180   62.9370   77.4570 C   0  0  0  0  0  0  0  0  0  0  0  0
   -0.9470   63.7390   76.4250 C   0  0  2  0  0  0  0  0  0  0  0  0
   -2.3310   63.7150   77.0890 C   0  0  0  0  0  0  0  0  0  0  0  0
   -2.4020   62.1910   77.0930 C   0  0  1  0  0  0  0  0  0  0  0  0
   -2.1940   61.8900   75.5810 C   0  0  0  0  0  0  0  0  0  0  0  0
   -1.1810   62.9070   75.2180 N   0  0  0  0  0  0  0  0  0  0  0  0
    1.2550   58.5460   73.6850 C   0  0  0  0  0  0  0  0  0  0  0  0
    2.2700   57.8730   74.5780 C   0  0  0  0  0  0  0  0  0  0  0  0
    1.7100   57.1330   73.4070 C   0  0  0  0  0  0  0  0  0  0  0  0
    4.2020   59.9520   70.0750 C   0  0  0  0  0  0  0  0  0  0  0  0
    3.8350   59.1010   69.2120 O   0  0  0  0  0  0  0  0  0  0  0  0
    5.3530   60.4130   70.3090 O   0  0  0  0  0  1  0  0  0  0  0  0
   -0.0827   60.5309   74.7242 H   0  0  0  0  0  0  0  0  0  0  0  0
    1.7215   64.1835   71.8610 H   0  0  0  0  0  0  0  0  0  0  0  0
    2.9950   58.4270   71.7703 H   0  0  0  0  0  0  0  0  0  0  0  0
   -0.4383   60.0188   78.7632 H   0  0  0  0  0  0  0  0  0  0  0  0
   -1.3321   59.8456   77.2147 H   0  0  0  0  0  0  0  0  0  0  0  0
    0.3517   60.4712   77.2147 H   0  0  0  0  0  0  0  0  0  0  0  0
   -1.3071   61.8577   78.9214 H   0  0  0  0  0  0  0  0  0  0  0  0
    0.1882   63.5717   78.3016 H   0  0  0  0  0  0  0  0  0  0  0  0
    0.8197   62.5316   77.0490 H   0  0  0  0  0  0  0  0  0  0  0  0
   -0.4850   64.7048   76.1724 H   0  0  0  0  0  0  0  0  0  0  0  0
   -2.3381   64.1541   78.0975 H   0  0  0  0  0  0  0  0  0  0  0  0
   -3.1502   64.2789   76.6189 H   0  0  0  0  0  0  0  0  0  0  0  0
   -3.2877   61.6743   77.4913 H   0  0  0  0  0  0  0  0  0  0  0  0
   -1.8148   60.8697   75.4222 H   0  0  0  0  0  0  0  0  0  0  0  0
   -3.1151   61.9385   74.9817 H   0  0  0  0  0  0  0  0  0  0  0  0
    0.2840   59.0396   73.8382 H   0  0  0  0  0  0  0  0  0  0  0  0
    3.3181   58.2066   74.5665 H   0  0  0  0  0  0  0  0  0  0  0  0
    2.3433   57.6754   75.6576 H   0  0  0  0  0  0  0  0  0  0  0  0
    2.3466   56.9227   72.5349 H   0  0  0  0  0  0  0  0  0  0  0  0
    1.2018   56.1670   73.2707 H   0  0  0  0  0  0  0  0  0  0  0  0
  2  1  2  0
  3  2  1  0
  4  3  2  0
  5  4  1  0
  6  5  2  0
  6  1  1  0
  7  6  1  0
  8  4  1  0
  9  8  2  0
 10  8  1  0
 11 10  2  0
 12  3  1  0
 12 11  1  0
 14 13  1  0
 15 14  1  0
 16 15  1  0
 17 16  1  0
 18 17  1  0
 18 14  1  0
 19 18  1  0
 20 19  1  0
 20 16  1  0
 20  1  1  0
 21 12  1  0
 22 21  1  0
 23 22  1  0
 23 21  1  0
 24 10  1  0
 25 24  2  0
 26 24  1  0
  2 27  1  0
  5 28  1  0
 11 29  1  0
 13 30  1  0
 13 31  1  0
 13 32  1  0
 14 33  1  1
 15 34  1  0
 15 35  1  0
 16 36  1  6
 17 37  1  0
 17 38  1  0
 18 39  1  1
 19 40  1  0
 19 41  1  0
 21 42  1  0
 22 43  1  0
 22 44  1  0
 23 45  1  0
 23 46  1  0
M  CHG  2  14   1  26  -1
M  END
>  <score>  (5) 
-7.118

$$$$
=
     RDKit          3D

 46 50  0  0  0  0  0  0  0  0999 V2000
    2.4260   59.0080   72.1610 C   0  0  0  0  0  0  0  0  0  0  0  0
    1.5180   59.7210   72.9670 C   0  0  0  0  0  0  0  0  0  0  0  0
    0.4620   59.1020   73.6620 C   0  0  0  0  0  0  0  0  0  0  0  0
    0.3520   57.7020   73.5840 C   0  0  0  0  0  0  0  0  0  0  0  0
    1.2790   56.9530   72.8600 C   0  0  0  0  0  0  0  0  0  0  0  0
    2.2960   57.6020   72.1740 C   0  0  0  0  0  0  0  0  0  0  0  0
    3.1630   56.8370   71.4890 F   0  0  0  0  0  0  0  0  0  0  0  0
   -0.7680   57.0020   74.2620 C   0  0  0  0  0  0  0  0  0  0  0  0
   -0.9410   55.8090   74.0410 O   0  0  0  0  0  0  0  0  0  0  0  0
   -1.6260   57.8220   75.1270 C   0  0  0  0  0  0  0  0  0  0  0  0
   -1.4370   59.1480   75.1480 C   0  0  0  0  0  0  0  0  0  0  0  0
   -0.4970   59.8420   74.4110 N   0  0  0  0  0  0  0  0  0  0  0  0
    2.4550   63.1160   71.6210 C   0  0  0  0  0  0  0  0  0  0  0  0
    3.8230   62.5240   71.5230 N   0  0  1  0  0  4  0  0  0  0  0  0
    4.1990   61.6180   72.7180 C   0  0  0  0  0  0  0  0  0  0  0  0
    4.6000   60.2970   72.0170 C   0  0  2  0  0  0  0  0  0  0  0  0
    5.3150   60.8400   70.7720 C   0  0  0  0  0  0  0  0  0  0  0  0
    4.0880   61.6070   70.2900 C   0  0  1  0  0  0  0  0  0  0  0  0
    3.0410   60.4580   70.2200 C   0  0  0  0  0  0  0  0  0  0  0  0
    3.3970   59.6650   71.4180 N   0  0  0  0  0  0  0  0  0  0  0  0
   -0.3680   61.2900   74.6560 C   0  0  0  0  0  0  0  0  0  0  0  0
    0.3900   61.8340   75.8450 C   0  0  0  0  0  0  0  0  0  0  0  0
   -1.0970   61.9760   75.7860 C   0  0  0  0  0  0  0  0  0  0  0  0
   -2.7010   57.2380   76.0090 C   0  0  0  0  0  0  0  0  0  0  0  0
   -2.2810   56.7410   77.0960 O   0  0  0  0  0  0  0  0  0  0  0  0
   -3.8610   57.2220   75.5140 O   0  0  0  0  0  1  0  0  0  0  0  0
    1.6393   60.8105   73.0576 H   0  0  0  0  0  0  0  0  0  0  0  0
    1.2047   55.8558   72.8328 H   0  0  0  0  0  0  0  0  0  0  0  0
   -2.0882   59.7366   75.8110 H   0  0  0  0  0  0  0  0  0  0  0  0
    2.1817   63.2343   72.6799 H   0  0  0  0  0  0  0  0  0  0  0  0
    2.4447   64.0991   71.1276 H   0  0  0  0  0  0  0  0  0  0  0  0
    1.7313   62.4505   71.1276 H   0  0  0  0  0  0  0  0  0  0  0  0
    4.3813   63.3879   71.4699 H   0  0  0  0  0  0  0  0  0  0  0  0
    5.0411   62.0385   73.2872 H   0  0  0  0  0  0  0  0  0  0  0  0
    3.3888   61.4987   73.4524 H   0  0  0  0  0  0  0  0  0  0  0  0
    5.1322   59.6076   72.6890 H   0  0  0  0  0  0  0  0  0  0  0  0
    6.1696   61.4905   71.0096 H   0  0  0  0  0  0  0  0  0  0  0  0
    5.7915   60.1249   70.0853 H   0  0  0  0  0  0  0  0  0  0  0  0
    4.1218   62.1831   69.3535 H   0  0  0  0  0  0  0  0  0  0  0  0
    2.0135   60.8455   70.2847 H   0  0  0  0  0  0  0  0  0  0  0  0
    3.0623   59.8869   69.2801 H   0  0  0  0  0  0  0  0  0  0  0  0
   -0.3131   61.4237   73.5655 H   0  0  0  0  0  0  0  0  0  0  0  0
    0.8474   61.1425   76.5679 H   0  0  0  0  0  0  0  0  0  0  0  0
    1.2315   62.5300   75.9766 H   0  0  0  0  0  0  0  0  0  0  0  0
   -1.7319   61.3891   76.4660 H   0  0  0  0  0  0  0  0  0  0  0  0
   -1.7988   62.8201   75.8568 H   0  0  0  0  0  0  0  0  0  0  0  0
  2  1  2  0
  3  2  1  0
  4  3  2  0
  5  4  1  0
  6  5  2  0
  6  1  1  0
  7  6  1  0
  8  4  1  0
  9  8  2  0
 10  8  1  0
 11 10  2  0
 12  3  1  0
 12 11  1  0
 14 13  1  0
 15 14  1  0
 16 15  1  0
 17 16  1  0
 18 17  1  0
 18 14  1  0
 19 18  1  0
 20 19  1  0
 20 16  1  0
 20  1  1  0
 21 12  1  0
 22 21  1  0
 23 22  1  0
 23 21  1  0
 24 10  1  0
 25 24  2  0
 26 24  1  0
  2 27  1  0
  5 28  1  0
 11 29  1  0
 13 30  1  0
 13 31  1  0
 13 32  1  0
 14 33  1  6
 15 34  1  0
 15 35  1  0
 16 36  1  1
 17 37  1  0
 17 38  1  0
 18 39  1  6
 19 40  1  0
 19 41  1  0
 21 42  1  0
 22 43  1  0
 22 44  1  0
 23 45  1  0
 23 46  1  0
M  CHG  2  14   1  26  -1
M  END
>  <score>  (6) 
-6.996

$$$$
=
     RDKit          3D

 46 50  0  0  0  0  0  0  0  0999 V2000
    0.2260   57.3030   74.4540 C   0  0  0  0  0  0  0  0  0  0  0  0
    0.3370   58.6620   74.1010 C   0  0  0  0  0  0  0  0  0  0  0  0
    1.2310   59.1260   73.1170 C   0  0  0  0  0  0  0  0  0  0  0  0
    2.0030   58.1740   72.4260 C   0  0  0  0  0  0  0  0  0  0  0  0
    1.8640   56.8120   72.6920 C   0  0  0  0  0  0  0  0  0  0  0  0
    0.9840   56.3970   73.6820 C   0  0  0  0  0  0  0  0  0  0  0  0
    0.8870   55.0750   73.9040 F   0  0  0  0  0  0  0  0  0  0  0  0
    2.9930   58.6120   71.4090 C   0  0  0  0  0  0  0  0  0  0  0  0
    3.7690   57.7860   70.9450 O   0  0  0  0  0  0  0  0  0  0  0  0
    2.9920   60.0390   71.0660 C   0  0  0  0  0  0  0  0  0  0  0  0
    2.2120   60.8690   71.7700 C   0  0  0  0  0  0  0  0  0  0  0  0
    1.3910   60.5090   72.8230 N   0  0  0  0  0  0  0  0  0  0  0  0
   -1.8820   59.9630   76.8310 C   0  0  0  0  0  0  0  0  0  0  0  0
   -2.5440   58.6270   76.7560 N   0  0  1  0  0  4  0  0  0  0  0  0
   -2.7530   58.1120   75.3130 C   0  0  0  0  0  0  0  0  0  0  0  0
   -2.0680   56.7240   75.3540 C   0  0  2  0  0  0  0  0  0  0  0  0
   -2.4590   56.2560   76.7640 C   0  0  0  0  0  0  0  0  0  0  0  0
   -1.7900   57.4470   77.4430 C   0  0  1  0  0  0  0  0  0  0  0  0
   -0.3420   57.3180   76.8880 C   0  0  0  0  0  0  0  0  0  0  0  0
   -0.6000   56.8960   75.4930 N   0  0  0  0  0  0  0  0  0  0  0  0
    0.5210   61.5510   73.3990 C   0  0  0  0  0  0  0  0  0  0  0  0
   -0.8350   61.8720   72.8160 C   0  0  0  0  0  0  0  0  0  0  0  0
    0.2760   62.8650   72.6980 C   0  0  0  0  0  0  0  0  0  0  0  0
    3.8180   60.6150   69.9420 C   0  0  0  0  0  0  0  0  0  0  0  0
    5.0690   60.4770   70.0810 O   0  0  0  0  0  0  0  0  0  0  0  0
    3.1720   61.2490   69.0640 O   0  0  0  0  0  1  0  0  0  0  0  0
   -0.3029   59.3931   74.6167 H   0  0  0  0  0  0  0  0  0  0  0  0
    2.4466   56.0731   72.1223 H   0  0  0  0  0  0  0  0  0  0  0  0
    2.2255   61.9315   71.4855 H   0  0  0  0  0  0  0  0  0  0  0  0
   -1.7425   60.2444   77.8852 H   0  0  0  0  0  0  0  0  0  0  0  0
   -0.9031   59.9157   76.3315 H   0  0  0  0  0  0  0  0  0  0  0  0
   -2.5126   60.7132   76.3315 H   0  0  0  0  0  0  0  0  0  0  0  0
   -3.4231   58.8432   77.2473 H   0  0  0  0  0  0  0  0  0  0  0  0
   -3.8228   58.0211   75.0738 H   0  0  0  0  0  0  0  0  0  0  0  0
   -2.3432   58.7822   74.5430 H   0  0  0  0  0  0  0  0  0  0  0  0
   -2.3254   56.1000   74.4855 H   0  0  0  0  0  0  0  0  0  0  0  0
   -3.5466   56.2176   76.9243 H   0  0  0  0  0  0  0  0  0  0  0  0
   -2.1735   55.2417   77.0798 H   0  0  0  0  0  0  0  0  0  0  0  0
   -1.7976   57.5415   78.5389 H   0  0  0  0  0  0  0  0  0  0  0  0
    0.1903   58.2799   76.9254 H   0  0  0  0  0  0  0  0  0  0  0  0
    0.2972   56.6260   77.4561 H   0  0  0  0  0  0  0  0  0  0  0  0
    0.8958   61.2508   74.3886 H   0  0  0  0  0  0  0  0  0  0  0  0
   -1.1898   61.3362   71.9232 H   0  0  0  0  0  0  0  0  0  0  0  0
   -1.8620   61.8995   73.2090 H   0  0  0  0  0  0  0  0  0  0  0  0
    0.7372   63.0589   71.7184 H   0  0  0  0  0  0  0  0  0  0  0  0
    0.4020   63.9237   72.9686 H   0  0  0  0  0  0  0  0  0  0  0  0
  2  1  2  0
  3  2  1  0
  4  3  2  0
  5  4  1  0
  6  5  2  0
  6  1  1  0
  7  6  1  0
  8  4  1  0
  9  8  2  0
 10  8  1  0
 11 10  2  0
 12  3  1  0
 12 11  1  0
 14 13  1  0
 15 14  1  0
 16 15  1  0
 17 16  1  0
 18 17  1  0
 18 14  1  0
 19 18  1  0
 20 19  1  0
 20 16  1  0
 20  1  1  0
 21 12  1  0
 22 21  1  0
 23 22  1  0
 23 21  1  0
 24 10  1  0
 25 24  2  0
 26 24  1  0
  2 27  1  0
  5 28  1  0
 11 29  1  0
 13 30  1  0
 13 31  1  0
 13 32  1  0
 14 33  1  1
 15 34  1  0
 15 35  1  0
 16 36  1  6
 17 37  1  0
 17 38  1  0
 18 39  1  1
 19 40  1  0
 19 41  1  0
 21 42  1  0
 22 43  1  0
 22 44  1  0
 23 45  1  0
 23 46  1  0
M  CHG  2  14   1  26  -1
M  END
>  <score>  (7) 
-6.949

$$$$
=
     RDKit          3D

 46 50  0  0  0  0  0  0  0  0999 V2000
   -0.0350   61.9260   74.5170 C   0  0  0  0  0  0  0  0  0  0  0  0
    0.7440   61.0950   73.6890 C   0  0  0  0  0  0  0  0  0  0  0  0
    1.4430   61.5740   72.5650 C   0  0  0  0  0  0  0  0  0  0  0  0
    1.3970   62.9540   72.2990 C   0  0  0  0  0  0  0  0  0  0  0  0
    0.7000   63.8210   73.1400 C   0  0  0  0  0  0  0  0  0  0  0  0
    0.0090   63.3070   74.2300 C   0  0  0  0  0  0  0  0  0  0  0  0
   -0.6480   64.1810   75.0090 F   0  0  0  0  0  0  0  0  0  0  0  0
    2.0790   63.5070   71.1020 C   0  0  0  0  0  0  0  0  0  0  0  0
    1.8850   64.6770   70.7970 O   0  0  0  0  0  0  0  0  0  0  0  0
    2.9160   62.5750   70.3360 C   0  0  0  0  0  0  0  0  0  0  0  0
    2.9080   61.2780   70.6720 C   0  0  0  0  0  0  0  0  0  0  0  0
    2.1640   60.7130   71.6900 N   0  0  0  0  0  0  0  0  0  0  0  0
    0.9240   58.3650   76.4080 C   0  0  0  0  0  0  0  0  0  0  0  0
    0.1660   59.2920   77.3010 N   0  0  1  0  0  4  0  0  0  0  0  0
    0.7630   60.7170   77.3750 C   0  0  0  0  0  0  0  0  0  0  0  0
   -0.4480   61.6030   76.9940 C   0  0  2  0  0  0  0  0  0  0  0  0
   -1.5870   60.8430   77.6880 C   0  0  0  0  0  0  0  0  0  0  0  0
   -1.3220   59.5560   76.9140 C   0  0  1  0  0  0  0  0  0  0  0  0
   -1.4300   60.0730   75.4510 C   0  0  0  0  0  0  0  0  0  0  0  0
   -0.7830   61.4000   75.5620 N   0  0  0  0  0  0  0  0  0  0  0  0
    2.3770   59.2830   71.9800 C   0  0  0  0  0  0  0  0  0  0  0  0
    3.4780   58.8100   72.9010 C   0  0  0  0  0  0  0  0  0  0  0  0
    3.5650   58.5260   71.4360 C   0  0  0  0  0  0  0  0  0  0  0  0
    3.8010   63.0120   69.1950 C   0  0  0  0  0  0  0  0  0  0  0  0
    3.3140   62.8140   68.0420 O   0  0  0  0  0  0  0  0  0  0  0  0
    4.9490   63.4190   69.5230 O   0  0  0  0  0  1  0  0  0  0  0  0
    0.8092   60.0240   73.9313 H   0  0  0  0  0  0  0  0  0  0  0  0
    0.6974   64.9030   72.9419 H   0  0  0  0  0  0  0  0  0  0  0  0
    3.5500   60.6039   70.0860 H   0  0  0  0  0  0  0  0  0  0  0  0
    1.5025   57.6575   77.0202 H   0  0  0  0  0  0  0  0  0  0  0  0
    0.2185   57.8089   75.7731 H   0  0  0  0  0  0  0  0  0  0  0  0
    1.6091   58.9460   75.7731 H   0  0  0  0  0  0  0  0  0  0  0  0
    0.2331   58.7705   78.1867 H   0  0  0  0  0  0  0  0  0  0  0  0
    1.1210   60.9466   78.3895 H   0  0  0  0  0  0  0  0  0  0  0  0
    1.6372   60.8624   76.7233 H   0  0  0  0  0  0  0  0  0  0  0  0
   -0.2845   62.6651   77.2290 H   0  0  0  0  0  0  0  0  0  0  0  0
   -1.4417   60.7364   78.7731 H   0  0  0  0  0  0  0  0  0  0  0  0
   -2.5989   61.2735   77.6621 H   0  0  0  0  0  0  0  0  0  0  0  0
   -1.9492   58.6672   77.0772 H   0  0  0  0  0  0  0  0  0  0  0  0
   -0.8886   59.4186   74.7520 H   0  0  0  0  0  0  0  0  0  0  0  0
   -2.4576   60.1049   75.0599 H   0  0  0  0  0  0  0  0  0  0  0  0
    1.2848   59.1591   71.9382 H   0  0  0  0  0  0  0  0  0  0  0  0
    4.1610   59.5397   73.3604 H   0  0  0  0  0  0  0  0  0  0  0  0
    3.5165   58.1974   73.8138 H   0  0  0  0  0  0  0  0  0  0  0  0
    4.3123   59.0469   70.8193 H   0  0  0  0  0  0  0  0  0  0  0  0
    3.6941   57.6182   70.8284 H   0  0  0  0  0  0  0  0  0  0  0  0
  2  1  2  0
  3  2  1  0
  4  3  2  0
  5  4  1  0
  6  5  2  0
  6  1  1  0
  7  6  1  0
  8  4  1  0
  9  8  2  0
 10  8  1  0
 11 10  2  0
 12  3  1  0
 12 11  1  0
 14 13  1  0
 15 14  1  0
 16 15  1  0
 17 16  1  0
 18 17  1  0
 18 14  1  0
 19 18  1  0
 20 19  1  0
 20 16  1  0
 20  1  1  0
 21 12  1  0
 22 21  1  0
 23 22  1  0
 23 21  1  0
 24 10  1  0
 25 24  2  0
 26 24  1  0
  2 27  1  0
  5 28  1  0
 11 29  1  0
 13 30  1  0
 13 31  1  0
 13 32  1  0
 14 33  1  1
 15 34  1  0
 15 35  1  0
 16 36  1  1
 17 37  1  0
 17 38  1  0
 18 39  1  1
 19 40  1  0
 19 41  1  0
 21 42  1  0
 22 43  1  0
 22 44  1  0
 23 45  1  0
 23 46  1  0
M  CHG  2  14   1  26  -1
M  END
>  <score>  (8) 
-6.851

$$$$
=
     RDKit          3D

 46 50  0  0  0  0  0  0  0  0999 V2000
    1.0480   58.4240   74.5490 C   0  0  0  0  0  0  0  0  0  0  0  0
    1.0550   59.8210   74.7230 C   0  0  0  0  0  0  0  0  0  0  0  0
    1.5310   60.7120   73.7410 C   0  0  0  0  0  0  0  0  0  0  0  0
    1.9650   60.1740   72.5170 C   0  0  0  0  0  0  0  0  0  0  0  0
    1.9000   58.8020   72.2770 C   0  0  0  0  0  0  0  0  0  0  0  0
    1.4410   57.9550   73.2770 C   0  0  0  0  0  0  0  0  0  0  0  0
    1.3990   56.6410   72.9990 F   0  0  0  0  0  0  0  0  0  0  0  0
    2.5170   61.0640   71.4640 C   0  0  0  0  0  0  0  0  0  0  0  0
    3.0430   60.5590   70.4800 O   0  0  0  0  0  0  0  0  0  0  0  0
    2.4250   62.5080   71.7120 C   0  0  0  0  0  0  0  0  0  0  0  0
    1.9850   62.9280   72.9050 C   0  0  0  0  0  0  0  0  0  0  0  0
    1.6060   62.1170   73.9580 N   0  0  0  0  0  0  0  0  0  0  0  0
   -2.1220   59.2600   77.0830 C   0  0  0  0  0  0  0  0  0  0  0  0
   -1.8800   57.7920   76.9470 N   0  0  1  0  0  4  0  0  0  0  0  0
   -1.8050   57.3030   75.4820 C   0  0  0  0  0  0  0  0  0  0  0  0
   -0.4370   56.5800   75.4440 C   0  0  2  0  0  0  0  0  0  0  0  0
   -0.4240   55.9230   76.8320 C   0  0  0  0  0  0  0  0  0  0  0  0
   -0.5520   57.2550   77.5640 C   0  0  1  0  0  0  0  0  0  0  0  0
    0.6750   58.0180   76.9870 C   0  0  0  0  0  0  0  0  0  0  0  0
    0.6570   57.5740   75.5750 N   0  0  0  0  0  0  0  0  0  0  0  0
    1.0400   62.7680   75.1540 C   0  0  0  0  0  0  0  0  0  0  0  0
   -0.4220   63.1390   75.2460 C   0  0  0  0  0  0  0  0  0  0  0  0
    0.6100   64.2160   75.1470 C   0  0  0  0  0  0  0  0  0  0  0  0
    2.7890   63.5440   70.6780 C   0  0  0  0  0  0  0  0  0  0  0  0
    1.8350   63.8910   69.9200 O   0  0  0  0  0  0  0  0  0  0  0  0
    4.0100   63.8560   70.6280 O   0  0  0  0  0  1  0  0  0  0  0  0
    0.6719   60.2351   75.6673 H   0  0  0  0  0  0  0  0  0  0  0  0
    2.2098   58.3940   71.3036 H   0  0  0  0  0  0  0  0  0  0  0  0
    1.9194   64.0149   73.0607 H   0  0  0  0  0  0  0  0  0  0  0  0
   -2.1660   59.5271   78.1492 H   0  0  0  0  0  0  0  0  0  0  0  0
   -1.3029   59.8129   76.6000 H   0  0  0  0  0  0  0  0  0  0  0  0
   -3.0753   59.5208   76.6000 H   0  0  0  0  0  0  0  0  0  0  0  0
   -2.6993   57.4345   77.4586 H   0  0  0  0  0  0  0  0  0  0  0  0
   -2.6279   56.6106   75.2507 H   0  0  0  0  0  0  0  0  0  0  0  0
   -1.8956   58.1125   74.7427 H   0  0  0  0  0  0  0  0  0  0  0  0
   -0.3152   55.9546   74.5474 H   0  0  0  0  0  0  0  0  0  0  0  0
   -1.2761   55.2486   77.0026 H   0  0  0  0  0  0  0  0  0  0  0  0
    0.4133   55.2585   77.0916 H   0  0  0  0  0  0  0  0  0  0  0  0
   -0.5706   57.2890   78.6633 H   0  0  0  0  0  0  0  0  0  0  0  0
    0.5459   59.1074   77.0679 H   0  0  0  0  0  0  0  0  0  0  0  0
    1.6199   57.8122   77.5112 H   0  0  0  0  0  0  0  0  0  0  0  0
    1.7320   62.1602   75.7555 H   0  0  0  0  0  0  0  0  0  0  0  0
   -1.0930   62.9418   74.3970 H   0  0  0  0  0  0  0  0  0  0  0  0
   -1.2383   62.9087   75.9464 H   0  0  0  0  0  0  0  0  0  0  0  0
    0.6969   64.8100   74.2253 H   0  0  0  0  0  0  0  0  0  0  0  0
    0.8646   65.1036   75.7448 H   0  0  0  0  0  0  0  0  0  0  0  0
  2  1  2  0
  3  2  1  0
  4  3  2  0
  5  4  1  0
  6  5  2  0
  6  1  1  0
  7  6  1  0
  8  4  1  0
  9  8  2  0
 10  8  1  0
 11 10  2  0
 12  3  1  0
 12 11  1  0
 14 13  1  0
 15 14  1  0
 16 15  1  0
 17 16  1  0
 18 17  1  0
 18 14  1  0
 19 18  1  0
 20 19  1  0
 20 16  1  0
 20  1  1  0
 21 12  1  0
 22 21  1  0
 23 22  1  0
 23 21  1  0
 24 10  1  0
 25 24  2  0
 26 24  1  0
  2 27  1  0
  5 28  1  0
 11 29  1  0
 13 30  1  0
 13 31  1  0
 13 32  1  0
 14 33  1  1
 15 34  1  0
 15 35  1  0
 16 36  1  6
 17 37  1  0
 17 38  1  0
 18 39  1  1
 19 40  1  0
 19 41  1  0
 21 42  1  0
 22 43  1  0
 22 44  1  0
 23 45  1  0
 23 46  1  0
M  CHG  2  14   1  26  -1
M  END
>  <score>  (9) 
-6.545

$$$$
