=
     RDKit          3D

 80 85  0  0  0  0  0  0  0  0999 V2000
   -1.7320   68.4310   66.5920 C   0  0  0  0  0  0  0  0  0  0  0  0
   -1.8260   67.4420   67.7250 C   0  0  0  0  0  0  0  0  0  0  0  0
   -2.9200   66.9630   68.0250 O   0  0  0  0  0  0  0  0  0  0  0  0
   -0.6500   67.0990   68.3890 N   0  0  0  0  0  0  0  0  0  0  0  0
    0.6660   67.6790   68.1080 C   0  0  0  0  0  0  0  0  0  0  0  0
    1.6220   66.7870   67.3020 C   0  0  0  0  0  0  0  0  0  0  0  0
    1.5450   66.9640   65.7850 C   0  0  0  0  0  0  0  0  0  0  0  0
    1.4070   68.7200   65.3030 S   0  0  0  0  0  0  0  0  0  0  0  0
    3.1620   69.0770   65.0790 C   0  0  0  0  0  0  0  0  0  0  0  0
    3.7720   68.8700   63.8320 C   0  0  0  0  0  0  0  0  0  0  0  0
    3.1260   68.2410   62.6230 C   0  0  0  0  0  0  0  0  0  0  0  0
    3.4810   68.9980   61.3370 C   0  0  0  0  0  0  0  0  0  0  0  0
    4.9480   69.4330   61.2350 C   0  0  0  0  0  0  0  0  0  0  0  0
    5.8150   68.9590   62.3980 C   0  0  0  0  0  0  0  0  0  0  0  0
    5.1200   69.2110   63.7120 C   0  0  0  0  0  0  0  0  0  0  0  0
    5.8570   69.7340   64.7130 N   0  0  0  0  0  0  0  0  0  0  0  0
    5.2790   69.9110   65.9080 C   0  0  0  0  0  0  0  0  0  0  0  0
    3.9310   69.5880   66.1670 C   0  0  0  0  0  0  0  0  0  0  0  0
    3.4420   69.7890   67.4860 C   0  0  0  0  0  0  0  0  0  0  0  0
    4.2470   70.3130   68.4960 C   0  0  0  0  0  0  0  0  0  0  0  0
    5.5630   70.6420   68.2150 C   0  0  0  0  0  0  0  0  0  0  0  0
    6.0630   70.4320   66.9290 C   0  0  0  0  0  0  0  0  0  0  0  0
   -0.7420   66.0850   69.4450 C   0  0  0  0  0  0  0  0  0  0  0  0
    0.4120   66.1170   70.4530 C   0  0  0  0  0  0  0  0  0  0  0  0
    0.4860   64.8560   71.3080 C   0  0  0  0  0  0  0  0  0  0  0  0
    0.5020   63.6300   70.4880 N   0  0  0  0  0  0  0  0  0  0  0  0
    1.1180   62.5180   71.1280 C   0  0  0  0  0  0  0  0  0  0  0  0
    2.4500   62.2170   70.8160 C   0  0  0  0  0  0  0  0  0  0  0  0
    3.3120   63.0330   69.8890 C   0  0  0  0  0  0  0  0  0  0  0  0
    4.7200   63.2160   70.4640 C   0  0  0  0  0  0  0  0  0  0  0  0
    5.3380   61.9450   71.0650 C   0  0  0  0  0  0  0  0  0  0  0  0
    4.4300   60.7190   71.0080 C   0  0  0  0  0  0  0  0  0  0  0  0
    3.0170   61.0770   71.3840 C   0  0  0  0  0  0  0  0  0  0  0  0
    2.3630   60.2570   72.2330 N   0  0  0  0  0  0  0  0  0  0  0  0
    1.1010   60.5630   72.5640 C   0  0  0  0  0  0  0  0  0  0  0  0
    0.4150   61.6860   72.0470 C   0  0  0  0  0  0  0  0  0  0  0  0
   -0.9170   61.9170   72.4790 C   0  0  0  0  0  0  0  0  0  0  0  0
   -1.5500   61.0600   73.3800 C   0  0  0  0  0  0  0  0  0  0  0  0
   -0.8660   59.9600   73.8700 C   0  0  0  0  0  0  0  0  0  0  0  0
    0.4470   59.7260   73.4580 C   0  0  0  0  0  0  0  0  0  0  0  0
   -1.6353   69.4479   67.0001 H   0  0  0  0  0  0  0  0  0  0  0  0
   -0.8519   68.1985   65.9744 H   0  0  0  0  0  0  0  0  0  0  0  0
   -2.6401   68.3685   65.9744 H   0  0  0  0  0  0  0  0  0  0  0  0
    0.5126   68.6098   67.5422 H   0  0  0  0  0  0  0  0  0  0  0  0
    1.1454   67.8296   69.0865 H   0  0  0  0  0  0  0  0  0  0  0  0
    2.6503   67.0134   67.6204 H   0  0  0  0  0  0  0  0  0  0  0  0
    1.3206   65.7491   67.5065 H   0  0  0  0  0  0  0  0  0  0  0  0
    2.4547   66.5426   65.3323 H   0  0  0  0  0  0  0  0  0  0  0  0
    0.6435   66.4437   65.4291 H   0  0  0  0  0  0  0  0  0  0  0  0
    3.4732   67.2011   62.5328 H   0  0  0  0  0  0  0  0  0  0  0  0
    2.0347   68.2799   62.7558 H   0  0  0  0  0  0  0  0  0  0  0  0
    3.2570   68.3441   60.4813 H   0  0  0  0  0  0  0  0  0  0  0  0
    2.8825   69.9209   61.3439 H   0  0  0  0  0  0  0  0  0  0  0  0
    5.3661   69.0257   60.3026 H   0  0  0  0  0  0  0  0  0  0  0  0
    4.9575   70.5327   61.2567 H   0  0  0  0  0  0  0  0  0  0  0  0
    6.0067   67.8811   62.2908 H   0  0  0  0  0  0  0  0  0  0  0  0
    6.7634   69.5161   62.3847 H   0  0  0  0  0  0  0  0  0  0  0  0
    2.3996   69.5238   67.7162 H   0  0  0  0  0  0  0  0  0  0  0  0
    3.8410   70.4639   69.5071 H   0  0  0  0  0  0  0  0  0  0  0  0
    6.2084   71.0652   68.9988 H   0  0  0  0  0  0  0  0  0  0  0  0
    7.1118   70.6874   66.7174 H   0  0  0  0  0  0  0  0  0  0  0  0
   -1.6825   66.2429   69.9931 H   0  0  0  0  0  0  0  0  0  0  0  0
   -0.6970   65.1058   68.9459 H   0  0  0  0  0  0  0  0  0  0  0  0
    1.3576   66.2233   69.9012 H   0  0  0  0  0  0  0  0  0  0  0  0
    0.2365   66.9660   71.1300 H   0  0  0  0  0  0  0  0  0  0  0  0
    1.4045   64.8906   71.9123 H   0  0  0  0  0  0  0  0  0  0  0  0
   -0.4101   64.8257   71.9453 H   0  0  0  0  0  0  0  0  0  0  0  0
    0.1039   63.5830   69.5392 H   0  0  0  0  0  0  0  0  0  0  0  0
    3.3839   62.5186   68.9193 H   0  0  0  0  0  0  0  0  0  0  0  0
    2.8526   64.0250   69.7671 H   0  0  0  0  0  0  0  0  0  0  0  0
    5.3775   63.5672   69.6551 H   0  0  0  0  0  0  0  0  0  0  0  0
    4.6271   63.9367   71.2898 H   0  0  0  0  0  0  0  0  0  0  0  0
    6.2613   61.7162   70.5126 H   0  0  0  0  0  0  0  0  0  0  0  0
    5.5185   62.1548   72.1296 H   0  0  0  0  0  0  0  0  0  0  0  0
    4.4383   60.3123   69.9860 H   0  0  0  0  0  0  0  0  0  0  0  0
    4.8045   59.9716   71.7230 H   0  0  0  0  0  0  0  0  0  0  0  0
   -1.4627   62.7914   72.0948 H   0  0  0  0  0  0  0  0  0  0  0  0
   -2.5843   61.2566   73.6986 H   0  0  0  0  0  0  0  0  0  0  0  0
   -1.3541   59.2753   74.5791 H   0  0  0  0  0  0  0  0  0  0  0  0
    0.9809   58.8499   73.8546 H   0  0  0  0  0  0  0  0  0  0  0  0
  2  1  1  0
  3  2  2  0
  4  2  1  0
  5  4  1  0
  6  5  1  0
  7  6  1  0
  8  7  1  0
  9  8  1  0
 10  9  1  0
 11 10  1  0
 12 11  1  0
 13 12  1  0
 14 13  1  0
 15 10  2  0
 15 14  1  0
 16 15  1  0
 17 16  2  0
 18  9  2  0
 18 17  1  0
 19 18  1  0
 20 19  2  0
 21 20  1  0
 22 17  1  0
 22 21  2  0
 23  4  1  0
 24 23  1  0
 25 24  1  0
 26 25  1  0
 27 26  1  0
 28 27  1  0
 29 28  1  0
 30 29  1  0
 31 30  1  0
 32 31  1  0
 33 28  2  0
 33 32  1  0
 34 33  1  0
 35 34  2  0
 36 35  1  0
 36 27  2  0
 37 36  1  0
 38 37  2  0
 39 38  1  0
 40 39  2  0
 40 35  1  0
  1 41  1  0
  1 42  1  0
  1 43  1  0
  5 44  1  0
  5 45  1  0
  6 46  1  0
  6 47  1  0
  7 48  1  0
  7 49  1  0
 11 50  1  0
 11 51  1  0
 12 52  1  0
 12 53  1  0
 13 54  1  0
 13 55  1  0
 14 56  1  0
 14 57  1  0
 19 58  1  0
 20 59  1  0
 21 60  1  0
 22 61  1  0
 23 62  1  0
 23 63  1  0
 24 64  1  0
 24 65  1  0
 25 66  1  0
 25 67  1  0
 26 68  1  0
 29 69  1  0
 29 70  1  0
 30 71  1  0
 30 72  1  0
 31 73  1  0
 31 74  1  0
 32 75  1  0
 32 76  1  0
 37 77  1  0
 38 78  1  0
 39 79  1  0
 40 80  1  0
M  END
>  <score>  (1) 
-12.344

$$$$
=
     RDKit          3D

 80 85  0  0  0  0  0  0  0  0999 V2000
   -2.1510   68.2730   66.1410 C   0  0  0  0  0  0  0  0  0  0  0  0
   -2.0510   67.3740   67.3470 C   0  0  0  0  0  0  0  0  0  0  0  0
   -3.0410   66.7420   67.7160 O   0  0  0  0  0  0  0  0  0  0  0  0
   -0.8220   67.2880   67.9960 N   0  0  0  0  0  0  0  0  0  0  0  0
    0.3690   68.0590   67.6300 C   0  0  0  0  0  0  0  0  0  0  0  0
    0.2300   69.5840   67.7440 C   0  0  0  0  0  0  0  0  0  0  0  0
    1.5110   70.3220   68.1330 C   0  0  0  0  0  0  0  0  0  0  0  0
    2.7920   69.1880   68.7720 S   0  0  0  0  0  0  0  0  0  0  0  0
    4.1880   69.7750   67.7880 C   0  0  0  0  0  0  0  0  0  0  0  0
    5.2630   70.4310   68.4070 C   0  0  0  0  0  0  0  0  0  0  0  0
    5.3410   70.8270   69.8600 C   0  0  0  0  0  0  0  0  0  0  0  0
    6.7260   70.5340   70.4500 C   0  0  0  0  0  0  0  0  0  0  0  0
    7.9010   70.8960   69.5330 C   0  0  0  0  0  0  0  0  0  0  0  0
    7.4820   71.5620   68.2260 C   0  0  0  0  0  0  0  0  0  0  0  0
    6.3320   70.8170   67.5980 C   0  0  0  0  0  0  0  0  0  0  0  0
    6.3930   70.5860   66.2710 N   0  0  0  0  0  0  0  0  0  0  0  0
    5.3570   69.9800   65.6770 C   0  0  0  0  0  0  0  0  0  0  0  0
    4.2070   69.5580   66.3770 C   0  0  0  0  0  0  0  0  0  0  0  0
    3.1590   68.9580   65.6310 C   0  0  0  0  0  0  0  0  0  0  0  0
    3.2580   68.7580   64.2550 C   0  0  0  0  0  0  0  0  0  0  0  0
    4.4030   69.1610   63.5890 C   0  0  0  0  0  0  0  0  0  0  0  0
    5.4340   69.7710   64.3070 C   0  0  0  0  0  0  0  0  0  0  0  0
   -0.7180   66.3580   69.1260 C   0  0  0  0  0  0  0  0  0  0  0  0
    0.6880   66.2520   69.7280 C   0  0  0  0  0  0  0  0  0  0  0  0
    0.8010   65.1430   70.7710 C   0  0  0  0  0  0  0  0  0  0  0  0
    0.4980   63.8160   70.2040 N   0  0  0  0  0  0  0  0  0  0  0  0
    1.1210   62.7400   70.8970 C   0  0  0  0  0  0  0  0  0  0  0  0
    2.4620   62.4470   70.6190 C   0  0  0  0  0  0  0  0  0  0  0  0
    3.3270   63.2400   69.6740 C   0  0  0  0  0  0  0  0  0  0  0  0
    4.7230   63.4670   70.2650 C   0  0  0  0  0  0  0  0  0  0  0  0
    5.3490   62.2310   70.9250 C   0  0  0  0  0  0  0  0  0  0  0  0
    4.4600   60.9890   70.9010 C   0  0  0  0  0  0  0  0  0  0  0  0
    3.0370   61.3400   71.2410 C   0  0  0  0  0  0  0  0  0  0  0  0
    2.3800   60.5430   72.1100 N   0  0  0  0  0  0  0  0  0  0  0  0
    1.1080   60.8420   72.4090 C   0  0  0  0  0  0  0  0  0  0  0  0
    0.4150   61.9330   71.8370 C   0  0  0  0  0  0  0  0  0  0  0  0
   -0.9270   62.1600   72.2380 C   0  0  0  0  0  0  0  0  0  0  0  0
   -1.5630   61.3290   73.1620 C   0  0  0  0  0  0  0  0  0  0  0  0
   -0.8700   60.2590   73.7060 C   0  0  0  0  0  0  0  0  0  0  0  0
    0.4530   60.0300   73.3250 C   0  0  0  0  0  0  0  0  0  0  0  0
   -2.2670   69.3162   66.4699 H   0  0  0  0  0  0  0  0  0  0  0  0
   -1.2368   68.1787   65.5365 H   0  0  0  0  0  0  0  0  0  0  0  0
   -3.0221   67.9801   65.5365 H   0  0  0  0  0  0  0  0  0  0  0  0
    1.1923   67.7436   68.2878 H   0  0  0  0  0  0  0  0  0  0  0  0
    0.5480   67.8508   66.5648 H   0  0  0  0  0  0  0  0  0  0  0  0
   -0.1038   69.9701   66.7695 H   0  0  0  0  0  0  0  0  0  0  0  0
   -0.4892   69.7674   68.5559 H   0  0  0  0  0  0  0  0  0  0  0  0
    1.9057   70.8387   67.2458 H   0  0  0  0  0  0  0  0  0  0  0  0
    1.2611   71.0348   68.9326 H   0  0  0  0  0  0  0  0  0  0  0  0
    5.1357   71.9041   69.9482 H   0  0  0  0  0  0  0  0  0  0  0  0
    4.5973   70.2390   70.4179 H   0  0  0  0  0  0  0  0  0  0  0  0
    6.8297   71.1075   71.3829 H   0  0  0  0  0  0  0  0  0  0  0  0
    6.7750   69.4460   70.6042 H   0  0  0  0  0  0  0  0  0  0  0  0
    8.5646   71.5852   70.0759 H   0  0  0  0  0  0  0  0  0  0  0  0
    8.3999   69.9528   69.2654 H   0  0  0  0  0  0  0  0  0  0  0  0
    7.1736   72.5979   68.4304 H   0  0  0  0  0  0  0  0  0  0  0  0
    8.3350   71.5499   67.5315 H   0  0  0  0  0  0  0  0  0  0  0  0
    2.2437   68.6422   66.1530 H   0  0  0  0  0  0  0  0  0  0  0  0
    2.4332   68.2839   63.7028 H   0  0  0  0  0  0  0  0  0  0  0  0
    4.4997   69.0023   62.5048 H   0  0  0  0  0  0  0  0  0  0  0  0
    6.3366   70.0965   63.7691 H   0  0  0  0  0  0  0  0  0  0  0  0
   -1.4060   66.6960   69.9149 H   0  0  0  0  0  0  0  0  0  0  0  0
   -0.9705   65.3604   68.7374 H   0  0  0  0  0  0  0  0  0  0  0  0
    1.4031   66.0470   68.9177 H   0  0  0  0  0  0  0  0  0  0  0  0
    0.9060   67.2051   70.2320 H   0  0  0  0  0  0  0  0  0  0  0  0
    1.8265   65.1331   71.1687 H   0  0  0  0  0  0  0  0  0  0  0  0
    0.0674   65.3480   71.5646 H   0  0  0  0  0  0  0  0  0  0  0  0
   -0.1083   63.6802   69.3825 H   0  0  0  0  0  0  0  0  0  0  0  0
    3.4228   62.6895   68.7265 H   0  0  0  0  0  0  0  0  0  0  0  0
    2.8548   64.2191   69.5053 H   0  0  0  0  0  0  0  0  0  0  0  0
    5.3890   63.7965   69.4539 H   0  0  0  0  0  0  0  0  0  0  0  0
    4.6052   64.2177   71.0604 H   0  0  0  0  0  0  0  0  0  0  0  0
    6.2850   61.9953   70.3974 H   0  0  0  0  0  0  0  0  0  0  0  0
    5.5080   62.4849   71.9834 H   0  0  0  0  0  0  0  0  0  0  0  0
    4.4906   60.5437   69.8956 H   0  0  0  0  0  0  0  0  0  0  0  0
    4.8340   60.2749   71.6494 H   0  0  0  0  0  0  0  0  0  0  0  0
   -1.4789   63.0103   71.8110 H   0  0  0  0  0  0  0  0  0  0  0  0
   -2.6053   61.5218   73.4559 H   0  0  0  0  0  0  0  0  0  0  0  0
   -1.3595   59.5946   74.4333 H   0  0  0  0  0  0  0  0  0  0  0  0
    0.9940   59.1790   73.7645 H   0  0  0  0  0  0  0  0  0  0  0  0
  2  1  1  0
  3  2  2  0
  4  2  1  0
  5  4  1  0
  6  5  1  0
  7  6  1  0
  8  7  1  0
  9  8  1  0
 10  9  1  0
 11 10  1  0
 12 11  1  0
 13 12  1  0
 14 13  1  0
 15 10  2  0
 15 14  1  0
 16 15  1  0
 17 16  2  0
 18  9  2  0
 18 17  1  0
 19 18  1  0
 20 19  2  0
 21 20  1  0
 22 17  1  0
 22 21  2  0
 23  4  1  0
 24 23  1  0
 25 24  1  0
 26 25  1  0
 27 26  1  0
 28 27  1  0
 29 28  1  0
 30 29  1  0
 31 30  1  0
 32 31  1  0
 33 28  2  0
 33 32  1  0
 34 33  1  0
 35 34  2  0
 36 35  1  0
 36 27  2  0
 37 36  1  0
 38 37  2  0
 39 38  1  0
 40 39  2  0
 40 35  1  0
  1 41  1  0
  1 42  1  0
  1 43  1  0
  5 44  1  0
  5 45  1  0
  6 46  1  0
  6 47  1  0
  7 48  1  0
  7 49  1  0
 11 50  1  0
 11 51  1  0
 12 52  1  0
 12 53  1  0
 13 54  1  0
 13 55  1  0
 14 56  1  0
 14 57  1  0
 19 58  1  0
 20 59  1  0
 21 60  1  0
 22 61  1  0
 23 62  1  0
 23 63  1  0
 24 64  1  0
 24 65  1  0
 25 66  1  0
 25 67  1  0
 26 68  1  0
 29 69  1  0
 29 70  1  0
 30 71  1  0
 30 72  1  0
 31 73  1  0
 31 74  1  0
 32 75  1  0
 32 76  1  0
 37 77  1  0
 38 78  1  0
 39 79  1  0
 40 80  1  0
M  END
>  <score>  (2) 
-11.936

$$$$
=
     RDKit          3D

 80 85  0  0  0  0  0  0  0  0999 V2000
   -2.5860   67.2310   67.3020 C   0  0  0  0  0  0  0  0  0  0  0  0
   -1.1000   67.4180   67.1350 C   0  0  0  0  0  0  0  0  0  0  0  0
   -0.6710   68.0350   66.1590 O   0  0  0  0  0  0  0  0  0  0  0  0
   -0.2620   66.8850   68.1120 N   0  0  0  0  0  0  0  0  0  0  0  0
   -0.7170   66.0990   69.2620 C   0  0  0  0  0  0  0  0  0  0  0  0
    0.3930   65.5680   70.1800 C   0  0  0  0  0  0  0  0  0  0  0  0
    0.2180   64.1190   70.6340 C   0  0  0  0  0  0  0  0  0  0  0  0
    0.7580   63.8680   72.3600 S   0  0  0  0  0  0  0  0  0  0  0  0
    1.3880   62.1830   72.2040 C   0  0  0  0  0  0  0  0  0  0  0  0
    2.5990   61.9400   71.5360 C   0  0  0  0  0  0  0  0  0  0  0  0
    3.4220   62.9630   70.7940 C   0  0  0  0  0  0  0  0  0  0  0  0
    4.9190   62.7960   71.0790 C   0  0  0  0  0  0  0  0  0  0  0  0
    5.4090   61.3430   71.0980 C   0  0  0  0  0  0  0  0  0  0  0  0
    4.3290   60.3230   70.7440 C   0  0  0  0  0  0  0  0  0  0  0  0
    3.0550   60.6230   71.4920 C   0  0  0  0  0  0  0  0  0  0  0  0
    2.4100   59.5830   72.0580 N   0  0  0  0  0  0  0  0  0  0  0  0
    1.2440   59.8120   72.6760 C   0  0  0  0  0  0  0  0  0  0  0  0
    0.6630   61.0940   72.7740 C   0  0  0  0  0  0  0  0  0  0  0  0
   -0.5950   61.2050   73.4240 C   0  0  0  0  0  0  0  0  0  0  0  0
   -1.2350   60.0980   73.9780 C   0  0  0  0  0  0  0  0  0  0  0  0
   -0.6390   58.8510   73.8880 C   0  0  0  0  0  0  0  0  0  0  0  0
    0.5880   58.7230   73.2350 C   0  0  0  0  0  0  0  0  0  0  0  0
    1.1770   67.1320   67.9750 C   0  0  0  0  0  0  0  0  0  0  0  0
    1.7000   68.2990   68.8210 C   0  0  0  0  0  0  0  0  0  0  0  0
    1.9080   69.5720   68.0060 C   0  0  0  0  0  0  0  0  0  0  0  0
    1.9630   69.3010   66.5580 N   0  0  0  0  0  0  0  0  0  0  0  0
    3.2810   69.3050   66.0220 C   0  0  0  0  0  0  0  0  0  0  0  0
    3.4860   68.7860   64.7360 C   0  0  0  0  0  0  0  0  0  0  0  0
    2.3870   68.2760   63.8400 C   0  0  0  0  0  0  0  0  0  0  0  0
    2.5830   68.7600   62.3990 C   0  0  0  0  0  0  0  0  0  0  0  0
    4.0240   68.6550   61.8780 C   0  0  0  0  0  0  0  0  0  0  0  0
    5.0220   68.1090   62.8970 C   0  0  0  0  0  0  0  0  0  0  0  0
    4.7920   68.7180   64.2550 C   0  0  0  0  0  0  0  0  0  0  0  0
    5.8710   69.1400   64.9480 N   0  0  0  0  0  0  0  0  0  0  0  0
    5.6750   69.6720   66.1630 C   0  0  0  0  0  0  0  0  0  0  0  0
    4.4000   69.7880   66.7620 C   0  0  0  0  0  0  0  0  0  0  0  0
    4.3140   70.3800   68.0480 C   0  0  0  0  0  0  0  0  0  0  0  0
    5.4490   70.8300   68.7220 C   0  0  0  0  0  0  0  0  0  0  0  0
    6.6930   70.7010   68.1230 C   0  0  0  0  0  0  0  0  0  0  0  0
    6.7900   70.1270   66.8540 C   0  0  0  0  0  0  0  0  0  0  0  0
   -2.8335   67.1999   68.3733 H   0  0  0  0  0  0  0  0  0  0  0  0
   -3.1167   68.0694   66.8273 H   0  0  0  0  0  0  0  0  0  0  0  0
   -2.8924   66.2872   66.8273 H   0  0  0  0  0  0  0  0  0  0  0  0
   -1.3810   66.7350   69.8659 H   0  0  0  0  0  0  0  0  0  0  0  0
   -1.2136   65.2111   68.8436 H   0  0  0  0  0  0  0  0  0  0  0  0
    1.3480   65.6432   69.6393 H   0  0  0  0  0  0  0  0  0  0  0  0
    0.3577   66.1822   71.0919 H   0  0  0  0  0  0  0  0  0  0  0  0
   -0.8449   63.8479   70.5522 H   0  0  0  0  0  0  0  0  0  0  0  0
    0.8433   63.4847   69.9885 H   0  0  0  0  0  0  0  0  0  0  0  0
    3.2488   62.8456   69.7141 H   0  0  0  0  0  0  0  0  0  0  0  0
    3.1162   63.9634   71.1340 H   0  0  0  0  0  0  0  0  0  0  0  0
    5.4784   63.3362   70.3010 H   0  0  0  0  0  0  0  0  0  0  0  0
    5.0894   63.1948   72.0899 H   0  0  0  0  0  0  0  0  0  0  0  0
    6.2300   61.2445   70.3726 H   0  0  0  0  0  0  0  0  0  0  0  0
    5.7286   61.1264   72.1280 H   0  0  0  0  0  0  0  0  0  0  0  0
    4.1323   60.3644   69.6625 H   0  0  0  0  0  0  0  0  0  0  0  0
    4.6803   59.3197   71.0270 H   0  0  0  0  0  0  0  0  0  0  0  0
   -1.0771   62.1914   73.4919 H   0  0  0  0  0  0  0  0  0  0  0  0
   -2.2056   60.2136   74.4826 H   0  0  0  0  0  0  0  0  0  0  0  0
   -1.1283   57.9692   74.3273 H   0  0  0  0  0  0  0  0  0  0  0  0
    1.0502   57.7276   73.1608 H   0  0  0  0  0  0  0  0  0  0  0  0
    1.7133   66.2202   68.2767 H   0  0  0  0  0  0  0  0  0  0  0  0
    1.3516   67.4023   66.9231 H   0  0  0  0  0  0  0  0  0  0  0  0
    0.9731   68.5077   69.6198 H   0  0  0  0  0  0  0  0  0  0  0  0
    2.6780   68.0019   69.2274 H   0  0  0  0  0  0  0  0  0  0  0  0
    1.0746   70.2615   68.2063 H   0  0  0  0  0  0  0  0  0  0  0  0
    2.8709   70.0119   68.3050 H   0  0  0  0  0  0  0  0  0  0  0  0
    1.1242   69.1249   65.9867 H   0  0  0  0  0  0  0  0  0  0  0  0
    2.3931   67.1761   63.8539 H   0  0  0  0  0  0  0  0  0  0  0  0
    1.4257   68.6611   64.2110 H   0  0  0  0  0  0  0  0  0  0  0  0
    1.9369   68.1571   61.7440 H   0  0  0  0  0  0  0  0  0  0  0  0
    2.3271   69.8298   62.3927 H   0  0  0  0  0  0  0  0  0  0  0  0
    4.0262   67.9890   61.0025 H   0  0  0  0  0  0  0  0  0  0  0  0
    4.3475   69.6784   61.6371 H   0  0  0  0  0  0  0  0  0  0  0  0
    4.9041   67.0176   62.9672 H   0  0  0  0  0  0  0  0  0  0  0  0
    6.0388   68.3654   62.5648 H   0  0  0  0  0  0  0  0  0  0  0  0
    3.3286   70.4867   68.5251 H   0  0  0  0  0  0  0  0  0  0  0  0
    5.3582   71.2833   69.7201 H   0  0  0  0  0  0  0  0  0  0  0  0
    7.5972   71.0486   68.6441 H   0  0  0  0  0  0  0  0  0  0  0  0
    7.7813   70.0322   66.3868 H   0  0  0  0  0  0  0  0  0  0  0  0
  2  1  1  0
  3  2  2  0
  4  2  1  0
  5  4  1  0
  6  5  1  0
  7  6  1  0
  8  7  1  0
  9  8  1  0
 10  9  1  0
 11 10  1  0
 12 11  1  0
 13 12  1  0
 14 13  1  0
 15 10  2  0
 15 14  1  0
 16 15  1  0
 17 16  2  0
 18  9  2  0
 18 17  1  0
 19 18  1  0
 20 19  2  0
 21 20  1  0
 22 17  1  0
 22 21  2  0
 23  4  1  0
 24 23  1  0
 25 24  1  0
 26 25  1  0
 27 26  1  0
 28 27  1  0
 29 28  1  0
 30 29  1  0
 31 30  1  0
 32 31  1  0
 33 28  2  0
 33 32  1  0
 34 33  1  0
 35 34  2  0
 36 35  1  0
 36 27  2  0
 37 36  1  0
 38 37  2  0
 39 38  1  0
 40 39  2  0
 40 35  1  0
  1 41  1  0
  1 42  1  0
  1 43  1  0
  5 44  1  0
  5 45  1  0
  6 46  1  0
  6 47  1  0
  7 48  1  0
  7 49  1  0
 11 50  1  0
 11 51  1  0
 12 52  1  0
 12 53  1  0
 13 54  1  0
 13 55  1  0
 14 56  1  0
 14 57  1  0
 19 58  1  0
 20 59  1  0
 21 60  1  0
 22 61  1  0
 23 62  1  0
 23 63  1  0
 24 64  1  0
 24 65  1  0
 25 66  1  0
 25 67  1  0
 26 68  1  0
 29 69  1  0
 29 70  1  0
 30 71  1  0
 30 72  1  0
 31 73  1  0
 31 74  1  0
 32 75  1  0
 32 76  1  0
 37 77  1  0
 38 78  1  0
 39 79  1  0
 40 80  1  0
M  END
>  <score>  (3) 
-11.933

$$$$
=
     RDKit          3D

 80 85  0  0  0  0  0  0  0  0999 V2000
    3.6280   63.4960   69.3040 C   0  0  0  0  0  0  0  0  0  0  0  0
    2.2670   63.2670   69.9080 C   0  0  0  0  0  0  0  0  0  0  0  0
    1.8680   62.1150   70.0890 O   0  0  0  0  0  0  0  0  0  0  0  0
    1.5080   64.3850   70.2480 N   0  0  0  0  0  0  0  0  0  0  0  0
    1.9120   65.7710   70.0040 C   0  0  0  0  0  0  0  0  0  0  0  0
    0.7900   66.7160   69.5490 C   0  0  0  0  0  0  0  0  0  0  0  0
    0.8100   67.0740   68.0630 C   0  0  0  0  0  0  0  0  0  0  0  0
    0.7380   68.8780   67.7880 S   0  0  0  0  0  0  0  0  0  0  0  0
    2.2990   69.0780   66.9030 C   0  0  0  0  0  0  0  0  0  0  0  0
    2.4070   68.6780   65.5620 C   0  0  0  0  0  0  0  0  0  0  0  0
    1.3500   67.9550   64.7640 C   0  0  0  0  0  0  0  0  0  0  0  0
    1.2290   68.5230   63.3450 C   0  0  0  0  0  0  0  0  0  0  0  0
    2.5670   68.8350   62.6640 C   0  0  0  0  0  0  0  0  0  0  0  0
    3.7870   68.4450   63.4940 C   0  0  0  0  0  0  0  0  0  0  0  0
    3.6250   68.9040   64.9200 C   0  0  0  0  0  0  0  0  0  0  0  0
    4.6880   69.4890   65.5080 N   0  0  0  0  0  0  0  0  0  0  0  0
    4.5910   69.8510   66.7940 C   0  0  0  0  0  0  0  0  0  0  0  0
    3.4230   69.6600   67.5610 C   0  0  0  0  0  0  0  0  0  0  0  0
    3.4540   70.0530   68.9260 C   0  0  0  0  0  0  0  0  0  0  0  0
    4.5840   70.6370   69.4960 C   0  0  0  0  0  0  0  0  0  0  0  0
    5.7140   70.8340   68.7200 C   0  0  0  0  0  0  0  0  0  0  0  0
    5.7050   70.4340   67.3830 C   0  0  0  0  0  0  0  0  0  0  0  0
    0.2140   64.1500   70.8980 C   0  0  0  0  0  0  0  0  0  0  0  0
    0.2370   64.3050   72.4230 C   0  0  0  0  0  0  0  0  0  0  0  0
    0.4040   62.9730   73.1490 C   0  0  0  0  0  0  0  0  0  0  0  0
   -0.0400   61.8330   72.3260 N   0  0  0  0  0  0  0  0  0  0  0  0
   -0.1740   60.6170   73.0530 C   0  0  0  0  0  0  0  0  0  0  0  0
    0.9040   59.7230   73.0730 C   0  0  0  0  0  0  0  0  0  0  0  0
    2.2390   59.9860   72.4250 C   0  0  0  0  0  0  0  0  0  0  0  0
    3.3900   59.5590   73.3420 C   0  0  0  0  0  0  0  0  0  0  0  0
    3.1940   58.1980   74.0250 C   0  0  0  0  0  0  0  0  0  0  0  0
    1.8700   57.5130   73.6920 C   0  0  0  0  0  0  0  0  0  0  0  0
    0.7330   58.4990   73.7170 C   0  0  0  0  0  0  0  0  0  0  0  0
   -0.4070   58.1320   74.3400 N   0  0  0  0  0  0  0  0  0  0  0  0
   -1.4280   59.0000   74.3570 C   0  0  0  0  0  0  0  0  0  0  0  0
   -1.3780   60.2670   73.7320 C   0  0  0  0  0  0  0  0  0  0  0  0
   -2.5180   61.1080   73.8250 C   0  0  0  0  0  0  0  0  0  0  0  0
   -3.6680   60.7030   74.5030 C   0  0  0  0  0  0  0  0  0  0  0  0
   -3.7030   59.4540   75.1030 C   0  0  0  0  0  0  0  0  0  0  0  0
   -2.5860   58.6210   75.0240 C   0  0  0  0  0  0  0  0  0  0  0  0
    4.3693   63.6207   70.1071 H   0  0  0  0  0  0  0  0  0  0  0  0
    3.9033   62.6315   68.6819 H   0  0  0  0  0  0  0  0  0  0  0  0
    3.6052   64.4029   68.6819 H   0  0  0  0  0  0  0  0  0  0  0  0
    2.3338   66.1706   70.9380 H   0  0  0  0  0  0  0  0  0  0  0  0
    2.6316   65.7341   69.1729 H   0  0  0  0  0  0  0  0  0  0  0  0
   -0.1734   66.2336   69.7709 H   0  0  0  0  0  0  0  0  0  0  0  0
    0.9421   67.6590   70.0945 H   0  0  0  0  0  0  0  0  0  0  0  0
    1.7369   66.6842   67.6170 H   0  0  0  0  0  0  0  0  0  0  0  0
   -0.0785   66.6250   67.5951 H   0  0  0  0  0  0  0  0  0  0  0  0
    1.6165   66.8896   64.7008 H   0  0  0  0  0  0  0  0  0  0  0  0
    0.3835   68.0880   65.2720 H   0  0  0  0  0  0  0  0  0  0  0  0
    0.6926   67.7884   62.7264 H   0  0  0  0  0  0  0  0  0  0  0  0
    0.6966   69.4811   63.4380 H   0  0  0  0  0  0  0  0  0  0  0  0
    2.6068   68.2875   61.7107 H   0  0  0  0  0  0  0  0  0  0  0  0
    2.6092   69.9255   62.5257 H   0  0  0  0  0  0  0  0  0  0  0  0
    3.9016   67.3511   63.4768 H   0  0  0  0  0  0  0  0  0  0  0  0
    4.6777   68.9269   63.0646 H   0  0  0  0  0  0  0  0  0  0  0  0
    2.5623   69.8921   69.5497 H   0  0  0  0  0  0  0  0  0  0  0  0
    4.5783   70.9390   70.5537 H   0  0  0  0  0  0  0  0  0  0  0  0
    6.6104   71.3015   69.1535 H   0  0  0  0  0  0  0  0  0  0  0  0
    6.6098   70.5855   66.7761 H   0  0  0  0  0  0  0  0  0  0  0  0
   -0.5122   64.8682   70.4896 H   0  0  0  0  0  0  0  0  0  0  0  0
   -0.0570   63.1041   70.6916 H   0  0  0  0  0  0  0  0  0  0  0  0
    1.0752   64.9625   72.6971 H   0  0  0  0  0  0  0  0  0  0  0  0
   -0.7307   64.7300   72.7279 H   0  0  0  0  0  0  0  0  0  0  0  0
    1.4662   62.8367   73.4001 H   0  0  0  0  0  0  0  0  0  0  0  0
   -0.2200   63.0003   74.0545 H   0  0  0  0  0  0  0  0  0  0  0  0
   -0.2352   61.9097   71.3176 H   0  0  0  0  0  0  0  0  0  0  0  0
    2.2998   59.4192   71.4842 H   0  0  0  0  0  0  0  0  0  0  0  0
    2.3275   61.0653   72.2320 H   0  0  0  0  0  0  0  0  0  0  0  0
    4.3088   59.5108   72.7391 H   0  0  0  0  0  0  0  0  0  0  0  0
    3.4400   60.3068   74.1472 H   0  0  0  0  0  0  0  0  0  0  0  0
    4.0136   57.5343   73.7123 H   0  0  0  0  0  0  0  0  0  0  0  0
    3.1872   58.3872   75.1086 H   0  0  0  0  0  0  0  0  0  0  0  0
    1.9378   57.0670   72.6888 H   0  0  0  0  0  0  0  0  0  0  0  0
    1.6774   56.7358   74.4462 H   0  0  0  0  0  0  0  0  0  0  0  0
   -2.4940   62.1008   73.3520 H   0  0  0  0  0  0  0  0  0  0  0  0
   -4.5407   61.3701   74.5610 H   0  0  0  0  0  0  0  0  0  0  0  0
   -4.6050   59.1216   75.6378 H   0  0  0  0  0  0  0  0  0  0  0  0
   -2.6239   57.6326   75.5054 H   0  0  0  0  0  0  0  0  0  0  0  0
  2  1  1  0
  3  2  2  0
  4  2  1  0
  5  4  1  0
  6  5  1  0
  7  6  1  0
  8  7  1  0
  9  8  1  0
 10  9  1  0
 11 10  1  0
 12 11  1  0
 13 12  1  0
 14 13  1  0
 15 10  2  0
 15 14  1  0
 16 15  1  0
 17 16  2  0
 18  9  2  0
 18 17  1  0
 19 18  1  0
 20 19  2  0
 21 20  1  0
 22 17  1  0
 22 21  2  0
 23  4  1  0
 24 23  1  0
 25 24  1  0
 26 25  1  0
 27 26  1  0
 28 27  1  0
 29 28  1  0
 30 29  1  0
 31 30  1  0
 32 31  1  0
 33 28  2  0
 33 32  1  0
 34 33  1  0
 35 34  2  0
 36 35  1  0
 36 27  2  0
 37 36  1  0
 38 37  2  0
 39 38  1  0
 40 39  2  0
 40 35  1  0
  1 41  1  0
  1 42  1  0
  1 43  1  0
  5 44  1  0
  5 45  1  0
  6 46  1  0
  6 47  1  0
  7 48  1  0
  7 49  1  0
 11 50  1  0
 11 51  1  0
 12 52  1  0
 12 53  1  0
 13 54  1  0
 13 55  1  0
 14 56  1  0
 14 57  1  0
 19 58  1  0
 20 59  1  0
 21 60  1  0
 22 61  1  0
 23 62  1  0
 23 63  1  0
 24 64  1  0
 24 65  1  0
 25 66  1  0
 25 67  1  0
 26 68  1  0
 29 69  1  0
 29 70  1  0
 30 71  1  0
 30 72  1  0
 31 73  1  0
 31 74  1  0
 32 75  1  0
 32 76  1  0
 37 77  1  0
 38 78  1  0
 39 79  1  0
 40 80  1  0
M  END
>  <score>  (4) 
-11.605

$$$$
=
     RDKit          3D

 80 85  0  0  0  0  0  0  0  0999 V2000
    1.6940   62.2670   70.0690 C   0  0  0  0  0  0  0  0  0  0  0  0
    2.0270   63.7200   69.8460 C   0  0  0  0  0  0  0  0  0  0  0  0
    2.9590   64.0210   69.0990 O   0  0  0  0  0  0  0  0  0  0  0  0
    1.2500   64.6740   70.4970 N   0  0  0  0  0  0  0  0  0  0  0  0
    0.1680   64.3680   71.4360 C   0  0  0  0  0  0  0  0  0  0  0  0
    0.6030   64.1250   72.8890 C   0  0  0  0  0  0  0  0  0  0  0  0
    0.2390   62.7510   73.4500 C   0  0  0  0  0  0  0  0  0  0  0  0
    1.4350   62.1810   74.7070 S   0  0  0  0  0  0  0  0  0  0  0  0
    2.0520   60.7170   73.8480 C   0  0  0  0  0  0  0  0  0  0  0  0
    1.4260   59.4740   74.0310 C   0  0  0  0  0  0  0  0  0  0  0  0
    0.3100   59.1780   75.0030 C   0  0  0  0  0  0  0  0  0  0  0  0
   -0.7670   58.2900   74.3700 C   0  0  0  0  0  0  0  0  0  0  0  0
   -0.2250   57.1390   73.5120 C   0  0  0  0  0  0  0  0  0  0  0  0
    1.2980   57.0350   73.5100 C   0  0  0  0  0  0  0  0  0  0  0  0
    1.9200   58.3920   73.3020 C   0  0  0  0  0  0  0  0  0  0  0  0
    2.9460   58.4760   72.4320 N   0  0  0  0  0  0  0  0  0  0  0  0
    3.5570   59.6580   72.2740 C   0  0  0  0  0  0  0  0  0  0  0  0
    3.1680   60.8240   72.9660 C   0  0  0  0  0  0  0  0  0  0  0  0
    3.9160   62.0110   72.7400 C   0  0  0  0  0  0  0  0  0  0  0  0
    4.9840   62.0460   71.8450 C   0  0  0  0  0  0  0  0  0  0  0  0
    5.3370   60.8950   71.1600 C   0  0  0  0  0  0  0  0  0  0  0  0
    4.6240   59.7160   71.3870 C   0  0  0  0  0  0  0  0  0  0  0  0
    1.5400   66.0850   70.2190 C   0  0  0  0  0  0  0  0  0  0  0  0
    0.4380   66.8140   69.4410 C   0  0  0  0  0  0  0  0  0  0  0  0
    0.8600   67.1790   68.0210 C   0  0  0  0  0  0  0  0  0  0  0  0
    1.0360   68.6330   67.8510 N   0  0  0  0  0  0  0  0  0  0  0  0
    2.1710   68.9860   67.0680 C   0  0  0  0  0  0  0  0  0  0  0  0
    2.1750   68.6620   65.7050 C   0  0  0  0  0  0  0  0  0  0  0  0
    1.0210   68.0180   64.9810 C   0  0  0  0  0  0  0  0  0  0  0  0
    0.7860   68.6800   63.6190 C   0  0  0  0  0  0  0  0  0  0  0  0
    2.0630   68.9530   62.8110 C   0  0  0  0  0  0  0  0  0  0  0  0
    3.3530   68.5390   63.5150 C   0  0  0  0  0  0  0  0  0  0  0  0
    3.3240   68.9370   64.9670 C   0  0  0  0  0  0  0  0  0  0  0  0
    4.4300   69.5130   65.4850 N   0  0  0  0  0  0  0  0  0  0  0  0
    4.4160   69.8590   66.7800 C   0  0  0  0  0  0  0  0  0  0  0  0
    3.3140   69.6250   67.6330 C   0  0  0  0  0  0  0  0  0  0  0  0
    3.4090   70.0460   68.9840 C   0  0  0  0  0  0  0  0  0  0  0  0
    4.5590   70.6650   69.4760 C   0  0  0  0  0  0  0  0  0  0  0  0
    5.6340   70.8790   68.6270 C   0  0  0  0  0  0  0  0  0  0  0  0
    5.5490   70.4760   67.2940 C   0  0  0  0  0  0  0  0  0  0  0  0
    1.6473   62.0631   71.1489 H   0  0  0  0  0  0  0  0  0  0  0  0
    0.7204   62.0394   69.6104 H   0  0  0  0  0  0  0  0  0  0  0  0
    2.4713   61.6381   69.6104 H   0  0  0  0  0  0  0  0  0  0  0  0
   -0.5356   65.2135   71.4297 H   0  0  0  0  0  0  0  0  0  0  0  0
   -0.2734   63.4216   71.0904 H   0  0  0  0  0  0  0  0  0  0  0  0
    1.6961   64.2365   72.9413 H   0  0  0  0  0  0  0  0  0  0  0  0
    0.0597   64.8608   73.5001 H   0  0  0  0  0  0  0  0  0  0  0  0
   -0.7583   62.8091   73.9104 H   0  0  0  0  0  0  0  0  0  0  0  0
    0.2543   62.0314   72.6181 H   0  0  0  0  0  0  0  0  0  0  0  0
    0.7278   58.6625   75.8803 H   0  0  0  0  0  0  0  0  0  0  0  0
   -0.1561   60.1312   75.2933 H   0  0  0  0  0  0  0  0  0  0  0  0
   -1.3742   57.8580   75.1791 H   0  0  0  0  0  0  0  0  0  0  0  0
   -1.3453   58.9366   73.6936 H   0  0  0  0  0  0  0  0  0  0  0  0
   -0.6364   56.1949   73.8986 H   0  0  0  0  0  0  0  0  0  0  0  0
   -0.5333   57.3400   72.4754 H   0  0  0  0  0  0  0  0  0  0  0  0
    1.6341   56.6268   74.4746 H   0  0  0  0  0  0  0  0  0  0  0  0
    1.6080   56.3721   72.6887 H   0  0  0  0  0  0  0  0  0  0  0  0
    3.6449   62.9267   73.2860 H   0  0  0  0  0  0  0  0  0  0  0  0
    5.5420   62.9802   71.6840 H   0  0  0  0  0  0  0  0  0  0  0  0
    6.1716   60.9096   70.4436 H   0  0  0  0  0  0  0  0  0  0  0  0
    4.9168   58.8041   70.8460 H   0  0  0  0  0  0  0  0  0  0  0  0
    1.6843   66.6027   71.1788 H   0  0  0  0  0  0  0  0  0  0  0  0
    2.4383   66.1030   69.5845 H   0  0  0  0  0  0  0  0  0  0  0  0
   -0.4458   66.1612   69.3883 H   0  0  0  0  0  0  0  0  0  0  0  0
    0.2212   67.7517   69.9736 H   0  0  0  0  0  0  0  0  0  0  0  0
    1.8124   66.6775   67.7941 H   0  0  0  0  0  0  0  0  0  0  0  0
    0.0636   66.8519   67.3364 H   0  0  0  0  0  0  0  0  0  0  0  0
    0.3968   69.3289   68.2609 H   0  0  0  0  0  0  0  0  0  0  0  0
    1.2427   66.9514   64.8286 H   0  0  0  0  0  0  0  0  0  0  0  0
    0.1136   68.1409   65.5905 H   0  0  0  0  0  0  0  0  0  0  0  0
    0.1383   68.0195   63.0239 H   0  0  0  0  0  0  0  0  0  0  0  0
    0.3315   69.6606   63.8237 H   0  0  0  0  0  0  0  0  0  0  0  0
    1.9954   68.3998   61.8626 H   0  0  0  0  0  0  0  0  0  0  0  0
    2.1181   70.0422   62.6678 H   0  0  0  0  0  0  0  0  0  0  0  0
    3.4683   67.4474   63.4430 H   0  0  0  0  0  0  0  0  0  0  0  0
    4.1981   69.0475   63.0279 H   0  0  0  0  0  0  0  0  0  0  0  0
    2.5567   69.8809   69.6595 H   0  0  0  0  0  0  0  0  0  0  0  0
    4.6121   70.9804   70.5285 H   0  0  0  0  0  0  0  0  0  0  0  0
    6.5478   71.3633   69.0019 H   0  0  0  0  0  0  0  0  0  0  0  0
    6.4070   70.6527   66.6287 H   0  0  0  0  0  0  0  0  0  0  0  0
  2  1  1  0
  3  2  2  0
  4  2  1  0
  5  4  1  0
  6  5  1  0
  7  6  1  0
  8  7  1  0
  9  8  1  0
 10  9  1  0
 11 10  1  0
 12 11  1  0
 13 12  1  0
 14 13  1  0
 15 10  2  0
 15 14  1  0
 16 15  1  0
 17 16  2  0
 18  9  2  0
 18 17  1  0
 19 18  1  0
 20 19  2  0
 21 20  1  0
 22 17  1  0
 22 21  2  0
 23  4  1  0
 24 23  1  0
 25 24  1  0
 26 25  1  0
 27 26  1  0
 28 27  1  0
 29 28  1  0
 30 29  1  0
 31 30  1  0
 32 31  1  0
 33 28  2  0
 33 32  1  0
 34 33  1  0
 35 34  2  0
 36 35  1  0
 36 27  2  0
 37 36  1  0
 38 37  2  0
 39 38  1  0
 40 39  2  0
 40 35  1  0
  1 41  1  0
  1 42  1  0
  1 43  1  0
  5 44  1  0
  5 45  1  0
  6 46  1  0
  6 47  1  0
  7 48  1  0
  7 49  1  0
 11 50  1  0
 11 51  1  0
 12 52  1  0
 12 53  1  0
 13 54  1  0
 13 55  1  0
 14 56  1  0
 14 57  1  0
 19 58  1  0
 20 59  1  0
 21 60  1  0
 22 61  1  0
 23 62  1  0
 23 63  1  0
 24 64  1  0
 24 65  1  0
 25 66  1  0
 25 67  1  0
 26 68  1  0
 29 69  1  0
 29 70  1  0
 30 71  1  0
 30 72  1  0
 31 73  1  0
 31 74  1  0
 32 75  1  0
 32 76  1  0
 37 77  1  0
 38 78  1  0
 39 79  1  0
 40 80  1  0
M  END
>  <score>  (5) 
-11.486

$$$$
=
     RDKit          3D

 80 85  0  0  0  0  0  0  0  0999 V2000
    4.5250   65.4980   62.8000 C   0  0  0  0  0  0  0  0  0  0  0  0
    4.3880   64.2560   63.6420 C   0  0  0  0  0  0  0  0  0  0  0  0
    4.7850   63.1760   63.2010 O   0  0  0  0  0  0  0  0  0  0  0  0
    3.8190   64.3850   64.9070 N   0  0  0  0  0  0  0  0  0  0  0  0
    3.2840   65.6330   65.4560 C   0  0  0  0  0  0  0  0  0  0  0  0
    1.8710   66.0100   64.9850 C   0  0  0  0  0  0  0  0  0  0  0  0
    1.1100   66.9520   65.9170 C   0  0  0  0  0  0  0  0  0  0  0  0
    1.0100   68.6490   65.2500 S   0  0  0  0  0  0  0  0  0  0  0  0
    2.7770   69.0090   65.1600 C   0  0  0  0  0  0  0  0  0  0  0  0
    3.4760   68.8220   63.9570 C   0  0  0  0  0  0  0  0  0  0  0  0
    2.9190   68.2150   62.6940 C   0  0  0  0  0  0  0  0  0  0  0  0
    3.3650   68.9930   61.4510 C   0  0  0  0  0  0  0  0  0  0  0  0
    4.8360   69.4280   61.4620 C   0  0  0  0  0  0  0  0  0  0  0  0
    5.6170   68.9340   62.6770 C   0  0  0  0  0  0  0  0  0  0  0  0
    4.8280   69.1640   63.9410 C   0  0  0  0  0  0  0  0  0  0  0  0
    5.4910   69.6690   65.0010 N   0  0  0  0  0  0  0  0  0  0  0  0
    4.8280   69.8250   66.1550 C   0  0  0  0  0  0  0  0  0  0  0  0
    3.4640   69.5000   66.3100 C   0  0  0  0  0  0  0  0  0  0  0  0
    2.8810   69.6780   67.5930 C   0  0  0  0  0  0  0  0  0  0  0  0
    3.6110   70.1850   68.6670 C   0  0  0  0  0  0  0  0  0  0  0  0
    4.9440   70.5170   68.4890 C   0  0  0  0  0  0  0  0  0  0  0  0
    5.5360   70.3290   67.2380 C   0  0  0  0  0  0  0  0  0  0  0  0
    3.7540   63.1820   65.7450 C   0  0  0  0  0  0  0  0  0  0  0  0
    3.8090   63.4590   67.2520 C   0  0  0  0  0  0  0  0  0  0  0  0
    3.4050   62.2500   68.0900 C   0  0  0  0  0  0  0  0  0  0  0  0
    4.0100   62.2800   69.4340 N   0  0  0  0  0  0  0  0  0  0  0  0
    3.0990   61.9660   70.4810 C   0  0  0  0  0  0  0  0  0  0  0  0
    2.3610   63.0050   71.0640 C   0  0  0  0  0  0  0  0  0  0  0  0
    2.4130   64.4420   70.6130 C   0  0  0  0  0  0  0  0  0  0  0  0
    1.0090   65.0540   70.5610 C   0  0  0  0  0  0  0  0  0  0  0  0
    0.1210   64.7260   71.7690 C   0  0  0  0  0  0  0  0  0  0  0  0
    0.7830   63.8220   72.8080 C   0  0  0  0  0  0  0  0  0  0  0  0
    1.5340   62.7000   72.1430 C   0  0  0  0  0  0  0  0  0  0  0  0
    1.3890   61.4570   72.6500 N   0  0  0  0  0  0  0  0  0  0  0  0
    2.0640   60.4540   72.0710 C   0  0  0  0  0  0  0  0  0  0  0  0
    2.9390   60.6390   70.9760 C   0  0  0  0  0  0  0  0  0  0  0  0
    3.5910   59.5000   70.4380 C   0  0  0  0  0  0  0  0  0  0  0  0
    3.3930   58.2260   70.9710 C   0  0  0  0  0  0  0  0  0  0  0  0
    2.5380   58.0640   72.0500 C   0  0  0  0  0  0  0  0  0  0  0  0
    1.8850   59.1760   72.5840 C   0  0  0  0  0  0  0  0  0  0  0  0
    4.6219   66.3763   63.4552 H   0  0  0  0  0  0  0  0  0  0  0  0
    5.4193   65.4137   62.1651 H   0  0  0  0  0  0  0  0  0  0  0  0
    3.6338   65.6107   62.1651 H   0  0  0  0  0  0  0  0  0  0  0  0
    3.2624   65.5395   66.5518 H   0  0  0  0  0  0  0  0  0  0  0  0
    3.9470   66.4319   65.0924 H   0  0  0  0  0  0  0  0  0  0  0  0
    1.9574   66.4978   64.0029 H   0  0  0  0  0  0  0  0  0  0  0  0
    1.2955   65.0729   64.9578 H   0  0  0  0  0  0  0  0  0  0  0  0
    0.0897   66.5651   66.0559 H   0  0  0  0  0  0  0  0  0  0  0  0
    1.6547   66.9957   66.8717 H   0  0  0  0  0  0  0  0  0  0  0  0
    3.2719   67.1765   62.6110 H   0  0  0  0  0  0  0  0  0  0  0  0
    1.8210   68.2530   62.7486 H   0  0  0  0  0  0  0  0  0  0  0  0
    3.2030   68.3542   60.5703 H   0  0  0  0  0  0  0  0  0  0  0  0
    2.7676   69.9164   61.4309 H   0  0  0  0  0  0  0  0  0  0  0  0
    5.3203   69.0354   60.5557 H   0  0  0  0  0  0  0  0  0  0  0  0
    4.8441   70.5272   61.5021 H   0  0  0  0  0  0  0  0  0  0  0  0
    5.8170   67.8581   62.5658 H   0  0  0  0  0  0  0  0  0  0  0  0
    6.5634   69.4908   62.7421 H   0  0  0  0  0  0  0  0  0  0  0  0
    1.8251   69.4086   67.7431 H   0  0  0  0  0  0  0  0  0  0  0  0
    3.1322   70.3203   69.6481 H   0  0  0  0  0  0  0  0  0  0  0  0
    5.5309   70.9249   69.3252 H   0  0  0  0  0  0  0  0  0  0  0  0
    6.5968   70.5884   67.1065 H   0  0  0  0  0  0  0  0  0  0  0  0
    2.8114   62.6594   65.5250 H   0  0  0  0  0  0  0  0  0  0  0  0
    4.6428   62.5809   65.5026 H   0  0  0  0  0  0  0  0  0  0  0  0
    4.8370   63.7445   67.5196 H   0  0  0  0  0  0  0  0  0  0  0  0
    3.0926   64.2655   67.4670 H   0  0  0  0  0  0  0  0  0  0  0  0
    2.3100   62.2404   68.1940 H   0  0  0  0  0  0  0  0  0  0  0  0
    3.7649   61.3462   67.5765 H   0  0  0  0  0  0  0  0  0  0  0  0
    5.0008   62.5073   69.5999 H   0  0  0  0  0  0  0  0  0  0  0  0
    3.0303   65.0179   71.3182 H   0  0  0  0  0  0  0  0  0  0  0  0
    2.8471   64.4761   69.6029 H   0  0  0  0  0  0  0  0  0  0  0  0
    1.1139   66.1473   70.4997 H   0  0  0  0  0  0  0  0  0  0  0  0
    0.5120   64.6168   69.6824 H   0  0  0  0  0  0  0  0  0  0  0  0
   -0.1555   65.6706   72.2602 H   0  0  0  0  0  0  0  0  0  0  0  0
   -0.7489   64.1759   71.3808 H   0  0  0  0  0  0  0  0  0  0  0  0
    1.4848   64.4184   73.4094 H   0  0  0  0  0  0  0  0  0  0  0  0
   -0.0003   63.3898   73.4480 H   0  0  0  0  0  0  0  0  0  0  0  0
    4.2686   59.6241   69.5804 H   0  0  0  0  0  0  0  0  0  0  0  0
    3.9111   57.3573   70.5386 H   0  0  0  0  0  0  0  0  0  0  0  0
    2.3752   57.0658   72.4825 H   0  0  0  0  0  0  0  0  0  0  0  0
    1.2068   59.0356   73.4386 H   0  0  0  0  0  0  0  0  0  0  0  0
  2  1  1  0
  3  2  2  0
  4  2  1  0
  5  4  1  0
  6  5  1  0
  7  6  1  0
  8  7  1  0
  9  8  1  0
 10  9  1  0
 11 10  1  0
 12 11  1  0
 13 12  1  0
 14 13  1  0
 15 10  2  0
 15 14  1  0
 16 15  1  0
 17 16  2  0
 18  9  2  0
 18 17  1  0
 19 18  1  0
 20 19  2  0
 21 20  1  0
 22 17  1  0
 22 21  2  0
 23  4  1  0
 24 23  1  0
 25 24  1  0
 26 25  1  0
 27 26  1  0
 28 27  1  0
 29 28  1  0
 30 29  1  0
 31 30  1  0
 32 31  1  0
 33 28  2  0
 33 32  1  0
 34 33  1  0
 35 34  2  0
 36 35  1  0
 36 27  2  0
 37 36  1  0
 38 37  2  0
 39 38  1  0
 40 39  2  0
 40 35  1  0
  1 41  1  0
  1 42  1  0
  1 43  1  0
  5 44  1  0
  5 45  1  0
  6 46  1  0
  6 47  1  0
  7 48  1  0
  7 49  1  0
 11 50  1  0
 11 51  1  0
 12 52  1  0
 12 53  1  0
 13 54  1  0
 13 55  1  0
 14 56  1  0
 14 57  1  0
 19 58  1  0
 20 59  1  0
 21 60  1  0
 22 61  1  0
 23 62  1  0
 23 63  1  0
 24 64  1  0
 24 65  1  0
 25 66  1  0
 25 67  1  0
 26 68  1  0
 29 69  1  0
 29 70  1  0
 30 71  1  0
 30 72  1  0
 31 73  1  0
 31 74  1  0
 32 75  1  0
 32 76  1  0
 37 77  1  0
 38 78  1  0
 39 79  1  0
 40 80  1  0
M  END
>  <score>  (6) 
-11.398

$$$$
=
     RDKit          3D

 80 85  0  0  0  0  0  0  0  0999 V2000
   -2.5850   66.8810   67.6280 C   0  0  0  0  0  0  0  0  0  0  0  0
   -1.1310   67.2320   67.4380 C   0  0  0  0  0  0  0  0  0  0  0  0
   -0.7950   67.9290   66.4800 O   0  0  0  0  0  0  0  0  0  0  0  0
   -0.2180   66.7530   68.3740 N   0  0  0  0  0  0  0  0  0  0  0  0
   -0.5580   65.8780   69.4980 C   0  0  0  0  0  0  0  0  0  0  0  0
    0.1910   66.1640   70.8080 C   0  0  0  0  0  0  0  0  0  0  0  0
    0.3990   64.9490   71.7120 C   0  0  0  0  0  0  0  0  0  0  0  0
    0.1660   63.3760   70.8140 S   0  0  0  0  0  0  0  0  0  0  0  0
    1.2280   62.3260   71.8290 C   0  0  0  0  0  0  0  0  0  0  0  0
    0.6740   61.5320   72.8460 C   0  0  0  0  0  0  0  0  0  0  0  0
   -0.7670   61.5410   73.2910 C   0  0  0  0  0  0  0  0  0  0  0  0
   -1.2910   60.1210   73.5320 C   0  0  0  0  0  0  0  0  0  0  0  0
   -0.3100   59.1930   74.2600 C   0  0  0  0  0  0  0  0  0  0  0  0
    0.9850   59.8760   74.6890 C   0  0  0  0  0  0  0  0  0  0  0  0
    1.5420   60.7080   73.5610 C   0  0  0  0  0  0  0  0  0  0  0  0
    2.8670   60.6220   73.3250 N   0  0  0  0  0  0  0  0  0  0  0  0
    3.3970   61.3960   72.3690 C   0  0  0  0  0  0  0  0  0  0  0  0
    2.6340   62.2880   71.5870 C   0  0  0  0  0  0  0  0  0  0  0  0
    3.3170   63.0810   70.6270 C   0  0  0  0  0  0  0  0  0  0  0  0
    4.6930   62.9740   70.4310 C   0  0  0  0  0  0  0  0  0  0  0  0
    5.4210   62.0770   71.1950 C   0  0  0  0  0  0  0  0  0  0  0  0
    4.7670   61.3050   72.1560 C   0  0  0  0  0  0  0  0  0  0  0  0
    1.1840   67.1580   68.2180 C   0  0  0  0  0  0  0  0  0  0  0  0
    1.5420   68.4740   68.9170 C   0  0  0  0  0  0  0  0  0  0  0  0
    1.9080   69.5840   67.9360 C   0  0  0  0  0  0  0  0  0  0  0  0
    1.8880   69.1160   66.5380 N   0  0  0  0  0  0  0  0  0  0  0  0
    3.1500   69.2070   65.8840 C   0  0  0  0  0  0  0  0  0  0  0  0
    3.2520   68.7680   64.5570 C   0  0  0  0  0  0  0  0  0  0  0  0
    2.0950   68.2620   63.7370 C   0  0  0  0  0  0  0  0  0  0  0  0
    2.1360   68.8310   62.3150 C   0  0  0  0  0  0  0  0  0  0  0  0
    3.5240   68.8170   61.6600 C   0  0  0  0  0  0  0  0  0  0  0  0
    4.6340   68.2600   62.5490 C   0  0  0  0  0  0  0  0  0  0  0  0
    4.5090   68.7830   63.9550 C   0  0  0  0  0  0  0  0  0  0  0  0
    5.6310   69.2130   64.5710 N   0  0  0  0  0  0  0  0  0  0  0  0
    5.5300   69.6690   65.8270 C   0  0  0  0  0  0  0  0  0  0  0  0
    4.3140   69.6960   66.5460 C   0  0  0  0  0  0  0  0  0  0  0  0
    4.3260   70.2130   67.8670 C   0  0  0  0  0  0  0  0  0  0  0  0
    5.5020   70.6740   68.4590 C   0  0  0  0  0  0  0  0  0  0  0  0
    6.6880   70.6320   67.7420 C   0  0  0  0  0  0  0  0  0  0  0  0
    6.6870   70.1330   66.4390 C   0  0  0  0  0  0  0  0  0  0  0  0
   -2.8115   66.8263   68.7030 H   0  0  0  0  0  0  0  0  0  0  0  0
   -3.2129   67.6534   67.1598 H   0  0  0  0  0  0  0  0  0  0  0  0
   -2.7913   65.9072   67.1598 H   0  0  0  0  0  0  0  0  0  0  0  0
   -1.6355   65.9812   69.6941 H   0  0  0  0  0  0  0  0  0  0  0  0
   -0.2581   64.8644   69.1935 H   0  0  0  0  0  0  0  0  0  0  0  0
    1.1798   66.5731   70.5533 H   0  0  0  0  0  0  0  0  0  0  0  0
   -0.4388   66.8650   71.3754 H   0  0  0  0  0  0  0  0  0  0  0  0
    1.4217   64.9785   72.1160 H   0  0  0  0  0  0  0  0  0  0  0  0
   -0.3497   64.9936   72.5166 H   0  0  0  0  0  0  0  0  0  0  0  0
   -0.8486   62.1152   74.2257 H   0  0  0  0  0  0  0  0  0  0  0  0
   -1.3706   62.0003   72.4944 H   0  0  0  0  0  0  0  0  0  0  0  0
   -2.2083   60.1916   74.1350 H   0  0  0  0  0  0  0  0  0  0  0  0
   -1.4602   59.6786   72.5392 H   0  0  0  0  0  0  0  0  0  0  0  0
   -0.8078   58.7991   75.1583 H   0  0  0  0  0  0  0  0  0  0  0  0
   -0.0326   58.4008   73.5490 H   0  0  0  0  0  0  0  0  0  0  0  0
    0.7824   60.5264   75.5527 H   0  0  0  0  0  0  0  0  0  0  0  0
    1.7213   59.1048   74.9596 H   0  0  0  0  0  0  0  0  0  0  0  0
    2.7446   63.7992   70.0216 H   0  0  0  0  0  0  0  0  0  0  0  0
    5.1961   63.5964   69.6763 H   0  0  0  0  0  0  0  0  0  0  0  0
    6.5059   61.9740   71.0454 H   0  0  0  0  0  0  0  0  0  0  0  0
    5.3549   60.6019   72.7644 H   0  0  0  0  0  0  0  0  0  0  0  0
    1.8205   66.3629   68.6336 H   0  0  0  0  0  0  0  0  0  0  0  0
    1.3477   67.3182   67.1421 H   0  0  0  0  0  0  0  0  0  0  0  0
    0.6773   68.8022   69.5125 H   0  0  0  0  0  0  0  0  0  0  0  0
    2.4235   68.2851   69.5473 H   0  0  0  0  0  0  0  0  0  0  0  0
    1.1859   70.4066   68.0453 H   0  0  0  0  0  0  0  0  0  0  0  0
    2.9303   69.9178   68.1674 H   0  0  0  0  0  0  0  0  0  0  0  0
    1.0400   68.7565   66.0770 H   0  0  0  0  0  0  0  0  0  0  0  0
    2.1436   67.1642   63.6862 H   0  0  0  0  0  0  0  0  0  0  0  0
    1.1592   68.5859   64.2160 H   0  0  0  0  0  0  0  0  0  0  0  0
    1.4550   68.2367   61.6881 H   0  0  0  0  0  0  0  0  0  0  0  0
    1.8395   69.8874   62.3937 H   0  0  0  0  0  0  0  0  0  0  0  0
    3.4693   68.2006   60.7505 H   0  0  0  0  0  0  0  0  0  0  0  0
    3.7841   69.8653   61.4516 H   0  0  0  0  0  0  0  0  0  0  0  0
    4.5655   67.1623   62.5656 H   0  0  0  0  0  0  0  0  0  0  0  0
    5.6046   68.5781   62.1405 H   0  0  0  0  0  0  0  0  0  0  0  0
    3.3864   70.2512   68.4376 H   0  0  0  0  0  0  0  0  0  0  0  0
    5.4885   71.0676   69.4861 H   0  0  0  0  0  0  0  0  0  0  0  0
    7.6233   70.9896   68.1973 H   0  0  0  0  0  0  0  0  0  0  0  0
    7.6331   70.1063   65.8785 H   0  0  0  0  0  0  0  0  0  0  0  0
  2  1  1  0
  3  2  2  0
  4  2  1  0
  5  4  1  0
  6  5  1  0
  7  6  1  0
  8  7  1  0
  9  8  1  0
 10  9  1  0
 11 10  1  0
 12 11  1  0
 13 12  1  0
 14 13  1  0
 15 10  2  0
 15 14  1  0
 16 15  1  0
 17 16  2  0
 18  9  2  0
 18 17  1  0
 19 18  1  0
 20 19  2  0
 21 20  1  0
 22 17  1  0
 22 21  2  0
 23  4  1  0
 24 23  1  0
 25 24  1  0
 26 25  1  0
 27 26  1  0
 28 27  1  0
 29 28  1  0
 30 29  1  0
 31 30  1  0
 32 31  1  0
 33 28  2  0
 33 32  1  0
 34 33  1  0
 35 34  2  0
 36 35  1  0
 36 27  2  0
 37 36  1  0
 38 37  2  0
 39 38  1  0
 40 39  2  0
 40 35  1  0
  1 41  1  0
  1 42  1  0
  1 43  1  0
  5 44  1  0
  5 45  1  0
  6 46  1  0
  6 47  1  0
  7 48  1  0
  7 49  1  0
 11 50  1  0
 11 51  1  0
 12 52  1  0
 12 53  1  0
 13 54  1  0
 13 55  1  0
 14 56  1  0
 14 57  1  0
 19 58  1  0
 20 59  1  0
 21 60  1  0
 22 61  1  0
 23 62  1  0
 23 63  1  0
 24 64  1  0
 24 65  1  0
 25 66  1  0
 25 67  1  0
 26 68  1  0
 29 69  1  0
 29 70  1  0
 30 71  1  0
 30 72  1  0
 31 73  1  0
 31 74  1  0
 32 75  1  0
 32 76  1  0
 37 77  1  0
 38 78  1  0
 39 79  1  0
 40 80  1  0
M  END
>  <score>  (7) 
-11.397

$$$$
=
     RDKit          3D

 80 85  0  0  0  0  0  0  0  0999 V2000
    3.4550   63.5090   69.0880 C   0  0  0  0  0  0  0  0  0  0  0  0
    2.1410   63.2990   69.7980 C   0  0  0  0  0  0  0  0  0  0  0  0
    1.6780   62.1620   69.8940 O   0  0  0  0  0  0  0  0  0  0  0  0
    1.5020   64.4160   70.3300 N   0  0  0  0  0  0  0  0  0  0  0  0
    1.9830   65.7940   70.1960 C   0  0  0  0  0  0  0  0  0  0  0  0
    0.9540   66.8030   69.6660 C   0  0  0  0  0  0  0  0  0  0  0  0
    0.9400   66.9740   68.1470 C   0  0  0  0  0  0  0  0  0  0  0  0
    0.6990   68.7150   67.6520 S   0  0  0  0  0  0  0  0  0  0  0  0
    2.2820   68.9830   66.8260 C   0  0  0  0  0  0  0  0  0  0  0  0
    2.4560   68.5920   65.4890 C   0  0  0  0  0  0  0  0  0  0  0  0
    1.4610   67.8290   64.6520 C   0  0  0  0  0  0  0  0  0  0  0  0
    1.3690   68.3960   63.2310 C   0  0  0  0  0  0  0  0  0  0  0  0
    2.7180   68.7650   62.6010 C   0  0  0  0  0  0  0  0  0  0  0  0
    3.9210   68.4230   63.4740 C   0  0  0  0  0  0  0  0  0  0  0  0
    3.6870   68.8700   64.8950 C   0  0  0  0  0  0  0  0  0  0  0  0
    4.7030   69.4970   65.5220 N   0  0  0  0  0  0  0  0  0  0  0  0
    4.5430   69.8500   66.8040 C   0  0  0  0  0  0  0  0  0  0  0  0
    3.3560   69.6090   67.5270 C   0  0  0  0  0  0  0  0  0  0  0  0
    3.3190   69.9980   68.8930 C   0  0  0  0  0  0  0  0  0  0  0  0
    4.4020   70.6260   69.5060 C   0  0  0  0  0  0  0  0  0  0  0  0
    5.5510   70.8720   68.7730 C   0  0  0  0  0  0  0  0  0  0  0  0
    5.6090   70.4770   67.4360 C   0  0  0  0  0  0  0  0  0  0  0  0
    0.2600   64.1920   71.0770 C   0  0  0  0  0  0  0  0  0  0  0  0
    0.4360   64.1640   72.6000 C   0  0  0  0  0  0  0  0  0  0  0  0
    0.0130   62.8360   73.2200 C   0  0  0  0  0  0  0  0  0  0  0  0
    1.0110   62.3300   74.1820 N   0  0  0  0  0  0  0  0  0  0  0  0
    1.5870   61.0830   73.8090 C   0  0  0  0  0  0  0  0  0  0  0  0
    0.9260   59.9020   74.1720 C   0  0  0  0  0  0  0  0  0  0  0  0
   -0.4030   59.8550   74.8800 C   0  0  0  0  0  0  0  0  0  0  0  0
   -1.3160   58.7880   74.2670 C   0  0  0  0  0  0  0  0  0  0  0  0
   -0.6260   57.4480   73.9700 C   0  0  0  0  0  0  0  0  0  0  0  0
    0.8610   57.4180   74.3150 C   0  0  0  0  0  0  0  0  0  0  0  0
    1.5410   58.6870   73.8770 C   0  0  0  0  0  0  0  0  0  0  0  0
    2.7290   58.5810   73.2450 N   0  0  0  0  0  0  0  0  0  0  0  0
    3.3460   59.7080   72.8620 C   0  0  0  0  0  0  0  0  0  0  0  0
    2.8280   60.9990   73.1120 C   0  0  0  0  0  0  0  0  0  0  0  0
    3.5640   62.1190   72.6490 C   0  0  0  0  0  0  0  0  0  0  0  0
    4.7760   61.9680   71.9740 C   0  0  0  0  0  0  0  0  0  0  0  0
    5.2730   60.6950   71.7450 C   0  0  0  0  0  0  0  0  0  0  0  0
    4.5550   59.5840   72.1890 C   0  0  0  0  0  0  0  0  0  0  0  0
    4.2565   63.6371   69.8304 H   0  0  0  0  0  0  0  0  0  0  0  0
    3.6751   62.6346   68.4579 H   0  0  0  0  0  0  0  0  0  0  0  0
    3.3917   64.4084   68.4579 H   0  0  0  0  0  0  0  0  0  0  0  0
    2.3135   66.1359   71.1879 H   0  0  0  0  0  0  0  0  0  0  0  0
    2.7887   65.7620   69.4478 H   0  0  0  0  0  0  0  0  0  0  0  0
   -0.0454   66.4685   69.9810 H   0  0  0  0  0  0  0  0  0  0  0  0
    1.2389   67.7803   70.0828 H   0  0  0  0  0  0  0  0  0  0  0  0
    1.8993   66.6199   67.7417 H   0  0  0  0  0  0  0  0  0  0  0  0
    0.0974   66.3896   67.7488 H   0  0  0  0  0  0  0  0  0  0  0  0
    1.7737   66.7758   64.5969 H   0  0  0  0  0  0  0  0  0  0  0  0
    0.4717   67.9201   65.1242 H   0  0  0  0  0  0  0  0  0  0  0  0
    0.8867   67.6420   62.5915 H   0  0  0  0  0  0  0  0  0  0  0  0
    0.7941   69.3309   63.3055 H   0  0  0  0  0  0  0  0  0  0  0  0
    2.8156   68.2230   61.6488 H   0  0  0  0  0  0  0  0  0  0  0  0
    2.7203   69.8568   62.4671 H   0  0  0  0  0  0  0  0  0  0  0  0
    4.0816   67.3349   63.4587 H   0  0  0  0  0  0  0  0  0  0  0  0
    4.8063   68.9428   63.0789 H   0  0  0  0  0  0  0  0  0  0  0  0
    2.4119   69.7983   69.4823 H   0  0  0  0  0  0  0  0  0  0  0  0
    4.3445   70.9238   70.5634 H   0  0  0  0  0  0  0  0  0  0  0  0
    6.4105   71.3745   69.2408 H   0  0  0  0  0  0  0  0  0  0  0  0
    6.5289   70.6684   66.8640 H   0  0  0  0  0  0  0  0  0  0  0  0
   -0.4433   64.9998   70.8263 H   0  0  0  0  0  0  0  0  0  0  0  0
   -0.1088   63.1979   70.7842 H   0  0  0  0  0  0  0  0  0  0  0  0
    1.4963   64.3393   72.8345 H   0  0  0  0  0  0  0  0  0  0  0  0
   -0.2105   64.9474   73.0224 H   0  0  0  0  0  0  0  0  0  0  0  0
   -0.9441   62.9777   73.7433 H   0  0  0  0  0  0  0  0  0  0  0  0
   -0.0809   62.0982   72.4095 H   0  0  0  0  0  0  0  0  0  0  0  0
    1.2671   62.8327   75.0437 H   0  0  0  0  0  0  0  0  0  0  0  0
   -0.2367   59.6190   75.9414 H   0  0  0  0  0  0  0  0  0  0  0  0
   -0.8906   60.8353   74.7742 H   0  0  0  0  0  0  0  0  0  0  0  0
   -2.1425   58.6001   74.9681 H   0  0  0  0  0  0  0  0  0  0  0  0
   -1.6529   59.1859   73.2984 H   0  0  0  0  0  0  0  0  0  0  0  0
   -1.1310   56.6636   74.5529 H   0  0  0  0  0  0  0  0  0  0  0  0
   -0.7012   57.2883   72.8842 H   0  0  0  0  0  0  0  0  0  0  0  0
    0.9758   57.3053   75.4032 H   0  0  0  0  0  0  0  0  0  0  0  0
    1.3262   56.5712   73.7891 H   0  0  0  0  0  0  0  0  0  0  0  0
    3.1703   63.1308   72.8261 H   0  0  0  0  0  0  0  0  0  0  0  0
    5.3318   62.8515   71.6269 H   0  0  0  0  0  0  0  0  0  0  0  0
    6.2282   60.5610   71.2162 H   0  0  0  0  0  0  0  0  0  0  0  0
    4.9589   58.5784   72.0002 H   0  0  0  0  0  0  0  0  0  0  0  0
  2  1  1  0
  3  2  2  0
  4  2  1  0
  5  4  1  0
  6  5  1  0
  7  6  1  0
  8  7  1  0
  9  8  1  0
 10  9  1  0
 11 10  1  0
 12 11  1  0
 13 12  1  0
 14 13  1  0
 15 10  2  0
 15 14  1  0
 16 15  1  0
 17 16  2  0
 18  9  2  0
 18 17  1  0
 19 18  1  0
 20 19  2  0
 21 20  1  0
 22 17  1  0
 22 21  2  0
 23  4  1  0
 24 23  1  0
 25 24  1  0
 26 25  1  0
 27 26  1  0
 28 27  1  0
 29 28  1  0
 30 29  1  0
 31 30  1  0
 32 31  1  0
 33 28  2  0
 33 32  1  0
 34 33  1  0
 35 34  2  0
 36 35  1  0
 36 27  2  0
 37 36  1  0
 38 37  2  0
 39 38  1  0
 40 39  2  0
 40 35  1  0
  1 41  1  0
  1 42  1  0
  1 43  1  0
  5 44  1  0
  5 45  1  0
  6 46  1  0
  6 47  1  0
  7 48  1  0
  7 49  1  0
 11 50  1  0
 11 51  1  0
 12 52  1  0
 12 53  1  0
 13 54  1  0
 13 55  1  0
 14 56  1  0
 14 57  1  0
 19 58  1  0
 20 59  1  0
 21 60  1  0
 22 61  1  0
 23 62  1  0
 23 63  1  0
 24 64  1  0
 24 65  1  0
 25 66  1  0
 25 67  1  0
 26 68  1  0
 29 69  1  0
 29 70  1  0
 30 71  1  0
 30 72  1  0
 31 73  1  0
 31 74  1  0
 32 75  1  0
 32 76  1  0
 37 77  1  0
 38 78  1  0
 39 79  1  0
 40 80  1  0
M  END
>  <score>  (8) 
-11.242

$$$$
=
     RDKit          3D

 80 85  0  0  0  0  0  0  0  0999 V2000
    3.7990   63.5520   69.5840 C   0  0  0  0  0  0  0  0  0  0  0  0
    2.3750   63.2400   69.9650 C   0  0  0  0  0  0  0  0  0  0  0  0
    1.9990   62.0680   70.0020 O   0  0  0  0  0  0  0  0  0  0  0  0
    1.5340   64.3070   70.2730 N   0  0  0  0  0  0  0  0  0  0  0  0
    1.9160   65.7190   70.1930 C   0  0  0  0  0  0  0  0  0  0  0  0
    0.8380   66.6640   69.6400 C   0  0  0  0  0  0  0  0  0  0  0  0
    0.9420   66.9560   68.1430 C   0  0  0  0  0  0  0  0  0  0  0  0
    0.7470   68.7330   67.7730 S   0  0  0  0  0  0  0  0  0  0  0  0
    2.2990   68.9970   66.8900 C   0  0  0  0  0  0  0  0  0  0  0  0
    2.4230   68.6080   65.5470 C   0  0  0  0  0  0  0  0  0  0  0  0
    1.3940   67.8500   64.7460 C   0  0  0  0  0  0  0  0  0  0  0  0
    1.2520   68.4190   63.3290 C   0  0  0  0  0  0  0  0  0  0  0  0
    2.5770   68.7860   62.6500 C   0  0  0  0  0  0  0  0  0  0  0  0
    3.8120   68.4380   63.4780 C   0  0  0  0  0  0  0  0  0  0  0  0
    3.6320   68.8830   64.9070 C   0  0  0  0  0  0  0  0  0  0  0  0
    4.6720   69.5060   65.4980 N   0  0  0  0  0  0  0  0  0  0  0  0
    4.5600   69.8570   66.7860 C   0  0  0  0  0  0  0  0  0  0  0  0
    3.4000   69.6180   67.5520 C   0  0  0  0  0  0  0  0  0  0  0  0
    3.4160   70.0060   68.9180 C   0  0  0  0  0  0  0  0  0  0  0  0
    4.5220   70.6290   69.4920 C   0  0  0  0  0  0  0  0  0  0  0  0
    5.6440   70.8730   68.7170 C   0  0  0  0  0  0  0  0  0  0  0  0
    5.6510   70.4800   67.3780 C   0  0  0  0  0  0  0  0  0  0  0  0
    0.1700   63.9870   70.7090 C   0  0  0  0  0  0  0  0  0  0  0  0
    0.0490   63.6380   72.1970 C   0  0  0  0  0  0  0  0  0  0  0  0
   -0.5040   62.2350   72.4310 C   0  0  0  0  0  0  0  0  0  0  0  0
   -0.0410   61.6630   73.7090 N   0  0  0  0  0  0  0  0  0  0  0  0
   -0.3830   60.2920   73.8820 C   0  0  0  0  0  0  0  0  0  0  0  0
   -1.5780   59.9770   74.5440 C   0  0  0  0  0  0  0  0  0  0  0  0
   -2.5730   60.9950   75.0340 C   0  0  0  0  0  0  0  0  0  0  0  0
   -4.0080   60.5610   74.7180 C   0  0  0  0  0  0  0  0  0  0  0  0
   -4.3090   59.0840   75.0080 C   0  0  0  0  0  0  0  0  0  0  0  0
   -3.1160   58.2930   75.5420 C   0  0  0  0  0  0  0  0  0  0  0  0
   -1.8620   58.6330   74.7820 C   0  0  0  0  0  0  0  0  0  0  0  0
   -1.0620   57.6160   74.3960 N   0  0  0  0  0  0  0  0  0  0  0  0
    0.0620   57.9130   73.7300 C   0  0  0  0  0  0  0  0  0  0  0  0
    0.4630   59.2360   73.4360 C   0  0  0  0  0  0  0  0  0  0  0  0
    1.6690   59.4270   72.7130 C   0  0  0  0  0  0  0  0  0  0  0  0
    2.4550   58.3490   72.3070 C   0  0  0  0  0  0  0  0  0  0  0  0
    2.0510   57.0580   72.6110 C   0  0  0  0  0  0  0  0  0  0  0  0
    0.8630   56.8570   73.3150 C   0  0  0  0  0  0  0  0  0  0  0  0
    4.4017   63.6841   70.4947 H   0  0  0  0  0  0  0  0  0  0  0  0
    4.2097   62.7225   68.9896 H   0  0  0  0  0  0  0  0  0  0  0  0
    3.8252   64.4772   68.9896 H   0  0  0  0  0  0  0  0  0  0  0  0
    2.1766   66.0578   71.2066 H   0  0  0  0  0  0  0  0  0  0  0  0
    2.7537   65.7661   69.4816 H   0  0  0  0  0  0  0  0  0  0  0  0
   -0.1452   66.2096   69.8317 H   0  0  0  0  0  0  0  0  0  0  0  0
    0.9809   67.6270   70.1520 H   0  0  0  0  0  0  0  0  0  0  0  0
    1.9283   66.6256   67.7851 H   0  0  0  0  0  0  0  0  0  0  0  0
    0.1304   66.4140   67.6356 H   0  0  0  0  0  0  0  0  0  0  0  0
    1.6998   66.7955   64.6785 H   0  0  0  0  0  0  0  0  0  0  0  0
    0.4232   67.9452   65.2544 H   0  0  0  0  0  0  0  0  0  0  0  0
    0.7451   67.6667   62.7069 H   0  0  0  0  0  0  0  0  0  0  0  0
    0.6828   69.3553   63.4258 H   0  0  0  0  0  0  0  0  0  0  0  0
    2.6375   68.2461   61.6935 H   0  0  0  0  0  0  0  0  0  0  0  0
    2.5774   69.8781   62.5184 H   0  0  0  0  0  0  0  0  0  0  0  0
    3.9684   67.3494   63.4548 H   0  0  0  0  0  0  0  0  0  0  0  0
    4.6838   68.9555   63.0513 H   0  0  0  0  0  0  0  0  0  0  0  0
    2.5305   69.8091   69.5402 H   0  0  0  0  0  0  0  0  0  0  0  0
    4.5045   70.9246   70.5514 H   0  0  0  0  0  0  0  0  0  0  0  0
    6.5218   71.3722   69.1533 H   0  0  0  0  0  0  0  0  0  0  0  0
    6.5493   70.6697   66.7721 H   0  0  0  0  0  0  0  0  0  0  0  0
   -0.4699   64.8585   70.5064 H   0  0  0  0  0  0  0  0  0  0  0  0
   -0.1378   63.0915   70.1493 H   0  0  0  0  0  0  0  0  0  0  0  0
    1.0465   63.7039   72.6559 H   0  0  0  0  0  0  0  0  0  0  0  0
   -0.6554   64.3519   72.6490 H   0  0  0  0  0  0  0  0  0  0  0  0
   -1.6029   62.2839   72.4415 H   0  0  0  0  0  0  0  0  0  0  0  0
   -0.1415   61.5878   71.6188 H   0  0  0  0  0  0  0  0  0  0  0  0
    0.4816   62.2054   74.4116 H   0  0  0  0  0  0  0  0  0  0  0  0
   -2.4637   61.1090   76.1226 H   0  0  0  0  0  0  0  0  0  0  0  0
   -2.3764   61.9493   74.5234 H   0  0  0  0  0  0  0  0  0  0  0  0
   -4.6926   61.1753   75.3213 H   0  0  0  0  0  0  0  0  0  0  0  0
   -4.1435   60.6993   73.6352 H   0  0  0  0  0  0  0  0  0  0  0  0
   -5.1157   59.0368   75.7543 H   0  0  0  0  0  0  0  0  0  0  0  0
   -4.5877   58.6247   74.0481 H   0  0  0  0  0  0  0  0  0  0  0  0
   -2.9698   58.5356   76.6049 H   0  0  0  0  0  0  0  0  0  0  0  0
   -3.3221   57.2197   75.4175 H   0  0  0  0  0  0  0  0  0  0  0  0
    1.9915   60.4495   72.4670 H   0  0  0  0  0  0  0  0  0  0  0  0
    3.3878   58.5215   71.7502 H   0  0  0  0  0  0  0  0  0  0  0  0
    2.6625   56.1984   72.2995 H   0  0  0  0  0  0  0  0  0  0  0  0
    0.5507   55.8285   73.5489 H   0  0  0  0  0  0  0  0  0  0  0  0
  2  1  1  0
  3  2  2  0
  4  2  1  0
  5  4  1  0
  6  5  1  0
  7  6  1  0
  8  7  1  0
  9  8  1  0
 10  9  1  0
 11 10  1  0
 12 11  1  0
 13 12  1  0
 14 13  1  0
 15 10  2  0
 15 14  1  0
 16 15  1  0
 17 16  2  0
 18  9  2  0
 18 17  1  0
 19 18  1  0
 20 19  2  0
 21 20  1  0
 22 17  1  0
 22 21  2  0
 23  4  1  0
 24 23  1  0
 25 24  1  0
 26 25  1  0
 27 26  1  0
 28 27  1  0
 29 28  1  0
 30 29  1  0
 31 30  1  0
 32 31  1  0
 33 28  2  0
 33 32  1  0
 34 33  1  0
 35 34  2  0
 36 35  1  0
 36 27  2  0
 37 36  1  0
 38 37  2  0
 39 38  1  0
 40 39  2  0
 40 35  1  0
  1 41  1  0
  1 42  1  0
  1 43  1  0
  5 44  1  0
  5 45  1  0
  6 46  1  0
  6 47  1  0
  7 48  1  0
  7 49  1  0
 11 50  1  0
 11 51  1  0
 12 52  1  0
 12 53  1  0
 13 54  1  0
 13 55  1  0
 14 56  1  0
 14 57  1  0
 19 58  1  0
 20 59  1  0
 21 60  1  0
 22 61  1  0
 23 62  1  0
 23 63  1  0
 24 64  1  0
 24 65  1  0
 25 66  1  0
 25 67  1  0
 26 68  1  0
 29 69  1  0
 29 70  1  0
 30 71  1  0
 30 72  1  0
 31 73  1  0
 31 74  1  0
 32 75  1  0
 32 76  1  0
 37 77  1  0
 38 78  1  0
 39 79  1  0
 40 80  1  0
M  END
>  <score>  (9) 
-11.201

$$$$
