=
     RDKit          3D

 30 31  0  0  0  0  0  0  0  0999 V2000
    3.1410   68.7720   63.8160 C   0  0  0  0  0  0  0  0  0  0  0  0
    4.4780   69.1860   63.7560 C   0  0  0  0  0  0  0  0  0  0  0  0
    5.1530   69.6110   64.9070 C   0  0  0  0  0  0  0  0  0  0  0  0
    4.5110   69.6410   66.1570 C   0  0  0  0  0  0  0  0  0  0  0  0
    3.1710   69.2290   66.1990 C   0  0  0  0  0  0  0  0  0  0  0  0
    2.4930   68.8000   65.0560 C   0  0  0  0  0  0  0  0  0  0  0  0
    2.4990   69.2330   67.3640 F   0  0  0  0  0  0  0  0  0  0  0  0
    5.2300   70.0890   67.3640 C   0  0  0  0  0  0  0  0  0  0  0  0
    4.5460   70.3090   68.5730 C   0  0  0  0  0  0  0  0  0  0  0  0
    5.2250   70.7250   69.7220 C   0  0  0  0  0  0  0  0  0  0  0  0
    6.6020   70.9280   69.6840 C   0  0  0  0  0  0  0  0  0  0  0  0
    7.2990   70.7170   68.4970 C   0  0  0  0  0  0  0  0  0  0  0  0
    6.6180   70.3020   67.3490 C   0  0  0  0  0  0  0  0  0  0  0  0
    2.3920   68.3280   62.5710 C   0  0  1  0  0  0  0  0  0  0  0  0
    1.1800   69.2220   62.3160 C   0  0  0  0  0  0  0  0  0  0  0  0
    3.2430   69.2030   60.5130 O   0  0  0  0  0  1  0  0  0  0  0  0
    3.3290   68.2530   61.3450 C   0  0  0  0  0  0  0  0  0  0  0  0
    4.0730   67.2290   61.3040 O   0  0  0  0  0  0  0  0  0  0  0  0
    5.0053   69.1771   62.7907 H   0  0  0  0  0  0  0  0  0  0  0  0
    6.2040   69.9269   64.8315 H   0  0  0  0  0  0  0  0  0  0  0  0
    1.4426   68.4820   65.1309 H   0  0  0  0  0  0  0  0  0  0  0  0
    3.4582   70.1510   68.6152 H   0  0  0  0  0  0  0  0  0  0  0  0
    4.6707   70.8922   70.6573 H   0  0  0  0  0  0  0  0  0  0  0  0
    7.1372   71.2538   70.5881 H   0  0  0  0  0  0  0  0  0  0  0  0
    8.3867   70.8771   68.4628 H   0  0  0  0  0  0  0  0  0  0  0  0
    7.1794   70.1393   66.4171 H   0  0  0  0  0  0  0  0  0  0  0  0
    2.0158   67.3090   62.7444 H   0  0  0  0  0  0  0  0  0  0  0  0
    0.7497   69.5394   63.2773 H   0  0  0  0  0  0  0  0  0  0  0  0
    1.4919   70.1080   61.7435 H   0  0  0  0  0  0  0  0  0  0  0  0
    0.4256   68.6624   61.7435 H   0  0  0  0  0  0  0  0  0  0  0  0
  2  1  2  0
  3  2  1  0
  4  3  2  0
  5  4  1  0
  6  1  1  0
  6  5  2  0
  7  5  1  0
  8  4  1  0
  9  8  2  0
 10  9  1  0
 11 10  2  0
 12 11  1  0
 13  8  1  0
 13 12  2  0
 14  1  1  0
 15 14  1  0
 17 16  1  0
 17 14  1  0
 18 17  2  0
  2 19  1  0
  3 20  1  0
  6 21  1  0
  9 22  1  0
 10 23  1  0
 11 24  1  0
 12 25  1  0
 13 26  1  0
 14 27  1  1
 15 28  1  0
 15 29  1  0
 15 30  1  0
M  CHG  1  16  -1
M  END
>  <score>  (1) 
-10.645

$$$$
=
     RDKit          3D

 30 31  0  0  0  0  0  0  0  0999 V2000
    3.0080   68.7710   63.7280 C   0  0  0  0  0  0  0  0  0  0  0  0
    2.3860   68.7000   64.9810 C   0  0  0  0  0  0  0  0  0  0  0  0
    3.0510   69.1190   66.1400 C   0  0  0  0  0  0  0  0  0  0  0  0
    4.3630   69.6180   66.0850 C   0  0  0  0  0  0  0  0  0  0  0  0
    4.9740   69.6780   64.8240 C   0  0  0  0  0  0  0  0  0  0  0  0
    4.3160   69.2650   63.6640 C   0  0  0  0  0  0  0  0  0  0  0  0
    6.2280   70.1460   64.7020 F   0  0  0  0  0  0  0  0  0  0  0  0
    5.0540   70.0580   67.3110 C   0  0  0  0  0  0  0  0  0  0  0  0
    4.3410   70.2920   68.5000 C   0  0  0  0  0  0  0  0  0  0  0  0
    4.9930   70.7010   69.6670 C   0  0  0  0  0  0  0  0  0  0  0  0
    6.3730   70.8830   69.6670 C   0  0  0  0  0  0  0  0  0  0  0  0
    7.1000   70.6590   68.5010 C   0  0  0  0  0  0  0  0  0  0  0  0
    6.4450   70.2510   67.3350 C   0  0  0  0  0  0  0  0  0  0  0  0
    2.3050   68.3000   62.4650 C   0  0  1  0  0  0  0  0  0  0  0  0
    1.0900   69.1740   62.1590 C   0  0  0  0  0  0  0  0  0  0  0  0
    3.2130   69.1600   60.4250 O   0  0  0  0  0  1  0  0  0  0  0  0
    3.2830   68.2220   61.2720 C   0  0  0  0  0  0  0  0  0  0  0  0
    4.0400   67.2060   61.2670 O   0  0  0  0  0  0  0  0  0  0  0  0
    1.3604   68.3095   65.0557 H   0  0  0  0  0  0  0  0  0  0  0  0
    2.5370   69.0563   67.1105 H   0  0  0  0  0  0  0  0  0  0  0  0
    4.8291   69.3283   62.6930 H   0  0  0  0  0  0  0  0  0  0  0  0
    3.2502   70.1507   68.5122 H   0  0  0  0  0  0  0  0  0  0  0  0
    4.4151   70.8791   70.5859 H   0  0  0  0  0  0  0  0  0  0  0  0
    6.8874   71.2027   70.5852 H   0  0  0  0  0  0  0  0  0  0  0  0
    8.1905   70.8031   68.4970 H   0  0  0  0  0  0  0  0  0  0  0  0
    7.0299   70.0780   66.4196 H   0  0  0  0  0  0  0  0  0  0  0  0
    1.9361   67.2785   62.6393 H   0  0  0  0  0  0  0  0  0  0  0  0
    0.6297   69.5051   63.1016 H   0  0  0  0  0  0  0  0  0  0  0  0
    1.4072   70.0522   61.5775 H   0  0  0  0  0  0  0  0  0  0  0  0
    0.3582   68.5940   61.5775 H   0  0  0  0  0  0  0  0  0  0  0  0
  2  1  2  0
  3  2  1  0
  4  3  2  0
  5  4  1  0
  6  1  1  0
  6  5  2  0
  7  5  1  0
  8  4  1  0
  9  8  2  0
 10  9  1  0
 11 10  2  0
 12 11  1  0
 13  8  1  0
 13 12  2  0
 14  1  1  0
 15 14  1  0
 17 16  1  0
 17 14  1  0
 18 17  2  0
  2 19  1  0
  3 20  1  0
  6 21  1  0
  9 22  1  0
 10 23  1  0
 11 24  1  0
 12 25  1  0
 13 26  1  0
 14 27  1  1
 15 28  1  0
 15 29  1  0
 15 30  1  0
M  CHG  1  16  -1
M  END
>  <score>  (2) 
-10.357

$$$$
=
     RDKit          3D

 30 31  0  0  0  0  0  0  0  0999 V2000
    4.5170   69.8290   67.2360 C   0  0  0  0  0  0  0  0  0  0  0  0
    3.6640   69.9980   68.3340 C   0  0  0  0  0  0  0  0  0  0  0  0
    2.3290   69.5770   68.2810 C   0  0  0  0  0  0  0  0  0  0  0  0
    1.8010   68.9790   67.1250 C   0  0  0  0  0  0  0  0  0  0  0  0
    2.6660   68.8220   66.0310 C   0  0  0  0  0  0  0  0  0  0  0  0
    3.9990   69.2350   66.0790 C   0  0  0  0  0  0  0  0  0  0  0  0
    2.2240   68.2570   64.8950 F   0  0  0  0  0  0  0  0  0  0  0  0
    0.3950   68.5390   67.0780 C   0  0  0  0  0  0  0  0  0  0  0  0
   -0.5470   69.2090   66.2780 C   0  0  0  0  0  0  0  0  0  0  0  0
   -1.8800   68.7890   66.2240 C   0  0  0  0  0  0  0  0  0  0  0  0
   -2.2950   67.6890   66.9700 C   0  0  0  0  0  0  0  0  0  0  0  0
   -1.3800   67.0110   67.7700 C   0  0  0  0  0  0  0  0  0  0  0  0
   -0.0480   67.4330   67.8230 C   0  0  0  0  0  0  0  0  0  0  0  0
    5.9620   70.2990   67.2730 C   0  0  1  0  0  0  0  0  0  0  0  0
    6.4140   70.7830   65.8970 C   0  0  0  0  0  0  0  0  0  0  0  0
    5.8510   72.5530   68.0690 O   0  0  0  0  0  1  0  0  0  0  0  0
    6.1780   71.3680   68.3680 C   0  0  0  0  0  0  0  0  0  0  0  0
    6.6820   70.9330   69.4460 O   0  0  0  0  0  0  0  0  0  0  0  0
    4.0480   70.4682   69.2513 H   0  0  0  0  0  0  0  0  0  0  0  0
    1.6829   69.7172   69.1601 H   0  0  0  0  0  0  0  0  0  0  0  0
    4.6467   69.0926   65.2014 H   0  0  0  0  0  0  0  0  0  0  0  0
   -0.2301   70.0789   65.6840 H   0  0  0  0  0  0  0  0  0  0  0  0
   -2.6010   69.3280   65.5918 H   0  0  0  0  0  0  0  0  0  0  0  0
   -3.3428   67.3569   66.9272 H   0  0  0  0  0  0  0  0  0  0  0  0
   -1.7050   66.1422   68.3612 H   0  0  0  0  0  0  0  0  0  0  0  0
    0.6659   66.8894   68.4593 H   0  0  0  0  0  0  0  0  0  0  0  0
    6.5947   69.4396   67.5395 H   0  0  0  0  0  0  0  0  0  0  0  0
    7.1604   71.5822   66.0164 H   0  0  0  0  0  0  0  0  0  0  0  0
    6.8600   69.9447   65.3417 H   0  0  0  0  0  0  0  0  0  0  0  0
    5.5472   71.1707   65.3417 H   0  0  0  0  0  0  0  0  0  0  0  0
  2  1  2  0
  3  2  1  0
  4  3  2  0
  5  4  1  0
  6  1  1  0
  6  5  2  0
  7  5  1  0
  8  4  1  0
  9  8  2  0
 10  9  1  0
 11 10  2  0
 12 11  1  0
 13  8  1  0
 13 12  2  0
 14  1  1  0
 15 14  1  0
 17 16  1  0
 17 14  1  0
 18 17  2  0
  2 19  1  0
  3 20  1  0
  6 21  1  0
  9 22  1  0
 10 23  1  0
 11 24  1  0
 12 25  1  0
 13 26  1  0
 14 27  1  1
 15 28  1  0
 15 29  1  0
 15 30  1  0
M  CHG  1  16  -1
M  END
>  <score>  (3) 
-10.28

$$$$
=
     RDKit          3D

 30 31  0  0  0  0  0  0  0  0999 V2000
    0.2850   68.2900   66.6260 C   0  0  0  0  0  0  0  0  0  0  0  0
    0.5020   69.2330   67.6400 C   0  0  0  0  0  0  0  0  0  0  0  0
    1.7800   69.7520   67.8780 C   0  0  0  0  0  0  0  0  0  0  0  0
    2.8860   69.3420   67.1140 C   0  0  0  0  0  0  0  0  0  0  0  0
    2.6530   68.3940   66.1070 C   0  0  0  0  0  0  0  0  0  0  0  0
    1.3800   67.8750   65.8610 C   0  0  0  0  0  0  0  0  0  0  0  0
    3.6680   67.9600   65.3390 F   0  0  0  0  0  0  0  0  0  0  0  0
    4.2280   69.8960   67.3710 C   0  0  0  0  0  0  0  0  0  0  0  0
    4.5740   70.3960   68.6400 C   0  0  0  0  0  0  0  0  0  0  0  0
    5.8480   70.9130   68.8910 C   0  0  0  0  0  0  0  0  0  0  0  0
    6.8020   70.9400   67.8770 C   0  0  0  0  0  0  0  0  0  0  0  0
    6.4810   70.4520   66.6140 C   0  0  0  0  0  0  0  0  0  0  0  0
    5.2070   69.9350   66.3650 C   0  0  0  0  0  0  0  0  0  0  0  0
   -1.0940   67.7030   66.3710 C   0  0  1  0  0  0  0  0  0  0  0  0
   -1.8050   67.3910   67.6860 C   0  0  0  0  0  0  0  0  0  0  0  0
   -1.4880   68.8110   64.2870 O   0  0  0  0  0  1  0  0  0  0  0  0
   -1.9360   68.6200   65.4550 C   0  0  0  0  0  0  0  0  0  0  0  0
   -2.9800   69.0950   65.9920 O   0  0  0  0  0  0  0  0  0  0  0  0
   -0.3438   69.5699   68.2574 H   0  0  0  0  0  0  0  0  0  0  0  0
    1.9212   70.4942   68.6775 H   0  0  0  0  0  0  0  0  0  0  0  0
    1.2375   67.1347   65.0600 H   0  0  0  0  0  0  0  0  0  0  0  0
    3.8286   70.3797   69.4488 H   0  0  0  0  0  0  0  0  0  0  0  0
    6.0973   71.2989   69.8905 H   0  0  0  0  0  0  0  0  0  0  0  0
    7.8054   71.3455   68.0736 H   0  0  0  0  0  0  0  0  0  0  0  0
    7.2316   70.4733   65.8102 H   0  0  0  0  0  0  0  0  0  0  0  0
    4.9665   69.5515   65.3625 H   0  0  0  0  0  0  0  0  0  0  0  0
   -0.9671   66.7508   65.8351 H   0  0  0  0  0  0  0  0  0  0  0  0
   -1.1579   67.6749   68.5290 H   0  0  0  0  0  0  0  0  0  0  0  0
   -2.7455   67.9591   67.7381 H   0  0  0  0  0  0  0  0  0  0  0  0
   -2.0237   66.3142   67.7381 H   0  0  0  0  0  0  0  0  0  0  0  0
  2  1  2  0
  3  2  1  0
  4  3  2  0
  5  4  1  0
  6  1  1  0
  6  5  2  0
  7  5  1  0
  8  4  1  0
  9  8  2  0
 10  9  1  0
 11 10  2  0
 12 11  1  0
 13  8  1  0
 13 12  2  0
 14  1  1  0
 15 14  1  0
 17 16  1  0
 17 14  1  0
 18 17  2  0
  2 19  1  0
  3 20  1  0
  6 21  1  0
  9 22  1  0
 10 23  1  0
 11 24  1  0
 12 25  1  0
 13 26  1  0
 14 27  1  6
 15 28  1  0
 15 29  1  0
 15 30  1  0
M  CHG  1  16  -1
M  END
>  <score>  (4) 
-9.745

$$$$
=
     RDKit          3D

 30 31  0  0  0  0  0  0  0  0999 V2000
    0.4760   69.1220   66.8380 C   0  0  0  0  0  0  0  0  0  0  0  0
    1.4980   68.7080   65.9750 C   0  0  0  0  0  0  0  0  0  0  0  0
    2.8370   69.0180   66.2440 C   0  0  0  0  0  0  0  0  0  0  0  0
    3.1970   69.7580   67.3820 C   0  0  0  0  0  0  0  0  0  0  0  0
    2.1610   70.1710   68.2340 C   0  0  0  0  0  0  0  0  0  0  0  0
    0.8240   69.8610   67.9740 C   0  0  0  0  0  0  0  0  0  0  0  0
    2.4380   70.8810   69.3400 F   0  0  0  0  0  0  0  0  0  0  0  0
    4.6100   70.0790   67.6580 C   0  0  0  0  0  0  0  0  0  0  0  0
    5.0060   70.5900   68.9060 C   0  0  0  0  0  0  0  0  0  0  0  0
    6.3450   70.8860   69.1750 C   0  0  0  0  0  0  0  0  0  0  0  0
    7.3150   70.6770   68.1990 C   0  0  0  0  0  0  0  0  0  0  0  0
    6.9460   70.1740   66.9540 C   0  0  0  0  0  0  0  0  0  0  0  0
    5.6060   69.8780   66.6880 C   0  0  0  0  0  0  0  0  0  0  0  0
   -0.9840   68.8100   66.5470 C   0  0  1  0  0  0  0  0  0  0  0  0
   -1.2250   68.6850   65.0440 C   0  0  0  0  0  0  0  0  0  0  0  0
   -2.6600   67.5640   67.7140 O   0  0  0  0  0  1  0  0  0  0  0  0
   -1.4570   67.5590   67.3200 C   0  0  0  0  0  0  0  0  0  0  0  0
   -0.5710   66.6690   67.4890 O   0  0  0  0  0  0  0  0  0  0  0  0
    1.2456   68.1311   65.0730 H   0  0  0  0  0  0  0  0  0  0  0  0
    3.6205   68.6759   65.5518 H   0  0  0  0  0  0  0  0  0  0  0  0
    0.0397   70.2000   68.6668 H   0  0  0  0  0  0  0  0  0  0  0  0
    4.2483   70.7600   69.6851 H   0  0  0  0  0  0  0  0  0  0  0  0
    6.6326   71.2846   70.1591 H   0  0  0  0  0  0  0  0  0  0  0  0
    8.3694   70.9083   68.4103 H   0  0  0  0  0  0  0  0  0  0  0  0
    7.7095   70.0095   66.1794 H   0  0  0  0  0  0  0  0  0  0  0  0
    5.3264   69.4805   65.7012 H   0  0  0  0  0  0  0  0  0  0  0  0
   -1.5928   69.6529   66.9059 H   0  0  0  0  0  0  0  0  0  0  0  0
   -2.1888   68.1851   64.8675 H   0  0  0  0  0  0  0  0  0  0  0  0
   -1.2434   69.6872   64.5910 H   0  0  0  0  0  0  0  0  0  0  0  0
   -0.4163   68.0927   64.5910 H   0  0  0  0  0  0  0  0  0  0  0  0
  2  1  2  0
  3  2  1  0
  4  3  2  0
  5  4  1  0
  6  1  1  0
  6  5  2  0
  7  5  1  0
  8  4  1  0
  9  8  2  0
 10  9  1  0
 11 10  2  0
 12 11  1  0
 13  8  1  0
 13 12  2  0
 14  1  1  0
 15 14  1  0
 17 16  1  0
 17 14  1  0
 18 17  2  0
  2 19  1  0
  3 20  1  0
  6 21  1  0
  9 22  1  0
 10 23  1  0
 11 24  1  0
 12 25  1  0
 13 26  1  0
 14 27  1  1
 15 28  1  0
 15 29  1  0
 15 30  1  0
M  CHG  1  16  -1
M  END
>  <score>  (5) 
-9.499

$$$$
=
     RDKit          3D

 30 31  0  0  0  0  0  0  0  0999 V2000
    3.7050   69.3830   65.4170 C   0  0  0  0  0  0  0  0  0  0  0  0
    2.7930   68.9540   64.4440 C   0  0  0  0  0  0  0  0  0  0  0  0
    1.4850   68.5950   64.7910 C   0  0  0  0  0  0  0  0  0  0  0  0
    1.0460   68.6470   66.1250 C   0  0  0  0  0  0  0  0  0  0  0  0
    1.9730   69.0730   67.0880 C   0  0  0  0  0  0  0  0  0  0  0  0
    3.2780   69.4360   66.7490 C   0  0  0  0  0  0  0  0  0  0  0  0
    1.6170   69.1450   68.3820 F   0  0  0  0  0  0  0  0  0  0  0  0
   -0.3340   68.2680   66.4810 C   0  0  0  0  0  0  0  0  0  0  0  0
   -0.5860   67.2470   67.4130 C   0  0  0  0  0  0  0  0  0  0  0  0
   -1.8920   66.8900   67.7610 C   0  0  0  0  0  0  0  0  0  0  0  0
   -2.9720   67.5500   67.1810 C   0  0  0  0  0  0  0  0  0  0  0  0
   -2.7470   68.5640   66.2540 C   0  0  0  0  0  0  0  0  0  0  0  0
   -1.4390   68.9180   65.9080 C   0  0  0  0  0  0  0  0  0  0  0  0
    5.1340   69.7560   65.0560 C   0  0  1  0  0  0  0  0  0  0  0  0
    6.0290   69.7470   66.2940 C   0  0  0  0  0  0  0  0  0  0  0  0
    5.7300   69.3620   62.7730 O   0  0  0  0  0  1  0  0  0  0  0  0
    5.6850   68.8520   63.9310 C   0  0  0  0  0  0  0  0  0  0  0  0
    6.0150   67.6860   64.2970 O   0  0  0  0  0  0  0  0  0  0  0  0
    3.1092   68.8984   63.3919 H   0  0  0  0  0  0  0  0  0  0  0  0
    0.7886   68.2664   64.0055 H   0  0  0  0  0  0  0  0  0  0  0  0
    3.9749   69.7657   67.5336 H   0  0  0  0  0  0  0  0  0  0  0  0
    0.2599   66.7190   67.8773 H   0  0  0  0  0  0  0  0  0  0  0  0
   -2.0664   66.0877   68.4930 H   0  0  0  0  0  0  0  0  0  0  0  0
   -4.0003   67.2710   67.4545 H   0  0  0  0  0  0  0  0  0  0  0  0
   -3.5982   69.0869   65.7936 H   0  0  0  0  0  0  0  0  0  0  0  0
   -1.2728   69.7201   65.1738 H   0  0  0  0  0  0  0  0  0  0  0  0
    5.1308   70.7835   64.6634 H   0  0  0  0  0  0  0  0  0  0  0  0
    5.4034   69.7533   67.1988 H   0  0  0  0  0  0  0  0  0  0  0  0
    6.6550   68.8425   66.2873 H   0  0  0  0  0  0  0  0  0  0  0  0
    6.6731   70.6387   66.2873 H   0  0  0  0  0  0  0  0  0  0  0  0
  2  1  2  0
  3  2  1  0
  4  3  2  0
  5  4  1  0
  6  1  1  0
  6  5  2  0
  7  5  1  0
  8  4  1  0
  9  8  2  0
 10  9  1  0
 11 10  2  0
 12 11  1  0
 13  8  1  0
 13 12  2  0
 14  1  1  0
 15 14  1  0
 17 16  1  0
 17 14  1  0
 18 17  2  0
  2 19  1  0
  3 20  1  0
  6 21  1  0
  9 22  1  0
 10 23  1  0
 11 24  1  0
 12 25  1  0
 13 26  1  0
 14 27  1  6
 15 28  1  0
 15 29  1  0
 15 30  1  0
M  CHG  1  16  -1
M  END
>  <score>  (6) 
-9.212

$$$$
=
     RDKit          3D

 30 31  0  0  0  0  0  0  0  0999 V2000
    3.9100   69.0120   65.7260 C   0  0  0  0  0  0  0  0  0  0  0  0
    3.1380   68.2850   64.8110 C   0  0  0  0  0  0  0  0  0  0  0  0
    1.7820   68.0350   65.0530 C   0  0  0  0  0  0  0  0  0  0  0  0
    1.1540   68.4990   66.2210 C   0  0  0  0  0  0  0  0  0  0  0  0
    1.9420   69.2210   67.1300 C   0  0  0  0  0  0  0  0  0  0  0  0
    3.2940   69.4770   66.8930 C   0  0  0  0  0  0  0  0  0  0  0  0
    1.4030   69.6930   68.2670 F   0  0  0  0  0  0  0  0  0  0  0  0
   -0.2760   68.2320   66.4670 C   0  0  0  0  0  0  0  0  0  0  0  0
   -1.2730   68.9330   65.7670 C   0  0  0  0  0  0  0  0  0  0  0  0
   -2.6290   68.6770   65.9890 C   0  0  0  0  0  0  0  0  0  0  0  0
   -3.0140   67.7120   66.9170 C   0  0  0  0  0  0  0  0  0  0  0  0
   -2.0430   67.0070   67.6220 C   0  0  0  0  0  0  0  0  0  0  0  0
   -0.6880   67.2650   67.3980 C   0  0  0  0  0  0  0  0  0  0  0  0
    5.3890   69.2730   65.4850 C   0  0  1  0  0  0  0  0  0  0  0  0
    5.6360   69.7180   64.0450 C   0  0  0  0  0  0  0  0  0  0  0  0
    5.9480   69.9090   67.7230 O   0  0  0  0  0  1  0  0  0  0  0  0
    5.9580   70.2770   66.5120 C   0  0  0  0  0  0  0  0  0  0  0  0
    6.3590   71.3740   66.0210 O   0  0  0  0  0  0  0  0  0  0  0  0
    3.6036   67.9053   63.8896 H   0  0  0  0  0  0  0  0  0  0  0  0
    1.1978   67.4651   64.3155 H   0  0  0  0  0  0  0  0  0  0  0  0
    3.8789   70.0482   67.6289 H   0  0  0  0  0  0  0  0  0  0  0  0
   -0.9809   69.6968   65.0313 H   0  0  0  0  0  0  0  0  0  0  0  0
   -3.3928   69.2380   65.4305 H   0  0  0  0  0  0  0  0  0  0  0  0
   -4.0807   67.5081   67.0918 H   0  0  0  0  0  0  0  0  0  0  0  0
   -2.3427   66.2453   68.3569 H   0  0  0  0  0  0  0  0  0  0  0  0
    0.0696   66.7003   67.9612 H   0  0  0  0  0  0  0  0  0  0  0  0
    5.9322   68.3278   65.6319 H   0  0  0  0  0  0  0  0  0  0  0  0
    6.1698   70.6798   64.0449 H   0  0  0  0  0  0  0  0  0  0  0  0
    6.2433   68.9615   63.5265 H   0  0  0  0  0  0  0  0  0  0  0  0
    4.6727   69.8332   63.5265 H   0  0  0  0  0  0  0  0  0  0  0  0
  2  1  2  0
  3  2  1  0
  4  3  2  0
  5  4  1  0
  6  1  1  0
  6  5  2  0
  7  5  1  0
  8  4  1  0
  9  8  2  0
 10  9  1  0
 11 10  2  0
 12 11  1  0
 13  8  1  0
 13 12  2  0
 14  1  1  0
 15 14  1  0
 17 16  1  0
 17 14  1  0
 18 17  2  0
  2 19  1  0
  3 20  1  0
  6 21  1  0
  9 22  1  0
 10 23  1  0
 11 24  1  0
 12 25  1  0
 13 26  1  0
 14 27  1  6
 15 28  1  0
 15 29  1  0
 15 30  1  0
M  CHG  1  16  -1
M  END
>  <score>  (7) 
-9.041

$$$$
=
     RDKit          3D

 30 31  0  0  0  0  0  0  0  0999 V2000
    2.2920   69.0640   65.7780 C   0  0  0  0  0  0  0  0  0  0  0  0
    2.1060   69.4270   67.1190 C   0  0  0  0  0  0  0  0  0  0  0  0
    3.1860   69.8380   67.9090 C   0  0  0  0  0  0  0  0  0  0  0  0
    4.4900   69.8940   67.3870 C   0  0  0  0  0  0  0  0  0  0  0  0
    4.6600   69.5220   66.0450 C   0  0  0  0  0  0  0  0  0  0  0  0
    3.5860   69.1150   65.2500 C   0  0  0  0  0  0  0  0  0  0  0  0
    5.8810   69.5540   65.4850 F   0  0  0  0  0  0  0  0  0  0  0  0
    5.6200   70.3290   68.2270 C   0  0  0  0  0  0  0  0  0  0  0  0
    6.7550   70.9340   67.6570 C   0  0  0  0  0  0  0  0  0  0  0  0
    7.8250   71.3560   68.4500 C   0  0  0  0  0  0  0  0  0  0  0  0
    7.7810   71.1820   69.8310 C   0  0  0  0  0  0  0  0  0  0  0  0
    6.6690   70.5850   70.4170 C   0  0  0  0  0  0  0  0  0  0  0  0
    5.6000   70.1630   69.6220 C   0  0  0  0  0  0  0  0  0  0  0  0
    1.1310   68.5970   64.9150 C   0  0  1  0  0  0  0  0  0  0  0  0
    1.5640   68.4360   63.4590 C   0  0  0  0  0  0  0  0  0  0  0  0
    1.1020   66.2260   65.2380 O   0  0  0  0  0  1  0  0  0  0  0  0
    0.4920   67.3080   65.4790 C   0  0  0  0  0  0  0  0  0  0  0  0
   -0.5930   67.4830   66.1110 O   0  0  0  0  0  0  0  0  0  0  0  0
    1.0975   69.3884   67.5566 H   0  0  0  0  0  0  0  0  0  0  0  0
    3.0111   70.1223   68.9571 H   0  0  0  0  0  0  0  0  0  0  0  0
    3.7593   68.8326   64.2011 H   0  0  0  0  0  0  0  0  0  0  0  0
    6.8008   71.0774   66.5673 H   0  0  0  0  0  0  0  0  0  0  0  0
    8.7031   71.8261   67.9831 H   0  0  0  0  0  0  0  0  0  0  0  0
    8.6223   71.5153   70.4564 H   0  0  0  0  0  0  0  0  0  0  0  0
    6.6314   70.4451   71.5074 H   0  0  0  0  0  0  0  0  0  0  0  0
    4.7268   69.6922   70.0972 H   0  0  0  0  0  0  0  0  0  0  0  0
    0.3525   69.3738   64.9402 H   0  0  0  0  0  0  0  0  0  0  0  0
    2.5945   68.0528   63.4231 H   0  0  0  0  0  0  0  0  0  0  0  0
    0.8916   67.7278   62.9527 H   0  0  0  0  0  0  0  0  0  0  0  0
    1.5177   69.4114   62.9527 H   0  0  0  0  0  0  0  0  0  0  0  0
  2  1  2  0
  3  2  1  0
  4  3  2  0
  5  4  1  0
  6  1  1  0
  6  5  2  0
  7  5  1  0
  8  4  1  0
  9  8  2  0
 10  9  1  0
 11 10  2  0
 12 11  1  0
 13  8  1  0
 13 12  2  0
 14  1  1  0
 15 14  1  0
 17 16  1  0
 17 14  1  0
 18 17  2  0
  2 19  1  0
  3 20  1  0
  6 21  1  0
  9 22  1  0
 10 23  1  0
 11 24  1  0
 12 25  1  0
 13 26  1  0
 14 27  1  6
 15 28  1  0
 15 29  1  0
 15 30  1  0
M  CHG  1  16  -1
M  END
>  <score>  (8) 
-8.976

$$$$
=
     RDKit          3D

 30 31  0  0  0  0  0  0  0  0999 V2000
    2.3730   68.6140   64.4750 C   0  0  0  0  0  0  0  0  0  0  0  0
    2.0840   68.6360   65.8450 C   0  0  0  0  0  0  0  0  0  0  0  0
    3.0200   69.1160   66.7700 C   0  0  0  0  0  0  0  0  0  0  0  0
    4.2780   69.5840   66.3550 C   0  0  0  0  0  0  0  0  0  0  0  0
    4.5540   69.5490   64.9800 C   0  0  0  0  0  0  0  0  0  0  0  0
    3.6240   69.0760   64.0520 C   0  0  0  0  0  0  0  0  0  0  0  0
    5.7390   69.9820   64.5180 F   0  0  0  0  0  0  0  0  0  0  0  0
    5.2570   70.0880   67.3370 C   0  0  0  0  0  0  0  0  0  0  0  0
    4.8570   70.4540   68.6340 C   0  0  0  0  0  0  0  0  0  0  0  0
    5.7820   70.9240   69.5710 C   0  0  0  0  0  0  0  0  0  0  0  0
    7.1270   71.0360   69.2270 C   0  0  0  0  0  0  0  0  0  0  0  0
    7.5450   70.6810   67.9480 C   0  0  0  0  0  0  0  0  0  0  0  0
    6.6180   70.2110   67.0130 C   0  0  0  0  0  0  0  0  0  0  0  0
    1.3740   68.0760   63.4620 C   0  0  1  0  0  0  0  0  0  0  0  0
    0.9420   66.6570   63.8230 C   0  0  0  0  0  0  0  0  0  0  0  0
    0.3130   69.9810   62.4770 O   0  0  0  0  0  1  0  0  0  0  0  0
    0.1690   69.0300   63.2990 C   0  0  0  0  0  0  0  0  0  0  0  0
   -0.8300   68.7570   64.0290 O   0  0  0  0  0  0  0  0  0  0  0  0
    1.1087   68.2714   66.1996 H   0  0  0  0  0  0  0  0  0  0  0  0
    2.7656   69.1267   67.8401 H   0  0  0  0  0  0  0  0  0  0  0  0
    3.8766   69.0666   62.9814 H   0  0  0  0  0  0  0  0  0  0  0  0
    3.7973   70.3691   68.9167 H   0  0  0  0  0  0  0  0  0  0  0  0
    5.4474   71.2055   70.5804 H   0  0  0  0  0  0  0  0  0  0  0  0
    7.8563   71.4038   69.9638 H   0  0  0  0  0  0  0  0  0  0  0  0
    8.6062   70.7703   67.6723 H   0  0  0  0  0  0  0  0  0  0  0  0
    6.9607   69.9325   66.0055 H   0  0  0  0  0  0  0  0  0  0  0  0
    1.8726   68.0251   62.4828 H   0  0  0  0  0  0  0  0  0  0  0  0
    0.9097   66.5508   64.9174 H   0  0  0  0  0  0  0  0  0  0  0  0
   -0.0567   66.4604   63.4059 H   0  0  0  0  0  0  0  0  0  0  0  0
    1.6617   65.9373   63.4059 H   0  0  0  0  0  0  0  0  0  0  0  0
  2  1  2  0
  3  2  1  0
  4  3  2  0
  5  4  1  0
  6  1  1  0
  6  5  2  0
  7  5  1  0
  8  4  1  0
  9  8  2  0
 10  9  1  0
 11 10  2  0
 12 11  1  0
 13  8  1  0
 13 12  2  0
 14  1  1  0
 15 14  1  0
 17 16  1  0
 17 14  1  0
 18 17  2  0
  2 19  1  0
  3 20  1  0
  6 21  1  0
  9 22  1  0
 10 23  1  0
 11 24  1  0
 12 25  1  0
 13 26  1  0
 14 27  1  6
 15 28  1  0
 15 29  1  0
 15 30  1  0
M  CHG  1  16  -1
M  END
>  <score>  (9) 
-8.665

$$$$
