=
     RDKit          3D

 26 27  0  0  0  0  0  0  0  0999 V2000
    2.0170   69.0440   67.1330 C   0  0  0  0  0  0  0  0  0  0  0  0
    1.5150   69.8160   67.9410 O   0  0  0  0  0  0  0  0  0  0  0  0
    4.7400   69.3780   63.1530 F   0  0  0  0  0  0  0  0  0  0  0  0
    4.6390   69.4900   64.4840 C   0  0  0  0  0  0  0  0  0  0  0  0
    5.7510   69.8750   65.2220 C   0  0  0  0  0  0  0  0  0  0  0  0
    5.6310   69.9970   66.6000 C   0  0  0  0  0  0  0  0  0  0  0  0
    6.6940   70.3890   67.3150 F   0  0  0  0  0  0  0  0  0  0  0  0
    4.4220   69.7320   67.2390 C   0  0  0  0  0  0  0  0  0  0  0  0
    3.3150   69.3320   66.4930 C   0  0  0  0  0  0  0  0  0  0  0  0
    3.4210   69.2220   65.1010 C   0  0  0  0  0  0  0  0  0  0  0  0
    4.3340   69.9110   68.5650 F   0  0  0  0  0  0  0  0  0  0  0  0
    1.2560   67.7930   66.7740 C   0  0  0  0  0  0  0  0  0  0  0  0
    1.8960   66.7920   66.4830 O   0  0  0  0  0  0  0  0  0  0  0  0
   -0.2140   67.8310   66.7650 C   0  0  0  0  0  0  0  0  0  0  0  0
   -0.9370   67.1630   67.7540 C   0  0  0  0  0  0  0  0  0  0  0  0
   -0.3150   66.4540   68.7050 F   0  0  0  0  0  0  0  0  0  0  0  0
   -2.3320   67.1940   67.7630 C   0  0  0  0  0  0  0  0  0  0  0  0
   -3.0180   67.9010   66.7770 C   0  0  0  0  0  0  0  0  0  0  0  0
   -2.2950   68.5710   65.7940 C   0  0  0  0  0  0  0  0  0  0  0  0
   -0.9040   68.5400   65.7850 C   0  0  0  0  0  0  0  0  0  0  0  0
   -0.2420   69.2280   64.8430 F   0  0  0  0  0  0  0  0  0  0  0  0
   -2.9550   69.2610   64.8540 F   0  0  0  0  0  0  0  0  0  0  0  0
    6.7100   70.0797   64.7235 H   0  0  0  0  0  0  0  0  0  0  0  0
    2.5484   68.9261   64.5002 H   0  0  0  0  0  0  0  0  0  0  0  0
   -2.8896   66.6611   68.5473 H   0  0  0  0  0  0  0  0  0  0  0  0
   -4.1176   67.9292   66.7756 H   0  0  0  0  0  0  0  0  0  0  0  0
  2  1  2  0
  4  3  1  0
  5  4  2  0
  6  5  1  0
  7  6  1  0
  8  6  2  0
  9  8  1  0
  9  1  1  0
 10  4  1  0
 10  9  2  0
 11  8  1  0
 12  1  1  0
 13 12  2  0
 14 12  1  0
 15 14  2  0
 16 15  1  0
 17 15  1  0
 18 17  2  0
 19 18  1  0
 20 19  2  0
 20 14  1  0
 21 20  1  0
 22 19  1  0
  5 23  1  0
 10 24  1  0
 17 25  1  0
 18 26  1  0
M  END
>  <score>  (1) 
-10.373

$$$$
=
     RDKit          3D

 26 27  0  0  0  0  0  0  0  0999 V2000
    1.9930   69.1470   67.2510 C   0  0  0  0  0  0  0  0  0  0  0  0
    1.4080   69.9330   67.9870 O   0  0  0  0  0  0  0  0  0  0  0  0
    6.6230   70.3050   68.0140 F   0  0  0  0  0  0  0  0  0  0  0  0
    5.6440   70.0120   67.1490 C   0  0  0  0  0  0  0  0  0  0  0  0
    5.9220   69.9870   65.7880 C   0  0  0  0  0  0  0  0  0  0  0  0
    4.9000   69.6720   64.9010 C   0  0  0  0  0  0  0  0  0  0  0  0
    5.1670   69.6240   63.5890 F   0  0  0  0  0  0  0  0  0  0  0  0
    3.6150   69.3950   65.3600 C   0  0  0  0  0  0  0  0  0  0  0  0
    3.3400   69.4370   66.7260 C   0  0  0  0  0  0  0  0  0  0  0  0
    4.3680   69.7360   67.6290 C   0  0  0  0  0  0  0  0  0  0  0  0
    2.6690   69.0460   64.4760 F   0  0  0  0  0  0  0  0  0  0  0  0
    1.2840   67.8750   66.8590 C   0  0  0  0  0  0  0  0  0  0  0  0
    1.9650   66.9070   66.5500 O   0  0  0  0  0  0  0  0  0  0  0  0
   -0.1860   67.8550   66.8400 C   0  0  0  0  0  0  0  0  0  0  0  0
   -0.8880   67.1600   67.8260 C   0  0  0  0  0  0  0  0  0  0  0  0
   -0.2460   66.4770   68.7810 F   0  0  0  0  0  0  0  0  0  0  0  0
   -2.2840   67.1350   67.8260 C   0  0  0  0  0  0  0  0  0  0  0  0
   -2.9900   67.8140   66.8340 C   0  0  0  0  0  0  0  0  0  0  0  0
   -2.2880   68.5110   65.8550 C   0  0  0  0  0  0  0  0  0  0  0  0
   -0.8970   68.5350   65.8550 C   0  0  0  0  0  0  0  0  0  0  0  0
   -0.2560   69.2480   64.9170 F   0  0  0  0  0  0  0  0  0  0  0  0
   -2.9690   69.1730   64.9100 F   0  0  0  0  0  0  0  0  0  0  0  0
    6.9335   70.2126   65.4191 H   0  0  0  0  0  0  0  0  0  0  0  0
    4.1677   69.7525   68.7105 H   0  0  0  0  0  0  0  0  0  0  0  0
   -2.8255   66.5809   68.6069 H   0  0  0  0  0  0  0  0  0  0  0  0
   -4.0899   67.7990   66.8251 H   0  0  0  0  0  0  0  0  0  0  0  0
  2  1  2  0
  4  3  1  0
  5  4  2  0
  6  5  1  0
  7  6  1  0
  8  6  2  0
  9  8  1  0
  9  1  1  0
 10  4  1  0
 10  9  2  0
 11  8  1  0
 12  1  1  0
 13 12  2  0
 14 12  1  0
 15 14  2  0
 16 15  1  0
 17 15  1  0
 18 17  2  0
 19 18  1  0
 20 19  2  0
 20 14  1  0
 21 20  1  0
 22 19  1  0
  5 23  1  0
 10 24  1  0
 17 25  1  0
 18 26  1  0
M  END
>  <score>  (2) 
-10.323

$$$$
=
     RDKit          3D

 26 27  0  0  0  0  0  0  0  0999 V2000
    2.7490   68.8560   65.5580 C   0  0  0  0  0  0  0  0  0  0  0  0
    2.6590   69.3360   64.4340 O   0  0  0  0  0  0  0  0  0  0  0  0
    7.1590   70.1300   67.0710 F   0  0  0  0  0  0  0  0  0  0  0  0
    5.8400   70.0760   67.3010 C   0  0  0  0  0  0  0  0  0  0  0  0
    5.3350   70.5810   68.4930 C   0  0  0  0  0  0  0  0  0  0  0  0
    3.9650   70.5270   68.7160 C   0  0  0  0  0  0  0  0  0  0  0  0
    3.4690   71.0320   69.8530 F   0  0  0  0  0  0  0  0  0  0  0  0
    3.1080   69.9700   67.7710 C   0  0  0  0  0  0  0  0  0  0  0  0
    3.6240   69.4510   66.5840 C   0  0  0  0  0  0  0  0  0  0  0  0
    5.0020   69.5160   66.3420 C   0  0  0  0  0  0  0  0  0  0  0  0
    1.7870   69.9820   68.0020 F   0  0  0  0  0  0  0  0  0  0  0  0
    1.9620   67.6060   65.8640 C   0  0  0  0  0  0  0  0  0  0  0  0
    2.4990   66.5240   65.6650 O   0  0  0  0  0  0  0  0  0  0  0  0
    0.5860   67.7330   66.3630 C   0  0  0  0  0  0  0  0  0  0  0  0
    0.2590   67.2700   67.6380 C   0  0  0  0  0  0  0  0  0  0  0  0
    1.1740   66.6750   68.4140 F   0  0  0  0  0  0  0  0  0  0  0  0
   -1.0420   67.3880   68.1300 C   0  0  0  0  0  0  0  0  0  0  0  0
   -2.0300   67.9800   67.3440 C   0  0  0  0  0  0  0  0  0  0  0  0
   -1.7010   68.4460   66.0750 C   0  0  0  0  0  0  0  0  0  0  0  0
   -0.4040   68.3270   65.5850 C   0  0  0  0  0  0  0  0  0  0  0  0
   -0.1160   68.8220   64.3720 F   0  0  0  0  0  0  0  0  0  0  0  0
   -2.6480   69.0260   65.3260 F   0  0  0  0  0  0  0  0  0  0  0  0
    6.0081   71.0158   69.2466 H   0  0  0  0  0  0  0  0  0  0  0  0
    5.4184   69.1273   65.4010 H   0  0  0  0  0  0  0  0  0  0  0  0
   -1.2872   67.0149   69.1353 H   0  0  0  0  0  0  0  0  0  0  0  0
   -3.0580   68.0775   67.7230 H   0  0  0  0  0  0  0  0  0  0  0  0
  2  1  2  0
  4  3  1  0
  5  4  2  0
  6  5  1  0
  7  6  1  0
  8  6  2  0
  9  8  1  0
  9  1  1  0
 10  4  1  0
 10  9  2  0
 11  8  1  0
 12  1  1  0
 13 12  2  0
 14 12  1  0
 15 14  2  0
 16 15  1  0
 17 15  1  0
 18 17  2  0
 19 18  1  0
 20 19  2  0
 20 14  1  0
 21 20  1  0
 22 19  1  0
  5 23  1  0
 10 24  1  0
 17 25  1  0
 18 26  1  0
M  END
>  <score>  (3) 
-10.128

$$$$
=
     RDKit          3D

 26 27  0  0  0  0  0  0  0  0999 V2000
    2.9680   68.7430   65.3840 C   0  0  0  0  0  0  0  0  0  0  0  0
    3.0120   69.1440   64.2270 O   0  0  0  0  0  0  0  0  0  0  0  0
    3.2120   70.8420   69.7310 F   0  0  0  0  0  0  0  0  0  0  0  0
    3.8410   70.4170   68.6280 C   0  0  0  0  0  0  0  0  0  0  0  0
    5.2160   70.5840   68.5200 C   0  0  0  0  0  0  0  0  0  0  0  0
    5.8590   70.1320   67.3750 C   0  0  0  0  0  0  0  0  0  0  0  0
    7.1870   70.2690   67.2750 F   0  0  0  0  0  0  0  0  0  0  0  0
    5.1430   69.5290   66.3440 C   0  0  0  0  0  0  0  0  0  0  0  0
    3.7610   69.3790   66.4520 C   0  0  0  0  0  0  0  0  0  0  0  0
    3.1060   69.8160   67.6110 C   0  0  0  0  0  0  0  0  0  0  0  0
    5.8070   69.0600   65.2770 F   0  0  0  0  0  0  0  0  0  0  0  0
    2.1020   67.5470   65.6910 C   0  0  0  0  0  0  0  0  0  0  0  0
    2.5620   66.4320   65.4800 O   0  0  0  0  0  0  0  0  0  0  0  0
    0.7430   67.7650   66.2060 C   0  0  0  0  0  0  0  0  0  0  0  0
    0.4210   67.3910   67.5120 C   0  0  0  0  0  0  0  0  0  0  0  0
    1.3250   66.8010   68.3050 F   0  0  0  0  0  0  0  0  0  0  0  0
   -0.8630   67.5950   68.0180 C   0  0  0  0  0  0  0  0  0  0  0  0
   -1.8400   68.1840   67.2160 C   0  0  0  0  0  0  0  0  0  0  0  0
   -1.5160   68.5620   65.9160 C   0  0  0  0  0  0  0  0  0  0  0  0
   -0.2350   68.3570   65.4120 C   0  0  0  0  0  0  0  0  0  0  0  0
    0.0490   68.7680   64.1670 F   0  0  0  0  0  0  0  0  0  0  0  0
   -2.4520   69.1390   65.1510 F   0  0  0  0  0  0  0  0  0  0  0  0
    5.7859   71.0662   69.3279 H   0  0  0  0  0  0  0  0  0  0  0  0
    2.0189   69.6849   67.7160 H   0  0  0  0  0  0  0  0  0  0  0  0
   -1.1042   67.2919   69.0475 H   0  0  0  0  0  0  0  0  0  0  0  0
   -2.8553   68.3481   67.6062 H   0  0  0  0  0  0  0  0  0  0  0  0
  2  1  2  0
  4  3  1  0
  5  4  2  0
  6  5  1  0
  7  6  1  0
  8  6  2  0
  9  8  1  0
  9  1  1  0
 10  4  1  0
 10  9  2  0
 11  8  1  0
 12  1  1  0
 13 12  2  0
 14 12  1  0
 15 14  2  0
 16 15  1  0
 17 15  1  0
 18 17  2  0
 19 18  1  0
 20 19  2  0
 20 14  1  0
 21 20  1  0
 22 19  1  0
  5 23  1  0
 10 24  1  0
 17 25  1  0
 18 26  1  0
M  END
>  <score>  (4) 
-10.112

$$$$
=
     RDKit          3D

 26 27  0  0  0  0  0  0  0  0999 V2000
    2.1680   69.0860   66.9260 C   0  0  0  0  0  0  0  0  0  0  0  0
    1.7050   69.8430   67.7710 O   0  0  0  0  0  0  0  0  0  0  0  0
    6.8630   70.1830   67.2730 F   0  0  0  0  0  0  0  0  0  0  0  0
    5.8090   69.8950   66.4990 C   0  0  0  0  0  0  0  0  0  0  0  0
    5.9680   69.8490   65.1200 C   0  0  0  0  0  0  0  0  0  0  0  0
    4.8690   69.5390   64.3280 C   0  0  0  0  0  0  0  0  0  0  0  0
    5.0210   69.4720   62.9990 F   0  0  0  0  0  0  0  0  0  0  0  0
    3.6240   69.2870   64.8990 C   0  0  0  0  0  0  0  0  0  0  0  0
    3.4690   69.3500   66.2830 C   0  0  0  0  0  0  0  0  0  0  0  0
    4.5750   69.6440   67.0910 C   0  0  0  0  0  0  0  0  0  0  0  0
    2.6000   68.9420   64.1050 F   0  0  0  0  0  0  0  0  0  0  0  0
    1.3550   67.8810   66.5260 C   0  0  0  0  0  0  0  0  0  0  0  0
    1.9520   66.8540   66.2310 O   0  0  0  0  0  0  0  0  0  0  0  0
   -0.1100   67.9920   66.4830 C   0  0  0  0  0  0  0  0  0  0  0  0
   -0.7280   68.7110   65.4590 C   0  0  0  0  0  0  0  0  0  0  0  0
   -0.0060   69.3370   64.5210 F   0  0  0  0  0  0  0  0  0  0  0  0
   -2.1190   68.8210   65.4010 C   0  0  0  0  0  0  0  0  0  0  0  0
   -2.9050   68.2040   66.3730 C   0  0  0  0  0  0  0  0  0  0  0  0
   -2.2880   67.4830   67.3900 C   0  0  0  0  0  0  0  0  0  0  0  0
   -0.9010   67.3740   67.4480 C   0  0  0  0  0  0  0  0  0  0  0  0
   -0.3450   66.6390   68.4230 F   0  0  0  0  0  0  0  0  0  0  0  0
   -3.0450   66.8800   68.3160 F   0  0  0  0  0  0  0  0  0  0  0  0
    6.9471   70.0544   64.6626 H   0  0  0  0  0  0  0  0  0  0  0  0
    4.4687   69.6762   68.1854 H   0  0  0  0  0  0  0  0  0  0  0  0
   -2.5934   69.3932   64.5901 H   0  0  0  0  0  0  0  0  0  0  0  0
   -4.0013   68.2864   66.3361 H   0  0  0  0  0  0  0  0  0  0  0  0
  2  1  2  0
  4  3  1  0
  5  4  2  0
  6  5  1  0
  7  6  1  0
  8  6  2  0
  9  8  1  0
  9  1  1  0
 10  4  1  0
 10  9  2  0
 11  8  1  0
 12  1  1  0
 13 12  2  0
 14 12  1  0
 15 14  2  0
 16 15  1  0
 17 15  1  0
 18 17  2  0
 19 18  1  0
 20 19  2  0
 20 14  1  0
 21 20  1  0
 22 19  1  0
  5 23  1  0
 10 24  1  0
 17 25  1  0
 18 26  1  0
M  END
>  <score>  (5) 
-10.022

$$$$
=
     RDKit          3D

 26 27  0  0  0  0  0  0  0  0999 V2000
    2.0280   69.0420   67.1080 C   0  0  0  0  0  0  0  0  0  0  0  0
    1.1620   69.4960   67.8460 O   0  0  0  0  0  0  0  0  0  0  0  0
    6.1510   70.0540   64.7960 F   0  0  0  0  0  0  0  0  0  0  0  0
    5.4470   70.0560   65.9360 C   0  0  0  0  0  0  0  0  0  0  0  0
    6.0300   70.5470   67.0960 C   0  0  0  0  0  0  0  0  0  0  0  0
    5.2870   70.5520   68.2700 C   0  0  0  0  0  0  0  0  0  0  0  0
    5.8360   71.0450   69.3880 F   0  0  0  0  0  0  0  0  0  0  0  0
    3.9810   70.0670   68.2920 C   0  0  0  0  0  0  0  0  0  0  0  0
    3.4080   69.5620   67.1260 C   0  0  0  0  0  0  0  0  0  0  0  0
    4.1430   69.5680   65.9340 C   0  0  0  0  0  0  0  0  0  0  0  0
    3.2790   70.1360   69.4320 F   0  0  0  0  0  0  0  0  0  0  0  0
    1.6420   67.9500   66.1420 C   0  0  0  0  0  0  0  0  0  0  0  0
    1.7880   66.7880   66.4980 O   0  0  0  0  0  0  0  0  0  0  0  0
    1.1310   68.3190   64.8140 C   0  0  0  0  0  0  0  0  0  0  0  0
   -0.1790   68.7780   64.6720 C   0  0  0  0  0  0  0  0  0  0  0  0
   -1.0020   68.8590   65.7250 F   0  0  0  0  0  0  0  0  0  0  0  0
   -0.6790   69.1380   63.4190 C   0  0  0  0  0  0  0  0  0  0  0  0
    0.1380   69.0450   62.2930 C   0  0  0  0  0  0  0  0  0  0  0  0
    1.4470   68.5930   62.4380 C   0  0  0  0  0  0  0  0  0  0  0  0
    1.9440   68.2330   63.6880 C   0  0  0  0  0  0  0  0  0  0  0  0
    3.2210   67.8380   63.7920 F   0  0  0  0  0  0  0  0  0  0  0  0
    2.2350   68.5160   61.3580 F   0  0  0  0  0  0  0  0  0  0  0  0
    7.0627   70.9257   67.0860 H   0  0  0  0  0  0  0  0  0  0  0  0
    3.6938   69.1902   65.0037 H   0  0  0  0  0  0  0  0  0  0  0  0
   -1.7151   69.4942   63.3205 H   0  0  0  0  0  0  0  0  0  0  0  0
   -0.2471   69.3255   61.3015 H   0  0  0  0  0  0  0  0  0  0  0  0
  2  1  2  0
  4  3  1  0
  5  4  2  0
  6  5  1  0
  7  6  1  0
  8  6  2  0
  9  8  1  0
  9  1  1  0
 10  4  1  0
 10  9  2  0
 11  8  1  0
 12  1  1  0
 13 12  2  0
 14 12  1  0
 15 14  2  0
 16 15  1  0
 17 15  1  0
 18 17  2  0
 19 18  1  0
 20 19  2  0
 20 14  1  0
 21 20  1  0
 22 19  1  0
  5 23  1  0
 10 24  1  0
 17 25  1  0
 18 26  1  0
M  END
>  <score>  (6) 
-9.814

$$$$
=
     RDKit          3D

 26 27  0  0  0  0  0  0  0  0999 V2000
    2.3690   67.3480   65.3960 C   0  0  0  0  0  0  0  0  0  0  0  0
    2.4060   66.1560   65.6770 O   0  0  0  0  0  0  0  0  0  0  0  0
    6.3800   68.7120   63.0690 F   0  0  0  0  0  0  0  0  0  0  0  0
    5.0510   68.5450   63.0590 C   0  0  0  0  0  0  0  0  0  0  0  0
    4.3320   68.8700   61.9160 C   0  0  0  0  0  0  0  0  0  0  0  0
    2.9550   68.6830   61.9140 C   0  0  0  0  0  0  0  0  0  0  0  0
    2.2590   68.9740   60.8080 F   0  0  0  0  0  0  0  0  0  0  0  0
    2.2990   68.1870   63.0390 C   0  0  0  0  0  0  0  0  0  0  0  0
    3.0260   67.8780   64.1870 C   0  0  0  0  0  0  0  0  0  0  0  0
    4.4170   68.0460   64.1930 C   0  0  0  0  0  0  0  0  0  0  0  0
    0.9770   67.9730   62.9800 F   0  0  0  0  0  0  0  0  0  0  0  0
    1.6560   68.2810   66.3430 C   0  0  0  0  0  0  0  0  0  0  0  0
    2.2600   69.2670   66.7440 O   0  0  0  0  0  0  0  0  0  0  0  0
    0.2840   67.9610   66.7610 C   0  0  0  0  0  0  0  0  0  0  0  0
    0.0620   67.2040   67.9120 C   0  0  0  0  0  0  0  0  0  0  0  0
    1.0840   66.7290   68.6350 F   0  0  0  0  0  0  0  0  0  0  0  0
   -1.2350   66.8960   68.3260 C   0  0  0  0  0  0  0  0  0  0  0  0
   -2.3260   67.3510   67.5880 C   0  0  0  0  0  0  0  0  0  0  0  0
   -2.1030   68.1110   66.4430 C   0  0  0  0  0  0  0  0  0  0  0  0
   -0.8100   68.4170   66.0300 C   0  0  0  0  0  0  0  0  0  0  0  0
   -0.6360   69.1830   64.9430 F   0  0  0  0  0  0  0  0  0  0  0  0
   -3.1530   68.5590   65.7410 F   0  0  0  0  0  0  0  0  0  0  0  0
    4.8438   69.2686   61.0276 H   0  0  0  0  0  0  0  0  0  0  0  0
    5.0031   67.7856   65.0867 H   0  0  0  0  0  0  0  0  0  0  0  0
   -1.3956   66.2951   69.2333 H   0  0  0  0  0  0  0  0  0  0  0  0
   -3.3515   67.1124   67.9064 H   0  0  0  0  0  0  0  0  0  0  0  0
  2  1  2  0
  4  3  1  0
  5  4  2  0
  6  5  1  0
  7  6  1  0
  8  6  2  0
  9  8  1  0
  9  1  1  0
 10  4  1  0
 10  9  2  0
 11  8  1  0
 12  1  1  0
 13 12  2  0
 14 12  1  0
 15 14  2  0
 16 15  1  0
 17 15  1  0
 18 17  2  0
 19 18  1  0
 20 19  2  0
 20 14  1  0
 21 20  1  0
 22 19  1  0
  5 23  1  0
 10 24  1  0
 17 25  1  0
 18 26  1  0
M  END
>  <score>  (7) 
-9.662

$$$$
=
     RDKit          3D

 26 27  0  0  0  0  0  0  0  0999 V2000
    2.3850   67.4200   65.3610 C   0  0  0  0  0  0  0  0  0  0  0  0
    2.5500   66.2490   65.6840 O   0  0  0  0  0  0  0  0  0  0  0  0
    1.5530   69.1580   60.9290 F   0  0  0  0  0  0  0  0  0  0  0  0
    2.4340   68.8140   61.8770 C   0  0  0  0  0  0  0  0  0  0  0  0
    3.7930   68.9630   61.6310 C   0  0  0  0  0  0  0  0  0  0  0  0
    4.6970   68.6120   62.6260 C   0  0  0  0  0  0  0  0  0  0  0  0
    6.0080   68.7750   62.4030 F   0  0  0  0  0  0  0  0  0  0  0  0
    4.2560   68.1080   63.8470 C   0  0  0  0  0  0  0  0  0  0  0  0
    2.8910   67.9470   64.0800 C   0  0  0  0  0  0  0  0  0  0  0  0
    1.9710   68.3150   63.0900 C   0  0  0  0  0  0  0  0  0  0  0  0
    5.1570   67.8290   64.8000 F   0  0  0  0  0  0  0  0  0  0  0  0
    1.6750   68.3330   66.3290 C   0  0  0  0  0  0  0  0  0  0  0  0
    2.2800   69.3090   66.7520 O   0  0  0  0  0  0  0  0  0  0  0  0
    0.3030   68.0050   66.7420 C   0  0  0  0  0  0  0  0  0  0  0  0
    0.0800   67.2410   67.8880 C   0  0  0  0  0  0  0  0  0  0  0  0
    1.1020   66.7660   68.6120 F   0  0  0  0  0  0  0  0  0  0  0  0
   -1.2160   66.9260   68.2970 C   0  0  0  0  0  0  0  0  0  0  0  0
   -2.3070   67.3800   67.5580 C   0  0  0  0  0  0  0  0  0  0  0  0
   -2.0840   68.1470   66.4180 C   0  0  0  0  0  0  0  0  0  0  0  0
   -0.7910   68.4610   66.0100 C   0  0  0  0  0  0  0  0  0  0  0  0
   -0.6170   69.2330   64.9280 F   0  0  0  0  0  0  0  0  0  0  0  0
   -3.1340   68.5950   65.7160 F   0  0  0  0  0  0  0  0  0  0  0  0
    4.1474   69.3522   60.6651 H   0  0  0  0  0  0  0  0  0  0  0  0
    0.8910   68.2102   63.2704 H   0  0  0  0  0  0  0  0  0  0  0  0
   -1.3766   66.3204   69.2011 H   0  0  0  0  0  0  0  0  0  0  0  0
   -3.3324   67.1350   67.8720 H   0  0  0  0  0  0  0  0  0  0  0  0
  2  1  2  0
  4  3  1  0
  5  4  2  0
  6  5  1  0
  7  6  1  0
  8  6  2  0
  9  8  1  0
  9  1  1  0
 10  4  1  0
 10  9  2  0
 11  8  1  0
 12  1  1  0
 13 12  2  0
 14 12  1  0
 15 14  2  0
 16 15  1  0
 17 15  1  0
 18 17  2  0
 19 18  1  0
 20 19  2  0
 20 14  1  0
 21 20  1  0
 22 19  1  0
  5 23  1  0
 10 24  1  0
 17 25  1  0
 18 26  1  0
M  END
>  <score>  (8) 
-9.637

$$$$
=
     RDKit          3D

 26 27  0  0  0  0  0  0  0  0999 V2000
    1.8470   68.3940   66.1150 C   0  0  0  0  0  0  0  0  0  0  0  0
    2.5130   69.3150   66.5720 O   0  0  0  0  0  0  0  0  0  0  0  0
   -2.8870   69.0480   65.3870 F   0  0  0  0  0  0  0  0  0  0  0  0
   -1.9050   68.5190   66.1280 C   0  0  0  0  0  0  0  0  0  0  0  0
   -2.2270   67.7800   67.2590 C   0  0  0  0  0  0  0  0  0  0  0  0
   -1.2000   67.2280   68.0140 C   0  0  0  0  0  0  0  0  0  0  0  0
   -1.5050   66.4950   69.0930 F   0  0  0  0  0  0  0  0  0  0  0  0
    0.1330   67.4170   67.6560 C   0  0  0  0  0  0  0  0  0  0  0  0
    0.4480   68.1740   66.5290 C   0  0  0  0  0  0  0  0  0  0  0  0
   -0.5810   68.7190   65.7500 C   0  0  0  0  0  0  0  0  0  0  0  0
    1.0930   66.8260   68.3820 F   0  0  0  0  0  0  0  0  0  0  0  0
    2.5040   67.4570   65.1330 C   0  0  0  0  0  0  0  0  0  0  0  0
    2.6170   66.2790   65.4470 O   0  0  0  0  0  0  0  0  0  0  0  0
    3.0010   67.9930   63.8580 C   0  0  0  0  0  0  0  0  0  0  0  0
    2.1100   68.2650   62.8190 C   0  0  0  0  0  0  0  0  0  0  0  0
    0.8000   68.0160   62.9480 F   0  0  0  0  0  0  0  0  0  0  0  0
    2.5640   68.7800   61.6040 C   0  0  0  0  0  0  0  0  0  0  0  0
    3.9230   69.0310   61.4210 C   0  0  0  0  0  0  0  0  0  0  0  0
    4.8100   68.7640   62.4600 C   0  0  0  0  0  0  0  0  0  0  0  0
    4.3560   68.2500   63.6710 C   0  0  0  0  0  0  0  0  0  0  0  0
    5.2360   68.0410   64.6620 F   0  0  0  0  0  0  0  0  0  0  0  0
    6.1140   69.0180   62.2880 F   0  0  0  0  0  0  0  0  0  0  0  0
   -3.2773   67.6343   67.5518 H   0  0  0  0  0  0  0  0  0  0  0  0
   -0.3441   69.3004   64.8467 H   0  0  0  0  0  0  0  0  0  0  0  0
    1.8510   68.9874   60.7924 H   0  0  0  0  0  0  0  0  0  0  0  0
    4.2903   69.4355   60.4663 H   0  0  0  0  0  0  0  0  0  0  0  0
  2  1  2  0
  4  3  1  0
  5  4  2  0
  6  5  1  0
  7  6  1  0
  8  6  2  0
  9  8  1  0
  9  1  1  0
 10  4  1  0
 10  9  2  0
 11  8  1  0
 12  1  1  0
 13 12  2  0
 14 12  1  0
 15 14  2  0
 16 15  1  0
 17 15  1  0
 18 17  2  0
 19 18  1  0
 20 19  2  0
 20 14  1  0
 21 20  1  0
 22 19  1  0
  5 23  1  0
 10 24  1  0
 17 25  1  0
 18 26  1  0
M  END
>  <score>  (9) 
-9.377

$$$$
