=
     RDKit          3D

 52 54  0  0  0  0  0  0  0  0999 V2000
   -0.1050   66.1580   70.3810 C   0  0  0  0  0  0  0  0  0  0  0  0
    0.7200   65.1830   70.7870 C   0  0  0  0  0  0  0  0  0  0  0  0
    1.8700   64.4970   70.0920 C   0  0  0  0  0  0  0  0  0  0  0  0
    2.3130   63.4610   71.0830 C   0  0  0  0  0  0  0  0  0  0  0  0
    1.5530   63.5030   72.2510 C   0  0  0  0  0  0  0  0  0  0  0  0
    0.5400   64.5540   72.1320 C   0  0  0  0  0  0  0  0  0  0  0  0
   -0.2970   64.8440   72.9630 O   0  0  0  0  0  0  0  0  0  0  0  0
    1.7650   62.6510   73.3190 C   0  0  0  0  0  0  0  0  0  0  0  0
    2.7950   61.7120   73.2040 C   0  0  0  0  0  0  0  0  0  0  0  0
    3.5840   61.6550   72.0210 C   0  0  0  0  0  0  0  0  0  0  0  0
    3.3370   62.5370   70.9560 C   0  0  0  0  0  0  0  0  0  0  0  0
    1.2310   68.1200   67.4550 C   0  0  0  0  0  0  0  0  0  0  0  0
    0.1560   68.0340   66.5610 C   0  0  0  0  0  0  0  0  0  0  0  0
   -1.0000   67.3320   66.9080 C   0  0  0  0  0  0  0  0  0  0  0  0
   -1.0990   66.7150   68.1560 C   0  0  0  0  0  0  0  0  0  0  0  0
   -0.0510   66.8120   69.0740 C   0  0  0  0  0  0  0  0  0  0  0  0
    1.1100   67.5100   68.7160 C   0  0  0  0  0  0  0  0  0  0  0  0
    2.4910   68.8490   67.0830 C   0  0  0  0  0  0  0  0  0  0  0  0
    2.9730   68.6990   65.6520 N   0  0  2  0  0  4  0  0  0  0  0  0
    2.8720   67.3000   65.1170 C   0  0  0  0  0  0  0  0  0  0  0  0
    5.0540   69.8620   66.5430 C   0  0  0  0  0  0  0  0  0  0  0  0
    4.2640   69.4170   65.3250 C   0  0  0  0  0  0  0  0  0  0  0  0
    4.5680   60.6960   72.0110 O   0  0  0  0  0  0  0  0  0  0  0  0
    5.7640   60.9730   71.2970 C   0  0  0  0  0  0  0  0  0  0  0  0
    3.1210   60.8030   74.1810 O   0  0  0  0  0  0  0  0  0  0  0  0
    2.2410   60.6830   75.2910 C   0  0  0  0  0  0  0  0  0  0  0  0
   -0.8820   66.4918   71.0844 H   0  0  0  0  0  0  0  0  0  0  0  0
    1.5384   64.0272   69.1543 H   0  0  0  0  0  0  0  0  0  0  0  0
    2.6752   65.1915   69.8105 H   0  0  0  0  0  0  0  0  0  0  0  0
    1.1459   62.7096   74.2264 H   0  0  0  0  0  0  0  0  0  0  0  0
    3.9444   62.4947   70.0399 H   0  0  0  0  0  0  0  0  0  0  0  0
    0.2231   68.5233   65.5781 H   0  0  0  0  0  0  0  0  0  0  0  0
   -1.8354   67.2650   66.1955 H   0  0  0  0  0  0  0  0  0  0  0  0
   -2.0059   66.1502   68.4175 H   0  0  0  0  0  0  0  0  0  0  0  0
    1.9407   67.5819   69.4335 H   0  0  0  0  0  0  0  0  0  0  0  0
    2.3217   69.9203   67.2662 H   0  0  0  0  0  0  0  0  0  0  0  0
    3.2792   68.3937   67.7007 H   0  0  0  0  0  0  0  0  0  0  0  0
    2.2804   69.2291   65.1041 H   0  0  0  0  0  0  0  0  0  0  0  0
    2.8207   66.5897   65.9553 H   0  0  0  0  0  0  0  0  0  0  0  0
    1.9648   67.2073   64.5018 H   0  0  0  0  0  0  0  0  0  0  0  0
    3.7565   67.0779   64.5018 H   0  0  0  0  0  0  0  0  0  0  0  0
    4.5200   69.5612   67.4564 H   0  0  0  0  0  0  0  0  0  0  0  0
    6.0480   69.3911   66.5275 H   0  0  0  0  0  0  0  0  0  0  0  0
    5.1664   70.9561   66.5275 H   0  0  0  0  0  0  0  0  0  0  0  0
    4.0215   70.3077   64.7267 H   0  0  0  0  0  0  0  0  0  0  0  0
    4.8967   68.6989   64.7827 H   0  0  0  0  0  0  0  0  0  0  0  0
    6.5807   61.1622   72.0092 H   0  0  0  0  0  0  0  0  0  0  0  0
    6.0215   60.1107   70.6644 H   0  0  0  0  0  0  0  0  0  0  0  0
    5.6162   61.8607   70.6644 H   0  0  0  0  0  0  0  0  0  0  0  0
    2.8164   60.7615   76.2252 H   0  0  0  0  0  0  0  0  0  0  0  0
    1.4915   61.4873   75.2533 H   0  0  0  0  0  0  0  0  0  0  0  0
    1.7342   59.7074   75.2533 H   0  0  0  0  0  0  0  0  0  0  0  0
  2  1  2  0
  3  2  1  0
  4  3  1  0
  5  4  2  0
  6  2  1  0
  6  5  1  0
  7  6  2  0
  8  5  1  0
  9  8  2  0
 10  9  1  0
 11 10  2  0
 11  4  1  0
 13 12  2  0
 14 13  1  0
 15 14  2  0
 16 15  1  0
 16  1  1  0
 17 16  2  0
 17 12  1  0
 18 12  1  0
 19 18  1  0
 20 19  1  0
 22 21  1  0
 22 19  1  0
 23 10  1  0
 24 23  1  0
 25  9  1  0
 26 25  1  0
  1 27  1  0
  3 28  1  0
  3 29  1  0
  8 30  1  0
 11 31  1  0
 13 32  1  0
 14 33  1  0
 15 34  1  0
 17 35  1  0
 18 36  1  0
 18 37  1  0
 19 38  1  6
 20 39  1  0
 20 40  1  0
 20 41  1  0
 21 42  1  0
 21 43  1  0
 21 44  1  0
 22 45  1  0
 22 46  1  0
 24 47  1  0
 24 48  1  0
 24 49  1  0
 26 50  1  0
 26 51  1  0
 26 52  1  0
M  CHG  1  19   1
M  END
>  <score>  (1) 
-9.479

$$$$
=
     RDKit          3D

 52 54  0  0  0  0  0  0  0  0999 V2000
    0.8190   66.7670   69.7940 C   0  0  0  0  0  0  0  0  0  0  0  0
    1.3810   65.6410   70.2540 C   0  0  0  0  0  0  0  0  0  0  0  0
    2.6360   64.9120   69.8420 C   0  0  0  0  0  0  0  0  0  0  0  0
    2.6400   63.6950   70.7190 C   0  0  0  0  0  0  0  0  0  0  0  0
    1.5430   63.6710   71.5780 C   0  0  0  0  0  0  0  0  0  0  0  0
    0.7150   64.8550   71.3390 C   0  0  0  0  0  0  0  0  0  0  0  0
   -0.3220   65.1340   71.9050 O   0  0  0  0  0  0  0  0  0  0  0  0
    1.3210   62.6530   72.4870 C   0  0  0  0  0  0  0  0  0  0  0  0
    2.2500   61.6100   72.5330 C   0  0  0  0  0  0  0  0  0  0  0  0
    3.3790   61.6170   71.6650 C   0  0  0  0  0  0  0  0  0  0  0  0
    3.5710   62.6680   70.7530 C   0  0  0  0  0  0  0  0  0  0  0  0
    1.5090   68.0180   66.3070 C   0  0  0  0  0  0  0  0  0  0  0  0
    2.2880   69.1510   66.5780 C   0  0  0  0  0  0  0  0  0  0  0  0
    2.5810   69.5110   67.8950 C   0  0  0  0  0  0  0  0  0  0  0  0
    2.1080   68.7380   68.9560 C   0  0  0  0  0  0  0  0  0  0  0  0
    1.3550   67.5890   68.7090 C   0  0  0  0  0  0  0  0  0  0  0  0
    1.0560   67.2370   67.3860 C   0  0  0  0  0  0  0  0  0  0  0  0
    1.1630   67.6340   64.8960 C   0  0  0  0  0  0  0  0  0  0  0  0
    1.5890   68.5940   63.8010 N   0  0  2  0  0  4  0  0  0  0  0  0
    0.4510   69.1270   62.9790 C   0  0  0  0  0  0  0  0  0  0  0  0
    4.0720   68.9350   63.3660 C   0  0  0  0  0  0  0  0  0  0  0  0
    2.8080   68.1740   63.0090 C   0  0  0  0  0  0  0  0  0  0  0  0
    4.2290   60.5450   71.7900 O   0  0  0  0  0  0  0  0  0  0  0  0
    5.6170   60.7660   71.5900 C   0  0  0  0  0  0  0  0  0  0  0  0
    2.1600   60.5340   73.3820 O   0  0  0  0  0  0  0  0  0  0  0  0
    1.8720   60.7950   74.7500 C   0  0  0  0  0  0  0  0  0  0  0  0
   -0.1165   67.0985   70.2682 H   0  0  0  0  0  0  0  0  0  0  0  0
    2.5959   64.6304   68.7794 H   0  0  0  0  0  0  0  0  0  0  0  0
    3.5430   65.5240   69.9554 H   0  0  0  0  0  0  0  0  0  0  0  0
    0.4439   62.6637   73.1507 H   0  0  0  0  0  0  0  0  0  0  0  0
    4.4412   62.6761   70.0802 H   0  0  0  0  0  0  0  0  0  0  0  0
    2.6715   69.7613   65.7471 H   0  0  0  0  0  0  0  0  0  0  0  0
    3.1866   70.4068   68.0967 H   0  0  0  0  0  0  0  0  0  0  0  0
    2.3295   69.0354   69.9916 H   0  0  0  0  0  0  0  0  0  0  0  0
    0.4575   66.3356   67.1879 H   0  0  0  0  0  0  0  0  0  0  0  0
    1.6368   66.6629   64.6899 H   0  0  0  0  0  0  0  0  0  0  0  0
    0.0636   67.6277   64.8611 H   0  0  0  0  0  0  0  0  0  0  0  0
    1.9338   69.4157   64.3176 H   0  0  0  0  0  0  0  0  0  0  0  0
   -0.3410   69.4979   63.6462 H   0  0  0  0  0  0  0  0  0  0  0  0
    0.8111   69.9501   62.3443 H   0  0  0  0  0  0  0  0  0  0  0  0
    0.0492   68.3234   62.3443 H   0  0  0  0  0  0  0  0  0  0  0  0
    4.1684   68.9930   64.4602 H   0  0  0  0  0  0  0  0  0  0  0  0
    4.9451   68.4123   62.9482 H   0  0  0  0  0  0  0  0  0  0  0  0
    4.0185   69.9512   62.9482 H   0  0  0  0  0  0  0  0  0  0  0  0
    2.5982   68.3345   61.9412 H   0  0  0  0  0  0  0  0  0  0  0  0
    2.9949   67.1174   63.2514 H   0  0  0  0  0  0  0  0  0  0  0  0
    6.1198   60.8461   72.5651 H   0  0  0  0  0  0  0  0  0  0  0  0
    6.0446   59.9246   71.0250 H   0  0  0  0  0  0  0  0  0  0  0  0
    5.7621   61.6986   71.0250 H   0  0  0  0  0  0  0  0  0  0  0  0
    2.5370   60.1924   75.3861 H   0  0  0  0  0  0  0  0  0  0  0  0
    2.0313   61.8628   74.9610 H   0  0  0  0  0  0  0  0  0  0  0  0
    0.8250   60.5317   74.9610 H   0  0  0  0  0  0  0  0  0  0  0  0
  2  1  2  0
  3  2  1  0
  4  3  1  0
  5  4  2  0
  6  2  1  0
  6  5  1  0
  7  6  2  0
  8  5  1  0
  9  8  2  0
 10  9  1  0
 11 10  2  0
 11  4  1  0
 13 12  2  0
 14 13  1  0
 15 14  2  0
 16 15  1  0
 16  1  1  0
 17 16  2  0
 17 12  1  0
 18 12  1  0
 19 18  1  0
 20 19  1  0
 22 21  1  0
 22 19  1  0
 23 10  1  0
 24 23  1  0
 25  9  1  0
 26 25  1  0
  1 27  1  0
  3 28  1  0
  3 29  1  0
  8 30  1  0
 11 31  1  0
 13 32  1  0
 14 33  1  0
 15 34  1  0
 17 35  1  0
 18 36  1  0
 18 37  1  0
 19 38  1  1
 20 39  1  0
 20 40  1  0
 20 41  1  0
 21 42  1  0
 21 43  1  0
 21 44  1  0
 22 45  1  0
 22 46  1  0
 24 47  1  0
 24 48  1  0
 24 49  1  0
 26 50  1  0
 26 51  1  0
 26 52  1  0
M  CHG  1  19   1
M  END
>  <score>  (2) 
-8.589

$$$$
=
     RDKit          3D

 52 54  0  0  0  0  0  0  0  0999 V2000
   -0.3570   62.2900   72.5520 C   0  0  0  0  0  0  0  0  0  0  0  0
   -0.0970   61.0220   72.8980 C   0  0  0  0  0  0  0  0  0  0  0  0
    1.1040   60.1450   72.6440 C   0  0  0  0  0  0  0  0  0  0  0  0
    0.7110   58.8270   73.2420 C   0  0  0  0  0  0  0  0  0  0  0  0
   -0.5610   58.8740   73.8110 C   0  0  0  0  0  0  0  0  0  0  0  0
   -1.1230   60.2140   73.6290 C   0  0  0  0  0  0  0  0  0  0  0  0
   -2.2200   60.5900   73.9900 O   0  0  0  0  0  0  0  0  0  0  0  0
   -1.1510   57.7870   74.4280 C   0  0  0  0  0  0  0  0  0  0  0  0
   -0.4220   56.5950   74.4770 C   0  0  0  0  0  0  0  0  0  0  0  0
    0.8790   56.5270   73.9040 C   0  0  0  0  0  0  0  0  0  0  0  0
    1.4450   57.6520   73.2840 C   0  0  0  0  0  0  0  0  0  0  0  0
    2.7570   63.4900   70.8020 C   0  0  0  0  0  0  0  0  0  0  0  0
    2.3260   64.7280   70.3060 C   0  0  0  0  0  0  0  0  0  0  0  0
    1.0200   65.1670   70.5350 C   0  0  0  0  0  0  0  0  0  0  0  0
    0.1330   64.3800   71.2700 C   0  0  0  0  0  0  0  0  0  0  0  0
    0.5500   63.1570   71.7990 C   0  0  0  0  0  0  0  0  0  0  0  0
    1.8580   62.7160   71.5580 C   0  0  0  0  0  0  0  0  0  0  0  0
    4.1500   62.9930   70.5400 C   0  0  0  0  0  0  0  0  0  0  0  0
    4.3990   61.5100   70.7410 N   0  0  2  0  0  4  0  0  0  0  0  0
    5.6530   61.1990   71.5040 C   0  0  0  0  0  0  0  0  0  0  0  0
    3.4510   59.3330   69.8270 C   0  0  0  0  0  0  0  0  0  0  0  0
    4.1580   60.6410   69.5250 C   0  0  0  0  0  0  0  0  0  0  0  0
    1.5080   55.3090   74.0050 O   0  0  0  0  0  0  0  0  0  0  0  0
    2.4240   55.1160   75.0720 C   0  0  0  0  0  0  0  0  0  0  0  0
   -0.8790   55.4360   75.0560 O   0  0  0  0  0  0  0  0  0  0  0  0
   -2.2840   55.2860   75.2140 C   0  0  0  0  0  0  0  0  0  0  0  0
   -1.3261   62.7114   72.8572 H   0  0  0  0  0  0  0  0  0  0  0  0
    1.2964   60.0452   71.5656 H   0  0  0  0  0  0  0  0  0  0  0  0
    2.0296   60.5519   73.0772 H   0  0  0  0  0  0  0  0  0  0  0  0
   -2.1581   57.8572   74.8649 H   0  0  0  0  0  0  0  0  0  0  0  0
    2.4504   57.6021   72.8406 H   0  0  0  0  0  0  0  0  0  0  0  0
    3.0213   65.3584   69.7323 H   0  0  0  0  0  0  0  0  0  0  0  0
    0.6896   66.1367   70.1344 H   0  0  0  0  0  0  0  0  0  0  0  0
   -0.8989   64.7243   71.4334 H   0  0  0  0  0  0  0  0  0  0  0  0
    2.1871   61.7491   71.9665 H   0  0  0  0  0  0  0  0  0  0  0  0
    4.3974   63.2329   69.4954 H   0  0  0  0  0  0  0  0  0  0  0  0
    4.7789   63.4936   71.2909 H   0  0  0  0  0  0  0  0  0  0  0  0
    3.6400   61.2194   71.3738 H   0  0  0  0  0  0  0  0  0  0  0  0
    5.4476   61.2499   72.5834 H   0  0  0  0  0  0  0  0  0  0  0  0
    5.9992   60.1878   71.2440 H   0  0  0  0  0  0  0  0  0  0  0  0
    6.4316   61.9313   71.2440 H   0  0  0  0  0  0  0  0  0  0  0  0
    3.3783   59.1985   70.9163 H   0  0  0  0  0  0  0  0  0  0  0  0
    2.4409   59.3532   69.3918 H   0  0  0  0  0  0  0  0  0  0  0  0
    4.0212   58.4990   69.3918 H   0  0  0  0  0  0  0  0  0  0  0  0
    5.1313   60.4097   69.0676 H   0  0  0  0  0  0  0  0  0  0  0  0
    3.4974   61.2105   68.8547 H   0  0  0  0  0  0  0  0  0  0  0  0
    1.8978   55.2269   76.0316 H   0  0  0  0  0  0  0  0  0  0  0  0
    2.8569   54.1069   75.0056 H   0  0  0  0  0  0  0  0  0  0  0  0
    3.2272   55.8646   75.0056 H   0  0  0  0  0  0  0  0  0  0  0  0
   -2.5317   55.2596   76.2854 H   0  0  0  0  0  0  0  0  0  0  0  0
   -2.7990   56.1343   74.7394 H   0  0  0  0  0  0  0  0  0  0  0  0
   -2.6083   54.3481   74.7394 H   0  0  0  0  0  0  0  0  0  0  0  0
  2  1  2  0
  3  2  1  0
  4  3  1  0
  5  4  2  0
  6  2  1  0
  6  5  1  0
  7  6  2  0
  8  5  1  0
  9  8  2  0
 10  9  1  0
 11 10  2  0
 11  4  1  0
 13 12  2  0
 14 13  1  0
 15 14  2  0
 16 15  1  0
 16  1  1  0
 17 16  2  0
 17 12  1  0
 18 12  1  0
 19 18  1  0
 20 19  1  0
 22 21  1  0
 22 19  1  0
 23 10  1  0
 24 23  1  0
 25  9  1  0
 26 25  1  0
  1 27  1  0
  3 28  1  0
  3 29  1  0
  8 30  1  0
 11 31  1  0
 13 32  1  0
 14 33  1  0
 15 34  1  0
 17 35  1  0
 18 36  1  0
 18 37  1  0
 19 38  1  1
 20 39  1  0
 20 40  1  0
 20 41  1  0
 21 42  1  0
 21 43  1  0
 21 44  1  0
 22 45  1  0
 22 46  1  0
 24 47  1  0
 24 48  1  0
 24 49  1  0
 26 50  1  0
 26 51  1  0
 26 52  1  0
M  CHG  1  19   1
M  END
>  <score>  (3) 
-8.442

$$$$
=
     RDKit          3D

 52 54  0  0  0  0  0  0  0  0999 V2000
    2.2360   62.8000   71.1270 C   0  0  0  0  0  0  0  0  0  0  0  0
    1.7920   61.6790   71.7130 C   0  0  0  0  0  0  0  0  0  0  0  0
    0.5100   61.3800   72.4500 C   0  0  0  0  0  0  0  0  0  0  0  0
    0.6880   59.9610   72.9040 C   0  0  0  0  0  0  0  0  0  0  0  0
    1.9120   59.4350   72.4930 C   0  0  0  0  0  0  0  0  0  0  0  0
    2.6520   60.4550   71.7470 C   0  0  0  0  0  0  0  0  0  0  0  0
    3.7580   60.3320   71.2630 O   0  0  0  0  0  0  0  0  0  0  0  0
    2.3130   58.1440   72.7840 C   0  0  0  0  0  0  0  0  0  0  0  0
    1.4360   57.3450   73.5240 C   0  0  0  0  0  0  0  0  0  0  0  0
    0.1810   57.8630   73.9520 C   0  0  0  0  0  0  0  0  0  0  0  0
   -0.1910   59.1800   73.6380 C   0  0  0  0  0  0  0  0  0  0  0  0
    1.1200   66.1990   69.9460 C   0  0  0  0  0  0  0  0  0  0  0  0
    0.1000   66.4810   70.8650 C   0  0  0  0  0  0  0  0  0  0  0  0
   -0.2280   65.5610   71.8630 C   0  0  0  0  0  0  0  0  0  0  0  0
    0.4640   64.3540   71.9600 C   0  0  0  0  0  0  0  0  0  0  0  0
    1.5030   64.0650   71.0740 C   0  0  0  0  0  0  0  0  0  0  0  0
    1.8220   64.9870   70.0690 C   0  0  0  0  0  0  0  0  0  0  0  0
    1.4640   67.1680   68.8500 C   0  0  0  0  0  0  0  0  0  0  0  0
    0.6940   67.0350   67.5500 N   0  0  2  0  0  4  0  0  0  0  0  0
    1.5460   67.1560   66.3200 C   0  0  0  0  0  0  0  0  0  0  0  0
   -1.8430   66.9110   67.6910 C   0  0  0  0  0  0  0  0  0  0  0  0
   -0.6190   67.7860   67.4950 C   0  0  0  0  0  0  0  0  0  0  0  0
   -0.6030   56.9960   74.6740 O   0  0  0  0  0  0  0  0  0  0  0  0
   -1.8040   57.4960   75.2420 C   0  0  0  0  0  0  0  0  0  0  0  0
    1.6990   56.0460   73.8880 O   0  0  0  0  0  0  0  0  0  0  0  0
    2.4930   55.8330   75.0480 C   0  0  0  0  0  0  0  0  0  0  0  0
    3.2265   62.7661   70.6498 H   0  0  0  0  0  0  0  0  0  0  0  0
    0.3844   62.0548   73.3096 H   0  0  0  0  0  0  0  0  0  0  0  0
   -0.3850   61.5205   71.8261 H   0  0  0  0  0  0  0  0  0  0  0  0
    3.2865   57.7596   72.4456 H   0  0  0  0  0  0  0  0  0  0  0  0
   -1.1598   59.5836   73.9676 H   0  0  0  0  0  0  0  0  0  0  0  0
   -0.4460   67.4337   70.7996 H   0  0  0  0  0  0  0  0  0  0  0  0
   -1.0349   65.7890   72.5750 H   0  0  0  0  0  0  0  0  0  0  0  0
    0.1897   63.6266   72.7382 H   0  0  0  0  0  0  0  0  0  0  0  0
    2.6353   64.7591   69.3642 H   0  0  0  0  0  0  0  0  0  0  0  0
    1.2900   68.1829   69.2370 H   0  0  0  0  0  0  0  0  0  0  0  0
    2.5091   66.9459   68.5884 H   0  0  0  0  0  0  0  0  0  0  0  0
    0.3866   66.0519   67.5480 H   0  0  0  0  0  0  0  0  0  0  0  0
    2.5954   67.3050   66.6141 H   0  0  0  0  0  0  0  0  0  0  0  0
    1.4597   66.2366   65.7223 H   0  0  0  0  0  0  0  0  0  0  0  0
    1.2072   68.0150   65.7223 H   0  0  0  0  0  0  0  0  0  0  0  0
   -2.0298   66.7775   68.7668 H   0  0  0  0  0  0  0  0  0  0  0  0
   -2.7156   67.3912   67.2242 H   0  0  0  0  0  0  0  0  0  0  0  0
   -1.6710   65.9299   67.2242 H   0  0  0  0  0  0  0  0  0  0  0  0
   -0.6970   68.2735   66.5120 H   0  0  0  0  0  0  0  0  0  0  0  0
   -0.6075   68.5055   68.3270 H   0  0  0  0  0  0  0  0  0  0  0  0
   -1.7311   57.4657   76.3392 H   0  0  0  0  0  0  0  0  0  0  0  0
   -1.9606   58.5341   74.9135 H   0  0  0  0  0  0  0  0  0  0  0  0
   -2.6510   56.8757   74.9135 H   0  0  0  0  0  0  0  0  0  0  0  0
    1.8805   55.9973   75.9468 H   0  0  0  0  0  0  0  0  0  0  0  0
    2.8737   54.8010   75.0473 H   0  0  0  0  0  0  0  0  0  0  0  0
    3.3391   56.5359   75.0473 H   0  0  0  0  0  0  0  0  0  0  0  0
  2  1  2  0
  3  2  1  0
  4  3  1  0
  5  4  2  0
  6  2  1  0
  6  5  1  0
  7  6  2  0
  8  5  1  0
  9  8  2  0
 10  9  1  0
 11 10  2  0
 11  4  1  0
 13 12  2  0
 14 13  1  0
 15 14  2  0
 16 15  1  0
 16  1  1  0
 17 16  2  0
 17 12  1  0
 18 12  1  0
 19 18  1  0
 20 19  1  0
 22 21  1  0
 22 19  1  0
 23 10  1  0
 24 23  1  0
 25  9  1  0
 26 25  1  0
  1 27  1  0
  3 28  1  0
  3 29  1  0
  8 30  1  0
 11 31  1  0
 13 32  1  0
 14 33  1  0
 15 34  1  0
 17 35  1  0
 18 36  1  0
 18 37  1  0
 19 38  1  1
 20 39  1  0
 20 40  1  0
 20 41  1  0
 21 42  1  0
 21 43  1  0
 21 44  1  0
 22 45  1  0
 22 46  1  0
 24 47  1  0
 24 48  1  0
 24 49  1  0
 26 50  1  0
 26 51  1  0
 26 52  1  0
M  CHG  1  19   1
M  END
>  <score>  (4) 
-7.933

$$$$
=
     RDKit          3D

 52 54  0  0  0  0  0  0  0  0999 V2000
    2.9890   58.5740   72.1640 C   0  0  0  0  0  0  0  0  0  0  0  0
    1.8140   58.4350   72.7930 C   0  0  0  0  0  0  0  0  0  0  0  0
    0.8080   59.4550   73.2640 C   0  0  0  0  0  0  0  0  0  0  0  0
   -0.2420   58.6270   73.9430 C   0  0  0  0  0  0  0  0  0  0  0  0
    0.0560   57.2660   73.8910 C   0  0  0  0  0  0  0  0  0  0  0  0
    1.3270   57.0760   73.1880 C   0  0  0  0  0  0  0  0  0  0  0  0
    1.8840   56.0180   72.9830 O   0  0  0  0  0  0  0  0  0  0  0  0
   -0.7570   56.2950   74.4440 C   0  0  0  0  0  0  0  0  0  0  0  0
   -1.9300   56.7160   75.0790 C   0  0  0  0  0  0  0  0  0  0  0  0
   -2.2540   58.1010   75.1410 C   0  0  0  0  0  0  0  0  0  0  0  0
   -1.4010   59.0590   74.5690 C   0  0  0  0  0  0  0  0  0  0  0  0
    3.4140   61.9090   70.4640 C   0  0  0  0  0  0  0  0  0  0  0  0
    4.6240   62.3430   71.0210 C   0  0  0  0  0  0  0  0  0  0  0  0
    5.2970   61.5530   71.9560 C   0  0  0  0  0  0  0  0  0  0  0  0
    4.7730   60.3170   72.3370 C   0  0  0  0  0  0  0  0  0  0  0  0
    3.5840   59.8520   71.7720 C   0  0  0  0  0  0  0  0  0  0  0  0
    2.9080   60.6530   70.8420 C   0  0  0  0  0  0  0  0  0  0  0  0
    2.6660   62.7620   69.4780 C   0  0  0  0  0  0  0  0  0  0  0  0
    1.5570   63.6380   70.0310 N   0  0  2  0  0  4  0  0  0  0  0  0
    1.9990   65.0260   70.3930 C   0  0  0  0  0  0  0  0  0  0  0  0
    0.8190   63.4820   72.4610 C   0  0  0  0  0  0  0  0  0  0  0  0
    0.6480   62.9720   71.0420 C   0  0  0  0  0  0  0  0  0  0  0  0
   -3.4270   58.4060   75.7890 O   0  0  0  0  0  0  0  0  0  0  0  0
   -4.4810   58.9760   75.0280 C   0  0  0  0  0  0  0  0  0  0  0  0
   -2.8320   55.8660   75.6720 O   0  0  0  0  0  0  0  0  0  0  0  0
   -2.3810   54.5640   76.0220 C   0  0  0  0  0  0  0  0  0  0  0  0
    3.5487   57.6579   71.9242 H   0  0  0  0  0  0  0  0  0  0  0  0
    1.2673   60.1628   73.9698 H   0  0  0  0  0  0  0  0  0  0  0  0
    0.4051   60.0681   72.4444 H   0  0  0  0  0  0  0  0  0  0  0  0
   -0.4912   55.2291   74.3869 H   0  0  0  0  0  0  0  0  0  0  0  0
   -1.6475   60.1300   74.6167 H   0  0  0  0  0  0  0  0  0  0  0  0
    5.0471   63.3127   70.7199 H   0  0  0  0  0  0  0  0  0  0  0  0
    6.2426   61.9061   72.3932 H   0  0  0  0  0  0  0  0  0  0  0  0
    5.2990   59.7065   73.0857 H   0  0  0  0  0  0  0  0  0  0  0  0
    1.9667   60.2934   70.4008 H   0  0  0  0  0  0  0  0  0  0  0  0
    3.3970   63.4214   68.9872 H   0  0  0  0  0  0  0  0  0  0  0  0
    2.1621   62.0505   68.8073 H   0  0  0  0  0  0  0  0  0  0  0  0
    0.9291   63.7746   69.2260 H   0  0  0  0  0  0  0  0  0  0  0  0
    2.0311   65.1267   71.4879 H   0  0  0  0  0  0  0  0  0  0  0  0
    3.0007   65.2117   69.9782 H   0  0  0  0  0  0  0  0  0  0  0  0
    1.2891   65.7568   69.9782 H   0  0  0  0  0  0  0  0  0  0  0  0
    0.5520   62.6858   73.1715 H   0  0  0  0  0  0  0  0  0  0  0  0
    1.8660   63.7794   72.6201 H   0  0  0  0  0  0  0  0  0  0  0  0
    0.1629   64.3505   72.6201 H   0  0  0  0  0  0  0  0  0  0  0  0
    0.8572   61.8921   71.0357 H   0  0  0  0  0  0  0  0  0  0  0  0
   -0.3842   63.2071   70.7431 H   0  0  0  0  0  0  0  0  0  0  0  0
   -5.2423   59.3877   75.7069 H   0  0  0  0  0  0  0  0  0  0  0  0
   -4.0815   59.7810   74.3937 H   0  0  0  0  0  0  0  0  0  0  0  0
   -4.9360   58.2010   74.3937 H   0  0  0  0  0  0  0  0  0  0  0  0
   -2.3483   54.4695   77.1174 H   0  0  0  0  0  0  0  0  0  0  0  0
   -3.0716   53.8136   75.6097 H   0  0  0  0  0  0  0  0  0  0  0  0
   -1.3742   54.4015   75.6097 H   0  0  0  0  0  0  0  0  0  0  0  0
  2  1  2  0
  3  2  1  0
  4  3  1  0
  5  4  2  0
  6  2  1  0
  6  5  1  0
  7  6  2  0
  8  5  1  0
  9  8  2  0
 10  9  1  0
 11 10  2  0
 11  4  1  0
 13 12  2  0
 14 13  1  0
 15 14  2  0
 16 15  1  0
 16  1  1  0
 17 16  2  0
 17 12  1  0
 18 12  1  0
 19 18  1  0
 20 19  1  0
 22 21  1  0
 22 19  1  0
 23 10  1  0
 24 23  1  0
 25  9  1  0
 26 25  1  0
  1 27  1  0
  3 28  1  0
  3 29  1  0
  8 30  1  0
 11 31  1  0
 13 32  1  0
 14 33  1  0
 15 34  1  0
 17 35  1  0
 18 36  1  0
 18 37  1  0
 19 38  1  6
 20 39  1  0
 20 40  1  0
 20 41  1  0
 21 42  1  0
 21 43  1  0
 21 44  1  0
 22 45  1  0
 22 46  1  0
 24 47  1  0
 24 48  1  0
 24 49  1  0
 26 50  1  0
 26 51  1  0
 26 52  1  0
M  CHG  1  19   1
M  END
>  <score>  (5) 
-7.877

$$$$
=
     RDKit          3D

 52 54  0  0  0  0  0  0  0  0999 V2000
    1.8100   65.1550   70.1610 C   0  0  0  0  0  0  0  0  0  0  0  0
    1.3250   64.1070   70.8410 C   0  0  0  0  0  0  0  0  0  0  0  0
   -0.0890   63.6330   71.0680 C   0  0  0  0  0  0  0  0  0  0  0  0
    0.0780   62.4450   71.9680 C   0  0  0  0  0  0  0  0  0  0  0  0
    1.4190   62.1950   72.2550 C   0  0  0  0  0  0  0  0  0  0  0  0
    2.2510   63.1970   71.5850 C   0  0  0  0  0  0  0  0  0  0  0  0
    3.4610   63.2790   71.6380 O   0  0  0  0  0  0  0  0  0  0  0  0
    1.8360   61.1540   73.0620 C   0  0  0  0  0  0  0  0  0  0  0  0
    0.8530   60.3210   73.6060 C   0  0  0  0  0  0  0  0  0  0  0  0
   -0.5230   60.5580   73.3230 C   0  0  0  0  0  0  0  0  0  0  0  0
   -0.9080   61.6280   72.4990 C   0  0  0  0  0  0  0  0  0  0  0  0
    0.8860   68.2540   68.2280 C   0  0  0  0  0  0  0  0  0  0  0  0
   -0.4750   68.0240   67.9860 C   0  0  0  0  0  0  0  0  0  0  0  0
   -1.0890   66.8570   68.4460 C   0  0  0  0  0  0  0  0  0  0  0  0
   -0.3530   65.9110   69.1600 C   0  0  0  0  0  0  0  0  0  0  0  0
    0.9970   66.1340   69.4380 C   0  0  0  0  0  0  0  0  0  0  0  0
    1.6100   67.3010   68.9660 C   0  0  0  0  0  0  0  0  0  0  0  0
    1.5650   69.4920   67.7150 C   0  0  0  0  0  0  0  0  0  0  0  0
    3.0790   69.5280   67.7970 N   0  0  2  0  0  4  0  0  0  0  0  0
    3.6130   70.5080   68.8020 C   0  0  0  0  0  0  0  0  0  0  0  0
    5.2700   69.8910   66.5560 C   0  0  0  0  0  0  0  0  0  0  0  0
    3.8010   69.5190   66.4670 C   0  0  0  0  0  0  0  0  0  0  0  0
   -1.4060   59.6830   73.9080 O   0  0  0  0  0  0  0  0  0  0  0  0
   -2.5940   60.2140   74.4770 C   0  0  0  0  0  0  0  0  0  0  0  0
    1.1160   59.2500   74.4240 O   0  0  0  0  0  0  0  0  0  0  0  0
    2.4700   58.8380   74.5560 C   0  0  0  0  0  0  0  0  0  0  0  0
    2.9016   65.2896   70.1450 H   0  0  0  0  0  0  0  0  0  0  0  0
   -0.6915   64.4136   71.5556 H   0  0  0  0  0  0  0  0  0  0  0  0
   -0.6140   63.3902   70.1324 H   0  0  0  0  0  0  0  0  0  0  0  0
    2.9032   60.9863   73.2693 H   0  0  0  0  0  0  0  0  0  0  0  0
   -1.9697   61.8139   72.2795 H   0  0  0  0  0  0  0  0  0  0  0  0
   -1.0640   68.7680   67.4297 H   0  0  0  0  0  0  0  0  0  0  0  0
   -2.1564   66.6832   68.2447 H   0  0  0  0  0  0  0  0  0  0  0  0
   -0.8380   64.9860   69.5052 H   0  0  0  0  0  0  0  0  0  0  0  0
    2.6756   67.4752   69.1760 H   0  0  0  0  0  0  0  0  0  0  0  0
    1.2866   69.6098   66.6574 H   0  0  0  0  0  0  0  0  0  0  0  0
    1.2226   70.3018   68.3760 H   0  0  0  0  0  0  0  0  0  0  0  0
    3.3240   68.6067   68.1871 H   0  0  0  0  0  0  0  0  0  0  0  0
    3.4113   70.1379   69.8180 H   0  0  0  0  0  0  0  0  0  0  0  0
    4.6981   70.6222   68.6620 H   0  0  0  0  0  0  0  0  0  0  0  0
    3.1207   71.4817   68.6620 H   0  0  0  0  0  0  0  0  0  0  0  0
    5.5659   69.9659   67.6128 H   0  0  0  0  0  0  0  0  0  0  0  0
    5.8748   69.1177   66.0598 H   0  0  0  0  0  0  0  0  0  0  0  0
    5.4338   70.8590   66.0598 H   0  0  0  0  0  0  0  0  0  0  0  0
    3.3029   70.2369   65.7988 H   0  0  0  0  0  0  0  0  0  0  0  0
    3.7578   68.4865   66.0899 H   0  0  0  0  0  0  0  0  0  0  0  0
   -2.5214   60.1815   75.5741 H   0  0  0  0  0  0  0  0  0  0  0  0
   -2.7239   61.2558   74.1488 H   0  0  0  0  0  0  0  0  0  0  0  0
   -3.4569   59.6159   74.1488 H   0  0  0  0  0  0  0  0  0  0  0  0
    2.7271   58.7598   75.6227 H   0  0  0  0  0  0  0  0  0  0  0  0
    2.6039   57.8585   74.0737 H   0  0  0  0  0  0  0  0  0  0  0  0
    3.1268   59.5770   74.0737 H   0  0  0  0  0  0  0  0  0  0  0  0
  2  1  2  0
  3  2  1  0
  4  3  1  0
  5  4  2  0
  6  2  1  0
  6  5  1  0
  7  6  2  0
  8  5  1  0
  9  8  2  0
 10  9  1  0
 11 10  2  0
 11  4  1  0
 13 12  2  0
 14 13  1  0
 15 14  2  0
 16 15  1  0
 16  1  1  0
 17 16  2  0
 17 12  1  0
 18 12  1  0
 19 18  1  0
 20 19  1  0
 22 21  1  0
 22 19  1  0
 23 10  1  0
 24 23  1  0
 25  9  1  0
 26 25  1  0
  1 27  1  0
  3 28  1  0
  3 29  1  0
  8 30  1  0
 11 31  1  0
 13 32  1  0
 14 33  1  0
 15 34  1  0
 17 35  1  0
 18 36  1  0
 18 37  1  0
 19 38  1  1
 20 39  1  0
 20 40  1  0
 20 41  1  0
 21 42  1  0
 21 43  1  0
 21 44  1  0
 22 45  1  0
 22 46  1  0
 24 47  1  0
 24 48  1  0
 24 49  1  0
 26 50  1  0
 26 51  1  0
 26 52  1  0
M  CHG  1  19   1
M  END
>  <score>  (6) 
-7.811

$$$$
=
     RDKit          3D

 52 54  0  0  0  0  0  0  0  0999 V2000
    2.1820   57.0270   72.4940 C   0  0  0  0  0  0  0  0  0  0  0  0
    2.3460   58.3070   72.1300 C   0  0  0  0  0  0  0  0  0  0  0  0
    1.7580   59.5830   72.6800 C   0  0  0  0  0  0  0  0  0  0  0  0
    2.3060   60.6430   71.7710 C   0  0  0  0  0  0  0  0  0  0  0  0
    3.1400   60.1070   70.7920 C   0  0  0  0  0  0  0  0  0  0  0  0
    3.2070   58.6530   70.9570 C   0  0  0  0  0  0  0  0  0  0  0  0
    3.8310   57.8770   70.2610 O   0  0  0  0  0  0  0  0  0  0  0  0
    3.7710   60.8780   69.8340 C   0  0  0  0  0  0  0  0  0  0  0  0
    3.5510   62.2580   69.8660 C   0  0  0  0  0  0  0  0  0  0  0  0
    2.7050   62.8270   70.8600 C   0  0  0  0  0  0  0  0  0  0  0  0
    2.0800   62.0100   71.8160 C   0  0  0  0  0  0  0  0  0  0  0  0
    1.1390   55.9140   75.9390 C   0  0  0  0  0  0  0  0  0  0  0  0
   -0.2430   55.7580   75.7630 C   0  0  0  0  0  0  0  0  0  0  0  0
   -0.8340   56.0210   74.5260 C   0  0  0  0  0  0  0  0  0  0  0  0
   -0.0510   56.4360   73.4480 C   0  0  0  0  0  0  0  0  0  0  0  0
    1.3310   56.5700   73.5920 C   0  0  0  0  0  0  0  0  0  0  0  0
    1.9170   56.3140   74.8380 C   0  0  0  0  0  0  0  0  0  0  0  0
    1.7840   55.6610   77.2720 C   0  0  0  0  0  0  0  0  0  0  0  0
    2.3630   56.8630   77.9940 N   0  0  2  0  0  4  0  0  0  0  0  0
    1.4540   58.0570   78.0190 C   0  0  0  0  0  0  0  0  0  0  0  0
    4.7760   56.8090   78.7970 C   0  0  0  0  0  0  0  0  0  0  0  0
    3.8120   57.1690   77.6820 C   0  0  0  0  0  0  0  0  0  0  0  0
    2.5560   64.1910   70.8010 O   0  0  0  0  0  0  0  0  0  0  0  0
    1.2470   64.7130   70.6230 C   0  0  0  0  0  0  0  0  0  0  0  0
    4.1090   63.1480   68.9790 O   0  0  0  0  0  0  0  0  0  0  0  0
    3.7440   63.0320   67.6100 C   0  0  0  0  0  0  0  0  0  0  0  0
    2.7293   56.2624   71.9232 H   0  0  0  0  0  0  0  0  0  0  0  0
    0.6591   59.5592   72.6382 H   0  0  0  0  0  0  0  0  0  0  0  0
    2.0136   59.7513   73.7366 H   0  0  0  0  0  0  0  0  0  0  0  0
    4.4226   60.4222   69.0740 H   0  0  0  0  0  0  0  0  0  0  0  0
    1.4247   62.4457   72.5846 H   0  0  0  0  0  0  0  0  0  0  0  0
   -0.8665   55.4258   76.6061 H   0  0  0  0  0  0  0  0  0  0  0  0
   -1.9202   55.9008   74.4006 H   0  0  0  0  0  0  0  0  0  0  0  0
   -0.5249   56.6585   72.4806 H   0  0  0  0  0  0  0  0  0  0  0  0
    3.0046   56.4278   74.9575 H   0  0  0  0  0  0  0  0  0  0  0  0
    1.0240   55.2131   77.9291 H   0  0  0  0  0  0  0  0  0  0  0  0
    2.6469   55.0143   77.0547 H   0  0  0  0  0  0  0  0  0  0  0  0
    2.4072   56.5595   78.9773 H   0  0  0  0  0  0  0  0  0  0  0  0
    1.2424   58.3350   79.0621 H   0  0  0  0  0  0  0  0  0  0  0  0
    1.9413   58.8996   77.5066 H   0  0  0  0  0  0  0  0  0  0  0  0
    0.5121   57.8115   77.5066 H   0  0  0  0  0  0  0  0  0  0  0  0
    4.2950   56.9886   79.7698 H   0  0  0  0  0  0  0  0  0  0  0  0
    5.0517   55.7473   78.7148 H   0  0  0  0  0  0  0  0  0  0  0  0
    5.6802   57.4301   78.7148 H   0  0  0  0  0  0  0  0  0  0  0  0
    3.9020   58.2470   77.4824 H   0  0  0  0  0  0  0  0  0  0  0  0
    4.0865   56.5514   76.8141 H   0  0  0  0  0  0  0  0  0  0  0  0
    0.7884   64.8959   71.6060 H   0  0  0  0  0  0  0  0  0  0  0  0
    1.3021   65.6579   70.0626 H   0  0  0  0  0  0  0  0  0  0  0  0
    0.6368   63.9894   70.0626 H   0  0  0  0  0  0  0  0  0  0  0  0
    2.6980   62.6996   67.5363 H   0  0  0  0  0  0  0  0  0  0  0  0
    3.8537   64.0093   67.1172 H   0  0  0  0  0  0  0  0  0  0  0  0
    4.3978   62.2974   67.1172 H   0  0  0  0  0  0  0  0  0  0  0  0
  2  1  2  0
  3  2  1  0
  4  3  1  0
  5  4  2  0
  6  2  1  0
  6  5  1  0
  7  6  2  0
  8  5  1  0
  9  8  2  0
 10  9  1  0
 11 10  2  0
 11  4  1  0
 13 12  2  0
 14 13  1  0
 15 14  2  0
 16 15  1  0
 16  1  1  0
 17 16  2  0
 17 12  1  0
 18 12  1  0
 19 18  1  0
 20 19  1  0
 22 21  1  0
 22 19  1  0
 23 10  1  0
 24 23  1  0
 25  9  1  0
 26 25  1  0
  1 27  1  0
  3 28  1  0
  3 29  1  0
  8 30  1  0
 11 31  1  0
 13 32  1  0
 14 33  1  0
 15 34  1  0
 17 35  1  0
 18 36  1  0
 18 37  1  0
 19 38  1  1
 20 39  1  0
 20 40  1  0
 20 41  1  0
 21 42  1  0
 21 43  1  0
 21 44  1  0
 22 45  1  0
 22 46  1  0
 24 47  1  0
 24 48  1  0
 24 49  1  0
 26 50  1  0
 26 51  1  0
 26 52  1  0
M  CHG  1  19   1
M  END
>  <score>  (7) 
-7.519

$$$$
=
     RDKit          3D

 52 54  0  0  0  0  0  0  0  0999 V2000
   -2.6110   59.8860   74.6160 C   0  0  0  0  0  0  0  0  0  0  0  0
   -1.5700   60.3320   73.9000 C   0  0  0  0  0  0  0  0  0  0  0  0
   -1.3600   61.6170   73.1380 C   0  0  0  0  0  0  0  0  0  0  0  0
   -0.0070   61.4410   72.5150 C   0  0  0  0  0  0  0  0  0  0  0  0
    0.5640   60.2150   72.8530 C   0  0  0  0  0  0  0  0  0  0  0  0
   -0.3590   59.4720   73.7140 C   0  0  0  0  0  0  0  0  0  0  0  0
   -0.1800   58.3630   74.1730 O   0  0  0  0  0  0  0  0  0  0  0  0
    1.8090   59.8150   72.4060 C   0  0  0  0  0  0  0  0  0  0  0  0
    2.5140   60.6950   71.5790 C   0  0  0  0  0  0  0  0  0  0  0  0
    1.9490   61.9530   71.2240 C   0  0  0  0  0  0  0  0  0  0  0  0
    0.6800   62.3230   71.6970 C   0  0  0  0  0  0  0  0  0  0  0  0
   -4.9830   62.6040   75.7030 C   0  0  0  0  0  0  0  0  0  0  0  0
   -6.1980   62.1140   75.2060 C   0  0  0  0  0  0  0  0  0  0  0  0
   -6.2440   60.9040   74.5120 C   0  0  0  0  0  0  0  0  0  0  0  0
   -5.0770   60.1640   74.3140 C   0  0  0  0  0  0  0  0  0  0  0  0
   -3.8600   60.6190   74.8250 C   0  0  0  0  0  0  0  0  0  0  0  0
   -3.8190   61.8380   75.5120 C   0  0  0  0  0  0  0  0  0  0  0  0
   -4.9160   63.9190   76.4280 C   0  0  0  0  0  0  0  0  0  0  0  0
   -5.0390   65.1740   75.5850 N   0  0  2  0  0  4  0  0  0  0  0  0
   -4.0090   66.2220   75.8950 C   0  0  0  0  0  0  0  0  0  0  0  0
   -6.9910   65.5320   73.9940 C   0  0  0  0  0  0  0  0  0  0  0  0
   -6.4470   65.6960   75.4010 C   0  0  0  0  0  0  0  0  0  0  0  0
    2.7240   62.7400   70.4060 O   0  0  0  0  0  0  0  0  0  0  0  0
    2.5080   64.1430   70.4300 C   0  0  0  0  0  0  0  0  0  0  0  0
    3.7590   60.4340   71.0590 O   0  0  0  0  0  0  0  0  0  0  0  0
    4.8600   60.4200   71.9590 C   0  0  0  0  0  0  0  0  0  0  0  0
   -2.5198   58.8937   75.0819 H   0  0  0  0  0  0  0  0  0  0  0  0
   -2.1335   61.7471   72.3668 H   0  0  0  0  0  0  0  0  0  0  0  0
   -1.4226   62.5089   73.7788 H   0  0  0  0  0  0  0  0  0  0  0  0
    2.2302   58.8395   72.6905 H   0  0  0  0  0  0  0  0  0  0  0  0
    0.2402   63.2935   71.4236 H   0  0  0  0  0  0  0  0  0  0  0  0
   -7.1231   62.6877   75.3641 H   0  0  0  0  0  0  0  0  0  0  0  0
   -7.2023   60.5325   74.1200 H   0  0  0  0  0  0  0  0  0  0  0  0
   -5.1164   59.2186   73.7531 H   0  0  0  0  0  0  0  0  0  0  0  0
   -2.8603   62.2029   75.9091 H   0  0  0  0  0  0  0  0  0  0  0  0
   -5.7312   63.9334   77.1664 H   0  0  0  0  0  0  0  0  0  0  0  0
   -3.9037   63.9592   76.8564 H   0  0  0  0  0  0  0  0  0  0  0  0
   -4.7965   64.8548   74.6362 H   0  0  0  0  0  0  0  0  0  0  0  0
   -3.9076   66.3252   76.9854 H   0  0  0  0  0  0  0  0  0  0  0  0
   -3.0419   65.9247   75.4633 H   0  0  0  0  0  0  0  0  0  0  0  0
   -4.3230   67.1838   75.4633 H   0  0  0  0  0  0  0  0  0  0  0  0
   -8.0432   65.2148   74.0423 H   0  0  0  0  0  0  0  0  0  0  0  0
   -6.9213   66.4911   73.4598 H   0  0  0  0  0  0  0  0  0  0  0  0
   -6.4029   64.7712   73.4598 H   0  0  0  0  0  0  0  0  0  0  0  0
   -6.4534   66.7672   75.6509 H   0  0  0  0  0  0  0  0  0  0  0  0
   -7.0942   65.1009   76.0621 H   0  0  0  0  0  0  0  0  0  0  0  0
    2.4549   64.4880   71.4731 H   0  0  0  0  0  0  0  0  0  0  0  0
    3.3386   64.6507   69.9177 H   0  0  0  0  0  0  0  0  0  0  0  0
    1.5632   64.3773   69.9177 H   0  0  0  0  0  0  0  0  0  0  0  0
    4.4876   60.4247   72.9940 H   0  0  0  0  0  0  0  0  0  0  0  0
    5.4606   59.5141   71.7896 H   0  0  0  0  0  0  0  0  0  0  0  0
    5.4834   61.3103   71.7896 H   0  0  0  0  0  0  0  0  0  0  0  0
  2  1  2  0
  3  2  1  0
  4  3  1  0
  5  4  2  0
  6  2  1  0
  6  5  1  0
  7  6  2  0
  8  5  1  0
  9  8  2  0
 10  9  1  0
 11 10  2  0
 11  4  1  0
 13 12  2  0
 14 13  1  0
 15 14  2  0
 16 15  1  0
 16  1  1  0
 17 16  2  0
 17 12  1  0
 18 12  1  0
 19 18  1  0
 20 19  1  0
 22 21  1  0
 22 19  1  0
 23 10  1  0
 24 23  1  0
 25  9  1  0
 26 25  1  0
  1 27  1  0
  3 28  1  0
  3 29  1  0
  8 30  1  0
 11 31  1  0
 13 32  1  0
 14 33  1  0
 15 34  1  0
 17 35  1  0
 18 36  1  0
 18 37  1  0
 19 38  1  6
 20 39  1  0
 20 40  1  0
 20 41  1  0
 21 42  1  0
 21 43  1  0
 21 44  1  0
 22 45  1  0
 22 46  1  0
 24 47  1  0
 24 48  1  0
 24 49  1  0
 26 50  1  0
 26 51  1  0
 26 52  1  0
M  CHG  1  19   1
M  END
>  <score>  (8) 
-7.422

$$$$
=
     RDKit          3D

 52 54  0  0  0  0  0  0  0  0999 V2000
   -0.5520   59.1020   73.9750 C   0  0  0  0  0  0  0  0  0  0  0  0
   -0.0810   60.1370   73.2660 C   0  0  0  0  0  0  0  0  0  0  0  0
   -0.7040   61.4620   72.9010 C   0  0  0  0  0  0  0  0  0  0  0  0
    0.3370   62.1160   72.0410 C   0  0  0  0  0  0  0  0  0  0  0  0
    1.4700   61.3160   71.8990 C   0  0  0  0  0  0  0  0  0  0  0  0
    1.2740   60.0650   72.6370 C   0  0  0  0  0  0  0  0  0  0  0  0
    2.0590   59.1410   72.7070 O   0  0  0  0  0  0  0  0  0  0  0  0
    2.5720   61.6950   71.1560 C   0  0  0  0  0  0  0  0  0  0  0  0
    2.5310   62.9430   70.5270 C   0  0  0  0  0  0  0  0  0  0  0  0
    1.3850   63.7760   70.6620 C   0  0  0  0  0  0  0  0  0  0  0  0
    0.2830   63.3550   71.4240 C   0  0  0  0  0  0  0  0  0  0  0  0
   -4.0560   60.0930   74.9430 C   0  0  0  0  0  0  0  0  0  0  0  0
   -4.4540   58.9780   75.6920 C   0  0  0  0  0  0  0  0  0  0  0  0
   -3.5840   57.9010   75.8750 C   0  0  0  0  0  0  0  0  0  0  0  0
   -2.3040   57.9300   75.3200 C   0  0  0  0  0  0  0  0  0  0  0  0
   -1.8770   59.0440   74.5950 C   0  0  0  0  0  0  0  0  0  0  0  0
   -2.7570   60.1170   74.4070 C   0  0  0  0  0  0  0  0  0  0  0  0
   -4.9920   61.2470   74.7160 C   0  0  0  0  0  0  0  0  0  0  0  0
   -6.4750   60.9280   74.6670 N   0  0  2  0  0  4  0  0  0  0  0  0
   -6.9590   60.4810   73.3190 C   0  0  0  0  0  0  0  0  0  0  0  0
   -7.2080   63.3520   74.9050 C   0  0  0  0  0  0  0  0  0  0  0  0
   -7.3740   61.9180   75.3740 C   0  0  0  0  0  0  0  0  0  0  0  0
    1.4470   64.9800   70.0020 O   0  0  0  0  0  0  0  0  0  0  0  0
    0.4170   65.9270   70.2420 C   0  0  0  0  0  0  0  0  0  0  0  0
    3.5490   63.4510   69.7580 O   0  0  0  0  0  0  0  0  0  0  0  0
    4.8630   63.4230   70.2990 C   0  0  0  0  0  0  0  0  0  0  0  0
    0.1067   58.2301   74.1007 H   0  0  0  0  0  0  0  0  0  0  0  0
   -1.6399   61.3153   72.3419 H   0  0  0  0  0  0  0  0  0  0  0  0
   -0.9722   62.0652   73.7809 H   0  0  0  0  0  0  0  0  0  0  0  0
    3.4497   61.0385   71.0629 H   0  0  0  0  0  0  0  0  0  0  0  0
   -0.6048   63.9960   71.5287 H   0  0  0  0  0  0  0  0  0  0  0  0
   -5.4587   58.9506   76.1390 H   0  0  0  0  0  0  0  0  0  0  0  0
   -3.9088   57.0269   76.4586 H   0  0  0  0  0  0  0  0  0  0  0  0
   -1.6290   57.0719   75.4543 H   0  0  0  0  0  0  0  0  0  0  0  0
   -2.4260   60.9932   73.8302 H   0  0  0  0  0  0  0  0  0  0  0  0
   -4.8339   61.9686   75.5311 H   0  0  0  0  0  0  0  0  0  0  0  0
   -4.7459   61.6230   73.7120 H   0  0  0  0  0  0  0  0  0  0  0  0
   -6.5642   60.0888   75.2575 H   0  0  0  0  0  0  0  0  0  0  0  0
   -7.7618   59.7396   73.4450 H   0  0  0  0  0  0  0  0  0  0  0  0
   -7.3444   61.3476   72.7619 H   0  0  0  0  0  0  0  0  0  0  0  0
   -6.1257   60.0280   72.7619 H   0  0  0  0  0  0  0  0  0  0  0  0
   -7.1311   64.0167   75.7780 H   0  0  0  0  0  0  0  0  0  0  0  0
   -6.2941   63.4360   74.2985 H   0  0  0  0  0  0  0  0  0  0  0  0
   -8.0785   63.6425   74.2985 H   0  0  0  0  0  0  0  0  0  0  0  0
   -7.1514   61.8789   76.4505 H   0  0  0  0  0  0  0  0  0  0  0  0
   -8.4093   61.6269   75.1428 H   0  0  0  0  0  0  0  0  0  0  0  0
    0.2800   66.0529   71.3262 H   0  0  0  0  0  0  0  0  0  0  0  0
    0.6943   66.8921   69.7929 H   0  0  0  0  0  0  0  0  0  0  0  0
   -0.5215   65.5698   69.7929 H   0  0  0  0  0  0  0  0  0  0  0  0
    4.8073   63.4242   71.3976 H   0  0  0  0  0  0  0  0  0  0  0  0
    5.3802   62.5136   69.9591 H   0  0  0  0  0  0  0  0  0  0  0  0
    5.4185   64.3095   69.9591 H   0  0  0  0  0  0  0  0  0  0  0  0
  2  1  2  0
  3  2  1  0
  4  3  1  0
  5  4  2  0
  6  2  1  0
  6  5  1  0
  7  6  2  0
  8  5  1  0
  9  8  2  0
 10  9  1  0
 11 10  2  0
 11  4  1  0
 13 12  2  0
 14 13  1  0
 15 14  2  0
 16 15  1  0
 16  1  1  0
 17 16  2  0
 17 12  1  0
 18 12  1  0
 19 18  1  0
 20 19  1  0
 22 21  1  0
 22 19  1  0
 23 10  1  0
 24 23  1  0
 25  9  1  0
 26 25  1  0
  1 27  1  0
  3 28  1  0
  3 29  1  0
  8 30  1  0
 11 31  1  0
 13 32  1  0
 14 33  1  0
 15 34  1  0
 17 35  1  0
 18 36  1  0
 18 37  1  0
 19 38  1  1
 20 39  1  0
 20 40  1  0
 20 41  1  0
 21 42  1  0
 21 43  1  0
 21 44  1  0
 22 45  1  0
 22 46  1  0
 24 47  1  0
 24 48  1  0
 24 49  1  0
 26 50  1  0
 26 51  1  0
 26 52  1  0
M  CHG  1  19   1
M  END
>  <score>  (9) 
-7.337

$$$$
