=
     RDKit          3D

 37 37  0  0  0  0  0  0  0  0999 V2000
    4.0620   69.1620   64.4330 C   0  0  0  0  0  0  0  0  0  0  0  0
    5.0530   69.5990   63.8500 O   0  0  0  0  0  0  0  0  0  0  0  0
    3.8270   69.2270   65.7940 N   0  0  0  0  0  0  0  0  0  0  0  0
    4.6620   69.8040   66.7900 C   0  0  0  0  0  0  0  0  0  0  0  0
    6.0300   70.0300   66.5920 C   0  0  0  0  0  0  0  0  0  0  0  0
    6.8210   70.5910   67.5980 C   0  0  0  0  0  0  0  0  0  0  0  0
    6.2570   70.9320   68.8200 C   0  0  0  0  0  0  0  0  0  0  0  0
    4.9000   70.7140   69.0370 C   0  0  0  0  0  0  0  0  0  0  0  0
    4.0890   70.1500   68.0350 C   0  0  0  0  0  0  0  0  0  0  0  0
    2.6280   69.9510   68.3490 C   0  0  0  0  0  0  0  0  0  0  0  0
    3.0460   68.3430   63.5960 C   0  0  2  0  0  0  0  0  0  0  0  0
    1.5960   68.8010   63.6610 C   0  0  0  0  0  0  0  0  0  0  0  0
    3.0800   66.8610   63.9650 N   0  0  0  0  0  4  0  0  0  0  0  0
    4.1090   66.0560   63.2200 C   0  0  0  0  0  0  0  0  0  0  0  0
    3.6240   64.0050   64.6550 C   0  0  0  0  0  0  0  0  0  0  0  0
    4.6770   64.9700   64.1290 C   0  0  0  0  0  0  0  0  0  0  0  0
    2.9454   68.8093   66.1246 H   0  0  0  0  0  0  0  0  0  0  0  0
    6.4891   69.7615   65.6291 H   0  0  0  0  0  0  0  0  0  0  0  0
    7.8930   70.7629   67.4214 H   0  0  0  0  0  0  0  0  0  0  0  0
    6.8798   71.3723   69.6126 H   0  0  0  0  0  0  0  0  0  0  0  0
    4.4550   70.9864   70.0054 H   0  0  0  0  0  0  0  0  0  0  0  0
    2.4867   69.9318   69.4397 H   0  0  0  0  0  0  0  0  0  0  0  0
    2.0444   70.7780   67.9182 H   0  0  0  0  0  0  0  0  0  0  0  0
    2.2869   68.9981   67.9182 H   0  0  0  0  0  0  0  0  0  0  0  0
    3.3898   68.5191   62.5661 H   0  0  0  0  0  0  0  0  0  0  0  0
    1.2889   68.8980   64.7128 H   0  0  0  0  0  0  0  0  0  0  0  0
    1.4961   69.7744   63.1586 H   0  0  0  0  0  0  0  0  0  0  0  0
    0.9550   68.0616   63.1586 H   0  0  0  0  0  0  0  0  0  0  0  0
    3.2798   66.7849   64.9726 H   0  0  0  0  0  0  0  0  0  0  0  0
    2.1614   66.4736   63.7060 H   0  0  0  0  0  0  0  0  0  0  0  0
    3.6401   65.5881   62.3418 H   0  0  0  0  0  0  0  0  0  0  0  0
    4.9239   66.7204   62.8968 H   0  0  0  0  0  0  0  0  0  0  0  0
    3.6346   64.0147   65.7549 H   0  0  0  0  0  0  0  0  0  0  0  0
    2.6314   64.3136   64.2951 H   0  0  0  0  0  0  0  0  0  0  0  0
    3.8450   62.9893   64.2951 H   0  0  0  0  0  0  0  0  0  0  0  0
    5.1646   65.4548   64.9876 H   0  0  0  0  0  0  0  0  0  0  0  0
    5.3830   64.3804   63.5258 H   0  0  0  0  0  0  0  0  0  0  0  0
  2  1  2  0
  3  1  1  0
  4  3  1  0
  5  4  2  0
  6  5  1  0
  7  6  2  0
  8  7  1  0
  9  8  2  0
  9  4  1  0
 10  9  1  0
 11  1  1  0
 12 11  1  0
 13 11  1  0
 14 13  1  0
 16 15  1  0
 16 14  1  0
  3 17  1  0
  5 18  1  0
  6 19  1  0
  7 20  1  0
  8 21  1  0
 10 22  1  0
 10 23  1  0
 10 24  1  0
 11 25  1  6
 12 26  1  0
 12 27  1  0
 12 28  1  0
 13 29  1  0
 13 30  1  0
 14 31  1  0
 14 32  1  0
 15 33  1  0
 15 34  1  0
 15 35  1  0
 16 36  1  0
 16 37  1  0
M  CHG  1  13   1
M  END
>  <score>  (1) 
-8.295

$$$$
=
     RDKit          3D

 37 37  0  0  0  0  0  0  0  0999 V2000
    1.2370   68.3350   67.5280 C   0  0  0  0  0  0  0  0  0  0  0  0
    1.4160   67.6610   68.5420 O   0  0  0  0  0  0  0  0  0  0  0  0
    2.0670   69.3370   67.0620 N   0  0  0  0  0  0  0  0  0  0  0  0
    3.2830   69.7930   67.6410 C   0  0  0  0  0  0  0  0  0  0  0  0
    3.3660   70.2510   68.9630 C   0  0  0  0  0  0  0  0  0  0  0  0
    4.5770   70.7010   69.4940 C   0  0  0  0  0  0  0  0  0  0  0  0
    5.7250   70.7020   68.7130 C   0  0  0  0  0  0  0  0  0  0  0  0
    5.6630   70.2520   67.3980 C   0  0  0  0  0  0  0  0  0  0  0  0
    4.4520   69.7970   66.8460 C   0  0  0  0  0  0  0  0  0  0  0  0
    4.4710   69.3220   65.4150 C   0  0  0  0  0  0  0  0  0  0  0  0
   -0.1040   68.1450   66.7750 C   0  0  2  0  0  0  0  0  0  0  0  0
   -1.0500   67.0920   67.3380 C   0  0  0  0  0  0  0  0  0  0  0  0
    0.1210   67.8220   65.2990 N   0  0  0  0  0  4  0  0  0  0  0  0
   -0.3250   68.9000   64.3490 C   0  0  0  0  0  0  0  0  0  0  0  0
    0.0550   69.7260   61.9680 C   0  0  0  0  0  0  0  0  0  0  0  0
    0.6280   68.9720   63.1600 C   0  0  0  0  0  0  0  0  0  0  0  0
    1.7705   69.8078   66.1952 H   0  0  0  0  0  0  0  0  0  0  0  0
    2.4636   70.2562   69.5920 H   0  0  0  0  0  0  0  0  0  0  0  0
    4.6214   71.0557   70.5343 H   0  0  0  0  0  0  0  0  0  0  0  0
    6.6784   71.0567   69.1317 H   0  0  0  0  0  0  0  0  0  0  0  0
    6.5739   70.2521   66.7813 H   0  0  0  0  0  0  0  0  0  0  0  0
    4.5150   68.2231   65.3940 H   0  0  0  0  0  0  0  0  0  0  0  0
    3.5585   69.6623   64.9036 H   0  0  0  0  0  0  0  0  0  0  0  0
    5.3534   69.7341   64.9036 H   0  0  0  0  0  0  0  0  0  0  0  0
   -0.5937   69.1202   66.9134 H   0  0  0  0  0  0  0  0  0  0  0  0
   -1.0215   67.1237   68.4372 H   0  0  0  0  0  0  0  0  0  0  0  0
   -2.0739   67.2962   66.9917 H   0  0  0  0  0  0  0  0  0  0  0  0
   -0.7376   66.0958   66.9917 H   0  0  0  0  0  0  0  0  0  0  0  0
    1.1283   67.6626   65.1546 H   0  0  0  0  0  0  0  0  0  0  0  0
   -0.4523   66.9922   65.0902 H   0  0  0  0  0  0  0  0  0  0  0  0
   -1.3395   68.6726   63.9899 H   0  0  0  0  0  0  0  0  0  0  0  0
   -0.3237   69.8672   64.8729 H   0  0  0  0  0  0  0  0  0  0  0  0
   -0.5743   70.5541   62.3260 H   0  0  0  0  0  0  0  0  0  0  0  0
    0.8777   70.1278   61.3583 H   0  0  0  0  0  0  0  0  0  0  0  0
   -0.5524   69.0409   61.3583 H   0  0  0  0  0  0  0  0  0  0  0  0
    0.8658   67.9463   62.8417 H   0  0  0  0  0  0  0  0  0  0  0  0
    1.5202   69.5226   63.4930 H   0  0  0  0  0  0  0  0  0  0  0  0
  2  1  2  0
  3  1  1  0
  4  3  1  0
  5  4  2  0
  6  5  1  0
  7  6  2  0
  8  7  1  0
  9  8  2  0
  9  4  1  0
 10  9  1  0
 11  1  1  0
 12 11  1  0
 13 11  1  0
 14 13  1  0
 16 15  1  0
 16 14  1  0
  3 17  1  0
  5 18  1  0
  6 19  1  0
  7 20  1  0
  8 21  1  0
 10 22  1  0
 10 23  1  0
 10 24  1  0
 11 25  1  6
 12 26  1  0
 12 27  1  0
 12 28  1  0
 13 29  1  0
 13 30  1  0
 14 31  1  0
 14 32  1  0
 15 33  1  0
 15 34  1  0
 15 35  1  0
 16 36  1  0
 16 37  1  0
M  CHG  1  13   1
M  END
>  <score>  (2) 
-8.274

$$$$
=
     RDKit          3D

 37 37  0  0  0  0  0  0  0  0999 V2000
    0.7260   67.5880   65.8810 C   0  0  0  0  0  0  0  0  0  0  0  0
    1.1460   66.5070   65.4710 O   0  0  0  0  0  0  0  0  0  0  0  0
    1.4140   68.7860   65.8610 N   0  0  0  0  0  0  0  0  0  0  0  0
    2.7270   69.0230   65.3700 C   0  0  0  0  0  0  0  0  0  0  0  0
    3.0800   68.8270   64.0290 C   0  0  0  0  0  0  0  0  0  0  0  0
    4.3840   69.0600   63.5850 C   0  0  0  0  0  0  0  0  0  0  0  0
    5.3580   69.4920   64.4750 C   0  0  0  0  0  0  0  0  0  0  0  0
    5.0280   69.6920   65.8120 C   0  0  0  0  0  0  0  0  0  0  0  0
    3.7200   69.4610   66.2770 C   0  0  0  0  0  0  0  0  0  0  0  0
    3.4440   69.7060   67.7380 C   0  0  0  0  0  0  0  0  0  0  0  0
   -0.6410   67.5900   66.6100 C   0  0  2  0  0  0  0  0  0  0  0  0
   -1.2310   68.9560   66.9320 C   0  0  0  0  0  0  0  0  0  0  0  0
   -0.5850   66.7930   67.9120 N   0  0  0  0  0  4  0  0  0  0  0  0
    0.5860   67.1240   68.7960 C   0  0  0  0  0  0  0  0  0  0  0  0
    1.7020   65.3840   70.2880 C   0  0  0  0  0  0  0  0  0  0  0  0
    0.5110   66.3100   70.0850 C   0  0  0  0  0  0  0  0  0  0  0  0
    0.9180   69.6022   66.2466 H   0  0  0  0  0  0  0  0  0  0  0  0
    2.3181   68.4840   63.3136 H   0  0  0  0  0  0  0  0  0  0  0  0
    4.6397   68.9007   62.5271 H   0  0  0  0  0  0  0  0  0  0  0  0
    6.3847   69.6751   64.1253 H   0  0  0  0  0  0  0  0  0  0  0  0
    5.8007   70.0356   66.5155 H   0  0  0  0  0  0  0  0  0  0  0  0
    4.1288   69.0981   68.3475 H   0  0  0  0  0  0  0  0  0  0  0  0
    3.5971   70.7711   67.9665 H   0  0  0  0  0  0  0  0  0  0  0  0
    2.4046   69.4277   67.9665 H   0  0  0  0  0  0  0  0  0  0  0  0
   -1.3053   67.1222   65.8685 H   0  0  0  0  0  0  0  0  0  0  0  0
   -1.2861   69.0836   68.0232 H   0  0  0  0  0  0  0  0  0  0  0  0
   -0.5921   69.7418   66.5027 H   0  0  0  0  0  0  0  0  0  0  0  0
   -2.2411   69.0296   66.5027 H   0  0  0  0  0  0  0  0  0  0  0  0
   -1.4495   66.9786   68.4403 H   0  0  0  0  0  0  0  0  0  0  0  0
   -0.4805   65.8036   67.6455 H   0  0  0  0  0  0  0  0  0  0  0  0
    1.5207   66.8850   68.2677 H   0  0  0  0  0  0  0  0  0  0  0  0
    0.5616   68.1957   69.0428 H   0  0  0  0  0  0  0  0  0  0  0  0
    1.8797   65.2458   71.3647 H   0  0  0  0  0  0  0  0  0  0  0  0
    1.4922   64.4095   69.8230 H   0  0  0  0  0  0  0  0  0  0  0  0
    2.5948   65.8276   69.8230 H   0  0  0  0  0  0  0  0  0  0  0  0
   -0.4040   65.7000   70.0589 H   0  0  0  0  0  0  0  0  0  0  0  0
    0.5113   67.0257   70.9203 H   0  0  0  0  0  0  0  0  0  0  0  0
  2  1  2  0
  3  1  1  0
  4  3  1  0
  5  4  2  0
  6  5  1  0
  7  6  2  0
  8  7  1  0
  9  8  2  0
  9  4  1  0
 10  9  1  0
 11  1  1  0
 12 11  1  0
 13 11  1  0
 14 13  1  0
 16 15  1  0
 16 14  1  0
  3 17  1  0
  5 18  1  0
  6 19  1  0
  7 20  1  0
  8 21  1  0
 10 22  1  0
 10 23  1  0
 10 24  1  0
 11 25  1  6
 12 26  1  0
 12 27  1  0
 12 28  1  0
 13 29  1  0
 13 30  1  0
 14 31  1  0
 14 32  1  0
 15 33  1  0
 15 34  1  0
 15 35  1  0
 16 36  1  0
 16 37  1  0
M  CHG  1  13   1
M  END
>  <score>  (3) 
-8.143

$$$$
=
     RDKit          3D

 37 37  0  0  0  0  0  0  0  0999 V2000
    1.4500   69.3000   67.2750 C   0  0  0  0  0  0  0  0  0  0  0  0
    1.1260   70.2090   68.0380 O   0  0  0  0  0  0  0  0  0  0  0  0
    2.7350   69.0150   66.8510 N   0  0  0  0  0  0  0  0  0  0  0  0
    3.9330   69.6950   67.2020 C   0  0  0  0  0  0  0  0  0  0  0  0
    4.1580   70.2200   68.4810 C   0  0  0  0  0  0  0  0  0  0  0  0
    5.3440   70.8920   68.7860 C   0  0  0  0  0  0  0  0  0  0  0  0
    6.3250   71.0510   67.8160 C   0  0  0  0  0  0  0  0  0  0  0  0
    6.1200   70.5370   66.5390 C   0  0  0  0  0  0  0  0  0  0  0  0
    4.9320   69.8590   66.2150 C   0  0  0  0  0  0  0  0  0  0  0  0
    4.7900   69.3300   64.8100 C   0  0  0  0  0  0  0  0  0  0  0  0
    0.3100   68.4820   66.6170 C   0  0  2  0  0  0  0  0  0  0  0  0
   -1.0870   69.0810   66.7060 C   0  0  0  0  0  0  0  0  0  0  0  0
    0.2400   67.0630   67.1780 N   0  0  0  0  0  4  0  0  0  0  0  0
   -0.8870   66.8290   68.1460 C   0  0  0  0  0  0  0  0  0  0  0  0
    1.1700   66.5860   69.6320 C   0  0  0  0  0  0  0  0  0  0  0  0
   -0.3300   66.3740   69.4920 C   0  0  0  0  0  0  0  0  0  0  0  0
    2.8357   68.2180   66.2064 H   0  0  0  0  0  0  0  0  0  0  0  0
    3.3883   70.1012   69.2578 H   0  0  0  0  0  0  0  0  0  0  0  0
    5.5013   71.2962   69.7969 H   0  0  0  0  0  0  0  0  0  0  0  0
    7.2590   71.5803   68.0557 H   0  0  0  0  0  0  0  0  0  0  0  0
    6.8987   70.6631   65.7723 H   0  0  0  0  0  0  0  0  0  0  0  0
    4.5050   68.2681   64.8451 H   0  0  0  0  0  0  0  0  0  0  0  0
    4.0133   69.9008   64.2800 H   0  0  0  0  0  0  0  0  0  0  0  0
    5.7482   69.4351   64.2800 H   0  0  0  0  0  0  0  0  0  0  0  0
    0.5946   68.4917   65.5545 H   0  0  0  0  0  0  0  0  0  0  0  0
   -1.3677   69.2014   67.7628 H   0  0  0  0  0  0  0  0  0  0  0  0
   -1.0973   70.0627   66.2098 H   0  0  0  0  0  0  0  0  0  0  0  0
   -1.8052   68.4117   66.2098 H   0  0  0  0  0  0  0  0  0  0  0  0
    0.1269   66.4105   66.3891 H   0  0  0  0  0  0  0  0  0  0  0  0
    1.1130   66.9128   67.7035 H   0  0  0  0  0  0  0  0  0  0  0  0
   -1.4510   67.7636   68.2819 H   0  0  0  0  0  0  0  0  0  0  0  0
   -1.5512   66.0484   67.7465 H   0  0  0  0  0  0  0  0  0  0  0  0
    1.4370   66.6237   70.6984 H   0  0  0  0  0  0  0  0  0  0  0  0
    1.7045   65.7545   69.1494 H   0  0  0  0  0  0  0  0  0  0  0  0
    1.4531   67.5331   69.1494 H   0  0  0  0  0  0  0  0  0  0  0  0
   -0.5426   65.3014   69.6120 H   0  0  0  0  0  0  0  0  0  0  0  0
   -0.8164   66.9854   70.2664 H   0  0  0  0  0  0  0  0  0  0  0  0
  2  1  2  0
  3  1  1  0
  4  3  1  0
  5  4  2  0
  6  5  1  0
  7  6  2  0
  8  7  1  0
  9  8  2  0
  9  4  1  0
 10  9  1  0
 11  1  1  0
 12 11  1  0
 13 11  1  0
 14 13  1  0
 16 15  1  0
 16 14  1  0
  3 17  1  0
  5 18  1  0
  6 19  1  0
  7 20  1  0
  8 21  1  0
 10 22  1  0
 10 23  1  0
 10 24  1  0
 11 25  1  6
 12 26  1  0
 12 27  1  0
 12 28  1  0
 13 29  1  0
 13 30  1  0
 14 31  1  0
 14 32  1  0
 15 33  1  0
 15 34  1  0
 15 35  1  0
 16 36  1  0
 16 37  1  0
M  CHG  1  13   1
M  END
>  <score>  (4) 
-8.084

$$$$
=
     RDKit          3D

 37 37  0  0  0  0  0  0  0  0999 V2000
    4.2800   68.0190   64.5170 C   0  0  0  0  0  0  0  0  0  0  0  0
    3.5950   67.0950   64.9520 O   0  0  0  0  0  0  0  0  0  0  0  0
    4.5820   69.1910   65.1870 N   0  0  0  0  0  0  0  0  0  0  0  0
    4.1760   69.5690   66.4960 C   0  0  0  0  0  0  0  0  0  0  0  0
    2.8650   69.3980   66.9600 C   0  0  0  0  0  0  0  0  0  0  0  0
    2.5010   69.7910   68.2500 C   0  0  0  0  0  0  0  0  0  0  0  0
    3.4400   70.3620   69.0980 C   0  0  0  0  0  0  0  0  0  0  0  0
    4.7470   70.5410   68.6550 C   0  0  0  0  0  0  0  0  0  0  0  0
    5.1320   70.1520   67.3590 C   0  0  0  0  0  0  0  0  0  0  0  0
    6.5680   70.3770   66.9590 C   0  0  0  0  0  0  0  0  0  0  0  0
    4.7360   67.9340   63.0380 C   0  0  2  0  0  0  0  0  0  0  0  0
    5.4500   69.1580   62.4810 C   0  0  0  0  0  0  0  0  0  0  0  0
    3.5670   67.6170   62.1080 N   0  0  0  0  0  4  0  0  0  0  0  0
    2.7880   68.8200   61.6520 C   0  0  0  0  0  0  0  0  0  0  0  0
    1.0650   69.0260   63.5190 C   0  0  0  0  0  0  0  0  0  0  0  0
    1.3250   68.6780   62.0610 C   0  0  0  0  0  0  0  0  0  0  0  0
    5.1688   69.8680   64.6788 H   0  0  0  0  0  0  0  0  0  0  0  0
    2.1108   68.9473   66.2982 H   0  0  0  0  0  0  0  0  0  0  0  0
    1.4665   69.6475   68.5952 H   0  0  0  0  0  0  0  0  0  0  0  0
    3.1528   70.6711   70.1139 H   0  0  0  0  0  0  0  0  0  0  0  0
    5.4901   70.9934   69.3282 H   0  0  0  0  0  0  0  0  0  0  0  0
    7.1891   70.4743   67.8616 H   0  0  0  0  0  0  0  0  0  0  0  0
    6.9204   69.5231   66.3618 H   0  0  0  0  0  0  0  0  0  0  0  0
    6.6423   71.2977   66.3618 H   0  0  0  0  0  0  0  0  0  0  0  0
    5.4749   67.1195   63.0638 H   0  0  0  0  0  0  0  0  0  0  0  0
    5.8131   69.7805   63.3121 H   0  0  0  0  0  0  0  0  0  0  0  0
    6.3022   68.8364   61.8643 H   0  0  0  0  0  0  0  0  0  0  0  0
    4.7506   69.7415   61.8643 H   0  0  0  0  0  0  0  0  0  0  0  0
    3.9394   67.1401   61.2744 H   0  0  0  0  0  0  0  0  0  0  0  0
    2.9133   67.0326   62.6484 H   0  0  0  0  0  0  0  0  0  0  0  0
    3.2098   69.7244   62.1148 H   0  0  0  0  0  0  0  0  0  0  0  0
    2.8515   68.8982   60.5566 H   0  0  0  0  0  0  0  0  0  0  0  0
    1.5972   68.3136   64.1665 H   0  0  0  0  0  0  0  0  0  0  0  0
    1.4244   70.0456   63.7223 H   0  0  0  0  0  0  0  0  0  0  0  0
   -0.0146   68.9704   63.7223 H   0  0  0  0  0  0  0  0  0  0  0  0
    1.0158   67.6361   61.8914 H   0  0  0  0  0  0  0  0  0  0  0  0
    0.7485   69.3892   61.4513 H   0  0  0  0  0  0  0  0  0  0  0  0
  2  1  2  0
  3  1  1  0
  4  3  1  0
  5  4  2  0
  6  5  1  0
  7  6  2  0
  8  7  1  0
  9  8  2  0
  9  4  1  0
 10  9  1  0
 11  1  1  0
 12 11  1  0
 13 11  1  0
 14 13  1  0
 16 15  1  0
 16 14  1  0
  3 17  1  0
  5 18  1  0
  6 19  1  0
  7 20  1  0
  8 21  1  0
 10 22  1  0
 10 23  1  0
 10 24  1  0
 11 25  1  1
 12 26  1  0
 12 27  1  0
 12 28  1  0
 13 29  1  0
 13 30  1  0
 14 31  1  0
 14 32  1  0
 15 33  1  0
 15 34  1  0
 15 35  1  0
 16 36  1  0
 16 37  1  0
M  CHG  1  13   1
M  END
>  <score>  (5) 
-7.996

$$$$
=
     RDKit          3D

 37 37  0  0  0  0  0  0  0  0999 V2000
    1.6540   67.5740   66.5520 C   0  0  0  0  0  0  0  0  0  0  0  0
    2.0180   66.4560   66.1890 O   0  0  0  0  0  0  0  0  0  0  0  0
    2.1730   68.7780   66.1140 N   0  0  0  0  0  0  0  0  0  0  0  0
    3.2150   68.9780   65.1670 C   0  0  0  0  0  0  0  0  0  0  0  0
    3.0730   68.6650   63.8090 C   0  0  0  0  0  0  0  0  0  0  0  0
    4.1230   68.8670   62.9100 C   0  0  0  0  0  0  0  0  0  0  0  0
    5.3330   69.3840   63.3530 C   0  0  0  0  0  0  0  0  0  0  0  0
    5.4930   69.7010   64.6990 C   0  0  0  0  0  0  0  0  0  0  0  0
    4.4480   69.5040   65.6180 C   0  0  0  0  0  0  0  0  0  0  0  0
    4.7020   69.8760   67.0570 C   0  0  0  0  0  0  0  0  0  0  0  0
    0.6180   67.6470   67.7020 C   0  0  2  0  0  0  0  0  0  0  0  0
    1.1150   67.2420   69.0830 C   0  0  0  0  0  0  0  0  0  0  0  0
   -0.6230   66.8130   67.3950 N   0  0  0  0  0  4  0  0  0  0  0  0
   -1.8910   67.6100   67.2480 C   0  0  0  0  0  0  0  0  0  0  0  0
   -1.7170   68.8940   65.0530 C   0  0  0  0  0  0  0  0  0  0  0  0
   -1.5920   68.9430   66.5690 C   0  0  0  0  0  0  0  0  0  0  0  0
    1.7571   69.6282   66.5203 H   0  0  0  0  0  0  0  0  0  0  0  0
    2.1199   68.2538   63.4449 H   0  0  0  0  0  0  0  0  0  0  0  0
    3.9907   68.6156   61.8473 H   0  0  0  0  0  0  0  0  0  0  0  0
    6.1599   69.5421   62.6450 H   0  0  0  0  0  0  0  0  0  0  0  0
    6.4516   70.1118   65.0486 H   0  0  0  0  0  0  0  0  0  0  0  0
    4.2057   69.1491   67.7167 H   0  0  0  0  0  0  0  0  0  0  0  0
    5.7845   69.8687   67.2520 H   0  0  0  0  0  0  0  0  0  0  0  0
    4.3011   70.8816   67.2520 H   0  0  0  0  0  0  0  0  0  0  0  0
    0.3903   68.7222   67.7474 H   0  0  0  0  0  0  0  0  0  0  0  0
    0.5055   67.7387   69.8523 H   0  0  0  0  0  0  0  0  0  0  0  0
    1.0319   66.1511   69.1972 H   0  0  0  0  0  0  0  0  0  0  0  0
    2.1667   67.5436   69.1972 H   0  0  0  0  0  0  0  0  0  0  0  0
   -0.4589   66.3045   66.5144 H   0  0  0  0  0  0  0  0  0  0  0  0
   -0.7623   66.1879   68.2017 H   0  0  0  0  0  0  0  0  0  0  0  0
   -2.6093   67.0430   66.6376 H   0  0  0  0  0  0  0  0  0  0  0  0
   -2.3169   67.7992   68.2444 H   0  0  0  0  0  0  0  0  0  0  0  0
   -2.7089   68.5052   64.7793 H   0  0  0  0  0  0  0  0  0  0  0  0
   -1.5940   69.9069   64.6420 H   0  0  0  0  0  0  0  0  0  0  0  0
   -0.9384   68.2345   64.6420 H   0  0  0  0  0  0  0  0  0  0  0  0
   -0.5643   69.2408   66.8241 H   0  0  0  0  0  0  0  0  0  0  0  0
   -2.3381   69.6653   66.9318 H   0  0  0  0  0  0  0  0  0  0  0  0
  2  1  2  0
  3  1  1  0
  4  3  1  0
  5  4  2  0
  6  5  1  0
  7  6  2  0
  8  7  1  0
  9  8  2  0
  9  4  1  0
 10  9  1  0
 11  1  1  0
 12 11  1  0
 13 11  1  0
 14 13  1  0
 16 15  1  0
 16 14  1  0
  3 17  1  0
  5 18  1  0
  6 19  1  0
  7 20  1  0
  8 21  1  0
 10 22  1  0
 10 23  1  0
 10 24  1  0
 11 25  1  1
 12 26  1  0
 12 27  1  0
 12 28  1  0
 13 29  1  0
 13 30  1  0
 14 31  1  0
 14 32  1  0
 15 33  1  0
 15 34  1  0
 15 35  1  0
 16 36  1  0
 16 37  1  0
M  CHG  1  13   1
M  END
>  <score>  (6) 
-7.934

$$$$
=
     RDKit          3D

 37 37  0  0  0  0  0  0  0  0999 V2000
    1.9270   67.9180   66.2590 C   0  0  0  0  0  0  0  0  0  0  0  0
    2.1070   66.7280   66.0040 O   0  0  0  0  0  0  0  0  0  0  0  0
    2.2080   68.9800   65.4200 N   0  0  0  0  0  0  0  0  0  0  0  0
    2.7520   68.9250   64.1080 C   0  0  0  0  0  0  0  0  0  0  0  0
    4.1280   68.9890   63.8560 C   0  0  0  0  0  0  0  0  0  0  0  0
    4.6250   68.9420   62.5510 C   0  0  0  0  0  0  0  0  0  0  0  0
    3.7550   68.8330   61.4760 C   0  0  0  0  0  0  0  0  0  0  0  0
    2.3830   68.7700   61.7040 C   0  0  0  0  0  0  0  0  0  0  0  0
    1.8650   68.8160   63.0110 C   0  0  0  0  0  0  0  0  0  0  0  0
    0.3680   68.7370   63.1730 C   0  0  0  0  0  0  0  0  0  0  0  0
    1.4730   68.2770   67.6970 C   0  0  2  0  0  0  0  0  0  0  0  0
   -0.0020   68.0690   68.0100 C   0  0  0  0  0  0  0  0  0  0  0  0
    1.8220   69.7210   68.0520 N   0  0  0  0  0  4  0  0  0  0  0  0
    3.0600   69.8760   68.8930 C   0  0  0  0  0  0  0  0  0  0  0  0
    5.4470   70.7600   68.7680 C   0  0  0  0  0  0  0  0  0  0  0  0
    4.2560   70.2000   68.0030 C   0  0  0  0  0  0  0  0  0  0  0  0
    1.9992   69.9191   65.7878 H   0  0  0  0  0  0  0  0  0  0  0  0
    4.8289   69.0777   64.6991 H   0  0  0  0  0  0  0  0  0  0  0  0
    5.7098   68.9916   62.3754 H   0  0  0  0  0  0  0  0  0  0  0  0
    4.1471   68.7965   60.4489 H   0  0  0  0  0  0  0  0  0  0  0  0
    1.6947   68.6831   60.8504 H   0  0  0  0  0  0  0  0  0  0  0  0
    0.1152   68.7237   64.2435 H   0  0  0  0  0  0  0  0  0  0  0  0
   -0.0990   69.6117   62.6969 H   0  0  0  0  0  0  0  0  0  0  0  0
   -0.0043   67.8180   62.6969 H   0  0  0  0  0  0  0  0  0  0  0  0
    2.0330   67.5550   68.3095 H   0  0  0  0  0  0  0  0  0  0  0  0
   -0.1461   68.0487   69.1003 H   0  0  0  0  0  0  0  0  0  0  0  0
   -0.5883   68.8934   67.5779 H   0  0  0  0  0  0  0  0  0  0  0  0
   -0.3375   67.1147   67.5779 H   0  0  0  0  0  0  0  0  0  0  0  0
    1.9616   70.2430   67.1751 H   0  0  0  0  0  0  0  0  0  0  0  0
    1.0386   70.0813   68.6154 H   0  0  0  0  0  0  0  0  0  0  0  0
    2.9107   70.6927   69.6146 H   0  0  0  0  0  0  0  0  0  0  0  0
    3.2528   68.9355   69.4299 H   0  0  0  0  0  0  0  0  0  0  0  0
    5.2622   70.6731   69.8489 H   0  0  0  0  0  0  0  0  0  0  0  0
    6.3519   70.1930   68.5040 H   0  0  0  0  0  0  0  0  0  0  0  0
    5.5875   71.8186   68.5040 H   0  0  0  0  0  0  0  0  0  0  0  0
    3.9423   70.9426   67.2546 H   0  0  0  0  0  0  0  0  0  0  0  0
    4.5819   69.2559   67.5420 H   0  0  0  0  0  0  0  0  0  0  0  0
  2  1  2  0
  3  1  1  0
  4  3  1  0
  5  4  2  0
  6  5  1  0
  7  6  2  0
  8  7  1  0
  9  8  2  0
  9  4  1  0
 10  9  1  0
 11  1  1  0
 12 11  1  0
 13 11  1  0
 14 13  1  0
 16 15  1  0
 16 14  1  0
  3 17  1  0
  5 18  1  0
  6 19  1  0
  7 20  1  0
  8 21  1  0
 10 22  1  0
 10 23  1  0
 10 24  1  0
 11 25  1  1
 12 26  1  0
 12 27  1  0
 12 28  1  0
 13 29  1  0
 13 30  1  0
 14 31  1  0
 14 32  1  0
 15 33  1  0
 15 34  1  0
 15 35  1  0
 16 36  1  0
 16 37  1  0
M  CHG  1  13   1
M  END
>  <score>  (7) 
-7.444

$$$$
=
     RDKit          3D

 37 37  0  0  0  0  0  0  0  0999 V2000
    1.8770   67.8250   66.0930 C   0  0  0  0  0  0  0  0  0  0  0  0
    2.1240   66.6460   65.8410 O   0  0  0  0  0  0  0  0  0  0  0  0
    2.3790   68.9210   65.4170 N   0  0  0  0  0  0  0  0  0  0  0  0
    3.2670   68.9220   64.3070 C   0  0  0  0  0  0  0  0  0  0  0  0
    4.6480   69.1160   64.4430 C   0  0  0  0  0  0  0  0  0  0  0  0
    5.4890   69.1200   63.3280 C   0  0  0  0  0  0  0  0  0  0  0  0
    4.9630   68.9320   62.0560 C   0  0  0  0  0  0  0  0  0  0  0  0
    3.5940   68.7400   61.9000 C   0  0  0  0  0  0  0  0  0  0  0  0
    2.7320   68.7330   63.0120 C   0  0  0  0  0  0  0  0  0  0  0  0
    1.2630   68.5140   62.7560 C   0  0  0  0  0  0  0  0  0  0  0  0
    1.0400   68.1210   67.3630 C   0  0  2  0  0  0  0  0  0  0  0  0
    1.6590   69.0830   68.3680 C   0  0  0  0  0  0  0  0  0  0  0  0
    0.6810   66.8390   68.1110 N   0  0  0  0  0  4  0  0  0  0  0  0
    1.1750   66.7860   69.5310 C   0  0  0  0  0  0  0  0  0  0  0  0
    0.8230   64.6540   70.8840 C   0  0  0  0  0  0  0  0  0  0  0  0
    0.2180   65.9580   70.3840 C   0  0  0  0  0  0  0  0  0  0  0  0
    2.0743   69.8443   65.7570 H   0  0  0  0  0  0  0  0  0  0  0  0
    5.0769   69.2677   65.4445 H   0  0  0  0  0  0  0  0  0  0  0  0
    6.5707   69.2724   63.4573 H   0  0  0  0  0  0  0  0  0  0  0  0
    5.6250   68.9349   61.1775 H   0  0  0  0  0  0  0  0  0  0  0  0
    3.1792   68.5914   60.8921 H   0  0  0  0  0  0  0  0  0  0  0  0
    0.7314   68.4347   63.7157 H   0  0  0  0  0  0  0  0  0  0  0  0
    0.8603   69.3620   62.1827 H   0  0  0  0  0  0  0  0  0  0  0  0
    1.1252   67.5854   62.1827 H   0  0  0  0  0  0  0  0  0  0  0  0
    0.1505   68.6195   66.9502 H   0  0  0  0  0  0  0  0  0  0  0  0
    1.4377   68.7390   69.3891 H   0  0  0  0  0  0  0  0  0  0  0  0
    2.7485   69.1165   68.2204 H   0  0  0  0  0  0  0  0  0  0  0  0
    1.2380   70.0885   68.2204 H   0  0  0  0  0  0  0  0  0  0  0  0
   -0.3451   66.7507   68.1239 H   0  0  0  0  0  0  0  0  0  0  0  0
    1.1454   66.0679   67.6103 H   0  0  0  0  0  0  0  0  0  0  0  0
    2.1739   66.3258   69.5526 H   0  0  0  0  0  0  0  0  0  0  0  0
    1.2273   67.8080   69.9343 H   0  0  0  0  0  0  0  0  0  0  0  0
    0.8254   64.6489   71.9840 H   0  0  0  0  0  0  0  0  0  0  0  0
    0.2257   63.8073   70.5147 H   0  0  0  0  0  0  0  0  0  0  0  0
    1.8552   64.5633   70.5147 H   0  0  0  0  0  0  0  0  0  0  0  0
   -0.6701   65.7206   69.7799 H   0  0  0  0  0  0  0  0  0  0  0  0
   -0.0290   66.5607   71.2704 H   0  0  0  0  0  0  0  0  0  0  0  0
  2  1  2  0
  3  1  1  0
  4  3  1  0
  5  4  2  0
  6  5  1  0
  7  6  2  0
  8  7  1  0
  9  8  2  0
  9  4  1  0
 10  9  1  0
 11  1  1  0
 12 11  1  0
 13 11  1  0
 14 13  1  0
 16 15  1  0
 16 14  1  0
  3 17  1  0
  5 18  1  0
  6 19  1  0
  7 20  1  0
  8 21  1  0
 10 22  1  0
 10 23  1  0
 10 24  1  0
 11 25  1  6
 12 26  1  0
 12 27  1  0
 12 28  1  0
 13 29  1  0
 13 30  1  0
 14 31  1  0
 14 32  1  0
 15 33  1  0
 15 34  1  0
 15 35  1  0
 16 36  1  0
 16 37  1  0
M  CHG  1  13   1
M  END
>  <score>  (8) 
-7.225

$$$$
=
     RDKit          3D

 37 37  0  0  0  0  0  0  0  0999 V2000
    3.4980   69.5060   66.7700 C   0  0  0  0  0  0  0  0  0  0  0  0
    3.4160   69.9440   67.9170 O   0  0  0  0  0  0  0  0  0  0  0  0
    2.5770   68.6870   66.1460 N   0  0  0  0  0  0  0  0  0  0  0  0
    1.3580   68.1880   66.6820 C   0  0  0  0  0  0  0  0  0  0  0  0
    1.2670   67.6400   67.9680 C   0  0  0  0  0  0  0  0  0  0  0  0
    0.0530   67.1510   68.4580 C   0  0  0  0  0  0  0  0  0  0  0  0
   -1.0890   67.1990   67.6700 C   0  0  0  0  0  0  0  0  0  0  0  0
   -1.0180   67.7390   66.3890 C   0  0  0  0  0  0  0  0  0  0  0  0
    0.1950   68.2360   65.8800 C   0  0  0  0  0  0  0  0  0  0  0  0
    0.1850   68.8080   64.4850 C   0  0  0  0  0  0  0  0  0  0  0  0
    4.8140   69.7780   65.9980 C   0  0  2  0  0  0  0  0  0  0  0  0
    5.0900   68.8790   64.8000 C   0  0  0  0  0  0  0  0  0  0  0  0
    6.0310   69.7090   66.9180 N   0  0  0  0  0  4  0  0  0  0  0  0
    6.4430   71.0290   67.5090 C   0  0  0  0  0  0  0  0  0  0  0  0
    7.7130   70.8450   69.7110 C   0  0  0  0  0  0  0  0  0  0  0  0
    6.3580   70.9680   69.0310 C   0  0  0  0  0  0  0  0  0  0  0  0
    2.7990   68.4051   65.1805 H   0  0  0  0  0  0  0  0  0  0  0  0
    2.1648   67.5939   68.6018 H   0  0  0  0  0  0  0  0  0  0  0  0
    0.0021   66.7266   69.4716 H   0  0  0  0  0  0  0  0  0  0  0  0
   -2.0440   66.8127   68.0556 H   0  0  0  0  0  0  0  0  0  0  0  0
   -1.9237   67.7775   65.7659 H   0  0  0  0  0  0  0  0  0  0  0  0
    0.1658   69.9065   64.5393 H   0  0  0  0  0  0  0  0  0  0  0  0
    1.0890   68.4831   63.9490 H   0  0  0  0  0  0  0  0  0  0  0  0
   -0.7071   68.4517   63.9490 H   0  0  0  0  0  0  0  0  0  0  0  0
    4.6526   70.7927   65.6052 H   0  0  0  0  0  0  0  0  0  0  0  0
    5.3959   67.8827   65.1520 H   0  0  0  0  0  0  0  0  0  0  0  0
    4.1781   68.7889   64.1914 H   0  0  0  0  0  0  0  0  0  0  0  0
    5.8953   69.3161   64.1914 H   0  0  0  0  0  0  0  0  0  0  0  0
    5.8133   69.0644   67.6913 H   0  0  0  0  0  0  0  0  0  0  0  0
    6.8193   69.3900   66.3368 H   0  0  0  0  0  0  0  0  0  0  0  0
    7.4774   71.2548   67.2106 H   0  0  0  0  0  0  0  0  0  0  0  0
    5.7684   71.8160   67.1407 H   0  0  0  0  0  0  0  0  0  0  0  0
    7.5779   70.8573   70.8026 H   0  0  0  0  0  0  0  0  0  0  0  0
    8.1893   69.8999   69.4111 H   0  0  0  0  0  0  0  0  0  0  0  0
    8.3517   71.6889   69.4111 H   0  0  0  0  0  0  0  0  0  0  0  0
    5.7479   70.0965   69.3108 H   0  0  0  0  0  0  0  0  0  0  0  0
    5.9123   71.9155   69.3679 H   0  0  0  0  0  0  0  0  0  0  0  0
  2  1  2  0
  3  1  1  0
  4  3  1  0
  5  4  2  0
  6  5  1  0
  7  6  2  0
  8  7  1  0
  9  8  2  0
  9  4  1  0
 10  9  1  0
 11  1  1  0
 12 11  1  0
 13 11  1  0
 14 13  1  0
 16 15  1  0
 16 14  1  0
  3 17  1  0
  5 18  1  0
  6 19  1  0
  7 20  1  0
  8 21  1  0
 10 22  1  0
 10 23  1  0
 10 24  1  0
 11 25  1  6
 12 26  1  0
 12 27  1  0
 12 28  1  0
 13 29  1  0
 13 30  1  0
 14 31  1  0
 14 32  1  0
 15 33  1  0
 15 34  1  0
 15 35  1  0
 16 36  1  0
 16 37  1  0
M  CHG  1  13   1
M  END
>  <score>  (9) 
-7.154

$$$$
