=
     RDKit          3D

 61 64  0  0  0  0  0  0  0  0999 V2000
    0.0940   67.8350   67.7640 C   0  0  0  0  0  0  0  0  0  0  0  0
   -0.8620   66.8540   68.0680 C   0  0  0  0  0  0  0  0  0  0  0  0
   -0.6530   65.9600   69.1240 C   0  0  0  0  0  0  0  0  0  0  0  0
    0.5130   66.0260   69.8980 C   0  0  0  0  0  0  0  0  0  0  0  0
    1.4610   67.0120   69.5980 C   0  0  0  0  0  0  0  0  0  0  0  0
    1.2580   67.9050   68.5420 C   0  0  0  0  0  0  0  0  0  0  0  0
    0.7640   65.0540   70.9850 C   0  0  0  0  0  0  0  0  0  0  0  0
    1.6300   64.0470   70.7780 C   0  0  0  0  0  0  0  0  0  0  0  0
    1.9000   63.0690   71.8220 C   0  0  0  0  0  0  0  0  0  0  0  0
    2.7990   62.0150   71.6390 C   0  0  0  0  0  0  0  0  0  0  0  0
    3.0280   61.0950   72.6730 C   0  0  0  0  0  0  0  0  0  0  0  0
    2.3480   61.2330   73.9030 C   0  0  0  0  0  0  0  0  0  0  0  0
    1.4510   62.2880   74.0820 C   0  0  0  0  0  0  0  0  0  0  0  0
    1.2420   63.1880   73.0390 C   0  0  0  0  0  0  0  0  0  0  0  0
    0.3280   64.2330   73.2630 O   0  0  0  0  0  0  0  0  0  0  0  0
    0.0480   65.1850   72.2900 C   0  0  0  0  0  0  0  0  0  0  0  0
   -0.7560   66.0880   72.5020 O   0  0  0  0  0  0  0  0  0  0  0  0
    3.8900   60.0310   72.5830 O   0  0  0  0  0  0  0  0  0  0  0  0
    3.5660   58.9790   71.6850 C   0  0  0  0  0  0  0  0  0  0  0  0
    2.6320   60.2880   74.8570 O   0  0  0  0  0  0  0  0  0  0  0  0
    2.2140   60.5450   76.1900 C   0  0  0  0  0  0  0  0  0  0  0  0
   -0.1120   68.7820   66.6130 C   0  0  0  0  0  0  0  0  0  0  0  0
    0.3620   68.2590   65.2850 N   0  0  1  0  0  4  0  0  0  0  0  0
    0.3520   69.2830   64.1600 C   0  0  0  0  0  0  0  0  0  0  0  0
   -0.5720   68.7760   63.0440 C   0  0  0  0  0  0  0  0  0  0  0  0
   -1.9190   68.8340   63.5350 O   0  0  0  0  0  0  0  0  0  0  0  0
    1.6430   67.4660   65.3800 C   0  0  0  0  0  0  0  0  0  0  0  0
    2.9090   68.2670   65.2220 C   0  0  0  0  0  0  0  0  0  0  0  0
    3.4150   69.0340   66.2830 C   0  0  0  0  0  0  0  0  0  0  0  0
    4.6040   69.7520   66.1380 C   0  0  0  0  0  0  0  0  0  0  0  0
    5.2960   69.7190   64.9300 C   0  0  0  0  0  0  0  0  0  0  0  0
    4.8000   68.9760   63.8640 C   0  0  0  0  0  0  0  0  0  0  0  0
    3.6130   68.2560   64.0060 C   0  0  0  0  0  0  0  0  0  0  0  0
   -1.7836   66.7871   67.4712 H   0  0  0  0  0  0  0  0  0  0  0  0
   -1.4126   65.1969   69.3490 H   0  0  0  0  0  0  0  0  0  0  0  0
    2.3778   67.0848   70.2015 H   0  0  0  0  0  0  0  0  0  0  0  0
    2.0177   68.6688   68.3197 H   0  0  0  0  0  0  0  0  0  0  0  0
    2.1410   63.9608   69.8077 H   0  0  0  0  0  0  0  0  0  0  0  0
    3.3288   61.9063   70.6811 H   0  0  0  0  0  0  0  0  0  0  0  0
    0.9155   62.4072   75.0354 H   0  0  0  0  0  0  0  0  0  0  0  0
    3.2894   58.0809   72.2568 H   0  0  0  0  0  0  0  0  0  0  0  0
    2.7205   59.2851   71.0514 H   0  0  0  0  0  0  0  0  0  0  0  0
    4.4372   58.7564   71.0514 H   0  0  0  0  0  0  0  0  0  0  0  0
    2.9352   60.1016   76.8923 H   0  0  0  0  0  0  0  0  0  0  0  0
    2.1620   61.6313   76.3550 H   0  0  0  0  0  0  0  0  0  0  0  0
    1.2212   60.1011   76.3550 H   0  0  0  0  0  0  0  0  0  0  0  0
   -1.1877   68.9979   66.5335 H   0  0  0  0  0  0  0  0  0  0  0  0
    0.4902   69.6763   66.8310 H   0  0  0  0  0  0  0  0  0  0  0  0
   -0.3594   67.5804   65.0023 H   0  0  0  0  0  0  0  0  0  0  0  0
   -0.0192   70.2465   64.5393 H   0  0  0  0  0  0  0  0  0  0  0  0
    1.3710   69.4223   63.7697 H   0  0  0  0  0  0  0  0  0  0  0  0
   -0.4697   69.4139   62.1537 H   0  0  0  0  0  0  0  0  0  0  0  0
   -0.3079   67.7460   62.7624 H   0  0  0  0  0  0  0  0  0  0  0  0
   -1.9097   68.8336   64.5250 H   0  0  0  0  0  0  0  0  0  0  0  0
    1.6693   66.9797   66.3663 H   0  0  0  0  0  0  0  0  0  0  0  0
    1.6248   66.7567   64.5394 H   0  0  0  0  0  0  0  0  0  0  0  0
    2.8699   69.0699   67.2377 H   0  0  0  0  0  0  0  0  0  0  0  0
    4.9943   70.3442   66.9788 H   0  0  0  0  0  0  0  0  0  0  0  0
    6.2352   70.2807   64.8188 H   0  0  0  0  0  0  0  0  0  0  0  0
    5.3439   68.9559   62.9081 H   0  0  0  0  0  0  0  0  0  0  0  0
    3.2245   67.6739   63.1573 H   0  0  0  0  0  0  0  0  0  0  0  0
  2  1  2  0
  3  2  1  0
  4  3  2  0
  5  4  1  0
  6  5  2  0
  6  1  1  0
  7  4  1  0
  8  7  2  0
  9  8  1  0
 10  9  2  0
 11 10  1  0
 12 11  2  0
 13 12  1  0
 14 13  2  0
 14  9  1  0
 15 14  1  0
 16 15  1  0
 16  7  1  0
 17 16  2  0
 18 11  1  0
 19 18  1  0
 20 12  1  0
 21 20  1  0
 22  1  1  0
 23 22  1  0
 24 23  1  0
 25 24  1  0
 26 25  1  0
 27 23  1  0
 28 27  1  0
 29 28  2  0
 30 29  1  0
 31 30  2  0
 32 31  1  0
 33 32  2  0
 33 28  1  0
  2 34  1  0
  3 35  1  0
  5 36  1  0
  6 37  1  0
  8 38  1  0
 10 39  1  0
 13 40  1  0
 19 41  1  0
 19 42  1  0
 19 43  1  0
 21 44  1  0
 21 45  1  0
 21 46  1  0
 22 47  1  0
 22 48  1  0
 23 49  1  6
 24 50  1  0
 24 51  1  0
 25 52  1  0
 25 53  1  0
 26 54  1  0
 27 55  1  0
 27 56  1  0
 29 57  1  0
 30 58  1  0
 31 59  1  0
 32 60  1  0
 33 61  1  0
M  CHG  1  23   1
M  END
>  <score>  (1) 
-10.292

$$$$
=
     RDKit          3D

 61 64  0  0  0  0  0  0  0  0999 V2000
    1.1750   65.9520   70.1440 C   0  0  0  0  0  0  0  0  0  0  0  0
    0.1420   65.5430   71.0010 C   0  0  0  0  0  0  0  0  0  0  0  0
    0.1510   64.2620   71.5650 C   0  0  0  0  0  0  0  0  0  0  0  0
    1.1900   63.3650   71.2860 C   0  0  0  0  0  0  0  0  0  0  0  0
    2.2250   63.7800   70.4380 C   0  0  0  0  0  0  0  0  0  0  0  0
    2.2180   65.0570   69.8700 C   0  0  0  0  0  0  0  0  0  0  0  0
    1.1830   61.9930   71.8390 C   0  0  0  0  0  0  0  0  0  0  0  0
    0.1150   61.5720   72.5370 C   0  0  0  0  0  0  0  0  0  0  0  0
    0.0730   60.2300   73.1010 C   0  0  0  0  0  0  0  0  0  0  0  0
   -1.0260   59.7620   73.8260 C   0  0  0  0  0  0  0  0  0  0  0  0
   -1.0230   58.4610   74.3510 C   0  0  0  0  0  0  0  0  0  0  0  0
    0.0940   57.6210   74.1490 C   0  0  0  0  0  0  0  0  0  0  0  0
    1.1900   58.0930   73.4230 C   0  0  0  0  0  0  0  0  0  0  0  0
    1.1610   59.3890   72.9110 C   0  0  0  0  0  0  0  0  0  0  0  0
    2.2880   59.8220   72.1900 O   0  0  0  0  0  0  0  0  0  0  0  0
    2.3600   61.0940   71.6370 C   0  0  0  0  0  0  0  0  0  0  0  0
    3.3540   61.4570   71.0130 O   0  0  0  0  0  0  0  0  0  0  0  0
   -2.0550   57.9180   75.0760 O   0  0  0  0  0  0  0  0  0  0  0  0
   -3.1660   58.7460   75.3850 C   0  0  0  0  0  0  0  0  0  0  0  0
    0.0110   56.3670   74.6980 O   0  0  0  0  0  0  0  0  0  0  0  0
   -0.4500   55.3090   73.8700 C   0  0  0  0  0  0  0  0  0  0  0  0
    1.1570   67.3190   69.5120 C   0  0  0  0  0  0  0  0  0  0  0  0
    0.5470   67.3610   68.1380 N   0  0  1  0  0  4  0  0  0  0  0  0
   -0.8670   66.8080   68.0540 C   0  0  0  0  0  0  0  0  0  0  0  0
   -1.6680   67.6600   67.0590 C   0  0  0  0  0  0  0  0  0  0  0  0
   -2.9770   67.8590   67.6120 O   0  0  0  0  0  0  0  0  0  0  0  0
    0.7270   68.6920   67.4480 C   0  0  0  0  0  0  0  0  0  0  0  0
    2.1550   69.0880   67.1770 C   0  0  0  0  0  0  0  0  0  0  0  0
    2.7830   68.7440   65.9700 C   0  0  0  0  0  0  0  0  0  0  0  0
    4.0980   69.1380   65.7150 C   0  0  0  0  0  0  0  0  0  0  0  0
    4.8020   69.8740   66.6640 C   0  0  0  0  0  0  0  0  0  0  0  0
    4.1990   70.2100   67.8710 C   0  0  0  0  0  0  0  0  0  0  0  0
    2.8850   69.8180   68.1300 C   0  0  0  0  0  0  0  0  0  0  0  0
   -0.6816   66.2347   71.2315 H   0  0  0  0  0  0  0  0  0  0  0  0
   -0.6666   63.9565   72.2345 H   0  0  0  0  0  0  0  0  0  0  0  0
    3.0540   63.0918   70.2163 H   0  0  0  0  0  0  0  0  0  0  0  0
    3.0376   65.3619   69.2027 H   0  0  0  0  0  0  0  0  0  0  0  0
   -0.7388   62.2498   72.6844 H   0  0  0  0  0  0  0  0  0  0  0  0
   -1.8962   60.4157   73.9856 H   0  0  0  0  0  0  0  0  0  0  0  0
    2.0663   57.4490   73.2572 H   0  0  0  0  0  0  0  0  0  0  0  0
   -3.2720   58.8250   76.4770 H   0  0  0  0  0  0  0  0  0  0  0  0
   -3.0067   59.7475   74.9587 H   0  0  0  0  0  0  0  0  0  0  0  0
   -4.0802   58.3072   74.9587 H   0  0  0  0  0  0  0  0  0  0  0  0
   -0.8105   54.4816   74.4989 H   0  0  0  0  0  0  0  0  0  0  0  0
   -1.2716   55.6718   73.2349 H   0  0  0  0  0  0  0  0  0  0  0  0
    0.3751   54.9542   73.2349 H   0  0  0  0  0  0  0  0  0  0  0  0
    0.5814   67.9920   70.1645 H   0  0  0  0  0  0  0  0  0  0  0  0
    2.2072   67.6258   69.3984 H   0  0  0  0  0  0  0  0  0  0  0  0
    1.1020   66.6899   67.5880 H   0  0  0  0  0  0  0  0  0  0  0  0
   -0.8368   65.7643   67.7078 H   0  0  0  0  0  0  0  0  0  0  0  0
   -1.3429   66.8410   69.0452 H   0  0  0  0  0  0  0  0  0  0  0  0
   -1.1716   68.6306   66.9120 H   0  0  0  0  0  0  0  0  0  0  0  0
   -1.7337   67.1549   66.0840 H   0  0  0  0  0  0  0  0  0  0  0  0
   -2.9224   67.8507   68.6005 H   0  0  0  0  0  0  0  0  0  0  0  0
    0.1972   68.6500   66.4849 H   0  0  0  0  0  0  0  0  0  0  0  0
    0.3268   69.4493   68.1381 H   0  0  0  0  0  0  0  0  0  0  0  0
    2.2341   68.1585   65.2178 H   0  0  0  0  0  0  0  0  0  0  0  0
    4.5782   68.8666   64.7633 H   0  0  0  0  0  0  0  0  0  0  0  0
    5.8355   70.1898   66.4590 H   0  0  0  0  0  0  0  0  0  0  0  0
    4.7586   70.7857   68.6229 H   0  0  0  0  0  0  0  0  0  0  0  0
    2.4164   70.0830   69.0892 H   0  0  0  0  0  0  0  0  0  0  0  0
  2  1  2  0
  3  2  1  0
  4  3  2  0
  5  4  1  0
  6  5  2  0
  6  1  1  0
  7  4  1  0
  8  7  2  0
  9  8  1  0
 10  9  2  0
 11 10  1  0
 12 11  2  0
 13 12  1  0
 14 13  2  0
 14  9  1  0
 15 14  1  0
 16 15  1  0
 16  7  1  0
 17 16  2  0
 18 11  1  0
 19 18  1  0
 20 12  1  0
 21 20  1  0
 22  1  1  0
 23 22  1  0
 24 23  1  0
 25 24  1  0
 26 25  1  0
 27 23  1  0
 28 27  1  0
 29 28  2  0
 30 29  1  0
 31 30  2  0
 32 31  1  0
 33 32  2  0
 33 28  1  0
  2 34  1  0
  3 35  1  0
  5 36  1  0
  6 37  1  0
  8 38  1  0
 10 39  1  0
 13 40  1  0
 19 41  1  0
 19 42  1  0
 19 43  1  0
 21 44  1  0
 21 45  1  0
 21 46  1  0
 22 47  1  0
 22 48  1  0
 23 49  1  6
 24 50  1  0
 24 51  1  0
 25 52  1  0
 25 53  1  0
 26 54  1  0
 27 55  1  0
 27 56  1  0
 29 57  1  0
 30 58  1  0
 31 59  1  0
 32 60  1  0
 33 61  1  0
M  CHG  1  23   1
M  END
>  <score>  (2) 
-9.817

$$$$
=
     RDKit          3D

 61 64  0  0  0  0  0  0  0  0999 V2000
    0.3850   67.8520   68.0900 C   0  0  0  0  0  0  0  0  0  0  0  0
   -0.6460   66.9130   68.2470 C   0  0  0  0  0  0  0  0  0  0  0  0
   -0.5450   65.9020   69.2090 C   0  0  0  0  0  0  0  0  0  0  0  0
    0.5850   65.8060   70.0330 C   0  0  0  0  0  0  0  0  0  0  0  0
    1.6080   66.7510   69.8790 C   0  0  0  0  0  0  0  0  0  0  0  0
    1.5130   67.7610   68.9180 C   0  0  0  0  0  0  0  0  0  0  0  0
    0.7210   64.7120   71.0190 C   0  0  0  0  0  0  0  0  0  0  0  0
    1.4050   63.6060   70.6810 C   0  0  0  0  0  0  0  0  0  0  0  0
    1.5580   62.5060   71.6230 C   0  0  0  0  0  0  0  0  0  0  0  0
    2.2680   61.3460   71.3030 C   0  0  0  0  0  0  0  0  0  0  0  0
    2.3890   60.3110   72.2420 C   0  0  0  0  0  0  0  0  0  0  0  0
    1.7900   60.4390   73.5140 C   0  0  0  0  0  0  0  0  0  0  0  0
    1.0810   61.6000   73.8300 C   0  0  0  0  0  0  0  0  0  0  0  0
    0.9770   62.6140   72.8790 C   0  0  0  0  0  0  0  0  0  0  0  0
    0.2510   63.7630   73.2400 O   0  0  0  0  0  0  0  0  0  0  0  0
    0.0880   64.8320   72.3670 C   0  0  0  0  0  0  0  0  0  0  0  0
   -0.5520   65.8260   72.6970 O   0  0  0  0  0  0  0  0  0  0  0  0
    3.0660   59.1380   72.0160 O   0  0  0  0  0  0  0  0  0  0  0  0
    3.4290   58.8200   70.6810 C   0  0  0  0  0  0  0  0  0  0  0  0
    1.9580   59.3780   74.3680 O   0  0  0  0  0  0  0  0  0  0  0  0
    0.7960   58.6880   74.8060 C   0  0  0  0  0  0  0  0  0  0  0  0
    0.2950   68.9260   67.0390 C   0  0  0  0  0  0  0  0  0  0  0  0
   -0.5420   68.5590   65.8440 N   0  0  1  0  0  4  0  0  0  0  0  0
   -1.9530   69.1260   65.8610 C   0  0  0  0  0  0  0  0  0  0  0  0
   -2.9380   67.9790   66.1290 C   0  0  0  0  0  0  0  0  0  0  0  0
   -3.7290   68.3430   67.2700 O   0  0  0  0  0  0  0  0  0  0  0  0
    0.1790   68.7480   64.5310 C   0  0  0  0  0  0  0  0  0  0  0  0
    1.5010   68.0360   64.4150 C   0  0  0  0  0  0  0  0  0  0  0  0
    2.6340   68.6940   63.9110 C   0  0  0  0  0  0  0  0  0  0  0  0
    3.8630   68.0350   63.8310 C   0  0  0  0  0  0  0  0  0  0  0  0
    3.9730   66.7110   64.2480 C   0  0  0  0  0  0  0  0  0  0  0  0
    2.8560   66.0410   64.7370 C   0  0  0  0  0  0  0  0  0  0  0  0
    1.6270   66.6960   64.8180 C   0  0  0  0  0  0  0  0  0  0  0  0
   -1.5402   66.9722   67.6091 H   0  0  0  0  0  0  0  0  0  0  0  0
   -1.3620   65.1739   69.3200 H   0  0  0  0  0  0  0  0  0  0  0  0
    2.4979   66.6971   70.5233 H   0  0  0  0  0  0  0  0  0  0  0  0
    2.3294   68.4903   68.8102 H   0  0  0  0  0  0  0  0  0  0  0  0
    1.8551   63.5305   69.6801 H   0  0  0  0  0  0  0  0  0  0  0  0
    2.7336   61.2441   70.3116 H   0  0  0  0  0  0  0  0  0  0  0  0
    0.6102   61.7130   74.8177 H   0  0  0  0  0  0  0  0  0  0  0  0
    4.2564   58.0952   70.6887 H   0  0  0  0  0  0  0  0  0  0  0  0
    2.5641   58.3836   70.1599 H   0  0  0  0  0  0  0  0  0  0  0  0
    3.7478   59.7348   70.1599 H   0  0  0  0  0  0  0  0  0  0  0  0
    0.7710   58.6732   75.9056 H   0  0  0  0  0  0  0  0  0  0  0  0
   -0.1000   59.2005   74.4258 H   0  0  0  0  0  0  0  0  0  0  0  0
    0.8172   57.6560   74.4258 H   0  0  0  0  0  0  0  0  0  0  0  0
   -0.1409   69.8239   67.5014 H   0  0  0  0  0  0  0  0  0  0  0  0
    1.3177   69.0877   66.6676 H   0  0  0  0  0  0  0  0  0  0  0  0
   -0.6872   67.5431   65.9318 H   0  0  0  0  0  0  0  0  0  0  0  0
   -2.0392   69.8819   66.6555 H   0  0  0  0  0  0  0  0  0  0  0  0
   -2.1801   69.5985   64.8939 H   0  0  0  0  0  0  0  0  0  0  0  0
   -3.5880   67.8308   65.2540 H   0  0  0  0  0  0  0  0  0  0  0  0
   -2.3958   67.0409   66.3186 H   0  0  0  0  0  0  0  0  0  0  0  0
   -3.2368   68.1165   68.0986 H   0  0  0  0  0  0  0  0  0  0  0  0
   -0.4764   68.3810   63.7274 H   0  0  0  0  0  0  0  0  0  0  0  0
    0.4045   69.8223   64.4594 H   0  0  0  0  0  0  0  0  0  0  0  0
    2.5532   69.7386   63.5759 H   0  0  0  0  0  0  0  0  0  0  0  0
    4.7448   68.5624   63.4382 H   0  0  0  0  0  0  0  0  0  0  0  0
    4.9428   66.1950   64.1908 H   0  0  0  0  0  0  0  0  0  0  0  0
    2.9421   64.9931   65.0603 H   0  0  0  0  0  0  0  0  0  0  0  0
    0.7475   66.1578   65.2013 H   0  0  0  0  0  0  0  0  0  0  0  0
  2  1  2  0
  3  2  1  0
  4  3  2  0
  5  4  1  0
  6  5  2  0
  6  1  1  0
  7  4  1  0
  8  7  2  0
  9  8  1  0
 10  9  2  0
 11 10  1  0
 12 11  2  0
 13 12  1  0
 14 13  2  0
 14  9  1  0
 15 14  1  0
 16 15  1  0
 16  7  1  0
 17 16  2  0
 18 11  1  0
 19 18  1  0
 20 12  1  0
 21 20  1  0
 22  1  1  0
 23 22  1  0
 24 23  1  0
 25 24  1  0
 26 25  1  0
 27 23  1  0
 28 27  1  0
 29 28  2  0
 30 29  1  0
 31 30  2  0
 32 31  1  0
 33 32  2  0
 33 28  1  0
  2 34  1  0
  3 35  1  0
  5 36  1  0
  6 37  1  0
  8 38  1  0
 10 39  1  0
 13 40  1  0
 19 41  1  0
 19 42  1  0
 19 43  1  0
 21 44  1  0
 21 45  1  0
 21 46  1  0
 22 47  1  0
 22 48  1  0
 23 49  1  1
 24 50  1  0
 24 51  1  0
 25 52  1  0
 25 53  1  0
 26 54  1  0
 27 55  1  0
 27 56  1  0
 29 57  1  0
 30 58  1  0
 31 59  1  0
 32 60  1  0
 33 61  1  0
M  CHG  1  23   1
M  END
>  <score>  (3) 
-9.579

$$$$
=
     RDKit          3D

 61 64  0  0  0  0  0  0  0  0999 V2000
    0.5550   67.1450   68.7360 C   0  0  0  0  0  0  0  0  0  0  0  0
   -0.5400   66.3070   68.9920 C   0  0  0  0  0  0  0  0  0  0  0  0
   -0.4340   65.2600   69.9150 C   0  0  0  0  0  0  0  0  0  0  0  0
    0.7660   65.0300   70.6020 C   0  0  0  0  0  0  0  0  0  0  0  0
    1.8540   65.8760   70.3520 C   0  0  0  0  0  0  0  0  0  0  0  0
    1.7530   66.9190   69.4280 C   0  0  0  0  0  0  0  0  0  0  0  0
    0.9010   63.8970   71.5440 C   0  0  0  0  0  0  0  0  0  0  0  0
    1.5640   62.7950   71.1540 C   0  0  0  0  0  0  0  0  0  0  0  0
    1.7160   61.6590   72.0510 C   0  0  0  0  0  0  0  0  0  0  0  0
    2.4040   60.5020   71.6760 C   0  0  0  0  0  0  0  0  0  0  0  0
    2.5250   59.4300   72.5730 C   0  0  0  0  0  0  0  0  0  0  0  0
    1.9470   59.5180   73.8590 C   0  0  0  0  0  0  0  0  0  0  0  0
    1.2600   60.6760   74.2290 C   0  0  0  0  0  0  0  0  0  0  0  0
    1.1560   61.7270   73.3200 C   0  0  0  0  0  0  0  0  0  0  0  0
    0.4530   62.8710   73.7350 O   0  0  0  0  0  0  0  0  0  0  0  0
    0.2920   63.9750   72.9060 C   0  0  0  0  0  0  0  0  0  0  0  0
   -0.3290   64.9640   73.2840 O   0  0  0  0  0  0  0  0  0  0  0  0
    3.1810   58.2580   72.2920 O   0  0  0  0  0  0  0  0  0  0  0  0
    2.6470   57.4160   71.2810 C   0  0  0  0  0  0  0  0  0  0  0  0
    2.1130   58.4240   74.6700 O   0  0  0  0  0  0  0  0  0  0  0  0
    3.2670   58.3800   75.4980 C   0  0  0  0  0  0  0  0  0  0  0  0
    0.4560   68.2550   67.7240 C   0  0  0  0  0  0  0  0  0  0  0  0
    1.7750   68.6910   67.1470 N   0  0  1  0  0  4  0  0  0  0  0  0
    1.8590   68.6170   65.6310 C   0  0  0  0  0  0  0  0  0  0  0  0
    2.3520   67.2180   65.2340 C   0  0  0  0  0  0  0  0  0  0  0  0
    1.1990   66.3800   65.0760 O   0  0  0  0  0  0  0  0  0  0  0  0
    2.2780   69.9910   67.7270 C   0  0  0  0  0  0  0  0  0  0  0  0
    3.7750   70.1580   67.7280 C   0  0  0  0  0  0  0  0  0  0  0  0
    4.4420   70.6790   68.8470 C   0  0  0  0  0  0  0  0  0  0  0  0
    5.8330   70.8060   68.8510 C   0  0  0  0  0  0  0  0  0  0  0  0
    6.5720   70.4190   67.7360 C   0  0  0  0  0  0  0  0  0  0  0  0
    5.9240   69.9130   66.6140 C   0  0  0  0  0  0  0  0  0  0  0  0
    4.5350   69.7860   66.6060 C   0  0  0  0  0  0  0  0  0  0  0  0
   -1.4900   66.4739   68.4631 H   0  0  0  0  0  0  0  0  0  0  0  0
   -1.3017   64.6107   70.1032 H   0  0  0  0  0  0  0  0  0  0  0  0
    2.8001   65.7171   70.8901 H   0  0  0  0  0  0  0  0  0  0  0  0
    2.6210   67.5685   69.2419 H   0  0  0  0  0  0  0  0  0  0  0  0
    1.9973   62.7510   70.1439 H   0  0  0  0  0  0  0  0  0  0  0  0
    2.8523   60.4314   70.6740 H   0  0  0  0  0  0  0  0  0  0  0  0
    0.8057   60.7577   75.2275 H   0  0  0  0  0  0  0  0  0  0  0  0
    2.1136   56.5750   71.7482 H   0  0  0  0  0  0  0  0  0  0  0  0
    1.9484   57.9914   70.6558 H   0  0  0  0  0  0  0  0  0  0  0  0
    3.4653   57.0293   70.6558 H   0  0  0  0  0  0  0  0  0  0  0  0
    2.9609   58.3917   76.5545 H   0  0  0  0  0  0  0  0  0  0  0  0
    3.8325   57.4596   75.2902 H   0  0  0  0  0  0  0  0  0  0  0  0
    3.9009   59.2546   75.2902 H   0  0  0  0  0  0  0  0  0  0  0  0
   -0.1837   67.9110   66.8979 H   0  0  0  0  0  0  0  0  0  0  0  0
    0.0424   69.1259   68.2536 H   0  0  0  0  0  0  0  0  0  0  0  0
    2.4447   67.9745   67.4617 H   0  0  0  0  0  0  0  0  0  0  0  0
    0.8649   68.7966   65.1958 H   0  0  0  0  0  0  0  0  0  0  0  0
    2.5561   69.3809   65.2561 H   0  0  0  0  0  0  0  0  0  0  0  0
    2.9093   67.2715   64.2871 H   0  0  0  0  0  0  0  0  0  0  0  0
    3.0220   66.8113   66.0058 H   0  0  0  0  0  0  0  0  0  0  0  0
    0.8505   66.1267   65.9673 H   0  0  0  0  0  0  0  0  0  0  0  0
    1.8444   70.8150   67.1413 H   0  0  0  0  0  0  0  0  0  0  0  0
    1.9707   69.9923   68.7832 H   0  0  0  0  0  0  0  0  0  0  0  0
    3.8640   70.9904   69.7296 H   0  0  0  0  0  0  0  0  0  0  0  0
    6.3452   71.2121   69.7358 H   0  0  0  0  0  0  0  0  0  0  0  0
    7.6679   70.5134   67.7425 H   0  0  0  0  0  0  0  0  0  0  0  0
    6.5079   69.6125   65.7316 H   0  0  0  0  0  0  0  0  0  0  0  0
    4.0295   69.3907   65.7126 H   0  0  0  0  0  0  0  0  0  0  0  0
  2  1  2  0
  3  2  1  0
  4  3  2  0
  5  4  1  0
  6  5  2  0
  6  1  1  0
  7  4  1  0
  8  7  2  0
  9  8  1  0
 10  9  2  0
 11 10  1  0
 12 11  2  0
 13 12  1  0
 14 13  2  0
 14  9  1  0
 15 14  1  0
 16 15  1  0
 16  7  1  0
 17 16  2  0
 18 11  1  0
 19 18  1  0
 20 12  1  0
 21 20  1  0
 22  1  1  0
 23 22  1  0
 24 23  1  0
 25 24  1  0
 26 25  1  0
 27 23  1  0
 28 27  1  0
 29 28  2  0
 30 29  1  0
 31 30  2  0
 32 31  1  0
 33 32  2  0
 33 28  1  0
  2 34  1  0
  3 35  1  0
  5 36  1  0
  6 37  1  0
  8 38  1  0
 10 39  1  0
 13 40  1  0
 19 41  1  0
 19 42  1  0
 19 43  1  0
 21 44  1  0
 21 45  1  0
 21 46  1  0
 22 47  1  0
 22 48  1  0
 23 49  1  1
 24 50  1  0
 24 51  1  0
 25 52  1  0
 25 53  1  0
 26 54  1  0
 27 55  1  0
 27 56  1  0
 29 57  1  0
 30 58  1  0
 31 59  1  0
 32 60  1  0
 33 61  1  0
M  CHG  1  23   1
M  END
>  <score>  (4) 
-9.496

$$$$
=
     RDKit          3D

 61 64  0  0  0  0  0  0  0  0999 V2000
    0.6270   66.2540   69.4770 C   0  0  0  0  0  0  0  0  0  0  0  0
   -0.3120   65.2530   69.7670 C   0  0  0  0  0  0  0  0  0  0  0  0
    0.0830   64.0730   70.4090 C   0  0  0  0  0  0  0  0  0  0  0  0
    1.4200   63.8700   70.7750 C   0  0  0  0  0  0  0  0  0  0  0  0
    2.3530   64.8760   70.4920 C   0  0  0  0  0  0  0  0  0  0  0  0
    1.9640   66.0540   69.8480 C   0  0  0  0  0  0  0  0  0  0  0  0
    1.8540   62.6060   71.4100 C   0  0  0  0  0  0  0  0  0  0  0  0
    1.6900   62.4470   72.7340 C   0  0  0  0  0  0  0  0  0  0  0  0
    2.1080   61.2200   73.3960 C   0  0  0  0  0  0  0  0  0  0  0  0
    1.9440   61.0220   74.7700 C   0  0  0  0  0  0  0  0  0  0  0  0
    2.3630   59.8230   75.3660 C   0  0  0  0  0  0  0  0  0  0  0  0
    2.9530   58.8120   74.5760 C   0  0  0  0  0  0  0  0  0  0  0  0
    3.1150   59.0130   73.2040 C   0  0  0  0  0  0  0  0  0  0  0  0
    2.6890   60.2130   72.6370 C   0  0  0  0  0  0  0  0  0  0  0  0
    2.8740   60.3720   71.2520 O   0  0  0  0  0  0  0  0  0  0  0  0
    2.4850   61.5290   70.5880 C   0  0  0  0  0  0  0  0  0  0  0  0
    2.6570   61.6530   69.3790 O   0  0  0  0  0  0  0  0  0  0  0  0
    2.2440   59.5430   76.7040 O   0  0  0  0  0  0  0  0  0  0  0  0
    2.8820   60.4090   77.6300 C   0  0  0  0  0  0  0  0  0  0  0  0
    3.3330   57.6740   75.2410 O   0  0  0  0  0  0  0  0  0  0  0  0
    2.5080   56.5240   75.1150 C   0  0  0  0  0  0  0  0  0  0  0  0
    0.2140   67.5130   68.7620 C   0  0  0  0  0  0  0  0  0  0  0  0
    1.1610   67.9530   67.6800 N   0  0  1  0  0  4  0  0  0  0  0  0
    0.7870   67.4870   66.2810 C   0  0  0  0  0  0  0  0  0  0  0  0
    0.2270   68.6850   65.4990 C   0  0  0  0  0  0  0  0  0  0  0  0
   -1.0570   68.3040   64.9840 O   0  0  0  0  0  0  0  0  0  0  0  0
    1.5210   69.4170   67.7620 C   0  0  0  0  0  0  0  0  0  0  0  0
    2.9920   69.7240   67.6640 C   0  0  0  0  0  0  0  0  0  0  0  0
    3.6830   70.3010   68.7420 C   0  0  0  0  0  0  0  0  0  0  0  0
    5.0530   70.5580   68.6530 C   0  0  0  0  0  0  0  0  0  0  0  0
    5.7470   70.2480   67.4870 C   0  0  0  0  0  0  0  0  0  0  0  0
    5.0740   69.6890   66.4050 C   0  0  0  0  0  0  0  0  0  0  0  0
    3.7060   69.4310   66.4890 C   0  0  0  0  0  0  0  0  0  0  0  0
   -1.3664   65.3961   69.4880 H   0  0  0  0  0  0  0  0  0  0  0  0
   -0.6648   63.2967   70.6284 H   0  0  0  0  0  0  0  0  0  0  0  0
    3.4054   64.7370   70.7804 H   0  0  0  0  0  0  0  0  0  0  0  0
    2.7127   66.8300   69.6306 H   0  0  0  0  0  0  0  0  0  0  0  0
    1.2339   63.2546   73.3254 H   0  0  0  0  0  0  0  0  0  0  0  0
    1.4848   61.8091   75.3862 H   0  0  0  0  0  0  0  0  0  0  0  0
    3.5735   58.2335   72.5777 H   0  0  0  0  0  0  0  0  0  0  0  0
    2.6455   60.0880   78.6552 H   0  0  0  0  0  0  0  0  0  0  0  0
    3.9706   60.3724   77.4762 H   0  0  0  0  0  0  0  0  0  0  0  0
    2.5244   61.4378   77.4762 H   0  0  0  0  0  0  0  0  0  0  0  0
    2.2415   56.1525   76.1155 H   0  0  0  0  0  0  0  0  0  0  0  0
    1.5921   56.7881   74.5660 H   0  0  0  0  0  0  0  0  0  0  0  0
    3.0517   55.7411   74.5660 H   0  0  0  0  0  0  0  0  0  0  0  0
   -0.7727   67.3420   68.3068 H   0  0  0  0  0  0  0  0  0  0  0  0
    0.2059   68.3137   69.5162 H   0  0  0  0  0  0  0  0  0  0  0  0
    2.0344   67.4449   67.8798 H   0  0  0  0  0  0  0  0  0  0  0  0
    1.6788   67.0951   65.7701 H   0  0  0  0  0  0  0  0  0  0  0  0
    0.0312   66.6900   66.3398 H   0  0  0  0  0  0  0  0  0  0  0  0
    0.1210   69.5526   66.1668 H   0  0  0  0  0  0  0  0  0  0  0  0
    0.9056   68.9628   64.6790 H   0  0  0  0  0  0  0  0  0  0  0  0
   -1.6734   68.1211   65.7368 H   0  0  0  0  0  0  0  0  0  0  0  0
    1.0092   69.9394   66.9403 H   0  0  0  0  0  0  0  0  0  0  0  0
    1.2060   69.7524   68.7611 H   0  0  0  0  0  0  0  0  0  0  0  0
    3.1402   70.5529   69.6650 H   0  0  0  0  0  0  0  0  0  0  0  0
    5.5843   71.0061   69.5057 H   0  0  0  0  0  0  0  0  0  0  0  0
    6.8272   70.4449   67.4209 H   0  0  0  0  0  0  0  0  0  0  0  0
    5.6220   69.4501   65.4816 H   0  0  0  0  0  0  0  0  0  0  0  0
    3.1804   68.9939   65.6272 H   0  0  0  0  0  0  0  0  0  0  0  0
  2  1  2  0
  3  2  1  0
  4  3  2  0
  5  4  1  0
  6  5  2  0
  6  1  1  0
  7  4  1  0
  8  7  2  0
  9  8  1  0
 10  9  2  0
 11 10  1  0
 12 11  2  0
 13 12  1  0
 14 13  2  0
 14  9  1  0
 15 14  1  0
 16 15  1  0
 16  7  1  0
 17 16  2  0
 18 11  1  0
 19 18  1  0
 20 12  1  0
 21 20  1  0
 22  1  1  0
 23 22  1  0
 24 23  1  0
 25 24  1  0
 26 25  1  0
 27 23  1  0
 28 27  1  0
 29 28  2  0
 30 29  1  0
 31 30  2  0
 32 31  1  0
 33 32  2  0
 33 28  1  0
  2 34  1  0
  3 35  1  0
  5 36  1  0
  6 37  1  0
  8 38  1  0
 10 39  1  0
 13 40  1  0
 19 41  1  0
 19 42  1  0
 19 43  1  0
 21 44  1  0
 21 45  1  0
 21 46  1  0
 22 47  1  0
 22 48  1  0
 23 49  1  1
 24 50  1  0
 24 51  1  0
 25 52  1  0
 25 53  1  0
 26 54  1  0
 27 55  1  0
 27 56  1  0
 29 57  1  0
 30 58  1  0
 31 59  1  0
 32 60  1  0
 33 61  1  0
M  CHG  1  23   1
M  END
>  <score>  (5) 
-9.236

$$$$
=
     RDKit          3D

 61 64  0  0  0  0  0  0  0  0999 V2000
    0.7470   63.1130   72.6010 C   0  0  0  0  0  0  0  0  0  0  0  0
   -0.3580   62.3280   72.2400 C   0  0  0  0  0  0  0  0  0  0  0  0
   -0.3810   60.9590   72.5270 C   0  0  0  0  0  0  0  0  0  0  0  0
    0.6960   60.3450   73.1810 C   0  0  0  0  0  0  0  0  0  0  0  0
    1.7940   61.1350   73.5490 C   0  0  0  0  0  0  0  0  0  0  0  0
    1.8220   62.5020   73.2610 C   0  0  0  0  0  0  0  0  0  0  0  0
    0.7010   58.8900   73.4450 C   0  0  0  0  0  0  0  0  0  0  0  0
   -0.3720   58.3240   74.0220 C   0  0  0  0  0  0  0  0  0  0  0  0
   -0.4030   56.8960   74.3020 C   0  0  0  0  0  0  0  0  0  0  0  0
   -1.5070   56.2770   74.8960 C   0  0  0  0  0  0  0  0  0  0  0  0
   -1.4930   54.8980   75.1480 C   0  0  0  0  0  0  0  0  0  0  0  0
   -0.3600   54.1290   74.8020 C   0  0  0  0  0  0  0  0  0  0  0  0
    0.7420   54.7510   74.2090 C   0  0  0  0  0  0  0  0  0  0  0  0
    0.7010   56.1230   73.9690 C   0  0  0  0  0  0  0  0  0  0  0  0
    1.8330   56.7060   73.3720 O   0  0  0  0  0  0  0  0  0  0  0  0
    1.8950   58.0650   73.0890 C   0  0  0  0  0  0  0  0  0  0  0  0
    2.8930   58.5580   72.5720 O   0  0  0  0  0  0  0  0  0  0  0  0
   -2.5290   54.2070   75.7260 O   0  0  0  0  0  0  0  0  0  0  0  0
   -3.0730   54.7070   76.9390 C   0  0  0  0  0  0  0  0  0  0  0  0
   -0.4320   52.7890   75.0850 O   0  0  0  0  0  0  0  0  0  0  0  0
    0.7740   52.1130   75.4110 C   0  0  0  0  0  0  0  0  0  0  0  0
    0.7900   64.5810   72.2710 C   0  0  0  0  0  0  0  0  0  0  0  0
    0.8770   64.8860   70.8010 N   0  0  1  0  0  4  0  0  0  0  0  0
    0.0240   66.0590   70.3440 C   0  0  0  0  0  0  0  0  0  0  0  0
    0.8010   66.8450   69.2780 C   0  0  0  0  0  0  0  0  0  0  0  0
    0.0120   66.8450   68.0790 O   0  0  0  0  0  0  0  0  0  0  0  0
    2.2950   64.9220   70.2830 C   0  0  0  0  0  0  0  0  0  0  0  0
    2.9840   63.5850   70.2020 C   0  0  0  0  0  0  0  0  0  0  0  0
    4.2720   63.4030   70.7280 C   0  0  0  0  0  0  0  0  0  0  0  0
    4.8930   62.1530   70.6730 C   0  0  0  0  0  0  0  0  0  0  0  0
    4.2380   61.0740   70.0870 C   0  0  0  0  0  0  0  0  0  0  0  0
    2.9670   61.2410   69.5480 C   0  0  0  0  0  0  0  0  0  0  0  0
    2.3430   62.4880   69.6010 C   0  0  0  0  0  0  0  0  0  0  0  0
   -1.2132   62.7925   71.7272 H   0  0  0  0  0  0  0  0  0  0  0  0
   -1.2546   60.3573   72.2360 H   0  0  0  0  0  0  0  0  0  0  0  0
    2.6446   60.6727   74.0713 H   0  0  0  0  0  0  0  0  0  0  0  0
    2.6949   63.1036   73.5547 H   0  0  0  0  0  0  0  0  0  0  0  0
   -1.2385   58.9479   74.2863 H   0  0  0  0  0  0  0  0  0  0  0  0
   -2.3901   56.8744   75.1667 H   0  0  0  0  0  0  0  0  0  0  0  0
    1.6313   54.1644   73.9349 H   0  0  0  0  0  0  0  0  0  0  0  0
   -2.5613   54.2367   77.7917 H   0  0  0  0  0  0  0  0  0  0  0  0
   -2.9317   55.7970   76.9824 H   0  0  0  0  0  0  0  0  0  0  0  0
   -4.1473   54.4745   76.9824 H   0  0  0  0  0  0  0  0  0  0  0  0
    0.8777   52.0549   76.5046 H   0  0  0  0  0  0  0  0  0  0  0  0
    0.7500   51.0969   74.9904 H   0  0  0  0  0  0  0  0  0  0  0  0
    1.6283   52.6638   74.9904 H   0  0  0  0  0  0  0  0  0  0  0  0
   -0.1238   65.0491   72.6658 H   0  0  0  0  0  0  0  0  0  0  0  0
    1.7080   64.9784   72.7285 H   0  0  0  0  0  0  0  0  0  0  0  0
    0.4382   64.0742   70.3434 H   0  0  0  0  0  0  0  0  0  0  0  0
   -0.9187   65.6870   69.9162 H   0  0  0  0  0  0  0  0  0  0  0  0
   -0.2054   66.7120   71.1990 H   0  0  0  0  0  0  0  0  0  0  0  0
    0.9655   67.8778   69.6189 H   0  0  0  0  0  0  0  0  0  0  0  0
    1.7822   66.3826   69.0952 H   0  0  0  0  0  0  0  0  0  0  0  0
   -0.1694   65.9116   67.8033 H   0  0  0  0  0  0  0  0  0  0  0  0
    2.2770   65.3570   69.2728 H   0  0  0  0  0  0  0  0  0  0  0  0
    2.8692   65.5170   71.0084 H   0  0  0  0  0  0  0  0  0  0  0  0
    4.7977   64.2527   71.1880 H   0  0  0  0  0  0  0  0  0  0  0  0
    5.9009   62.0214   71.0934 H   0  0  0  0  0  0  0  0  0  0  0  0
    4.7258   60.0887   70.0501 H   0  0  0  0  0  0  0  0  0  0  0  0
    2.4529   60.3890   69.0793 H   0  0  0  0  0  0  0  0  0  0  0  0
    1.3396   62.6137   69.1682 H   0  0  0  0  0  0  0  0  0  0  0  0
  2  1  2  0
  3  2  1  0
  4  3  2  0
  5  4  1  0
  6  5  2  0
  6  1  1  0
  7  4  1  0
  8  7  2  0
  9  8  1  0
 10  9  2  0
 11 10  1  0
 12 11  2  0
 13 12  1  0
 14 13  2  0
 14  9  1  0
 15 14  1  0
 16 15  1  0
 16  7  1  0
 17 16  2  0
 18 11  1  0
 19 18  1  0
 20 12  1  0
 21 20  1  0
 22  1  1  0
 23 22  1  0
 24 23  1  0
 25 24  1  0
 26 25  1  0
 27 23  1  0
 28 27  1  0
 29 28  2  0
 30 29  1  0
 31 30  2  0
 32 31  1  0
 33 32  2  0
 33 28  1  0
  2 34  1  0
  3 35  1  0
  5 36  1  0
  6 37  1  0
  8 38  1  0
 10 39  1  0
 13 40  1  0
 19 41  1  0
 19 42  1  0
 19 43  1  0
 21 44  1  0
 21 45  1  0
 21 46  1  0
 22 47  1  0
 22 48  1  0
 23 49  1  6
 24 50  1  0
 24 51  1  0
 25 52  1  0
 25 53  1  0
 26 54  1  0
 27 55  1  0
 27 56  1  0
 29 57  1  0
 30 58  1  0
 31 59  1  0
 32 60  1  0
 33 61  1  0
M  CHG  1  23   1
M  END
>  <score>  (6) 
-9.022

$$$$
=
     RDKit          3D

 61 64  0  0  0  0  0  0  0  0999 V2000
    0.6660   67.1290   68.7070 C   0  0  0  0  0  0  0  0  0  0  0  0
   -0.5010   66.4130   69.0130 C   0  0  0  0  0  0  0  0  0  0  0  0
   -0.4780   65.3900   69.9670 C   0  0  0  0  0  0  0  0  0  0  0  0
    0.7090   65.0600   70.6350 C   0  0  0  0  0  0  0  0  0  0  0  0
    1.8710   65.7840   70.3340 C   0  0  0  0  0  0  0  0  0  0  0  0
    1.8520   66.8050   69.3790 C   0  0  0  0  0  0  0  0  0  0  0  0
    0.7540   63.9480   71.6090 C   0  0  0  0  0  0  0  0  0  0  0  0
    0.2880   64.1460   72.8530 C   0  0  0  0  0  0  0  0  0  0  0  0
    0.3180   63.0770   73.8410 C   0  0  0  0  0  0  0  0  0  0  0  0
   -0.1650   63.2520   75.1410 C   0  0  0  0  0  0  0  0  0  0  0  0
   -0.1140   62.1940   76.0610 C   0  0  0  0  0  0  0  0  0  0  0  0
    0.4270   60.9480   75.6740 C   0  0  0  0  0  0  0  0  0  0  0  0
    0.9090   60.7780   74.3740 C   0  0  0  0  0  0  0  0  0  0  0  0
    0.8460   61.8450   73.4800 C   0  0  0  0  0  0  0  0  0  0  0  0
    1.3440   61.6290   72.1830 O   0  0  0  0  0  0  0  0  0  0  0  0
    1.3280   62.6260   71.2150 C   0  0  0  0  0  0  0  0  0  0  0  0
    1.7720   62.4210   70.0890 O   0  0  0  0  0  0  0  0  0  0  0  0
   -0.5630   62.2730   77.3560 O   0  0  0  0  0  0  0  0  0  0  0  0
    0.0000   63.2650   78.2010 C   0  0  0  0  0  0  0  0  0  0  0  0
    0.4370   59.9710   76.6370 O   0  0  0  0  0  0  0  0  0  0  0  0
   -0.6010   59.0010   76.6100 C   0  0  0  0  0  0  0  0  0  0  0  0
    0.6540   68.2130   67.6620 C   0  0  0  0  0  0  0  0  0  0  0  0
    1.8530   68.2160   66.7540 N   0  0  1  0  0  4  0  0  0  0  0  0
    1.6790   67.4190   65.4710 C   0  0  0  0  0  0  0  0  0  0  0  0
    1.3990   68.3970   64.3210 C   0  0  0  0  0  0  0  0  0  0  0  0
    0.3850   67.8130   63.4910 O   0  0  0  0  0  0  0  0  0  0  0  0
    2.4390   69.5920   66.5460 C   0  0  0  0  0  0  0  0  0  0  0  0
    3.6500   69.9080   67.3830 C   0  0  0  0  0  0  0  0  0  0  0  0
    4.9420   69.8490   66.8350 C   0  0  0  0  0  0  0  0  0  0  0  0
    6.0580   70.1700   67.6100 C   0  0  0  0  0  0  0  0  0  0  0  0
    5.8990   70.5460   68.9410 C   0  0  0  0  0  0  0  0  0  0  0  0
    4.6280   70.5950   69.5030 C   0  0  0  0  0  0  0  0  0  0  0  0
    3.5100   70.2760   68.7320 C   0  0  0  0  0  0  0  0  0  0  0  0
   -1.4419   66.6580   68.4985 H   0  0  0  0  0  0  0  0  0  0  0  0
   -1.4019   64.8385   70.1954 H   0  0  0  0  0  0  0  0  0  0  0  0
    2.8096   65.5458   70.8557 H   0  0  0  0  0  0  0  0  0  0  0  0
    2.7755   67.3583   69.1534 H   0  0  0  0  0  0  0  0  0  0  0  0
   -0.1217   65.1288   73.1290 H   0  0  0  0  0  0  0  0  0  0  0  0
   -0.5863   64.2220   75.4436 H   0  0  0  0  0  0  0  0  0  0  0  0
    1.3334   59.8131   74.0597 H   0  0  0  0  0  0  0  0  0  0  0  0
   -0.1593   62.9843   79.2526 H   0  0  0  0  0  0  0  0  0  0  0  0
    1.0789   63.3464   78.0026 H   0  0  0  0  0  0  0  0  0  0  0  0
   -0.4833   64.2330   78.0026 H   0  0  0  0  0  0  0  0  0  0  0  0
   -0.8832   58.7372   77.6399 H   0  0  0  0  0  0  0  0  0  0  0  0
   -1.4749   59.4136   76.0846 H   0  0  0  0  0  0  0  0  0  0  0  0
   -0.2484   58.1012   76.0846 H   0  0  0  0  0  0  0  0  0  0  0  0
   -0.2459   68.0835   67.0427 H   0  0  0  0  0  0  0  0  0  0  0  0
    0.6688   69.1704   68.2035 H   0  0  0  0  0  0  0  0  0  0  0  0
    2.5703   67.6884   67.2717 H   0  0  0  0  0  0  0  0  0  0  0  0
    2.5974   66.8517   65.2597 H   0  0  0  0  0  0  0  0  0  0  0  0
    0.8413   66.7140   65.5772 H   0  0  0  0  0  0  0  0  0  0  0  0
    1.0464   69.3581   64.7236 H   0  0  0  0  0  0  0  0  0  0  0  0
    2.3145   68.5816   63.7398 H   0  0  0  0  0  0  0  0  0  0  0  0
   -0.3162   67.4092   64.0614 H   0  0  0  0  0  0  0  0  0  0  0  0
    2.7239   69.6837   65.4875 H   0  0  0  0  0  0  0  0  0  0  0  0
    1.6604   70.3046   66.8557 H   0  0  0  0  0  0  0  0  0  0  0  0
    5.0757   69.5471   65.7857 H   0  0  0  0  0  0  0  0  0  0  0  0
    7.0645   70.1258   67.1683 H   0  0  0  0  0  0  0  0  0  0  0  0
    6.7790   70.8044   69.5483 H   0  0  0  0  0  0  0  0  0  0  0  0
    4.5040   70.8856   70.5566 H   0  0  0  0  0  0  0  0  0  0  0  0
    2.5082   70.3129   69.1848 H   0  0  0  0  0  0  0  0  0  0  0  0
  2  1  2  0
  3  2  1  0
  4  3  2  0
  5  4  1  0
  6  5  2  0
  6  1  1  0
  7  4  1  0
  8  7  2  0
  9  8  1  0
 10  9  2  0
 11 10  1  0
 12 11  2  0
 13 12  1  0
 14 13  2  0
 14  9  1  0
 15 14  1  0
 16 15  1  0
 16  7  1  0
 17 16  2  0
 18 11  1  0
 19 18  1  0
 20 12  1  0
 21 20  1  0
 22  1  1  0
 23 22  1  0
 24 23  1  0
 25 24  1  0
 26 25  1  0
 27 23  1  0
 28 27  1  0
 29 28  2  0
 30 29  1  0
 31 30  2  0
 32 31  1  0
 33 32  2  0
 33 28  1  0
  2 34  1  0
  3 35  1  0
  5 36  1  0
  6 37  1  0
  8 38  1  0
 10 39  1  0
 13 40  1  0
 19 41  1  0
 19 42  1  0
 19 43  1  0
 21 44  1  0
 21 45  1  0
 21 46  1  0
 22 47  1  0
 22 48  1  0
 23 49  1  1
 24 50  1  0
 24 51  1  0
 25 52  1  0
 25 53  1  0
 26 54  1  0
 27 55  1  0
 27 56  1  0
 29 57  1  0
 30 58  1  0
 31 59  1  0
 32 60  1  0
 33 61  1  0
M  CHG  1  23   1
M  END
>  <score>  (7) 
-8.443

$$$$
=
     RDKit          3D

 61 64  0  0  0  0  0  0  0  0999 V2000
    0.7550   62.7280   72.8470 C   0  0  0  0  0  0  0  0  0  0  0  0
    1.4560   61.9090   73.7450 C   0  0  0  0  0  0  0  0  0  0  0  0
    0.8870   60.7200   74.2140 C   0  0  0  0  0  0  0  0  0  0  0  0
   -0.3900   60.3230   73.7970 C   0  0  0  0  0  0  0  0  0  0  0  0
   -1.0830   61.1380   72.8920 C   0  0  0  0  0  0  0  0  0  0  0  0
   -0.5200   62.3280   72.4230 C   0  0  0  0  0  0  0  0  0  0  0  0
   -1.0190   59.0920   74.3240 C   0  0  0  0  0  0  0  0  0  0  0  0
   -0.4580   57.9010   74.0540 C   0  0  0  0  0  0  0  0  0  0  0  0
   -1.0490   56.6670   74.5520 C   0  0  0  0  0  0  0  0  0  0  0  0
   -0.4860   55.4150   74.2930 C   0  0  0  0  0  0  0  0  0  0  0  0
   -1.0900   54.2520   74.7930 C   0  0  0  0  0  0  0  0  0  0  0  0
   -2.2720   54.3450   75.5600 C   0  0  0  0  0  0  0  0  0  0  0  0
   -2.8310   55.5990   75.8170 C   0  0  0  0  0  0  0  0  0  0  0  0
   -2.2100   56.7380   75.3090 C   0  0  0  0  0  0  0  0  0  0  0  0
   -2.8100   57.9780   75.5910 O   0  0  0  0  0  0  0  0  0  0  0  0
   -2.2720   59.1750   75.1340 C   0  0  0  0  0  0  0  0  0  0  0  0
   -2.8110   60.2490   75.3860 O   0  0  0  0  0  0  0  0  0  0  0  0
   -0.6100   52.9820   74.5880 O   0  0  0  0  0  0  0  0  0  0  0  0
    0.7930   52.8080   74.4610 C   0  0  0  0  0  0  0  0  0  0  0  0
   -2.7950   53.1580   76.0080 O   0  0  0  0  0  0  0  0  0  0  0  0
   -2.7110   52.8780   77.3980 C   0  0  0  0  0  0  0  0  0  0  0  0
    1.3500   64.0220   72.3600 C   0  0  0  0  0  0  0  0  0  0  0  0
    1.2400   64.2380   70.8750 N   0  0  1  0  0  4  0  0  0  0  0  0
    0.3880   65.4300   70.4690 C   0  0  0  0  0  0  0  0  0  0  0  0
    1.3060   66.5080   69.8750 C   0  0  0  0  0  0  0  0  0  0  0  0
    0.8580   66.7700   68.5370 O   0  0  0  0  0  0  0  0  0  0  0  0
    2.5690   64.1620   70.1620 C   0  0  0  0  0  0  0  0  0  0  0  0
    3.3120   62.8620   70.3240 C   0  0  0  0  0  0  0  0  0  0  0  0
    2.7880   61.6630   69.8150 C   0  0  0  0  0  0  0  0  0  0  0  0
    3.4960   60.4660   69.9450 C   0  0  0  0  0  0  0  0  0  0  0  0
    4.7300   60.4520   70.5890 C   0  0  0  0  0  0  0  0  0  0  0  0
    5.2560   61.6290   71.1110 C   0  0  0  0  0  0  0  0  0  0  0  0
    4.5520   62.8270   70.9830 C   0  0  0  0  0  0  0  0  0  0  0  0
    2.4604   62.2039   74.0828 H   0  0  0  0  0  0  0  0  0  0  0  0
    1.4491   60.0894   74.9186 H   0  0  0  0  0  0  0  0  0  0  0  0
   -2.0830   60.8373   72.5463 H   0  0  0  0  0  0  0  0  0  0  0  0
   -1.0817   62.9558   71.7156 H   0  0  0  0  0  0  0  0  0  0  0  0
    0.4596   57.8579   73.4489 H   0  0  0  0  0  0  0  0  0  0  0  0
    0.4342   55.3410   73.6949 H   0  0  0  0  0  0  0  0  0  0  0  0
   -3.7510   55.6863   76.4137 H   0  0  0  0  0  0  0  0  0  0  0  0
    1.2475   52.7516   75.4611 H   0  0  0  0  0  0  0  0  0  0  0  0
    0.9988   51.8774   73.9117 H   0  0  0  0  0  0  0  0  0  0  0  0
    1.2199   53.6601   73.9117 H   0  0  0  0  0  0  0  0  0  0  0  0
   -2.9809   53.7778   77.9703 H   0  0  0  0  0  0  0  0  0  0  0  0
   -3.4038   52.0616   77.6501 H   0  0  0  0  0  0  0  0  0  0  0  0
   -1.6832   52.5778   77.6501 H   0  0  0  0  0  0  0  0  0  0  0  0
    0.8335   64.8503   72.8671 H   0  0  0  0  0  0  0  0  0  0  0  0
    2.4245   63.9798   72.5918 H   0  0  0  0  0  0  0  0  0  0  0  0
    0.7012   63.4286   70.5352 H   0  0  0  0  0  0  0  0  0  0  0  0
   -0.3519   65.1179   69.7172 H   0  0  0  0  0  0  0  0  0  0  0  0
   -0.1423   65.8293   71.3461 H   0  0  0  0  0  0  0  0  0  0  0  0
    1.2451   67.4263   70.4776 H   0  0  0  0  0  0  0  0  0  0  0  0
    2.3517   66.1665   69.8725 H   0  0  0  0  0  0  0  0  0  0  0  0
    0.0038   67.2696   68.5669 H   0  0  0  0  0  0  0  0  0  0  0  0
    2.3883   64.3188   69.0883 H   0  0  0  0  0  0  0  0  0  0  0  0
    3.2044   64.9349   70.6190 H   0  0  0  0  0  0  0  0  0  0  0  0
    1.8111   61.6663   69.3093 H   0  0  0  0  0  0  0  0  0  0  0  0
    3.0780   59.5334   69.5381 H   0  0  0  0  0  0  0  0  0  0  0  0
    5.2893   59.5097   70.6851 H   0  0  0  0  0  0  0  0  0  0  0  0
    6.2282   61.6155   71.6254 H   0  0  0  0  0  0  0  0  0  0  0  0
    4.9722   63.7531   71.4023 H   0  0  0  0  0  0  0  0  0  0  0  0
  2  1  2  0
  3  2  1  0
  4  3  2  0
  5  4  1  0
  6  5  2  0
  6  1  1  0
  7  4  1  0
  8  7  2  0
  9  8  1  0
 10  9  2  0
 11 10  1  0
 12 11  2  0
 13 12  1  0
 14 13  2  0
 14  9  1  0
 15 14  1  0
 16 15  1  0
 16  7  1  0
 17 16  2  0
 18 11  1  0
 19 18  1  0
 20 12  1  0
 21 20  1  0
 22  1  1  0
 23 22  1  0
 24 23  1  0
 25 24  1  0
 26 25  1  0
 27 23  1  0
 28 27  1  0
 29 28  2  0
 30 29  1  0
 31 30  2  0
 32 31  1  0
 33 32  2  0
 33 28  1  0
  2 34  1  0
  3 35  1  0
  5 36  1  0
  6 37  1  0
  8 38  1  0
 10 39  1  0
 13 40  1  0
 19 41  1  0
 19 42  1  0
 19 43  1  0
 21 44  1  0
 21 45  1  0
 21 46  1  0
 22 47  1  0
 22 48  1  0
 23 49  1  6
 24 50  1  0
 24 51  1  0
 25 52  1  0
 25 53  1  0
 26 54  1  0
 27 55  1  0
 27 56  1  0
 29 57  1  0
 30 58  1  0
 31 59  1  0
 32 60  1  0
 33 61  1  0
M  CHG  1  23   1
M  END
>  <score>  (8) 
-8.201

$$$$
=
     RDKit          3D

 61 64  0  0  0  0  0  0  0  0999 V2000
    0.6450   58.9290   73.3700 C   0  0  0  0  0  0  0  0  0  0  0  0
   -0.1720   58.0600   74.1110 C   0  0  0  0  0  0  0  0  0  0  0  0
   -1.4090   58.4930   74.6010 C   0  0  0  0  0  0  0  0  0  0  0  0
   -1.8570   59.7990   74.3620 C   0  0  0  0  0  0  0  0  0  0  0  0
   -1.0440   60.6600   73.6140 C   0  0  0  0  0  0  0  0  0  0  0  0
    0.1940   60.2330   73.1250 C   0  0  0  0  0  0  0  0  0  0  0  0
   -3.1420   60.2800   74.9170 C   0  0  0  0  0  0  0  0  0  0  0  0
   -4.2080   60.3880   74.1060 C   0  0  0  0  0  0  0  0  0  0  0  0
   -5.4870   60.8600   74.6140 C   0  0  0  0  0  0  0  0  0  0  0  0
   -6.6150   60.9770   73.7970 C   0  0  0  0  0  0  0  0  0  0  0  0
   -7.8280   61.4380   74.3300 C   0  0  0  0  0  0  0  0  0  0  0  0
   -7.9110   61.7870   75.6960 C   0  0  0  0  0  0  0  0  0  0  0  0
   -6.7820   61.6690   76.5090 C   0  0  0  0  0  0  0  0  0  0  0  0
   -5.5890   61.2070   75.9540 C   0  0  0  0  0  0  0  0  0  0  0  0
   -4.4780   61.1070   76.8100 O   0  0  0  0  0  0  0  0  0  0  0  0
   -3.2430   60.6570   76.3590 C   0  0  0  0  0  0  0  0  0  0  0  0
   -2.2820   60.5790   77.1190 O   0  0  0  0  0  0  0  0  0  0  0  0
   -8.9840   61.5860   73.6040 O   0  0  0  0  0  0  0  0  0  0  0  0
   -8.9950   62.5320   72.5460 C   0  0  0  0  0  0  0  0  0  0  0  0
   -9.1350   62.2290   76.1310 O   0  0  0  0  0  0  0  0  0  0  0  0
   -9.1700   63.0620   77.2810 C   0  0  0  0  0  0  0  0  0  0  0  0
    1.9890   58.4780   72.8640 C   0  0  0  0  0  0  0  0  0  0  0  0
    3.0820   59.5010   73.0050 N   0  0  1  0  0  4  0  0  0  0  0  0
    3.7460   59.5340   74.3720 C   0  0  0  0  0  0  0  0  0  0  0  0
    3.6300   58.1410   75.0080 C   0  0  0  0  0  0  0  0  0  0  0  0
    4.9020   57.8210   75.5910 O   0  0  0  0  0  0  0  0  0  0  0  0
    4.0550   59.4960   71.8510 C   0  0  0  0  0  0  0  0  0  0  0  0
    4.0420   60.7340   70.9940 C   0  0  0  0  0  0  0  0  0  0  0  0
    3.2000   60.8290   69.8740 C   0  0  0  0  0  0  0  0  0  0  0  0
    3.1740   61.9910   69.1000 C   0  0  0  0  0  0  0  0  0  0  0  0
    3.9920   63.0680   69.4310 C   0  0  0  0  0  0  0  0  0  0  0  0
    4.8420   62.9850   70.5280 C   0  0  0  0  0  0  0  0  0  0  0  0
    4.8710   61.8260   71.3040 C   0  0  0  0  0  0  0  0  0  0  0  0
    0.1630   57.0309   74.3078 H   0  0  0  0  0  0  0  0  0  0  0  0
   -2.0370   57.8003   75.1805 H   0  0  0  0  0  0  0  0  0  0  0  0
   -1.3842   61.6857   73.4086 H   0  0  0  0  0  0  0  0  0  0  0  0
    0.8193   60.9262   72.5432 H   0  0  0  0  0  0  0  0  0  0  0  0
   -4.1124   60.1161   73.0444 H   0  0  0  0  0  0  0  0  0  0  0  0
   -6.5514   60.7067   72.7326 H   0  0  0  0  0  0  0  0  0  0  0  0
   -6.8330   61.9373   77.5746 H   0  0  0  0  0  0  0  0  0  0  0  0
   -9.0068   63.5494   72.9640 H   0  0  0  0  0  0  0  0  0  0  0  0
   -8.0953   62.4003   71.9270 H   0  0  0  0  0  0  0  0  0  0  0  0
   -9.8914   62.3794   71.9270 H   0  0  0  0  0  0  0  0  0  0  0  0
   -9.1438   62.4381   78.1866 H   0  0  0  0  0  0  0  0  0  0  0  0
   -8.2993   63.7342   77.2735 H   0  0  0  0  0  0  0  0  0  0  0  0
  -10.0940   63.6588   77.2735 H   0  0  0  0  0  0  0  0  0  0  0  0
    2.2842   57.5797   73.4260 H   0  0  0  0  0  0  0  0  0  0  0  0
    1.8717   58.2910   71.7864 H   0  0  0  0  0  0  0  0  0  0  0  0
    2.5964   60.4076   72.9488 H   0  0  0  0  0  0  0  0  0  0  0  0
    4.8067   59.8038   74.2621 H   0  0  0  0  0  0  0  0  0  0  0  0
    3.2522   60.2807   75.0112 H   0  0  0  0  0  0  0  0  0  0  0  0
    2.8523   58.1477   75.7859 H   0  0  0  0  0  0  0  0  0  0  0  0
    3.3540   57.3929   74.2502 H   0  0  0  0  0  0  0  0  0  0  0  0
    4.8268   57.8399   76.5780 H   0  0  0  0  0  0  0  0  0  0  0  0
    5.0686   59.3773   72.2614 H   0  0  0  0  0  0  0  0  0  0  0  0
    3.7457   58.6686   71.1955 H   0  0  0  0  0  0  0  0  0  0  0  0
    2.5548   59.9800   69.6039 H   0  0  0  0  0  0  0  0  0  0  0  0
    2.5066   62.0555   68.2280 H   0  0  0  0  0  0  0  0  0  0  0  0
    3.9657   63.9851   68.8242 H   0  0  0  0  0  0  0  0  0  0  0  0
    5.4925   63.8342   70.7844 H   0  0  0  0  0  0  0  0  0  0  0  0
    5.5498   61.7661   72.1675 H   0  0  0  0  0  0  0  0  0  0  0  0
  2  1  2  0
  3  2  1  0
  4  3  2  0
  5  4  1  0
  6  5  2  0
  6  1  1  0
  7  4  1  0
  8  7  2  0
  9  8  1  0
 10  9  2  0
 11 10  1  0
 12 11  2  0
 13 12  1  0
 14 13  2  0
 14  9  1  0
 15 14  1  0
 16 15  1  0
 16  7  1  0
 17 16  2  0
 18 11  1  0
 19 18  1  0
 20 12  1  0
 21 20  1  0
 22  1  1  0
 23 22  1  0
 24 23  1  0
 25 24  1  0
 26 25  1  0
 27 23  1  0
 28 27  1  0
 29 28  2  0
 30 29  1  0
 31 30  2  0
 32 31  1  0
 33 32  2  0
 33 28  1  0
  2 34  1  0
  3 35  1  0
  5 36  1  0
  6 37  1  0
  8 38  1  0
 10 39  1  0
 13 40  1  0
 19 41  1  0
 19 42  1  0
 19 43  1  0
 21 44  1  0
 21 45  1  0
 21 46  1  0
 22 47  1  0
 22 48  1  0
 23 49  1  6
 24 50  1  0
 24 51  1  0
 25 52  1  0
 25 53  1  0
 26 54  1  0
 27 55  1  0
 27 56  1  0
 29 57  1  0
 30 58  1  0
 31 59  1  0
 32 60  1  0
 33 61  1  0
M  CHG  1  23   1
M  END
>  <score>  (9) 
-7.919

$$$$
