=
     RDKit          3D

 31 32  0  0  0  0  0  0  0  0999 V2000
    5.0530   69.4700   65.9360 C   0  0  0  0  0  0  0  0  0  0  0  0
    5.6840   70.2700   66.8820 C   0  0  0  0  0  0  0  0  0  0  0  0
    5.0010   70.6170   68.0490 C   0  0  0  0  0  0  0  0  0  0  0  0
    3.7150   70.1320   68.3000 C   0  0  0  0  0  0  0  0  0  0  0  0
    3.0800   69.3710   67.3150 C   0  0  0  0  0  0  0  0  0  0  0  0
    3.7400   69.0230   66.1250 C   0  0  0  0  0  0  0  0  0  0  0  0
    2.9960   70.5880   69.4050 N   0  0  0  0  0  0  0  0  0  0  0  0
    5.6940   69.1390   64.7710 O   0  0  0  0  0  0  0  0  0  0  0  0
    3.0480   68.1690   65.0990 C   0  0  0  0  0  0  0  0  0  0  0  0
    2.5060   68.9580   63.9430 N   0  0  0  0  0  4  0  0  0  0  0  0
    3.0280   68.5440   62.5980 C   0  0  0  0  0  0  0  0  0  0  0  0
    1.9400   69.0040   61.6530 C   0  0  0  0  0  0  0  0  0  0  0  0
    0.6740   68.6710   62.4180 C   0  0  0  0  0  0  0  0  0  0  0  0
    0.9990   69.0340   63.8580 C   0  0  0  0  0  0  0  0  0  0  0  0
    6.7110   70.6259   66.7126 H   0  0  0  0  0  0  0  0  0  0  0  0
    5.4822   71.2818   68.7814 H   0  0  0  0  0  0  0  0  0  0  0  0
    2.0438   69.0382   67.4746 H   0  0  0  0  0  0  0  0  0  0  0  0
    2.0482   70.2282   69.5869 H   0  0  0  0  0  0  0  0  0  0  0  0
    3.4129   71.2845   70.0390 H   0  0  0  0  0  0  0  0  0  0  0  0
    5.2399   68.5690   64.1009 H   0  0  0  0  0  0  0  0  0  0  0  0
    3.7686   67.4330   64.7130 H   0  0  0  0  0  0  0  0  0  0  0  0
    2.1930   67.6877   65.5964 H   0  0  0  0  0  0  0  0  0  0  0  0
    2.8659   69.8959   64.1704 H   0  0  0  0  0  0  0  0  0  0  0  0
    3.9826   69.0425   62.3741 H   0  0  0  0  0  0  0  0  0  0  0  0
    3.2358   67.4661   62.5272 H   0  0  0  0  0  0  0  0  0  0  0  0
    2.0137   70.0841   61.4584 H   0  0  0  0  0  0  0  0  0  0  0  0
    1.9907   68.5276   60.6628 H   0  0  0  0  0  0  0  0  0  0  0  0
   -0.1732   69.2668   62.0476 H   0  0  0  0  0  0  0  0  0  0  0  0
    0.3804   67.6168   62.3063 H   0  0  0  0  0  0  0  0  0  0  0  0
    0.6483   70.0504   64.0903 H   0  0  0  0  0  0  0  0  0  0  0  0
    0.5075   68.3623   64.5772 H   0  0  0  0  0  0  0  0  0  0  0  0
  2  1  2  0
  3  2  1  0
  4  3  2  0
  5  4  1  0
  6  5  2  0
  6  1  1  0
  7  4  1  0
  8  1  1  0
  9  6  1  0
 10  9  1  0
 11 10  1  0
 12 11  1  0
 13 12  1  0
 14 13  1  0
 14 10  1  0
  2 15  1  0
  3 16  1  0
  5 17  1  0
  7 18  1  0
  7 19  1  0
  8 20  1  0
  9 21  1  0
  9 22  1  0
 10 23  1  0
 11 24  1  0
 11 25  1  0
 12 26  1  0
 12 27  1  0
 13 28  1  0
 13 29  1  0
 14 30  1  0
 14 31  1  0
M  CHG  1  10   1
M  END
>  <score>  (1) 
-7.328

$$$$
=
     RDKit          3D

 31 32  0  0  0  0  0  0  0  0999 V2000
    5.2570   69.8690   66.1910 C   0  0  0  0  0  0  0  0  0  0  0  0
    5.7440   70.5570   67.2960 C   0  0  0  0  0  0  0  0  0  0  0  0
    4.9200   70.7330   68.4100 C   0  0  0  0  0  0  0  0  0  0  0  0
    3.6350   70.1850   68.4460 C   0  0  0  0  0  0  0  0  0  0  0  0
    3.1470   69.5390   67.3060 C   0  0  0  0  0  0  0  0  0  0  0  0
    3.9510   69.3650   66.1670 C   0  0  0  0  0  0  0  0  0  0  0  0
    2.7780   70.4750   69.5070 N   0  0  0  0  0  0  0  0  0  0  0  0
    6.0390   69.7080   65.0760 O   0  0  0  0  0  0  0  0  0  0  0  0
    3.4150   68.6320   64.9690 C   0  0  0  0  0  0  0  0  0  0  0  0
    3.8830   67.2070   64.8910 N   0  0  0  0  0  4  0  0  0  0  0  0
    2.7950   66.1810   65.0130 C   0  0  0  0  0  0  0  0  0  0  0  0
    3.3840   64.9760   64.3110 C   0  0  0  0  0  0  0  0  0  0  0  0
    4.0920   65.5970   63.1230 C   0  0  0  0  0  0  0  0  0  0  0  0
    4.7200   66.8640   63.6810 C   0  0  0  0  0  0  0  0  0  0  0  0
    6.7680   70.9588   67.2933 H   0  0  0  0  0  0  0  0  0  0  0  0
    5.2876   71.3109   69.2708 H   0  0  0  0  0  0  0  0  0  0  0  0
    2.1144   69.1600   67.3008 H   0  0  0  0  0  0  0  0  0  0  0  0
    1.8315   70.0693   69.5302 H   0  0  0  0  0  0  0  0  0  0  0  0
    3.0914   71.0949   70.2675 H   0  0  0  0  0  0  0  0  0  0  0  0
    5.6874   69.2171   64.2915 H   0  0  0  0  0  0  0  0  0  0  0  0
    2.3161   68.6372   65.0184 H   0  0  0  0  0  0  0  0  0  0  0  0
    3.7900   69.1494   64.0736 H   0  0  0  0  0  0  0  0  0  0  0  0
    4.4858   67.1596   65.7248 H   0  0  0  0  0  0  0  0  0  0  0  0
    2.5787   65.9575   66.0681 H   0  0  0  0  0  0  0  0  0  0  0  0
    1.8383   66.5099   64.5812 H   0  0  0  0  0  0  0  0  0  0  0  0
    4.0934   64.4447   64.9625 H   0  0  0  0  0  0  0  0  0  0  0  0
    2.6322   64.2246   64.0278 H   0  0  0  0  0  0  0  0  0  0  0  0
    4.8645   64.9188   62.7315 H   0  0  0  0  0  0  0  0  0  0  0  0
    3.4086   65.8001   62.2853 H   0  0  0  0  0  0  0  0  0  0  0  0
    5.7655   66.6832   63.9713 H   0  0  0  0  0  0  0  0  0  0  0  0
    4.7377   67.6793   62.9428 H   0  0  0  0  0  0  0  0  0  0  0  0
  2  1  2  0
  3  2  1  0
  4  3  2  0
  5  4  1  0
  6  5  2  0
  6  1  1  0
  7  4  1  0
  8  1  1  0
  9  6  1  0
 10  9  1  0
 11 10  1  0
 12 11  1  0
 13 12  1  0
 14 13  1  0
 14 10  1  0
  2 15  1  0
  3 16  1  0
  5 17  1  0
  7 18  1  0
  7 19  1  0
  8 20  1  0
  9 21  1  0
  9 22  1  0
 10 23  1  0
 11 24  1  0
 11 25  1  0
 12 26  1  0
 12 27  1  0
 13 28  1  0
 13 29  1  0
 14 30  1  0
 14 31  1  0
M  CHG  1  10   1
M  END
>  <score>  (2) 
-7.277

$$$$
=
     RDKit          3D

 31 32  0  0  0  0  0  0  0  0999 V2000
    2.6780   69.5570   67.8470 C   0  0  0  0  0  0  0  0  0  0  0  0
    3.5160   70.2650   68.7000 C   0  0  0  0  0  0  0  0  0  0  0  0
    4.8170   70.5630   68.2900 C   0  0  0  0  0  0  0  0  0  0  0  0
    5.2680   70.2020   67.0180 C   0  0  0  0  0  0  0  0  0  0  0  0
    4.4270   69.4480   66.1940 C   0  0  0  0  0  0  0  0  0  0  0  0
    3.1200   69.1220   66.5920 C   0  0  0  0  0  0  0  0  0  0  0  0
    6.6060   70.3910   66.6680 N   0  0  0  0  0  0  0  0  0  0  0  0
    1.4060   69.2310   68.2400 O   0  0  0  0  0  0  0  0  0  0  0  0
    2.2220   68.3440   65.6710 C   0  0  0  0  0  0  0  0  0  0  0  0
    2.0260   69.0080   64.3390 N   0  0  0  0  0  4  0  0  0  0  0  0
    2.8020   68.3960   63.2100 C   0  0  0  0  0  0  0  0  0  0  0  0
    1.9990   68.7910   61.9900 C   0  0  0  0  0  0  0  0  0  0  0  0
    0.5690   68.6320   62.4680 C   0  0  0  0  0  0  0  0  0  0  0  0
    0.5890   69.1590   63.8940 C   0  0  0  0  0  0  0  0  0  0  0  0
    3.1578   70.5876   69.6888 H   0  0  0  0  0  0  0  0  0  0  0  0
    5.4957   71.0889   68.9775 H   0  0  0  0  0  0  0  0  0  0  0  0
    4.7955   69.1039   65.2164 H   0  0  0  0  0  0  0  0  0  0  0  0
    6.9355   70.1238   65.7294 H   0  0  0  0  0  0  0  0  0  0  0  0
    7.2638   70.7976   67.3483 H   0  0  0  0  0  0  0  0  0  0  0  0
    0.8130   68.7265   67.6285 H   0  0  0  0  0  0  0  0  0  0  0  0
    2.6661   67.3514   65.5052 H   0  0  0  0  0  0  0  0  0  0  0  0
    1.2354   68.2789   66.1531 H   0  0  0  0  0  0  0  0  0  0  0  0
    2.4041   69.9452   64.5382 H   0  0  0  0  0  0  0  0  0  0  0  0
    3.8211   68.8072   63.1624 H   0  0  0  0  0  0  0  0  0  0  0  0
    2.9287   67.3080   63.3114 H   0  0  0  0  0  0  0  0  0  0  0  0
    2.2065   69.8310   61.6979 H   0  0  0  0  0  0  0  0  0  0  0  0
    2.2317   68.1883   61.0997 H   0  0  0  0  0  0  0  0  0  0  0  0
   -0.1184   69.2221   61.8441 H   0  0  0  0  0  0  0  0  0  0  0  0
    0.2196   67.5906   62.4096 H   0  0  0  0  0  0  0  0  0  0  0  0
    0.2834   70.2153   63.9215 H   0  0  0  0  0  0  0  0  0  0  0  0
   -0.1085   68.6155   64.5483 H   0  0  0  0  0  0  0  0  0  0  0  0
  2  1  2  0
  3  2  1  0
  4  3  2  0
  5  4  1  0
  6  5  2  0
  6  1  1  0
  7  4  1  0
  8  1  1  0
  9  6  1  0
 10  9  1  0
 11 10  1  0
 12 11  1  0
 13 12  1  0
 14 13  1  0
 14 10  1  0
  2 15  1  0
  3 16  1  0
  5 17  1  0
  7 18  1  0
  7 19  1  0
  8 20  1  0
  9 21  1  0
  9 22  1  0
 10 23  1  0
 11 24  1  0
 11 25  1  0
 12 26  1  0
 12 27  1  0
 13 28  1  0
 13 29  1  0
 14 30  1  0
 14 31  1  0
M  CHG  1  10   1
M  END
>  <score>  (3) 
-7.098

$$$$
=
     RDKit          3D

 31 32  0  0  0  0  0  0  0  0999 V2000
    4.1690   70.4050   68.6260 C   0  0  0  0  0  0  0  0  0  0  0  0
    5.5250   70.5890   68.3790 C   0  0  0  0  0  0  0  0  0  0  0  0
    6.0530   70.2100   67.1430 C   0  0  0  0  0  0  0  0  0  0  0  0
    5.2290   69.6960   66.1380 C   0  0  0  0  0  0  0  0  0  0  0  0
    3.8790   69.4730   66.4230 C   0  0  0  0  0  0  0  0  0  0  0  0
    3.3290   69.8300   67.6650 C   0  0  0  0  0  0  0  0  0  0  0  0
    5.7860   69.2030   64.9580 N   0  0  0  0  0  0  0  0  0  0  0  0
    3.6350   70.7450   69.8410 O   0  0  0  0  0  0  0  0  0  0  0  0
    1.8650   69.6160   67.9320 C   0  0  0  0  0  0  0  0  0  0  0  0
    1.4890   68.1660   68.0380 N   0  0  0  0  0  4  0  0  0  0  0  0
    1.4600   67.6240   69.4360 C   0  0  0  0  0  0  0  0  0  0  0  0
    0.5100   66.4500   69.3270 C   0  0  0  0  0  0  0  0  0  0  0  0
   -0.5660   66.9800   68.3990 C   0  0  0  0  0  0  0  0  0  0  0  0
    0.1980   67.7790   67.3550 C   0  0  0  0  0  0  0  0  0  0  0  0
    6.1753   71.0287   69.1495 H   0  0  0  0  0  0  0  0  0  0  0  0
    7.1320   70.3175   66.9579 H   0  0  0  0  0  0  0  0  0  0  0  0
    3.2356   69.0095   65.6607 H   0  0  0  0  0  0  0  0  0  0  0  0
    5.1760   68.8249   64.2192 H   0  0  0  0  0  0  0  0  0  0  0  0
    6.8073   69.2171   64.8254 H   0  0  0  0  0  0  0  0  0  0  0  0
    2.6690   70.6120   70.0118 H   0  0  0  0  0  0  0  0  0  0  0  0
    1.6055   70.1145   68.8776 H   0  0  0  0  0  0  0  0  0  0  0  0
    1.3122   70.0356   67.0786 H   0  0  0  0  0  0  0  0  0  0  0  0
    2.2691   67.7305   67.5255 H   0  0  0  0  0  0  0  0  0  0  0  0
    2.4605   67.2947   69.7531 H   0  0  0  0  0  0  0  0  0  0  0  0
    1.1455   68.3680   70.1827 H   0  0  0  0  0  0  0  0  0  0  0  0
    1.0115   65.5724   68.8931 H   0  0  0  0  0  0  0  0  0  0  0  0
    0.1214   66.1101   70.2983 H   0  0  0  0  0  0  0  0  0  0  0  0
   -1.1177   66.1523   67.9293 H   0  0  0  0  0  0  0  0  0  0  0  0
   -1.3150   67.5877   68.9279 H   0  0  0  0  0  0  0  0  0  0  0  0
    0.3989   67.1634   66.4658 H   0  0  0  0  0  0  0  0  0  0  0  0
   -0.3673   68.6556   67.0058 H   0  0  0  0  0  0  0  0  0  0  0  0
  2  1  2  0
  3  2  1  0
  4  3  2  0
  5  4  1  0
  6  5  2  0
  6  1  1  0
  7  4  1  0
  8  1  1  0
  9  6  1  0
 10  9  1  0
 11 10  1  0
 12 11  1  0
 13 12  1  0
 14 13  1  0
 14 10  1  0
  2 15  1  0
  3 16  1  0
  5 17  1  0
  7 18  1  0
  7 19  1  0
  8 20  1  0
  9 21  1  0
  9 22  1  0
 10 23  1  0
 11 24  1  0
 11 25  1  0
 12 26  1  0
 12 27  1  0
 13 28  1  0
 13 29  1  0
 14 30  1  0
 14 31  1  0
M  CHG  1  10   1
M  END
>  <score>  (4) 
-7.087

$$$$
=
     RDKit          3D

 31 32  0  0  0  0  0  0  0  0999 V2000
    0.0240   67.5210   68.0330 C   0  0  0  0  0  0  0  0  0  0  0  0
   -1.1470   66.7710   68.0180 C   0  0  0  0  0  0  0  0  0  0  0  0
   -2.2430   67.2290   67.2850 C   0  0  0  0  0  0  0  0  0  0  0  0
   -2.1620   68.4020   66.5300 C   0  0  0  0  0  0  0  0  0  0  0  0
   -0.9940   69.1670   66.5980 C   0  0  0  0  0  0  0  0  0  0  0  0
    0.1160   68.7350   67.3420 C   0  0  0  0  0  0  0  0  0  0  0  0
   -3.3000   68.9160   65.9070 N   0  0  0  0  0  0  0  0  0  0  0  0
    1.1030   67.1030   68.7670 O   0  0  0  0  0  0  0  0  0  0  0  0
    1.3760   69.5560   67.3660 C   0  0  0  0  0  0  0  0  0  0  0  0
    2.5300   68.8870   66.6780 N   0  0  0  0  0  4  0  0  0  0  0  0
    2.3850   68.7540   65.1910 C   0  0  0  0  0  0  0  0  0  0  0  0
    3.8190   68.6590   64.7160 C   0  0  0  0  0  0  0  0  0  0  0  0
    4.5290   69.6650   65.6010 C   0  0  0  0  0  0  0  0  0  0  0  0
    3.8900   69.4800   66.9670 C   0  0  0  0  0  0  0  0  0  0  0  0
   -1.2089   65.8263   68.5782 H   0  0  0  0  0  0  0  0  0  0  0  0
   -3.1834   66.6587   67.3019 H   0  0  0  0  0  0  0  0  0  0  0  0
   -0.9434   70.1246   66.0591 H   0  0  0  0  0  0  0  0  0  0  0  0
   -3.2366   69.7809   65.3512 H   0  0  0  0  0  0  0  0  0  0  0  0
   -4.2033   68.4305   66.0029 H   0  0  0  0  0  0  0  0  0  0  0  0
    1.9345   67.6402   68.7747 H   0  0  0  0  0  0  0  0  0  0  0  0
    1.1782   70.5149   66.8647 H   0  0  0  0  0  0  0  0  0  0  0  0
    1.6579   69.6919   68.4205 H   0  0  0  0  0  0  0  0  0  0  0  0
    2.4873   67.9507   67.1050 H   0  0  0  0  0  0  0  0  0  0  0  0
    1.8207   67.8470   64.9284 H   0  0  0  0  0  0  0  0  0  0  0  0
    1.8311   69.5869   64.7333 H   0  0  0  0  0  0  0  0  0  0  0  0
    4.2204   67.6458   64.8656 H   0  0  0  0  0  0  0  0  0  0  0  0
    3.9378   68.8616   63.6414 H   0  0  0  0  0  0  0  0  0  0  0  0
    5.6077   69.4537   65.6435 H   0  0  0  0  0  0  0  0  0  0  0  0
    4.4322   70.6952   65.2277 H   0  0  0  0  0  0  0  0  0  0  0  0
    4.4884   68.7948   67.5854 H   0  0  0  0  0  0  0  0  0  0  0  0
    3.8215   70.4251   67.5256 H   0  0  0  0  0  0  0  0  0  0  0  0
  2  1  2  0
  3  2  1  0
  4  3  2  0
  5  4  1  0
  6  5  2  0
  6  1  1  0
  7  4  1  0
  8  1  1  0
  9  6  1  0
 10  9  1  0
 11 10  1  0
 12 11  1  0
 13 12  1  0
 14 13  1  0
 14 10  1  0
  2 15  1  0
  3 16  1  0
  5 17  1  0
  7 18  1  0
  7 19  1  0
  8 20  1  0
  9 21  1  0
  9 22  1  0
 10 23  1  0
 11 24  1  0
 11 25  1  0
 12 26  1  0
 12 27  1  0
 13 28  1  0
 13 29  1  0
 14 30  1  0
 14 31  1  0
M  CHG  1  10   1
M  END
>  <score>  (5) 
-6.912

$$$$
=
     RDKit          3D

 31 32  0  0  0  0  0  0  0  0999 V2000
    2.7860   69.8350   68.0160 C   0  0  0  0  0  0  0  0  0  0  0  0
    3.4180   70.4110   69.1120 C   0  0  0  0  0  0  0  0  0  0  0  0
    4.7850   70.6860   69.0470 C   0  0  0  0  0  0  0  0  0  0  0  0
    5.5120   70.4370   67.8810 C   0  0  0  0  0  0  0  0  0  0  0  0
    4.8690   69.8130   66.8080 C   0  0  0  0  0  0  0  0  0  0  0  0
    3.4980   69.5100   66.8560 C   0  0  0  0  0  0  0  0  0  0  0  0
    6.8980   70.5960   67.8700 N   0  0  0  0  0  0  0  0  0  0  0  0
    1.4500   69.5320   68.0680 O   0  0  0  0  0  0  0  0  0  0  0  0
    2.8230   68.8750   65.6730 C   0  0  0  0  0  0  0  0  0  0  0  0
    3.7880   68.2600   64.7020 N   0  0  0  0  0  4  0  0  0  0  0  0
    3.4690   66.8490   64.3050 C   0  0  0  0  0  0  0  0  0  0  0  0
    4.1450   66.7110   62.9580 C   0  0  0  0  0  0  0  0  0  0  0  0
    3.8720   68.0550   62.3110 C   0  0  0  0  0  0  0  0  0  0  0  0
    4.0380   69.0580   63.4420 C   0  0  0  0  0  0  0  0  0  0  0  0
    2.8465   70.6478   70.0216 H   0  0  0  0  0  0  0  0  0  0  0  0
    5.2966   71.1046   69.9263 H   0  0  0  0  0  0  0  0  0  0  0  0
    5.4475   69.5543   65.9089 H   0  0  0  0  0  0  0  0  0  0  0  0
    7.4307   70.4114   67.0080 H   0  0  0  0  0  0  0  0  0  0  0  0
    7.3885   70.8980   68.7239 H   0  0  0  0  0  0  0  0  0  0  0  0
    1.0046   69.1219   67.2847 H   0  0  0  0  0  0  0  0  0  0  0  0
    2.1451   68.0891   66.0374 H   0  0  0  0  0  0  0  0  0  0  0  0
    2.2834   69.6706   65.1383 H   0  0  0  0  0  0  0  0  0  0  0  0
    4.6504   68.2639   65.2652 H   0  0  0  0  0  0  0  0  0  0  0  0
    3.8821   66.1318   65.0296 H   0  0  0  0  0  0  0  0  0  0  0  0
    2.3890   66.6430   64.2702 H   0  0  0  0  0  0  0  0  0  0  0  0
    5.2252   66.5373   63.0719 H   0  0  0  0  0  0  0  0  0  0  0  0
    3.7756   65.8589   62.3686 H   0  0  0  0  0  0  0  0  0  0  0  0
    4.5942   68.2533   61.5053 H   0  0  0  0  0  0  0  0  0  0  0  0
    2.8748   68.1040   61.8492 H   0  0  0  0  0  0  0  0  0  0  0  0
    5.0553   69.4765   63.4432 H   0  0  0  0  0  0  0  0  0  0  0  0
    3.3503   69.9112   63.3462 H   0  0  0  0  0  0  0  0  0  0  0  0
  2  1  2  0
  3  2  1  0
  4  3  2  0
  5  4  1  0
  6  5  2  0
  6  1  1  0
  7  4  1  0
  8  1  1  0
  9  6  1  0
 10  9  1  0
 11 10  1  0
 12 11  1  0
 13 12  1  0
 14 13  1  0
 14 10  1  0
  2 15  1  0
  3 16  1  0
  5 17  1  0
  7 18  1  0
  7 19  1  0
  8 20  1  0
  9 21  1  0
  9 22  1  0
 10 23  1  0
 11 24  1  0
 11 25  1  0
 12 26  1  0
 12 27  1  0
 13 28  1  0
 13 29  1  0
 14 30  1  0
 14 31  1  0
M  CHG  1  10   1
M  END
>  <score>  (6) 
-6.857

$$$$
=
     RDKit          3D

 31 32  0  0  0  0  0  0  0  0999 V2000
    2.6490   69.0640   67.4190 C   0  0  0  0  0  0  0  0  0  0  0  0
    3.7990   69.8350   67.5460 C   0  0  0  0  0  0  0  0  0  0  0  0
    4.6520   69.9770   66.4500 C   0  0  0  0  0  0  0  0  0  0  0  0
    4.3410   69.3950   65.2180 C   0  0  0  0  0  0  0  0  0  0  0  0
    3.2070   68.5840   65.1250 C   0  0  0  0  0  0  0  0  0  0  0  0
    2.3420   68.4130   66.2190 C   0  0  0  0  0  0  0  0  0  0  0  0
    5.2610   69.4360   64.1700 N   0  0  0  0  0  0  0  0  0  0  0  0
    1.8110   68.8900   68.4900 O   0  0  0  0  0  0  0  0  0  0  0  0
    1.1070   67.5660   66.0810 C   0  0  0  0  0  0  0  0  0  0  0  0
   -0.1390   68.2580   66.5520 N   0  0  0  0  0  4  0  0  0  0  0  0
   -1.0130   68.7950   65.4570 C   0  0  0  0  0  0  0  0  0  0  0  0
   -2.3790   68.8500   66.1060 C   0  0  0  0  0  0  0  0  0  0  0  0
   -2.4090   67.5720   66.9230 C   0  0  0  0  0  0  0  0  0  0  0  0
   -1.0060   67.4600   67.4980 C   0  0  0  0  0  0  0  0  0  0  0  0
    4.0344   70.3282   68.5006 H   0  0  0  0  0  0  0  0  0  0  0  0
    5.5817   70.5549   66.5576 H   0  0  0  0  0  0  0  0  0  0  0  0
    2.9873   68.0698   64.1777 H   0  0  0  0  0  0  0  0  0  0  0  0
    5.0284   69.0060   63.2634 H   0  0  0  0  0  0  0  0  0  0  0  0
    6.1728   69.8962   64.3029 H   0  0  0  0  0  0  0  0  0  0  0  0
    0.9933   68.3401   68.3945 H   0  0  0  0  0  0  0  0  0  0  0  0
    0.9808   67.3016   65.0207 H   0  0  0  0  0  0  0  0  0  0  0  0
    1.2471   66.6773   66.7140 H   0  0  0  0  0  0  0  0  0  0  0  0
    0.2687   69.0469   67.0739 H   0  0  0  0  0  0  0  0  0  0  0  0
   -0.6836   69.7968   65.1440 H   0  0  0  0  0  0  0  0  0  0  0  0
   -0.9914   68.1803   64.5450 H   0  0  0  0  0  0  0  0  0  0  0  0
   -2.4769   69.7358   66.7507 H   0  0  0  0  0  0  0  0  0  0  0  0
   -3.2042   68.9263   65.3827 H   0  0  0  0  0  0  0  0  0  0  0  0
   -3.1555   67.6416   67.7279 H   0  0  0  0  0  0  0  0  0  0  0  0
   -2.6873   66.6947   66.3205 H   0  0  0  0  0  0  0  0  0  0  0  0
   -0.9672   67.8851   68.5118 H   0  0  0  0  0  0  0  0  0  0  0  0
   -0.6742   66.4149   67.5853 H   0  0  0  0  0  0  0  0  0  0  0  0
  2  1  2  0
  3  2  1  0
  4  3  2  0
  5  4  1  0
  6  5  2  0
  6  1  1  0
  7  4  1  0
  8  1  1  0
  9  6  1  0
 10  9  1  0
 11 10  1  0
 12 11  1  0
 13 12  1  0
 14 13  1  0
 14 10  1  0
  2 15  1  0
  3 16  1  0
  5 17  1  0
  7 18  1  0
  7 19  1  0
  8 20  1  0
  9 21  1  0
  9 22  1  0
 10 23  1  0
 11 24  1  0
 11 25  1  0
 12 26  1  0
 12 27  1  0
 13 28  1  0
 13 29  1  0
 14 30  1  0
 14 31  1  0
M  CHG  1  10   1
M  END
>  <score>  (7) 
-6.722

$$$$
=
     RDKit          3D

 31 32  0  0  0  0  0  0  0  0999 V2000
    4.0440   69.1740   65.6700 C   0  0  0  0  0  0  0  0  0  0  0  0
    5.0710   69.7630   64.9420 C   0  0  0  0  0  0  0  0  0  0  0  0
    5.2460   69.4150   63.6010 C   0  0  0  0  0  0  0  0  0  0  0  0
    4.3740   68.5220   62.9720 C   0  0  0  0  0  0  0  0  0  0  0  0
    3.3790   67.9040   63.7340 C   0  0  0  0  0  0  0  0  0  0  0  0
    3.1940   68.2250   65.0890 C   0  0  0  0  0  0  0  0  0  0  0  0
    4.6340   68.0850   61.6730 N   0  0  0  0  0  0  0  0  0  0  0  0
    3.8700   69.4810   66.9950 O   0  0  0  0  0  0  0  0  0  0  0  0
    2.0900   67.5750   65.8760 C   0  0  0  0  0  0  0  0  0  0  0  0
    0.9500   68.5050   66.1730 N   0  0  0  0  0  4  0  0  0  0  0  0
   -0.1210   68.5420   65.1240 C   0  0  0  0  0  0  0  0  0  0  0  0
   -1.3390   69.0030   65.8960 C   0  0  0  0  0  0  0  0  0  0  0  0
   -1.2010   68.2560   67.2090 C   0  0  0  0  0  0  0  0  0  0  0  0
    0.2870   68.3100   67.5170 C   0  0  0  0  0  0  0  0  0  0  0  0
    5.7393   70.4960   65.4174 H   0  0  0  0  0  0  0  0  0  0  0  0
    6.0812   69.8495   63.0321 H   0  0  0  0  0  0  0  0  0  0  0  0
    2.7283   67.1519   63.2639 H   0  0  0  0  0  0  0  0  0  0  0  0
    3.9894   67.4269   61.2123 H   0  0  0  0  0  0  0  0  0  0  0  0
    5.4706   68.4205   61.1745 H   0  0  0  0  0  0  0  0  0  0  0  0
    3.1368   69.0585   67.5089 H   0  0  0  0  0  0  0  0  0  0  0  0
    1.7042   66.7220   65.2985 H   0  0  0  0  0  0  0  0  0  0  0  0
    2.5163   67.2615   66.8403 H   0  0  0  0  0  0  0  0  0  0  0  0
    1.4417   69.4100   66.1831 H   0  0  0  0  0  0  0  0  0  0  0  0
    0.1331   69.2538   64.3247 H   0  0  0  0  0  0  0  0  0  0  0  0
   -0.2677   67.5751   64.6204 H   0  0  0  0  0  0  0  0  0  0  0  0
   -1.3201   70.0914   66.0545 H   0  0  0  0  0  0  0  0  0  0  0  0
   -2.2877   68.8029   65.3765 H   0  0  0  0  0  0  0  0  0  0  0  0
   -1.7813   68.7508   68.0017 H   0  0  0  0  0  0  0  0  0  0  0  0
   -1.5806   67.2254   67.1482 H   0  0  0  0  0  0  0  0  0  0  0  0
    0.5141   69.1520   68.1874 H   0  0  0  0  0  0  0  0  0  0  0  0
    0.6397   67.4015   68.0272 H   0  0  0  0  0  0  0  0  0  0  0  0
  2  1  2  0
  3  2  1  0
  4  3  2  0
  5  4  1  0
  6  5  2  0
  6  1  1  0
  7  4  1  0
  8  1  1  0
  9  6  1  0
 10  9  1  0
 11 10  1  0
 12 11  1  0
 13 12  1  0
 14 13  1  0
 14 10  1  0
  2 15  1  0
  3 16  1  0
  5 17  1  0
  7 18  1  0
  7 19  1  0
  8 20  1  0
  9 21  1  0
  9 22  1  0
 10 23  1  0
 11 24  1  0
 11 25  1  0
 12 26  1  0
 12 27  1  0
 13 28  1  0
 13 29  1  0
 14 30  1  0
 14 31  1  0
M  CHG  1  10   1
M  END
>  <score>  (8) 
-6.437

$$$$
=
     RDKit          3D

 31 32  0  0  0  0  0  0  0  0999 V2000
    4.8960   61.7000   71.5500 C   0  0  0  0  0  0  0  0  0  0  0  0
    5.2280   62.9700   71.0950 C   0  0  0  0  0  0  0  0  0  0  0  0
    4.7190   63.4150   69.8740 C   0  0  0  0  0  0  0  0  0  0  0  0
    3.8440   62.6200   69.1290 C   0  0  0  0  0  0  0  0  0  0  0  0
    3.5620   61.3270   69.5790 C   0  0  0  0  0  0  0  0  0  0  0  0
    4.0760   60.8510   70.7960 C   0  0  0  0  0  0  0  0  0  0  0  0
    3.4450   63.0200   67.8530 N   0  0  0  0  0  0  0  0  0  0  0  0
    5.4060   61.2330   72.7340 O   0  0  0  0  0  0  0  0  0  0  0  0
    3.7250   59.4700   71.2770 C   0  0  0  0  0  0  0  0  0  0  0  0
    2.8750   59.4740   72.5140 N   0  0  0  0  0  4  0  0  0  0  0  0
    1.6070   60.2700   72.4040 C   0  0  0  0  0  0  0  0  0  0  0  0
    0.7130   59.6320   73.4450 C   0  0  0  0  0  0  0  0  0  0  0  0
    1.0250   58.1570   73.2910 C   0  0  0  0  0  0  0  0  0  0  0  0
    2.5280   58.1120   73.0680 C   0  0  0  0  0  0  0  0  0  0  0  0
    5.8860   63.6189   71.6916 H   0  0  0  0  0  0  0  0  0  0  0  0
    5.0106   64.4049   69.4930 H   0  0  0  0  0  0  0  0  0  0  0  0
    2.9254   60.6699   68.9682 H   0  0  0  0  0  0  0  0  0  0  0  0
    2.7999   62.4313   67.3069 H   0  0  0  0  0  0  0  0  0  0  0  0
    3.7956   63.9039   67.4572 H   0  0  0  0  0  0  0  0  0  0  0  0
    5.1660   60.3272   73.0533 H   0  0  0  0  0  0  0  0  0  0  0  0
    3.1768   58.9500   70.4776 H   0  0  0  0  0  0  0  0  0  0  0  0
    4.6675   58.9619   71.5291 H   0  0  0  0  0  0  0  0  0  0  0  0
    3.5097   59.9412   73.1771 H   0  0  0  0  0  0  0  0  0  0  0  0
    1.7852   61.3311   72.6327 H   0  0  0  0  0  0  0  0  0  0  0  0
    1.1732   60.2567   71.3932 H   0  0  0  0  0  0  0  0  0  0  0  0
    0.9639   59.9874   74.4553 H   0  0  0  0  0  0  0  0  0  0  0  0
   -0.3526   59.8697   73.3109 H   0  0  0  0  0  0  0  0  0  0  0  0
    0.7493   57.6034   74.2007 H   0  0  0  0  0  0  0  0  0  0  0  0
    0.4639   57.6927   72.4667 H   0  0  0  0  0  0  0  0  0  0  0  0
    3.0556   57.9332   74.0165 H   0  0  0  0  0  0  0  0  0  0  0  0
    2.8236   57.2989   72.3886 H   0  0  0  0  0  0  0  0  0  0  0  0
  2  1  2  0
  3  2  1  0
  4  3  2  0
  5  4  1  0
  6  5  2  0
  6  1  1  0
  7  4  1  0
  8  1  1  0
  9  6  1  0
 10  9  1  0
 11 10  1  0
 12 11  1  0
 13 12  1  0
 14 13  1  0
 14 10  1  0
  2 15  1  0
  3 16  1  0
  5 17  1  0
  7 18  1  0
  7 19  1  0
  8 20  1  0
  9 21  1  0
  9 22  1  0
 10 23  1  0
 11 24  1  0
 11 25  1  0
 12 26  1  0
 12 27  1  0
 13 28  1  0
 13 29  1  0
 14 30  1  0
 14 31  1  0
M  CHG  1  10   1
M  END
>  <score>  (9) 
-6.163

$$$$
