=
     RDKit          3D

 36 38  0  0  0  0  0  0  0  0999 V2000
    1.5060   67.8220   67.8460 N   0  0  0  0  0  0  0  0  0  0  0  0
    1.3050   68.7370   66.8240 C   0  0  0  0  0  0  0  0  0  0  0  0
    0.1940   69.2070   66.5880 O   0  0  0  0  0  0  0  0  0  0  0  0
    2.4810   68.9890   66.0880 N   0  0  0  0  0  0  0  0  0  0  0  0
    3.6460   69.5170   66.7670 C   0  0  0  0  0  0  0  0  0  0  0  0
    3.5080   70.0510   68.0710 C   0  0  0  0  0  0  0  0  0  0  0  0
    4.5930   70.5690   68.7850 C   0  0  0  0  0  0  0  0  0  0  0  0
    5.8510   70.5820   68.2090 C   0  0  0  0  0  0  0  0  0  0  0  0
    6.0140   70.0900   66.9170 C   0  0  0  0  0  0  0  0  0  0  0  0
    4.9230   69.5710   66.1920 C   0  0  0  0  0  0  0  0  0  0  0  0
    5.2820   68.9910   64.5650 S   0  0  0  0  0  0  0  0  0  0  0  0
    3.6520   68.9310   63.8720 C   0  0  0  0  0  0  0  0  0  0  0  0
    2.4790   68.8890   64.6450 C   0  0  0  0  0  0  0  0  0  0  0  0
    1.2710   68.6860   63.9410 C   0  0  0  0  0  0  0  0  0  0  0  0
    1.2220   68.5890   62.5450 C   0  0  0  0  0  0  0  0  0  0  0  0
    2.3870   68.6710   61.8040 C   0  0  0  0  0  0  0  0  0  0  0  0
    3.5990   68.8310   62.4680 C   0  0  0  0  0  0  0  0  0  0  0  0
   -0.6920   66.7700   67.9950 C   0  0  0  0  0  0  0  0  0  0  0  0
    0.4520   67.4220   68.7630 C   0  0  0  0  0  0  0  0  0  0  0  0
    0.9970   66.4750   69.8300 C   0  0  0  0  0  0  0  0  0  0  0  0
    2.4422   67.4081   67.9602 H   0  0  0  0  0  0  0  0  0  0  0  0
    2.5125   70.0587   68.5388 H   0  0  0  0  0  0  0  0  0  0  0  0
    4.4469   70.9647   69.8009 H   0  0  0  0  0  0  0  0  0  0  0  0
    6.7133   70.9770   68.7662 H   0  0  0  0  0  0  0  0  0  0  0  0
    7.0117   70.1067   66.4541 H   0  0  0  0  0  0  0  0  0  0  0  0
    0.3340   68.6010   64.5109 H   0  0  0  0  0  0  0  0  0  0  0  0
    0.2565   68.4475   62.0374 H   0  0  0  0  0  0  0  0  0  0  0  0
    2.3557   68.6106   60.7061 H   0  0  0  0  0  0  0  0  0  0  0  0
    4.5316   68.8802   61.8868 H   0  0  0  0  0  0  0  0  0  0  0  0
   -1.4211   66.3544   68.7061 H   0  0  0  0  0  0  0  0  0  0  0  0
   -1.1849   67.5228   67.3623 H   0  0  0  0  0  0  0  0  0  0  0  0
   -0.2955   65.9622   67.3623 H   0  0  0  0  0  0  0  0  0  0  0  0
    0.0668   68.3192   69.2696 H   0  0  0  0  0  0  0  0  0  0  0  0
    0.7664   66.8756   70.8282 H   0  0  0  0  0  0  0  0  0  0  0  0
    0.5301   65.4856   69.7152 H   0  0  0  0  0  0  0  0  0  0  0  0
    2.0870   66.3816   69.7152 H   0  0  0  0  0  0  0  0  0  0  0  0
  2  1  1  0
  3  2  2  0
  4  2  1  0
  5  4  1  0
  6  5  1  0
  7  6  2  0
  8  7  1  0
  9  8  2  0
 10  5  2  0
 10  9  1  0
 11 10  1  0
 12 11  1  0
 13 12  2  0
 13  4  1  0
 14 13  1  0
 15 14  2  0
 16 15  1  0
 17 16  2  0
 17 12  1  0
 19 18  1  0
 19  1  1  0
 20 19  1  0
  1 21  1  0
  6 22  1  0
  7 23  1  0
  8 24  1  0
  9 25  1  0
 14 26  1  0
 15 27  1  0
 16 28  1  0
 17 29  1  0
 18 30  1  0
 18 31  1  0
 18 32  1  0
 19 33  1  0
 20 34  1  0
 20 35  1  0
 20 36  1  0
M  END
>  <score>  (1) 
-10.831

$$$$
=
     RDKit          3D

 36 38  0  0  0  0  0  0  0  0999 V2000
    4.2390   67.2740   64.4370 N   0  0  0  0  0  0  0  0  0  0  0  0
    4.4750   68.6200   64.6650 C   0  0  0  0  0  0  0  0  0  0  0  0
    5.1840   69.2870   63.9140 O   0  0  0  0  0  0  0  0  0  0  0  0
    3.8730   69.0790   65.8550 N   0  0  0  0  0  0  0  0  0  0  0  0
    2.4370   68.9730   66.0130 C   0  0  0  0  0  0  0  0  0  0  0  0
    1.6320   68.7010   64.8810 C   0  0  0  0  0  0  0  0  0  0  0  0
    0.2420   68.5790   64.9650 C   0  0  0  0  0  0  0  0  0  0  0  0
   -0.3890   68.7410   66.1870 C   0  0  0  0  0  0  0  0  0  0  0  0
    0.3730   69.0390   67.3120 C   0  0  0  0  0  0  0  0  0  0  0  0
    1.7740   69.1670   67.2320 C   0  0  0  0  0  0  0  0  0  0  0  0
    2.6020   69.5530   68.7410 S   0  0  0  0  0  0  0  0  0  0  0  0
    4.1660   70.1110   68.1200 C   0  0  0  0  0  0  0  0  0  0  0  0
    4.6490   69.8040   66.8370 C   0  0  0  0  0  0  0  0  0  0  0  0
    5.9780   70.1950   66.5570 C   0  0  0  0  0  0  0  0  0  0  0  0
    6.7630   70.9010   67.4750 C   0  0  0  0  0  0  0  0  0  0  0  0
    6.2510   71.2250   68.7190 C   0  0  0  0  0  0  0  0  0  0  0  0
    4.9600   70.8220   69.0430 C   0  0  0  0  0  0  0  0  0  0  0  0
    4.4340   65.0840   63.3750 C   0  0  0  0  0  0  0  0  0  0  0  0
    4.7280   66.5760   63.2600 C   0  0  0  0  0  0  0  0  0  0  0  0
    4.1020   67.1540   61.9920 C   0  0  0  0  0  0  0  0  0  0  0  0
    3.6931   66.7450   65.1321 H   0  0  0  0  0  0  0  0  0  0  0  0
    2.1171   68.5815   63.9010 H   0  0  0  0  0  0  0  0  0  0  0  0
   -0.3482   68.3552   64.0641 H   0  0  0  0  0  0  0  0  0  0  0  0
   -1.4810   68.6352   66.2672 H   0  0  0  0  0  0  0  0  0  0  0  0
   -0.1273   69.1773   68.2818 H   0  0  0  0  0  0  0  0  0  0  0  0
    6.4116   69.9343   65.5803 H   0  0  0  0  0  0  0  0  0  0  0  0
    7.7877   71.1986   67.2077 H   0  0  0  0  0  0  0  0  0  0  0  0
    6.8562   71.7929   69.4410 H   0  0  0  0  0  0  0  0  0  0  0  0
    4.5516   71.0619   70.0358 H   0  0  0  0  0  0  0  0  0  0  0  0
    4.3784   64.8020   64.4368 H   0  0  0  0  0  0  0  0  0  0  0  0
    3.4746   64.8605   62.8856 H   0  0  0  0  0  0  0  0  0  0  0  0
    5.2370   64.5133   62.8856 H   0  0  0  0  0  0  0  0  0  0  0  0
    5.8173   66.7148   63.1958 H   0  0  0  0  0  0  0  0  0  0  0  0
    3.3193   67.8767   62.2661 H   0  0  0  0  0  0  0  0  0  0  0  0
    4.8773   67.6606   61.3984 H   0  0  0  0  0  0  0  0  0  0  0  0
    3.6587   66.3409   61.3984 H   0  0  0  0  0  0  0  0  0  0  0  0
  2  1  1  0
  3  2  2  0
  4  2  1  0
  5  4  1  0
  6  5  1  0
  7  6  2  0
  8  7  1  0
  9  8  2  0
 10  5  2  0
 10  9  1  0
 11 10  1  0
 12 11  1  0
 13 12  2  0
 13  4  1  0
 14 13  1  0
 15 14  2  0
 16 15  1  0
 17 16  2  0
 17 12  1  0
 19 18  1  0
 19  1  1  0
 20 19  1  0
  1 21  1  0
  6 22  1  0
  7 23  1  0
  8 24  1  0
  9 25  1  0
 14 26  1  0
 15 27  1  0
 16 28  1  0
 17 29  1  0
 18 30  1  0
 18 31  1  0
 18 32  1  0
 19 33  1  0
 20 34  1  0
 20 35  1  0
 20 36  1  0
M  END
>  <score>  (2) 
-10.38

$$$$
=
     RDKit          3D

 36 38  0  0  0  0  0  0  0  0999 V2000
    0.3980   68.6850   66.4780 N   0  0  0  0  0  0  0  0  0  0  0  0
    1.4500   68.5220   67.3650 C   0  0  0  0  0  0  0  0  0  0  0  0
    1.2590   68.3260   68.5630 O   0  0  0  0  0  0  0  0  0  0  0  0
    2.7070   68.6720   66.7440 N   0  0  0  0  0  0  0  0  0  0  0  0
    3.0690   67.7930   65.6510 C   0  0  0  0  0  0  0  0  0  0  0  0
    2.3090   66.6220   65.4180 C   0  0  0  0  0  0  0  0  0  0  0  0
    2.6000   65.7360   64.3770 C   0  0  0  0  0  0  0  0  0  0  0  0
    3.6740   65.9870   63.5410 C   0  0  0  0  0  0  0  0  0  0  0  0
    4.4590   67.1160   63.7620 C   0  0  0  0  0  0  0  0  0  0  0  0
    4.1720   68.0090   64.8130 C   0  0  0  0  0  0  0  0  0  0  0  0
    5.2590   69.3900   64.9720 S   0  0  0  0  0  0  0  0  0  0  0  0
    4.8800   69.9150   66.6210 C   0  0  0  0  0  0  0  0  0  0  0  0
    3.6960   69.5710   67.2960 C   0  0  0  0  0  0  0  0  0  0  0  0
    3.4790   70.2000   68.5420 C   0  0  0  0  0  0  0  0  0  0  0  0
    4.4100   71.0730   69.1160 C   0  0  0  0  0  0  0  0  0  0  0  0
    5.5870   71.3660   68.4490 C   0  0  0  0  0  0  0  0  0  0  0  0
    5.8150   70.7960   67.2020 C   0  0  0  0  0  0  0  0  0  0  0  0
   -1.9070   69.0040   65.7390 C   0  0  0  0  0  0  0  0  0  0  0  0
   -0.9940   68.5470   66.8720 C   0  0  0  0  0  0  0  0  0  0  0  0
   -1.3020   67.1040   67.2670 C   0  0  0  0  0  0  0  0  0  0  0  0
    0.6119   68.9139   65.4968 H   0  0  0  0  0  0  0  0  0  0  0  0
    1.4587   66.4013   66.0800 H   0  0  0  0  0  0  0  0  0  0  0  0
    1.9776   64.8423   64.2227 H   0  0  0  0  0  0  0  0  0  0  0  0
    3.9050   65.3026   62.7114 H   0  0  0  0  0  0  0  0  0  0  0  0
    5.3182   67.3139   63.1043 H   0  0  0  0  0  0  0  0  0  0  0  0
    2.5425   69.9958   69.0817 H   0  0  0  0  0  0  0  0  0  0  0  0
    4.2065   71.5264   70.0973 H   0  0  0  0  0  0  0  0  0  0  0  0
    6.3308   72.0399   68.8991 H   0  0  0  0  0  0  0  0  0  0  0  0
    6.7409   71.0364   66.6590 H   0  0  0  0  0  0  0  0  0  0  0  0
   -2.8154   69.4587   66.1609 H   0  0  0  0  0  0  0  0  0  0  0  0
   -1.3800   69.7446   65.1195 H   0  0  0  0  0  0  0  0  0  0  0  0
   -2.1840   68.1383   65.1195 H   0  0  0  0  0  0  0  0  0  0  0  0
   -1.1769   69.1855   67.7488 H   0  0  0  0  0  0  0  0  0  0  0  0
   -1.3200   67.0199   68.3636 H   0  0  0  0  0  0  0  0  0  0  0  0
   -2.2823   66.8139   66.8609 H   0  0  0  0  0  0  0  0  0  0  0  0
   -0.5256   66.4390   66.8609 H   0  0  0  0  0  0  0  0  0  0  0  0
  2  1  1  0
  3  2  2  0
  4  2  1  0
  5  4  1  0
  6  5  1  0
  7  6  2  0
  8  7  1  0
  9  8  2  0
 10  5  2  0
 10  9  1  0
 11 10  1  0
 12 11  1  0
 13 12  2  0
 13  4  1  0
 14 13  1  0
 15 14  2  0
 16 15  1  0
 17 16  2  0
 17 12  1  0
 19 18  1  0
 19  1  1  0
 20 19  1  0
  1 21  1  0
  6 22  1  0
  7 23  1  0
  8 24  1  0
  9 25  1  0
 14 26  1  0
 15 27  1  0
 16 28  1  0
 17 29  1  0
 18 30  1  0
 18 31  1  0
 18 32  1  0
 19 33  1  0
 20 34  1  0
 20 35  1  0
 20 36  1  0
M  END
>  <score>  (3) 
-9.865

$$$$
=
     RDKit          3D

 36 38  0  0  0  0  0  0  0  0999 V2000
    4.3260   69.4800   63.8740 N   0  0  0  0  0  0  0  0  0  0  0  0
    3.9120   68.4510   64.7050 C   0  0  0  0  0  0  0  0  0  0  0  0
    3.8690   67.2860   64.3170 O   0  0  0  0  0  0  0  0  0  0  0  0
    3.5020   68.9150   65.9720 N   0  0  0  0  0  0  0  0  0  0  0  0
    4.4420   69.6400   66.8020 C   0  0  0  0  0  0  0  0  0  0  0  0
    5.8190   69.6150   66.4780 C   0  0  0  0  0  0  0  0  0  0  0  0
    6.7770   70.2980   67.2320 C   0  0  0  0  0  0  0  0  0  0  0  0
    6.3870   71.0190   68.3480 C   0  0  0  0  0  0  0  0  0  0  0  0
    5.0430   71.0390   68.7090 C   0  0  0  0  0  0  0  0  0  0  0  0
    4.0750   70.3470   67.9550 C   0  0  0  0  0  0  0  0  0  0  0  0
    2.4140   70.4600   68.5410 S   0  0  0  0  0  0  0  0  0  0  0  0
    1.6700   69.1060   67.6720 C   0  0  0  0  0  0  0  0  0  0  0  0
    2.2190   68.5260   66.5160 C   0  0  0  0  0  0  0  0  0  0  0  0
    1.4230   67.5620   65.8590 C   0  0  0  0  0  0  0  0  0  0  0  0
    0.1780   67.1520   66.3520 C   0  0  0  0  0  0  0  0  0  0  0  0
   -0.3240   67.7120   67.5130 C   0  0  0  0  0  0  0  0  0  0  0  0
    0.4160   68.6920   68.1640 C   0  0  0  0  0  0  0  0  0  0  0  0
    6.0170   68.3030   62.5630 C   0  0  0  0  0  0  0  0  0  0  0  0
    4.8240   69.2530   62.5270 C   0  0  0  0  0  0  0  0  0  0  0  0
    3.7180   68.7000   61.6310 C   0  0  0  0  0  0  0  0  0  0  0  0
    4.2789   70.4469   64.2257 H   0  0  0  0  0  0  0  0  0  0  0  0
    6.1472   69.0373   65.6013 H   0  0  0  0  0  0  0  0  0  0  0  0
    7.8370   70.2630   66.9401 H   0  0  0  0  0  0  0  0  0  0  0  0
    7.1309   71.5697   68.9424 H   0  0  0  0  0  0  0  0  0  0  0  0
    4.7311   71.6053   69.5990 H   0  0  0  0  0  0  0  0  0  0  0  0
    1.7950   67.1163   64.9247 H   0  0  0  0  0  0  0  0  0  0  0  0
   -0.4005   66.3850   65.8162 H   0  0  0  0  0  0  0  0  0  0  0  0
   -1.2947   67.3865   67.9152 H   0  0  0  0  0  0  0  0  0  0  0  0
    0.0158   69.1525   69.0793 H   0  0  0  0  0  0  0  0  0  0  0  0
    6.2846   68.0899   63.6085 H   0  0  0  0  0  0  0  0  0  0  0  0
    5.7538   67.3644   62.0533 H   0  0  0  0  0  0  0  0  0  0  0  0
    6.8728   68.7696   62.0533 H   0  0  0  0  0  0  0  0  0  0  0  0
    5.1542   70.2140   62.1057 H   0  0  0  0  0  0  0  0  0  0  0  0
    2.9082   68.2951   62.2557 H   0  0  0  0  0  0  0  0  0  0  0  0
    3.3229   69.5066   60.9960 H   0  0  0  0  0  0  0  0  0  0  0  0
    4.1262   67.9000   60.9960 H   0  0  0  0  0  0  0  0  0  0  0  0
  2  1  1  0
  3  2  2  0
  4  2  1  0
  5  4  1  0
  6  5  1  0
  7  6  2  0
  8  7  1  0
  9  8  2  0
 10  5  2  0
 10  9  1  0
 11 10  1  0
 12 11  1  0
 13 12  2  0
 13  4  1  0
 14 13  1  0
 15 14  2  0
 16 15  1  0
 17 16  2  0
 17 12  1  0
 19 18  1  0
 19  1  1  0
 20 19  1  0
  1 21  1  0
  6 22  1  0
  7 23  1  0
  8 24  1  0
  9 25  1  0
 14 26  1  0
 15 27  1  0
 16 28  1  0
 17 29  1  0
 18 30  1  0
 18 31  1  0
 18 32  1  0
 19 33  1  0
 20 34  1  0
 20 35  1  0
 20 36  1  0
M  END
>  <score>  (4) 
-9.332

$$$$
=
     RDKit          3D

 36 38  0  0  0  0  0  0  0  0999 V2000
    3.6460   69.5710   66.8840 N   0  0  0  0  0  0  0  0  0  0  0  0
    3.3780   68.7110   65.8300 C   0  0  0  0  0  0  0  0  0  0  0  0
    4.2800   68.1950   65.1750 O   0  0  0  0  0  0  0  0  0  0  0  0
    1.9970   68.5720   65.5870 N   0  0  0  0  0  0  0  0  0  0  0  0
    1.1360   68.0700   66.6370 C   0  0  0  0  0  0  0  0  0  0  0  0
    1.7120   67.4490   67.7720 C   0  0  0  0  0  0  0  0  0  0  0  0
    0.9390   66.9500   68.8240 C   0  0  0  0  0  0  0  0  0  0  0  0
   -0.4410   67.0440   68.7680 C   0  0  0  0  0  0  0  0  0  0  0  0
   -1.0380   67.6240   67.6520 C   0  0  0  0  0  0  0  0  0  0  0  0
   -0.2640   68.1230   66.5870 C   0  0  0  0  0  0  0  0  0  0  0  0
   -1.1630   68.8220   65.2390 S   0  0  0  0  0  0  0  0  0  0  0  0
    0.0880   68.8320   63.9830 C   0  0  0  0  0  0  0  0  0  0  0  0
    1.4650   68.7600   64.2550 C   0  0  0  0  0  0  0  0  0  0  0  0
    2.3310   68.9380   63.1530 C   0  0  0  0  0  0  0  0  0  0  0  0
    1.8600   69.1180   61.8470 C   0  0  0  0  0  0  0  0  0  0  0  0
    0.4990   69.1480   61.6010 C   0  0  0  0  0  0  0  0  0  0  0  0
   -0.3830   69.0150   62.6680 C   0  0  0  0  0  0  0  0  0  0  0  0
    5.8020   70.5160   66.2370 C   0  0  0  0  0  0  0  0  0  0  0  0
    4.9940   69.8530   67.3480 C   0  0  0  0  0  0  0  0  0  0  0  0
    4.9610   70.7370   68.5930 C   0  0  0  0  0  0  0  0  0  0  0  0
    2.8554   70.0299   67.3587 H   0  0  0  0  0  0  0  0  0  0  0  0
    2.8067   67.3561   67.8276 H   0  0  0  0  0  0  0  0  0  0  0  0
    1.4255   66.4841   69.6936 H   0  0  0  0  0  0  0  0  0  0  0  0
   -1.0586   66.6649   69.5955 H   0  0  0  0  0  0  0  0  0  0  0  0
   -2.1346   67.6937   67.6014 H   0  0  0  0  0  0  0  0  0  0  0  0
    3.4170   68.9350   63.3279 H   0  0  0  0  0  0  0  0  0  0  0  0
    2.5719   69.2355   61.0167 H   0  0  0  0  0  0  0  0  0  0  0  0
    0.1199   69.2752   60.5763 H   0  0  0  0  0  0  0  0  0  0  0  0
   -1.4665   69.0533   62.4820 H   0  0  0  0  0  0  0  0  0  0  0  0
    6.5802   71.1545   66.6806 H   0  0  0  0  0  0  0  0  0  0  0  0
    6.2740   69.7415   65.6146 H   0  0  0  0  0  0  0  0  0  0  0  0
    5.1345   71.1301   65.6146 H   0  0  0  0  0  0  0  0  0  0  0  0
    5.4800   68.9036   67.6173 H   0  0  0  0  0  0  0  0  0  0  0  0
    4.9846   70.1044   69.4926 H   0  0  0  0  0  0  0  0  0  0  0  0
    5.8348   71.4051   68.5916 H   0  0  0  0  0  0  0  0  0  0  0  0
    4.0398   71.3381   68.5916 H   0  0  0  0  0  0  0  0  0  0  0  0
  2  1  1  0
  3  2  2  0
  4  2  1  0
  5  4  1  0
  6  5  1  0
  7  6  2  0
  8  7  1  0
  9  8  2  0
 10  5  2  0
 10  9  1  0
 11 10  1  0
 12 11  1  0
 13 12  2  0
 13  4  1  0
 14 13  1  0
 15 14  2  0
 16 15  1  0
 17 16  2  0
 17 12  1  0
 19 18  1  0
 19  1  1  0
 20 19  1  0
  1 21  1  0
  6 22  1  0
  7 23  1  0
  8 24  1  0
  9 25  1  0
 14 26  1  0
 15 27  1  0
 16 28  1  0
 17 29  1  0
 18 30  1  0
 18 31  1  0
 18 32  1  0
 19 33  1  0
 20 34  1  0
 20 35  1  0
 20 36  1  0
M  END
>  <score>  (5) 
-9.054

$$$$
=
     RDKit          3D

 36 38  0  0  0  0  0  0  0  0999 V2000
    1.3250   68.7620   66.3110 N   0  0  0  0  0  0  0  0  0  0  0  0
    1.2240   67.4880   65.7740 C   0  0  0  0  0  0  0  0  0  0  0  0
    0.6140   66.5920   66.3520 O   0  0  0  0  0  0  0  0  0  0  0  0
    1.9380   67.3540   64.5660 N   0  0  0  0  0  0  0  0  0  0  0  0
    1.6010   68.2040   63.4420 C   0  0  0  0  0  0  0  0  0  0  0  0
    0.3890   68.9340   63.4610 C   0  0  0  0  0  0  0  0  0  0  0  0
    0.0080   69.7770   62.4130 C   0  0  0  0  0  0  0  0  0  0  0  0
    0.8250   69.9060   61.3040 C   0  0  0  0  0  0  0  0  0  0  0  0
    2.0110   69.1800   61.2430 C   0  0  0  0  0  0  0  0  0  0  0  0
    2.3960   68.3250   62.2940 C   0  0  0  0  0  0  0  0  0  0  0  0
    3.9210   67.4650   62.0710 S   0  0  0  0  0  0  0  0  0  0  0  0
    3.7600   66.1930   63.2950 C   0  0  0  0  0  0  0  0  0  0  0  0
    2.8770   66.2690   64.3860 C   0  0  0  0  0  0  0  0  0  0  0  0
    2.9850   65.2440   65.3510 C   0  0  0  0  0  0  0  0  0  0  0  0
    3.8750   64.1730   65.2160 C   0  0  0  0  0  0  0  0  0  0  0  0
    4.7080   64.1010   64.1130 C   0  0  0  0  0  0  0  0  0  0  0  0
    4.6560   65.1140   63.1620 C   0  0  0  0  0  0  0  0  0  0  0  0
    1.4830   70.1970   68.2800 C   0  0  0  0  0  0  0  0  0  0  0  0
    0.6510   69.1570   67.5370 C   0  0  0  0  0  0  0  0  0  0  0  0
   -0.7450   69.6960   67.2340 C   0  0  0  0  0  0  0  0  0  0  0  0
    1.9028   69.4591   65.8200 H   0  0  0  0  0  0  0  0  0  0  0  0
   -0.2768   68.8347   64.3310 H   0  0  0  0  0  0  0  0  0  0  0  0
   -0.9378   70.3357   62.4699 H   0  0  0  0  0  0  0  0  0  0  0  0
    0.5402   70.5754   60.4789 H   0  0  0  0  0  0  0  0  0  0  0  0
    2.6586   69.2756   60.3590 H   0  0  0  0  0  0  0  0  0  0  0  0
    2.3443   65.2893   66.2440 H   0  0  0  0  0  0  0  0  0  0  0  0
    3.9127   63.3885   65.9861 H   0  0  0  0  0  0  0  0  0  0  0  0
    5.4006   63.2552   63.9906 H   0  0  0  0  0  0  0  0  0  0  0  0
    5.3261   65.0722   62.2907 H   0  0  0  0  0  0  0  0  0  0  0  0
    1.3674   70.0525   69.3643 H   0  0  0  0  0  0  0  0  0  0  0  0
    2.5422   70.0832   68.0058 H   0  0  0  0  0  0  0  0  0  0  0  0
    1.1395   71.2054   68.0058 H   0  0  0  0  0  0  0  0  0  0  0  0
    0.5410   68.2716   68.1804 H   0  0  0  0  0  0  0  0  0  0  0  0
   -1.2722   69.8996   68.1777 H   0  0  0  0  0  0  0  0  0  0  0  0
   -0.6608   70.6262   66.6530 H   0  0  0  0  0  0  0  0  0  0  0  0
   -1.3078   68.9505   66.6530 H   0  0  0  0  0  0  0  0  0  0  0  0
  2  1  1  0
  3  2  2  0
  4  2  1  0
  5  4  1  0
  6  5  1  0
  7  6  2  0
  8  7  1  0
  9  8  2  0
 10  5  2  0
 10  9  1  0
 11 10  1  0
 12 11  1  0
 13 12  2  0
 13  4  1  0
 14 13  1  0
 15 14  2  0
 16 15  1  0
 17 16  2  0
 17 12  1  0
 19 18  1  0
 19  1  1  0
 20 19  1  0
  1 21  1  0
  6 22  1  0
  7 23  1  0
  8 24  1  0
  9 25  1  0
 14 26  1  0
 15 27  1  0
 16 28  1  0
 17 29  1  0
 18 30  1  0
 18 31  1  0
 18 32  1  0
 19 33  1  0
 20 34  1  0
 20 35  1  0
 20 36  1  0
M  END
>  <score>  (6) 
-8.971

$$$$
=
     RDKit          3D

 36 38  0  0  0  0  0  0  0  0999 V2000
    0.6750   60.6840   73.1650 N   0  0  0  0  0  0  0  0  0  0  0  0
    0.9540   62.0220   73.3930 C   0  0  0  0  0  0  0  0  0  0  0  0
    0.4930   62.6210   74.3620 O   0  0  0  0  0  0  0  0  0  0  0  0
    1.7460   62.5880   72.3740 N   0  0  0  0  0  0  0  0  0  0  0  0
    3.0540   62.0300   72.0960 C   0  0  0  0  0  0  0  0  0  0  0  0
    3.6410   61.1390   73.0260 C   0  0  0  0  0  0  0  0  0  0  0  0
    4.8960   60.5600   72.8160 C   0  0  0  0  0  0  0  0  0  0  0  0
    5.6110   60.8660   71.6710 C   0  0  0  0  0  0  0  0  0  0  0  0
    5.0720   61.7610   70.7510 C   0  0  0  0  0  0  0  0  0  0  0  0
    3.8110   62.3510   70.9610 C   0  0  0  0  0  0  0  0  0  0  0  0
    3.2640   63.4700   69.7110 S   0  0  0  0  0  0  0  0  0  0  0  0
    1.9750   64.3230   70.5790 C   0  0  0  0  0  0  0  0  0  0  0  0
    1.3420   63.8170   71.7270 C   0  0  0  0  0  0  0  0  0  0  0  0
    0.2310   64.5480   72.2030 C   0  0  0  0  0  0  0  0  0  0  0  0
   -0.1930   65.7430   71.6120 C   0  0  0  0  0  0  0  0  0  0  0  0
    0.4710   66.2410   70.5050 C   0  0  0  0  0  0  0  0  0  0  0  0
    1.5450   65.5260   69.9850 C   0  0  0  0  0  0  0  0  0  0  0  0
   -1.5910   60.0850   73.8510 C   0  0  0  0  0  0  0  0  0  0  0  0
   -0.0990   59.8720   74.0890 C   0  0  0  0  0  0  0  0  0  0  0  0
    0.2650   58.3960   73.9440 C   0  0  0  0  0  0  0  0  0  0  0  0
    1.0315   60.2461   72.3036 H   0  0  0  0  0  0  0  0  0  0  0  0
    3.0905   60.8936   73.9461 H   0  0  0  0  0  0  0  0  0  0  0  0
    5.3138   59.8637   73.5581 H   0  0  0  0  0  0  0  0  0  0  0  0
    6.5942   60.4071   71.4900 H   0  0  0  0  0  0  0  0  0  0  0  0
    5.6414   62.0117   69.8439 H   0  0  0  0  0  0  0  0  0  0  0  0
   -0.3223   64.1627   73.0721 H   0  0  0  0  0  0  0  0  0  0  0  0
   -1.0543   66.2867   72.0274 H   0  0  0  0  0  0  0  0  0  0  0  0
    0.1545   67.1878   70.0432 H   0  0  0  0  0  0  0  0  0  0  0  0
    2.0675   65.9064   69.0948 H   0  0  0  0  0  0  0  0  0  0  0  0
   -2.1097   60.1590   74.8182 H   0  0  0  0  0  0  0  0  0  0  0  0
   -1.7425   61.0139   73.2816 H   0  0  0  0  0  0  0  0  0  0  0  0
   -1.9964   59.2356   73.2816 H   0  0  0  0  0  0  0  0  0  0  0  0
    0.1408   60.1828   75.1166 H   0  0  0  0  0  0  0  0  0  0  0  0
    0.3760   57.9460   74.9416 H   0  0  0  0  0  0  0  0  0  0  0  0
   -0.5314   57.8744   73.3930 H   0  0  0  0  0  0  0  0  0  0  0  0
    1.2126   58.3045   73.3930 H   0  0  0  0  0  0  0  0  0  0  0  0
  2  1  1  0
  3  2  2  0
  4  2  1  0
  5  4  1  0
  6  5  1  0
  7  6  2  0
  8  7  1  0
  9  8  2  0
 10  5  2  0
 10  9  1  0
 11 10  1  0
 12 11  1  0
 13 12  2  0
 13  4  1  0
 14 13  1  0
 15 14  2  0
 16 15  1  0
 17 16  2  0
 17 12  1  0
 19 18  1  0
 19  1  1  0
 20 19  1  0
  1 21  1  0
  6 22  1  0
  7 23  1  0
  8 24  1  0
  9 25  1  0
 14 26  1  0
 15 27  1  0
 16 28  1  0
 17 29  1  0
 18 30  1  0
 18 31  1  0
 18 32  1  0
 19 33  1  0
 20 34  1  0
 20 35  1  0
 20 36  1  0
M  END
>  <score>  (7) 
-8.134

$$$$
=
     RDKit          3D

 36 38  0  0  0  0  0  0  0  0999 V2000
    1.2730   63.0560   74.3840 N   0  0  0  0  0  0  0  0  0  0  0  0
    0.6390   62.1150   73.5870 C   0  0  0  0  0  0  0  0  0  0  0  0
   -0.5830   61.9870   73.5880 O   0  0  0  0  0  0  0  0  0  0  0  0
    1.5520   61.3210   72.8630 N   0  0  0  0  0  0  0  0  0  0  0  0
    2.4720   61.9550   71.9420 C   0  0  0  0  0  0  0  0  0  0  0  0
    2.2520   63.2990   71.5540 C   0  0  0  0  0  0  0  0  0  0  0  0
    3.1060   63.9720   70.6750 C   0  0  0  0  0  0  0  0  0  0  0  0
    4.2020   63.3150   70.1440 C   0  0  0  0  0  0  0  0  0  0  0  0
    4.4290   61.9840   70.4840 C   0  0  0  0  0  0  0  0  0  0  0  0
    3.5690   61.3000   71.3650 C   0  0  0  0  0  0  0  0  0  0  0  0
    3.9810   59.6170   71.6950 S   0  0  0  0  0  0  0  0  0  0  0  0
    2.4500   59.0330   72.3710 C   0  0  0  0  0  0  0  0  0  0  0  0
    1.4600   59.8780   72.9020 C   0  0  0  0  0  0  0  0  0  0  0  0
    0.3720   59.2440   73.5420 C   0  0  0  0  0  0  0  0  0  0  0  0
    0.2410   57.8520   73.6000 C   0  0  0  0  0  0  0  0  0  0  0  0
    1.2100   57.0410   73.0350 C   0  0  0  0  0  0  0  0  0  0  0  0
    2.3150   57.6320   72.4320 C   0  0  0  0  0  0  0  0  0  0  0  0
    1.4510   64.5510   76.3060 C   0  0  0  0  0  0  0  0  0  0  0  0
    0.5460   64.0130   75.2030 C   0  0  0  0  0  0  0  0  0  0  0  0
    0.0040   65.1530   74.3440 C   0  0  0  0  0  0  0  0  0  0  0  0
    2.3027   63.0782   74.3965 H   0  0  0  0  0  0  0  0  0  0  0  0
    1.3788   63.8321   71.9582 H   0  0  0  0  0  0  0  0  0  0  0  0
    2.9073   65.0201   70.4065 H   0  0  0  0  0  0  0  0  0  0  0  0
    4.8866   63.8387   69.4606 H   0  0  0  0  0  0  0  0  0  0  0  0
    5.2953   61.4574   70.0570 H   0  0  0  0  0  0  0  0  0  0  0  0
   -0.4018   59.8683   74.0127 H   0  0  0  0  0  0  0  0  0  0  0  0
   -0.6324   57.4021   74.0948 H   0  0  0  0  0  0  0  0  0  0  0  0
    1.1076   55.9461   73.0625 H   0  0  0  0  0  0  0  0  0  0  0  0
    3.0975   56.9943   71.9949 H   0  0  0  0  0  0  0  0  0  0  0  0
    1.0238   64.2970   77.2873 H   0  0  0  0  0  0  0  0  0  0  0  0
    2.4500   64.1000   76.2132 H   0  0  0  0  0  0  0  0  0  0  0  0
    1.5321   65.6441   76.2132 H   0  0  0  0  0  0  0  0  0  0  0  0
   -0.3092   63.5017   75.6690 H   0  0  0  0  0  0  0  0  0  0  0  0
   -0.3767   65.9537   74.9951 H   0  0  0  0  0  0  0  0  0  0  0  0
    0.8102   65.5489   73.7090 H   0  0  0  0  0  0  0  0  0  0  0  0
   -0.8120   64.7777   73.7090 H   0  0  0  0  0  0  0  0  0  0  0  0
  2  1  1  0
  3  2  2  0
  4  2  1  0
  5  4  1  0
  6  5  1  0
  7  6  2  0
  8  7  1  0
  9  8  2  0
 10  5  2  0
 10  9  1  0
 11 10  1  0
 12 11  1  0
 13 12  2  0
 13  4  1  0
 14 13  1  0
 15 14  2  0
 16 15  1  0
 17 16  2  0
 17 12  1  0
 19 18  1  0
 19  1  1  0
 20 19  1  0
  1 21  1  0
  6 22  1  0
  7 23  1  0
  8 24  1  0
  9 25  1  0
 14 26  1  0
 15 27  1  0
 16 28  1  0
 17 29  1  0
 18 30  1  0
 18 31  1  0
 18 32  1  0
 19 33  1  0
 20 34  1  0
 20 35  1  0
 20 36  1  0
M  END
>  <score>  (8) 
-8.093

$$$$
