=
     RDKit          3D

 63 67  0  0  0  0  0  0  0  0999 V2000
   -1.0900   67.1970   66.8940 C   0  0  0  0  0  0  0  0  0  0  0  0
   -1.0530   66.7780   68.3660 C   0  0  0  0  0  0  0  0  0  0  0  0
    0.2960   67.0340   69.0360 C   0  0  0  0  0  0  0  0  0  0  0  0
   -0.0120   65.8960   71.5950 O   0  0  0  0  0  0  0  0  0  0  0  0
    0.6750   65.3060   70.7660 C   0  0  0  0  0  0  0  0  0  0  0  0
    0.8950   65.8020   69.5060 N   0  0  0  0  0  0  0  0  0  0  0  0
    1.3220   63.9910   71.0770 C   0  0  0  0  0  0  0  0  0  0  0  0
    2.6420   63.9020   70.8360 C   0  0  0  0  0  0  0  0  0  0  0  0
    3.3670   62.6710   71.1020 C   0  0  0  0  0  0  0  0  0  0  0  0
    4.7370   62.5470   70.8610 C   0  0  0  0  0  0  0  0  0  0  0  0
    5.3880   61.3400   71.1330 C   0  0  0  0  0  0  0  0  0  0  0  0
    4.6730   60.2540   71.6440 C   0  0  0  0  0  0  0  0  0  0  0  0
    3.3060   60.3720   71.8860 C   0  0  0  0  0  0  0  0  0  0  0  0
    2.6730   61.5810   71.6110 C   0  0  0  0  0  0  0  0  0  0  0  0
    1.2930   61.6650   71.8660 O   0  0  0  0  0  0  0  0  0  0  0  0
    0.5780   62.8340   71.6240 C   0  0  0  0  0  0  0  0  0  0  0  0
   -0.6270   62.8880   71.8610 O   0  0  0  0  0  0  0  0  0  0  0  0
   -0.6340   68.6390   66.6660 C   0  0  0  0  0  0  0  0  0  0  0  0
    0.4240   68.7200   65.5630 C   0  0  0  0  0  0  0  0  0  0  0  0
    1.5900   67.8710   65.8620 N   0  0  0  0  0  0  0  0  0  0  0  0
    2.8360   68.5500   65.7430 C   0  0  0  0  0  0  0  0  0  0  0  0
    3.5480   68.4440   64.5400 C   0  0  0  0  0  0  0  0  0  0  0  0
    3.0550   67.7080   63.3230 C   0  0  0  0  0  0  0  0  0  0  0  0
    3.3310   68.5040   62.0430 C   0  0  0  0  0  0  0  0  0  0  0  0
    4.7270   69.1390   61.9710 C   0  0  0  0  0  0  0  0  0  0  0  0
    5.5990   68.8770   63.1960 C   0  0  0  0  0  0  0  0  0  0  0  0
    4.8060   69.0400   64.4650 C   0  0  0  0  0  0  0  0  0  0  0  0
    5.3710   69.7300   65.4780 N   0  0  0  0  0  0  0  0  0  0  0  0
    4.6770   69.8660   66.6170 C   0  0  0  0  0  0  0  0  0  0  0  0
    3.3980   69.2980   66.8180 C   0  0  0  0  0  0  0  0  0  0  0  0
    2.7580   69.5150   68.0650 C   0  0  0  0  0  0  0  0  0  0  0  0
    3.3640   70.2590   69.0780 C   0  0  0  0  0  0  0  0  0  0  0  0
    4.6210   70.8010   68.8660 C   0  0  0  0  0  0  0  0  0  0  0  0
    5.2610   70.5990   67.6410 C   0  0  0  0  0  0  0  0  0  0  0  0
   -0.4299   66.5273   66.3232 H   0  0  0  0  0  0  0  0  0  0  0  0
   -2.1362   67.1286   66.5610 H   0  0  0  0  0  0  0  0  0  0  0  0
   -1.8248   67.3433   68.9089 H   0  0  0  0  0  0  0  0  0  0  0  0
   -1.2315   65.6931   68.3994 H   0  0  0  0  0  0  0  0  0  0  0  0
    0.9728   67.5063   68.3088 H   0  0  0  0  0  0  0  0  0  0  0  0
    0.1329   67.6921   69.9022 H   0  0  0  0  0  0  0  0  0  0  0  0
    1.5109   65.2772   68.8687 H   0  0  0  0  0  0  0  0  0  0  0  0
    3.1800   64.7724   70.4322 H   0  0  0  0  0  0  0  0  0  0  0  0
    5.3038   63.3989   70.4572 H   0  0  0  0  0  0  0  0  0  0  0  0
    6.4675   61.2451   70.9439 H   0  0  0  0  0  0  0  0  0  0  0  0
    5.1892   59.3059   71.8553 H   0  0  0  0  0  0  0  0  0  0  0  0
    2.7352   59.5222   72.2885 H   0  0  0  0  0  0  0  0  0  0  0  0
   -1.5027   69.2477   66.3746 H   0  0  0  0  0  0  0  0  0  0  0  0
   -0.1911   69.0148   67.6001 H   0  0  0  0  0  0  0  0  0  0  0  0
   -0.0240   68.3889   64.6145 H   0  0  0  0  0  0  0  0  0  0  0  0
    0.7680   69.7626   65.4942 H   0  0  0  0  0  0  0  0  0  0  0  0
    1.5115   66.8800   66.1316 H   0  0  0  0  0  0  0  0  0  0  0  0
    3.5678   66.7369   63.2590 H   0  0  0  0  0  0  0  0  0  0  0  0
    1.9681   67.5678   63.4179 H   0  0  0  0  0  0  0  0  0  0  0  0
    3.2193   67.8238   61.1857 H   0  0  0  0  0  0  0  0  0  0  0  0
    2.6106   69.3352   62.0326 H   0  0  0  0  0  0  0  0  0  0  0  0
    5.2438   68.7361   61.0875 H   0  0  0  0  0  0  0  0  0  0  0  0
    4.5762   70.2273   61.9181 H   0  0  0  0  0  0  0  0  0  0  0  0
    5.9913   67.8506   63.1459 H   0  0  0  0  0  0  0  0  0  0  0  0
    6.4244   69.6041   63.2017 H   0  0  0  0  0  0  0  0  0  0  0  0
    1.7598   69.0864   68.2377 H   0  0  0  0  0  0  0  0  0  0  0  0
    2.8478   70.4138   70.0370 H   0  0  0  0  0  0  0  0  0  0  0  0
    5.1120   71.3867   69.6572 H   0  0  0  0  0  0  0  0  0  0  0  0
    6.2588   71.0343   67.4828 H   0  0  0  0  0  0  0  0  0  0  0  0
  2  1  1  0
  3  2  1  0
  5  4  2  0
  6  5  1  0
  6  3  1  0
  7  5  1  0
  8  7  2  0
  9  8  1  0
 10  9  2  0
 11 10  1  0
 12 11  2  0
 13 12  1  0
 14 13  2  0
 14  9  1  0
 15 14  1  0
 16 15  1  0
 16  7  1  0
 17 16  2  0
 18  1  1  0
 19 18  1  0
 20 19  1  0
 21 20  1  0
 22 21  1  0
 23 22  1  0
 24 23  1  0
 25 24  1  0
 26 25  1  0
 27 22  2  0
 27 26  1  0
 28 27  1  0
 29 28  2  0
 30 29  1  0
 30 21  2  0
 31 30  1  0
 32 31  2  0
 33 32  1  0
 34 33  2  0
 34 29  1  0
  1 35  1  0
  1 36  1  0
  2 37  1  0
  2 38  1  0
  3 39  1  0
  3 40  1  0
  6 41  1  0
  8 42  1  0
 10 43  1  0
 11 44  1  0
 12 45  1  0
 13 46  1  0
 18 47  1  0
 18 48  1  0
 19 49  1  0
 19 50  1  0
 20 51  1  0
 23 52  1  0
 23 53  1  0
 24 54  1  0
 24 55  1  0
 25 56  1  0
 25 57  1  0
 26 58  1  0
 26 59  1  0
 31 60  1  0
 32 61  1  0
 33 62  1  0
 34 63  1  0
M  END
>  <score>  (1) 
-12.768

$$$$
=
     RDKit          3D

 63 67  0  0  0  0  0  0  0  0999 V2000
    0.2410   66.3030   69.3200 C   0  0  0  0  0  0  0  0  0  0  0  0
   -1.0810   66.5790   68.5990 C   0  0  0  0  0  0  0  0  0  0  0  0
   -0.9020   67.2620   67.2440 C   0  0  0  0  0  0  0  0  0  0  0  0
    0.0440   69.8770   67.7050 O   0  0  0  0  0  0  0  0  0  0  0  0
    0.8400   69.0180   67.3320 C   0  0  0  0  0  0  0  0  0  0  0  0
    0.4580   67.7280   67.0640 N   0  0  0  0  0  0  0  0  0  0  0  0
    2.2940   69.3260   67.1490 C   0  0  0  0  0  0  0  0  0  0  0  0
    2.9440   69.8090   68.2220 C   0  0  0  0  0  0  0  0  0  0  0  0
    4.3560   70.1420   68.1530 C   0  0  0  0  0  0  0  0  0  0  0  0
    5.0570   70.6460   69.2500 C   0  0  0  0  0  0  0  0  0  0  0  0
    6.4170   70.9510   69.1310 C   0  0  0  0  0  0  0  0  0  0  0  0
    7.0790   70.7550   67.9160 C   0  0  0  0  0  0  0  0  0  0  0  0
    6.3840   70.2520   66.8180 C   0  0  0  0  0  0  0  0  0  0  0  0
    5.0310   69.9520   66.9540 C   0  0  0  0  0  0  0  0  0  0  0  0
    4.3600   69.4480   65.8260 O   0  0  0  0  0  0  0  0  0  0  0  0
    3.0090   69.1180   65.8690 C   0  0  0  0  0  0  0  0  0  0  0  0
    2.4440   68.6710   64.8730 O   0  0  0  0  0  0  0  0  0  0  0  0
    0.0530   65.8170   70.7580 C   0  0  0  0  0  0  0  0  0  0  0  0
    1.0740   64.7340   71.1170 C   0  0  0  0  0  0  0  0  0  0  0  0
    0.7650   63.4530   70.4580 N   0  0  0  0  0  0  0  0  0  0  0  0
    1.2710   62.3170   71.1530 C   0  0  0  0  0  0  0  0  0  0  0  0
    2.5870   61.9060   70.9010 C   0  0  0  0  0  0  0  0  0  0  0  0
    3.5420   62.6260   69.9860 C   0  0  0  0  0  0  0  0  0  0  0  0
    4.9420   62.7140   70.6030 C   0  0  0  0  0  0  0  0  0  0  0  0
    5.4350   61.4190   71.2650 C   0  0  0  0  0  0  0  0  0  0  0  0
    4.4360   60.2650   71.2070 C   0  0  0  0  0  0  0  0  0  0  0  0
    3.0430   60.7440   71.5210 C   0  0  0  0  0  0  0  0  0  0  0  0
    2.2970   60.0010   72.3640 N   0  0  0  0  0  0  0  0  0  0  0  0
    1.0510   60.4110   72.6370 C   0  0  0  0  0  0  0  0  0  0  0  0
    0.4720   61.5660   72.0630 C   0  0  0  0  0  0  0  0  0  0  0  0
   -0.8550   61.9050   72.4330 C   0  0  0  0  0  0  0  0  0  0  0  0
   -1.5850   61.1250   73.3300 C   0  0  0  0  0  0  0  0  0  0  0  0
   -1.0050   59.9920   73.8770 C   0  0  0  0  0  0  0  0  0  0  0  0
    0.3030   59.6490   73.5250 C   0  0  0  0  0  0  0  0  0  0  0  0
    0.7906   65.5324   68.7596 H   0  0  0  0  0  0  0  0  0  0  0  0
    0.7930   67.2533   69.3657 H   0  0  0  0  0  0  0  0  0  0  0  0
   -1.5986   65.6213   68.4411 H   0  0  0  0  0  0  0  0  0  0  0  0
   -1.6604   67.2649   69.2344 H   0  0  0  0  0  0  0  0  0  0  0  0
   -1.1431   66.5439   66.4463 H   0  0  0  0  0  0  0  0  0  0  0  0
   -1.5748   68.1312   67.2022 H   0  0  0  0  0  0  0  0  0  0  0  0
    1.1666   67.0639   66.7210 H   0  0  0  0  0  0  0  0  0  0  0  0
    2.3985   69.9541   69.1661 H   0  0  0  0  0  0  0  0  0  0  0  0
    4.5399   70.8033   70.2080 H   0  0  0  0  0  0  0  0  0  0  0  0
    6.9675   71.3467   69.9972 H   0  0  0  0  0  0  0  0  0  0  0  0
    8.1482   70.9977   67.8265 H   0  0  0  0  0  0  0  0  0  0  0  0
    6.8967   70.0942   65.8577 H   0  0  0  0  0  0  0  0  0  0  0  0
    0.1778   66.6684   71.4432 H   0  0  0  0  0  0  0  0  0  0  0  0
   -0.9556   65.3877   70.8504 H   0  0  0  0  0  0  0  0  0  0  0  0
    2.0731   65.0666   70.7988 H   0  0  0  0  0  0  0  0  0  0  0  0
    1.0385   64.5769   72.2051 H   0  0  0  0  0  0  0  0  0  0  0  0
    0.2336   63.3852   69.5783 H   0  0  0  0  0  0  0  0  0  0  0  0
    3.6040   62.0817   69.0321 H   0  0  0  0  0  0  0  0  0  0  0  0
    3.1673   63.6478   69.8263 H   0  0  0  0  0  0  0  0  0  0  0  0
    5.6511   62.9828   69.8062 H   0  0  0  0  0  0  0  0  0  0  0  0
    4.8821   63.4676   71.4020 H   0  0  0  0  0  0  0  0  0  0  0  0
    6.3578   61.1019   70.7572 H   0  0  0  0  0  0  0  0  0  0  0  0
    5.5907   61.6483   72.3295 H   0  0  0  0  0  0  0  0  0  0  0  0
    4.4478   59.8288   70.1973 H   0  0  0  0  0  0  0  0  0  0  0  0
    4.7255   59.5116   71.9543 H   0  0  0  0  0  0  0  0  0  0  0  0
   -1.3193   62.8044   72.0023 H   0  0  0  0  0  0  0  0  0  0  0  0
   -2.6131   61.4073   73.6009 H   0  0  0  0  0  0  0  0  0  0  0  0
   -1.5704   59.3667   74.5836 H   0  0  0  0  0  0  0  0  0  0  0  0
    0.7543   58.7474   73.9649 H   0  0  0  0  0  0  0  0  0  0  0  0
  2  1  1  0
  3  2  1  0
  5  4  2  0
  6  5  1  0
  6  3  1  0
  7  5  1  0
  8  7  2  0
  9  8  1  0
 10  9  2  0
 11 10  1  0
 12 11  2  0
 13 12  1  0
 14 13  2  0
 14  9  1  0
 15 14  1  0
 16 15  1  0
 16  7  1  0
 17 16  2  0
 18  1  1  0
 19 18  1  0
 20 19  1  0
 21 20  1  0
 22 21  1  0
 23 22  1  0
 24 23  1  0
 25 24  1  0
 26 25  1  0
 27 22  2  0
 27 26  1  0
 28 27  1  0
 29 28  2  0
 30 29  1  0
 30 21  2  0
 31 30  1  0
 32 31  2  0
 33 32  1  0
 34 33  2  0
 34 29  1  0
  1 35  1  0
  1 36  1  0
  2 37  1  0
  2 38  1  0
  3 39  1  0
  3 40  1  0
  6 41  1  0
  8 42  1  0
 10 43  1  0
 11 44  1  0
 12 45  1  0
 13 46  1  0
 18 47  1  0
 18 48  1  0
 19 49  1  0
 19 50  1  0
 20 51  1  0
 23 52  1  0
 23 53  1  0
 24 54  1  0
 24 55  1  0
 25 56  1  0
 25 57  1  0
 26 58  1  0
 26 59  1  0
 31 60  1  0
 32 61  1  0
 33 62  1  0
 34 63  1  0
M  END
>  <score>  (2) 
-12.76

$$$$
=
     RDKit          3D

 63 67  0  0  0  0  0  0  0  0999 V2000
   -0.1640   67.7350   68.1610 C   0  0  0  0  0  0  0  0  0  0  0  0
    0.8970   67.1440   69.0940 C   0  0  0  0  0  0  0  0  0  0  0  0
    0.3270   66.1630   70.1160 C   0  0  0  0  0  0  0  0  0  0  0  0
    0.7550   64.3860   72.2610 O   0  0  0  0  0  0  0  0  0  0  0  0
    1.1460   64.0650   71.1410 C   0  0  0  0  0  0  0  0  0  0  0  0
    0.9970   64.8810   70.0480 N   0  0  0  0  0  0  0  0  0  0  0  0
    1.8120   62.7460   70.8920 C   0  0  0  0  0  0  0  0  0  0  0  0
    1.5390   61.7630   71.7670 C   0  0  0  0  0  0  0  0  0  0  0  0
    2.1330   60.4450   71.6190 C   0  0  0  0  0  0  0  0  0  0  0  0
    1.8690   59.4050   72.5120 C   0  0  0  0  0  0  0  0  0  0  0  0
    2.4670   58.1550   72.3250 C   0  0  0  0  0  0  0  0  0  0  0  0
    3.3310   57.9410   71.2480 C   0  0  0  0  0  0  0  0  0  0  0  0
    3.5980   58.9760   70.3540 C   0  0  0  0  0  0  0  0  0  0  0  0
    2.9930   60.2140   70.5530 C   0  0  0  0  0  0  0  0  0  0  0  0
    3.2840   61.2360   69.6330 O   0  0  0  0  0  0  0  0  0  0  0  0
    2.7250   62.5050   69.7520 C   0  0  0  0  0  0  0  0  0  0  0  0
    2.9880   63.3810   68.9310 O   0  0  0  0  0  0  0  0  0  0  0  0
   -0.1570   67.1100   66.7650 C   0  0  0  0  0  0  0  0  0  0  0  0
    1.2060   67.2760   66.0890 C   0  0  0  0  0  0  0  0  0  0  0  0
    1.4620   68.6770   65.7130 N   0  0  0  0  0  0  0  0  0  0  0  0
    2.8450   69.0170   65.6850 C   0  0  0  0  0  0  0  0  0  0  0  0
    3.5790   68.7510   64.5210 C   0  0  0  0  0  0  0  0  0  0  0  0
    2.9910   68.1850   63.2550 C   0  0  0  0  0  0  0  0  0  0  0  0
    3.5390   68.9040   62.0180 C   0  0  0  0  0  0  0  0  0  0  0  0
    5.0530   69.1620   62.0440 C   0  0  0  0  0  0  0  0  0  0  0  0
    5.7530   68.6670   63.3070 C   0  0  0  0  0  0  0  0  0  0  0  0
    4.9490   69.0070   64.5350 C   0  0  0  0  0  0  0  0  0  0  0  0
    5.6070   69.5140   65.5980 N   0  0  0  0  0  0  0  0  0  0  0  0
    4.9020   69.8050   66.7000 C   0  0  0  0  0  0  0  0  0  0  0  0
    3.5110   69.5800   66.8120 C   0  0  0  0  0  0  0  0  0  0  0  0
    2.8710   69.9330   68.0270 C   0  0  0  0  0  0  0  0  0  0  0  0
    3.5820   70.4810   69.0950 C   0  0  0  0  0  0  0  0  0  0  0  0
    4.9470   70.6880   68.9710 C   0  0  0  0  0  0  0  0  0  0  0  0
    5.5890   70.3480   67.7780 C   0  0  0  0  0  0  0  0  0  0  0  0
   -1.1544   67.5728   68.6113 H   0  0  0  0  0  0  0  0  0  0  0  0
    0.0664   68.8039   68.0409 H   0  0  0  0  0  0  0  0  0  0  0  0
    1.6438   66.6161   68.4828 H   0  0  0  0  0  0  0  0  0  0  0  0
    1.3368   67.9805   69.6569 H   0  0  0  0  0  0  0  0  0  0  0  0
    0.4566   66.5816   71.1249 H   0  0  0  0  0  0  0  0  0  0  0  0
   -0.7388   66.0092   69.8914 H   0  0  0  0  0  0  0  0  0  0  0  0
    1.3769   64.5692   69.1428 H   0  0  0  0  0  0  0  0  0  0  0  0
    0.8563   61.9589   72.6070 H   0  0  0  0  0  0  0  0  0  0  0  0
    1.1908   59.5688   73.3624 H   0  0  0  0  0  0  0  0  0  0  0  0
    2.2563   57.3364   73.0289 H   0  0  0  0  0  0  0  0  0  0  0  0
    3.8001   56.9562   71.1059 H   0  0  0  0  0  0  0  0  0  0  0  0
    4.2770   58.8172   69.5033 H   0  0  0  0  0  0  0  0  0  0  0  0
   -0.3861   66.0376   66.8512 H   0  0  0  0  0  0  0  0  0  0  0  0
   -0.9136   67.6211   66.1516 H   0  0  0  0  0  0  0  0  0  0  0  0
    1.9913   66.9446   66.7844 H   0  0  0  0  0  0  0  0  0  0  0  0
    1.2093   66.6692   65.1715 H   0  0  0  0  0  0  0  0  0  0  0  0
    0.7120   69.3473   65.4913 H   0  0  0  0  0  0  0  0  0  0  0  0
    3.2427   67.1162   63.1893 H   0  0  0  0  0  0  0  0  0  0  0  0
    1.9005   68.3263   63.2847 H   0  0  0  0  0  0  0  0  0  0  0  0
    3.3113   68.2887   61.1351 H   0  0  0  0  0  0  0  0  0  0  0  0
    3.0558   69.8919   61.9932 H   0  0  0  0  0  0  0  0  0  0  0  0
    5.5039   68.6542   61.1787 H   0  0  0  0  0  0  0  0  0  0  0  0
    5.1871   70.2535   62.0168 H   0  0  0  0  0  0  0  0  0  0  0  0
    5.8749   67.5754   63.2470 H   0  0  0  0  0  0  0  0  0  0  0  0
    6.7339   69.1593   63.3814 H   0  0  0  0  0  0  0  0  0  0  0  0
    1.7879   69.7709   68.1300 H   0  0  0  0  0  0  0  0  0  0  0  0
    3.0635   70.7467   70.0280 H   0  0  0  0  0  0  0  0  0  0  0  0
    5.5204   71.1169   69.8060 H   0  0  0  0  0  0  0  0  0  0  0  0
    6.6726   70.5155   67.6895 H   0  0  0  0  0  0  0  0  0  0  0  0
  2  1  1  0
  3  2  1  0
  5  4  2  0
  6  5  1  0
  6  3  1  0
  7  5  1  0
  8  7  2  0
  9  8  1  0
 10  9  2  0
 11 10  1  0
 12 11  2  0
 13 12  1  0
 14 13  2  0
 14  9  1  0
 15 14  1  0
 16 15  1  0
 16  7  1  0
 17 16  2  0
 18  1  1  0
 19 18  1  0
 20 19  1  0
 21 20  1  0
 22 21  1  0
 23 22  1  0
 24 23  1  0
 25 24  1  0
 26 25  1  0
 27 22  2  0
 27 26  1  0
 28 27  1  0
 29 28  2  0
 30 29  1  0
 30 21  2  0
 31 30  1  0
 32 31  2  0
 33 32  1  0
 34 33  2  0
 34 29  1  0
  1 35  1  0
  1 36  1  0
  2 37  1  0
  2 38  1  0
  3 39  1  0
  3 40  1  0
  6 41  1  0
  8 42  1  0
 10 43  1  0
 11 44  1  0
 12 45  1  0
 13 46  1  0
 18 47  1  0
 18 48  1  0
 19 49  1  0
 19 50  1  0
 20 51  1  0
 23 52  1  0
 23 53  1  0
 24 54  1  0
 24 55  1  0
 25 56  1  0
 25 57  1  0
 26 58  1  0
 26 59  1  0
 31 60  1  0
 32 61  1  0
 33 62  1  0
 34 63  1  0
M  END
>  <score>  (3) 
-12.692

$$$$
=
     RDKit          3D

 63 67  0  0  0  0  0  0  0  0999 V2000
    0.4450   67.4180   67.5510 C   0  0  0  0  0  0  0  0  0  0  0  0
    0.0030   66.7930   68.8770 C   0  0  0  0  0  0  0  0  0  0  0  0
    1.1280   66.6890   69.9040 C   0  0  0  0  0  0  0  0  0  0  0  0
    0.2290   64.5340   71.4810 O   0  0  0  0  0  0  0  0  0  0  0  0
    1.1770   64.3540   70.7210 C   0  0  0  0  0  0  0  0  0  0  0  0
    1.6910   65.3550   69.9370 N   0  0  0  0  0  0  0  0  0  0  0  0
    1.8390   63.0150   70.5970 C   0  0  0  0  0  0  0  0  0  0  0  0
    1.5400   62.1110   71.5460 C   0  0  0  0  0  0  0  0  0  0  0  0
    2.1270   60.7820   71.5210 C   0  0  0  0  0  0  0  0  0  0  0  0
    1.8370   59.8210   72.4920 C   0  0  0  0  0  0  0  0  0  0  0  0
    2.4300   58.5570   72.4230 C   0  0  0  0  0  0  0  0  0  0  0  0
    3.3140   58.2490   71.3860 C   0  0  0  0  0  0  0  0  0  0  0  0
    3.6070   59.2040   70.4150 C   0  0  0  0  0  0  0  0  0  0  0  0
    3.0080   60.4580   70.4970 C   0  0  0  0  0  0  0  0  0  0  0  0
    3.3260   61.3970   69.5010 O   0  0  0  0  0  0  0  0  0  0  0  0
    2.7730   62.6740   69.5020 C   0  0  0  0  0  0  0  0  0  0  0  0
    3.0600   63.4780   68.6160 O   0  0  0  0  0  0  0  0  0  0  0  0
    0.0590   68.8920   67.4190 C   0  0  0  0  0  0  0  0  0  0  0  0
    1.2540   69.8070   67.6940 C   0  0  0  0  0  0  0  0  0  0  0  0
    2.4720   69.0370   68.0000 N   0  0  0  0  0  0  0  0  0  0  0  0
    3.6180   69.4700   67.2750 C   0  0  0  0  0  0  0  0  0  0  0  0
    4.5920   70.2260   67.9440 C   0  0  0  0  0  0  0  0  0  0  0  0
    4.5480   70.5620   69.4100 C   0  0  0  0  0  0  0  0  0  0  0  0
    5.9250   70.3970   70.0610 C   0  0  0  0  0  0  0  0  0  0  0  0
    7.0940   70.9600   69.2390 C   0  0  0  0  0  0  0  0  0  0  0  0
    6.6830   71.5790   67.9050 C   0  0  0  0  0  0  0  0  0  0  0  0
    5.6660   70.7170   67.2040 C   0  0  0  0  0  0  0  0  0  0  0  0
    5.8340   70.4920   65.8840 N   0  0  0  0  0  0  0  0  0  0  0  0
    4.9250   69.7390   65.2490 C   0  0  0  0  0  0  0  0  0  0  0  0
    3.7870   69.1940   65.8870 C   0  0  0  0  0  0  0  0  0  0  0  0
    2.8980   68.4070   65.1120 C   0  0  0  0  0  0  0  0  0  0  0  0
    3.1210   68.1750   63.7550 C   0  0  0  0  0  0  0  0  0  0  0  0
    4.2370   68.7230   63.1440 C   0  0  0  0  0  0  0  0  0  0  0  0
    5.1230   69.4970   63.8960 C   0  0  0  0  0  0  0  0  0  0  0  0
    1.5391   67.3352   67.4735 H   0  0  0  0  0  0  0  0  0  0  0  0
   -0.0698   66.8729   66.7461 H   0  0  0  0  0  0  0  0  0  0  0  0
   -0.8014   67.4109   69.3026 H   0  0  0  0  0  0  0  0  0  0  0  0
   -0.3313   65.7683   68.6572 H   0  0  0  0  0  0  0  0  0  0  0  0
    1.9201   67.4055   69.6410 H   0  0  0  0  0  0  0  0  0  0  0  0
    0.7123   66.9143   70.8972 H   0  0  0  0  0  0  0  0  0  0  0  0
    2.5106   65.1498   69.3478 H   0  0  0  0  0  0  0  0  0  0  0  0
    0.8418   62.3809   72.3520 H   0  0  0  0  0  0  0  0  0  0  0  0
    1.1421   60.0587   73.3109 H   0  0  0  0  0  0  0  0  0  0  0  0
    2.1996   57.8015   73.1886 H   0  0  0  0  0  0  0  0  0  0  0  0
    3.7784   57.2531   71.3362 H   0  0  0  0  0  0  0  0  0  0  0  0
    4.3020   58.9705   69.5949 H   0  0  0  0  0  0  0  0  0  0  0  0
   -0.3060   69.0766   66.3979 H   0  0  0  0  0  0  0  0  0  0  0  0
   -0.7246   69.1130   68.1587 H   0  0  0  0  0  0  0  0  0  0  0  0
    1.4391   70.4282   66.8052 H   0  0  0  0  0  0  0  0  0  0  0  0
    1.0141   70.4302   68.5681 H   0  0  0  0  0  0  0  0  0  0  0  0
    2.4925   68.2590   68.6747 H   0  0  0  0  0  0  0  0  0  0  0  0
    4.2182   71.6047   69.5288 H   0  0  0  0  0  0  0  0  0  0  0  0
    3.8463   69.8730   69.9030 H   0  0  0  0  0  0  0  0  0  0  0  0
    5.9090   70.9130   71.0323 H   0  0  0  0  0  0  0  0  0  0  0  0
    6.0997   69.3146   70.1494 H   0  0  0  0  0  0  0  0  0  0  0  0
    7.5952   71.7344   69.8383 H   0  0  0  0  0  0  0  0  0  0  0  0
    7.7514   70.1102   69.0029 H   0  0  0  0  0  0  0  0  0  0  0  0
    6.2483   72.5728   68.0877 H   0  0  0  0  0  0  0  0  0  0  0  0
    7.5745   71.6615   67.2660 H   0  0  0  0  0  0  0  0  0  0  0  0
    2.0109   67.9688   65.5927 H   0  0  0  0  0  0  0  0  0  0  0  0
    2.4162   67.5617   63.1744 H   0  0  0  0  0  0  0  0  0  0  0  0
    4.4238   68.5496   62.0739 H   0  0  0  0  0  0  0  0  0  0  0  0
    6.0055   69.9286   63.4012 H   0  0  0  0  0  0  0  0  0  0  0  0
  2  1  1  0
  3  2  1  0
  5  4  2  0
  6  5  1  0
  6  3  1  0
  7  5  1  0
  8  7  2  0
  9  8  1  0
 10  9  2  0
 11 10  1  0
 12 11  2  0
 13 12  1  0
 14 13  2  0
 14  9  1  0
 15 14  1  0
 16 15  1  0
 16  7  1  0
 17 16  2  0
 18  1  1  0
 19 18  1  0
 20 19  1  0
 21 20  1  0
 22 21  1  0
 23 22  1  0
 24 23  1  0
 25 24  1  0
 26 25  1  0
 27 22  2  0
 27 26  1  0
 28 27  1  0
 29 28  2  0
 30 29  1  0
 30 21  2  0
 31 30  1  0
 32 31  2  0
 33 32  1  0
 34 33  2  0
 34 29  1  0
  1 35  1  0
  1 36  1  0
  2 37  1  0
  2 38  1  0
  3 39  1  0
  3 40  1  0
  6 41  1  0
  8 42  1  0
 10 43  1  0
 11 44  1  0
 12 45  1  0
 13 46  1  0
 18 47  1  0
 18 48  1  0
 19 49  1  0
 19 50  1  0
 20 51  1  0
 23 52  1  0
 23 53  1  0
 24 54  1  0
 24 55  1  0
 25 56  1  0
 25 57  1  0
 26 58  1  0
 26 59  1  0
 31 60  1  0
 32 61  1  0
 33 62  1  0
 34 63  1  0
M  END
>  <score>  (4) 
-12.548

$$$$
=
     RDKit          3D

 63 67  0  0  0  0  0  0  0  0999 V2000
    0.2050   66.3950   69.5250 C   0  0  0  0  0  0  0  0  0  0  0  0
   -1.1080   66.4530   68.7380 C   0  0  0  0  0  0  0  0  0  0  0  0
   -0.9390   66.9870   67.3170 C   0  0  0  0  0  0  0  0  0  0  0  0
   -0.1020   69.6560   67.6530 O   0  0  0  0  0  0  0  0  0  0  0  0
    0.7260   68.8170   67.3090 C   0  0  0  0  0  0  0  0  0  0  0  0
    0.3970   67.5010   67.1010 N   0  0  0  0  0  0  0  0  0  0  0  0
    2.1650   69.1770   67.0960 C   0  0  0  0  0  0  0  0  0  0  0  0
    2.8120   69.7030   68.1500 C   0  0  0  0  0  0  0  0  0  0  0  0
    4.2090   70.0890   68.0520 C   0  0  0  0  0  0  0  0  0  0  0  0
    4.9080   70.6380   69.1280 C   0  0  0  0  0  0  0  0  0  0  0  0
    6.2530   70.9930   68.9800 C   0  0  0  0  0  0  0  0  0  0  0  0
    6.9020   70.8030   67.7580 C   0  0  0  0  0  0  0  0  0  0  0  0
    6.2090   70.2560   66.6800 C   0  0  0  0  0  0  0  0  0  0  0  0
    4.8710   69.9060   66.8440 C   0  0  0  0  0  0  0  0  0  0  0  0
    4.2020   69.3570   65.7360 O   0  0  0  0  0  0  0  0  0  0  0  0
    2.8660   68.9760   65.8080 C   0  0  0  0  0  0  0  0  0  0  0  0
    2.3030   68.4910   64.8290 O   0  0  0  0  0  0  0  0  0  0  0  0
    0.0130   65.9940   70.9890 C   0  0  0  0  0  0  0  0  0  0  0  0
    0.8320   64.7500   71.3370 C   0  0  0  0  0  0  0  0  0  0  0  0
    0.0630   63.5120   71.1260 N   0  0  0  0  0  0  0  0  0  0  0  0
    0.7960   62.3270   71.4210 C   0  0  0  0  0  0  0  0  0  0  0  0
    0.3670   61.5180   72.4820 C   0  0  0  0  0  0  0  0  0  0  0  0
   -0.8670   61.7770   73.3040 C   0  0  0  0  0  0  0  0  0  0  0  0
   -1.6480   60.4840   73.5590 C   0  0  0  0  0  0  0  0  0  0  0  0
   -0.7810   59.2760   73.9430 C   0  0  0  0  0  0  0  0  0  0  0  0
    0.7170   59.5700   73.9940 C   0  0  0  0  0  0  0  0  0  0  0  0
    1.1400   60.4080   72.8170 C   0  0  0  0  0  0  0  0  0  0  0  0
    2.2690   60.0550   72.1660 N   0  0  0  0  0  0  0  0  0  0  0  0
    2.6620   60.8050   71.1270 C   0  0  0  0  0  0  0  0  0  0  0  0
    1.9680   61.9600   70.6990 C   0  0  0  0  0  0  0  0  0  0  0  0
    2.4760   62.6700   69.5810 C   0  0  0  0  0  0  0  0  0  0  0  0
    3.6320   62.2580   68.9180 C   0  0  0  0  0  0  0  0  0  0  0  0
    4.3030   61.1280   69.3550 C   0  0  0  0  0  0  0  0  0  0  0  0
    3.8110   60.4170   70.4520 C   0  0  0  0  0  0  0  0  0  0  0  0
    0.8680   65.6600   69.0452 H   0  0  0  0  0  0  0  0  0  0  0  0
    0.6358   67.4071   69.5171 H   0  0  0  0  0  0  0  0  0  0  0  0
   -1.5261   65.4371   68.6815 H   0  0  0  0  0  0  0  0  0  0  0  0
   -1.7752   67.1476   69.2693 H   0  0  0  0  0  0  0  0  0  0  0  0
   -1.1284   66.1716   66.6034 H   0  0  0  0  0  0  0  0  0  0  0  0
   -1.6543   67.8094   67.1690 H   0  0  0  0  0  0  0  0  0  0  0  0
    1.1299   66.8532   66.7783 H   0  0  0  0  0  0  0  0  0  0  0  0
    2.2761   69.8432   69.1003 H   0  0  0  0  0  0  0  0  0  0  0  0
    4.4014   70.7915   70.0923 H   0  0  0  0  0  0  0  0  0  0  0  0
    6.8021   71.4239   69.8302 H   0  0  0  0  0  0  0  0  0  0  0  0
    7.9594   71.0850   67.6466 H   0  0  0  0  0  0  0  0  0  0  0  0
    6.7114   70.1028   65.7135 H   0  0  0  0  0  0  0  0  0  0  0  0
    0.3338   66.8259   71.6333 H   0  0  0  0  0  0  0  0  0  0  0  0
   -1.0509   65.7651   71.1494 H   0  0  0  0  0  0  0  0  0  0  0  0
    1.7289   64.7248   70.7007 H   0  0  0  0  0  0  0  0  0  0  0  0
    1.1037   64.8064   72.4014 H   0  0  0  0  0  0  0  0  0  0  0  0
   -0.9128   63.5038   70.7962 H   0  0  0  0  0  0  0  0  0  0  0  0
   -0.5695   62.2121   74.2695 H   0  0  0  0  0  0  0  0  0  0  0  0
   -1.5153   62.4700   72.7478 H   0  0  0  0  0  0  0  0  0  0  0  0
   -2.3595   60.6691   74.3773 H   0  0  0  0  0  0  0  0  0  0  0  0
   -2.1388   60.2249   72.6092 H   0  0  0  0  0  0  0  0  0  0  0  0
   -1.0977   58.9263   74.9367 H   0  0  0  0  0  0  0  0  0  0  0  0
   -0.9277   58.5199   73.1577 H   0  0  0  0  0  0  0  0  0  0  0  0
    0.9462   60.1123   74.9232 H   0  0  0  0  0  0  0  0  0  0  0  0
    1.2638   58.6161   73.9611 H   0  0  0  0  0  0  0  0  0  0  0  0
    1.9457   63.5669   69.2284 H   0  0  0  0  0  0  0  0  0  0  0  0
    4.0079   62.8264   68.0545 H   0  0  0  0  0  0  0  0  0  0  0  0
    5.2166   60.7929   68.8420 H   0  0  0  0  0  0  0  0  0  0  0  0
    4.3513   59.5211   70.7917 H   0  0  0  0  0  0  0  0  0  0  0  0
  2  1  1  0
  3  2  1  0
  5  4  2  0
  6  5  1  0
  6  3  1  0
  7  5  1  0
  8  7  2  0
  9  8  1  0
 10  9  2  0
 11 10  1  0
 12 11  2  0
 13 12  1  0
 14 13  2  0
 14  9  1  0
 15 14  1  0
 16 15  1  0
 16  7  1  0
 17 16  2  0
 18  1  1  0
 19 18  1  0
 20 19  1  0
 21 20  1  0
 22 21  1  0
 23 22  1  0
 24 23  1  0
 25 24  1  0
 26 25  1  0
 27 22  2  0
 27 26  1  0
 28 27  1  0
 29 28  2  0
 30 29  1  0
 30 21  2  0
 31 30  1  0
 32 31  2  0
 33 32  1  0
 34 33  2  0
 34 29  1  0
  1 35  1  0
  1 36  1  0
  2 37  1  0
  2 38  1  0
  3 39  1  0
  3 40  1  0
  6 41  1  0
  8 42  1  0
 10 43  1  0
 11 44  1  0
 12 45  1  0
 13 46  1  0
 18 47  1  0
 18 48  1  0
 19 49  1  0
 19 50  1  0
 20 51  1  0
 23 52  1  0
 23 53  1  0
 24 54  1  0
 24 55  1  0
 25 56  1  0
 25 57  1  0
 26 58  1  0
 26 59  1  0
 31 60  1  0
 32 61  1  0
 33 62  1  0
 34 63  1  0
M  END
>  <score>  (5) 
-12.155

$$$$
=
     RDKit          3D

 63 67  0  0  0  0  0  0  0  0999 V2000
    1.1350   66.6460   69.8850 C   0  0  0  0  0  0  0  0  0  0  0  0
   -0.3530   66.4480   69.5810 C   0  0  0  0  0  0  0  0  0  0  0  0
   -0.7390   66.8420   68.1570 C   0  0  0  0  0  0  0  0  0  0  0  0
   -0.6750   68.8350   66.1660 O   0  0  0  0  0  0  0  0  0  0  0  0
    0.3680   68.2520   66.4510 C   0  0  0  0  0  0  0  0  0  0  0  0
    0.4190   67.2540   67.3910 N   0  0  0  0  0  0  0  0  0  0  0  0
    1.6650   68.5990   65.7870 C   0  0  0  0  0  0  0  0  0  0  0  0
    1.7330   68.3900   64.4610 C   0  0  0  0  0  0  0  0  0  0  0  0
    2.9450   68.6920   63.7190 C   0  0  0  0  0  0  0  0  0  0  0  0
    3.0460   68.4850   62.3410 C   0  0  0  0  0  0  0  0  0  0  0  0
    4.2370   68.7910   61.6750 C   0  0  0  0  0  0  0  0  0  0  0  0
    5.3290   69.3010   62.3810 C   0  0  0  0  0  0  0  0  0  0  0  0
    5.2340   69.5090   63.7550 C   0  0  0  0  0  0  0  0  0  0  0  0
    4.0410   69.2010   64.4040 C   0  0  0  0  0  0  0  0  0  0  0  0
    3.9790   69.4220   65.7910 O   0  0  0  0  0  0  0  0  0  0  0  0
    2.8280   69.1450   66.5220 C   0  0  0  0  0  0  0  0  0  0  0  0
    2.7940   69.3530   67.7330 O   0  0  0  0  0  0  0  0  0  0  0  0
    1.8390   65.3580   70.3170 C   0  0  0  0  0  0  0  0  0  0  0  0
    0.8790   64.4190   71.0510 C   0  0  0  0  0  0  0  0  0  0  0  0
    0.7960   63.1020   70.3960 N   0  0  0  0  0  0  0  0  0  0  0  0
    1.3060   62.0360   71.1910 C   0  0  0  0  0  0  0  0  0  0  0  0
    2.6290   61.6180   70.9870 C   0  0  0  0  0  0  0  0  0  0  0  0
    3.5850   62.2660   70.0210 C   0  0  0  0  0  0  0  0  0  0  0  0
    4.9790   62.4210   70.6390 C   0  0  0  0  0  0  0  0  0  0  0  0
    5.4770   61.1940   71.4160 C   0  0  0  0  0  0  0  0  0  0  0  0
    4.4900   60.0290   71.4490 C   0  0  0  0  0  0  0  0  0  0  0  0
    3.0900   60.5190   71.7090 C   0  0  0  0  0  0  0  0  0  0  0  0
    2.3430   59.8440   72.6070 N   0  0  0  0  0  0  0  0  0  0  0  0
    1.0900   60.2630   72.8330 C   0  0  0  0  0  0  0  0  0  0  0  0
    0.5060   61.3580   72.1560 C   0  0  0  0  0  0  0  0  0  0  0  0
   -0.8270   61.7150   72.4840 C   0  0  0  0  0  0  0  0  0  0  0  0
   -1.5580   61.0080   73.4400 C   0  0  0  0  0  0  0  0  0  0  0  0
   -0.9720   59.9330   74.0880 C   0  0  0  0  0  0  0  0  0  0  0  0
    0.3420   59.5740   73.7780 C   0  0  0  0  0  0  0  0  0  0  0  0
    1.6290   67.0275   68.9792 H   0  0  0  0  0  0  0  0  0  0  0  0
    1.2057   67.3541   70.7238 H   0  0  0  0  0  0  0  0  0  0  0  0
   -0.6007   65.3864   69.7283 H   0  0  0  0  0  0  0  0  0  0  0  0
   -0.9137   67.1044   70.2627 H   0  0  0  0  0  0  0  0  0  0  0  0
   -1.2076   65.9790   67.6613 H   0  0  0  0  0  0  0  0  0  0  0  0
   -1.4389   67.6890   68.2095 H   0  0  0  0  0  0  0  0  0  0  0  0
    1.3172   66.7785   67.5587 H   0  0  0  0  0  0  0  0  0  0  0  0
    0.8589   67.9847   63.9303 H   0  0  0  0  0  0  0  0  0  0  0  0
    2.1897   68.0818   61.7805 H   0  0  0  0  0  0  0  0  0  0  0  0
    4.3142   68.6292   60.5897 H   0  0  0  0  0  0  0  0  0  0  0  0
    6.2638   69.5383   61.8520 H   0  0  0  0  0  0  0  0  0  0  0  0
    6.0887   69.9106   64.3191 H   0  0  0  0  0  0  0  0  0  0  0  0
    2.2288   64.8461   69.4248 H   0  0  0  0  0  0  0  0  0  0  0  0
    2.6576   65.6228   71.0024 H   0  0  0  0  0  0  0  0  0  0  0  0
    1.2342   64.2819   72.0830 H   0  0  0  0  0  0  0  0  0  0  0  0
   -0.1228   64.8730   71.0354 H   0  0  0  0  0  0  0  0  0  0  0  0
    0.4061   62.9651   69.4525 H   0  0  0  0  0  0  0  0  0  0  0  0
    3.6603   61.6422   69.1181 H   0  0  0  0  0  0  0  0  0  0  0  0
    3.2021   63.2664   69.7710 H   0  0  0  0  0  0  0  0  0  0  0  0
    5.6927   62.6253   69.8273 H   0  0  0  0  0  0  0  0  0  0  0  0
    4.9059   63.2414   71.3681 H   0  0  0  0  0  0  0  0  0  0  0  0
    6.4082   60.8436   70.9469 H   0  0  0  0  0  0  0  0  0  0  0  0
    5.6189   61.5168   72.4580 H   0  0  0  0  0  0  0  0  0  0  0  0
    4.5153   59.5078   70.4806 H   0  0  0  0  0  0  0  0  0  0  0  0
    4.7798   59.3453   72.2605 H   0  0  0  0  0  0  0  0  0  0  0  0
   -1.2956   62.5690   71.9730 H   0  0  0  0  0  0  0  0  0  0  0  0
   -2.5911   61.3021   73.6770 H   0  0  0  0  0  0  0  0  0  0  0  0
   -1.5377   59.3657   74.8418 H   0  0  0  0  0  0  0  0  0  0  0  0
    0.7980   58.7191   74.2987 H   0  0  0  0  0  0  0  0  0  0  0  0
  2  1  1  0
  3  2  1  0
  5  4  2  0
  6  5  1  0
  6  3  1  0
  7  5  1  0
  8  7  2  0
  9  8  1  0
 10  9  2  0
 11 10  1  0
 12 11  2  0
 13 12  1  0
 14 13  2  0
 14  9  1  0
 15 14  1  0
 16 15  1  0
 16  7  1  0
 17 16  2  0
 18  1  1  0
 19 18  1  0
 20 19  1  0
 21 20  1  0
 22 21  1  0
 23 22  1  0
 24 23  1  0
 25 24  1  0
 26 25  1  0
 27 22  2  0
 27 26  1  0
 28 27  1  0
 29 28  2  0
 30 29  1  0
 30 21  2  0
 31 30  1  0
 32 31  2  0
 33 32  1  0
 34 33  2  0
 34 29  1  0
  1 35  1  0
  1 36  1  0
  2 37  1  0
  2 38  1  0
  3 39  1  0
  3 40  1  0
  6 41  1  0
  8 42  1  0
 10 43  1  0
 11 44  1  0
 12 45  1  0
 13 46  1  0
 18 47  1  0
 18 48  1  0
 19 49  1  0
 19 50  1  0
 20 51  1  0
 23 52  1  0
 23 53  1  0
 24 54  1  0
 24 55  1  0
 25 56  1  0
 25 57  1  0
 26 58  1  0
 26 59  1  0
 31 60  1  0
 32 61  1  0
 33 62  1  0
 34 63  1  0
M  END
>  <score>  (6) 
-12.08

$$$$
=
     RDKit          3D

 63 67  0  0  0  0  0  0  0  0999 V2000
    0.6850   65.9900   70.2390 C   0  0  0  0  0  0  0  0  0  0  0  0
    1.6150   64.9580   70.8840 C   0  0  0  0  0  0  0  0  0  0  0  0
    2.2330   63.9880   69.8790 C   0  0  0  0  0  0  0  0  0  0  0  0
    4.0360   62.5770   71.5210 O   0  0  0  0  0  0  0  0  0  0  0  0
    3.0160   62.0080   71.1400 C   0  0  0  0  0  0  0  0  0  0  0  0
    2.0990   62.6150   70.3200 N   0  0  0  0  0  0  0  0  0  0  0  0
    2.7020   60.6020   71.5520 C   0  0  0  0  0  0  0  0  0  0  0  0
    1.6670   60.4430   72.3950 C   0  0  0  0  0  0  0  0  0  0  0  0
    1.2780   59.1220   72.8580 C   0  0  0  0  0  0  0  0  0  0  0  0
    0.2090   58.9250   73.7340 C   0  0  0  0  0  0  0  0  0  0  0  0
   -0.1240   57.6320   74.1510 C   0  0  0  0  0  0  0  0  0  0  0  0
    0.6100   56.5340   73.6960 C   0  0  0  0  0  0  0  0  0  0  0  0
    1.6790   56.7260   72.8220 C   0  0  0  0  0  0  0  0  0  0  0  0
    1.9970   58.0180   72.4160 C   0  0  0  0  0  0  0  0  0  0  0  0
    3.0800   58.1750   71.5340 O   0  0  0  0  0  0  0  0  0  0  0  0
    3.4690   59.4300   71.0740 C   0  0  0  0  0  0  0  0  0  0  0  0
    4.4150   59.5430   70.2970 O   0  0  0  0  0  0  0  0  0  0  0  0
    1.4350   67.1050   69.5080 C   0  0  0  0  0  0  0  0  0  0  0  0
    0.6890   67.5430   68.2470 C   0  0  0  0  0  0  0  0  0  0  0  0
    0.9440   68.9580   67.9250 N   0  0  0  0  0  0  0  0  0  0  0  0
    2.1100   69.1620   67.1320 C   0  0  0  0  0  0  0  0  0  0  0  0
    2.0840   68.7720   65.7850 C   0  0  0  0  0  0  0  0  0  0  0  0
    0.8760   68.2050   65.0880 C   0  0  0  0  0  0  0  0  0  0  0  0
    0.7090   68.8080   63.6890 C   0  0  0  0  0  0  0  0  0  0  0  0
    2.0080   68.9210   62.8790 C   0  0  0  0  0  0  0  0  0  0  0  0
    3.2510   68.4220   63.6130 C   0  0  0  0  0  0  0  0  0  0  0  0
    3.2560   68.8960   65.0420 C   0  0  0  0  0  0  0  0  0  0  0  0
    4.4110   69.3880   65.5380 N   0  0  0  0  0  0  0  0  0  0  0  0
    4.4290   69.7980   66.8140 C   0  0  0  0  0  0  0  0  0  0  0  0
    3.3080   69.7130   67.6720 C   0  0  0  0  0  0  0  0  0  0  0  0
    3.4450   70.1840   69.0020 C   0  0  0  0  0  0  0  0  0  0  0  0
    4.6490   70.7120   69.4690 C   0  0  0  0  0  0  0  0  0  0  0  0
    5.7400   70.7810   68.6180 C   0  0  0  0  0  0  0  0  0  0  0  0
    5.6170   70.3240   67.3030 C   0  0  0  0  0  0  0  0  0  0  0  0
    0.0369   65.4728   69.5162 H   0  0  0  0  0  0  0  0  0  0  0  0
    0.1084   66.4609   71.0488 H   0  0  0  0  0  0  0  0  0  0  0  0
    2.4275   65.4932   71.3973 H   0  0  0  0  0  0  0  0  0  0  0  0
    1.0063   64.3616   71.5795 H   0  0  0  0  0  0  0  0  0  0  0  0
    1.7249   64.1041   68.9103 H   0  0  0  0  0  0  0  0  0  0  0  0
    3.3044   64.2196   69.7875 H   0  0  0  0  0  0  0  0  0  0  0  0
    1.2821   62.0724   70.0052 H   0  0  0  0  0  0  0  0  0  0  0  0
    1.1070   61.3251   72.7389 H   0  0  0  0  0  0  0  0  0  0  0  0
   -0.3713   59.7864   74.0962 H   0  0  0  0  0  0  0  0  0  0  0  0
   -0.9676   57.4791   74.8402 H   0  0  0  0  0  0  0  0  0  0  0  0
    0.3448   55.5190   74.0270 H   0  0  0  0  0  0  0  0  0  0  0  0
    2.2630   55.8677   72.4584 H   0  0  0  0  0  0  0  0  0  0  0  0
    1.5381   67.9686   70.1814 H   0  0  0  0  0  0  0  0  0  0  0  0
    2.4227   66.7223   69.2115 H   0  0  0  0  0  0  0  0  0  0  0  0
    1.0202   66.9203   67.4028 H   0  0  0  0  0  0  0  0  0  0  0  0
   -0.3893   67.4221   68.4279 H   0  0  0  0  0  0  0  0  0  0  0  0
    0.3369   69.7269   68.2430 H   0  0  0  0  0  0  0  0  0  0  0  0
    0.9929   67.1150   64.9972 H   0  0  0  0  0  0  0  0  0  0  0  0
   -0.0164   68.4514   65.6821 H   0  0  0  0  0  0  0  0  0  0  0  0
    0.0076   68.1756   63.1250 H   0  0  0  0  0  0  0  0  0  0  0  0
    0.3443   69.8354   63.8355 H   0  0  0  0  0  0  0  0  0  0  0  0
    1.8920   68.3315   61.9576 H   0  0  0  0  0  0  0  0  0  0  0  0
    2.1657   69.9920   62.6838 H   0  0  0  0  0  0  0  0  0  0  0  0
    3.2611   67.3221   63.5981 H   0  0  0  0  0  0  0  0  0  0  0  0
    4.1425   68.8207   63.1068 H   0  0  0  0  0  0  0  0  0  0  0  0
    2.5818   70.1320   69.6818 H   0  0  0  0  0  0  0  0  0  0  0  0
    4.7314   71.0709   70.5055 H   0  0  0  0  0  0  0  0  0  0  0  0
    6.6958   71.1924   68.9746 H   0  0  0  0  0  0  0  0  0  0  0  0
    6.4887   70.3829   66.6347 H   0  0  0  0  0  0  0  0  0  0  0  0
  2  1  1  0
  3  2  1  0
  5  4  2  0
  6  5  1  0
  6  3  1  0
  7  5  1  0
  8  7  2  0
  9  8  1  0
 10  9  2  0
 11 10  1  0
 12 11  2  0
 13 12  1  0
 14 13  2  0
 14  9  1  0
 15 14  1  0
 16 15  1  0
 16  7  1  0
 17 16  2  0
 18  1  1  0
 19 18  1  0
 20 19  1  0
 21 20  1  0
 22 21  1  0
 23 22  1  0
 24 23  1  0
 25 24  1  0
 26 25  1  0
 27 22  2  0
 27 26  1  0
 28 27  1  0
 29 28  2  0
 30 29  1  0
 30 21  2  0
 31 30  1  0
 32 31  2  0
 33 32  1  0
 34 33  2  0
 34 29  1  0
  1 35  1  0
  1 36  1  0
  2 37  1  0
  2 38  1  0
  3 39  1  0
  3 40  1  0
  6 41  1  0
  8 42  1  0
 10 43  1  0
 11 44  1  0
 12 45  1  0
 13 46  1  0
 18 47  1  0
 18 48  1  0
 19 49  1  0
 19 50  1  0
 20 51  1  0
 23 52  1  0
 23 53  1  0
 24 54  1  0
 24 55  1  0
 25 56  1  0
 25 57  1  0
 26 58  1  0
 26 59  1  0
 31 60  1  0
 32 61  1  0
 33 62  1  0
 34 63  1  0
M  END
>  <score>  (7) 
-11.965

$$$$
=
     RDKit          3D

 63 67  0  0  0  0  0  0  0  0999 V2000
    0.9380   65.4780   70.2840 C   0  0  0  0  0  0  0  0  0  0  0  0
    0.8890   66.8530   69.6110 C   0  0  0  0  0  0  0  0  0  0  0  0
   -0.1710   66.9540   68.5160 C   0  0  0  0  0  0  0  0  0  0  0  0
    0.8410   69.4320   67.6340 O   0  0  0  0  0  0  0  0  0  0  0  0
    0.9160   68.4630   66.8830 C   0  0  0  0  0  0  0  0  0  0  0  0
    0.4270   67.2280   67.2260 N   0  0  0  0  0  0  0  0  0  0  0  0
    1.5560   68.5670   65.5320 C   0  0  0  0  0  0  0  0  0  0  0  0
    2.8860   68.7580   65.5140 C   0  0  0  0  0  0  0  0  0  0  0  0
    3.6070   68.8730   64.2580 C   0  0  0  0  0  0  0  0  0  0  0  0
    4.9880   69.0730   64.2060 C   0  0  0  0  0  0  0  0  0  0  0  0
    5.6330   69.1780   62.9700 C   0  0  0  0  0  0  0  0  0  0  0  0
    4.9020   69.0860   61.7840 C   0  0  0  0  0  0  0  0  0  0  0  0
    3.5230   68.8880   61.8290 C   0  0  0  0  0  0  0  0  0  0  0  0
    2.8960   68.7840   63.0670 C   0  0  0  0  0  0  0  0  0  0  0  0
    1.5050   68.5840   63.0770 O   0  0  0  0  0  0  0  0  0  0  0  0
    0.7940   68.4660   64.2680 C   0  0  0  0  0  0  0  0  0  0  0  0
   -0.4220   68.2840   64.2520 O   0  0  0  0  0  0  0  0  0  0  0  0
    0.1040   65.4030   71.5640 C   0  0  0  0  0  0  0  0  0  0  0  0
    0.3740   64.1050   72.3290 C   0  0  0  0  0  0  0  0  0  0  0  0
   -0.0670   62.9220   71.5700 N   0  0  0  0  0  0  0  0  0  0  0  0
    0.7580   61.7780   71.7650 C   0  0  0  0  0  0  0  0  0  0  0  0
    0.4330   60.8810   72.7920 C   0  0  0  0  0  0  0  0  0  0  0  0
   -0.7810   61.0040   73.6750 C   0  0  0  0  0  0  0  0  0  0  0  0
   -1.4570   59.6450   73.8810 C   0  0  0  0  0  0  0  0  0  0  0  0
   -0.4930   58.4830   74.1590 C   0  0  0  0  0  0  0  0  0  0  0  0
    0.9820   58.8810   74.1700 C   0  0  0  0  0  0  0  0  0  0  0  0
    1.2950   59.8130   73.0300 C   0  0  0  0  0  0  0  0  0  0  0  0
    2.4170   59.5800   72.3160 N   0  0  0  0  0  0  0  0  0  0  0  0
    2.7120   60.4140   71.3100 C   0  0  0  0  0  0  0  0  0  0  0  0
    1.9220   61.5390   70.9780 C   0  0  0  0  0  0  0  0  0  0  0  0
    2.3310   62.3460   69.8860 C   0  0  0  0  0  0  0  0  0  0  0  0
    3.4840   62.0560   69.1550 C   0  0  0  0  0  0  0  0  0  0  0  0
    4.2500   60.9540   69.4990 C   0  0  0  0  0  0  0  0  0  0  0  0
    3.8560   60.1480   70.5690 C   0  0  0  0  0  0  0  0  0  0  0  0
    0.5579   64.7280   69.5748 H   0  0  0  0  0  0  0  0  0  0  0  0
    1.9847   65.2887   70.5645 H   0  0  0  0  0  0  0  0  0  0  0  0
    0.6705   67.6097   70.3789 H   0  0  0  0  0  0  0  0  0  0  0  0
    1.8664   67.0162   69.1334 H   0  0  0  0  0  0  0  0  0  0  0  0
   -0.7206   66.0027   68.4610 H   0  0  0  0  0  0  0  0  0  0  0  0
   -0.8496   67.7828   68.7662 H   0  0  0  0  0  0  0  0  0  0  0  0
    0.4877   66.4642   66.5376 H   0  0  0  0  0  0  0  0  0  0  0  0
    3.4366   68.8283   66.4637 H   0  0  0  0  0  0  0  0  0  0  0  0
    5.5684   69.1479   65.1374 H   0  0  0  0  0  0  0  0  0  0  0  0
    6.7212   69.3338   62.9318 H   0  0  0  0  0  0  0  0  0  0  0  0
    5.4143   69.1698   60.8142 H   0  0  0  0  0  0  0  0  0  0  0  0
    2.9390   68.8150   60.8997 H   0  0  0  0  0  0  0  0  0  0  0  0
    0.3583   66.2578   72.2079 H   0  0  0  0  0  0  0  0  0  0  0  0
   -0.9602   65.4274   71.2867 H   0  0  0  0  0  0  0  0  0  0  0  0
    1.4540   64.0228   72.5211 H   0  0  0  0  0  0  0  0  0  0  0  0
   -0.1932   64.1384   73.2709 H   0  0  0  0  0  0  0  0  0  0  0  0
   -0.8941   62.9224   70.9562 H   0  0  0  0  0  0  0  0  0  0  0  0
   -0.4743   61.4039   74.6528 H   0  0  0  0  0  0  0  0  0  0  0  0
   -1.4991   61.6795   73.1872 H   0  0  0  0  0  0  0  0  0  0  0  0
   -2.1451   59.7308   74.7349 H   0  0  0  0  0  0  0  0  0  0  0  0
   -1.9666   59.4058   72.9360 H   0  0  0  0  0  0  0  0  0  0  0  0
   -0.7422   58.0557   75.1415 H   0  0  0  0  0  0  0  0  0  0  0  0
   -0.6199   57.7637   73.3365 H   0  0  0  0  0  0  0  0  0  0  0  0
    1.2122   59.3845   75.1205 H   0  0  0  0  0  0  0  0  0  0  0  0
    1.5922   57.9725   74.0591 H   0  0  0  0  0  0  0  0  0  0  0  0
    1.7252   63.2212   69.6085 H   0  0  0  0  0  0  0  0  0  0  0  0
    3.7822   62.6973   68.3125 H   0  0  0  0  0  0  0  0  0  0  0  0
    5.1625   60.7156   68.9329 H   0  0  0  0  0  0  0  0  0  0  0  0
    4.4710   59.2751   70.8332 H   0  0  0  0  0  0  0  0  0  0  0  0
  2  1  1  0
  3  2  1  0
  5  4  2  0
  6  5  1  0
  6  3  1  0
  7  5  1  0
  8  7  2  0
  9  8  1  0
 10  9  2  0
 11 10  1  0
 12 11  2  0
 13 12  1  0
 14 13  2  0
 14  9  1  0
 15 14  1  0
 16 15  1  0
 16  7  1  0
 17 16  2  0
 18  1  1  0
 19 18  1  0
 20 19  1  0
 21 20  1  0
 22 21  1  0
 23 22  1  0
 24 23  1  0
 25 24  1  0
 26 25  1  0
 27 22  2  0
 27 26  1  0
 28 27  1  0
 29 28  2  0
 30 29  1  0
 30 21  2  0
 31 30  1  0
 32 31  2  0
 33 32  1  0
 34 33  2  0
 34 29  1  0
  1 35  1  0
  1 36  1  0
  2 37  1  0
  2 38  1  0
  3 39  1  0
  3 40  1  0
  6 41  1  0
  8 42  1  0
 10 43  1  0
 11 44  1  0
 12 45  1  0
 13 46  1  0
 18 47  1  0
 18 48  1  0
 19 49  1  0
 19 50  1  0
 20 51  1  0
 23 52  1  0
 23 53  1  0
 24 54  1  0
 24 55  1  0
 25 56  1  0
 25 57  1  0
 26 58  1  0
 26 59  1  0
 31 60  1  0
 32 61  1  0
 33 62  1  0
 34 63  1  0
M  END
>  <score>  (8) 
-11.384

$$$$
=
     RDKit          3D

 63 67  0  0  0  0  0  0  0  0999 V2000
    1.5410   65.7530   69.9120 C   0  0  0  0  0  0  0  0  0  0  0  0
    0.2200   65.1040   70.3370 C   0  0  0  0  0  0  0  0  0  0  0  0
    0.1090   64.8880   71.8450 C   0  0  0  0  0  0  0  0  0  0  0  0
    1.5910   63.3290   73.6650 O   0  0  0  0  0  0  0  0  0  0  0  0
    0.6420   62.8120   73.0810 C   0  0  0  0  0  0  0  0  0  0  0  0
   -0.1160   63.4940   72.1630 N   0  0  0  0  0  0  0  0  0  0  0  0
    0.2440   61.3910   73.3380 C   0  0  0  0  0  0  0  0  0  0  0  0
    1.1580   60.4500   73.0410 C   0  0  0  0  0  0  0  0  0  0  0  0
    0.8740   59.0410   73.2510 C   0  0  0  0  0  0  0  0  0  0  0  0
    1.8020   58.0420   72.9510 C   0  0  0  0  0  0  0  0  0  0  0  0
    1.4790   56.6990   73.1710 C   0  0  0  0  0  0  0  0  0  0  0  0
    0.2290   56.3510   73.6890 C   0  0  0  0  0  0  0  0  0  0  0  0
   -0.7010   57.3440   73.9890 C   0  0  0  0  0  0  0  0  0  0  0  0
   -0.3640   58.6760   73.7660 C   0  0  0  0  0  0  0  0  0  0  0  0
   -1.3250   59.6520   74.0790 O   0  0  0  0  0  0  0  0  0  0  0  0
   -1.0750   61.0080   73.8910 C   0  0  0  0  0  0  0  0  0  0  0  0
   -1.9270   61.8460   74.1790 O   0  0  0  0  0  0  0  0  0  0  0  0
    1.4100   67.2470   69.6120 C   0  0  0  0  0  0  0  0  0  0  0  0
    0.9050   67.4860   68.1870 C   0  0  0  0  0  0  0  0  0  0  0  0
    1.0730   68.8910   67.7770 N   0  0  0  0  0  0  0  0  0  0  0  0
    2.2620   69.1280   67.0280 C   0  0  0  0  0  0  0  0  0  0  0  0
    2.2980   68.7390   65.6820 C   0  0  0  0  0  0  0  0  0  0  0  0
    1.1330   68.1410   64.9380 C   0  0  0  0  0  0  0  0  0  0  0  0
    1.0020   68.7420   63.5350 C   0  0  0  0  0  0  0  0  0  0  0  0
    2.3270   68.8920   62.7740 C   0  0  0  0  0  0  0  0  0  0  0  0
    3.5540   68.4260   63.5550 C   0  0  0  0  0  0  0  0  0  0  0  0
    3.4940   68.8970   64.9830 C   0  0  0  0  0  0  0  0  0  0  0  0
    4.6150   69.4190   65.5230 N   0  0  0  0  0  0  0  0  0  0  0  0
    4.5740   69.8270   66.7990 C   0  0  0  0  0  0  0  0  0  0  0  0
    3.4240   69.7100   67.6130 C   0  0  0  0  0  0  0  0  0  0  0  0
    3.4980   70.1820   68.9490 C   0  0  0  0  0  0  0  0  0  0  0  0
    4.6690   70.7420   69.4610 C   0  0  0  0  0  0  0  0  0  0  0  0
    5.7880   70.8420   68.6510 C   0  0  0  0  0  0  0  0  0  0  0  0
    5.7280   70.3840   67.3330 C   0  0  0  0  0  0  0  0  0  0  0  0
    2.2717   65.6223   70.7238 H   0  0  0  0  0  0  0  0  0  0  0  0
    1.8628   65.2603   68.9827 H   0  0  0  0  0  0  0  0  0  0  0  0
   -0.6073   65.7540   70.0158 H   0  0  0  0  0  0  0  0  0  0  0  0
    0.1773   64.1125   69.8625 H   0  0  0  0  0  0  0  0  0  0  0  0
    1.0427   65.2182   72.3237 H   0  0  0  0  0  0  0  0  0  0  0  0
   -0.7469   65.4706   72.2164 H   0  0  0  0  0  0  0  0  0  0  0  0
   -0.8761   62.9936   71.6805 H   0  0  0  0  0  0  0  0  0  0  0  0
    2.1342   60.7516   72.6334 H   0  0  0  0  0  0  0  0  0  0  0  0
    2.7869   58.3110   72.5417 H   0  0  0  0  0  0  0  0  0  0  0  0
    2.2122   55.9136   72.9352 H   0  0  0  0  0  0  0  0  0  0  0  0
   -0.0208   55.2935   73.8599 H   0  0  0  0  0  0  0  0  0  0  0  0
   -1.6878   57.0791   74.3964 H   0  0  0  0  0  0  0  0  0  0  0  0
    0.7003   67.6944   70.3234 H   0  0  0  0  0  0  0  0  0  0  0  0
    2.4033   67.7092   69.7104 H   0  0  0  0  0  0  0  0  0  0  0  0
    1.4702   66.8432   67.4961 H   0  0  0  0  0  0  0  0  0  0  0  0
   -0.1684   67.2471   68.1594 H   0  0  0  0  0  0  0  0  0  0  0  0
    0.3957   69.6314   68.0095 H   0  0  0  0  0  0  0  0  0  0  0  0
    1.2832   67.0549   64.8501 H   0  0  0  0  0  0  0  0  0  0  0  0
    0.2125   68.3621   65.4981 H   0  0  0  0  0  0  0  0  0  0  0  0
    0.3396   68.0920   62.9445 H   0  0  0  0  0  0  0  0  0  0  0  0
    0.6043   69.7588   63.6689 H   0  0  0  0  0  0  0  0  0  0  0  0
    2.2621   68.3008   61.8486 H   0  0  0  0  0  0  0  0  0  0  0  0
    2.4626   69.9670   62.5845 H   0  0  0  0  0  0  0  0  0  0  0  0
    3.5941   67.3268   63.5400 H   0  0  0  0  0  0  0  0  0  0  0  0
    4.4524   68.8504   63.0830 H   0  0  0  0  0  0  0  0  0  0  0  0
    2.6118   70.1047   69.5960 H   0  0  0  0  0  0  0  0  0  0  0  0
    4.7032   71.1013   70.5001 H   0  0  0  0  0  0  0  0  0  0  0  0
    6.7180   71.2793   69.0432 H   0  0  0  0  0  0  0  0  0  0  0  0
    6.6227   70.4672   66.6985 H   0  0  0  0  0  0  0  0  0  0  0  0
  2  1  1  0
  3  2  1  0
  5  4  2  0
  6  5  1  0
  6  3  1  0
  7  5  1  0
  8  7  2  0
  9  8  1  0
 10  9  2  0
 11 10  1  0
 12 11  2  0
 13 12  1  0
 14 13  2  0
 14  9  1  0
 15 14  1  0
 16 15  1  0
 16  7  1  0
 17 16  2  0
 18  1  1  0
 19 18  1  0
 20 19  1  0
 21 20  1  0
 22 21  1  0
 23 22  1  0
 24 23  1  0
 25 24  1  0
 26 25  1  0
 27 22  2  0
 27 26  1  0
 28 27  1  0
 29 28  2  0
 30 29  1  0
 30 21  2  0
 31 30  1  0
 32 31  2  0
 33 32  1  0
 34 33  2  0
 34 29  1  0
  1 35  1  0
  1 36  1  0
  2 37  1  0
  2 38  1  0
  3 39  1  0
  3 40  1  0
  6 41  1  0
  8 42  1  0
 10 43  1  0
 11 44  1  0
 12 45  1  0
 13 46  1  0
 18 47  1  0
 18 48  1  0
 19 49  1  0
 19 50  1  0
 20 51  1  0
 23 52  1  0
 23 53  1  0
 24 54  1  0
 24 55  1  0
 25 56  1  0
 25 57  1  0
 26 58  1  0
 26 59  1  0
 31 60  1  0
 32 61  1  0
 33 62  1  0
 34 63  1  0
M  END
>  <score>  (9) 
-11.248

$$$$
