=
     RDKit          3D

 35 39  0  0  0  0  0  0  0  0999 V2000
    3.2310   68.9670   64.6650 C   0  0  0  0  0  0  0  0  0  0  0  0
    1.9510   68.5670   64.2470 C   0  0  0  0  0  0  0  0  0  0  0  0
    0.9140   68.5820   65.1610 C   0  0  0  0  0  0  0  0  0  0  0  0
   -0.3670   68.2090   64.8550 O   0  0  0  0  0  0  0  0  0  0  0  0
   -1.1070   68.3510   66.0930 C   0  0  2  0  0  0  0  0  0  0  0  0
   -0.1810   68.8960   67.2090 C   0  0  2  0  0  0  0  0  0  0  0  0
    1.0970   68.9780   66.4690 C   0  0  0  0  0  0  0  0  0  0  0  0
    2.3500   69.3810   66.8900 C   0  0  0  0  0  0  0  0  0  0  0  0
    3.4440   69.3840   66.0060 C   0  0  0  0  0  0  0  0  0  0  0  0
    4.7260   69.8260   66.5670 C   0  0  0  0  0  0  0  0  0  0  0  0
    6.0230   69.9100   65.8280 C   0  0  0  0  0  0  0  0  0  0  0  0
    7.0290   70.4160   66.8560 C   0  0  0  0  0  0  0  0  0  0  0  0
    6.1960   70.5760   68.0930 C   0  0  0  0  0  0  0  0  0  0  0  0
    6.6390   70.9730   69.1590 O   0  0  0  0  0  0  0  0  0  0  0  0
    4.8000   70.1980   67.8500 C   0  0  0  0  0  0  0  0  0  0  0  0
    3.6820   70.2090   68.7840 C   0  0  0  0  0  0  0  0  0  0  0  0
    3.7630   70.5540   69.9540 O   0  0  0  0  0  0  0  0  0  0  0  0
    2.4720   69.7880   68.2350 O   0  0  0  0  0  0  0  0  0  0  0  0
   -0.2720   67.8210   68.2220 C   0  0  0  0  0  0  0  0  0  0  0  0
   -1.0940   66.8770   67.7760 C   0  0  0  0  0  0  0  0  0  0  0  0
   -1.6420   67.0750   66.5280 O   0  0  0  0  0  0  0  0  0  0  0  0
    4.1080   68.7120   62.4490 C   0  0  0  0  0  0  0  0  0  0  0  0
    4.3200   68.9840   63.8290 O   0  0  0  0  0  0  0  0  0  0  0  0
    1.7766   68.2470   63.2091 H   0  0  0  0  0  0  0  0  0  0  0  0
   -1.9345   69.0515   65.9071 H   0  0  0  0  0  0  0  0  0  0  0  0
   -0.3731   69.8553   67.7119 H   0  0  0  0  0  0  0  0  0  0  0  0
    6.3190   68.9195   65.4521 H   0  0  0  0  0  0  0  0  0  0  0  0
    5.9580   70.5720   64.9519 H   0  0  0  0  0  0  0  0  0  0  0  0
    7.8349   69.6841   67.0140 H   0  0  0  0  0  0  0  0  0  0  0  0
    7.5323   71.3448   66.5492 H   0  0  0  0  0  0  0  0  0  0  0  0
    0.2552   67.8059   69.1873 H   0  0  0  0  0  0  0  0  0  0  0  0
   -1.3251   65.9827   68.3733 H   0  0  0  0  0  0  0  0  0  0  0  0
    3.4348   67.8483   62.3447 H   0  0  0  0  0  0  0  0  0  0  0  0
    3.6542   69.5908   61.9676 H   0  0  0  0  0  0  0  0  0  0  0  0
    5.0710   68.4865   61.9676 H   0  0  0  0  0  0  0  0  0  0  0  0
  2  1  2  0
  3  2  1  0
  4  3  1  0
  5  4  1  0
  6  5  1  0
  7  3  2  0
  7  6  1  0
  8  7  1  0
  9  1  1  0
  9  8  2  0
 10  9  1  0
 11 10  1  0
 12 11  1  0
 13 12  1  0
 14 13  2  0
 15 10  2  0
 15 13  1  0
 16 15  1  0
 17 16  2  0
 18 16  1  0
 18  8  1  0
 19  6  1  0
 20 19  2  0
 21 20  1  0
 21  5  1  0
 23 22  1  0
 23  1  1  0
  2 24  1  0
  5 25  1  6
  6 26  1  1
 11 27  1  0
 11 28  1  0
 12 29  1  0
 12 30  1  0
 19 31  1  0
 20 32  1  0
 22 33  1  0
 22 34  1  0
 22 35  1  0
M  END
>  <score>  (1) 
-11.818

$$$$
=
     RDKit          3D

 35 39  0  0  0  0  0  0  0  0999 V2000
    2.8540   69.2270   66.8370 C   0  0  0  0  0  0  0  0  0  0  0  0
    4.1740   69.3170   66.3660 C   0  0  0  0  0  0  0  0  0  0  0  0
    4.4070   69.2310   65.0060 C   0  0  0  0  0  0  0  0  0  0  0  0
    5.6540   69.3050   64.4490 O   0  0  0  0  0  0  0  0  0  0  0  0
    5.4410   69.1440   63.0240 C   0  0  2  0  0  0  0  0  0  0  0  0
    3.9280   69.0060   62.7240 C   0  0  2  0  0  0  0  0  0  0  0  0
    3.3830   69.0600   64.0980 C   0  0  0  0  0  0  0  0  0  0  0  0
    2.0800   68.9770   64.5490 C   0  0  0  0  0  0  0  0  0  0  0  0
    1.7820   69.0560   65.9210 C   0  0  0  0  0  0  0  0  0  0  0  0
    0.3630   68.9490   66.2810 C   0  0  0  0  0  0  0  0  0  0  0  0
   -0.1950   69.0000   67.6670 C   0  0  0  0  0  0  0  0  0  0  0  0
   -1.7010   68.8410   67.4890 C   0  0  0  0  0  0  0  0  0  0  0  0
   -1.8560   68.7190   66.0020 C   0  0  0  0  0  0  0  0  0  0  0  0
   -2.9320   68.5780   65.4440 O   0  0  0  0  0  0  0  0  0  0  0  0
   -0.5580   68.7910   65.3230 C   0  0  0  0  0  0  0  0  0  0  0  0
   -0.2760   68.7120   63.8950 C   0  0  0  0  0  0  0  0  0  0  0  0
   -1.1280   68.5690   63.0300 O   0  0  0  0  0  0  0  0  0  0  0  0
    1.0750   68.8160   63.5710 O   0  0  0  0  0  0  0  0  0  0  0  0
    3.8750   67.6850   62.0600 C   0  0  0  0  0  0  0  0  0  0  0  0
    5.1060   67.1910   61.9850 C   0  0  0  0  0  0  0  0  0  0  0  0
    6.1130   67.9580   62.5280 O   0  0  0  0  0  0  0  0  0  0  0  0
    3.2170   70.2490   68.9740 C   0  0  0  0  0  0  0  0  0  0  0  0
    2.5260   69.3010   68.1680 O   0  0  0  0  0  0  0  0  0  0  0  0
    5.0095   69.4538   67.0683 H   0  0  0  0  0  0  0  0  0  0  0  0
    5.8512   70.0337   62.5239 H   0  0  0  0  0  0  0  0  0  0  0  0
    3.3899   69.7269   62.0909 H   0  0  0  0  0  0  0  0  0  0  0  0
    0.2112   68.1806   68.2783 H   0  0  0  0  0  0  0  0  0  0  0  0
    0.0646   69.9355   68.1840 H   0  0  0  0  0  0  0  0  0  0  0  0
   -2.0659   67.9376   67.9996 H   0  0  0  0  0  0  0  0  0  0  0  0
   -2.2777   69.6741   67.9173 H   0  0  0  0  0  0  0  0  0  0  0  0
    2.9644   67.1920   61.6888 H   0  0  0  0  0  0  0  0  0  0  0  0
    5.3107   66.2187   61.5131 H   0  0  0  0  0  0  0  0  0  0  0  0
    3.0491   70.0186   70.0364 H   0  0  0  0  0  0  0  0  0  0  0  0
    4.2938   70.2015   68.7542 H   0  0  0  0  0  0  0  0  0  0  0  0
    2.8422   71.2596   68.7542 H   0  0  0  0  0  0  0  0  0  0  0  0
  2  1  2  0
  3  2  1  0
  4  3  1  0
  5  4  1  0
  6  5  1  0
  7  3  2  0
  7  6  1  0
  8  7  1  0
  9  1  1  0
  9  8  2  0
 10  9  1  0
 11 10  1  0
 12 11  1  0
 13 12  1  0
 14 13  2  0
 15 10  2  0
 15 13  1  0
 16 15  1  0
 17 16  2  0
 18 16  1  0
 18  8  1  0
 19  6  1  0
 20 19  2  0
 21 20  1  0
 21  5  1  0
 23 22  1  0
 23  1  1  0
  2 24  1  0
  5 25  1  6
  6 26  1  6
 11 27  1  0
 11 28  1  0
 12 29  1  0
 12 30  1  0
 19 31  1  0
 20 32  1  0
 22 33  1  0
 22 34  1  0
 22 35  1  0
M  END
>  <score>  (2) 
-10.176

$$$$
=
     RDKit          3D

 35 39  0  0  0  0  0  0  0  0999 V2000
    1.8040   69.0020   66.1510 C   0  0  0  0  0  0  0  0  0  0  0  0
    1.4190   68.4570   64.9150 C   0  0  0  0  0  0  0  0  0  0  0  0
    2.3860   68.2300   63.9530 C   0  0  0  0  0  0  0  0  0  0  0  0
    2.1130   67.7070   62.7190 O   0  0  0  0  0  0  0  0  0  0  0  0
    3.3910   67.6660   62.0350 C   0  0  2  0  0  0  0  0  0  0  0  0
    4.5140   68.1720   62.9740 C   0  0  2  0  0  0  0  0  0  0  0  0
    3.7160   68.5210   64.1710 C   0  0  0  0  0  0  0  0  0  0  0  0
    4.1080   69.0490   65.3850 C   0  0  0  0  0  0  0  0  0  0  0  0
    3.1690   69.3050   66.4000 C   0  0  0  0  0  0  0  0  0  0  0  0
    3.7020   69.8730   67.6450 C   0  0  0  0  0  0  0  0  0  0  0  0
    2.9030   70.2310   68.8560 C   0  0  0  0  0  0  0  0  0  0  0  0
    3.9210   70.7760   69.8510 C   0  0  0  0  0  0  0  0  0  0  0  0
    5.2160   70.6710   69.1010 C   0  0  0  0  0  0  0  0  0  0  0  0
    6.2940   71.0100   69.5630 O   0  0  0  0  0  0  0  0  0  0  0  0
    5.0130   70.1130   67.7610 C   0  0  0  0  0  0  0  0  0  0  0  0
    6.0070   69.8530   66.7270 C   0  0  0  0  0  0  0  0  0  0  0  0
    7.2020   70.0760   66.8460 O   0  0  0  0  0  0  0  0  0  0  0  0
    5.4840   69.3130   65.5520 O   0  0  0  0  0  0  0  0  0  0  0  0
    5.0540   69.3140   62.2030 C   0  0  0  0  0  0  0  0  0  0  0  0
    4.3860   69.4160   61.0600 C   0  0  0  0  0  0  0  0  0  0  0  0
    3.3760   68.5030   60.8510 O   0  0  0  0  0  0  0  0  0  0  0  0
   -0.3170   68.5500   67.1720 C   0  0  0  0  0  0  0  0  0  0  0  0
    0.9160   69.2620   67.1640 O   0  0  0  0  0  0  0  0  0  0  0  0
    0.3648   68.2146   64.7154 H   0  0  0  0  0  0  0  0  0  0  0  0
    3.5775   66.6222   61.7423 H   0  0  0  0  0  0  0  0  0  0  0  0
    5.3580   67.5331   63.2731 H   0  0  0  0  0  0  0  0  0  0  0  0
    2.1523   70.9970   68.6117 H   0  0  0  0  0  0  0  0  0  0  0  0
    2.3519   69.3682   69.2583 H   0  0  0  0  0  0  0  0  0  0  0  0
    3.6987   71.8213   70.1115 H   0  0  0  0  0  0  0  0  0  0  0  0
    3.9280   70.2307   70.8063 H   0  0  0  0  0  0  0  0  0  0  0  0
    5.8752   69.9714   62.5245 H   0  0  0  0  0  0  0  0  0  0  0  0
    4.6271   70.1907   60.3173 H   0  0  0  0  0  0  0  0  0  0  0  0
   -0.6295   68.3696   68.2111 H   0  0  0  0  0  0  0  0  0  0  0  0
   -1.0862   69.1430   66.6555 H   0  0  0  0  0  0  0  0  0  0  0  0
   -0.1879   67.5874   66.6555 H   0  0  0  0  0  0  0  0  0  0  0  0
  2  1  2  0
  3  2  1  0
  4  3  1  0
  5  4  1  0
  6  5  1  0
  7  3  2  0
  7  6  1  0
  8  7  1  0
  9  1  1  0
  9  8  2  0
 10  9  1  0
 11 10  1  0
 12 11  1  0
 13 12  1  0
 14 13  2  0
 15 10  2  0
 15 13  1  0
 16 15  1  0
 17 16  2  0
 18 16  1  0
 18  8  1  0
 19  6  1  0
 20 19  2  0
 21 20  1  0
 21  5  1  0
 23 22  1  0
 23  1  1  0
  2 24  1  0
  5 25  1  6
  6 26  1  1
 11 27  1  0
 11 28  1  0
 12 29  1  0
 12 30  1  0
 19 31  1  0
 20 32  1  0
 22 33  1  0
 22 34  1  0
 22 35  1  0
M  END
>  <score>  (3) 
-9.977

$$$$
=
     RDKit          3D

 35 39  0  0  0  0  0  0  0  0999 V2000
    4.1470   69.1110   63.9130 C   0  0  0  0  0  0  0  0  0  0  0  0
    5.4320   69.3510   64.4280 C   0  0  0  0  0  0  0  0  0  0  0  0
    5.5760   69.5980   65.7810 C   0  0  0  0  0  0  0  0  0  0  0  0
    6.7820   69.8440   66.3780 O   0  0  0  0  0  0  0  0  0  0  0  0
    6.4700   70.0720   67.7760 C   0  0  2  0  0  0  0  0  0  0  0  0
    4.9510   69.9000   68.0190 C   0  0  2  0  0  0  0  0  0  0  0  0
    4.4970   69.6160   66.6390 C   0  0  0  0  0  0  0  0  0  0  0  0
    3.2290   69.3740   66.1460 C   0  0  0  0  0  0  0  0  0  0  0  0
    3.0210   69.1190   64.7790 C   0  0  0  0  0  0  0  0  0  0  0  0
    1.6310   68.8830   64.3700 C   0  0  0  0  0  0  0  0  0  0  0  0
    1.1640   68.5980   62.9790 C   0  0  0  0  0  0  0  0  0  0  0  0
   -0.3470   68.4380   63.0980 C   0  0  0  0  0  0  0  0  0  0  0  0
   -0.5960   68.6460   64.5630 C   0  0  0  0  0  0  0  0  0  0  0  0
   -1.7020   68.5940   65.0750 O   0  0  0  0  0  0  0  0  0  0  0  0
    0.6530   68.9150   65.2830 C   0  0  0  0  0  0  0  0  0  0  0  0
    0.8430   69.1710   66.7050 C   0  0  0  0  0  0  0  0  0  0  0  0
   -0.0600   69.1950   67.5290 O   0  0  0  0  0  0  0  0  0  0  0  0
    2.1680   69.3920   67.0760 O   0  0  0  0  0  0  0  0  0  0  0  0
    4.5830   71.2290   68.5570 C   0  0  0  0  0  0  0  0  0  0  0  0
    5.6740   71.9840   68.6220 C   0  0  0  0  0  0  0  0  0  0  0  0
    6.8470   71.4130   68.1810 O   0  0  0  0  0  0  0  0  0  0  0  0
    4.4690   67.6790   62.0180 C   0  0  0  0  0  0  0  0  0  0  0  0
    3.9080   68.8580   62.5860 O   0  0  0  0  0  0  0  0  0  0  0  0
    6.3099   69.3426   63.7652 H   0  0  0  0  0  0  0  0  0  0  0  0
    7.0369   69.3374   68.3668 H   0  0  0  0  0  0  0  0  0  0  0  0
    4.5515   69.1338   68.6996 H   0  0  0  0  0  0  0  0  0  0  0  0
    1.4131   69.4335   62.3083 H   0  0  0  0  0  0  0  0  0  0  0  0
    1.6433   67.7026   62.5564 H   0  0  0  0  0  0  0  0  0  0  0  0
   -0.8729   69.1942   62.4966 H   0  0  0  0  0  0  0  0  0  0  0  0
   -0.7095   67.4664   62.7311 H   0  0  0  0  0  0  0  0  0  0  0  0
    3.5709   71.5407   68.8545 H   0  0  0  0  0  0  0  0  0  0  0  0
    5.6421   73.0133   69.0086 H   0  0  0  0  0  0  0  0  0  0  0  0
    4.7912   67.0018   62.8227 H   0  0  0  0  0  0  0  0  0  0  0  0
    3.7136   67.1763   61.3962 H   0  0  0  0  0  0  0  0  0  0  0  0
    5.3356   67.9481   61.3962 H   0  0  0  0  0  0  0  0  0  0  0  0
  2  1  2  0
  3  2  1  0
  4  3  1  0
  5  4  1  0
  6  5  1  0
  7  3  2  0
  7  6  1  0
  8  7  1  0
  9  1  1  0
  9  8  2  0
 10  9  1  0
 11 10  1  0
 12 11  1  0
 13 12  1  0
 14 13  2  0
 15 10  2  0
 15 13  1  0
 16 15  1  0
 17 16  2  0
 18 16  1  0
 18  8  1  0
 19  6  1  0
 20 19  2  0
 21 20  1  0
 21  5  1  0
 23 22  1  0
 23  1  1  0
  2 24  1  0
  5 25  1  1
  6 26  1  1
 11 27  1  0
 11 28  1  0
 12 29  1  0
 12 30  1  0
 19 31  1  0
 20 32  1  0
 22 33  1  0
 22 34  1  0
 22 35  1  0
M  END
>  <score>  (4) 
-9.722

$$$$
=
     RDKit          3D

 35 39  0  0  0  0  0  0  0  0999 V2000
    2.0830   67.9110   64.7070 C   0  0  0  0  0  0  0  0  0  0  0  0
    0.8720   67.2770   65.0320 C   0  0  0  0  0  0  0  0  0  0  0  0
    0.4210   67.3230   66.3380 C   0  0  0  0  0  0  0  0  0  0  0  0
   -0.7430   66.7360   66.7540 O   0  0  0  0  0  0  0  0  0  0  0  0
   -0.8110   67.0030   68.1780 C   0  0  2  0  0  0  0  0  0  0  0  0
    0.4020   67.8590   68.6190 C   0  0  2  0  0  0  0  0  0  0  0  0
    1.1230   67.9720   67.3310 C   0  0  0  0  0  0  0  0  0  0  0  0
    2.3110   68.6060   67.0240 C   0  0  0  0  0  0  0  0  0  0  0  0
    2.8210   68.5900   65.7130 C   0  0  0  0  0  0  0  0  0  0  0  0
    4.0940   69.2920   65.5070 C   0  0  0  0  0  0  0  0  0  0  0  0
    4.8310   69.4080   64.2120 C   0  0  0  0  0  0  0  0  0  0  0  0
    6.0780   70.2210   64.5410 C   0  0  0  0  0  0  0  0  0  0  0  0
    5.9260   70.4940   66.0080 C   0  0  0  0  0  0  0  0  0  0  0  0
    6.7340   71.1330   66.6630 O   0  0  0  0  0  0  0  0  0  0  0  0
    4.6960   69.8980   66.5380 C   0  0  0  0  0  0  0  0  0  0  0  0
    4.1860   69.9330   67.9020 C   0  0  0  0  0  0  0  0  0  0  0  0
    4.7450   70.4930   68.8340 O   0  0  0  0  0  0  0  0  0  0  0  0
    2.9760   69.2640   68.0800 O   0  0  0  0  0  0  0  0  0  0  0  0
    1.0290   66.9850   69.6350 C   0  0  0  0  0  0  0  0  0  0  0  0
    0.3070   65.8760   69.7540 C   0  0  0  0  0  0  0  0  0  0  0  0
   -0.7990   65.7690   68.9400 O   0  0  0  0  0  0  0  0  0  0  0  0
    1.8270   68.4840   62.3950 C   0  0  0  0  0  0  0  0  0  0  0  0
    2.6090   67.9180   63.4400 O   0  0  0  0  0  0  0  0  0  0  0  0
    0.2916   66.7520   64.2590 H   0  0  0  0  0  0  0  0  0  0  0  0
   -1.7499   67.5430   68.3702 H   0  0  0  0  0  0  0  0  0  0  0  0
    0.2823   68.8603   69.0583 H   0  0  0  0  0  0  0  0  0  0  0  0
    5.1068   68.4127   63.8333 H   0  0  0  0  0  0  0  0  0  0  0  0
    4.2211   69.8839   63.4300 H   0  0  0  0  0  0  0  0  0  0  0  0
    6.9916   69.6426   64.3392 H   0  0  0  0  0  0  0  0  0  0  0  0
    6.1706   71.1359   63.9373 H   0  0  0  0  0  0  0  0  0  0  0  0
    1.9441   67.2159   70.2000 H   0  0  0  0  0  0  0  0  0  0  0  0
    0.5788   65.0833   70.4666 H   0  0  0  0  0  0  0  0  0  0  0  0
    1.0083   69.0765   62.8294 H   0  0  0  0  0  0  0  0  0  0  0  0
    2.4606   69.1341   61.7738 H   0  0  0  0  0  0  0  0  0  0  0  0
    1.4074   67.6790   61.7738 H   0  0  0  0  0  0  0  0  0  0  0  0
  2  1  2  0
  3  2  1  0
  4  3  1  0
  5  4  1  0
  6  5  1  0
  7  3  2  0
  7  6  1  0
  8  7  1  0
  9  1  1  0
  9  8  2  0
 10  9  1  0
 11 10  1  0
 12 11  1  0
 13 12  1  0
 14 13  2  0
 15 10  2  0
 15 13  1  0
 16 15  1  0
 17 16  2  0
 18 16  1  0
 18  8  1  0
 19  6  1  0
 20 19  2  0
 21 20  1  0
 21  5  1  0
 23 22  1  0
 23  1  1  0
  2 24  1  0
  5 25  1  6
  6 26  1  1
 11 27  1  0
 11 28  1  0
 12 29  1  0
 12 30  1  0
 19 31  1  0
 20 32  1  0
 22 33  1  0
 22 34  1  0
 22 35  1  0
M  END
>  <score>  (5) 
-9.569

$$$$
=
     RDKit          3D

 35 39  0  0  0  0  0  0  0  0999 V2000
    2.8130   69.3430   67.5430 C   0  0  0  0  0  0  0  0  0  0  0  0
    1.6730   69.0540   68.3130 C   0  0  0  0  0  0  0  0  0  0  0  0
    0.5680   68.5030   67.6920 C   0  0  0  0  0  0  0  0  0  0  0  0
   -0.5890   68.1890   68.3520 O   0  0  0  0  0  0  0  0  0  0  0  0
   -1.4770   67.6710   67.3300 C   0  0  2  0  0  0  0  0  0  0  0  0
   -0.7560   67.6430   65.9600 C   0  0  2  0  0  0  0  0  0  0  0  0
    0.5490   68.2280   66.3410 C   0  0  0  0  0  0  0  0  0  0  0  0
    1.6660   68.5000   65.5750 C   0  0  0  0  0  0  0  0  0  0  0  0
    2.8190   69.0630   66.1500 C   0  0  0  0  0  0  0  0  0  0  0  0
    3.9400   69.3140   65.2370 C   0  0  0  0  0  0  0  0  0  0  0  0
    5.2600   69.9060   65.6120 C   0  0  0  0  0  0  0  0  0  0  0  0
    6.0540   69.9540   64.3120 C   0  0  0  0  0  0  0  0  0  0  0  0
    5.0980   69.3730   63.3110 C   0  0  0  0  0  0  0  0  0  0  0  0
    5.3620   69.2320   62.1280 O   0  0  0  0  0  0  0  0  0  0  0  0
    3.8260   69.0040   63.9400 C   0  0  0  0  0  0  0  0  0  0  0  0
    2.6460   68.4160   63.3200 C   0  0  0  0  0  0  0  0  0  0  0  0
    2.5550   68.1360   62.1340 O   0  0  0  0  0  0  0  0  0  0  0  0
    1.5910   68.1830   64.2010 O   0  0  0  0  0  0  0  0  0  0  0  0
   -1.6360   68.5080   65.1430 C   0  0  0  0  0  0  0  0  0  0  0  0
   -2.6520   68.9200   65.8920 C   0  0  0  0  0  0  0  0  0  0  0  0
   -2.6630   68.4980   67.2040 O   0  0  0  0  0  0  0  0  0  0  0  0
    3.8240   70.7650   69.1860 C   0  0  0  0  0  0  0  0  0  0  0  0
    3.9550   69.8900   68.0710 O   0  0  0  0  0  0  0  0  0  0  0  0
    1.6606   69.2631   69.3929 H   0  0  0  0  0  0  0  0  0  0  0  0
   -1.7692   66.6534   67.6284 H   0  0  0  0  0  0  0  0  0  0  0  0
   -0.5886   66.7072   65.4066 H   0  0  0  0  0  0  0  0  0  0  0  0
    5.1274   70.9182   66.0217 H   0  0  0  0  0  0  0  0  0  0  0  0
    5.7718   69.3171   66.3874 H   0  0  0  0  0  0  0  0  0  0  0  0
    6.3209   70.9884   64.0497 H   0  0  0  0  0  0  0  0  0  0  0  0
    7.0084   69.4098   64.3665 H   0  0  0  0  0  0  0  0  0  0  0  0
   -1.4745   68.7676   64.0863 H   0  0  0  0  0  0  0  0  0  0  0  0
   -3.4448   69.5654   65.4859 H   0  0  0  0  0  0  0  0  0  0  0  0
    3.9105   70.1870   70.1179 H   0  0  0  0  0  0  0  0  0  0  0  0
    4.6184   71.5251   69.1509 H   0  0  0  0  0  0  0  0  0  0  0  0
    2.8419   71.2591   69.1509 H   0  0  0  0  0  0  0  0  0  0  0  0
  2  1  2  0
  3  2  1  0
  4  3  1  0
  5  4  1  0
  6  5  1  0
  7  3  2  0
  7  6  1  0
  8  7  1  0
  9  1  1  0
  9  8  2  0
 10  9  1  0
 11 10  1  0
 12 11  1  0
 13 12  1  0
 14 13  2  0
 15 10  2  0
 15 13  1  0
 16 15  1  0
 17 16  2  0
 18 16  1  0
 18  8  1  0
 19  6  1  0
 20 19  2  0
 21 20  1  0
 21  5  1  0
 23 22  1  0
 23  1  1  0
  2 24  1  0
  5 25  1  1
  6 26  1  6
 11 27  1  0
 11 28  1  0
 12 29  1  0
 12 30  1  0
 19 31  1  0
 20 32  1  0
 22 33  1  0
 22 34  1  0
 22 35  1  0
M  END
>  <score>  (6) 
-9.495

$$$$
=
     RDKit          3D

 35 39  0  0  0  0  0  0  0  0999 V2000
    2.3770   69.0900   67.2760 C   0  0  0  0  0  0  0  0  0  0  0  0
    2.8280   69.6890   68.4640 C   0  0  0  0  0  0  0  0  0  0  0  0
    4.0470   70.3420   68.4650 C   0  0  0  0  0  0  0  0  0  0  0  0
    4.5740   70.9540   69.5690 O   0  0  0  0  0  0  0  0  0  0  0  0
    5.8540   71.4770   69.1350 C   0  0  2  0  0  0  0  0  0  0  0  0
    6.0700   71.1790   67.6310 C   0  0  2  0  0  0  0  0  0  0  0  0
    4.8330   70.4230   67.3350 C   0  0  0  0  0  0  0  0  0  0  0  0
    4.3980   69.8450   66.1580 C   0  0  0  0  0  0  0  0  0  0  0  0
    3.1680   69.1650   66.0980 C   0  0  0  0  0  0  0  0  0  0  0  0
    2.8130   68.5870   64.7960 C   0  0  0  0  0  0  0  0  0  0  0  0
    1.5670   67.8200   64.4890 C   0  0  0  0  0  0  0  0  0  0  0  0
    1.6900   67.4440   63.0170 C   0  0  0  0  0  0  0  0  0  0  0  0
    3.0080   68.0440   62.6230 C   0  0  0  0  0  0  0  0  0  0  0  0
    3.4770   67.9670   61.5000 O   0  0  0  0  0  0  0  0  0  0  0  0
    3.6430   68.7260   63.7560 C   0  0  0  0  0  0  0  0  0  0  0  0
    4.9190   69.4290   63.7910 C   0  0  0  0  0  0  0  0  0  0  0  0
    5.6670   69.5510   62.8320 O   0  0  0  0  0  0  0  0  0  0  0  0
    5.2400   69.9730   65.0330 O   0  0  0  0  0  0  0  0  0  0  0  0
    7.3190   70.3850   67.6610 C   0  0  0  0  0  0  0  0  0  0  0  0
    7.7300   70.2770   68.9200 C   0  0  0  0  0  0  0  0  0  0  0  0
    6.9430   70.8740   69.8800 O   0  0  0  0  0  0  0  0  0  0  0  0
    0.0030   69.0960   67.6040 C   0  0  0  0  0  0  0  0  0  0  0  0
    1.1830   68.4220   67.1800 O   0  0  0  0  0  0  0  0  0  0  0  0
    2.2206   69.6393   69.3797 H   0  0  0  0  0  0  0  0  0  0  0  0
    5.8462   72.5626   69.3124 H   0  0  0  0  0  0  0  0  0  0  0  0
    6.1936   71.9810   66.8884 H   0  0  0  0  0  0  0  0  0  0  0  0
    1.5040   66.9176   65.1149 H   0  0  0  0  0  0  0  0  0  0  0  0
    0.6591   68.4070   64.6918 H   0  0  0  0  0  0  0  0  0  0  0  0
    1.6986   66.3517   62.8876 H   0  0  0  0  0  0  0  0  0  0  0  0
    0.8497   67.8056   62.4061 H   0  0  0  0  0  0  0  0  0  0  0  0
    7.8245   69.9545   66.7840 H   0  0  0  0  0  0  0  0  0  0  0  0
    8.6523   69.7380   69.1824 H   0  0  0  0  0  0  0  0  0  0  0  0
   -0.0327   69.1164   68.7032 H   0  0  0  0  0  0  0  0  0  0  0  0
    0.0104   70.1261   67.2182 H   0  0  0  0  0  0  0  0  0  0  0  0
   -0.8805   68.5663   67.2182 H   0  0  0  0  0  0  0  0  0  0  0  0
  2  1  2  0
  3  2  1  0
  4  3  1  0
  5  4  1  0
  6  5  1  0
  7  3  2  0
  7  6  1  0
  8  7  1  0
  9  1  1  0
  9  8  2  0
 10  9  1  0
 11 10  1  0
 12 11  1  0
 13 12  1  0
 14 13  2  0
 15 10  2  0
 15 13  1  0
 16 15  1  0
 17 16  2  0
 18 16  1  0
 18  8  1  0
 19  6  1  0
 20 19  2  0
 21 20  1  0
 21  5  1  0
 23 22  1  0
 23  1  1  0
  2 24  1  0
  5 25  1  6
  6 26  1  6
 11 27  1  0
 11 28  1  0
 12 29  1  0
 12 30  1  0
 19 31  1  0
 20 32  1  0
 22 33  1  0
 22 34  1  0
 22 35  1  0
M  END
>  <score>  (7) 
-9.375

$$$$
=
     RDKit          3D

 35 39  0  0  0  0  0  0  0  0999 V2000
    0.7660   68.7560   63.1640 C   0  0  0  0  0  0  0  0  0  0  0  0
   -0.5890   68.6360   63.5130 C   0  0  0  0  0  0  0  0  0  0  0  0
   -0.9410   68.6560   64.8500 C   0  0  0  0  0  0  0  0  0  0  0  0
   -2.2300   68.5430   65.2930 O   0  0  0  0  0  0  0  0  0  0  0  0
   -2.1370   68.5840   66.7400 C   0  0  2  0  0  0  0  0  0  0  0  0
   -0.6640   68.7810   67.1740 C   0  0  2  0  0  0  0  0  0  0  0  0
   -0.0010   68.7900   65.8510 C   0  0  0  0  0  0  0  0  0  0  0  0
    1.3340   68.9170   65.5200 C   0  0  0  0  0  0  0  0  0  0  0  0
    1.7510   68.9010   64.1770 C   0  0  0  0  0  0  0  0  0  0  0  0
    3.1940   69.0370   63.9470 C   0  0  0  0  0  0  0  0  0  0  0  0
    3.8730   69.0440   62.6150 C   0  0  0  0  0  0  0  0  0  0  0  0
    5.3550   69.2060   62.9300 C   0  0  0  0  0  0  0  0  0  0  0  0
    5.3770   69.2800   64.4280 C   0  0  0  0  0  0  0  0  0  0  0  0
    6.3970   69.4160   65.0830 O   0  0  0  0  0  0  0  0  0  0  0  0
    4.0260   69.1700   64.9870 C   0  0  0  0  0  0  0  0  0  0  0  0
    3.6190   69.1940   66.3860 C   0  0  0  0  0  0  0  0  0  0  0  0
    4.3890   69.3180   67.3280 O   0  0  0  0  0  0  0  0  0  0  0  0
    2.2460   69.0650   66.5870 O   0  0  0  0  0  0  0  0  0  0  0  0
   -0.4340   67.5770   68.0020 C   0  0  0  0  0  0  0  0  0  0  0  0
   -1.5530   66.8610   68.0420 C   0  0  0  0  0  0  0  0  0  0  0  0
   -2.6240   67.3510   67.3280 O   0  0  0  0  0  0  0  0  0  0  0  0
    0.5900   69.6370   60.9420 C   0  0  0  0  0  0  0  0  0  0  0  0
    1.2080   68.7470   61.8650 O   0  0  0  0  0  0  0  0  0  0  0  0
   -1.3586   68.5277   62.7346 H   0  0  0  0  0  0  0  0  0  0  0  0
   -2.7543   69.4249   67.0890 H   0  0  0  0  0  0  0  0  0  0  0  0
   -0.3374   69.6588   67.7509 H   0  0  0  0  0  0  0  0  0  0  0  0
    3.6917   68.0982   62.0834 H   0  0  0  0  0  0  0  0  0  0  0  0
    3.4983   69.8475   61.9639 H   0  0  0  0  0  0  0  0  0  0  0  0
    5.9325   68.3423   62.5686 H   0  0  0  0  0  0  0  0  0  0  0  0
    5.8068   70.0847   62.4465 H   0  0  0  0  0  0  0  0  0  0  0  0
    0.5099   67.3166   68.5032 H   0  0  0  0  0  0  0  0  0  0  0  0
   -1.6203   65.9250   68.6159 H   0  0  0  0  0  0  0  0  0  0  0  0
    0.0472   70.4187   61.4937 H   0  0  0  0  0  0  0  0  0  0  0  0
    1.3603   70.1023   60.3095 H   0  0  0  0  0  0  0  0  0  0  0  0
   -0.1151   69.0778   60.3095 H   0  0  0  0  0  0  0  0  0  0  0  0
  2  1  2  0
  3  2  1  0
  4  3  1  0
  5  4  1  0
  6  5  1  0
  7  3  2  0
  7  6  1  0
  8  7  1  0
  9  1  1  0
  9  8  2  0
 10  9  1  0
 11 10  1  0
 12 11  1  0
 13 12  1  0
 14 13  2  0
 15 10  2  0
 15 13  1  0
 16 15  1  0
 17 16  2  0
 18 16  1  0
 18  8  1  0
 19  6  1  0
 20 19  2  0
 21 20  1  0
 21  5  1  0
 23 22  1  0
 23  1  1  0
  2 24  1  0
  5 25  1  1
  6 26  1  1
 11 27  1  0
 11 28  1  0
 12 29  1  0
 12 30  1  0
 19 31  1  0
 20 32  1  0
 22 33  1  0
 22 34  1  0
 22 35  1  0
M  END
>  <score>  (8) 
-9.293

$$$$
