=
     RDKit          3D

 50 49  0  0  0  0  0  0  0  0999 V2000
    4.1340   65.8130   63.1670 C   0  0  0  0  0  0  0  0  0  0  0  0
    3.7120   65.7670   64.6320 C   0  0  0  0  0  0  0  0  0  0  0  0
    2.2970   65.5340   64.6750 O   0  0  0  0  0  0  0  0  0  0  0  0
    1.6080   66.8090   66.3440 N   0  0  0  0  0  0  0  0  0  0  0  0
    1.5660   66.6290   64.9950 C   0  0  0  0  0  0  0  0  0  0  0  0
    0.9620   67.3340   64.2030 O   0  0  0  0  0  0  0  0  0  0  0  0
    0.8590   67.8400   67.0230 C   0  0  0  0  0  0  0  0  0  0  0  0
   -0.4010   67.2750   67.6780 C   0  0  0  0  0  0  0  0  0  0  0  0
   -1.5340   68.9960   66.1740 C   0  0  0  0  0  0  0  0  0  0  0  0
   -1.6930   67.7240   66.9920 C   0  0  0  0  0  0  0  0  0  0  0  0
    4.5220   67.2110   62.6820 C   0  0  0  0  0  0  0  0  0  0  0  0
    5.3670   68.0390   63.6550 C   0  0  0  0  0  0  0  0  0  0  0  0
    4.8090   69.4180   64.0200 C   0  0  0  0  0  0  0  0  0  0  0  0
    3.8870   69.3950   65.2420 C   0  0  0  0  0  0  0  0  0  0  0  0
    4.6150   69.6790   66.5610 C   0  0  0  0  0  0  0  0  0  0  0  0
    5.9940   70.3150   66.3710 C   0  0  0  0  0  0  0  0  0  0  0  0
    6.7680   70.4790   67.6810 C   0  0  0  0  0  0  0  0  0  0  0  0
    6.0570   71.3450   68.7110 C   0  0  0  0  0  0  0  0  0  0  0  0
    5.7570   72.6020   68.1190 O   0  0  0  0  0  0  0  0  0  0  0  0
    4.9991   65.1468   63.0338 H   0  0  0  0  0  0  0  0  0  0  0  0
    3.2646   65.4964   62.5721 H   0  0  0  0  0  0  0  0  0  0  0  0
    4.2410   64.9523   65.1481 H   0  0  0  0  0  0  0  0  0  0  0  0
    3.9602   66.7145   65.1327 H   0  0  0  0  0  0  0  0  0  0  0  0
    2.2009   66.1813   66.9056 H   0  0  0  0  0  0  0  0  0  0  0  0
    1.4943   68.2913   67.7994 H   0  0  0  0  0  0  0  0  0  0  0  0
    0.5552   68.5927   66.2806 H   0  0  0  0  0  0  0  0  0  0  0  0
   -0.3504   66.1767   67.6427 H   0  0  0  0  0  0  0  0  0  0  0  0
   -0.4306   67.6556   68.7096 H   0  0  0  0  0  0  0  0  0  0  0  0
   -1.4265   69.8563   66.8510 H   0  0  0  0  0  0  0  0  0  0  0  0
   -0.6390   68.9145   65.5396 H   0  0  0  0  0  0  0  0  0  0  0  0
   -2.4215   69.1373   65.5396 H   0  0  0  0  0  0  0  0  0  0  0  0
   -2.4550   67.9002   67.7655 H   0  0  0  0  0  0  0  0  0  0  0  0
   -1.9842   66.9247   66.2946 H   0  0  0  0  0  0  0  0  0  0  0  0
    5.0933   67.0988   61.7487 H   0  0  0  0  0  0  0  0  0  0  0  0
    3.5768   67.7606   62.5619 H   0  0  0  0  0  0  0  0  0  0  0  0
    5.4728   67.4614   64.5851 H   0  0  0  0  0  0  0  0  0  0  0  0
    6.3172   68.2307   63.1350 H   0  0  0  0  0  0  0  0  0  0  0  0
    5.6529   70.0910   64.2321 H   0  0  0  0  0  0  0  0  0  0  0  0
    4.2082   69.7626   63.1654 H   0  0  0  0  0  0  0  0  0  0  0  0
    3.1062   70.1574   65.1038 H   0  0  0  0  0  0  0  0  0  0  0  0
    3.4696   68.3798   65.3141 H   0  0  0  0  0  0  0  0  0  0  0  0
    3.9958   70.3624   67.1606 H   0  0  0  0  0  0  0  0  0  0  0  0
    4.7704   68.7113   67.0603 H   0  0  0  0  0  0  0  0  0  0  0  0
    6.5826   69.6779   65.6946 H   0  0  0  0  0  0  0  0  0  0  0  0
    5.8354   71.3216   65.9568 H   0  0  0  0  0  0  0  0  0  0  0  0
    6.9269   69.4817   68.1170 H   0  0  0  0  0  0  0  0  0  0  0  0
    7.7123   70.9860   67.4335 H   0  0  0  0  0  0  0  0  0  0  0  0
    5.1256   70.8535   69.0285 H   0  0  0  0  0  0  0  0  0  0  0  0
    6.7024   71.4887   69.5901 H   0  0  0  0  0  0  0  0  0  0  0  0
    5.5971   73.2719   68.8301 H   0  0  0  0  0  0  0  0  0  0  0  0
  2  1  1  0
  3  2  1  0
  5  3  1  0
  5  4  1  0
  6  5  2  0
  7  4  1  0
  8  7  1  0
 10  9  1  0
 10  8  1  0
 11  1  1  0
 12 11  1  0
 13 12  1  0
 14 13  1  0
 15 14  1  0
 16 15  1  0
 17 16  1  0
 18 17  1  0
 19 18  1  0
  1 20  1  0
  1 21  1  0
  2 22  1  0
  2 23  1  0
  4 24  1  0
  7 25  1  0
  7 26  1  0
  8 27  1  0
  8 28  1  0
  9 29  1  0
  9 30  1  0
  9 31  1  0
 10 32  1  0
 10 33  1  0
 11 34  1  0
 11 35  1  0
 12 36  1  0
 12 37  1  0
 13 38  1  0
 13 39  1  0
 14 40  1  0
 14 41  1  0
 15 42  1  0
 15 43  1  0
 16 44  1  0
 16 45  1  0
 17 46  1  0
 17 47  1  0
 18 48  1  0
 18 49  1  0
 19 50  1  0
M  END
>  <score>  (1) 
-6.735

$$$$
=
     RDKit          3D

 50 49  0  0  0  0  0  0  0  0999 V2000
    2.4330   68.9930   61.6650 C   0  0  0  0  0  0  0  0  0  0  0  0
    0.9180   69.0670   61.8240 C   0  0  0  0  0  0  0  0  0  0  0  0
    0.6350   69.5270   63.1520 O   0  0  0  0  0  0  0  0  0  0  0  0
   -0.5010   69.2050   65.0210 N   0  0  0  0  0  0  0  0  0  0  0  0
   -0.5230   69.0490   63.6690 C   0  0  0  0  0  0  0  0  0  0  0  0
   -1.4330   68.5510   63.0250 O   0  0  0  0  0  0  0  0  0  0  0  0
   -1.5490   68.7170   65.8850 C   0  0  0  0  0  0  0  0  0  0  0  0
   -1.0770   68.6180   67.3350 C   0  0  0  0  0  0  0  0  0  0  0  0
    1.2580   67.7450   67.8790 C   0  0  0  0  0  0  0  0  0  0  0  0
   -0.1960   67.3960   67.6020 C   0  0  0  0  0  0  0  0  0  0  0  0
    3.0810   67.8660   62.4710 C   0  0  0  0  0  0  0  0  0  0  0  0
    4.4410   68.1950   63.0940 C   0  0  0  0  0  0  0  0  0  0  0  0
    4.5150   68.1120   64.6220 C   0  0  0  0  0  0  0  0  0  0  0  0
    3.7020   69.2000   65.3280 C   0  0  0  0  0  0  0  0  0  0  0  0
    4.4050   69.7840   66.5600 C   0  0  0  0  0  0  0  0  0  0  0  0
    5.9290   69.8300   66.4260 C   0  0  0  0  0  0  0  0  0  0  0  0
    6.6140   70.5610   67.5830 C   0  0  0  0  0  0  0  0  0  0  0  0
    5.6550   71.3420   68.4720 C   0  0  0  0  0  0  0  0  0  0  0  0
    5.7440   72.7200   68.1360 O   0  0  0  0  0  0  0  0  0  0  0  0
    2.6633   68.8359   60.6009 H   0  0  0  0  0  0  0  0  0  0  0  0
    2.8432   69.9392   62.0477 H   0  0  0  0  0  0  0  0  0  0  0  0
    0.4991   69.7693   61.0883 H   0  0  0  0  0  0  0  0  0  0  0  0
    0.4670   68.0776   61.6576 H   0  0  0  0  0  0  0  0  0  0  0  0
    0.2997   69.6934   65.4467 H   0  0  0  0  0  0  0  0  0  0  0  0
   -2.4048   69.4062   65.8337 H   0  0  0  0  0  0  0  0  0  0  0  0
   -1.8364   67.7109   65.5456 H   0  0  0  0  0  0  0  0  0  0  0  0
   -0.5012   69.5234   67.5774 H   0  0  0  0  0  0  0  0  0  0  0  0
   -1.9740   68.5169   67.9637 H   0  0  0  0  0  0  0  0  0  0  0  0
    1.4249   67.7851   68.9655 H   0  0  0  0  0  0  0  0  0  0  0  0
    1.9100   66.9779   67.4359 H   0  0  0  0  0  0  0  0  0  0  0  0
    1.4908   68.7245   67.4359 H   0  0  0  0  0  0  0  0  0  0  0  0
   -0.2346   66.7397   66.7201 H   0  0  0  0  0  0  0  0  0  0  0  0
   -0.5885   66.9053   68.5049 H   0  0  0  0  0  0  0  0  0  0  0  0
    2.3931   67.5932   63.2849 H   0  0  0  0  0  0  0  0  0  0  0  0
    3.2673   67.0524   61.7545 H   0  0  0  0  0  0  0  0  0  0  0  0
    5.1794   67.4913   62.6821 H   0  0  0  0  0  0  0  0  0  0  0  0
    4.6361   69.2482   62.8434 H   0  0  0  0  0  0  0  0  0  0  0  0
    4.1320   67.1302   64.9372 H   0  0  0  0  0  0  0  0  0  0  0  0
    5.5680   68.2569   64.9053 H   0  0  0  0  0  0  0  0  0  0  0  0
    3.5164   70.0154   64.6134 H   0  0  0  0  0  0  0  0  0  0  0  0
    2.7695   68.7328   65.6776 H   0  0  0  0  0  0  0  0  0  0  0  0
    4.0378   70.8088   66.7177 H   0  0  0  0  0  0  0  0  0  0  0  0
    4.1736   69.1239   67.4090 H   0  0  0  0  0  0  0  0  0  0  0  0
    6.3082   68.7980   66.3910 H   0  0  0  0  0  0  0  0  0  0  0  0
    6.1596   70.3863   65.5055 H   0  0  0  0  0  0  0  0  0  0  0  0
    7.1339   69.8166   68.2040 H   0  0  0  0  0  0  0  0  0  0  0  0
    7.3032   71.2925   67.1359 H   0  0  0  0  0  0  0  0  0  0  0  0
    4.6267   70.9868   68.3094 H   0  0  0  0  0  0  0  0  0  0  0  0
    5.9200   71.1957   69.5295 H   0  0  0  0  0  0  0  0  0  0  0  0
    5.7789   73.2602   68.9649 H   0  0  0  0  0  0  0  0  0  0  0  0
  2  1  1  0
  3  2  1  0
  5  3  1  0
  5  4  1  0
  6  5  2  0
  7  4  1  0
  8  7  1  0
 10  9  1  0
 10  8  1  0
 11  1  1  0
 12 11  1  0
 13 12  1  0
 14 13  1  0
 15 14  1  0
 16 15  1  0
 17 16  1  0
 18 17  1  0
 19 18  1  0
  1 20  1  0
  1 21  1  0
  2 22  1  0
  2 23  1  0
  4 24  1  0
  7 25  1  0
  7 26  1  0
  8 27  1  0
  8 28  1  0
  9 29  1  0
  9 30  1  0
  9 31  1  0
 10 32  1  0
 10 33  1  0
 11 34  1  0
 11 35  1  0
 12 36  1  0
 12 37  1  0
 13 38  1  0
 13 39  1  0
 14 40  1  0
 14 41  1  0
 15 42  1  0
 15 43  1  0
 16 44  1  0
 16 45  1  0
 17 46  1  0
 17 47  1  0
 18 48  1  0
 18 49  1  0
 19 50  1  0
M  END
>  <score>  (2) 
-6.44

$$$$
=
     RDKit          3D

 50 49  0  0  0  0  0  0  0  0999 V2000
   -0.0040   68.2170   67.5540 C   0  0  0  0  0  0  0  0  0  0  0  0
    0.8100   67.4290   68.5740 C   0  0  0  0  0  0  0  0  0  0  0  0
   -0.0030   66.3450   69.0450 O   0  0  0  0  0  0  0  0  0  0  0  0
    1.4710   64.9890   69.9790 N   0  0  0  0  0  0  0  0  0  0  0  0
    0.4130   65.8110   70.2190 C   0  0  0  0  0  0  0  0  0  0  0  0
   -0.0870   66.0270   71.3120 O   0  0  0  0  0  0  0  0  0  0  0  0
    2.0970   64.1940   71.0100 C   0  0  0  0  0  0  0  0  0  0  0  0
    3.3460   63.4850   70.4870 C   0  0  0  0  0  0  0  0  0  0  0  0
    4.9180   61.4910   70.7340 C   0  0  0  0  0  0  0  0  0  0  0  0
    3.6560   62.1820   71.2270 C   0  0  0  0  0  0  0  0  0  0  0  0
    0.4880   68.0550   66.1150 C   0  0  0  0  0  0  0  0  0  0  0  0
    1.9940   67.8280   65.9520 C   0  0  0  0  0  0  0  0  0  0  0  0
    2.8650   69.0890   65.9590 C   0  0  0  0  0  0  0  0  0  0  0  0
    3.9600   69.0750   64.8900 C   0  0  0  0  0  0  0  0  0  0  0  0
    5.3070   69.6130   65.3890 C   0  0  0  0  0  0  0  0  0  0  0  0
    5.2520   70.1610   66.8170 C   0  0  0  0  0  0  0  0  0  0  0  0
    6.6350   70.4380   67.4110 C   0  0  0  0  0  0  0  0  0  0  0  0
    6.6340   71.4960   68.5050 C   0  0  0  0  0  0  0  0  0  0  0  0
    5.7540   72.5450   68.1220 O   0  0  0  0  0  0  0  0  0  0  0  0
   -1.0482   67.8747   67.6043 H   0  0  0  0  0  0  0  0  0  0  0  0
    0.1026   69.2811   67.8116 H   0  0  0  0  0  0  0  0  0  0  0  0
    1.7211   67.0344   68.1005 H   0  0  0  0  0  0  0  0  0  0  0  0
    1.1059   68.0778   69.4115 H   0  0  0  0  0  0  0  0  0  0  0  0
    1.8417   64.9312   69.0198 H   0  0  0  0  0  0  0  0  0  0  0  0
    2.3817   64.8510   71.8450 H   0  0  0  0  0  0  0  0  0  0  0  0
    1.3787   63.4298   71.3417 H   0  0  0  0  0  0  0  0  0  0  0  0
    3.1967   63.2547   69.4218 H   0  0  0  0  0  0  0  0  0  0  0  0
    4.1974   64.1624   70.6488 H   0  0  0  0  0  0  0  0  0  0  0  0
    5.5171   61.1630   71.5962 H   0  0  0  0  0  0  0  0  0  0  0  0
    4.6435   60.6174   70.1246 H   0  0  0  0  0  0  0  0  0  0  0  0
    5.5062   62.1929   70.1246 H   0  0  0  0  0  0  0  0  0  0  0  0
    2.8075   61.4949   71.0929 H   0  0  0  0  0  0  0  0  0  0  0  0
    3.8198   62.4405   72.2836 H   0  0  0  0  0  0  0  0  0  0  0  0
   -0.0339   67.1929   65.6740 H   0  0  0  0  0  0  0  0  0  0  0  0
    0.2717   69.0100   65.6138 H   0  0  0  0  0  0  0  0  0  0  0  0
    2.3289   67.1823   66.7772 H   0  0  0  0  0  0  0  0  0  0  0  0
    2.1220   67.3830   64.9542 H   0  0  0  0  0  0  0  0  0  0  0  0
    2.2178   69.9612   65.7843 H   0  0  0  0  0  0  0  0  0  0  0  0
    3.3658   69.1333   66.9374 H   0  0  0  0  0  0  0  0  0  0  0  0
    4.1028   68.0383   64.5510 H   0  0  0  0  0  0  0  0  0  0  0  0
    3.6277   69.7370   64.0768 H   0  0  0  0  0  0  0  0  0  0  0  0
    6.0422   68.7954   65.3575 H   0  0  0  0  0  0  0  0  0  0  0  0
    5.5862   70.4492   64.7311 H   0  0  0  0  0  0  0  0  0  0  0  0
    4.6805   71.1009   66.8089 H   0  0  0  0  0  0  0  0  0  0  0  0
    4.7755   69.3926   67.4435 H   0  0  0  0  0  0  0  0  0  0  0  0
    7.0239   69.5007   67.8356 H   0  0  0  0  0  0  0  0  0  0  0  0
    7.2628   70.8232   66.5940 H   0  0  0  0  0  0  0  0  0  0  0  0
    6.2904   71.0509   69.4504 H   0  0  0  0  0  0  0  0  0  0  0  0
    7.6508   71.8915   68.6456 H   0  0  0  0  0  0  0  0  0  0  0  0
    5.3882   72.9811   68.9320 H   0  0  0  0  0  0  0  0  0  0  0  0
  2  1  1  0
  3  2  1  0
  5  3  1  0
  5  4  1  0
  6  5  2  0
  7  4  1  0
  8  7  1  0
 10  9  1  0
 10  8  1  0
 11  1  1  0
 12 11  1  0
 13 12  1  0
 14 13  1  0
 15 14  1  0
 16 15  1  0
 17 16  1  0
 18 17  1  0
 19 18  1  0
  1 20  1  0
  1 21  1  0
  2 22  1  0
  2 23  1  0
  4 24  1  0
  7 25  1  0
  7 26  1  0
  8 27  1  0
  8 28  1  0
  9 29  1  0
  9 30  1  0
  9 31  1  0
 10 32  1  0
 10 33  1  0
 11 34  1  0
 11 35  1  0
 12 36  1  0
 12 37  1  0
 13 38  1  0
 13 39  1  0
 14 40  1  0
 14 41  1  0
 15 42  1  0
 15 43  1  0
 16 44  1  0
 16 45  1  0
 17 46  1  0
 17 47  1  0
 18 48  1  0
 18 49  1  0
 19 50  1  0
M  END
>  <score>  (3) 
-6.407

$$$$
=
     RDKit          3D

 50 49  0  0  0  0  0  0  0  0999 V2000
   -0.3620   66.4130   68.8070 C   0  0  0  0  0  0  0  0  0  0  0  0
   -0.1410   67.6040   67.8810 C   0  0  0  0  0  0  0  0  0  0  0  0
   -0.2640   67.1410   66.5290 O   0  0  0  0  0  0  0  0  0  0  0  0
    1.6480   68.2020   66.2020 N   0  0  0  0  0  0  0  0  0  0  0  0
    0.9050   67.1180   65.8440 C   0  0  0  0  0  0  0  0  0  0  0  0
    1.2340   66.2670   65.0320 O   0  0  0  0  0  0  0  0  0  0  0  0
    2.9150   68.5220   65.5880 C   0  0  0  0  0  0  0  0  0  0  0  0
    3.7650   69.4120   66.4950 C   0  0  0  0  0  0  0  0  0  0  0  0
    6.1320   70.2460   66.9520 C   0  0  0  0  0  0  0  0  0  0  0  0
    5.1520   69.7100   65.9210 C   0  0  0  0  0  0  0  0  0  0  0  0
    0.5030   66.4440   70.0680 C   0  0  0  0  0  0  0  0  0  0  0  0
    1.5400   65.3230   70.1870 C   0  0  0  0  0  0  0  0  0  0  0  0
    1.1490   64.1410   71.0800 C   0  0  0  0  0  0  0  0  0  0  0  0
    2.1720   63.0020   71.0610 C   0  0  0  0  0  0  0  0  0  0  0  0
    3.4650   63.3550   70.3150 C   0  0  0  0  0  0  0  0  0  0  0  0
    3.9460   62.2480   69.3750 C   0  0  0  0  0  0  0  0  0  0  0  0
    4.3510   60.9670   70.1080 C   0  0  0  0  0  0  0  0  0  0  0  0
    3.2970   59.8700   70.0560 C   0  0  0  0  0  0  0  0  0  0  0  0
    3.7830   58.8100   69.2430 O   0  0  0  0  0  0  0  0  0  0  0  0
   -1.4190   66.4016   69.1114 H   0  0  0  0  0  0  0  0  0  0  0  0
   -0.0768   65.5119   68.2443 H   0  0  0  0  0  0  0  0  0  0  0  0
   -0.8966   68.3780   68.0810 H   0  0  0  0  0  0  0  0  0  0  0  0
    0.8556   68.0387   68.0476 H   0  0  0  0  0  0  0  0  0  0  0  0
    1.2902   68.8208   66.9436 H   0  0  0  0  0  0  0  0  0  0  0  0
    3.4618   67.5887   65.3881 H   0  0  0  0  0  0  0  0  0  0  0  0
    2.7189   69.0672   64.6530 H   0  0  0  0  0  0  0  0  0  0  0  0
    3.2364   70.3651   66.6440 H   0  0  0  0  0  0  0  0  0  0  0  0
    3.9127   68.8685   67.4399 H   0  0  0  0  0  0  0  0  0  0  0  0
    5.7513   70.0378   67.9628 H   0  0  0  0  0  0  0  0  0  0  0  0
    7.1079   69.7561   66.8197 H   0  0  0  0  0  0  0  0  0  0  0  0
    6.2460   71.3320   66.8197 H   0  0  0  0  0  0  0  0  0  0  0  0
    5.0446   70.4574   65.1210 H   0  0  0  0  0  0  0  0  0  0  0  0
    5.5603   68.7582   65.5503 H   0  0  0  0  0  0  0  0  0  0  0  0
    1.0391   67.4043   70.0871 H   0  0  0  0  0  0  0  0  0  0  0  0
   -0.1893   66.3042   70.9113 H   0  0  0  0  0  0  0  0  0  0  0  0
    1.7319   64.9329   69.1766 H   0  0  0  0  0  0  0  0  0  0  0  0
    2.4184   65.7800   70.6662 H   0  0  0  0  0  0  0  0  0  0  0  0
    1.0489   64.5029   72.1139 H   0  0  0  0  0  0  0  0  0  0  0  0
    0.2040   63.7362   70.6887 H   0  0  0  0  0  0  0  0  0  0  0  0
    2.4278   62.7461   72.0998 H   0  0  0  0  0  0  0  0  0  0  0  0
    1.7091   62.1594   70.5264 H   0  0  0  0  0  0  0  0  0  0  0  0
    3.2879   64.2640   69.7213 H   0  0  0  0  0  0  0  0  0  0  0  0
    4.2483   63.4997   71.0736 H   0  0  0  0  0  0  0  0  0  0  0  0
    3.1333   62.0073   68.6739 H   0  0  0  0  0  0  0  0  0  0  0  0
    4.8406   62.6249   68.8577 H   0  0  0  0  0  0  0  0  0  0  0  0
    5.2744   60.5827   69.6502 H   0  0  0  0  0  0  0  0  0  0  0  0
    4.4850   61.2326   71.1670 H   0  0  0  0  0  0  0  0  0  0  0  0
    3.1003   59.4971   71.0720 H   0  0  0  0  0  0  0  0  0  0  0  0
    2.3621   60.2678   69.6343 H   0  0  0  0  0  0  0  0  0  0  0  0
    4.1183   58.0787   69.8199 H   0  0  0  0  0  0  0  0  0  0  0  0
  2  1  1  0
  3  2  1  0
  5  3  1  0
  5  4  1  0
  6  5  2  0
  7  4  1  0
  8  7  1  0
 10  9  1  0
 10  8  1  0
 11  1  1  0
 12 11  1  0
 13 12  1  0
 14 13  1  0
 15 14  1  0
 16 15  1  0
 17 16  1  0
 18 17  1  0
 19 18  1  0
  1 20  1  0
  1 21  1  0
  2 22  1  0
  2 23  1  0
  4 24  1  0
  7 25  1  0
  7 26  1  0
  8 27  1  0
  8 28  1  0
  9 29  1  0
  9 30  1  0
  9 31  1  0
 10 32  1  0
 10 33  1  0
 11 34  1  0
 11 35  1  0
 12 36  1  0
 12 37  1  0
 13 38  1  0
 13 39  1  0
 14 40  1  0
 14 41  1  0
 15 42  1  0
 15 43  1  0
 16 44  1  0
 16 45  1  0
 17 46  1  0
 17 47  1  0
 18 48  1  0
 18 49  1  0
 19 50  1  0
M  END
>  <score>  (4) 
-6.407

$$$$
=
     RDKit          3D

 50 49  0  0  0  0  0  0  0  0999 V2000
    0.2940   65.1430   70.8040 C   0  0  0  0  0  0  0  0  0  0  0  0
    0.8340   66.1390   69.7840 C   0  0  0  0  0  0  0  0  0  0  0  0
   -0.1800   66.3480   68.7920 O   0  0  0  0  0  0  0  0  0  0  0  0
    0.8590   68.2340   68.2920 N   0  0  0  0  0  0  0  0  0  0  0  0
    0.1990   67.1610   67.7760 C   0  0  0  0  0  0  0  0  0  0  0  0
   -0.0230   66.9650   66.5910 O   0  0  0  0  0  0  0  0  0  0  0  0
    1.3200   69.3370   67.4810 C   0  0  0  0  0  0  0  0  0  0  0  0
    2.8420   69.4670   67.5300 C   0  0  0  0  0  0  0  0  0  0  0  0
    4.9540   69.7180   66.1210 C   0  0  0  0  0  0  0  0  0  0  0  0
    3.5120   69.2390   66.1730 C   0  0  0  0  0  0  0  0  0  0  0  0
    1.2730   64.0190   71.1450 C   0  0  0  0  0  0  0  0  0  0  0  0
    1.4930   62.9750   70.0450 C   0  0  0  0  0  0  0  0  0  0  0  0
    2.9520   62.6720   69.6910 C   0  0  0  0  0  0  0  0  0  0  0  0
    3.9540   63.2950   70.6660 C   0  0  0  0  0  0  0  0  0  0  0  0
    5.0540   62.3240   71.1140 C   0  0  0  0  0  0  0  0  0  0  0  0
    4.9170   60.9270   70.5040 C   0  0  0  0  0  0  0  0  0  0  0  0
    4.3240   59.9010   71.4730 C   0  0  0  0  0  0  0  0  0  0  0  0
    3.4760   58.8340   70.7950 C   0  0  0  0  0  0  0  0  0  0  0  0
    3.8460   58.7620   69.4240 O   0  0  0  0  0  0  0  0  0  0  0  0
    0.0558   65.6883   71.7291 H   0  0  0  0  0  0  0  0  0  0  0  0
   -0.5921   64.6714   70.3541 H   0  0  0  0  0  0  0  0  0  0  0  0
    1.0722   67.0909   70.2811 H   0  0  0  0  0  0  0  0  0  0  0  0
    1.7515   65.7505   69.3179 H   0  0  0  0  0  0  0  0  0  0  0  0
    1.0377   68.2606   69.3060 H   0  0  0  0  0  0  0  0  0  0  0  0
    1.0084   69.1701   66.4393 H   0  0  0  0  0  0  0  0  0  0  0  0
    0.8803   70.2647   67.8760 H   0  0  0  0  0  0  0  0  0  0  0  0
    3.0951   70.4790   67.8789 H   0  0  0  0  0  0  0  0  0  0  0  0
    3.2141   68.6887   68.2125 H   0  0  0  0  0  0  0  0  0  0  0  0
    5.3354   69.8447   67.1449 H   0  0  0  0  0  0  0  0  0  0  0  0
    5.5681   68.9756   65.5902 H   0  0  0  0  0  0  0  0  0  0  0  0
    5.0018   70.6803   65.5902 H   0  0  0  0  0  0  0  0  0  0  0  0
    2.9377   69.7792   65.4059 H   0  0  0  0  0  0  0  0  0  0  0  0
    3.5249   68.1533   65.9967 H   0  0  0  0  0  0  0  0  0  0  0  0
    2.2461   64.4766   71.3765 H   0  0  0  0  0  0  0  0  0  0  0  0
    0.8243   63.4756   71.9896 H   0  0  0  0  0  0  0  0  0  0  0  0
    1.0240   62.0357   70.3734 H   0  0  0  0  0  0  0  0  0  0  0  0
    1.0493   63.4044   69.1347 H   0  0  0  0  0  0  0  0  0  0  0  0
    3.0929   61.5811   69.6953 H   0  0  0  0  0  0  0  0  0  0  0  0
    3.1448   63.1112   68.7011 H   0  0  0  0  0  0  0  0  0  0  0  0
    4.4289   64.1568   70.1743 H   0  0  0  0  0  0  0  0  0  0  0  0
    3.3925   63.5865   71.5659 H   0  0  0  0  0  0  0  0  0  0  0  0
    6.0282   62.7399   70.8175 H   0  0  0  0  0  0  0  0  0  0  0  0
    4.9641   62.2123   72.2046 H   0  0  0  0  0  0  0  0  0  0  0  0
    4.2631   60.9933   69.6219 H   0  0  0  0  0  0  0  0  0  0  0  0
    5.9290   60.5835   70.2435 H   0  0  0  0  0  0  0  0  0  0  0  0
    5.1513   59.4033   72.0001 H   0  0  0  0  0  0  0  0  0  0  0  0
    3.6603   60.4516   72.1559 H   0  0  0  0  0  0  0  0  0  0  0  0
    3.6502   57.8608   71.2772 H   0  0  0  0  0  0  0  0  0  0  0  0
    2.4099   59.0902   70.8829 H   0  0  0  0  0  0  0  0  0  0  0  0
    4.8153   58.5734   69.3533 H   0  0  0  0  0  0  0  0  0  0  0  0
  2  1  1  0
  3  2  1  0
  5  3  1  0
  5  4  1  0
  6  5  2  0
  7  4  1  0
  8  7  1  0
 10  9  1  0
 10  8  1  0
 11  1  1  0
 12 11  1  0
 13 12  1  0
 14 13  1  0
 15 14  1  0
 16 15  1  0
 17 16  1  0
 18 17  1  0
 19 18  1  0
  1 20  1  0
  1 21  1  0
  2 22  1  0
  2 23  1  0
  4 24  1  0
  7 25  1  0
  7 26  1  0
  8 27  1  0
  8 28  1  0
  9 29  1  0
  9 30  1  0
  9 31  1  0
 10 32  1  0
 10 33  1  0
 11 34  1  0
 11 35  1  0
 12 36  1  0
 12 37  1  0
 13 38  1  0
 13 39  1  0
 14 40  1  0
 14 41  1  0
 15 42  1  0
 15 43  1  0
 16 44  1  0
 16 45  1  0
 17 46  1  0
 17 47  1  0
 18 48  1  0
 18 49  1  0
 19 50  1  0
M  END
>  <score>  (5) 
-6.369

$$$$
=
     RDKit          3D

 50 49  0  0  0  0  0  0  0  0999 V2000
    1.2110   66.4560   70.1960 C   0  0  0  0  0  0  0  0  0  0  0  0
    1.0560   67.1310   68.8370 C   0  0  0  0  0  0  0  0  0  0  0  0
   -0.2270   66.7700   68.3090 O   0  0  0  0  0  0  0  0  0  0  0  0
    0.6800   67.7600   66.5530 N   0  0  0  0  0  0  0  0  0  0  0  0
   -0.4780   67.2700   67.0750 C   0  0  0  0  0  0  0  0  0  0  0  0
   -1.5690   67.2850   66.5250 O   0  0  0  0  0  0  0  0  0  0  0  0
    0.7410   68.4430   65.2830 C   0  0  0  0  0  0  0  0  0  0  0  0
    2.1800   68.7940   64.9060 C   0  0  0  0  0  0  0  0  0  0  0  0
    4.4660   69.5550   65.7460 C   0  0  0  0  0  0  0  0  0  0  0  0
    3.0650   69.0970   66.1170 C   0  0  0  0  0  0  0  0  0  0  0  0
    0.4100   65.1610   70.3350 C   0  0  0  0  0  0  0  0  0  0  0  0
    1.2390   63.8900   70.5470 C   0  0  0  0  0  0  0  0  0  0  0  0
    2.7600   64.0750   70.5510 C   0  0  0  0  0  0  0  0  0  0  0  0
    3.4770   63.2260   69.4980 C   0  0  0  0  0  0  0  0  0  0  0  0
    2.8020   61.8730   69.2440 C   0  0  0  0  0  0  0  0  0  0  0  0
    3.6830   60.6750   69.6090 C   0  0  0  0  0  0  0  0  0  0  0  0
    4.8850   61.0540   70.4780 C   0  0  0  0  0  0  0  0  0  0  0  0
    4.6820   60.7770   71.9620 C   0  0  0  0  0  0  0  0  0  0  0  0
    5.7650   61.3510   72.6830 O   0  0  0  0  0  0  0  0  0  0  0  0
    2.2753   66.2239   70.3489 H   0  0  0  0  0  0  0  0  0  0  0  0
    0.8214   67.1569   70.9489 H   0  0  0  0  0  0  0  0  0  0  0  0
    1.1185   68.2231   68.9529 H   0  0  0  0  0  0  0  0  0  0  0  0
    1.8558   66.8069   68.1549 H   0  0  0  0  0  0  0  0  0  0  0  0
    1.5514   67.6378   67.0883 H   0  0  0  0  0  0  0  0  0  0  0  0
    0.3164   67.7910   64.5054 H   0  0  0  0  0  0  0  0  0  0  0  0
    0.1673   69.3779   65.3653 H   0  0  0  0  0  0  0  0  0  0  0  0
    2.6150   67.9444   64.3592 H   0  0  0  0  0  0  0  0  0  0  0  0
    2.1433   69.7061   64.2923 H   0  0  0  0  0  0  0  0  0  0  0  0
    5.0446   69.7441   66.6622 H   0  0  0  0  0  0  0  0  0  0  0  0
    4.9627   68.7725   65.1536 H   0  0  0  0  0  0  0  0  0  0  0  0
    4.4046   70.4798   65.1536 H   0  0  0  0  0  0  0  0  0  0  0  0
    3.1470   68.1841   66.7252 H   0  0  0  0  0  0  0  0  0  0  0  0
    2.5897   69.9234   66.6658 H   0  0  0  0  0  0  0  0  0  0  0  0
   -0.2660   65.2718   71.1957 H   0  0  0  0  0  0  0  0  0  0  0  0
   -0.1106   65.0245   69.3757 H   0  0  0  0  0  0  0  0  0  0  0  0
    0.9498   63.4569   71.5159 H   0  0  0  0  0  0  0  0  0  0  0  0
    1.0203   63.2449   69.6833 H   0  0  0  0  0  0  0  0  0  0  0  0
    2.9832   65.1344   70.3562 H   0  0  0  0  0  0  0  0  0  0  0  0
    3.1249   63.7483   71.5359 H   0  0  0  0  0  0  0  0  0  0  0  0
    3.4984   63.7879   68.5526 H   0  0  0  0  0  0  0  0  0  0  0  0
    4.4870   63.0182   69.8811 H   0  0  0  0  0  0  0  0  0  0  0  0
    1.8816   61.8245   69.8444 H   0  0  0  0  0  0  0  0  0  0  0  0
    2.5988   61.8094   68.1648 H   0  0  0  0  0  0  0  0  0  0  0  0
    3.0705   59.9449   70.1584 H   0  0  0  0  0  0  0  0  0  0  0  0
    4.0764   60.2598   68.6694 H   0  0  0  0  0  0  0  0  0  0  0  0
    5.7570   60.4786   70.1338 H   0  0  0  0  0  0  0  0  0  0  0  0
    5.0282   62.1394   70.3712 H   0  0  0  0  0  0  0  0  0  0  0  0
    3.7350   61.2256   72.2965 H   0  0  0  0  0  0  0  0  0  0  0  0
    4.6450   59.6922   72.1401 H   0  0  0  0  0  0  0  0  0  0  0  0
    5.5982   61.2626   73.6548 H   0  0  0  0  0  0  0  0  0  0  0  0
  2  1  1  0
  3  2  1  0
  5  3  1  0
  5  4  1  0
  6  5  2  0
  7  4  1  0
  8  7  1  0
 10  9  1  0
 10  8  1  0
 11  1  1  0
 12 11  1  0
 13 12  1  0
 14 13  1  0
 15 14  1  0
 16 15  1  0
 17 16  1  0
 18 17  1  0
 19 18  1  0
  1 20  1  0
  1 21  1  0
  2 22  1  0
  2 23  1  0
  4 24  1  0
  7 25  1  0
  7 26  1  0
  8 27  1  0
  8 28  1  0
  9 29  1  0
  9 30  1  0
  9 31  1  0
 10 32  1  0
 10 33  1  0
 11 34  1  0
 11 35  1  0
 12 36  1  0
 12 37  1  0
 13 38  1  0
 13 39  1  0
 14 40  1  0
 14 41  1  0
 15 42  1  0
 15 43  1  0
 16 44  1  0
 16 45  1  0
 17 46  1  0
 17 47  1  0
 18 48  1  0
 18 49  1  0
 19 50  1  0
M  END
>  <score>  (6) 
-6.366

$$$$
=
     RDKit          3D

 50 49  0  0  0  0  0  0  0  0999 V2000
    0.5450   67.8090   68.1500 C   0  0  0  0  0  0  0  0  0  0  0  0
   -0.5890   67.4350   67.2020 C   0  0  0  0  0  0  0  0  0  0  0  0
   -1.4320   68.5850   67.0480 O   0  0  0  0  0  0  0  0  0  0  0  0
   -0.8400   68.8000   64.9290 N   0  0  0  0  0  0  0  0  0  0  0  0
   -1.8960   68.7650   65.7870 C   0  0  0  0  0  0  0  0  0  0  0  0
   -3.0700   68.8860   65.4760 O   0  0  0  0  0  0  0  0  0  0  0  0
   -0.9850   69.0670   63.5170 C   0  0  0  0  0  0  0  0  0  0  0  0
    0.1940   68.5080   62.7200 C   0  0  0  0  0  0  0  0  0  0  0  0
   -0.1820   69.9630   60.6580 C   0  0  0  0  0  0  0  0  0  0  0  0
    0.7920   69.5180   61.7380 C   0  0  0  0  0  0  0  0  0  0  0  0
    1.8160   68.2740   67.4360 C   0  0  0  0  0  0  0  0  0  0  0  0
    2.0480   67.6800   66.0430 C   0  0  0  0  0  0  0  0  0  0  0  0
    3.3280   68.1260   65.3300 C   0  0  0  0  0  0  0  0  0  0  0  0
    3.8170   69.5080   65.7700 C   0  0  0  0  0  0  0  0  0  0  0  0
    5.3030   69.5360   66.1510 C   0  0  0  0  0  0  0  0  0  0  0  0
    5.6470   70.6180   67.1770 C   0  0  0  0  0  0  0  0  0  0  0  0
    5.1150   70.3120   68.5790 C   0  0  0  0  0  0  0  0  0  0  0  0
    4.0640   71.2990   69.0670 C   0  0  0  0  0  0  0  0  0  0  0  0
    2.9880   70.5700   69.6430 O   0  0  0  0  0  0  0  0  0  0  0  0
    0.1969   68.6221   68.8040 H   0  0  0  0  0  0  0  0  0  0  0  0
    0.8065   66.9005   68.7124 H   0  0  0  0  0  0  0  0  0  0  0  0
   -0.1777   67.1396   66.2255 H   0  0  0  0  0  0  0  0  0  0  0  0
   -1.1643   66.5896   67.6074 H   0  0  0  0  0  0  0  0  0  0  0  0
    0.1042   68.6285   65.3032 H   0  0  0  0  0  0  0  0  0  0  0  0
   -1.9137   68.5995   63.1578 H   0  0  0  0  0  0  0  0  0  0  0  0
   -1.0154   70.1570   63.3719 H   0  0  0  0  0  0  0  0  0  0  0  0
    0.9791   68.2007   63.4265 H   0  0  0  0  0  0  0  0  0  0  0  0
   -0.1841   67.6615   62.1280 H   0  0  0  0  0  0  0  0  0  0  0  0
   -1.0867   70.3763   61.1278 H   0  0  0  0  0  0  0  0  0  0  0  0
    0.2913   70.7342   60.0325 H   0  0  0  0  0  0  0  0  0  0  0  0
   -0.4551   69.1003   60.0325 H   0  0  0  0  0  0  0  0  0  0  0  0
    1.6642   69.0566   61.2518 H   0  0  0  0  0  0  0  0  0  0  0  0
    1.0629   70.4124   62.3182 H   0  0  0  0  0  0  0  0  0  0  0  0
    1.7654   69.3680   67.3332 H   0  0  0  0  0  0  0  0  0  0  0  0
    2.6545   67.9237   68.0558 H   0  0  0  0  0  0  0  0  0  0  0  0
    2.0831   66.5853   66.1450 H   0  0  0  0  0  0  0  0  0  0  0  0
    1.2179   68.0465   65.4212 H   0  0  0  0  0  0  0  0  0  0  0  0
    4.1194   67.3920   65.5420 H   0  0  0  0  0  0  0  0  0  0  0  0
    3.0973   68.1891   64.2563 H   0  0  0  0  0  0  0  0  0  0  0  0
    3.6559   70.2146   64.9425 H   0  0  0  0  0  0  0  0  0  0  0  0
    3.2461   69.7833   66.6691 H   0  0  0  0  0  0  0  0  0  0  0  0
    5.5733   68.5568   66.5730 H   0  0  0  0  0  0  0  0  0  0  0  0
    5.8687   69.7648   65.2357 H   0  0  0  0  0  0  0  0  0  0  0  0
    6.7416   70.7124   67.2316 H   0  0  0  0  0  0  0  0  0  0  0  0
    5.1675   71.5496   66.8421 H   0  0  0  0  0  0  0  0  0  0  0  0
    4.6683   69.3068   68.5685 H   0  0  0  0  0  0  0  0  0  0  0  0
    5.9687   70.3866   69.2686 H   0  0  0  0  0  0  0  0  0  0  0  0
    4.5051   71.9666   69.8219 H   0  0  0  0  0  0  0  0  0  0  0  0
    3.6984   71.9047   68.2247 H   0  0  0  0  0  0  0  0  0  0  0  0
    3.0513   70.6129   70.6300 H   0  0  0  0  0  0  0  0  0  0  0  0
  2  1  1  0
  3  2  1  0
  5  3  1  0
  5  4  1  0
  6  5  2  0
  7  4  1  0
  8  7  1  0
 10  9  1  0
 10  8  1  0
 11  1  1  0
 12 11  1  0
 13 12  1  0
 14 13  1  0
 15 14  1  0
 16 15  1  0
 17 16  1  0
 18 17  1  0
 19 18  1  0
  1 20  1  0
  1 21  1  0
  2 22  1  0
  2 23  1  0
  4 24  1  0
  7 25  1  0
  7 26  1  0
  8 27  1  0
  8 28  1  0
  9 29  1  0
  9 30  1  0
  9 31  1  0
 10 32  1  0
 10 33  1  0
 11 34  1  0
 11 35  1  0
 12 36  1  0
 12 37  1  0
 13 38  1  0
 13 39  1  0
 14 40  1  0
 14 41  1  0
 15 42  1  0
 15 43  1  0
 16 44  1  0
 16 45  1  0
 17 46  1  0
 17 47  1  0
 18 48  1  0
 18 49  1  0
 19 50  1  0
M  END
>  <score>  (7) 
-6.17

$$$$
=
     RDKit          3D

 50 49  0  0  0  0  0  0  0  0999 V2000
    3.9480   70.9630   68.9070 C   0  0  0  0  0  0  0  0  0  0  0  0
    2.9570   69.8040   68.9250 C   0  0  0  0  0  0  0  0  0  0  0  0
    1.8780   70.1320   68.0380 O   0  0  0  0  0  0  0  0  0  0  0  0
    1.4440   69.0640   66.1520 N   0  0  0  0  0  0  0  0  0  0  0  0
    1.2560   69.0550   67.5010 C   0  0  0  0  0  0  0  0  0  0  0  0
    0.6240   68.2180   68.1250 O   0  0  0  0  0  0  0  0  0  0  0  0
    0.8360   68.0980   65.2690 C   0  0  0  0  0  0  0  0  0  0  0  0
    0.0870   68.7820   64.1250 C   0  0  0  0  0  0  0  0  0  0  0  0
    0.1910   69.6200   61.7180 C   0  0  0  0  0  0  0  0  0  0  0  0
    0.9290   68.9340   62.8570 C   0  0  0  0  0  0  0  0  0  0  0  0
    5.3870   70.5380   68.6090 C   0  0  0  0  0  0  0  0  0  0  0  0
    5.8170   70.6400   67.1420 C   0  0  0  0  0  0  0  0  0  0  0  0
    5.3770   69.4880   66.2330 C   0  0  0  0  0  0  0  0  0  0  0  0
    5.4300   69.8360   64.7440 C   0  0  0  0  0  0  0  0  0  0  0  0
    4.3450   69.1370   63.9150 C   0  0  0  0  0  0  0  0  0  0  0  0
    4.8210   68.7090   62.5250 C   0  0  0  0  0  0  0  0  0  0  0  0
    4.3260   67.3180   62.1200 C   0  0  0  0  0  0  0  0  0  0  0  0
    4.1520   66.3620   63.2920 C   0  0  0  0  0  0  0  0  0  0  0  0
    4.8530   65.1590   63.0050 O   0  0  0  0  0  0  0  0  0  0  0  0
    3.6306   71.6792   68.1348 H   0  0  0  0  0  0  0  0  0  0  0  0
    3.9454   71.4035   69.9150 H   0  0  0  0  0  0  0  0  0  0  0  0
    3.4531   68.8829   68.5853 H   0  0  0  0  0  0  0  0  0  0  0  0
    2.5782   69.6398   69.9446 H   0  0  0  0  0  0  0  0  0  0  0  0
    2.0469   69.7927   65.7440 H   0  0  0  0  0  0  0  0  0  0  0  0
    1.6218   67.4538   64.8477 H   0  0  0  0  0  0  0  0  0  0  0  0
    0.1143   67.5044   65.8494 H   0  0  0  0  0  0  0  0  0  0  0  0
   -0.8035   68.1832   63.8832 H   0  0  0  0  0  0  0  0  0  0  0  0
   -0.1748   69.7945   64.4659 H   0  0  0  0  0  0  0  0  0  0  0  0
   -0.5559   70.3143   62.1305 H   0  0  0  0  0  0  0  0  0  0  0  0
    0.9090   70.1788   61.0998 H   0  0  0  0  0  0  0  0  0  0  0  0
   -0.3140   68.8631   61.0998 H   0  0  0  0  0  0  0  0  0  0  0  0
    1.2354   67.9326   62.5203 H   0  0  0  0  0  0  0  0  0  0  0  0
    1.7897   69.5690   63.1140 H   0  0  0  0  0  0  0  0  0  0  0  0
    6.0581   71.1753   69.2035 H   0  0  0  0  0  0  0  0  0  0  0  0
    5.4447   69.4700   68.8659 H   0  0  0  0  0  0  0  0  0  0  0  0
    5.3984   71.5711   66.7323 H   0  0  0  0  0  0  0  0  0  0  0  0
    6.9165   70.6077   67.1517 H   0  0  0  0  0  0  0  0  0  0  0  0
    6.0389   68.6283   66.4141 H   0  0  0  0  0  0  0  0  0  0  0  0
    4.3283   69.2633   66.4773 H   0  0  0  0  0  0  0  0  0  0  0  0
    5.3049   70.9235   64.6356 H   0  0  0  0  0  0  0  0  0  0  0  0
    6.4023   69.4889   64.3642 H   0  0  0  0  0  0  0  0  0  0  0  0
    4.0127   68.2414   64.4605 H   0  0  0  0  0  0  0  0  0  0  0  0
    3.5309   69.8623   63.7695 H   0  0  0  0  0  0  0  0  0  0  0  0
    4.4528   69.4391   61.7892 H   0  0  0  0  0  0  0  0  0  0  0  0
    5.9199   68.6695   62.5535 H   0  0  0  0  0  0  0  0  0  0  0  0
    3.3547   67.4288   61.6158 H   0  0  0  0  0  0  0  0  0  0  0  0
    5.0942   66.8833   61.4635 H   0  0  0  0  0  0  0  0  0  0  0  0
    4.5590   66.8188   64.2062 H   0  0  0  0  0  0  0  0  0  0  0  0
    3.0842   66.1468   63.4456 H   0  0  0  0  0  0  0  0  0  0  0  0
    5.1106   64.7169   63.8525 H   0  0  0  0  0  0  0  0  0  0  0  0
  2  1  1  0
  3  2  1  0
  5  3  1  0
  5  4  1  0
  6  5  2  0
  7  4  1  0
  8  7  1  0
 10  9  1  0
 10  8  1  0
 11  1  1  0
 12 11  1  0
 13 12  1  0
 14 13  1  0
 15 14  1  0
 16 15  1  0
 17 16  1  0
 18 17  1  0
 19 18  1  0
  1 20  1  0
  1 21  1  0
  2 22  1  0
  2 23  1  0
  4 24  1  0
  7 25  1  0
  7 26  1  0
  8 27  1  0
  8 28  1  0
  9 29  1  0
  9 30  1  0
  9 31  1  0
 10 32  1  0
 10 33  1  0
 11 34  1  0
 11 35  1  0
 12 36  1  0
 12 37  1  0
 13 38  1  0
 13 39  1  0
 14 40  1  0
 14 41  1  0
 15 42  1  0
 15 43  1  0
 16 44  1  0
 16 45  1  0
 17 46  1  0
 17 47  1  0
 18 48  1  0
 18 49  1  0
 19 50  1  0
M  END
>  <score>  (8) 
-6.138

$$$$
=
     RDKit          3D

 50 49  0  0  0  0  0  0  0  0999 V2000
    6.0400   70.0710   66.2080 C   0  0  0  0  0  0  0  0  0  0  0  0
    5.5940   70.1540   67.6640 C   0  0  0  0  0  0  0  0  0  0  0  0
    4.3060   70.7840   67.6950 O   0  0  0  0  0  0  0  0  0  0  0  0
    2.6830   69.2830   67.6370 N   0  0  0  0  0  0  0  0  0  0  0  0
    3.3860   70.1260   68.4430 C   0  0  0  0  0  0  0  0  0  0  0  0
    3.2130   70.2740   69.6420 O   0  0  0  0  0  0  0  0  0  0  0  0
    1.5670   68.4980   68.1080 C   0  0  0  0  0  0  0  0  0  0  0  0
    0.2360   69.0760   67.6270 C   0  0  0  0  0  0  0  0  0  0  0  0
   -1.8320   68.6990   66.1820 C   0  0  0  0  0  0  0  0  0  0  0  0
   -0.6010   68.0790   66.8230 C   0  0  0  0  0  0  0  0  0  0  0  0
    4.8930   69.8310   65.2250 C   0  0  0  0  0  0  0  0  0  0  0  0
    5.2860   69.1810   63.8950 C   0  0  0  0  0  0  0  0  0  0  0  0
    4.3160   68.1260   63.3520 C   0  0  0  0  0  0  0  0  0  0  0  0
    3.4760   67.4560   64.4430 C   0  0  0  0  0  0  0  0  0  0  0  0
    1.9730   67.4550   64.1410 C   0  0  0  0  0  0  0  0  0  0  0  0
    1.4180   68.8420   63.8080 C   0  0  0  0  0  0  0  0  0  0  0  0
    0.1180   68.7940   63.0010 C   0  0  0  0  0  0  0  0  0  0  0  0
    0.0030   69.8930   61.9540 C   0  0  0  0  0  0  0  0  0  0  0  0
    0.7810   69.5260   60.8220 O   0  0  0  0  0  0  0  0  0  0  0  0
    6.5330   71.0175   65.9416 H   0  0  0  0  0  0  0  0  0  0  0  0
    6.7168   69.2075   66.1284 H   0  0  0  0  0  0  0  0  0  0  0  0
    5.5260   69.1431   68.0923 H   0  0  0  0  0  0  0  0  0  0  0  0
    6.3187   70.7340   68.2544 H   0  0  0  0  0  0  0  0  0  0  0  0
    2.9597   69.2020   66.6482 H   0  0  0  0  0  0  0  0  0  0  0  0
    1.6680   67.4698   67.7304 H   0  0  0  0  0  0  0  0  0  0  0  0
    1.5734   68.5123   69.2079 H   0  0  0  0  0  0  0  0  0  0  0  0
   -0.3456   69.3916   68.5057 H   0  0  0  0  0  0  0  0  0  0  0  0
    0.4688   69.9190   66.9597 H   0  0  0  0  0  0  0  0  0  0  0  0
   -2.5195   69.0453   66.9678 H   0  0  0  0  0  0  0  0  0  0  0  0
   -1.5296   69.5523   65.5572 H   0  0  0  0  0  0  0  0  0  0  0  0
   -2.3377   67.9480   65.5572 H   0  0  0  0  0  0  0  0  0  0  0  0
   -0.9278   67.2745   67.4983 H   0  0  0  0  0  0  0  0  0  0  0  0
    0.0355   67.7060   66.0071 H   0  0  0  0  0  0  0  0  0  0  0  0
    4.1572   69.1776   65.7166 H   0  0  0  0  0  0  0  0  0  0  0  0
    4.5027   70.8271   64.9692 H   0  0  0  0  0  0  0  0  0  0  0  0
    5.3717   69.9788   63.1425 H   0  0  0  0  0  0  0  0  0  0  0  0
    6.2269   68.6463   64.0921 H   0  0  0  0  0  0  0  0  0  0  0  0
    3.6359   68.6122   62.6371 H   0  0  0  0  0  0  0  0  0  0  0  0
    4.9221   67.3394   62.8787 H   0  0  0  0  0  0  0  0  0  0  0  0
    3.8107   66.4136   64.5497 H   0  0  0  0  0  0  0  0  0  0  0  0
    3.6209   68.0363   65.3662 H   0  0  0  0  0  0  0  0  0  0  0  0
    1.7904   66.7914   63.2830 H   0  0  0  0  0  0  0  0  0  0  0  0
    1.4597   67.1101   65.0507 H   0  0  0  0  0  0  0  0  0  0  0  0
    1.2252   69.3767   64.7498 H   0  0  0  0  0  0  0  0  0  0  0  0
    2.1687   69.3541   63.1881 H   0  0  0  0  0  0  0  0  0  0  0  0
    0.0628   67.8214   62.4902 H   0  0  0  0  0  0  0  0  0  0  0  0
   -0.7067   68.9432   63.7135 H   0  0  0  0  0  0  0  0  0  0  0  0
   -1.0493   70.0129   61.6570 H   0  0  0  0  0  0  0  0  0  0  0  0
    0.3679   70.8448   62.3675 H   0  0  0  0  0  0  0  0  0  0  0  0
    1.6337   69.1238   61.1240 H   0  0  0  0  0  0  0  0  0  0  0  0
  2  1  1  0
  3  2  1  0
  5  3  1  0
  5  4  1  0
  6  5  2  0
  7  4  1  0
  8  7  1  0
 10  9  1  0
 10  8  1  0
 11  1  1  0
 12 11  1  0
 13 12  1  0
 14 13  1  0
 15 14  1  0
 16 15  1  0
 17 16  1  0
 18 17  1  0
 19 18  1  0
  1 20  1  0
  1 21  1  0
  2 22  1  0
  2 23  1  0
  4 24  1  0
  7 25  1  0
  7 26  1  0
  8 27  1  0
  8 28  1  0
  9 29  1  0
  9 30  1  0
  9 31  1  0
 10 32  1  0
 10 33  1  0
 11 34  1  0
 11 35  1  0
 12 36  1  0
 12 37  1  0
 13 38  1  0
 13 39  1  0
 14 40  1  0
 14 41  1  0
 15 42  1  0
 15 43  1  0
 16 44  1  0
 16 45  1  0
 17 46  1  0
 17 47  1  0
 18 48  1  0
 18 49  1  0
 19 50  1  0
M  END
>  <score>  (9) 
-6.108

$$$$
