=
     RDKit          3D

 54 55  0  0  0  0  0  0  0  0999 V2000
    1.2220   68.9980   65.3310 C   0  0  0  0  0  0  0  0  0  0  0  0
    0.6890   69.2050   66.5610 C   0  0  0  0  0  0  0  0  0  0  0  0
    1.5320   69.4220   67.6440 N   0  0  0  0  0  0  0  0  0  0  0  0
    2.9090   69.5640   67.5510 C   0  0  0  0  0  0  0  0  0  0  0  0
    3.5210   69.3470   66.3650 C   0  0  0  0  0  0  0  0  0  0  0  0
    2.7360   68.9590   65.1180 C   0  0  1  0  0  0  0  0  0  0  0  0
    3.6100   70.0120   68.8090 C   0  0  0  0  0  0  0  0  0  0  0  0
    3.2650   67.6510   64.5120 C   0  0  0  0  0  0  0  0  0  0  0  0
    2.9230   66.4460   65.1660 C   0  0  0  0  0  0  0  0  0  0  0  0
    3.3450   65.2070   64.6800 C   0  0  0  0  0  0  0  0  0  0  0  0
    4.1150   65.1420   63.5250 C   0  0  0  0  0  0  0  0  0  0  0  0
    4.4570   66.3150   62.8560 C   0  0  0  0  0  0  0  0  0  0  0  0
    4.0350   67.5620   63.3370 C   0  0  0  0  0  0  0  0  0  0  0  0
    4.5110   68.9410   62.4130 Cl  0  0  0  0  0  0  0  0  0  0  0  0
    0.3410   68.9800   64.1430 C   0  0  0  0  0  0  0  0  0  0  0  0
   -0.7090   68.3440   64.0940 O   0  0  0  0  0  0  0  0  0  0  0  0
    0.8660   69.7200   63.1480 O   0  0  0  0  0  0  0  0  0  0  0  0
   -0.0210   69.9220   60.9080 C   0  0  0  0  0  0  0  0  0  0  0  0
    0.8900   69.1400   61.8350 C   0  0  0  0  0  0  0  0  0  0  0  0
    4.9700   69.5340   66.1510 C   0  0  0  0  0  0  0  0  0  0  0  0
    5.6860   68.6620   65.6820 O   0  0  0  0  0  0  0  0  0  0  0  0
    5.3630   70.7440   66.6140 O   0  0  0  0  0  0  0  0  0  0  0  0
    6.6680   70.7470   67.1910 C   0  0  0  0  0  0  0  0  0  0  0  0
   -0.7960   69.2010   66.8600 C   0  0  0  0  0  0  0  0  0  0  0  0
   -1.1290   67.9130   67.3830 O   0  0  0  0  0  0  0  0  0  0  0  0
   -2.4880   67.5380   67.1510 C   0  0  0  0  0  0  0  0  0  0  0  0
   -3.0830   68.3410   65.9900 C   0  0  0  0  0  0  0  0  0  0  0  0
   -4.4820   68.7160   66.3120 N   0  0  0  0  0  4  0  0  0  0  0  0
    1.1056   69.4815   68.5797 H   0  0  0  0  0  0  0  0  0  0  0  0
    2.9123   69.7326   64.3561 H   0  0  0  0  0  0  0  0  0  0  0  0
    3.0515   69.6551   69.6869 H   0  0  0  0  0  0  0  0  0  0  0  0
    4.6285   69.5970   68.8288 H   0  0  0  0  0  0  0  0  0  0  0  0
    3.6612   71.1106   68.8288 H   0  0  0  0  0  0  0  0  0  0  0  0
    2.3104   66.4850   66.0788 H   0  0  0  0  0  0  0  0  0  0  0  0
    3.0684   64.2839   65.2105 H   0  0  0  0  0  0  0  0  0  0  0  0
    4.4530   64.1683   63.1406 H   0  0  0  0  0  0  0  0  0  0  0  0
    5.0646   66.2620   61.9406 H   0  0  0  0  0  0  0  0  0  0  0  0
   -0.7221   70.5239   61.5048 H   0  0  0  0  0  0  0  0  0  0  0  0
    0.5842   70.5861   60.2735 H   0  0  0  0  0  0  0  0  0  0  0  0
   -0.5858   69.2231   60.2735 H   0  0  0  0  0  0  0  0  0  0  0  0
    0.5451   68.0970   61.8907 H   0  0  0  0  0  0  0  0  0  0  0  0
    1.9177   69.1716   61.4440 H   0  0  0  0  0  0  0  0  0  0  0  0
    6.5840   70.7468   68.2878 H   0  0  0  0  0  0  0  0  0  0  0  0
    7.2151   69.8501   66.8650 H   0  0  0  0  0  0  0  0  0  0  0  0
    7.2110   71.6464   66.8650 H   0  0  0  0  0  0  0  0  0  0  0  0
   -1.0313   69.9789   67.6013 H   0  0  0  0  0  0  0  0  0  0  0  0
   -1.3740   69.4082   65.9473 H   0  0  0  0  0  0  0  0  0  0  0  0
   -2.5298   66.4662   66.9070 H   0  0  0  0  0  0  0  0  0  0  0  0
   -3.0715   67.7467   68.0598 H   0  0  0  0  0  0  0  0  0  0  0  0
   -2.4869   69.2517   65.8309 H   0  0  0  0  0  0  0  0  0  0  0  0
   -3.0692   67.7286   65.0763 H   0  0  0  0  0  0  0  0  0  0  0  0
   -4.6022   68.7482   67.3345 H   0  0  0  0  0  0  0  0  0  0  0  0
   -4.6898   69.6424   65.9125 H   0  0  0  0  0  0  0  0  0  0  0  0
   -5.1252   68.0177   65.9125 H   0  0  0  0  0  0  0  0  0  0  0  0
  2  1  2  0
  3  2  1  0
  4  3  1  0
  5  4  2  0
  6  1  1  0
  6  5  1  0
  7  4  1  0
  8  6  1  0
  9  8  2  0
 10  9  1  0
 11 10  2  0
 12 11  1  0
 13 12  2  0
 13  8  1  0
 14 13  1  0
 15  1  1  0
 16 15  2  0
 17 15  1  0
 19 18  1  0
 19 17  1  0
 20  5  1  0
 21 20  2  0
 22 20  1  0
 23 22  1  0
 24  2  1  0
 25 24  1  0
 26 25  1  0
 27 26  1  0
 28 27  1  0
  3 29  1  0
  6 30  1  6
  7 31  1  0
  7 32  1  0
  7 33  1  0
  9 34  1  0
 10 35  1  0
 11 36  1  0
 12 37  1  0
 18 38  1  0
 18 39  1  0
 18 40  1  0
 19 41  1  0
 19 42  1  0
 23 43  1  0
 23 44  1  0
 23 45  1  0
 24 46  1  0
 24 47  1  0
 26 48  1  0
 26 49  1  0
 27 50  1  0
 27 51  1  0
 28 52  1  0
 28 53  1  0
 28 54  1  0
M  CHG  1  28   1
M  END
>  <score>  (1) 
-8.651

$$$$
=
     RDKit          3D

 54 55  0  0  0  0  0  0  0  0999 V2000
    3.0610   67.0210   65.0890 C   0  0  0  0  0  0  0  0  0  0  0  0
    4.0810   67.4920   64.3290 C   0  0  0  0  0  0  0  0  0  0  0  0
    4.6760   68.7040   64.6570 N   0  0  0  0  0  0  0  0  0  0  0  0
    4.3830   69.4390   65.7970 C   0  0  0  0  0  0  0  0  0  0  0  0
    3.3620   69.0530   66.5920 C   0  0  0  0  0  0  0  0  0  0  0  0
    2.5250   67.8190   66.2780 C   0  0  1  0  0  0  0  0  0  0  0  0
    5.2940   70.6080   66.0760 C   0  0  0  0  0  0  0  0  0  0  0  0
    1.0310   68.1660   66.1970 C   0  0  0  0  0  0  0  0  0  0  0  0
    0.5670   68.7630   65.0030 C   0  0  0  0  0  0  0  0  0  0  0  0
   -0.7770   69.1000   64.8320 C   0  0  0  0  0  0  0  0  0  0  0  0
   -1.6910   68.8440   65.8470 C   0  0  0  0  0  0  0  0  0  0  0  0
   -1.2600   68.2460   67.0290 C   0  0  0  0  0  0  0  0  0  0  0  0
    0.0870   67.9040   67.2070 C   0  0  0  0  0  0  0  0  0  0  0  0
    0.4950   67.1560   68.7090 Cl  0  0  0  0  0  0  0  0  0  0  0  0
    2.5660   65.6430   64.8820 C   0  0  0  0  0  0  0  0  0  0  0  0
    1.4790   65.3890   64.3700 O   0  0  0  0  0  0  0  0  0  0  0  0
    3.4490   64.7430   65.3520 O   0  0  0  0  0  0  0  0  0  0  0  0
    4.9140   63.5040   63.8810 C   0  0  0  0  0  0  0  0  0  0  0  0
    3.5920   63.5140   64.6240 C   0  0  0  0  0  0  0  0  0  0  0  0
    3.0140   69.7310   67.8580 C   0  0  0  0  0  0  0  0  0  0  0  0
    1.9250   70.2510   68.0490 O   0  0  0  0  0  0  0  0  0  0  0  0
    4.0800   69.7480   68.6920 O   0  0  0  0  0  0  0  0  0  0  0  0
    4.1200   70.8820   69.5580 C   0  0  0  0  0  0  0  0  0  0  0  0
    4.6280   66.7880   63.1040 C   0  0  0  0  0  0  0  0  0  0  0  0
    3.6610   66.9200   62.0600 O   0  0  0  0  0  0  0  0  0  0  0  0
    3.4100   68.2750   61.6840 C   0  0  0  0  0  0  0  0  0  0  0  0
    1.9540   68.6570   61.9680 C   0  0  0  0  0  0  0  0  0  0  0  0
    1.3870   69.3580   60.7880 N   0  0  0  0  0  4  0  0  0  0  0  0
    5.3825   69.0826   64.0101 H   0  0  0  0  0  0  0  0  0  0  0  0
    2.6237   67.1228   67.1239 H   0  0  0  0  0  0  0  0  0  0  0  0
    5.3976   70.7409   67.1630 H   0  0  0  0  0  0  0  0  0  0  0  0
    6.2829   70.4158   65.6342 H   0  0  0  0  0  0  0  0  0  0  0  0
    4.8660   71.5200   65.6342 H   0  0  0  0  0  0  0  0  0  0  0  0
    1.2803   68.9666   64.1907 H   0  0  0  0  0  0  0  0  0  0  0  0
   -1.1122   69.5678   63.8946 H   0  0  0  0  0  0  0  0  0  0  0  0
   -2.7499   69.1123   65.7177 H   0  0  0  0  0  0  0  0  0  0  0  0
   -1.9845   68.0402   67.8307 H   0  0  0  0  0  0  0  0  0  0  0  0
    5.7417   63.4977   64.6055 H   0  0  0  0  0  0  0  0  0  0  0  0
    4.9728   62.6054   63.2493 H   0  0  0  0  0  0  0  0  0  0  0  0
    4.9864   64.4016   63.2493 H   0  0  0  0  0  0  0  0  0  0  0  0
    2.7674   63.4198   63.9021 H   0  0  0  0  0  0  0  0  0  0  0  0
    3.5672   62.6705   65.3297 H   0  0  0  0  0  0  0  0  0  0  0  0
    4.1081   70.5445   70.6049 H   0  0  0  0  0  0  0  0  0  0  0  0
    5.0390   71.4560   69.3682 H   0  0  0  0  0  0  0  0  0  0  0  0
    3.2438   71.5194   69.3682 H   0  0  0  0  0  0  0  0  0  0  0  0
    5.5767   67.2526   62.7971 H   0  0  0  0  0  0  0  0  0  0  0  0
    4.8179   65.7266   63.3218 H   0  0  0  0  0  0  0  0  0  0  0  0
    4.0752   68.9376   62.2572 H   0  0  0  0  0  0  0  0  0  0  0  0
    3.5991   68.3827   60.6057 H   0  0  0  0  0  0  0  0  0  0  0  0
    1.3691   67.7476   62.1703 H   0  0  0  0  0  0  0  0  0  0  0  0
    1.9134   69.3214   62.8437 H   0  0  0  0  0  0  0  0  0  0  0  0
    0.7706   70.1200   61.1048 H   0  0  0  0  0  0  0  0  0  0  0  0
    2.1524   69.7490   60.2204 H   0  0  0  0  0  0  0  0  0  0  0  0
    0.8447   68.6912   60.2204 H   0  0  0  0  0  0  0  0  0  0  0  0
  2  1  2  0
  3  2  1  0
  4  3  1  0
  5  4  2  0
  6  1  1  0
  6  5  1  0
  7  4  1  0
  8  6  1  0
  9  8  2  0
 10  9  1  0
 11 10  2  0
 12 11  1  0
 13 12  2  0
 13  8  1  0
 14 13  1  0
 15  1  1  0
 16 15  2  0
 17 15  1  0
 19 18  1  0
 19 17  1  0
 20  5  1  0
 21 20  2  0
 22 20  1  0
 23 22  1  0
 24  2  1  0
 25 24  1  0
 26 25  1  0
 27 26  1  0
 28 27  1  0
  3 29  1  0
  6 30  1  1
  7 31  1  0
  7 32  1  0
  7 33  1  0
  9 34  1  0
 10 35  1  0
 11 36  1  0
 12 37  1  0
 18 38  1  0
 18 39  1  0
 18 40  1  0
 19 41  1  0
 19 42  1  0
 23 43  1  0
 23 44  1  0
 23 45  1  0
 24 46  1  0
 24 47  1  0
 26 48  1  0
 26 49  1  0
 27 50  1  0
 27 51  1  0
 28 52  1  0
 28 53  1  0
 28 54  1  0
M  CHG  1  28   1
M  END
>  <score>  (2) 
-8.139

$$$$
=
     RDKit          3D

 54 55  0  0  0  0  0  0  0  0999 V2000
    1.2050   68.9050   65.3260 C   0  0  0  0  0  0  0  0  0  0  0  0
    0.7280   69.1120   66.5780 C   0  0  0  0  0  0  0  0  0  0  0  0
    1.6130   69.4120   67.6070 N   0  0  0  0  0  0  0  0  0  0  0  0
    2.9700   69.6400   67.4330 C   0  0  0  0  0  0  0  0  0  0  0  0
    3.5290   69.4290   66.2210 C   0  0  0  0  0  0  0  0  0  0  0  0
    2.7050   68.9570   65.0300 C   0  0  1  0  0  0  0  0  0  0  0  0
    3.7080   70.1670   68.6390 C   0  0  0  0  0  0  0  0  0  0  0  0
    3.2850   67.6700   64.4270 C   0  0  0  0  0  0  0  0  0  0  0  0
    3.1430   66.4800   65.1760 C   0  0  0  0  0  0  0  0  0  0  0  0
    3.6250   65.2580   64.7020 C   0  0  0  0  0  0  0  0  0  0  0  0
    4.2560   65.1950   63.4650 C   0  0  0  0  0  0  0  0  0  0  0  0
    4.3980   66.3520   62.7030 C   0  0  0  0  0  0  0  0  0  0  0  0
    3.9160   67.5810   63.1720 C   0  0  0  0  0  0  0  0  0  0  0  0
    4.1400   68.9400   62.1300 Cl  0  0  0  0  0  0  0  0  0  0  0  0
    0.2640   68.7970   64.1900 C   0  0  0  0  0  0  0  0  0  0  0  0
   -0.6280   67.9550   64.1340 O   0  0  0  0  0  0  0  0  0  0  0  0
    0.5470   69.7160   63.2470 O   0  0  0  0  0  0  0  0  0  0  0  0
    0.4280   69.7990   60.8340 C   0  0  0  0  0  0  0  0  0  0  0  0
   -0.3530   69.8180   62.1330 C   0  0  0  0  0  0  0  0  0  0  0  0
    4.9500   69.7040   65.9210 C   0  0  0  0  0  0  0  0  0  0  0  0
    5.3350   70.0520   64.8150 O   0  0  0  0  0  0  0  0  0  0  0  0
    5.7200   69.4380   67.0020 O   0  0  0  0  0  0  0  0  0  0  0  0
    6.7940   70.3590   67.1890 C   0  0  0  0  0  0  0  0  0  0  0  0
   -0.7350   69.0200   66.9610 C   0  0  0  0  0  0  0  0  0  0  0  0
   -0.9730   67.7000   67.4550 O   0  0  0  0  0  0  0  0  0  0  0  0
    0.0500   67.2280   68.3320 C   0  0  0  0  0  0  0  0  0  0  0  0
   -0.5080   66.1870   69.3070 C   0  0  0  0  0  0  0  0  0  0  0  0
    0.4110   66.0500   70.4650 N   0  0  0  0  0  4  0  0  0  0  0  0
    1.2354   69.4688   68.5636 H   0  0  0  0  0  0  0  0  0  0  0  0
    2.7886   69.7189   64.2410 H   0  0  0  0  0  0  0  0  0  0  0  0
    3.2128   69.8134   69.5553 H   0  0  0  0  0  0  0  0  0  0  0  0
    4.7466   69.8050   68.6204 H   0  0  0  0  0  0  0  0  0  0  0  0
    3.7027   71.2668   68.6204 H   0  0  0  0  0  0  0  0  0  0  0  0
    2.6415   66.5171   66.1543 H   0  0  0  0  0  0  0  0  0  0  0  0
    3.5055   64.3468   65.3065 H   0  0  0  0  0  0  0  0  0  0  0  0
    4.6415   64.2355   63.0897 H   0  0  0  0  0  0  0  0  0  0  0  0
    4.8939   66.3004   61.7225 H   0  0  0  0  0  0  0  0  0  0  0  0
    1.5054   69.7728   61.0543 H   0  0  0  0  0  0  0  0  0  0  0  0
    0.1508   68.9073   60.2525 H   0  0  0  0  0  0  0  0  0  0  0  0
    0.1945   70.7031   60.2525 H   0  0  0  0  0  0  0  0  0  0  0  0
   -0.9174   70.7594   62.2053 H   0  0  0  0  0  0  0  0  0  0  0  0
   -1.0476   68.9652   62.1499 H   0  0  0  0  0  0  0  0  0  0  0  0
    6.9668   70.5072   68.2652 H   0  0  0  0  0  0  0  0  0  0  0  0
    7.7062   69.9581   66.7230 H   0  0  0  0  0  0  0  0  0  0  0  0
    6.5369   71.3216   66.7230 H   0  0  0  0  0  0  0  0  0  0  0  0
   -0.9649   69.7595   67.7423 H   0  0  0  0  0  0  0  0  0  0  0  0
   -1.3748   69.2266   66.0904 H   0  0  0  0  0  0  0  0  0  0  0  0
    0.8531   66.7700   67.7360 H   0  0  0  0  0  0  0  0  0  0  0  0
    0.4400   68.0791   68.9096 H   0  0  0  0  0  0  0  0  0  0  0  0
   -1.4981   66.5100   69.6610 H   0  0  0  0  0  0  0  0  0  0  0  0
   -0.5995   65.2176   68.7952 H   0  0  0  0  0  0  0  0  0  0  0  0
   -0.1256   66.1300   71.3405 H   0  0  0  0  0  0  0  0  0  0  0  0
    0.8741   65.1307   70.4289 H   0  0  0  0  0  0  0  0  0  0  0  0
    1.1221   66.7943   70.4289 H   0  0  0  0  0  0  0  0  0  0  0  0
  2  1  2  0
  3  2  1  0
  4  3  1  0
  5  4  2  0
  6  1  1  0
  6  5  1  0
  7  4  1  0
  8  6  1  0
  9  8  2  0
 10  9  1  0
 11 10  2  0
 12 11  1  0
 13 12  2  0
 13  8  1  0
 14 13  1  0
 15  1  1  0
 16 15  2  0
 17 15  1  0
 19 18  1  0
 19 17  1  0
 20  5  1  0
 21 20  2  0
 22 20  1  0
 23 22  1  0
 24  2  1  0
 25 24  1  0
 26 25  1  0
 27 26  1  0
 28 27  1  0
  3 29  1  0
  6 30  1  6
  7 31  1  0
  7 32  1  0
  7 33  1  0
  9 34  1  0
 10 35  1  0
 11 36  1  0
 12 37  1  0
 18 38  1  0
 18 39  1  0
 18 40  1  0
 19 41  1  0
 19 42  1  0
 23 43  1  0
 23 44  1  0
 23 45  1  0
 24 46  1  0
 24 47  1  0
 26 48  1  0
 26 49  1  0
 27 50  1  0
 27 51  1  0
 28 52  1  0
 28 53  1  0
 28 54  1  0
M  CHG  1  28   1
M  END
>  <score>  (3) 
-7.571

$$$$
=
     RDKit          3D

 54 55  0  0  0  0  0  0  0  0999 V2000
    2.6850   61.7690   73.1480 C   0  0  0  0  0  0  0  0  0  0  0  0
    2.1550   62.8930   72.6050 C   0  0  0  0  0  0  0  0  0  0  0  0
    1.1650   63.5840   73.2930 N   0  0  0  0  0  0  0  0  0  0  0  0
    0.7420   63.2780   74.5790 C   0  0  0  0  0  0  0  0  0  0  0  0
    1.2020   62.1580   75.1800 C   0  0  0  0  0  0  0  0  0  0  0  0
    2.1860   61.2240   74.4870 C   0  0  1  0  0  0  0  0  0  0  0  0
   -0.1800   64.2810   75.2240 C   0  0  0  0  0  0  0  0  0  0  0  0
    1.6450   59.7880   74.4320 C   0  0  0  0  0  0  0  0  0  0  0  0
    0.4540   59.5690   73.7050 C   0  0  0  0  0  0  0  0  0  0  0  0
   -0.1050   58.2940   73.5880 C   0  0  0  0  0  0  0  0  0  0  0  0
    0.5170   57.2070   74.1890 C   0  0  0  0  0  0  0  0  0  0  0  0
    1.6990   57.3950   74.9020 C   0  0  0  0  0  0  0  0  0  0  0  0
    2.2660   58.6700   75.0230 C   0  0  0  0  0  0  0  0  0  0  0  0
    3.7380   58.7720   75.9200 Cl  0  0  0  0  0  0  0  0  0  0  0  0
    3.8790   61.1500   72.5340 C   0  0  0  0  0  0  0  0  0  0  0  0
    5.0290   61.4570   72.8390 O   0  0  0  0  0  0  0  0  0  0  0  0
    3.5220   60.2500   71.5980 O   0  0  0  0  0  0  0  0  0  0  0  0
    2.9320   57.9200   71.3380 C   0  0  0  0  0  0  0  0  0  0  0  0
    4.0050   58.9070   71.7550 C   0  0  0  0  0  0  0  0  0  0  0  0
    0.8610   61.7800   76.5670 C   0  0  0  0  0  0  0  0  0  0  0  0
    1.6640   61.8520   77.4860 O   0  0  0  0  0  0  0  0  0  0  0  0
   -0.3990   61.2900   76.6260 O   0  0  0  0  0  0  0  0  0  0  0  0
   -0.5300   60.1240   77.4390 C   0  0  0  0  0  0  0  0  0  0  0  0
    2.5560   63.4630   71.2600 C   0  0  0  0  0  0  0  0  0  0  0  0
    1.6860   62.9020   70.2750 O   0  0  0  0  0  0  0  0  0  0  0  0
    2.3660   62.1150   69.2960 C   0  0  0  0  0  0  0  0  0  0  0  0
    3.6990   62.7620   68.9070 C   0  0  0  0  0  0  0  0  0  0  0  0
    3.6380   63.2120   67.4940 N   0  0  0  0  0  4  0  0  0  0  0  0
    0.7142   64.3777   72.8159 H   0  0  0  0  0  0  0  0  0  0  0  0
    3.0951   61.1777   75.1046 H   0  0  0  0  0  0  0  0  0  0  0  0
   -0.1040   64.1983   76.3182 H   0  0  0  0  0  0  0  0  0  0  0  0
    0.1068   65.2962   74.9122 H   0  0  0  0  0  0  0  0  0  0  0  0
   -1.2157   64.0805   74.9122 H   0  0  0  0  0  0  0  0  0  0  0  0
   -0.0445   60.4213   73.2201 H   0  0  0  0  0  0  0  0  0  0  0  0
   -1.0365   58.1511   73.0207 H   0  0  0  0  0  0  0  0  0  0  0  0
    0.0781   56.2021   74.1023 H   0  0  0  0  0  0  0  0  0  0  0  0
    2.1922   56.5330   75.3749 H   0  0  0  0  0  0  0  0  0  0  0  0
    2.4626   57.4883   72.2343 H   0  0  0  0  0  0  0  0  0  0  0  0
    2.1695   58.4389   70.7386 H   0  0  0  0  0  0  0  0  0  0  0  0
    3.3855   57.1169   70.7386 H   0  0  0  0  0  0  0  0  0  0  0  0
    4.2687   58.7352   72.8090 H   0  0  0  0  0  0  0  0  0  0  0  0
    4.8930   58.7654   71.1214 H   0  0  0  0  0  0  0  0  0  0  0  0
   -0.4977   60.4115   78.5003 H   0  0  0  0  0  0  0  0  0  0  0  0
   -1.4892   59.6313   77.2216 H   0  0  0  0  0  0  0  0  0  0  0  0
    0.2959   59.4307   77.2216 H   0  0  0  0  0  0  0  0  0  0  0  0
    2.4529   64.5581   71.2712 H   0  0  0  0  0  0  0  0  0  0  0  0
    3.6041   63.2174   71.0339 H   0  0  0  0  0  0  0  0  0  0  0  0
    2.5582   61.1136   69.7085 H   0  0  0  0  0  0  0  0  0  0  0  0
    1.7333   62.0450   68.3989 H   0  0  0  0  0  0  0  0  0  0  0  0
    3.8907   63.6269   69.5591 H   0  0  0  0  0  0  0  0  0  0  0  0
    4.5100   62.0279   69.0229 H   0  0  0  0  0  0  0  0  0  0  0  0
    3.4997   64.2322   67.4643 H   0  0  0  0  0  0  0  0  0  0  0  0
    4.5194   62.9710   67.0186 H   0  0  0  0  0  0  0  0  0  0  0  0
    2.8526   62.7451   67.0186 H   0  0  0  0  0  0  0  0  0  0  0  0
  2  1  2  0
  3  2  1  0
  4  3  1  0
  5  4  2  0
  6  1  1  0
  6  5  1  0
  7  4  1  0
  8  6  1  0
  9  8  2  0
 10  9  1  0
 11 10  2  0
 12 11  1  0
 13 12  2  0
 13  8  1  0
 14 13  1  0
 15  1  1  0
 16 15  2  0
 17 15  1  0
 19 18  1  0
 19 17  1  0
 20  5  1  0
 21 20  2  0
 22 20  1  0
 23 22  1  0
 24  2  1  0
 25 24  1  0
 26 25  1  0
 27 26  1  0
 28 27  1  0
  3 29  1  0
  6 30  1  1
  7 31  1  0
  7 32  1  0
  7 33  1  0
  9 34  1  0
 10 35  1  0
 11 36  1  0
 12 37  1  0
 18 38  1  0
 18 39  1  0
 18 40  1  0
 19 41  1  0
 19 42  1  0
 23 43  1  0
 23 44  1  0
 23 45  1  0
 24 46  1  0
 24 47  1  0
 26 48  1  0
 26 49  1  0
 27 50  1  0
 27 51  1  0
 28 52  1  0
 28 53  1  0
 28 54  1  0
M  CHG  1  28   1
M  END
>  <score>  (4) 
-7.192

$$$$
=
     RDKit          3D

 54 55  0  0  0  0  0  0  0  0999 V2000
    2.5670   59.9660   72.9870 C   0  0  0  0  0  0  0  0  0  0  0  0
    2.7850   60.0790   74.3210 C   0  0  0  0  0  0  0  0  0  0  0  0
    2.3340   61.2070   74.9950 N   0  0  0  0  0  0  0  0  0  0  0  0
    1.5550   62.2040   74.4240 C   0  0  0  0  0  0  0  0  0  0  0  0
    1.3160   62.1790   73.0950 C   0  0  0  0  0  0  0  0  0  0  0  0
    1.8690   61.0770   72.2010 C   0  0  1  0  0  0  0  0  0  0  0  0
    0.9900   63.2240   75.3800 C   0  0  0  0  0  0  0  0  0  0  0  0
    2.6940   61.6590   71.0440 C   0  0  0  0  0  0  0  0  0  0  0  0
    2.0450   61.8190   69.7990 C   0  0  0  0  0  0  0  0  0  0  0  0
    2.7090   62.3550   68.6940 C   0  0  0  0  0  0  0  0  0  0  0  0
    4.0370   62.7490   68.8080 C   0  0  0  0  0  0  0  0  0  0  0  0
    4.6960   62.6120   70.0280 C   0  0  0  0  0  0  0  0  0  0  0  0
    4.0350   62.0770   71.1410 C   0  0  0  0  0  0  0  0  0  0  0  0
    4.9540   61.9710   72.5990 Cl  0  0  0  0  0  0  0  0  0  0  0  0
    2.8490   58.6860   72.3030 C   0  0  0  0  0  0  0  0  0  0  0  0
    3.9380   58.4170   71.8010 O   0  0  0  0  0  0  0  0  0  0  0  0
    1.7550   57.9010   72.2900 O   0  0  0  0  0  0  0  0  0  0  0  0
    0.4540   56.5140   73.7830 C   0  0  0  0  0  0  0  0  0  0  0  0
    1.7880   56.7090   73.0900 C   0  0  0  0  0  0  0  0  0  0  0  0
    0.4480   63.1570   72.4060 C   0  0  0  0  0  0  0  0  0  0  0  0
   -0.7060   62.9090   72.0930 O   0  0  0  0  0  0  0  0  0  0  0  0
    1.1410   64.2850   72.1230 O   0  0  0  0  0  0  0  0  0  0  0  0
    0.6260   65.0190   71.0130 C   0  0  0  0  0  0  0  0  0  0  0  0
    3.5180   59.0500   75.1570 C   0  0  0  0  0  0  0  0  0  0  0  0
    2.5740   58.4720   76.0610 O   0  0  0  0  0  0  0  0  0  0  0  0
    3.0280   57.2570   76.6590 C   0  0  0  0  0  0  0  0  0  0  0  0
    4.5090   57.0190   76.3510 C   0  0  0  0  0  0  0  0  0  0  0  0
    5.2400   56.7410   77.6130 N   0  0  0  0  0  4  0  0  0  0  0  0
    2.5955   61.3106   75.9859 H   0  0  0  0  0  0  0  0  0  0  0  0
    1.0151   60.5675   71.7305 H   0  0  0  0  0  0  0  0  0  0  0  0
    1.1712   62.8968   76.4145 H   0  0  0  0  0  0  0  0  0  0  0  0
    1.4790   64.1948   75.2115 H   0  0  0  0  0  0  0  0  0  0  0  0
   -0.0924   63.3244   75.2115 H   0  0  0  0  0  0  0  0  0  0  0  0
    0.9928   61.5144   69.6982 H   0  0  0  0  0  0  0  0  0  0  0  0
    2.1820   62.4653   67.7348 H   0  0  0  0  0  0  0  0  0  0  0  0
    4.5656   63.1672   67.9387 H   0  0  0  0  0  0  0  0  0  0  0  0
    5.7460   62.9272   70.1180 H   0  0  0  0  0  0  0  0  0  0  0  0
    0.6005   56.5354   74.8730 H   0  0  0  0  0  0  0  0  0  0  0  0
   -0.2332   57.3212   73.4894 H   0  0  0  0  0  0  0  0  0  0  0  0
    0.0267   55.5438   73.4894 H   0  0  0  0  0  0  0  0  0  0  0  0
    2.5818   56.7994   73.8461 H   0  0  0  0  0  0  0  0  0  0  0  0
    1.9883   55.8436   72.4412 H   0  0  0  0  0  0  0  0  0  0  0  0
    0.0303   65.8680   71.3795 H   0  0  0  0  0  0  0  0  0  0  0  0
    1.4606   65.3933   70.4019 H   0  0  0  0  0  0  0  0  0  0  0  0
   -0.0099   64.3615   70.4019 H   0  0  0  0  0  0  0  0  0  0  0  0
    3.9394   58.2698   74.5060 H   0  0  0  0  0  0  0  0  0  0  0  0
    4.3433   59.5210   75.7111 H   0  0  0  0  0  0  0  0  0  0  0  0
    2.8918   57.3186   77.7488 H   0  0  0  0  0  0  0  0  0  0  0  0
    2.4436   56.4214   76.2465 H   0  0  0  0  0  0  0  0  0  0  0  0
    4.6085   56.1587   75.6728 H   0  0  0  0  0  0  0  0  0  0  0  0
    4.9319   57.9147   75.8727 H   0  0  0  0  0  0  0  0  0  0  0  0
    4.6375   56.9701   78.4164 H   0  0  0  0  0  0  0  0  0  0  0  0
    5.4959   55.7439   77.6491 H   0  0  0  0  0  0  0  0  0  0  0  0
    6.0938   57.3161   77.6491 H   0  0  0  0  0  0  0  0  0  0  0  0
  2  1  2  0
  3  2  1  0
  4  3  1  0
  5  4  2  0
  6  1  1  0
  6  5  1  0
  7  4  1  0
  8  6  1  0
  9  8  2  0
 10  9  1  0
 11 10  2  0
 12 11  1  0
 13 12  2  0
 13  8  1  0
 14 13  1  0
 15  1  1  0
 16 15  2  0
 17 15  1  0
 19 18  1  0
 19 17  1  0
 20  5  1  0
 21 20  2  0
 22 20  1  0
 23 22  1  0
 24  2  1  0
 25 24  1  0
 26 25  1  0
 27 26  1  0
 28 27  1  0
  3 29  1  0
  6 30  1  6
  7 31  1  0
  7 32  1  0
  7 33  1  0
  9 34  1  0
 10 35  1  0
 11 36  1  0
 12 37  1  0
 18 38  1  0
 18 39  1  0
 18 40  1  0
 19 41  1  0
 19 42  1  0
 23 43  1  0
 23 44  1  0
 23 45  1  0
 24 46  1  0
 24 47  1  0
 26 48  1  0
 26 49  1  0
 27 50  1  0
 27 51  1  0
 28 52  1  0
 28 53  1  0
 28 54  1  0
M  CHG  1  28   1
M  END
>  <score>  (5) 
-7.148

$$$$
=
     RDKit          3D

 54 55  0  0  0  0  0  0  0  0999 V2000
    1.8080   61.4000   72.4560 C   0  0  0  0  0  0  0  0  0  0  0  0
    1.7100   62.0970   71.2960 C   0  0  0  0  0  0  0  0  0  0  0  0
    1.0180   63.3020   71.2780 N   0  0  0  0  0  0  0  0  0  0  0  0
    0.5030   63.9280   72.4040 C   0  0  0  0  0  0  0  0  0  0  0  0
    0.5360   63.2880   73.5940 C   0  0  0  0  0  0  0  0  0  0  0  0
    1.1360   61.8950   73.7370 C   0  0  1  0  0  0  0  0  0  0  0  0
   -0.0160   65.3290   72.1970 C   0  0  0  0  0  0  0  0  0  0  0  0
    0.1280   60.9150   74.3530 C   0  0  0  0  0  0  0  0  0  0  0  0
   -1.0840   60.7050   73.6560 C   0  0  0  0  0  0  0  0  0  0  0  0
   -2.0540   59.8210   74.1300 C   0  0  0  0  0  0  0  0  0  0  0  0
   -1.8360   59.1210   75.3100 C   0  0  0  0  0  0  0  0  0  0  0  0
   -0.6450   59.3020   76.0110 C   0  0  0  0  0  0  0  0  0  0  0  0
    0.3340   60.1860   75.5390 C   0  0  0  0  0  0  0  0  0  0  0  0
    1.7710   60.3140   76.4880 Cl  0  0  0  0  0  0  0  0  0  0  0  0
    2.7150   60.2350   72.5370 C   0  0  0  0  0  0  0  0  0  0  0  0
    3.9090   60.3310   72.8090 O   0  0  0  0  0  0  0  0  0  0  0  0
    2.0570   59.0970   72.2490 O   0  0  0  0  0  0  0  0  0  0  0  0
    0.9170   57.2550   73.3230 C   0  0  0  0  0  0  0  0  0  0  0  0
    2.2330   57.9870   73.1420 C   0  0  0  0  0  0  0  0  0  0  0  0
    0.0710   63.8950   74.8580 C   0  0  0  0  0  0  0  0  0  0  0  0
   -1.1110   64.0820   75.1040 O   0  0  0  0  0  0  0  0  0  0  0  0
    1.1270   64.2640   75.6200 O   0  0  0  0  0  0  0  0  0  0  0  0
    1.0310   63.8490   76.9830 C   0  0  0  0  0  0  0  0  0  0  0  0
    2.2970   61.6440   69.9750 C   0  0  0  0  0  0  0  0  0  0  0  0
    2.8200   62.7990   69.3140 O   0  0  0  0  0  0  0  0  0  0  0  0
    4.2470   62.8300   69.2640 C   0  0  0  0  0  0  0  0  0  0  0  0
    4.8260   63.3760   70.5720 C   0  0  0  0  0  0  0  0  0  0  0  0
    5.4890   62.2770   71.3170 N   0  0  0  0  0  4  0  0  0  0  0  0
    0.8779   63.7616   70.3669 H   0  0  0  0  0  0  0  0  0  0  0  0
    1.9653   61.9600   74.4568 H   0  0  0  0  0  0  0  0  0  0  0  0
   -0.1916   65.8030   73.1740 H   0  0  0  0  0  0  0  0  0  0  0  0
    0.7248   65.9148   71.6330 H   0  0  0  0  0  0  0  0  0  0  0  0
   -0.9597   65.2909   71.6330 H   0  0  0  0  0  0  0  0  0  0  0  0
   -1.2665   61.2510   72.7186 H   0  0  0  0  0  0  0  0  0  0  0  0
   -2.9901   59.6786   73.5701 H   0  0  0  0  0  0  0  0  0  0  0  0
   -2.6002   58.4268   75.6895 H   0  0  0  0  0  0  0  0  0  0  0  0
   -0.4721   58.7454   76.9439 H   0  0  0  0  0  0  0  0  0  0  0  0
    0.7070   57.1382   74.3964 H   0  0  0  0  0  0  0  0  0  0  0  0
    0.1082   57.8329   72.8519 H   0  0  0  0  0  0  0  0  0  0  0  0
    0.9814   56.2631   72.8519 H   0  0  0  0  0  0  0  0  0  0  0  0
    2.5821   58.3559   74.1177 H   0  0  0  0  0  0  0  0  0  0  0  0
    2.9760   57.2957   72.7177 H   0  0  0  0  0  0  0  0  0  0  0  0
    1.2294   64.7069   77.6423 H   0  0  0  0  0  0  0  0  0  0  0  0
    0.0198   63.4627   77.1783 H   0  0  0  0  0  0  0  0  0  0  0  0
    1.7698   63.0578   77.1783 H   0  0  0  0  0  0  0  0  0  0  0  0
    3.1029   60.9167   70.1527 H   0  0  0  0  0  0  0  0  0  0  0  0
    1.5266   61.1611   69.3559 H   0  0  0  0  0  0  0  0  0  0  0  0
    4.6242   61.8096   69.1010 H   0  0  0  0  0  0  0  0  0  0  0  0
    4.5563   63.4893   68.4396 H   0  0  0  0  0  0  0  0  0  0  0  0
    5.5616   64.1624   70.3472 H   0  0  0  0  0  0  0  0  0  0  0  0
    4.0148   63.7966   71.1844 H   0  0  0  0  0  0  0  0  0  0  0  0
    5.3906   62.4402   72.3292 H   0  0  0  0  0  0  0  0  0  0  0  0
    5.0482   61.3796   71.0694 H   0  0  0  0  0  0  0  0  0  0  0  0
    6.4884   62.2485   71.0694 H   0  0  0  0  0  0  0  0  0  0  0  0
  2  1  2  0
  3  2  1  0
  4  3  1  0
  5  4  2  0
  6  1  1  0
  6  5  1  0
  7  4  1  0
  8  6  1  0
  9  8  2  0
 10  9  1  0
 11 10  2  0
 12 11  1  0
 13 12  2  0
 13  8  1  0
 14 13  1  0
 15  1  1  0
 16 15  2  0
 17 15  1  0
 19 18  1  0
 19 17  1  0
 20  5  1  0
 21 20  2  0
 22 20  1  0
 23 22  1  0
 24  2  1  0
 25 24  1  0
 26 25  1  0
 27 26  1  0
 28 27  1  0
  3 29  1  0
  6 30  1  1
  7 31  1  0
  7 32  1  0
  7 33  1  0
  9 34  1  0
 10 35  1  0
 11 36  1  0
 12 37  1  0
 18 38  1  0
 18 39  1  0
 18 40  1  0
 19 41  1  0
 19 42  1  0
 23 43  1  0
 23 44  1  0
 23 45  1  0
 24 46  1  0
 24 47  1  0
 26 48  1  0
 26 49  1  0
 27 50  1  0
 27 51  1  0
 28 52  1  0
 28 53  1  0
 28 54  1  0
M  CHG  1  28   1
M  END
>  <score>  (6) 
-7.142

$$$$
=
     RDKit          3D

 54 55  0  0  0  0  0  0  0  0999 V2000
    1.4410   61.6150   72.7960 C   0  0  0  0  0  0  0  0  0  0  0  0
    0.5280   62.5850   72.5390 C   0  0  0  0  0  0  0  0  0  0  0  0
   -0.3770   62.9510   73.5280 N   0  0  0  0  0  0  0  0  0  0  0  0
   -0.3500   62.4780   74.8320 C   0  0  0  0  0  0  0  0  0  0  0  0
    0.5120   61.4920   75.1620 C   0  0  0  0  0  0  0  0  0  0  0  0
    1.4690   60.8890   74.1420 C   0  0  1  0  0  0  0  0  0  0  0  0
   -1.2800   63.1660   75.8000 C   0  0  0  0  0  0  0  0  0  0  0  0
    1.2990   59.3650   74.0520 C   0  0  0  0  0  0  0  0  0  0  0  0
    0.0100   58.8720   73.7500 C   0  0  0  0  0  0  0  0  0  0  0  0
   -0.2380   57.5030   73.6320 C   0  0  0  0  0  0  0  0  0  0  0  0
    0.7980   56.5940   73.8080 C   0  0  0  0  0  0  0  0  0  0  0  0
    2.0810   57.0550   74.0960 C   0  0  0  0  0  0  0  0  0  0  0  0
    2.3370   58.4280   74.2130 C   0  0  0  0  0  0  0  0  0  0  0  0
    3.9680   58.8760   74.5590 Cl  0  0  0  0  0  0  0  0  0  0  0  0
    2.5390   61.3670   71.8370 C   0  0  0  0  0  0  0  0  0  0  0  0
    2.4740   60.5260   70.9440 O   0  0  0  0  0  0  0  0  0  0  0  0
    3.5940   62.1600   72.1030 O   0  0  0  0  0  0  0  0  0  0  0  0
    4.8610   63.3940   70.4550 C   0  0  0  0  0  0  0  0  0  0  0  0
    4.7170   62.0870   71.2110 C   0  0  0  0  0  0  0  0  0  0  0  0
    0.6600   60.9660   76.5350 C   0  0  0  0  0  0  0  0  0  0  0  0
   -0.1920   60.2740   77.0720 O   0  0  0  0  0  0  0  0  0  0  0  0
    1.8030   61.4260   77.0960 O   0  0  0  0  0  0  0  0  0  0  0  0
    2.5760   60.4180   77.7460 C   0  0  0  0  0  0  0  0  0  0  0  0
    0.4010   63.3090   71.2150 C   0  0  0  0  0  0  0  0  0  0  0  0
    0.7450   64.6790   71.4340 O   0  0  0  0  0  0  0  0  0  0  0  0
    1.4240   65.2790   70.3310 C   0  0  0  0  0  0  0  0  0  0  0  0
    0.6090   66.4410   69.7560 C   0  0  0  0  0  0  0  0  0  0  0  0
    1.4960   67.6120   69.5440 N   0  0  0  0  0  4  0  0  0  0  0  0
   -1.1189   63.6194   73.2756 H   0  0  0  0  0  0  0  0  0  0  0  0
    2.4939   61.0536   74.5059 H   0  0  0  0  0  0  0  0  0  0  0  0
   -0.9710   62.9374   76.8307 H   0  0  0  0  0  0  0  0  0  0  0  0
   -1.2394   64.2532   75.6376 H   0  0  0  0  0  0  0  0  0  0  0  0
   -2.3077   62.8091   75.6376 H   0  0  0  0  0  0  0  0  0  0  0  0
   -0.8169   59.5827   73.6045 H   0  0  0  0  0  0  0  0  0  0  0  0
   -1.2518   57.1447   73.4001 H   0  0  0  0  0  0  0  0  0  0  0  0
    0.6060   55.5144   73.7203 H   0  0  0  0  0  0  0  0  0  0  0  0
    2.9008   56.3344   74.2328 H   0  0  0  0  0  0  0  0  0  0  0  0
    4.9524   64.2238   71.1713 H   0  0  0  0  0  0  0  0  0  0  0  0
    5.7602   63.3547   69.8227 H   0  0  0  0  0  0  0  0  0  0  0  0
    3.9748   63.5514   69.8227 H   0  0  0  0  0  0  0  0  0  0  0  0
    4.5614   61.2666   70.4949 H   0  0  0  0  0  0  0  0  0  0  0  0
    5.6315   61.9030   71.7940 H   0  0  0  0  0  0  0  0  0  0  0  0
    2.4871   60.5339   78.8363 H   0  0  0  0  0  0  0  0  0  0  0  0
    2.2057   59.4250   77.4514 H   0  0  0  0  0  0  0  0  0  0  0  0
    3.6311   60.5181   77.4514 H   0  0  0  0  0  0  0  0  0  0  0  0
    1.0854   62.8642   70.4776 H   0  0  0  0  0  0  0  0  0  0  0  0
   -0.6253   63.2267   70.8278 H   0  0  0  0  0  0  0  0  0  0  0  0
    2.3998   65.6565   70.6706 H   0  0  0  0  0  0  0  0  0  0  0  0
    1.5584   64.5207   69.5456 H   0  0  0  0  0  0  0  0  0  0  0  0
    0.1662   66.1381   68.7957 H   0  0  0  0  0  0  0  0  0  0  0  0
   -0.1914   66.7108   70.4607 H   0  0  0  0  0  0  0  0  0  0  0  0
    1.7849   67.9934   70.4561 H   0  0  0  0  0  0  0  0  0  0  0  0
    2.3297   67.3198   69.0144 H   0  0  0  0  0  0  0  0  0  0  0  0
    0.9889   68.3354   69.0144 H   0  0  0  0  0  0  0  0  0  0  0  0
  2  1  2  0
  3  2  1  0
  4  3  1  0
  5  4  2  0
  6  1  1  0
  6  5  1  0
  7  4  1  0
  8  6  1  0
  9  8  2  0
 10  9  1  0
 11 10  2  0
 12 11  1  0
 13 12  2  0
 13  8  1  0
 14 13  1  0
 15  1  1  0
 16 15  2  0
 17 15  1  0
 19 18  1  0
 19 17  1  0
 20  5  1  0
 21 20  2  0
 22 20  1  0
 23 22  1  0
 24  2  1  0
 25 24  1  0
 26 25  1  0
 27 26  1  0
 28 27  1  0
  3 29  1  0
  6 30  1  1
  7 31  1  0
  7 32  1  0
  7 33  1  0
  9 34  1  0
 10 35  1  0
 11 36  1  0
 12 37  1  0
 18 38  1  0
 18 39  1  0
 18 40  1  0
 19 41  1  0
 19 42  1  0
 23 43  1  0
 23 44  1  0
 23 45  1  0
 24 46  1  0
 24 47  1  0
 26 48  1  0
 26 49  1  0
 27 50  1  0
 27 51  1  0
 28 52  1  0
 28 53  1  0
 28 54  1  0
M  CHG  1  28   1
M  END
>  <score>  (7) 
-6.996

$$$$
=
     RDKit          3D

 54 55  0  0  0  0  0  0  0  0999 V2000
    2.7960   61.7100   73.0560 C   0  0  0  0  0  0  0  0  0  0  0  0
    2.2700   62.8470   72.5370 C   0  0  0  0  0  0  0  0  0  0  0  0
    1.2670   63.5150   73.2310 N   0  0  0  0  0  0  0  0  0  0  0  0
    0.8280   63.1710   74.5010 C   0  0  0  0  0  0  0  0  0  0  0  0
    1.2840   62.0370   75.0760 C   0  0  0  0  0  0  0  0  0  0  0  0
    2.2810   61.1250   74.3710 C   0  0  1  0  0  0  0  0  0  0  0  0
   -0.1070   64.1530   75.1610 C   0  0  0  0  0  0  0  0  0  0  0  0
    1.7470   59.6900   74.2690 C   0  0  0  0  0  0  0  0  0  0  0  0
    2.5240   58.6640   74.8530 C   0  0  0  0  0  0  0  0  0  0  0  0
    2.1120   57.3300   74.8230 C   0  0  0  0  0  0  0  0  0  0  0  0
    0.9100   56.9900   74.2140 C   0  0  0  0  0  0  0  0  0  0  0  0
    0.1200   57.9840   73.6410 C   0  0  0  0  0  0  0  0  0  0  0  0
    0.5270   59.3240   73.6690 C   0  0  0  0  0  0  0  0  0  0  0  0
   -0.5440   60.4650   72.9380 Cl  0  0  0  0  0  0  0  0  0  0  0  0
    4.0010   61.1130   72.4400 C   0  0  0  0  0  0  0  0  0  0  0  0
    5.1450   61.3990   72.7860 O   0  0  0  0  0  0  0  0  0  0  0  0
    3.6610   60.2580   71.4570 O   0  0  0  0  0  0  0  0  0  0  0  0
    3.0280   57.9400   71.1920 C   0  0  0  0  0  0  0  0  0  0  0  0
    4.1360   58.9070   71.5610 C   0  0  0  0  0  0  0  0  0  0  0  0
    0.9260   61.6180   76.4470 C   0  0  0  0  0  0  0  0  0  0  0  0
   -0.2040   61.2720   76.7570 O   0  0  0  0  0  0  0  0  0  0  0  0
    1.9880   61.7560   77.2750 O   0  0  0  0  0  0  0  0  0  0  0  0
    2.2000   60.6380   78.1370 C   0  0  0  0  0  0  0  0  0  0  0  0
    2.6860   63.4560   71.2140 C   0  0  0  0  0  0  0  0  0  0  0  0
    1.5150   63.9930   70.5960 O   0  0  0  0  0  0  0  0  0  0  0  0
    1.5940   65.3980   70.3520 C   0  0  0  0  0  0  0  0  0  0  0  0
    0.1980   66.0290   70.3450 C   0  0  0  0  0  0  0  0  0  0  0  0
   -0.2980   66.1520   71.7380 N   0  0  0  0  0  4  0  0  0  0  0  0
    0.8195   64.3203   72.7704 H   0  0  0  0  0  0  0  0  0  0  0  0
    3.1817   61.0628   74.9994 H   0  0  0  0  0  0  0  0  0  0  0  0
   -0.0213   64.0630   76.2540 H   0  0  0  0  0  0  0  0  0  0  0  0
    0.1596   65.1755   74.8552 H   0  0  0  0  0  0  0  0  0  0  0  0
   -1.1413   63.9368   74.8552 H   0  0  0  0  0  0  0  0  0  0  0  0
    3.4748   58.9221   75.3422 H   0  0  0  0  0  0  0  0  0  0  0  0
    2.7378   56.5497   75.2806 H   0  0  0  0  0  0  0  0  0  0  0  0
    0.5836   55.9399   74.1845 H   0  0  0  0  0  0  0  0  0  0  0  0
   -0.8327   57.7140   73.1619 H   0  0  0  0  0  0  0  0  0  0  0  0
    2.5699   57.5402   72.1087 H   0  0  0  0  0  0  0  0  0  0  0  0
    2.2646   58.4658   70.5998 H   0  0  0  0  0  0  0  0  0  0  0  0
    3.4457   57.1125   70.5998 H   0  0  0  0  0  0  0  0  0  0  0  0
    4.4602   58.7130   72.5941 H   0  0  0  0  0  0  0  0  0  0  0  0
    4.9826   58.7670   70.8728 H   0  0  0  0  0  0  0  0  0  0  0  0
    2.1378   60.9661   79.1851 H   0  0  0  0  0  0  0  0  0  0  0  0
    1.4304   59.8759   77.9451 H   0  0  0  0  0  0  0  0  0  0  0  0
    3.1952   60.2105   77.9451 H   0  0  0  0  0  0  0  0  0  0  0  0
    3.4204   64.2569   71.3846 H   0  0  0  0  0  0  0  0  0  0  0  0
    3.1483   62.6952   70.5679 H   0  0  0  0  0  0  0  0  0  0  0  0
    2.1980   65.8677   71.1423 H   0  0  0  0  0  0  0  0  0  0  0  0
    2.0584   65.5591   69.3679 H   0  0  0  0  0  0  0  0  0  0  0  0
    0.2493   67.0268   69.8849 H   0  0  0  0  0  0  0  0  0  0  0  0
   -0.4883   65.3927   69.7670 H   0  0  0  0  0  0  0  0  0  0  0  0
    0.4721   65.9610   72.3948 H   0  0  0  0  0  0  0  0  0  0  0  0
   -0.6528   67.1064   71.8931 H   0  0  0  0  0  0  0  0  0  0  0  0
   -1.0576   65.4739   71.8931 H   0  0  0  0  0  0  0  0  0  0  0  0
  2  1  2  0
  3  2  1  0
  4  3  1  0
  5  4  2  0
  6  1  1  0
  6  5  1  0
  7  4  1  0
  8  6  1  0
  9  8  2  0
 10  9  1  0
 11 10  2  0
 12 11  1  0
 13 12  2  0
 13  8  1  0
 14 13  1  0
 15  1  1  0
 16 15  2  0
 17 15  1  0
 19 18  1  0
 19 17  1  0
 20  5  1  0
 21 20  2  0
 22 20  1  0
 23 22  1  0
 24  2  1  0
 25 24  1  0
 26 25  1  0
 27 26  1  0
 28 27  1  0
  3 29  1  0
  6 30  1  1
  7 31  1  0
  7 32  1  0
  7 33  1  0
  9 34  1  0
 10 35  1  0
 11 36  1  0
 12 37  1  0
 18 38  1  0
 18 39  1  0
 18 40  1  0
 19 41  1  0
 19 42  1  0
 23 43  1  0
 23 44  1  0
 23 45  1  0
 24 46  1  0
 24 47  1  0
 26 48  1  0
 26 49  1  0
 27 50  1  0
 27 51  1  0
 28 52  1  0
 28 53  1  0
 28 54  1  0
M  CHG  1  28   1
M  END
>  <score>  (8) 
-6.851

$$$$
=
     RDKit          3D

 54 55  0  0  0  0  0  0  0  0999 V2000
    2.2380   59.6870   74.3380 C   0  0  0  0  0  0  0  0  0  0  0  0
    1.9920   58.3540   74.3130 C   0  0  0  0  0  0  0  0  0  0  0  0
    2.2480   57.6320   73.1540 N   0  0  0  0  0  0  0  0  0  0  0  0
    2.8620   58.1520   72.0240 C   0  0  0  0  0  0  0  0  0  0  0  0
    3.1160   59.4780   71.9580 C   0  0  0  0  0  0  0  0  0  0  0  0
    2.7570   60.4200   73.1000 C   0  0  1  0  0  0  0  0  0  0  0  0
    3.2450   57.1500   70.9640 C   0  0  0  0  0  0  0  0  0  0  0  0
    1.8620   61.5690   72.6130 C   0  0  0  0  0  0  0  0  0  0  0  0
    2.4990   62.7650   72.2140 C   0  0  0  0  0  0  0  0  0  0  0  0
    1.7680   63.8580   71.7420 C   0  0  0  0  0  0  0  0  0  0  0  0
    0.3840   63.7790   71.6530 C   0  0  0  0  0  0  0  0  0  0  0  0
   -0.2670   62.6070   72.0290 C   0  0  0  0  0  0  0  0  0  0  0  0
    0.4600   61.5060   72.5020 C   0  0  0  0  0  0  0  0  0  0  0  0
   -0.4590   60.1060   72.9240 Cl  0  0  0  0  0  0  0  0  0  0  0  0
    2.1740   60.4220   75.6190 C   0  0  0  0  0  0  0  0  0  0  0  0
    3.0940   60.4380   76.4330 O   0  0  0  0  0  0  0  0  0  0  0  0
    0.9800   61.0270   75.7630 O   0  0  0  0  0  0  0  0  0  0  0  0
    1.0100   63.4410   75.6380 C   0  0  0  0  0  0  0  0  0  0  0  0
    0.9380   62.2290   76.5460 C   0  0  0  0  0  0  0  0  0  0  0  0
    3.8220   60.1160   70.8280 C   0  0  0  0  0  0  0  0  0  0  0  0
    4.9980   60.4420   70.8840 O   0  0  0  0  0  0  0  0  0  0  0  0
    2.9660   60.3400   69.8030 O   0  0  0  0  0  0  0  0  0  0  0  0
    3.2260   61.5440   69.0830 C   0  0  0  0  0  0  0  0  0  0  0  0
    1.4250   57.5690   75.4780 C   0  0  0  0  0  0  0  0  0  0  0  0
    1.9470   56.2410   75.4020 O   0  0  0  0  0  0  0  0  0  0  0  0
    0.9370   55.2350   75.3240 C   0  0  0  0  0  0  0  0  0  0  0  0
    1.2190   54.2670   74.1720 C   0  0  0  0  0  0  0  0  0  0  0  0
    1.3060   52.8810   74.6980 N   0  0  0  0  0  4  0  0  0  0  0  0
    1.9623   56.6427   73.1323 H   0  0  0  0  0  0  0  0  0  0  0  0
    3.6868   60.8933   73.4486 H   0  0  0  0  0  0  0  0  0  0  0  0
    3.5984   56.2255   71.4440 H   0  0  0  0  0  0  0  0  0  0  0  0
    2.3690   56.9262   70.3374 H   0  0  0  0  0  0  0  0  0  0  0  0
    4.0469   57.5675   70.3374 H   0  0  0  0  0  0  0  0  0  0  0  0
    3.5948   62.8374   72.2763 H   0  0  0  0  0  0  0  0  0  0  0  0
    2.2876   64.7797   71.4413 H   0  0  0  0  0  0  0  0  0  0  0  0
   -0.1956   64.6392   71.2868 H   0  0  0  0  0  0  0  0  0  0  0  0
   -1.3627   62.5446   71.9541 H   0  0  0  0  0  0  0  0  0  0  0  0
    1.0642   64.3541   76.2489 H   0  0  0  0  0  0  0  0  0  0  0  0
    1.9056   63.3708   75.0031 H   0  0  0  0  0  0  0  0  0  0  0  0
    0.1124   63.4774   75.0031 H   0  0  0  0  0  0  0  0  0  0  0  0
    1.7916   62.2421   77.2397 H   0  0  0  0  0  0  0  0  0  0  0  0
   -0.0038   62.2580   77.1135 H   0  0  0  0  0  0  0  0  0  0  0  0
    3.4033   62.3650   69.7933 H   0  0  0  0  0  0  0  0  0  0  0  0
    4.1155   61.4081   68.4503 H   0  0  0  0  0  0  0  0  0  0  0  0
    2.3597   61.7872   68.4503 H   0  0  0  0  0  0  0  0  0  0  0  0
    1.7267   58.0364   76.4270 H   0  0  0  0  0  0  0  0  0  0  0  0
    0.3260   57.5541   75.4341 H   0  0  0  0  0  0  0  0  0  0  0  0
    0.9144   54.6731   76.2694 H   0  0  0  0  0  0  0  0  0  0  0  0
   -0.0323   55.7229   75.1442 H   0  0  0  0  0  0  0  0  0  0  0  0
    0.4054   54.3285   73.4343 H   0  0  0  0  0  0  0  0  0  0  0  0
    2.1713   54.5368   73.6921 H   0  0  0  0  0  0  0  0  0  0  0  0
    1.3046   52.9039   75.7277 H   0  0  0  0  0  0  0  0  0  0  0  0
    0.4976   52.3362   74.3655 H   0  0  0  0  0  0  0  0  0  0  0  0
    2.1762   52.4416   74.3655 H   0  0  0  0  0  0  0  0  0  0  0  0
  2  1  2  0
  3  2  1  0
  4  3  1  0
  5  4  2  0
  6  1  1  0
  6  5  1  0
  7  4  1  0
  8  6  1  0
  9  8  2  0
 10  9  1  0
 11 10  2  0
 12 11  1  0
 13 12  2  0
 13  8  1  0
 14 13  1  0
 15  1  1  0
 16 15  2  0
 17 15  1  0
 19 18  1  0
 19 17  1  0
 20  5  1  0
 21 20  2  0
 22 20  1  0
 23 22  1  0
 24  2  1  0
 25 24  1  0
 26 25  1  0
 27 26  1  0
 28 27  1  0
  3 29  1  0
  6 30  1  1
  7 31  1  0
  7 32  1  0
  7 33  1  0
  9 34  1  0
 10 35  1  0
 11 36  1  0
 12 37  1  0
 18 38  1  0
 18 39  1  0
 18 40  1  0
 19 41  1  0
 19 42  1  0
 23 43  1  0
 23 44  1  0
 23 45  1  0
 24 46  1  0
 24 47  1  0
 26 48  1  0
 26 49  1  0
 27 50  1  0
 27 51  1  0
 28 52  1  0
 28 53  1  0
 28 54  1  0
M  CHG  1  28   1
M  END
>  <score>  (9) 
-6.703

$$$$
