=
     RDKit          3D

 52 54  0  0  0  0  0  0  0  0999 V2000
    0.1660   67.3590   68.0930 C   0  0  0  0  0  0  0  0  0  0  0  0
   -0.5700   66.4620   67.6800 O   0  0  0  0  0  0  0  0  0  0  0  0
    0.2000   68.7500   67.4550 C   0  0  1  0  0  0  0  0  0  0  0  0
    1.3150   69.6430   68.0280 C   0  0  0  0  0  0  0  0  0  0  0  0
    2.5280   69.4560   67.1580 C   0  0  0  0  0  0  0  0  0  0  0  0
    2.2540   68.9660   65.8840 C   0  0  0  0  0  0  0  0  0  0  0  0
    0.5380   68.6040   65.6630 S   0  0  0  0  0  0  0  0  0  0  0  0
    3.2580   68.8000   64.9420 C   0  0  0  0  0  0  0  0  0  0  0  0
    4.5730   69.1270   65.2910 C   0  0  0  0  0  0  0  0  0  0  0  0
    4.8620   69.6210   66.5880 C   0  0  0  0  0  0  0  0  0  0  0  0
    3.8290   69.7930   67.5180 C   0  0  0  0  0  0  0  0  0  0  0  0
    6.1810   69.9120   66.8360 O   0  0  0  0  0  0  0  0  0  0  0  0
    6.4910   70.6200   68.0280 C   0  0  0  0  0  0  0  0  0  0  0  0
    5.6500   68.9940   64.4470 O   0  0  0  0  0  0  0  0  0  0  0  0
    5.4120   69.0980   63.0510 C   0  0  0  0  0  0  0  0  0  0  0  0
    1.1440   67.0910   69.2310 C   0  0  0  0  0  0  0  0  0  0  0  0
    0.4830   66.3090   70.3670 C   0  0  0  0  0  0  0  0  0  0  0  0
    2.2860   62.4670   70.9550 N   0  0  0  0  0  4  0  0  0  0  0  0
    0.9860   62.6560   71.2790 C   0  0  0  0  0  0  0  0  0  0  0  0
    0.3840   63.8960   71.0990 C   0  0  0  0  0  0  0  0  0  0  0  0
    1.1230   64.9570   70.5750 C   0  0  0  0  0  0  0  0  0  0  0  0
    2.4630   64.7400   70.2550 C   0  0  0  0  0  0  0  0  0  0  0  0
    3.0250   63.4820   70.4500 C   0  0  0  0  0  0  0  0  0  0  0  0
    2.9030   61.1330   71.1440 C   0  0  0  0  0  0  0  0  0  0  0  0
    5.3870   60.8200   71.3560 C   0  0  0  0  0  0  0  0  0  0  0  0
    4.2330   61.0860   70.4040 C   0  0  0  0  0  0  0  0  0  0  0  0
   -0.7807   69.2015   67.6656 H   0  0  0  0  0  0  0  0  0  0  0  0
    0.9991   70.6966   68.0124 H   0  0  0  0  0  0  0  0  0  0  0  0
    1.5367   69.3694   69.0701 H   0  0  0  0  0  0  0  0  0  0  0  0
    3.0246   68.4177   63.9373 H   0  0  0  0  0  0  0  0  0  0  0  0
    4.0437   70.1898   68.5212 H   0  0  0  0  0  0  0  0  0  0  0  0
    6.2220   70.0056   68.8999 H   0  0  0  0  0  0  0  0  0  0  0  0
    7.5683   70.8411   68.0535 H   0  0  0  0  0  0  0  0  0  0  0  0
    5.9228   71.5615   68.0535 H   0  0  0  0  0  0  0  0  0  0  0  0
    4.4163   69.5331   62.8802 H   0  0  0  0  0  0  0  0  0  0  0  0
    6.1773   69.7437   62.5957 H   0  0  0  0  0  0  0  0  0  0  0  0
    5.4581   68.0977   62.5957 H   0  0  0  0  0  0  0  0  0  0  0  0
    1.9927   66.5086   68.8430 H   0  0  0  0  0  0  0  0  0  0  0  0
    1.4822   68.0587   69.6299 H   0  0  0  0  0  0  0  0  0  0  0  0
    0.5725   66.8904   71.2965 H   0  0  0  0  0  0  0  0  0  0  0  0
   -0.5709   66.1464   70.0972 H   0  0  0  0  0  0  0  0  0  0  0  0
    0.3998   61.8203   71.6888 H   0  0  0  0  0  0  0  0  0  0  0  0
   -0.6725   64.0403   71.3691 H   0  0  0  0  0  0  0  0  0  0  0  0
    3.0735   65.5604   69.8499 H   0  0  0  0  0  0  0  0  0  0  0  0
    4.0803   63.3109   70.1911 H   0  0  0  0  0  0  0  0  0  0  0  0
    3.0722   60.9547   72.2162 H   0  0  0  0  0  0  0  0  0  0  0  0
    2.2323   60.3565   70.7474 H   0  0  0  0  0  0  0  0  0  0  0  0
    5.0323   60.9018   72.3940 H   0  0  0  0  0  0  0  0  0  0  0  0
    5.7803   59.8076   71.1816 H   0  0  0  0  0  0  0  0  0  0  0  0
    6.1838   61.5580   71.1816 H   0  0  0  0  0  0  0  0  0  0  0  0
    4.3979   62.0509   69.9023 H   0  0  0  0  0  0  0  0  0  0  0  0
    4.1929   60.2671   69.6707 H   0  0  0  0  0  0  0  0  0  0  0  0
  2  1  2  0
  3  1  1  0
  4  3  1  0
  5  4  1  0
  6  5  2  0
  7  6  1  0
  7  3  1  0
  8  6  1  0
  9  8  2  0
 10  9  1  0
 11 10  2  0
 11  5  1  0
 12 10  1  0
 13 12  1  0
 14  9  1  0
 15 14  1  0
 16  1  1  0
 17 16  1  0
 19 18  2  0
 20 19  1  0
 21 20  2  0
 21 17  1  0
 22 21  1  0
 23 22  2  0
 23 18  1  0
 24 18  1  0
 26 25  1  0
 26 24  1  0
  3 27  1  6
  4 28  1  0
  4 29  1  0
  8 30  1  0
 11 31  1  0
 13 32  1  0
 13 33  1  0
 13 34  1  0
 15 35  1  0
 15 36  1  0
 15 37  1  0
 16 38  1  0
 16 39  1  0
 17 40  1  0
 17 41  1  0
 19 42  1  0
 20 43  1  0
 22 44  1  0
 23 45  1  0
 24 46  1  0
 24 47  1  0
 25 48  1  0
 25 49  1  0
 25 50  1  0
 26 51  1  0
 26 52  1  0
M  CHG  1  18   1
M  END
>  <score>  (1) 
-9.445

$$$$
=
     RDKit          3D

 52 54  0  0  0  0  0  0  0  0999 V2000
   -0.1270   67.2600   68.2460 C   0  0  0  0  0  0  0  0  0  0  0  0
   -1.0300   66.4680   67.9710 O   0  0  0  0  0  0  0  0  0  0  0  0
   -0.0340   68.6500   67.6090 C   0  0  1  0  0  0  0  0  0  0  0  0
    1.4140   69.1590   67.4960 C   0  0  0  0  0  0  0  0  0  0  0  0
    1.9270   68.7460   66.1430 C   0  0  0  0  0  0  0  0  0  0  0  0
    0.9330   68.4730   65.2080 C   0  0  0  0  0  0  0  0  0  0  0  0
   -0.6890   68.5970   65.9020 S   0  0  0  0  0  0  0  0  0  0  0  0
    1.2440   68.1430   63.8970 C   0  0  0  0  0  0  0  0  0  0  0  0
    2.5890   68.0790   63.5180 C   0  0  0  0  0  0  0  0  0  0  0  0
    3.6080   68.3490   64.4650 C   0  0  0  0  0  0  0  0  0  0  0  0
    3.2690   68.6940   65.7790 C   0  0  0  0  0  0  0  0  0  0  0  0
    4.8970   68.2590   63.9980 O   0  0  0  0  0  0  0  0  0  0  0  0
    5.5780   69.4680   63.6950 C   0  0  0  0  0  0  0  0  0  0  0  0
    3.0180   67.7510   62.2530 O   0  0  0  0  0  0  0  0  0  0  0  0
    2.8900   68.7350   61.2370 C   0  0  0  0  0  0  0  0  0  0  0  0
    0.9950   66.8520   69.1930 C   0  0  0  0  0  0  0  0  0  0  0  0
    0.4530   66.1320   70.4280 C   0  0  0  0  0  0  0  0  0  0  0  0
    2.3750   62.3560   71.0650 N   0  0  0  0  0  4  0  0  0  0  0  0
    3.0700   63.3800   70.5150 C   0  0  0  0  0  0  0  0  0  0  0  0
    2.4620   64.6100   70.2960 C   0  0  0  0  0  0  0  0  0  0  0  0
    1.1270   64.7990   70.6530 C   0  0  0  0  0  0  0  0  0  0  0  0
    0.4300   63.7280   71.2120 C   0  0  0  0  0  0  0  0  0  0  0  0
    1.0770   62.5140   71.4140 C   0  0  0  0  0  0  0  0  0  0  0  0
    3.0470   61.0560   71.3000 C   0  0  0  0  0  0  0  0  0  0  0  0
    5.3890   61.0020   72.2070 C   0  0  0  0  0  0  0  0  0  0  0  0
    3.9160   61.1580   72.5460 C   0  0  0  0  0  0  0  0  0  0  0  0
   -0.6116   69.3201   68.2627 H   0  0  0  0  0  0  0  0  0  0  0  0
    1.4365   70.2548   67.5891 H   0  0  0  0  0  0  0  0  0  0  0  0
    2.0397   68.7368   68.2962 H   0  0  0  0  0  0  0  0  0  0  0  0
    0.4468   67.9353   63.1681 H   0  0  0  0  0  0  0  0  0  0  0  0
    4.0544   68.9213   66.5149 H   0  0  0  0  0  0  0  0  0  0  0  0
    5.8624   69.9729   64.6300 H   0  0  0  0  0  0  0  0  0  0  0  0
    6.4821   69.2429   63.1102 H   0  0  0  0  0  0  0  0  0  0  0  0
    4.9170   70.1245   63.1102 H   0  0  0  0  0  0  0  0  0  0  0  0
    2.7612   69.7248   61.6993 H   0  0  0  0  0  0  0  0  0  0  0  0
    3.7954   68.7370   60.6124 H   0  0  0  0  0  0  0  0  0  0  0  0
    2.0142   68.5053   60.6124 H   0  0  0  0  0  0  0  0  0  0  0  0
    1.6845   66.1797   68.6614 H   0  0  0  0  0  0  0  0  0  0  0  0
    1.5141   67.7631   69.5252 H   0  0  0  0  0  0  0  0  0  0  0  0
    0.6206   66.7671   71.3104 H   0  0  0  0  0  0  0  0  0  0  0  0
   -0.6190   65.9454   70.2668 H   0  0  0  0  0  0  0  0  0  0  0  0
    4.1252   63.2367   70.2392 H   0  0  0  0  0  0  0  0  0  0  0  0
    3.0326   65.4334   69.8418 H   0  0  0  0  0  0  0  0  0  0  0  0
   -0.6275   63.8433   71.4920 H   0  0  0  0  0  0  0  0  0  0  0  0
    0.5279   61.6729   71.8623 H   0  0  0  0  0  0  0  0  0  0  0  0
    2.2896   60.2712   71.4432 H   0  0  0  0  0  0  0  0  0  0  0  0
    3.6741   60.8027   70.4325 H   0  0  0  0  0  0  0  0  0  0  0  0
    5.9745   60.9400   73.1362 H   0  0  0  0  0  0  0  0  0  0  0  0
    5.5348   60.0834   71.6197 H   0  0  0  0  0  0  0  0  0  0  0  0
    5.7240   61.8697   71.6197 H   0  0  0  0  0  0  0  0  0  0  0  0
    3.6250   60.3658   73.2515 H   0  0  0  0  0  0  0  0  0  0  0  0
    3.7663   62.1519   72.9929 H   0  0  0  0  0  0  0  0  0  0  0  0
  2  1  2  0
  3  1  1  0
  4  3  1  0
  5  4  1  0
  6  5  2  0
  7  6  1  0
  7  3  1  0
  8  6  1  0
  9  8  2  0
 10  9  1  0
 11 10  2  0
 11  5  1  0
 12 10  1  0
 13 12  1  0
 14  9  1  0
 15 14  1  0
 16  1  1  0
 17 16  1  0
 19 18  2  0
 20 19  1  0
 21 20  2  0
 21 17  1  0
 22 21  1  0
 23 22  2  0
 23 18  1  0
 24 18  1  0
 26 25  1  0
 26 24  1  0
  3 27  1  1
  4 28  1  0
  4 29  1  0
  8 30  1  0
 11 31  1  0
 13 32  1  0
 13 33  1  0
 13 34  1  0
 15 35  1  0
 15 36  1  0
 15 37  1  0
 16 38  1  0
 16 39  1  0
 17 40  1  0
 17 41  1  0
 19 42  1  0
 20 43  1  0
 22 44  1  0
 23 45  1  0
 24 46  1  0
 24 47  1  0
 25 48  1  0
 25 49  1  0
 25 50  1  0
 26 51  1  0
 26 52  1  0
M  CHG  1  18   1
M  END
>  <score>  (2) 
-9.053

$$$$
=
     RDKit          3D

 52 54  0  0  0  0  0  0  0  0999 V2000
    3.6010   62.2140   69.7200 C   0  0  0  0  0  0  0  0  0  0  0  0
    2.7650   62.2960   68.8190 O   0  0  0  0  0  0  0  0  0  0  0  0
    4.5190   60.9980   69.8770 C   0  0  1  0  0  0  0  0  0  0  0  0
    5.0730   60.8490   71.3050 C   0  0  0  0  0  0  0  0  0  0  0  0
    4.1270   59.9570   72.0610 C   0  0  0  0  0  0  0  0  0  0  0  0
    3.3290   59.1490   71.2550 C   0  0  0  0  0  0  0  0  0  0  0  0
    3.5830   59.4640   69.5340 S   0  0  0  0  0  0  0  0  0  0  0  0
    2.4510   58.2250   71.8020 C   0  0  0  0  0  0  0  0  0  0  0  0
    2.3680   58.1140   73.1950 C   0  0  0  0  0  0  0  0  0  0  0  0
    3.1720   58.9370   74.0220 C   0  0  0  0  0  0  0  0  0  0  0  0
    4.0610   59.8530   73.4470 C   0  0  0  0  0  0  0  0  0  0  0  0
    3.0180   58.7550   75.3750 O   0  0  0  0  0  0  0  0  0  0  0  0
    4.0790   58.1340   76.0860 C   0  0  0  0  0  0  0  0  0  0  0  0
    1.5290   57.2440   73.8490 O   0  0  0  0  0  0  0  0  0  0  0  0
    1.8390   55.8600   73.7950 C   0  0  0  0  0  0  0  0  0  0  0  0
    3.7070   63.3070   70.7770 C   0  0  0  0  0  0  0  0  0  0  0  0
    2.3280   63.8160   71.1980 C   0  0  0  0  0  0  0  0  0  0  0  0
    0.4000   61.1700   73.9620 N   0  0  0  0  0  4  0  0  0  0  0  0
    1.2830   62.0900   74.4160 C   0  0  0  0  0  0  0  0  0  0  0  0
    1.9220   62.9540   73.5350 C   0  0  0  0  0  0  0  0  0  0  0  0
    1.6470   62.8810   72.1690 C   0  0  0  0  0  0  0  0  0  0  0  0
    0.7390   61.9210   71.7240 C   0  0  0  0  0  0  0  0  0  0  0  0
    0.1220   61.0760   72.6410 C   0  0  0  0  0  0  0  0  0  0  0  0
   -0.2780   60.2670   74.9220 C   0  0  0  0  0  0  0  0  0  0  0  0
   -2.6920   59.6190   74.6710 C   0  0  0  0  0  0  0  0  0  0  0  0
   -1.2740   59.3940   74.1710 C   0  0  0  0  0  0  0  0  0  0  0  0
    5.3489   61.1543   69.1721 H   0  0  0  0  0  0  0  0  0  0  0  0
    6.0748   60.3956   71.2747 H   0  0  0  0  0  0  0  0  0  0  0  0
    5.1576   61.8306   71.7943 H   0  0  0  0  0  0  0  0  0  0  0  0
    1.8305   57.5903   71.1523 H   0  0  0  0  0  0  0  0  0  0  0  0
    4.6998   60.4831   74.0834 H   0  0  0  0  0  0  0  0  0  0  0  0
    3.9048   58.2359   77.1673 H   0  0  0  0  0  0  0  0  0  0  0  0
    4.1233   57.0674   75.8207 H   0  0  0  0  0  0  0  0  0  0  0  0
    5.0307   58.6177   75.8207 H   0  0  0  0  0  0  0  0  0  0  0  0
    1.9277   55.4640   74.8174 H   0  0  0  0  0  0  0  0  0  0  0  0
    1.0383   55.3254   73.2629 H   0  0  0  0  0  0  0  0  0  0  0  0
    2.7912   55.7180   73.2629 H   0  0  0  0  0  0  0  0  0  0  0  0
    4.2230   62.9015   71.6598 H   0  0  0  0  0  0  0  0  0  0  0  0
    4.2689   64.1492   70.3470 H   0  0  0  0  0  0  0  0  0  0  0  0
    2.4442   64.7999   71.6759 H   0  0  0  0  0  0  0  0  0  0  0  0
    1.7019   63.8807   70.2959 H   0  0  0  0  0  0  0  0  0  0  0  0
    1.4969   62.1543   75.4931 H   0  0  0  0  0  0  0  0  0  0  0  0
    2.6428   63.6937   73.9136 H   0  0  0  0  0  0  0  0  0  0  0  0
    0.5113   61.8320   70.6515 H   0  0  0  0  0  0  0  0  0  0  0  0
   -0.5992   60.3238   72.2886 H   0  0  0  0  0  0  0  0  0  0  0  0
    0.4689   59.6297   75.4179 H   0  0  0  0  0  0  0  0  0  0  0  0
   -0.8074   60.8636   75.6795 H   0  0  0  0  0  0  0  0  0  0  0  0
   -2.6971   59.6198   75.7710 H   0  0  0  0  0  0  0  0  0  0  0  0
   -3.0617   60.5870   74.3019 H   0  0  0  0  0  0  0  0  0  0  0  0
   -3.3432   58.8129   74.3019 H   0  0  0  0  0  0  0  0  0  0  0  0
   -1.0059   58.3372   74.3172 H   0  0  0  0  0  0  0  0  0  0  0  0
   -1.2352   59.6612   73.1047 H   0  0  0  0  0  0  0  0  0  0  0  0
  2  1  2  0
  3  1  1  0
  4  3  1  0
  5  4  1  0
  6  5  2  0
  7  6  1  0
  7  3  1  0
  8  6  1  0
  9  8  2  0
 10  9  1  0
 11 10  2  0
 11  5  1  0
 12 10  1  0
 13 12  1  0
 14  9  1  0
 15 14  1  0
 16  1  1  0
 17 16  1  0
 19 18  2  0
 20 19  1  0
 21 20  2  0
 21 17  1  0
 22 21  1  0
 23 22  2  0
 23 18  1  0
 24 18  1  0
 26 25  1  0
 26 24  1  0
  3 27  1  6
  4 28  1  0
  4 29  1  0
  8 30  1  0
 11 31  1  0
 13 32  1  0
 13 33  1  0
 13 34  1  0
 15 35  1  0
 15 36  1  0
 15 37  1  0
 16 38  1  0
 16 39  1  0
 17 40  1  0
 17 41  1  0
 19 42  1  0
 20 43  1  0
 22 44  1  0
 23 45  1  0
 24 46  1  0
 24 47  1  0
 25 48  1  0
 25 49  1  0
 25 50  1  0
 26 51  1  0
 26 52  1  0
M  CHG  1  18   1
M  END
>  <score>  (3) 
-8.123

$$$$
=
     RDKit          3D

 52 54  0  0  0  0  0  0  0  0999 V2000
    4.6000   60.1850   71.8020 C   0  0  0  0  0  0  0  0  0  0  0  0
    5.6700   60.7960   71.7610 O   0  0  0  0  0  0  0  0  0  0  0  0
    4.0070   59.6610   73.1140 C   0  0  1  0  0  0  0  0  0  0  0  0
    3.6210   60.7900   74.0870 C   0  0  0  0  0  0  0  0  0  0  0  0
    2.1800   61.1300   73.8260 C   0  0  0  0  0  0  0  0  0  0  0  0
    1.4550   60.1260   73.1910 C   0  0  0  0  0  0  0  0  0  0  0  0
    2.4660   58.7360   72.7720 S   0  0  0  0  0  0  0  0  0  0  0  0
    0.0980   60.2620   72.9380 C   0  0  0  0  0  0  0  0  0  0  0  0
   -0.5470   61.4410   73.3290 C   0  0  0  0  0  0  0  0  0  0  0  0
    0.1850   62.4710   73.9710 C   0  0  0  0  0  0  0  0  0  0  0  0
    1.5510   62.3050   74.2270 C   0  0  0  0  0  0  0  0  0  0  0  0
   -0.5360   63.5900   74.3140 O   0  0  0  0  0  0  0  0  0  0  0  0
    0.1640   64.6710   74.9140 C   0  0  0  0  0  0  0  0  0  0  0  0
   -1.8820   61.6930   73.1230 O   0  0  0  0  0  0  0  0  0  0  0  0
   -2.8180   61.0120   73.9450 C   0  0  0  0  0  0  0  0  0  0  0  0
    3.8480   59.8570   70.5180 C   0  0  0  0  0  0  0  0  0  0  0  0
    3.9160   61.0120   69.5180 C   0  0  0  0  0  0  0  0  0  0  0  0
    1.4120   64.2970   70.6600 N   0  0  0  0  0  4  0  0  0  0  0  0
    2.7360   64.4970   70.4660 C   0  0  0  0  0  0  0  0  0  0  0  0
    3.5650   63.4430   70.0990 C   0  0  0  0  0  0  0  0  0  0  0  0
    3.0300   62.1680   69.9220 C   0  0  0  0  0  0  0  0  0  0  0  0
    1.6640   61.9840   70.1350 C   0  0  0  0  0  0  0  0  0  0  0  0
    0.8710   63.0670   70.5000 C   0  0  0  0  0  0  0  0  0  0  0  0
    0.5450   65.4380   71.0400 C   0  0  0  0  0  0  0  0  0  0  0  0
   -0.4240   66.5130   68.9860 C   0  0  0  0  0  0  0  0  0  0  0  0
    0.6990   66.5480   70.0090 C   0  0  0  0  0  0  0  0  0  0  0  0
    4.7867   59.0318   73.5682 H   0  0  0  0  0  0  0  0  0  0  0  0
    3.7458   60.4509   75.1260 H   0  0  0  0  0  0  0  0  0  0  0  0
    4.2629   61.6706   73.9370 H   0  0  0  0  0  0  0  0  0  0  0  0
   -0.4615   59.4572   72.4387 H   0  0  0  0  0  0  0  0  0  0  0  0
    2.1209   63.0942   74.7393 H   0  0  0  0  0  0  0  0  0  0  0  0
    0.1066   64.5824   76.0089 H   0  0  0  0  0  0  0  0  0  0  0  0
    1.2176   64.6456   74.5988 H   0  0  0  0  0  0  0  0  0  0  0  0
   -0.2902   65.6220   74.5988 H   0  0  0  0  0  0  0  0  0  0  0  0
   -2.5742   61.1894   75.0029 H   0  0  0  0  0  0  0  0  0  0  0  0
   -3.8309   61.3857   73.7345 H   0  0  0  0  0  0  0  0  0  0  0  0
   -2.7741   59.9332   73.7345 H   0  0  0  0  0  0  0  0  0  0  0  0
    4.2947   58.9617   70.0609 H   0  0  0  0  0  0  0  0  0  0  0  0
    2.7921   59.6818   70.7716 H   0  0  0  0  0  0  0  0  0  0  0  0
    4.9554   61.3667   69.4562 H   0  0  0  0  0  0  0  0  0  0  0  0
    3.5627   60.6387   68.5455 H   0  0  0  0  0  0  0  0  0  0  0  0
    3.1605   65.5029   70.5999 H   0  0  0  0  0  0  0  0  0  0  0  0
    4.6410   63.6148   69.9486 H   0  0  0  0  0  0  0  0  0  0  0  0
    1.2156   60.9867   70.0149 H   0  0  0  0  0  0  0  0  0  0  0  0
   -0.2076   62.9220   70.6603 H   0  0  0  0  0  0  0  0  0  0  0  0
   -0.5040   65.1084   71.0721 H   0  0  0  0  0  0  0  0  0  0  0  0
    0.8387   65.8114   72.0321 H   0  0  0  0  0  0  0  0  0  0  0  0
   -1.3929   66.4828   69.5060 H   0  0  0  0  0  0  0  0  0  0  0  0
   -0.3740   67.4131   68.3557 H   0  0  0  0  0  0  0  0  0  0  0  0
   -0.3181   65.6177   68.3557 H   0  0  0  0  0  0  0  0  0  0  0  0
    1.6606   66.4233   69.4895 H   0  0  0  0  0  0  0  0  0  0  0  0
    0.6611   67.5148   70.5323 H   0  0  0  0  0  0  0  0  0  0  0  0
  2  1  2  0
  3  1  1  0
  4  3  1  0
  5  4  1  0
  6  5  2  0
  7  6  1  0
  7  3  1  0
  8  6  1  0
  9  8  2  0
 10  9  1  0
 11 10  2  0
 11  5  1  0
 12 10  1  0
 13 12  1  0
 14  9  1  0
 15 14  1  0
 16  1  1  0
 17 16  1  0
 19 18  2  0
 20 19  1  0
 21 20  2  0
 21 17  1  0
 22 21  1  0
 23 22  2  0
 23 18  1  0
 24 18  1  0
 26 25  1  0
 26 24  1  0
  3 27  1  1
  4 28  1  0
  4 29  1  0
  8 30  1  0
 11 31  1  0
 13 32  1  0
 13 33  1  0
 13 34  1  0
 15 35  1  0
 15 36  1  0
 15 37  1  0
 16 38  1  0
 16 39  1  0
 17 40  1  0
 17 41  1  0
 19 42  1  0
 20 43  1  0
 22 44  1  0
 23 45  1  0
 24 46  1  0
 24 47  1  0
 25 48  1  0
 25 49  1  0
 25 50  1  0
 26 51  1  0
 26 52  1  0
M  CHG  1  18   1
M  END
>  <score>  (4) 
-8.052

$$$$
=
     RDKit          3D

 52 54  0  0  0  0  0  0  0  0999 V2000
    4.9490   68.4110   62.7930 C   0  0  0  0  0  0  0  0  0  0  0  0
    5.6210   69.0610   61.9910 O   0  0  0  0  0  0  0  0  0  0  0  0
    3.7890   67.5130   62.3530 C   0  0  1  0  0  0  0  0  0  0  0  0
    3.3680   66.5060   63.4390 C   0  0  0  0  0  0  0  0  0  0  0  0
    2.2740   67.1510   64.2430 C   0  0  0  0  0  0  0  0  0  0  0  0
    1.6120   68.1880   63.5910 C   0  0  0  0  0  0  0  0  0  0  0  0
    2.3110   68.5320   62.0040 S   0  0  0  0  0  0  0  0  0  0  0  0
    0.5360   68.8410   64.1750 C   0  0  0  0  0  0  0  0  0  0  0  0
    0.1180   68.4450   65.4510 C   0  0  0  0  0  0  0  0  0  0  0  0
    0.7900   67.3950   66.1250 C   0  0  0  0  0  0  0  0  0  0  0  0
    1.8650   66.7420   65.5090 C   0  0  0  0  0  0  0  0  0  0  0  0
    0.3080   67.0810   67.3720 O   0  0  0  0  0  0  0  0  0  0  0  0
    1.0930   67.4470   68.4980 C   0  0  0  0  0  0  0  0  0  0  0  0
   -0.9250   69.0240   66.1340 O   0  0  0  0  0  0  0  0  0  0  0  0
   -2.2330   68.8540   65.6080 C   0  0  0  0  0  0  0  0  0  0  0  0
    5.2030   68.5350   64.2910 C   0  0  0  0  0  0  0  0  0  0  0  0
    4.2300   69.5140   64.9470 C   0  0  0  0  0  0  0  0  0  0  0  0
    5.3660   70.4840   68.9620 N   0  0  0  0  0  4  0  0  0  0  0  0
    4.0770   70.1820   68.6830 C   0  0  0  0  0  0  0  0  0  0  0  0
    3.6880   69.8690   67.3860 C   0  0  0  0  0  0  0  0  0  0  0  0
    4.6340   69.8580   66.3610 C   0  0  0  0  0  0  0  0  0  0  0  0
    5.9550   70.1790   66.6710 C   0  0  0  0  0  0  0  0  0  0  0  0
    6.3010   70.4860   67.9830 C   0  0  0  0  0  0  0  0  0  0  0  0
    5.7600   70.8040   70.3550 C   0  0  0  0  0  0  0  0  0  0  0  0
    8.2300   71.1530   70.0520 C   0  0  0  0  0  0  0  0  0  0  0  0
    7.1520   70.2460   70.6230 C   0  0  0  0  0  0  0  0  0  0  0  0
    4.1478   66.9712   61.4655 H   0  0  0  0  0  0  0  0  0  0  0  0
    2.9977   65.5813   62.9723 H   0  0  0  0  0  0  0  0  0  0  0  0
    4.2220   66.2442   64.0810 H   0  0  0  0  0  0  0  0  0  0  0  0
    0.0206   69.6554   63.6448 H   0  0  0  0  0  0  0  0  0  0  0  0
    2.3802   65.9153   66.0199 H   0  0  0  0  0  0  0  0  0  0  0  0
    0.5506   67.1941   69.4209 H   0  0  0  0  0  0  0  0  0  0  0  0
    2.0477   66.9011   68.4725 H   0  0  0  0  0  0  0  0  0  0  0  0
    1.2886   68.5292   68.4725 H   0  0  0  0  0  0  0  0  0  0  0  0
   -2.9517   68.7606   66.4355 H   0  0  0  0  0  0  0  0  0  0  0  0
   -2.4960   69.7255   64.9905 H   0  0  0  0  0  0  0  0  0  0  0  0
   -2.2645   67.9442   64.9905 H   0  0  0  0  0  0  0  0  0  0  0  0
    5.0824   67.5458   64.7567 H   0  0  0  0  0  0  0  0  0  0  0  0
    6.2247   68.9156   64.4366 H   0  0  0  0  0  0  0  0  0  0  0  0
    4.2023   70.4385   64.3516 H   0  0  0  0  0  0  0  0  0  0  0  0
    3.2415   69.0331   64.9856 H   0  0  0  0  0  0  0  0  0  0  0  0
    3.3299   70.1842   69.4903 H   0  0  0  0  0  0  0  0  0  0  0  0
    2.6365   69.6305   67.1683 H   0  0  0  0  0  0  0  0  0  0  0  0
    6.7206   70.1894   65.8812 H   0  0  0  0  0  0  0  0  0  0  0  0
    7.3447   70.7328   68.2274 H   0  0  0  0  0  0  0  0  0  0  0  0
    5.7682   71.8952   70.4935 H   0  0  0  0  0  0  0  0  0  0  0  0
    5.0406   70.3541   71.0550 H   0  0  0  0  0  0  0  0  0  0  0  0
    8.7881   71.6226   70.8754 H   0  0  0  0  0  0  0  0  0  0  0  0
    8.9192   70.5591   69.4337 H   0  0  0  0  0  0  0  0  0  0  0  0
    7.7627   71.9336   69.4337 H   0  0  0  0  0  0  0  0  0  0  0  0
    7.2357   69.2529   70.1574 H   0  0  0  0  0  0  0  0  0  0  0  0
    7.2955   70.1789   71.7115 H   0  0  0  0  0  0  0  0  0  0  0  0
  2  1  2  0
  3  1  1  0
  4  3  1  0
  5  4  1  0
  6  5  2  0
  7  6  1  0
  7  3  1  0
  8  6  1  0
  9  8  2  0
 10  9  1  0
 11 10  2  0
 11  5  1  0
 12 10  1  0
 13 12  1  0
 14  9  1  0
 15 14  1  0
 16  1  1  0
 17 16  1  0
 19 18  2  0
 20 19  1  0
 21 20  2  0
 21 17  1  0
 22 21  1  0
 23 22  2  0
 23 18  1  0
 24 18  1  0
 26 25  1  0
 26 24  1  0
  3 27  1  6
  4 28  1  0
  4 29  1  0
  8 30  1  0
 11 31  1  0
 13 32  1  0
 13 33  1  0
 13 34  1  0
 15 35  1  0
 15 36  1  0
 15 37  1  0
 16 38  1  0
 16 39  1  0
 17 40  1  0
 17 41  1  0
 19 42  1  0
 20 43  1  0
 22 44  1  0
 23 45  1  0
 24 46  1  0
 24 47  1  0
 25 48  1  0
 25 49  1  0
 25 50  1  0
 26 51  1  0
 26 52  1  0
M  CHG  1  18   1
M  END
>  <score>  (5) 
-7.946

$$$$
=
     RDKit          3D

 52 54  0  0  0  0  0  0  0  0999 V2000
    4.0300   59.2550   71.0280 C   0  0  0  0  0  0  0  0  0  0  0  0
    3.8870   58.7050   69.9350 O   0  0  0  0  0  0  0  0  0  0  0  0
    4.6700   60.6390   71.1720 C   0  0  1  0  0  0  0  0  0  0  0  0
    4.1440   61.6500   70.1380 C   0  0  0  0  0  0  0  0  0  0  0  0
    2.9800   62.3660   70.7670 C   0  0  0  0  0  0  0  0  0  0  0  0
    2.9580   62.3200   72.1580 C   0  0  0  0  0  0  0  0  0  0  0  0
    4.2740   61.3390   72.8150 S   0  0  0  0  0  0  0  0  0  0  0  0
    1.9850   62.9870   72.8890 C   0  0  0  0  0  0  0  0  0  0  0  0
    1.0040   63.7120   72.2020 C   0  0  0  0  0  0  0  0  0  0  0  0
    1.0160   63.7590   70.7860 C   0  0  0  0  0  0  0  0  0  0  0  0
    2.0170   63.0890   70.0710 C   0  0  0  0  0  0  0  0  0  0  0  0
    0.0120   64.4950   70.2050 O   0  0  0  0  0  0  0  0  0  0  0  0
    0.2980   65.8390   69.8450 C   0  0  0  0  0  0  0  0  0  0  0  0
   -0.0140   64.4020   72.8160 O   0  0  0  0  0  0  0  0  0  0  0  0
    0.0080   64.4890   74.2330 C   0  0  0  0  0  0  0  0  0  0  0  0
    3.6320   58.5350   72.3120 C   0  0  0  0  0  0  0  0  0  0  0  0
    2.4360   57.6090   72.0880 C   0  0  0  0  0  0  0  0  0  0  0  0
   -1.0390   58.9060   74.2320 N   0  0  0  0  0  4  0  0  0  0  0  0
   -0.7360   57.5880   74.1780 C   0  0  0  0  0  0  0  0  0  0  0  0
    0.3850   57.1470   73.4840 C   0  0  0  0  0  0  0  0  0  0  0  0
    1.2110   58.0700   72.8420 C   0  0  0  0  0  0  0  0  0  0  0  0
    0.8750   59.4220   72.9060 C   0  0  0  0  0  0  0  0  0  0  0  0
   -0.2560   59.8190   73.6130 C   0  0  0  0  0  0  0  0  0  0  0  0
   -2.2330   59.3540   74.9890 C   0  0  0  0  0  0  0  0  0  0  0  0
   -4.2220   60.8750   74.7900 C   0  0  0  0  0  0  0  0  0  0  0  0
   -2.7960   60.6100   74.3380 C   0  0  0  0  0  0  0  0  0  0  0  0
    5.7498   60.4885   71.0258 H   0  0  0  0  0  0  0  0  0  0  0  0
    4.9342   62.3702   69.8795 H   0  0  0  0  0  0  0  0  0  0  0  0
    3.8346   61.1385   69.2146 H   0  0  0  0  0  0  0  0  0  0  0  0
    1.9846   62.9468   73.9883 H   0  0  0  0  0  0  0  0  0  0  0  0
    2.0412   63.1341   68.9722 H   0  0  0  0  0  0  0  0  0  0  0  0
    0.4265   66.4430   70.7553 H   0  0  0  0  0  0  0  0  0  0  0  0
    1.2229   65.8705   69.2505 H   0  0  0  0  0  0  0  0  0  0  0  0
   -0.5340   66.2443   69.2505 H   0  0  0  0  0  0  0  0  0  0  0  0
   -0.2401   63.5080   74.6645 H   0  0  0  0  0  0  0  0  0  0  0  0
    1.0113   64.7930   74.5662 H   0  0  0  0  0  0  0  0  0  0  0  0
   -0.7302   65.2334   74.5662 H   0  0  0  0  0  0  0  0  0  0  0  0
    4.4852   57.9376   72.6659 H   0  0  0  0  0  0  0  0  0  0  0  0
    3.3474   59.2918   73.0579 H   0  0  0  0  0  0  0  0  0  0  0  0
    2.2027   57.5847   71.0133 H   0  0  0  0  0  0  0  0  0  0  0  0
    2.7068   56.6100   72.4604 H   0  0  0  0  0  0  0  0  0  0  0  0
   -1.3828   56.8589   74.6880 H   0  0  0  0  0  0  0  0  0  0  0  0
    0.6201   56.0733   73.4412 H   0  0  0  0  0  0  0  0  0  0  0  0
    1.5013   60.1714   72.3998 H   0  0  0  0  0  0  0  0  0  0  0  0
   -0.5160   60.8864   73.6691 H   0  0  0  0  0  0  0  0  0  0  0  0
   -2.9948   58.5606   74.9777 H   0  0  0  0  0  0  0  0  0  0  0  0
   -1.9507   59.5718   76.0296 H   0  0  0  0  0  0  0  0  0  0  0  0
   -4.2628   60.8826   75.8892 H   0  0  0  0  0  0  0  0  0  0  0  0
   -4.5538   61.8502   74.4040 H   0  0  0  0  0  0  0  0  0  0  0  0
   -4.8820   60.0841   74.4040 H   0  0  0  0  0  0  0  0  0  0  0  0
   -2.7843   60.4832   73.2454 H   0  0  0  0  0  0  0  0  0  0  0  0
   -2.1725   61.4653   74.6376 H   0  0  0  0  0  0  0  0  0  0  0  0
  2  1  2  0
  3  1  1  0
  4  3  1  0
  5  4  1  0
  6  5  2  0
  7  6  1  0
  7  3  1  0
  8  6  1  0
  9  8  2  0
 10  9  1  0
 11 10  2  0
 11  5  1  0
 12 10  1  0
 13 12  1  0
 14  9  1  0
 15 14  1  0
 16  1  1  0
 17 16  1  0
 19 18  2  0
 20 19  1  0
 21 20  2  0
 21 17  1  0
 22 21  1  0
 23 22  2  0
 23 18  1  0
 24 18  1  0
 26 25  1  0
 26 24  1  0
  3 27  1  1
  4 28  1  0
  4 29  1  0
  8 30  1  0
 11 31  1  0
 13 32  1  0
 13 33  1  0
 13 34  1  0
 15 35  1  0
 15 36  1  0
 15 37  1  0
 16 38  1  0
 16 39  1  0
 17 40  1  0
 17 41  1  0
 19 42  1  0
 20 43  1  0
 22 44  1  0
 23 45  1  0
 24 46  1  0
 24 47  1  0
 25 48  1  0
 25 49  1  0
 25 50  1  0
 26 51  1  0
 26 52  1  0
M  CHG  1  18   1
M  END
>  <score>  (6) 
-7.394

$$$$
=
     RDKit          3D

 52 54  0  0  0  0  0  0  0  0999 V2000
    2.6740   63.4600   71.2230 C   0  0  0  0  0  0  0  0  0  0  0  0
    2.1220   63.3940   72.3230 O   0  0  0  0  0  0  0  0  0  0  0  0
    3.7830   62.4900   70.8040 C   0  0  1  0  0  0  0  0  0  0  0  0
    4.5750   61.9360   72.0020 C   0  0  0  0  0  0  0  0  0  0  0  0
    3.9120   60.6520   72.4190 C   0  0  0  0  0  0  0  0  0  0  0  0
    3.1310   60.0580   71.4320 C   0  0  0  0  0  0  0  0  0  0  0  0
    3.0540   61.0390   69.9620 S   0  0  0  0  0  0  0  0  0  0  0  0
    2.5060   58.8370   71.6400 C   0  0  0  0  0  0  0  0  0  0  0  0
    2.6650   58.2000   72.8750 C   0  0  0  0  0  0  0  0  0  0  0  0
    3.4540   58.8000   73.8890 C   0  0  0  0  0  0  0  0  0  0  0  0
    4.0860   60.0270   73.6500 C   0  0  0  0  0  0  0  0  0  0  0  0
    3.5470   58.0980   75.0660 O   0  0  0  0  0  0  0  0  0  0  0  0
    3.1520   58.7550   76.2620 C   0  0  0  0  0  0  0  0  0  0  0  0
    2.0860   56.9960   73.2010 O   0  0  0  0  0  0  0  0  0  0  0  0
    0.6860   56.9780   73.4360 C   0  0  0  0  0  0  0  0  0  0  0  0
    2.3180   64.5750   70.2460 C   0  0  0  0  0  0  0  0  0  0  0  0
    1.0440   65.3050   70.6690 C   0  0  0  0  0  0  0  0  0  0  0  0
   -0.2210   68.1600   67.7340 N   0  0  0  0  0  4  0  0  0  0  0  0
    1.0070   68.2690   68.2930 C   0  0  0  0  0  0  0  0  0  0  0  0
    1.4340   67.3560   69.2500 C   0  0  0  0  0  0  0  0  0  0  0  0
    0.5940   66.3110   69.6350 C   0  0  0  0  0  0  0  0  0  0  0  0
   -0.6690   66.2220   69.0500 C   0  0  0  0  0  0  0  0  0  0  0  0
   -1.0550   67.1580   68.0960 C   0  0  0  0  0  0  0  0  0  0  0  0
   -0.6500   69.1390   66.7070 C   0  0  0  0  0  0  0  0  0  0  0  0
   -2.8680   69.0030   65.5350 C   0  0  0  0  0  0  0  0  0  0  0  0
   -1.4670   68.4220   65.6420 C   0  0  0  0  0  0  0  0  0  0  0  0
    4.4552   63.0648   70.1500 H   0  0  0  0  0  0  0  0  0  0  0  0
    5.6174   61.7436   71.7080 H   0  0  0  0  0  0  0  0  0  0  0  0
    4.5834   62.6582   72.8317 H   0  0  0  0  0  0  0  0  0  0  0  0
    1.8963   58.3781   70.8478 H   0  0  0  0  0  0  0  0  0  0  0  0
    4.7124   60.4909   74.4262 H   0  0  0  0  0  0  0  0  0  0  0  0
    3.4999   58.1763   77.1303 H   0  0  0  0  0  0  0  0  0  0  0  0
    3.5948   59.7615   76.2909 H   0  0  0  0  0  0  0  0  0  0  0  0
    2.0554   58.8359   76.2909 H   0  0  0  0  0  0  0  0  0  0  0  0
    0.4961   56.9756   74.5195 H   0  0  0  0  0  0  0  0  0  0  0  0
    0.2270   57.8703   72.9853 H   0  0  0  0  0  0  0  0  0  0  0  0
    0.2501   56.0742   72.9853 H   0  0  0  0  0  0  0  0  0  0  0  0
    3.1477   65.2963   70.2091 H   0  0  0  0  0  0  0  0  0  0  0  0
    2.1457   64.1252   69.2571 H   0  0  0  0  0  0  0  0  0  0  0  0
    0.2434   64.5650   70.8155 H   0  0  0  0  0  0  0  0  0  0  0  0
    1.2597   65.8501   71.5998 H   0  0  0  0  0  0  0  0  0  0  0  0
    1.6738   69.0885   67.9867 H   0  0  0  0  0  0  0  0  0  0  0  0
    2.4315   67.4572   69.7025 H   0  0  0  0  0  0  0  0  0  0  0  0
   -1.3571   65.4149   69.3418 H   0  0  0  0  0  0  0  0  0  0  0  0
   -2.0490   67.0827   67.6309 H   0  0  0  0  0  0  0  0  0  0  0  0
   -1.2644   69.9206   67.1778 H   0  0  0  0  0  0  0  0  0  0  0  0
    0.2348   69.6012   66.2449 H   0  0  0  0  0  0  0  0  0  0  0  0
   -3.2733   69.1711   66.5437 H   0  0  0  0  0  0  0  0  0  0  0  0
   -2.8281   69.9588   64.9919 H   0  0  0  0  0  0  0  0  0  0  0  0
   -3.5162   68.2995   64.9919 H   0  0  0  0  0  0  0  0  0  0  0  0
   -1.5403   67.3562   65.9040 H   0  0  0  0  0  0  0  0  0  0  0  0
   -0.9630   68.5512   64.6728 H   0  0  0  0  0  0  0  0  0  0  0  0
  2  1  2  0
  3  1  1  0
  4  3  1  0
  5  4  1  0
  6  5  2  0
  7  6  1  0
  7  3  1  0
  8  6  1  0
  9  8  2  0
 10  9  1  0
 11 10  2  0
 11  5  1  0
 12 10  1  0
 13 12  1  0
 14  9  1  0
 15 14  1  0
 16  1  1  0
 17 16  1  0
 19 18  2  0
 20 19  1  0
 21 20  2  0
 21 17  1  0
 22 21  1  0
 23 22  2  0
 23 18  1  0
 24 18  1  0
 26 25  1  0
 26 24  1  0
  3 27  1  6
  4 28  1  0
  4 29  1  0
  8 30  1  0
 11 31  1  0
 13 32  1  0
 13 33  1  0
 13 34  1  0
 15 35  1  0
 15 36  1  0
 15 37  1  0
 16 38  1  0
 16 39  1  0
 17 40  1  0
 17 41  1  0
 19 42  1  0
 20 43  1  0
 22 44  1  0
 23 45  1  0
 24 46  1  0
 24 47  1  0
 25 48  1  0
 25 49  1  0
 25 50  1  0
 26 51  1  0
 26 52  1  0
M  CHG  1  18   1
M  END
>  <score>  (7) 
-7.075

$$$$
=
     RDKit          3D

 52 54  0  0  0  0  0  0  0  0999 V2000
    3.7910   64.3380   64.8830 C   0  0  0  0  0  0  0  0  0  0  0  0
    4.6670   63.6050   64.4210 O   0  0  0  0  0  0  0  0  0  0  0  0
    3.1250   65.4410   64.0550 C   0  0  1  0  0  0  0  0  0  0  0  0
    2.2720   66.3960   64.9100 C   0  0  0  0  0  0  0  0  0  0  0  0
    3.1580   67.5410   65.3190 C   0  0  0  0  0  0  0  0  0  0  0  0
    4.2770   67.7220   64.5100 C   0  0  0  0  0  0  0  0  0  0  0  0
    4.4040   66.4790   63.2590 S   0  0  0  0  0  0  0  0  0  0  0  0
    5.1570   68.7740   64.7170 C   0  0  0  0  0  0  0  0  0  0  0  0
    4.9100   69.6640   65.7680 C   0  0  0  0  0  0  0  0  0  0  0  0
    3.7760   69.4840   66.6000 C   0  0  0  0  0  0  0  0  0  0  0  0
    2.8950   68.4220   66.3630 C   0  0  0  0  0  0  0  0  0  0  0  0
    3.6210   70.4080   67.6050 O   0  0  0  0  0  0  0  0  0  0  0  0
    2.7950   70.0570   68.7060 C   0  0  0  0  0  0  0  0  0  0  0  0
    5.7150   70.7350   66.0770 O   0  0  0  0  0  0  0  0  0  0  0  0
    6.6880   70.5570   67.0950 C   0  0  0  0  0  0  0  0  0  0  0  0
    3.3800   64.2210   66.3460 C   0  0  0  0  0  0  0  0  0  0  0  0
    4.1130   63.0760   67.0450 C   0  0  0  0  0  0  0  0  0  0  0  0
    2.6720   62.4400   71.0290 N   0  0  0  0  0  4  0  0  0  0  0  0
    2.8760   63.7010   70.5820 C   0  0  0  0  0  0  0  0  0  0  0  0
    3.3480   63.9270   69.2940 C   0  0  0  0  0  0  0  0  0  0  0  0
    3.6070   62.8480   68.4490 C   0  0  0  0  0  0  0  0  0  0  0  0
    3.3950   61.5580   68.9350 C   0  0  0  0  0  0  0  0  0  0  0  0
    2.9210   61.3770   70.2300 C   0  0  0  0  0  0  0  0  0  0  0  0
    2.1570   62.2240   72.4030 C   0  0  0  0  0  0  0  0  0  0  0  0
   -0.2180   62.8180   71.8390 C   0  0  0  0  0  0  0  0  0  0  0  0
    0.7200   61.7260   72.3270 C   0  0  0  0  0  0  0  0  0  0  0  0
    2.4843   64.9246   63.3250 H   0  0  0  0  0  0  0  0  0  0  0  0
    1.4210   66.7698   64.3217 H   0  0  0  0  0  0  0  0  0  0  0  0
    1.8730   65.8768   65.7939 H   0  0  0  0  0  0  0  0  0  0  0  0
    6.0339   68.9063   64.0662 H   0  0  0  0  0  0  0  0  0  0  0  0
    2.0051   68.2858   66.9950 H   0  0  0  0  0  0  0  0  0  0  0  0
    3.3216   70.2808   69.6455 H   0  0  0  0  0  0  0  0  0  0  0  0
    1.8606   70.6358   68.6626 H   0  0  0  0  0  0  0  0  0  0  0  0
    2.5631   68.9826   68.6626 H   0  0  0  0  0  0  0  0  0  0  0  0
    6.2077   70.6449   68.0807 H   0  0  0  0  0  0  0  0  0  0  0  0
    7.1436   69.5606   66.9966 H   0  0  0  0  0  0  0  0  0  0  0  0
    7.4668   71.3276   66.9966 H   0  0  0  0  0  0  0  0  0  0  0  0
    3.6174   65.1639   66.8603 H   0  0  0  0  0  0  0  0  0  0  0  0
    2.3004   64.0140   66.3853 H   0  0  0  0  0  0  0  0  0  0  0  0
    3.9681   62.1544   66.4622 H   0  0  0  0  0  0  0  0  0  0  0  0
    5.1775   63.3457   67.1093 H   0  0  0  0  0  0  0  0  0  0  0  0
    2.6665   64.5545   71.2435 H   0  0  0  0  0  0  0  0  0  0  0  0
    3.5170   64.9553   68.9418 H   0  0  0  0  0  0  0  0  0  0  0  0
    3.6020   60.6867   68.2963 H   0  0  0  0  0  0  0  0  0  0  0  0
    2.7468   60.3590   70.6085 H   0  0  0  0  0  0  0  0  0  0  0  0
    2.7791   61.4755   72.9156 H   0  0  0  0  0  0  0  0  0  0  0  0
    2.1909   63.1701   72.9632 H   0  0  0  0  0  0  0  0  0  0  0  0
   -0.6612   63.3340   72.7035 H   0  0  0  0  0  0  0  0  0  0  0  0
    0.3455   63.5404   71.2302 H   0  0  0  0  0  0  0  0  0  0  0  0
   -1.0171   62.3699   71.2302 H   0  0  0  0  0  0  0  0  0  0  0  0
    0.4004   61.4000   73.3278 H   0  0  0  0  0  0  0  0  0  0  0  0
    0.6798   60.8895   71.6138 H   0  0  0  0  0  0  0  0  0  0  0  0
  2  1  2  0
  3  1  1  0
  4  3  1  0
  5  4  1  0
  6  5  2  0
  7  6  1  0
  7  3  1  0
  8  6  1  0
  9  8  2  0
 10  9  1  0
 11 10  2  0
 11  5  1  0
 12 10  1  0
 13 12  1  0
 14  9  1  0
 15 14  1  0
 16  1  1  0
 17 16  1  0
 19 18  2  0
 20 19  1  0
 21 20  2  0
 21 17  1  0
 22 21  1  0
 23 22  2  0
 23 18  1  0
 24 18  1  0
 26 25  1  0
 26 24  1  0
  3 27  1  6
  4 28  1  0
  4 29  1  0
  8 30  1  0
 11 31  1  0
 13 32  1  0
 13 33  1  0
 13 34  1  0
 15 35  1  0
 15 36  1  0
 15 37  1  0
 16 38  1  0
 16 39  1  0
 17 40  1  0
 17 41  1  0
 19 42  1  0
 20 43  1  0
 22 44  1  0
 23 45  1  0
 24 46  1  0
 24 47  1  0
 25 48  1  0
 25 49  1  0
 25 50  1  0
 26 51  1  0
 26 52  1  0
M  CHG  1  18   1
M  END
>  <score>  (8) 
-7.017

$$$$
=
     RDKit          3D

 52 54  0  0  0  0  0  0  0  0999 V2000
    3.5360   59.0320   71.4330 C   0  0  0  0  0  0  0  0  0  0  0  0
    3.8130   58.3420   70.4500 O   0  0  0  0  0  0  0  0  0  0  0  0
    4.3040   60.3120   71.7770 C   0  0  1  0  0  0  0  0  0  0  0  0
    4.0030   61.4680   70.8060 C   0  0  0  0  0  0  0  0  0  0  0  0
    2.8630   62.2560   71.3890 C   0  0  0  0  0  0  0  0  0  0  0  0
    2.6870   62.0890   72.7600 C   0  0  0  0  0  0  0  0  0  0  0  0
    3.8120   60.9040   73.4370 S   0  0  0  0  0  0  0  0  0  0  0  0
    1.7200   62.7970   73.4580 C   0  0  0  0  0  0  0  0  0  0  0  0
    0.9020   63.6910   72.7580 C   0  0  0  0  0  0  0  0  0  0  0  0
    1.0700   63.8640   71.3610 C   0  0  0  0  0  0  0  0  0  0  0  0
    2.0630   63.1480   70.6810 C   0  0  0  0  0  0  0  0  0  0  0  0
    0.2190   64.7620   70.7640 O   0  0  0  0  0  0  0  0  0  0  0  0
    0.7790   65.9570   70.2390 C   0  0  0  0  0  0  0  0  0  0  0  0
   -0.0960   64.4380   73.3380 O   0  0  0  0  0  0  0  0  0  0  0  0
    0.0300   64.7500   74.7170 C   0  0  0  0  0  0  0  0  0  0  0  0
    2.4460   58.5920   72.4020 C   0  0  0  0  0  0  0  0  0  0  0  0
    2.0420   57.1360   72.1690 C   0  0  0  0  0  0  0  0  0  0  0  0
   -0.2560   55.5500   75.4190 N   0  0  0  0  0  4  0  0  0  0  0  0
   -0.8870   56.0900   74.3510 C   0  0  0  0  0  0  0  0  0  0  0  0
   -0.1590   56.6140   73.2880 C   0  0  0  0  0  0  0  0  0  0  0  0
    1.2350   56.5770   73.3170 C   0  0  0  0  0  0  0  0  0  0  0  0
    1.8630   56.0220   74.4310 C   0  0  0  0  0  0  0  0  0  0  0  0
    1.0960   55.5090   75.4720 C   0  0  0  0  0  0  0  0  0  0  0  0
   -1.0530   54.9870   76.5350 C   0  0  0  0  0  0  0  0  0  0  0  0
   -1.9500   52.8080   75.6660 C   0  0  0  0  0  0  0  0  0  0  0  0
   -2.2660   54.2630   75.9680 C   0  0  0  0  0  0  0  0  0  0  0  0
    5.3704   60.0482   71.7197 H   0  0  0  0  0  0  0  0  0  0  0  0
    4.8893   62.1107   70.6996 H   0  0  0  0  0  0  0  0  0  0  0  0
    3.7404   61.0818   69.8101 H   0  0  0  0  0  0  0  0  0  0  0  0
    1.5982   62.6583   74.5424 H   0  0  0  0  0  0  0  0  0  0  0  0
    2.2090   63.2890   69.5999 H   0  0  0  0  0  0  0  0  0  0  0  0
    1.0862   66.6126   71.0671 H   0  0  0  0  0  0  0  0  0  0  0  0
    1.6555   65.7108   69.6216 H   0  0  0  0  0  0  0  0  0  0  0  0
    0.0290   66.4731   69.6216 H   0  0  0  0  0  0  0  0  0  0  0  0
   -0.3147   63.8964   75.3191 H   0  0  0  0  0  0  0  0  0  0  0  0
    1.0840   64.9614   74.9503 H   0  0  0  0  0  0  0  0  0  0  0  0
   -0.5816   65.6340   74.9503 H   0  0  0  0  0  0  0  0  0  0  0  0
    2.8187   58.6990   73.4314 H   0  0  0  0  0  0  0  0  0  0  0  0
    1.5620   59.2256   72.2372 H   0  0  0  0  0  0  0  0  0  0  0  0
    1.4389   57.0783   71.2509 H   0  0  0  0  0  0  0  0  0  0  0  0
    2.9624   56.5400   72.0815 H   0  0  0  0  0  0  0  0  0  0  0  0
   -1.9864   56.1149   74.3231 H   0  0  0  0  0  0  0  0  0  0  0  0
   -0.6812   57.0564   72.4268 H   0  0  0  0  0  0  0  0  0  0  0  0
    2.9611   55.9898   74.4867 H   0  0  0  0  0  0  0  0  0  0  0  0
    1.5933   55.0655   76.3472 H   0  0  0  0  0  0  0  0  0  0  0  0
   -0.4359   54.2786   77.1071 H   0  0  0  0  0  0  0  0  0  0  0  0
   -1.3842   55.7989   77.1991 H   0  0  0  0  0  0  0  0  0  0  0  0
   -1.8300   52.2554   76.6095 H   0  0  0  0  0  0  0  0  0  0  0  0
   -2.7733   52.3669   75.0849 H   0  0  0  0  0  0  0  0  0  0  0  0
   -1.0179   52.7482   75.0849 H   0  0  0  0  0  0  0  0  0  0  0  0
   -2.5790   54.7619   75.0389 H   0  0  0  0  0  0  0  0  0  0  0  0
   -3.0706   54.2949   76.7174 H   0  0  0  0  0  0  0  0  0  0  0  0
  2  1  2  0
  3  1  1  0
  4  3  1  0
  5  4  1  0
  6  5  2  0
  7  6  1  0
  7  3  1  0
  8  6  1  0
  9  8  2  0
 10  9  1  0
 11 10  2  0
 11  5  1  0
 12 10  1  0
 13 12  1  0
 14  9  1  0
 15 14  1  0
 16  1  1  0
 17 16  1  0
 19 18  2  0
 20 19  1  0
 21 20  2  0
 21 17  1  0
 22 21  1  0
 23 22  2  0
 23 18  1  0
 24 18  1  0
 26 25  1  0
 26 24  1  0
  3 27  1  1
  4 28  1  0
  4 29  1  0
  8 30  1  0
 11 31  1  0
 13 32  1  0
 13 33  1  0
 13 34  1  0
 15 35  1  0
 15 36  1  0
 15 37  1  0
 16 38  1  0
 16 39  1  0
 17 40  1  0
 17 41  1  0
 19 42  1  0
 20 43  1  0
 22 44  1  0
 23 45  1  0
 24 46  1  0
 24 47  1  0
 25 48  1  0
 25 49  1  0
 25 50  1  0
 26 51  1  0
 26 52  1  0
M  CHG  1  18   1
M  END
>  <score>  (9) 
-6.776

$$$$
