=
     RDKit          3D

 34 35  0  0  0  0  0  0  0  0999 V2000
    0.7510   67.7690   66.4340 C   0  0  2  0  0  0  0  0  0  0  0  0
    1.4790   67.8730   65.1000 C   0  0  0  0  0  0  0  0  0  0  0  0
    2.5910   67.0720   64.7940 C   0  0  0  0  0  0  0  0  0  0  0  0
    3.2620   67.2140   63.5770 C   0  0  0  0  0  0  0  0  0  0  0  0
    2.8440   68.1650   62.6370 C   0  0  0  0  0  0  0  0  0  0  0  0
    1.7500   68.9840   62.9480 C   0  0  0  0  0  0  0  0  0  0  0  0
    1.0770   68.8400   64.1650 C   0  0  0  0  0  0  0  0  0  0  0  0
    3.5830   68.3330   61.3320 C   0  0  0  0  0  0  0  0  0  0  0  0
    4.1710   67.1770   60.9190 F   0  0  0  0  0  0  0  0  0  0  0  0
    2.7770   68.7310   60.3060 F   0  0  0  0  0  0  0  0  0  0  0  0
    4.5810   69.2580   61.3980 F   0  0  0  0  0  0  0  0  0  0  0  0
   -0.6270   67.5290   66.1690 O   0  0  0  0  0  0  0  0  0  0  0  0
    0.9510   68.9700   67.3840 C   0  0  0  0  0  0  0  0  0  0  0  0
    0.0210   69.5660   67.9300 O   0  0  0  0  0  0  0  0  0  0  0  0
    2.3450   69.4590   67.6460 C   0  0  0  0  0  0  0  0  0  0  0  0
    3.3720   69.3810   66.6980 C   0  0  0  0  0  0  0  0  0  0  0  0
    4.6520   69.8620   66.9990 C   0  0  0  0  0  0  0  0  0  0  0  0
    4.9340   70.4230   68.2530 C   0  0  0  0  0  0  0  0  0  0  0  0
    3.9030   70.5080   69.1970 C   0  0  0  0  0  0  0  0  0  0  0  0
    2.6240   70.0280   68.8980 C   0  0  0  0  0  0  0  0  0  0  0  0
    6.3110   70.9600   68.5630 C   0  0  0  0  0  0  0  0  0  0  0  0
    7.2920   70.3830   67.8160 F   0  0  0  0  0  0  0  0  0  0  0  0
    6.6620   70.7600   69.8620 F   0  0  0  0  0  0  0  0  0  0  0  0
    6.4200   72.3010   68.3480 F   0  0  0  0  0  0  0  0  0  0  0  0
    1.1976   66.9298   66.9874 H   0  0  0  0  0  0  0  0  0  0  0  0
    2.9380   66.3235   65.5215 H   0  0  0  0  0  0  0  0  0  0  0  0
    4.1274   66.5725   63.3545 H   0  0  0  0  0  0  0  0  0  0  0  0
    1.4180   69.7468   62.2283 H   0  0  0  0  0  0  0  0  0  0  0  0
    0.2215   69.4928   64.3928 H   0  0  0  0  0  0  0  0  0  0  0  0
   -1.1176   67.4436   67.0246 H   0  0  0  0  0  0  0  0  0  0  0  0
    3.1722   68.9392   65.7106 H   0  0  0  0  0  0  0  0  0  0  0  0
    5.4472   69.7990   66.2416 H   0  0  0  0  0  0  0  0  0  0  0  0
    4.1009   70.9561   70.1819 H   0  0  0  0  0  0  0  0  0  0  0  0
    1.8272   70.0973   69.6532 H   0  0  0  0  0  0  0  0  0  0  0  0
  2  1  1  0
  3  2  2  0
  4  3  1  0
  5  4  2  0
  6  5  1  0
  7  6  2  0
  7  2  1  0
  8  5  1  0
  9  8  1  0
 10  8  1  0
 11  8  1  0
 12  1  1  0
 13  1  1  0
 14 13  2  0
 15 13  1  0
 16 15  2  0
 17 16  1  0
 18 17  2  0
 19 18  1  0
 20 19  2  0
 20 15  1  0
 21 18  1  0
 22 21  1  0
 23 21  1  0
 24 21  1  0
  1 25  1  1
  3 26  1  0
  4 27  1  0
  6 28  1  0
  7 29  1  0
 12 30  1  0
 16 31  1  0
 17 32  1  0
 19 33  1  0
 20 34  1  0
M  END
>  <score>  (1) 
-10.618

$$$$
=
     RDKit          3D

 34 35  0  0  0  0  0  0  0  0999 V2000
    3.1900   67.4750   63.5470 C   0  0  2  0  0  0  0  0  0  0  0  0
    1.8470   67.7880   64.1910 C   0  0  0  0  0  0  0  0  0  0  0  0
    0.9600   68.7300   63.6440 C   0  0  0  0  0  0  0  0  0  0  0  0
   -0.2500   69.0260   64.2770 C   0  0  0  0  0  0  0  0  0  0  0  0
   -0.6040   68.3920   65.4750 C   0  0  0  0  0  0  0  0  0  0  0  0
    0.2890   67.4690   66.0380 C   0  0  0  0  0  0  0  0  0  0  0  0
    1.4990   67.1720   65.4040 C   0  0  0  0  0  0  0  0  0  0  0  0
   -1.9010   68.7270   66.1690 C   0  0  0  0  0  0  0  0  0  0  0  0
   -1.8280   69.8960   66.8630 F   0  0  0  0  0  0  0  0  0  0  0  0
   -2.9500   68.8670   65.3100 F   0  0  0  0  0  0  0  0  0  0  0  0
   -2.2850   67.7800   67.0710 F   0  0  0  0  0  0  0  0  0  0  0  0
    3.7240   66.3140   64.1770 O   0  0  0  0  0  0  0  0  0  0  0  0
    4.2030   68.6400   63.5430 C   0  0  0  0  0  0  0  0  0  0  0  0
    4.7000   69.1040   62.5160 O   0  0  0  0  0  0  0  0  0  0  0  0
    4.6280   69.2310   64.8550 C   0  0  0  0  0  0  0  0  0  0  0  0
    3.7860   69.2980   65.9710 C   0  0  0  0  0  0  0  0  0  0  0  0
    4.2420   69.8550   67.1710 C   0  0  0  0  0  0  0  0  0  0  0  0
    5.5460   70.3610   67.2800 C   0  0  0  0  0  0  0  0  0  0  0  0
    6.3910   70.2860   66.1650 C   0  0  0  0  0  0  0  0  0  0  0  0
    5.9350   69.7300   64.9650 C   0  0  0  0  0  0  0  0  0  0  0  0
    6.0400   70.9400   68.5840 C   0  0  0  0  0  0  0  0  0  0  0  0
    5.2450   70.6280   69.6450 F   0  0  0  0  0  0  0  0  0  0  0  0
    6.1080   72.2980   68.5530 F   0  0  0  0  0  0  0  0  0  0  0  0
    7.2890   70.5100   68.9180 F   0  0  0  0  0  0  0  0  0  0  0  0
    3.0059   67.2948   62.4776 H   0  0  0  0  0  0  0  0  0  0  0  0
    1.2213   69.2410   62.7056 H   0  0  0  0  0  0  0  0  0  0  0  0
   -0.9317   69.7645   63.8300 H   0  0  0  0  0  0  0  0  0  0  0  0
    0.0351   66.9742   66.9871 H   0  0  0  0  0  0  0  0  0  0  0  0
    2.1876   66.4462   65.8613 H   0  0  0  0  0  0  0  0  0  0  0  0
    3.6752   66.4201   65.1601 H   0  0  0  0  0  0  0  0  0  0  0  0
    2.7588   68.9102   65.9044 H   0  0  0  0  0  0  0  0  0  0  0  0
    3.5692   69.8967   68.0403 H   0  0  0  0  0  0  0  0  0  0  0  0
    7.4206   70.6671   66.2336 H   0  0  0  0  0  0  0  0  0  0  0  0
    6.6092   69.6834   64.0971 H   0  0  0  0  0  0  0  0  0  0  0  0
  2  1  1  0
  3  2  2  0
  4  3  1  0
  5  4  2  0
  6  5  1  0
  7  6  2  0
  7  2  1  0
  8  5  1  0
  9  8  1  0
 10  8  1  0
 11  8  1  0
 12  1  1  0
 13  1  1  0
 14 13  2  0
 15 13  1  0
 16 15  2  0
 17 16  1  0
 18 17  2  0
 19 18  1  0
 20 19  2  0
 20 15  1  0
 21 18  1  0
 22 21  1  0
 23 21  1  0
 24 21  1  0
  1 25  1  6
  3 26  1  0
  4 27  1  0
  6 28  1  0
  7 29  1  0
 12 30  1  0
 16 31  1  0
 17 32  1  0
 19 33  1  0
 20 34  1  0
M  END
>  <score>  (2) 
-10.327

$$$$
=
     RDKit          3D

 34 35  0  0  0  0  0  0  0  0999 V2000
    1.9850   68.8300   63.7480 C   0  0  2  0  0  0  0  0  0  0  0  0
    0.9150   68.4140   64.7480 C   0  0  0  0  0  0  0  0  0  0  0  0
    1.1040   67.3460   65.6400 C   0  0  0  0  0  0  0  0  0  0  0  0
    0.0910   66.9620   66.5220 C   0  0  0  0  0  0  0  0  0  0  0  0
   -1.1400   67.6300   66.5310 C   0  0  0  0  0  0  0  0  0  0  0  0
   -1.3440   68.6800   65.6250 C   0  0  0  0  0  0  0  0  0  0  0  0
   -0.3290   69.0660   64.7440 C   0  0  0  0  0  0  0  0  0  0  0  0
   -2.2420   67.2010   67.4680 C   0  0  0  0  0  0  0  0  0  0  0  0
   -2.8550   66.0570   67.0550 F   0  0  0  0  0  0  0  0  0  0  0  0
   -1.8050   66.9530   68.7350 F   0  0  0  0  0  0  0  0  0  0  0  0
   -3.2300   68.1310   67.5930 F   0  0  0  0  0  0  0  0  0  0  0  0
    1.5800   68.3870   62.4560 O   0  0  0  0  0  0  0  0  0  0  0  0
    3.4170   68.3660   64.0890 C   0  0  0  0  0  0  0  0  0  0  0  0
    3.9870   67.4390   63.5100 O   0  0  0  0  0  0  0  0  0  0  0  0
    4.1550   69.0570   65.1980 C   0  0  0  0  0  0  0  0  0  0  0  0
    5.4750   69.5060   65.0730 C   0  0  0  0  0  0  0  0  0  0  0  0
    6.1080   70.1520   66.1420 C   0  0  0  0  0  0  0  0  0  0  0  0
    5.4380   70.3580   67.3570 C   0  0  0  0  0  0  0  0  0  0  0  0
    4.1150   69.9170   67.4770 C   0  0  0  0  0  0  0  0  0  0  0  0
    3.4810   69.2700   66.4100 C   0  0  0  0  0  0  0  0  0  0  0  0
    6.1190   71.0760   68.4980 C   0  0  0  0  0  0  0  0  0  0  0  0
    5.5870   70.7730   69.7140 F   0  0  0  0  0  0  0  0  0  0  0  0
    6.0370   72.4290   68.3780 F   0  0  0  0  0  0  0  0  0  0  0  0
    7.4470   70.7880   68.5910 F   0  0  0  0  0  0  0  0  0  0  0  0
    2.0585   69.9269   63.7841 H   0  0  0  0  0  0  0  0  0  0  0  0
    2.0617   66.8050   65.6443 H   0  0  0  0  0  0  0  0  0  0  0  0
    0.2619   66.1264   67.2166 H   0  0  0  0  0  0  0  0  0  0  0  0
   -2.3106   69.2047   65.6069 H   0  0  0  0  0  0  0  0  0  0  0  0
   -0.5072   69.8911   64.0386 H   0  0  0  0  0  0  0  0  0  0  0  0
    0.9150   67.6596   62.5500 H   0  0  0  0  0  0  0  0  0  0  0  0
    6.0183   69.3504   64.1293 H   0  0  0  0  0  0  0  0  0  0  0  0
    7.1443   70.5025   66.0274 H   0  0  0  0  0  0  0  0  0  0  0  0
    3.5689   70.0803   68.4178 H   0  0  0  0  0  0  0  0  0  0  0  0
    2.4427   68.9247   66.5229 H   0  0  0  0  0  0  0  0  0  0  0  0
  2  1  1  0
  3  2  2  0
  4  3  1  0
  5  4  2  0
  6  5  1  0
  7  6  2  0
  7  2  1  0
  8  5  1  0
  9  8  1  0
 10  8  1  0
 11  8  1  0
 12  1  1  0
 13  1  1  0
 14 13  2  0
 15 13  1  0
 16 15  2  0
 17 16  1  0
 18 17  2  0
 19 18  1  0
 20 19  2  0
 20 15  1  0
 21 18  1  0
 22 21  1  0
 23 21  1  0
 24 21  1  0
  1 25  1  6
  3 26  1  0
  4 27  1  0
  6 28  1  0
  7 29  1  0
 12 30  1  0
 16 31  1  0
 17 32  1  0
 19 33  1  0
 20 34  1  0
M  END
>  <score>  (3) 
-10.323

$$$$
=
     RDKit          3D

 34 35  0  0  0  0  0  0  0  0999 V2000
    0.0260   69.1210   66.9860 C   0  0  2  0  0  0  0  0  0  0  0  0
    0.1490   67.9700   67.9750 C   0  0  0  0  0  0  0  0  0  0  0  0
   -0.8960   67.0570   68.1900 C   0  0  0  0  0  0  0  0  0  0  0  0
   -0.7690   66.0320   69.1310 C   0  0  0  0  0  0  0  0  0  0  0  0
    0.4020   65.8960   69.8870 C   0  0  0  0  0  0  0  0  0  0  0  0
    1.4400   66.8200   69.6940 C   0  0  0  0  0  0  0  0  0  0  0  0
    1.3130   67.8440   68.7510 C   0  0  0  0  0  0  0  0  0  0  0  0
    0.5310   64.8030   70.9190 C   0  0  0  0  0  0  0  0  0  0  0  0
    1.8310   64.4950   71.1840 F   0  0  0  0  0  0  0  0  0  0  0  0
   -0.0290   65.1270   72.1180 F   0  0  0  0  0  0  0  0  0  0  0  0
   -0.0600   63.6360   70.5380 F   0  0  0  0  0  0  0  0  0  0  0  0
   -1.1210   69.8880   67.3390 O   0  0  0  0  0  0  0  0  0  0  0  0
    0.0010   68.7070   65.4980 C   0  0  0  0  0  0  0  0  0  0  0  0
   -1.0120   68.3110   64.9200 O   0  0  0  0  0  0  0  0  0  0  0  0
    1.2780   68.7640   64.7130 C   0  0  0  0  0  0  0  0  0  0  0  0
    1.3260   68.6150   63.3210 C   0  0  0  0  0  0  0  0  0  0  0  0
    2.5490   68.6850   62.6420 C   0  0  0  0  0  0  0  0  0  0  0  0
    3.7470   68.8990   63.3390 C   0  0  0  0  0  0  0  0  0  0  0  0
    3.6970   69.0560   64.7300 C   0  0  0  0  0  0  0  0  0  0  0  0
    2.4760   68.9850   65.4090 C   0  0  0  0  0  0  0  0  0  0  0  0
    5.0600   68.9960   62.5990 C   0  0  0  0  0  0  0  0  0  0  0  0
    4.9440   69.5870   61.3770 F   0  0  0  0  0  0  0  0  0  0  0  0
    5.6170   67.7750   62.3740 F   0  0  0  0  0  0  0  0  0  0  0  0
    5.9990   69.7170   63.2730 F   0  0  0  0  0  0  0  0  0  0  0  0
    0.9435   69.7223   67.0676 H   0  0  0  0  0  0  0  0  0  0  0  0
   -1.8262   67.1499   67.6103 H   0  0  0  0  0  0  0  0  0  0  0  0
   -1.5978   65.3242   69.2796 H   0  0  0  0  0  0  0  0  0  0  0  0
    2.3612   66.7380   70.2896 H   0  0  0  0  0  0  0  0  0  0  0  0
    2.1360   68.5610   68.6148 H   0  0  0  0  0  0  0  0  0  0  0  0
   -1.1945   69.9371   68.3250 H   0  0  0  0  0  0  0  0  0  0  0  0
    0.3972   68.4419   62.7576 H   0  0  0  0  0  0  0  0  0  0  0  0
    2.5701   68.5707   61.5482 H   0  0  0  0  0  0  0  0  0  0  0  0
    4.6248   69.2365   65.2927 H   0  0  0  0  0  0  0  0  0  0  0  0
    2.4549   69.1039   66.5023 H   0  0  0  0  0  0  0  0  0  0  0  0
  2  1  1  0
  3  2  2  0
  4  3  1  0
  5  4  2  0
  6  5  1  0
  7  6  2  0
  7  2  1  0
  8  5  1  0
  9  8  1  0
 10  8  1  0
 11  8  1  0
 12  1  1  0
 13  1  1  0
 14 13  2  0
 15 13  1  0
 16 15  2  0
 17 16  1  0
 18 17  2  0
 19 18  1  0
 20 19  2  0
 20 15  1  0
 21 18  1  0
 22 21  1  0
 23 21  1  0
 24 21  1  0
  1 25  1  6
  3 26  1  0
  4 27  1  0
  6 28  1  0
  7 29  1  0
 12 30  1  0
 16 31  1  0
 17 32  1  0
 19 33  1  0
 20 34  1  0
M  END
>  <score>  (4) 
-10.321

$$$$
=
     RDKit          3D

 34 35  0  0  0  0  0  0  0  0999 V2000
    0.7990   69.0040   67.2420 C   0  0  2  0  0  0  0  0  0  0  0  0
    2.2010   69.4670   67.6140 C   0  0  0  0  0  0  0  0  0  0  0  0
    2.4930   70.0240   68.8700 C   0  0  0  0  0  0  0  0  0  0  0  0
    3.7810   70.4740   69.1720 C   0  0  0  0  0  0  0  0  0  0  0  0
    4.8090   70.3860   68.2240 C   0  0  0  0  0  0  0  0  0  0  0  0
    4.5170   69.8530   66.9610 C   0  0  0  0  0  0  0  0  0  0  0  0
    3.2290   69.4010   66.6600 C   0  0  0  0  0  0  0  0  0  0  0  0
    6.1940   70.8920   68.5420 C   0  0  0  0  0  0  0  0  0  0  0  0
    6.5250   70.7020   69.8500 F   0  0  0  0  0  0  0  0  0  0  0  0
    7.1710   70.2770   67.8170 F   0  0  0  0  0  0  0  0  0  0  0  0
    6.3430   72.2260   68.3080 F   0  0  0  0  0  0  0  0  0  0  0  0
    0.1070   68.6750   68.4430 O   0  0  0  0  0  0  0  0  0  0  0  0
    0.7390   67.8540   66.2140 C   0  0  0  0  0  0  0  0  0  0  0  0
    0.1510   66.7910   66.4180 O   0  0  0  0  0  0  0  0  0  0  0  0
    1.4510   68.0200   64.9040 C   0  0  0  0  0  0  0  0  0  0  0  0
    1.0300   68.9160   63.9140 C   0  0  0  0  0  0  0  0  0  0  0  0
    1.7410   69.0320   62.7130 C   0  0  0  0  0  0  0  0  0  0  0  0
    2.8820   68.2520   62.4750 C   0  0  0  0  0  0  0  0  0  0  0  0
    3.3070   67.3620   63.4700 C   0  0  0  0  0  0  0  0  0  0  0  0
    2.5970   67.2450   64.6690 C   0  0  0  0  0  0  0  0  0  0  0  0
    3.6580   68.3970   61.1880 C   0  0  0  0  0  0  0  0  0  0  0  0
    4.2730   67.2460   60.8000 F   0  0  0  0  0  0  0  0  0  0  0  0
    4.6400   69.3350   61.2800 F   0  0  0  0  0  0  0  0  0  0  0  0
    2.8780   68.7740   60.1360 F   0  0  0  0  0  0  0  0  0  0  0  0
    0.3074   69.8376   66.7191 H   0  0  0  0  0  0  0  0  0  0  0  0
    1.6977   70.1070   69.6254 H   0  0  0  0  0  0  0  0  0  0  0  0
    3.9899   70.9015   70.1638 H   0  0  0  0  0  0  0  0  0  0  0  0
    5.3086   69.7898   66.1998 H   0  0  0  0  0  0  0  0  0  0  0  0
    3.0180   68.9881   65.6625 H   0  0  0  0  0  0  0  0  0  0  0  0
    0.6574   68.9367   69.2232 H   0  0  0  0  0  0  0  0  0  0  0  0
    0.1347   69.5330   64.0806 H   0  0  0  0  0  0  0  0  0  0  0  0
    1.4002   69.7438   61.9467 H   0  0  0  0  0  0  0  0  0  0  0  0
    4.2065   66.7503   63.3067 H   0  0  0  0  0  0  0  0  0  0  0  0
    2.9410   66.5369   65.4373 H   0  0  0  0  0  0  0  0  0  0  0  0
  2  1  1  0
  3  2  2  0
  4  3  1  0
  5  4  2  0
  6  5  1  0
  7  6  2  0
  7  2  1  0
  8  5  1  0
  9  8  1  0
 10  8  1  0
 11  8  1  0
 12  1  1  0
 13  1  1  0
 14 13  2  0
 15 13  1  0
 16 15  2  0
 17 16  1  0
 18 17  2  0
 19 18  1  0
 20 19  2  0
 20 15  1  0
 21 18  1  0
 22 21  1  0
 23 21  1  0
 24 21  1  0
  1 25  1  6
  3 26  1  0
  4 27  1  0
  6 28  1  0
  7 29  1  0
 12 30  1  0
 16 31  1  0
 17 32  1  0
 19 33  1  0
 20 34  1  0
M  END
>  <score>  (5) 
-10.256

$$$$
=
     RDKit          3D

 34 35  0  0  0  0  0  0  0  0999 V2000
    0.9400   69.2380   67.1220 C   0  0  2  0  0  0  0  0  0  0  0  0
    2.3560   69.6230   67.5290 C   0  0  0  0  0  0  0  0  0  0  0  0
    2.6390   70.2210   68.7670 C   0  0  0  0  0  0  0  0  0  0  0  0
    3.9430   70.5990   69.0990 C   0  0  0  0  0  0  0  0  0  0  0  0
    4.9970   70.3940   68.1990 C   0  0  0  0  0  0  0  0  0  0  0  0
    4.7160   69.8200   66.9510 C   0  0  0  0  0  0  0  0  0  0  0  0
    3.4120   69.4410   66.6210 C   0  0  0  0  0  0  0  0  0  0  0  0
    6.4010   70.8220   68.5490 C   0  0  0  0  0  0  0  0  0  0  0  0
    6.6050   72.1510   68.3330 F   0  0  0  0  0  0  0  0  0  0  0  0
    6.7210   70.6010   69.8550 F   0  0  0  0  0  0  0  0  0  0  0  0
    7.3540   70.1740   67.8210 F   0  0  0  0  0  0  0  0  0  0  0  0
    0.0340   69.8650   68.0250 O   0  0  0  0  0  0  0  0  0  0  0  0
    0.6800   67.7200   67.0120 C   0  0  0  0  0  0  0  0  0  0  0  0
    0.5540   67.1290   65.9390 O   0  0  0  0  0  0  0  0  0  0  0  0
    0.5490   66.9170   68.2730 C   0  0  0  0  0  0  0  0  0  0  0  0
   -0.6840   66.4940   68.7840 C   0  0  0  0  0  0  0  0  0  0  0  0
   -0.7420   65.7400   69.9620 C   0  0  0  0  0  0  0  0  0  0  0  0
    0.4290   65.3980   70.6560 C   0  0  0  0  0  0  0  0  0  0  0  0
    1.6620   65.8150   70.1390 C   0  0  0  0  0  0  0  0  0  0  0  0
    1.7200   66.5690   68.9620 C   0  0  0  0  0  0  0  0  0  0  0  0
    0.3620   64.5660   71.9140 C   0  0  0  0  0  0  0  0  0  0  0  0
   -0.1260   65.2510   72.9850 F   0  0  0  0  0  0  0  0  0  0  0  0
    1.5840   64.1010   72.2910 F   0  0  0  0  0  0  0  0  0  0  0  0
   -0.4330   63.4670   71.7830 F   0  0  0  0  0  0  0  0  0  0  0  0
    0.7846   69.5974   66.0941 H   0  0  0  0  0  0  0  0  0  0  0  0
    1.8240   70.3944   69.4851 H   0  0  0  0  0  0  0  0  0  0  0  0
    4.1437   71.0620   70.0764 H   0  0  0  0  0  0  0  0  0  0  0  0
    5.5287   69.6667   66.2257 H   0  0  0  0  0  0  0  0  0  0  0  0
    3.2098   68.9939   65.6365 H   0  0  0  0  0  0  0  0  0  0  0  0
    0.3106   69.6736   68.9561 H   0  0  0  0  0  0  0  0  0  0  0  0
   -1.6130   66.7558   68.2564 H   0  0  0  0  0  0  0  0  0  0  0  0
   -1.7179   65.4113   70.3487 H   0  0  0  0  0  0  0  0  0  0  0  0
    2.5919   65.5476   70.6623 H   0  0  0  0  0  0  0  0  0  0  0  0
    2.6962   66.8930   68.5721 H   0  0  0  0  0  0  0  0  0  0  0  0
  2  1  1  0
  3  2  2  0
  4  3  1  0
  5  4  2  0
  6  5  1  0
  7  6  2  0
  7  2  1  0
  8  5  1  0
  9  8  1  0
 10  8  1  0
 11  8  1  0
 12  1  1  0
 13  1  1  0
 14 13  2  0
 15 13  1  0
 16 15  2  0
 17 16  1  0
 18 17  2  0
 19 18  1  0
 20 19  2  0
 20 15  1  0
 21 18  1  0
 22 21  1  0
 23 21  1  0
 24 21  1  0
  1 25  1  6
  3 26  1  0
  4 27  1  0
  6 28  1  0
  7 29  1  0
 12 30  1  0
 16 31  1  0
 17 32  1  0
 19 33  1  0
 20 34  1  0
M  END
>  <score>  (6) 
-10.181

$$$$
=
     RDKit          3D

 34 35  0  0  0  0  0  0  0  0999 V2000
   -0.0810   68.3820   65.7280 C   0  0  2  0  0  0  0  0  0  0  0  0
    1.2090   68.5890   64.9460 C   0  0  0  0  0  0  0  0  0  0  0  0
    1.2430   68.5570   63.5420 C   0  0  0  0  0  0  0  0  0  0  0  0
    2.4470   68.7120   62.8510 C   0  0  0  0  0  0  0  0  0  0  0  0
    3.6500   68.8970   63.5440 C   0  0  0  0  0  0  0  0  0  0  0  0
    3.6260   68.9050   64.9460 C   0  0  0  0  0  0  0  0  0  0  0  0
    2.4200   68.7510   65.6370 C   0  0  0  0  0  0  0  0  0  0  0  0
    4.9530   69.0430   62.7980 C   0  0  0  0  0  0  0  0  0  0  0  0
    5.8040   69.9120   63.4110 F   0  0  0  0  0  0  0  0  0  0  0  0
    5.6390   67.8710   62.6790 F   0  0  0  0  0  0  0  0  0  0  0  0
    4.7940   69.5090   61.5280 F   0  0  0  0  0  0  0  0  0  0  0  0
   -1.1210   69.0930   65.0630 O   0  0  0  0  0  0  0  0  0  0  0  0
   -0.0050   68.7470   67.2260 C   0  0  0  0  0  0  0  0  0  0  0  0
   -0.0230   69.9050   67.6440 O   0  0  0  0  0  0  0  0  0  0  0  0
    0.1220   67.6410   68.2320 C   0  0  0  0  0  0  0  0  0  0  0  0
   -0.8900   66.7020   68.4660 C   0  0  0  0  0  0  0  0  0  0  0  0
   -0.7100   65.6870   69.4140 C   0  0  0  0  0  0  0  0  0  0  0  0
    0.4800   65.5930   70.1510 C   0  0  0  0  0  0  0  0  0  0  0  0
    1.4940   66.5290   69.9100 C   0  0  0  0  0  0  0  0  0  0  0  0
    1.3150   67.5430   68.9630 C   0  0  0  0  0  0  0  0  0  0  0  0
    0.6770   64.4840   71.1550 C   0  0  0  0  0  0  0  0  0  0  0  0
    0.1240   64.7560   72.3700 F   0  0  0  0  0  0  0  0  0  0  0  0
    1.9920   64.2290   71.3910 F   0  0  0  0  0  0  0  0  0  0  0  0
    0.1320   63.3010   70.7560 F   0  0  0  0  0  0  0  0  0  0  0  0
   -0.2873   67.3016   65.7404 H   0  0  0  0  0  0  0  0  0  0  0  0
    0.3095   68.4080   62.9796 H   0  0  0  0  0  0  0  0  0  0  0  0
    2.4504   68.6885   61.7513 H   0  0  0  0  0  0  0  0  0  0  0  0
    4.5635   69.0335   65.5069 H   0  0  0  0  0  0  0  0  0  0  0  0
    2.4204   68.7569   66.7370 H   0  0  0  0  0  0  0  0  0  0  0  0
   -1.7216   69.5036   65.7344 H   0  0  0  0  0  0  0  0  0  0  0  0
   -1.8323   66.7619   67.9017 H   0  0  0  0  0  0  0  0  0  0  0  0
   -1.5124   64.9537   69.5830 H   0  0  0  0  0  0  0  0  0  0  0  0
    2.4387   66.4662   70.4700 H   0  0  0  0  0  0  0  0  0  0  0  0
    2.1198   68.2725   68.7895 H   0  0  0  0  0  0  0  0  0  0  0  0
  2  1  1  0
  3  2  2  0
  4  3  1  0
  5  4  2  0
  6  5  1  0
  7  6  2  0
  7  2  1  0
  8  5  1  0
  9  8  1  0
 10  8  1  0
 11  8  1  0
 12  1  1  0
 13  1  1  0
 14 13  2  0
 15 13  1  0
 16 15  2  0
 17 16  1  0
 18 17  2  0
 19 18  1  0
 20 19  2  0
 20 15  1  0
 21 18  1  0
 22 21  1  0
 23 21  1  0
 24 21  1  0
  1 25  1  1
  3 26  1  0
  4 27  1  0
  6 28  1  0
  7 29  1  0
 12 30  1  0
 16 31  1  0
 17 32  1  0
 19 33  1  0
 20 34  1  0
M  END
>  <score>  (7) 
-10.008

$$$$
=
     RDKit          3D

 34 35  0  0  0  0  0  0  0  0999 V2000
    3.4940   68.2870   63.8280 C   0  0  2  0  0  0  0  0  0  0  0  0
    4.1130   69.0160   65.0130 C   0  0  0  0  0  0  0  0  0  0  0  0
    5.4310   69.5010   64.9840 C   0  0  0  0  0  0  0  0  0  0  0  0
    5.9860   70.1330   66.0990 C   0  0  0  0  0  0  0  0  0  0  0  0
    5.2430   70.2910   67.2750 C   0  0  0  0  0  0  0  0  0  0  0  0
    3.9350   69.7870   67.3190 C   0  0  0  0  0  0  0  0  0  0  0  0
    3.3790   69.1560   66.2020 C   0  0  0  0  0  0  0  0  0  0  0  0
    5.8500   70.9540   68.4870 C   0  0  0  0  0  0  0  0  0  0  0  0
    5.2480   70.5640   69.6440 F   0  0  0  0  0  0  0  0  0  0  0  0
    7.1750   70.6790   68.6430 F   0  0  0  0  0  0  0  0  0  0  0  0
    5.7550   72.3130   68.4560 F   0  0  0  0  0  0  0  0  0  0  0  0
    4.3390   68.4800   62.6980 O   0  0  0  0  0  0  0  0  0  0  0  0
    2.0290   68.6660   63.5190 C   0  0  0  0  0  0  0  0  0  0  0  0
    1.6810   69.2500   62.4920 O   0  0  0  0  0  0  0  0  0  0  0  0
    0.9690   68.3290   64.5260 C   0  0  0  0  0  0  0  0  0  0  0  0
   -0.2240   69.0520   64.6500 C   0  0  0  0  0  0  0  0  0  0  0  0
   -1.1800   68.6850   65.6050 C   0  0  0  0  0  0  0  0  0  0  0  0
   -0.9620   67.5940   66.4580 C   0  0  0  0  0  0  0  0  0  0  0  0
    0.2280   66.8660   66.3280 C   0  0  0  0  0  0  0  0  0  0  0  0
    1.1840   67.2320   65.3740 C   0  0  0  0  0  0  0  0  0  0  0  0
   -2.0060   67.1890   67.4710 C   0  0  0  0  0  0  0  0  0  0  0  0
   -2.9830   68.1230   67.6360 F   0  0  0  0  0  0  0  0  0  0  0  0
   -1.4740   66.9810   68.7060 F   0  0  0  0  0  0  0  0  0  0  0  0
   -2.6490   66.0340   67.1400 F   0  0  0  0  0  0  0  0  0  0  0  0
    3.4305   67.2218   64.0948 H   0  0  0  0  0  0  0  0  0  0  0  0
    6.0336   69.3815   64.0716 H   0  0  0  0  0  0  0  0  0  0  0  0
    7.0181   70.5107   66.0527 H   0  0  0  0  0  0  0  0  0  0  0  0
    3.3417   69.8889   68.2397 H   0  0  0  0  0  0  0  0  0  0  0  0
    2.3526   68.7639   66.2553 H   0  0  0  0  0  0  0  0  0  0  0  0
    5.2568   68.6896   63.0042 H   0  0  0  0  0  0  0  0  0  0  0  0
   -0.4113   69.9140   63.9928 H   0  0  0  0  0  0  0  0  0  0  0  0
   -2.1141   69.2601   65.6870 H   0  0  0  0  0  0  0  0  0  0  0  0
    0.4122   66.0001   66.9809 H   0  0  0  0  0  0  0  0  0  0  0  0
    2.1152   66.6528   65.2878 H   0  0  0  0  0  0  0  0  0  0  0  0
  2  1  1  0
  3  2  2  0
  4  3  1  0
  5  4  2  0
  6  5  1  0
  7  6  2  0
  7  2  1  0
  8  5  1  0
  9  8  1  0
 10  8  1  0
 11  8  1  0
 12  1  1  0
 13  1  1  0
 14 13  2  0
 15 13  1  0
 16 15  2  0
 17 16  1  0
 18 17  2  0
 19 18  1  0
 20 19  2  0
 20 15  1  0
 21 18  1  0
 22 21  1  0
 23 21  1  0
 24 21  1  0
  1 25  1  1
  3 26  1  0
  4 27  1  0
  6 28  1  0
  7 29  1  0
 12 30  1  0
 16 31  1  0
 17 32  1  0
 19 33  1  0
 20 34  1  0
M  END
>  <score>  (8) 
-9.963

$$$$
=
     RDKit          3D

 34 35  0  0  0  0  0  0  0  0999 V2000
    1.0310   67.7850   66.2720 C   0  0  2  0  0  0  0  0  0  0  0  0
    0.7470   68.3390   64.8830 C   0  0  0  0  0  0  0  0  0  0  0  0
    1.7680   68.5560   63.9430 C   0  0  0  0  0  0  0  0  0  0  0  0
    1.4830   69.1010   62.6890 C   0  0  0  0  0  0  0  0  0  0  0  0
    0.1720   69.4490   62.3420 C   0  0  0  0  0  0  0  0  0  0  0  0
   -0.8480   69.2570   63.2840 C   0  0  0  0  0  0  0  0  0  0  0  0
   -0.5630   68.7110   64.5390 C   0  0  0  0  0  0  0  0  0  0  0  0
   -0.1330   70.0570   60.9950 C   0  0  0  0  0  0  0  0  0  0  0  0
    0.6880   71.1050   60.7050 F   0  0  0  0  0  0  0  0  0  0  0  0
    0.0060   69.1770   59.9640 F   0  0  0  0  0  0  0  0  0  0  0  0
   -1.4030   70.5400   60.9010 F   0  0  0  0  0  0  0  0  0  0  0  0
    0.0370   66.8100   66.5720 O   0  0  0  0  0  0  0  0  0  0  0  0
    1.1500   68.8450   67.3890 C   0  0  0  0  0  0  0  0  0  0  0  0
    0.1840   69.2800   68.0170 O   0  0  0  0  0  0  0  0  0  0  0  0
    2.5050   69.3980   67.7180 C   0  0  0  0  0  0  0  0  0  0  0  0
    2.8130   69.9800   68.9530 C   0  0  0  0  0  0  0  0  0  0  0  0
    4.0990   70.4730   69.2040 C   0  0  0  0  0  0  0  0  0  0  0  0
    5.1020   70.3980   68.2260 C   0  0  0  0  0  0  0  0  0  0  0  0
    4.7950   69.8080   66.9930 C   0  0  0  0  0  0  0  0  0  0  0  0
    3.5090   69.3160   66.7420 C   0  0  0  0  0  0  0  0  0  0  0  0
    6.4930   70.9100   68.5100 C   0  0  0  0  0  0  0  0  0  0  0  0
    6.6420   72.2370   68.2380 F   0  0  0  0  0  0  0  0  0  0  0  0
    7.4400   70.2680   67.7740 F   0  0  0  0  0  0  0  0  0  0  0  0
    6.8620   70.7550   69.8120 F   0  0  0  0  0  0  0  0  0  0  0  0
    2.0327   67.3313   66.2456 H   0  0  0  0  0  0  0  0  0  0  0  0
    2.8053   68.2933   64.1978 H   0  0  0  0  0  0  0  0  0  0  0  0
    2.2972   69.2585   61.9663 H   0  0  0  0  0  0  0  0  0  0  0  0
   -1.8815   69.5383   63.0336 H   0  0  0  0  0  0  0  0  0  0  0  0
   -1.3757   68.5708   65.2669 H   0  0  0  0  0  0  0  0  0  0  0  0
   -0.0529   66.7218   67.5539 H   0  0  0  0  0  0  0  0  0  0  0  0
    2.0393   70.0505   69.7317 H   0  0  0  0  0  0  0  0  0  0  0  0
    4.3260   70.9251   70.1808 H   0  0  0  0  0  0  0  0  0  0  0  0
    5.5703   69.7309   66.2165 H   0  0  0  0  0  0  0  0  0  0  0  0
    3.2829   68.8593   65.7672 H   0  0  0  0  0  0  0  0  0  0  0  0
  2  1  1  0
  3  2  2  0
  4  3  1  0
  5  4  2  0
  6  5  1  0
  7  6  2  0
  7  2  1  0
  8  5  1  0
  9  8  1  0
 10  8  1  0
 11  8  1  0
 12  1  1  0
 13  1  1  0
 14 13  2  0
 15 13  1  0
 16 15  2  0
 17 16  1  0
 18 17  2  0
 19 18  1  0
 20 19  2  0
 20 15  1  0
 21 18  1  0
 22 21  1  0
 23 21  1  0
 24 21  1  0
  1 25  1  6
  3 26  1  0
  4 27  1  0
  6 28  1  0
  7 29  1  0
 12 30  1  0
 16 31  1  0
 17 32  1  0
 19 33  1  0
 20 34  1  0
M  END
>  <score>  (9) 
-9.644

$$$$
