=
     RDKit          3D

 11 10  0  0  0  0  0  0  0  0999 V2000
    5.9850   71.2330   68.1790 C   0  0  1  0  0  0  0  0  0  0  0  0
    7.1020   70.9550   69.1630 C   0  0  0  0  0  0  0  0  0  0  0  0
    4.3310   70.6140   69.8130 O   0  0  0  0  0  1  0  0  0  0  0  0
    4.6570   70.5310   68.5980 C   0  0  0  0  0  0  0  0  0  0  0  0
    4.0760   69.9460   67.6300 O   0  0  0  0  0  0  0  0  0  0  0  0
    5.7730   72.6650   68.1130 O   0  0  0  0  0  0  0  0  0  0  0  0
    6.2779   70.8341   67.1966 H   0  0  0  0  0  0  0  0  0  0  0  0
    6.7185   71.0504   70.1896 H   0  0  0  0  0  0  0  0  0  0  0  0
    7.4825   69.9348   69.0071 H   0  0  0  0  0  0  0  0  0  0  0  0
    7.9163   71.6779   69.0071 H   0  0  0  0  0  0  0  0  0  0  0  0
    5.7185   73.0332   69.0304 H   0  0  0  0  0  0  0  0  0  0  0  0
  2  1  1  0
  4  3  1  0
  4  1  1  0
  5  4  2  0
  6  1  1  0
  1  7  1  6
  2  8  1  0
  2  9  1  0
  2 10  1  0
  6 11  1  0
M  CHG  1   3  -1
M  END
>  <score>  (1) 
-4.314

$$$$
=
     RDKit          3D

 11 10  0  0  0  0  0  0  0  0999 V2000
    6.4200   71.3170   67.9220 C   0  0  1  0  0  0  0  0  0  0  0  0
    7.1220   70.9300   69.2070 C   0  0  0  0  0  0  0  0  0  0  0  0
    5.6130   69.5770   66.4700 O   0  0  0  0  0  1  0  0  0  0  0  0
    5.3580   70.2560   67.5010 C   0  0  0  0  0  0  0  0  0  0  0  0
    4.3470   70.2300   68.2730 O   0  0  0  0  0  0  0  0  0  0  0  0
    5.7700   72.5980   68.1180 O   0  0  0  0  0  0  0  0  0  0  0  0
    7.1694   71.3760   67.1190 H   0  0  0  0  0  0  0  0  0  0  0  0
    6.5214   71.2611   70.0670 H   0  0  0  0  0  0  0  0  0  0  0  0
    7.2436   69.8374   69.2436 H   0  0  0  0  0  0  0  0  0  0  0  0
    8.1109   71.4104   69.2436 H   0  0  0  0  0  0  0  0  0  0  0  0
    5.6791   72.7770   69.0874 H   0  0  0  0  0  0  0  0  0  0  0  0
  2  1  1  0
  4  3  1  0
  4  1  1  0
  5  4  2  0
  6  1  1  0
  1  7  1  6
  2  8  1  0
  2  9  1  0
  2 10  1  0
  6 11  1  0
M  CHG  1   3  -1
M  END
>  <score>  (2) 
-4.179

$$$$
=
     RDKit          3D

 11 10  0  0  0  0  0  0  0  0999 V2000
    5.5340   71.1940   68.4900 C   0  0  1  0  0  0  0  0  0  0  0  0
    4.1730   70.9740   69.1170 C   0  0  0  0  0  0  0  0  0  0  0  0
    4.6980   70.1610   66.4840 O   0  0  0  0  0  1  0  0  0  0  0  0
    5.7210   70.3400   67.1990 C   0  0  0  0  0  0  0  0  0  0  0  0
    6.9120   69.9190   67.0490 O   0  0  0  0  0  0  0  0  0  0  0  0
    5.6690   72.5990   68.1610 O   0  0  0  0  0  0  0  0  0  0  0  0
    6.3047   70.8832   69.2107 H   0  0  0  0  0  0  0  0  0  0  0  0
    4.2673   70.9893   70.2128 H   0  0  0  0  0  0  0  0  0  0  0  0
    3.4883   71.7731   68.7968 H   0  0  0  0  0  0  0  0  0  0  0  0
    3.7749   69.9998   68.7968 H   0  0  0  0  0  0  0  0  0  0  0  0
    5.7200   73.1298   68.9951 H   0  0  0  0  0  0  0  0  0  0  0  0
  2  1  1  0
  4  3  1  0
  4  1  1  0
  5  4  2  0
  6  1  1  0
  1  7  1  1
  2  8  1  0
  2  9  1  0
  2 10  1  0
  6 11  1  0
M  CHG  1   3  -1
M  END
>  <score>  (3) 
-4.074

$$$$
=
     RDKit          3D

 11 10  0  0  0  0  0  0  0  0999 V2000
    6.0000   71.1520   68.4430 C   0  0  1  0  0  0  0  0  0  0  0  0
    6.3780   70.4060   67.1800 C   0  0  0  0  0  0  0  0  0  0  0  0
    6.8620   70.3310   70.5340 O   0  0  0  0  0  1  0  0  0  0  0  0
    7.1130   71.0510   69.5300 C   0  0  0  0  0  0  0  0  0  0  0  0
    8.1470   71.7380   69.2490 O   0  0  0  0  0  0  0  0  0  0  0  0
    5.7790   72.5450   68.1080 O   0  0  0  0  0  0  0  0  0  0  0  0
    5.0875   70.6978   68.8566 H   0  0  0  0  0  0  0  0  0  0  0  0
    6.8603   69.4541   67.4469 H   0  0  0  0  0  0  0  0  0  0  0  0
    5.4729   70.2051   66.5880 H   0  0  0  0  0  0  0  0  0  0  0  0
    7.0752   71.0170   66.5880 H   0  0  0  0  0  0  0  0  0  0  0  0
    5.6949   73.0751   68.9399 H   0  0  0  0  0  0  0  0  0  0  0  0
  2  1  1  0
  4  3  1  0
  4  1  1  0
  5  4  2  0
  6  1  1  0
  1  7  1  1
  2  8  1  0
  2  9  1  0
  2 10  1  0
  6 11  1  0
M  CHG  1   3  -1
M  END
>  <score>  (4) 
-4.029

$$$$
=
     RDKit          3D

 11 10  0  0  0  0  0  0  0  0999 V2000
    5.5780   70.1820   67.7270 C   0  0  1  0  0  0  0  0  0  0  0  0
    5.7160   70.1530   66.2190 C   0  0  0  0  0  0  0  0  0  0  0  0
    5.8940   72.5490   68.0290 O   0  0  0  0  0  1  0  0  0  0  0  0
    6.3170   71.4060   68.3510 C   0  0  0  0  0  0  0  0  0  0  0  0
    7.2790   71.0700   69.1130 O   0  0  0  0  0  0  0  0  0  0  0  0
    4.1690   70.2480   68.0620 O   0  0  0  0  0  0  0  0  0  0  0  0
    6.0359   69.2698   68.1371 H   0  0  0  0  0  0  0  0  0  0  0  0
    6.7599   69.9336   65.9505 H   0  0  0  0  0  0  0  0  0  0  0  0
    5.0594   69.3732   65.8056 H   0  0  0  0  0  0  0  0  0  0  0  0
    5.4289   71.1311   65.8056 H   0  0  0  0  0  0  0  0  0  0  0  0
    4.0637   70.2529   69.0464 H   0  0  0  0  0  0  0  0  0  0  0  0
  2  1  1  0
  4  3  1  0
  4  1  1  0
  5  4  2  0
  6  1  1  0
  1  7  1  1
  2  8  1  0
  2  9  1  0
  2 10  1  0
  6 11  1  0
M  CHG  1   3  -1
M  END
>  <score>  (5) 
-3.926

$$$$
=
     RDKit          3D

 11 10  0  0  0  0  0  0  0  0999 V2000
    4.3770   65.6250   63.7330 C   0  0  1  0  0  0  0  0  0  0  0  0
    3.1550   66.1330   64.4680 C   0  0  0  0  0  0  0  0  0  0  0  0
    5.5720   63.5650   63.3850 O   0  0  0  0  0  1  0  0  0  0  0  0
    4.5100   64.0740   63.8350 C   0  0  0  0  0  0  0  0  0  0  0  0
    3.4920   63.5210   64.3620 O   0  0  0  0  0  0  0  0  0  0  0  0
    4.2720   66.0090   62.3400 O   0  0  0  0  0  0  0  0  0  0  0  0
    5.2714   66.0681   64.1952 H   0  0  0  0  0  0  0  0  0  0  0  0
    3.3240   66.0628   65.5527 H   0  0  0  0  0  0  0  0  0  0  0  0
    2.9713   67.1820   64.1927 H   0  0  0  0  0  0  0  0  0  0  0  0
    2.2818   65.5234   64.1927 H   0  0  0  0  0  0  0  0  0  0  0  0
    4.0114   66.9621   62.2792 H   0  0  0  0  0  0  0  0  0  0  0  0
  2  1  1  0
  4  3  1  0
  4  1  1  0
  5  4  2  0
  6  1  1  0
  1  7  1  1
  2  8  1  0
  2  9  1  0
  2 10  1  0
  6 11  1  0
M  CHG  1   3  -1
M  END
>  <score>  (6) 
-3.853

$$$$
=
     RDKit          3D

 11 10  0  0  0  0  0  0  0  0999 V2000
   -8.4460   70.0060   56.3280 C   0  0  1  0  0  0  0  0  0  0  0  0
   -7.2180   69.1760   56.6360 C   0  0  0  0  0  0  0  0  0  0  0  0
   -8.5560   71.2720   54.2840 O   0  0  0  0  0  1  0  0  0  0  0  0
   -8.0990   71.2530   55.4590 C   0  0  0  0  0  0  0  0  0  0  0  0
   -7.3700   72.0980   56.0710 O   0  0  0  0  0  0  0  0  0  0  0  0
   -9.3990   69.1760   55.6180 O   0  0  0  0  0  0  0  0  0  0  0  0
   -8.8692   70.3670   57.2770 H   0  0  0  0  0  0  0  0  0  0  0  0
   -7.0954   69.0931   57.7260 H   0  0  0  0  0  0  0  0  0  0  0  0
   -7.3361   68.1718   56.2029 H   0  0  0  0  0  0  0  0  0  0  0  0
   -6.3302   69.6600   56.2029 H   0  0  0  0  0  0  0  0  0  0  0  0
   -9.9607   68.6868   56.2701 H   0  0  0  0  0  0  0  0  0  0  0  0
  2  1  1  0
  4  3  1  0
  4  1  1  0
  5  4  2  0
  6  1  1  0
  1  7  1  1
  2  8  1  0
  2  9  1  0
  2 10  1  0
  6 11  1  0
M  CHG  1   3  -1
M  END
>  <score>  (7) 
-3.814

$$$$
=
     RDKit          3D

 11 10  0  0  0  0  0  0  0  0999 V2000
   -1.4800   68.5140   66.0240 C   0  0  1  0  0  0  0  0  0  0  0  0
   -0.0770   68.6190   65.4660 C   0  0  0  0  0  0  0  0  0  0  0  0
   -2.6630   67.3970   67.7970 O   0  0  0  0  0  1  0  0  0  0  0  0
   -1.5680   67.4650   67.1750 C   0  0  0  0  0  0  0  0  0  0  0  0
   -0.4880   66.8140   67.3390 O   0  0  0  0  0  0  0  0  0  0  0  0
   -1.8770   69.8150   66.5260 O   0  0  0  0  0  0  0  0  0  0  0  0
   -2.1519   68.1828   65.2184 H   0  0  0  0  0  0  0  0  0  0  0  0
    0.6442   68.6730   66.2949 H   0  0  0  0  0  0  0  0  0  0  0  0
    0.1393   67.7345   64.8488 H   0  0  0  0  0  0  0  0  0  0  0  0
    0.0052   69.5258   64.8488 H   0  0  0  0  0  0  0  0  0  0  0  0
   -1.8730   69.8020   67.5159 H   0  0  0  0  0  0  0  0  0  0  0  0
  2  1  1  0
  4  3  1  0
  4  1  1  0
  5  4  2  0
  6  1  1  0
  1  7  1  6
  2  8  1  0
  2  9  1  0
  2 10  1  0
  6 11  1  0
M  CHG  1   3  -1
M  END
>  <score>  (8) 
-3.649

$$$$
=
     RDKit          3D

 11 10  0  0  0  0  0  0  0  0999 V2000
    5.2630   68.0480   63.1160 C   0  0  1  0  0  0  0  0  0  0  0  0
    4.4260   69.1400   63.7490 C   0  0  0  0  0  0  0  0  0  0  0  0
    4.4730   65.8140   62.6960 O   0  0  0  0  0  1  0  0  0  0  0  0
    4.3830   67.0210   62.3400 C   0  0  0  0  0  0  0  0  0  0  0  0
    3.6850   67.5570   61.4220 O   0  0  0  0  0  0  0  0  0  0  0  0
    6.2080   68.6600   62.2020 O   0  0  0  0  0  0  0  0  0  0  0  0
    5.7867   67.5028   63.9150 H   0  0  0  0  0  0  0  0  0  0  0  0
    4.4871   69.0603   64.8444 H   0  0  0  0  0  0  0  0  0  0  0  0
    4.8043   70.1228   63.4312 H   0  0  0  0  0  0  0  0  0  0  0  0
    3.3787   69.0300   63.4312 H   0  0  0  0  0  0  0  0  0  0  0  0
    6.9168   69.1190   62.7187 H   0  0  0  0  0  0  0  0  0  0  0  0
  2  1  1  0
  4  3  1  0
  4  1  1  0
  5  4  2  0
  6  1  1  0
  1  7  1  1
  2  8  1  0
  2  9  1  0
  2 10  1  0
  6 11  1  0
M  CHG  1   3  -1
M  END
>  <score>  (9) 
-3.643

$$$$
