=
     RDKit          3D

 10  9  0  0  0  0  0  0  0  0999 V2000
    6.4240   71.4020   68.4370 C   0  0  0  0  0  0  0  0  0  0  0  0
    5.7510   72.6020   68.0950 O   0  0  0  0  0  0  0  0  0  0  0  0
    6.3010   70.4710   67.2790 C   0  0  0  0  0  0  0  0  0  0  0  0
    5.1490   69.9490   66.8380 C   0  0  0  0  0  0  0  0  0  0  0  0
    7.4848   71.6113   68.6391 H   0  0  0  0  0  0  0  0  0  0  0  0
    5.9830   70.9555   69.3404 H   0  0  0  0  0  0  0  0  0  0  0  0
    5.4842   73.0777   68.9212 H   0  0  0  0  0  0  0  0  0  0  0  0
    7.2234   70.1926   66.7482 H   0  0  0  0  0  0  0  0  0  0  0  0
    5.1488   69.2682   65.9740 H   0  0  0  0  0  0  0  0  0  0  0  0
    4.2032   70.2011   67.3399 H   0  0  0  0  0  0  0  0  0  0  0  0
  2  1  1  0
  3  1  1  0
  4  3  2  3
  1  5  1  0
  1  6  1  0
  2  7  1  0
  3  8  1  0
  4  9  1  0
  4 10  1  0
M  END
>  <score>  (1) 
-3.562

$$$$
=
     RDKit          3D

 10  9  0  0  0  0  0  0  0  0999 V2000
    5.7730   71.2730   68.4270 C   0  0  0  0  0  0  0  0  0  0  0  0
    5.6810   72.6640   68.1650 O   0  0  0  0  0  0  0  0  0  0  0  0
    7.1450   71.0010   68.9430 C   0  0  0  0  0  0  0  0  0  0  0  0
    7.4280   70.6240   70.1970 C   0  0  0  0  0  0  0  0  0  0  0  0
    5.0249   70.9828   69.1795 H   0  0  0  0  0  0  0  0  0  0  0  0
    5.5830   70.6941   67.5111 H   0  0  0  0  0  0  0  0  0  0  0  0
    5.6482   73.1596   69.0214 H   0  0  0  0  0  0  0  0  0  0  0  0
    7.9858   71.1184   68.2435 H   0  0  0  0  0  0  0  0  0  0  0  0
    8.4714   70.4436   70.4949 H   0  0  0  0  0  0  0  0  0  0  0  0
    6.6169   70.4949   70.9288 H   0  0  0  0  0  0  0  0  0  0  0  0
  2  1  1  0
  3  1  1  0
  4  3  2  3
  1  5  1  0
  1  6  1  0
  2  7  1  0
  3  8  1  0
  4  9  1  0
  4 10  1  0
M  END
>  <score>  (2) 
-3.55

$$$$
=
     RDKit          3D

 10  9  0  0  0  0  0  0  0  0999 V2000
    6.6450   70.2340   67.2750 C   0  0  0  0  0  0  0  0  0  0  0  0
    5.6260   70.7750   66.4500 O   0  0  0  0  0  0  0  0  0  0  0  0
    6.5770   70.9310   68.5900 C   0  0  0  0  0  0  0  0  0  0  0  0
    7.5520   70.9240   69.5100 C   0  0  0  0  0  0  0  0  0  0  0  0
    6.4822   69.1550   67.4135 H   0  0  0  0  0  0  0  0  0  0  0  0
    7.6329   70.3766   66.8127 H   0  0  0  0  0  0  0  0  0  0  0  0
    4.9094   71.1555   67.0173 H   0  0  0  0  0  0  0  0  0  0  0  0
    5.6600   71.4922   68.8229 H   0  0  0  0  0  0  0  0  0  0  0  0
    7.4183   71.4670   70.4572 H   0  0  0  0  0  0  0  0  0  0  0  0
    8.4857   70.3752   69.3177 H   0  0  0  0  0  0  0  0  0  0  0  0
  2  1  1  0
  3  1  1  0
  4  3  2  3
  1  5  1  0
  1  6  1  0
  2  7  1  0
  3  8  1  0
  4  9  1  0
  4 10  1  0
M  END
>  <score>  (3) 
-3.079

$$$$
=
     RDKit          3D

 10  9  0  0  0  0  0  0  0  0999 V2000
   13.4210   76.8990   63.9440 C   0  0  0  0  0  0  0  0  0  0  0  0
   14.2130   77.2970   62.8360 O   0  0  0  0  0  0  0  0  0  0  0  0
   14.2200   75.9250   64.7410 C   0  0  0  0  0  0  0  0  0  0  0  0
   13.8510   75.4250   65.9270 C   0  0  0  0  0  0  0  0  0  0  0  0
   13.1724   77.7747   64.5615 H   0  0  0  0  0  0  0  0  0  0  0  0
   12.4810   76.4407   63.6028 H   0  0  0  0  0  0  0  0  0  0  0  0
   15.0484   77.7168   63.1614 H   0  0  0  0  0  0  0  0  0  0  0  0
   15.1825   75.5930   64.3246 H   0  0  0  0  0  0  0  0  0  0  0  0
   14.5028   74.7089   66.4488 H   0  0  0  0  0  0  0  0  0  0  0  0
   12.8960   75.7304   66.3795 H   0  0  0  0  0  0  0  0  0  0  0  0
  2  1  1  0
  3  1  1  0
  4  3  2  3
  1  5  1  0
  1  6  1  0
  2  7  1  0
  3  8  1  0
  4  9  1  0
  4 10  1  0
M  END
>  <score>  (4) 
-3.023

$$$$
=
     RDKit          3D

 10  9  0  0  0  0  0  0  0  0999 V2000
    3.7710   71.0010   69.1830 C   0  0  0  0  0  0  0  0  0  0  0  0
    2.9960   69.8500   69.4770 O   0  0  0  0  0  0  0  0  0  0  0  0
    5.0650   70.5370   68.6050 C   0  0  0  0  0  0  0  0  0  0  0  0
    5.2430   70.1650   67.3310 C   0  0  0  0  0  0  0  0  0  0  0  0
    3.2412   71.6345   68.4564 H   0  0  0  0  0  0  0  0  0  0  0  0
    3.9446   71.5931   70.0937 H   0  0  0  0  0  0  0  0  0  0  0  0
    2.9237   69.7427   70.4585 H   0  0  0  0  0  0  0  0  0  0  0  0
    5.9371   70.4974   69.2742 H   0  0  0  0  0  0  0  0  0  0  0  0
    6.2347   69.8351   66.9878 H   0  0  0  0  0  0  0  0  0  0  0  0
    4.3976   70.1893   66.6277 H   0  0  0  0  0  0  0  0  0  0  0  0
  2  1  1  0
  3  1  1  0
  4  3  2  3
  1  5  1  0
  1  6  1  0
  2  7  1  0
  3  8  1  0
  4  9  1  0
  4 10  1  0
M  END
>  <score>  (5) 
-2.993

$$$$
=
     RDKit          3D

 10  9  0  0  0  0  0  0  0  0999 V2000
    4.5910   69.3170   64.2230 C   0  0  0  0  0  0  0  0  0  0  0  0
    5.8900   69.7480   63.8490 O   0  0  0  0  0  0  0  0  0  0  0  0
    4.4500   69.5360   65.6910 C   0  0  0  0  0  0  0  0  0  0  0  0
    5.4370   69.9430   66.5010 C   0  0  0  0  0  0  0  0  0  0  0  0
    3.8316   69.9005   63.6818 H   0  0  0  0  0  0  0  0  0  0  0  0
    4.4495   68.2547   63.9750 H   0  0  0  0  0  0  0  0  0  0  0  0
    6.4257   69.9257   64.6624 H   0  0  0  0  0  0  0  0  0  0  0  0
    3.4641   69.3500   66.1420 H   0  0  0  0  0  0  0  0  0  0  0  0
    5.2456   70.0796   67.5756 H   0  0  0  0  0  0  0  0  0  0  0  0
    6.4386   70.1405   66.0913 H   0  0  0  0  0  0  0  0  0  0  0  0
  2  1  1  0
  3  1  1  0
  4  3  2  3
  1  5  1  0
  1  6  1  0
  2  7  1  0
  3  8  1  0
  4  9  1  0
  4 10  1  0
M  END
>  <score>  (6) 
-2.95

$$$$
=
     RDKit          3D

 10  9  0  0  0  0  0  0  0  0999 V2000
    5.6630   69.9310   66.6470 C   0  0  0  0  0  0  0  0  0  0  0  0
    6.3970   71.0320   66.1360 O   0  0  0  0  0  0  0  0  0  0  0  0
    4.6570   69.5440   65.6170 C   0  0  0  0  0  0  0  0  0  0  0  0
    4.9080   69.4410   64.3050 C   0  0  0  0  0  0  0  0  0  0  0  0
    6.3408   69.0876   66.8450 H   0  0  0  0  0  0  0  0  0  0  0  0
    5.1661   70.2019   67.5903 H   0  0  0  0  0  0  0  0  0  0  0  0
    6.7543   71.5679   66.8878 H   0  0  0  0  0  0  0  0  0  0  0  0
    3.6343   69.3273   65.9591 H   0  0  0  0  0  0  0  0  0  0  0  0
    4.1048   69.1486   63.6127 H   0  0  0  0  0  0  0  0  0  0  0  0
    5.9173   69.6489   63.9201 H   0  0  0  0  0  0  0  0  0  0  0  0
  2  1  1  0
  3  1  1  0
  4  3  2  3
  1  5  1  0
  1  6  1  0
  2  7  1  0
  3  8  1  0
  4  9  1  0
  4 10  1  0
M  END
>  <score>  (7) 
-2.95

$$$$
=
     RDKit          3D

 10  9  0  0  0  0  0  0  0  0999 V2000
    3.3470   59.9070   70.0130 C   0  0  0  0  0  0  0  0  0  0  0  0
    3.7600   58.7910   69.2410 O   0  0  0  0  0  0  0  0  0  0  0  0
    3.9450   61.1260   69.3990 C   0  0  0  0  0  0  0  0  0  0  0  0
    3.2500   62.1990   68.9990 C   0  0  0  0  0  0  0  0  0  0  0  0
    2.2497   59.9829   70.0053 H   0  0  0  0  0  0  0  0  0  0  0  0
    3.6775   59.7983   71.0565 H   0  0  0  0  0  0  0  0  0  0  0  0
    4.0324   58.0549   69.8444 H   0  0  0  0  0  0  0  0  0  0  0  0
    5.0366   61.1462   69.2644 H   0  0  0  0  0  0  0  0  0  0  0  0
    3.7729   63.0586   68.5544 H   0  0  0  0  0  0  0  0  0  0  0  0
    2.1564   62.2205   69.1151 H   0  0  0  0  0  0  0  0  0  0  0  0
  2  1  1  0
  3  1  1  0
  4  3  2  3
  1  5  1  0
  1  6  1  0
  2  7  1  0
  3  8  1  0
  4  9  1  0
  4 10  1  0
M  END
>  <score>  (8) 
-2.914

$$$$
=
     RDKit          3D

 10  9  0  0  0  0  0  0  0  0999 V2000
    5.4870   61.1220   71.3610 C   0  0  0  0  0  0  0  0  0  0  0  0
    5.6100   61.5970   72.6920 O   0  0  0  0  0  0  0  0  0  0  0  0
    4.6320   62.0890   70.6160 C   0  0  0  0  0  0  0  0  0  0  0  0
    4.8800   63.4000   70.5050 C   0  0  0  0  0  0  0  0  0  0  0  0
    6.4798   61.0597   70.8915 H   0  0  0  0  0  0  0  0  0  0  0  0
    5.0371   60.1183   71.3485 H   0  0  0  0  0  0  0  0  0  0  0  0
    5.4191   60.8597   73.3245 H   0  0  0  0  0  0  0  0  0  0  0  0
    3.7313   61.6969   70.1211 H   0  0  0  0  0  0  0  0  0  0  0  0
    4.1939   64.0432   69.9344 H   0  0  0  0  0  0  0  0  0  0  0  0
    5.7699   63.8339   70.9844 H   0  0  0  0  0  0  0  0  0  0  0  0
  2  1  1  0
  3  1  1  0
  4  3  2  3
  1  5  1  0
  1  6  1  0
  2  7  1  0
  3  8  1  0
  4  9  1  0
  4 10  1  0
M  END
>  <score>  (9) 
-2.896

$$$$
