=
     RDKit          3D

 64 68  0  0  0  0  0  0  0  0999 V2000
    0.8020   56.6230   75.2500 C   0  0  2  0  0  0  0  0  0  0  0  0
   -0.4490   56.6170   74.5430 O   0  0  0  0  0  0  0  0  0  0  0  0
   -1.4830   56.7100   75.5260 C   0  0  0  0  0  0  0  0  0  0  0  0
   -0.9260   57.1130   76.7800 O   0  0  0  0  0  0  0  0  0  0  0  0
    0.4630   57.3300   76.5660 C   0  0  2  0  0  0  0  0  0  0  0  0
    0.7810   58.8320   76.3640 C   0  0  0  0  0  0  0  0  0  0  0  0
    1.1400   58.9450   74.8800 C   0  0  2  0  0  0  0  0  0  0  0  0
    1.8180   57.5910   74.5650 C   0  0  1  0  0  0  0  0  0  0  0  0
    3.2090   57.4300   75.2310 C   0  0  0  0  0  0  0  0  0  0  0  0
    1.9210   57.4750   73.0310 C   0  0  0  0  0  0  0  0  0  0  0  0
    2.5940   58.6880   72.3510 C   0  0  1  0  0  0  0  0  0  0  0  0
    2.0420   60.0700   72.8230 C   0  0  1  0  0  0  0  0  0  0  0  0
    1.9240   60.1670   74.3790 C   0  0  1  0  0  0  0  0  0  0  0  0
    1.2000   61.4610   74.7770 C   0  0  0  0  0  0  0  0  0  0  0  0
    1.8710   62.6960   74.1990 C   0  0  1  0  0  0  0  0  0  0  0  0
    2.0230   62.6060   72.6990 C   0  0  0  0  0  0  0  0  0  0  0  0
    1.5990   63.6140   71.9140 C   0  0  0  0  0  0  0  0  0  0  0  0
    1.8610   63.6320   70.4570 C   0  0  0  0  0  0  0  0  0  0  0  0
    1.4170   64.5490   69.7730 O   0  0  0  0  0  0  0  0  0  0  0  0
    2.7490   62.5570   69.8880 C   0  0  0  0  0  0  0  0  0  0  0  0
    2.5210   61.2440   70.6200 C   0  0  0  0  0  0  0  0  0  0  0  0
    2.7120   61.3430   72.1630 C   0  0  2  0  0  0  0  0  0  0  0  0
    4.2190   61.4880   72.4740 C   0  0  0  0  0  0  0  0  0  0  0  0
    1.1240   63.7780   74.5590 F   0  0  0  0  0  0  0  0  0  0  0  0
   -2.1470   55.3470   75.6960 C   0  0  0  0  0  0  0  0  0  0  0  0
   -2.5080   57.7440   75.0750 C   0  0  0  0  0  0  0  0  0  0  0  0
    1.3140   55.1740   75.3360 C   0  0  0  0  0  0  0  0  0  0  0  0
    1.7320   54.6930   76.3970 O   0  0  0  0  0  0  0  0  0  0  0  0
    1.3210   54.3150   74.0770 C   0  0  0  0  0  0  0  0  0  0  0  0
    2.6420   54.0940   73.6020 O   0  0  0  0  0  0  0  0  0  0  0  0
    4.0040   58.5750   72.4780 O   0  0  0  0  0  0  0  0  0  0  0  0
    1.0314   56.9623   77.4330 H   0  0  0  0  0  0  0  0  0  0  0  0
   -0.0964   59.4516   76.6012 H   0  0  0  0  0  0  0  0  0  0  0  0
    1.5908   59.1827   77.0207 H   0  0  0  0  0  0  0  0  0  0  0  0
    0.2184   59.1432   74.3130 H   0  0  0  0  0  0  0  0  0  0  0  0
    3.0954   57.4431   76.3250 H   0  0  0  0  0  0  0  0  0  0  0  0
    3.6559   56.4741   74.9202 H   0  0  0  0  0  0  0  0  0  0  0  0
    3.8624   58.2585   74.9202 H   0  0  0  0  0  0  0  0  0  0  0  0
    2.5068   56.5754   72.7911 H   0  0  0  0  0  0  0  0  0  0  0  0
    0.8915   57.4264   72.6465 H   0  0  0  0  0  0  0  0  0  0  0  0
    2.3326   58.6617   71.2828 H   0  0  0  0  0  0  0  0  0  0  0  0
    1.0187   60.0975   72.4205 H   0  0  0  0  0  0  0  0  0  0  0  0
    2.9262   60.1834   74.8320 H   0  0  0  0  0  0  0  0  0  0  0  0
    0.1646   61.4152   74.4084 H   0  0  0  0  0  0  0  0  0  0  0  0
    1.2317   61.5418   75.8736 H   0  0  0  0  0  0  0  0  0  0  0  0
    2.8916   62.7862   74.5994 H   0  0  0  0  0  0  0  0  0  0  0  0
    1.0425   64.4474   72.3676 H   0  0  0  0  0  0  0  0  0  0  0  0
    2.5184   62.4226   68.8209 H   0  0  0  0  0  0  0  0  0  0  0  0
    3.7999   62.8580   70.0107 H   0  0  0  0  0  0  0  0  0  0  0  0
    1.4929   60.9086   70.4186 H   0  0  0  0  0  0  0  0  0  0  0  0
    3.2755   60.5349   70.2486 H   0  0  0  0  0  0  0  0  0  0  0  0
    4.3688   61.5024   73.5637 H   0  0  0  0  0  0  0  0  0  0  0  0
    4.7664   60.6384   72.0398 H   0  0  0  0  0  0  0  0  0  0  0  0
    4.5944   62.4264   72.0398 H   0  0  0  0  0  0  0  0  0  0  0  0
   -2.2560   55.1233   76.7675 H   0  0  0  0  0  0  0  0  0  0  0  0
   -3.1393   55.3608   75.2215 H   0  0  0  0  0  0  0  0  0  0  0  0
   -1.5245   54.5741   75.2215 H   0  0  0  0  0  0  0  0  0  0  0  0
   -2.9706   58.2107   75.9572 H   0  0  0  0  0  0  0  0  0  0  0  0
   -2.0087   58.5161   74.4712 H   0  0  0  0  0  0  0  0  0  0  0  0
   -3.2844   57.2515   74.4712 H   0  0  0  0  0  0  0  0  0  0  0  0
    0.8564   53.3443   74.3046 H   0  0  0  0  0  0  0  0  0  0  0  0
    0.7584   54.8460   73.2950 H   0  0  0  0  0  0  0  0  0  0  0  0
    3.2565   53.9912   74.3714 H   0  0  0  0  0  0  0  0  0  0  0  0
    4.2484   58.5554   73.4372 H   0  0  0  0  0  0  0  0  0  0  0  0
  2  1  1  0
  3  2  1  0
  4  3  1  0
  5  1  1  0
  5  4  1  0
  6  5  1  0
  7  6  1  0
  8  7  1  0
  8  1  1  0
  8  9  1  1
 10  8  1  0
 11 10  1  0
 12 11  1  0
 13  7  1  0
 13 12  1  0
 14 13  1  0
 15 14  1  0
 16 15  1  0
 17 16  2  0
 18 17  1  0
 19 18  2  0
 20 18  1  0
 21 20  1  0
 22 21  1  0
 22 16  1  0
 22 12  1  0
 22 23  1  6
 24 15  1  0
 25  3  1  0
 26  3  1  0
  1 27  1  1
 28 27  2  0
 29 27  1  0
 30 29  1  0
 31 11  1  0
  5 32  1  1
  6 33  1  0
  6 34  1  0
  7 35  1  6
  9 36  1  0
  9 37  1  0
  9 38  1  0
 10 39  1  0
 10 40  1  0
 11 41  1  6
 12 42  1  6
 13 43  1  1
 14 44  1  0
 14 45  1  0
 15 46  1  1
 17 47  1  0
 20 48  1  0
 20 49  1  0
 21 50  1  0
 21 51  1  0
 23 52  1  0
 23 53  1  0
 23 54  1  0
 25 55  1  0
 25 56  1  0
 25 57  1  0
 26 58  1  0
 26 59  1  0
 26 60  1  0
 29 61  1  0
 29 62  1  0
 30 63  1  0
 31 64  1  0
M  END
>  <score>  (1) 
-8.864

$$$$
=
     RDKit          3D

 64 68  0  0  0  0  0  0  0  0999 V2000
    2.2460   62.3530   71.3890 C   0  0  2  0  0  0  0  0  0  0  0  0
    2.3520   61.4340   70.2890 O   0  0  0  0  0  0  0  0  0  0  0  0
    3.6210   61.6650   69.6730 C   0  0  0  0  0  0  0  0  0  0  0  0
    4.4470   62.4460   70.5410 O   0  0  0  0  0  0  0  0  0  0  0  0
    3.7060   62.6590   71.7370 C   0  0  2  0  0  0  0  0  0  0  0  0
    4.1210   61.6630   72.8480 C   0  0  0  0  0  0  0  0  0  0  0  0
    2.9220   60.7210   72.9770 C   0  0  2  0  0  0  0  0  0  0  0  0
    1.7090   61.6280   72.6630 C   0  0  1  0  0  0  0  0  0  0  0  0
    1.4250   62.6780   73.7690 C   0  0  0  0  0  0  0  0  0  0  0  0
    0.4910   60.7080   72.4460 C   0  0  0  0  0  0  0  0  0  0  0  0
    0.2450   59.7060   73.5960 C   0  0  1  0  0  0  0  0  0  0  0  0
    1.5220   58.9310   74.0490 C   0  0  1  0  0  0  0  0  0  0  0  0
    2.7550   59.8720   74.2470 C   0  0  1  0  0  0  0  0  0  0  0  0
    4.0210   59.0430   74.5000 C   0  0  0  0  0  0  0  0  0  0  0  0
    3.8610   58.0940   75.6770 C   0  0  1  0  0  0  0  0  0  0  0  0
    2.6550   57.1980   75.5190 C   0  0  0  0  0  0  0  0  0  0  0  0
    2.7790   55.8650   75.6630 C   0  0  0  0  0  0  0  0  0  0  0  0
    1.6020   54.9680   75.6620 C   0  0  0  0  0  0  0  0  0  0  0  0
    1.7650   53.7540   75.7520 O   0  0  0  0  0  0  0  0  0  0  0  0
    0.2350   55.5990   75.6430 C   0  0  0  0  0  0  0  0  0  0  0  0
    0.2500   56.8600   74.7940 C   0  0  0  0  0  0  0  0  0  0  0  0
    1.3220   57.9020   75.2350 C   0  0  2  0  0  0  0  0  0  0  0  0
    0.8690   58.5570   76.5600 C   0  0  0  0  0  0  0  0  0  0  0  0
    5.0100   57.3680   75.7810 F   0  0  0  0  0  0  0  0  0  0  0  0
    3.4210   62.4250   68.3660 C   0  0  0  0  0  0  0  0  0  0  0  0
    4.2970   60.3250   69.4080 C   0  0  0  0  0  0  0  0  0  0  0  0
    1.3610   63.5320   70.9480 C   0  0  0  0  0  0  0  0  0  0  0  0
    0.1450   63.4000   70.7600 O   0  0  0  0  0  0  0  0  0  0  0  0
    2.0030   64.8950   70.7210 C   0  0  0  0  0  0  0  0  0  0  0  0
    1.4260   65.5660   69.6080 O   0  0  0  0  0  0  0  0  0  0  0  0
   -0.4160   60.3690   74.6640 O   0  0  0  0  0  0  0  0  0  0  0  0
    3.8758   63.6839   72.0987 H   0  0  0  0  0  0  0  0  0  0  0  0
    5.0240   61.1069   72.5556 H   0  0  0  0  0  0  0  0  0  0  0  0
    4.3640   62.1667   73.7952 H   0  0  0  0  0  0  0  0  0  0  0  0
    3.0633   59.8816   72.2803 H   0  0  0  0  0  0  0  0  0  0  0  0
    1.5509   62.2124   74.7576 H   0  0  0  0  0  0  0  0  0  0  0  0
    2.1283   63.5176   73.6668 H   0  0  0  0  0  0  0  0  0  0  0  0
    0.3944   63.0486   73.6668 H   0  0  0  0  0  0  0  0  0  0  0  0
   -0.4039   61.3388   72.3400 H   0  0  0  0  0  0  0  0  0  0  0  0
    0.6998   60.1122   71.5452 H   0  0  0  0  0  0  0  0  0  0  0  0
   -0.4124   58.9113   73.2135 H   0  0  0  0  0  0  0  0  0  0  0  0
    1.7495   58.2770   73.1943 H   0  0  0  0  0  0  0  0  0  0  0  0
    2.5944   60.5239   75.1183 H   0  0  0  0  0  0  0  0  0  0  0  0
    4.2449   58.4542   73.5982 H   0  0  0  0  0  0  0  0  0  0  0  0
    4.8388   59.7395   74.7369 H   0  0  0  0  0  0  0  0  0  0  0  0
    3.6889   58.6698   76.5983 H   0  0  0  0  0  0  0  0  0  0  0  0
    3.7824   55.4310   75.7847 H   0  0  0  0  0  0  0  0  0  0  0  0
   -0.4885   54.8857   75.2213 H   0  0  0  0  0  0  0  0  0  0  0  0
   -0.0528   55.8624   76.6715 H   0  0  0  0  0  0  0  0  0  0  0  0
    0.4527   56.5738   73.7514 H   0  0  0  0  0  0  0  0  0  0  0  0
   -0.7324   57.3398   74.9153 H   0  0  0  0  0  0  0  0  0  0  0  0
    1.2672   57.9813   77.4085 H   0  0  0  0  0  0  0  0  0  0  0  0
    1.2474   59.5888   76.6071 H   0  0  0  0  0  0  0  0  0  0  0  0
   -0.2299   58.5670   76.6071 H   0  0  0  0  0  0  0  0  0  0  0  0
    3.1467   63.4673   68.5862 H   0  0  0  0  0  0  0  0  0  0  0  0
    4.3546   62.4065   67.7846 H   0  0  0  0  0  0  0  0  0  0  0  0
    2.6174   61.9494   67.7846 H   0  0  0  0  0  0  0  0  0  0  0  0
    4.5409   59.8416   70.3655 H   0  0  0  0  0  0  0  0  0  0  0  0
    3.6171   59.6786   68.8336 H   0  0  0  0  0  0  0  0  0  0  0  0
    5.2209   60.4876   68.8336 H   0  0  0  0  0  0  0  0  0  0  0  0
    1.8618   65.5107   71.6216 H   0  0  0  0  0  0  0  0  0  0  0  0
    3.0724   64.7417   70.5140 H   0  0  0  0  0  0  0  0  0  0  0  0
    0.8158   66.2757   69.9306 H   0  0  0  0  0  0  0  0  0  0  0  0
   -0.0740   60.0260   75.5274 H   0  0  0  0  0  0  0  0  0  0  0  0
  2  1  1  0
  3  2  1  0
  4  3  1  0
  5  1  1  0
  5  4  1  0
  6  5  1  0
  7  6  1  0
  8  7  1  0
  8  1  1  0
  8  9  1  1
 10  8  1  0
 11 10  1  0
 12 11  1  0
 13  7  1  0
 13 12  1  0
 14 13  1  0
 15 14  1  0
 16 15  1  0
 17 16  2  0
 18 17  1  0
 19 18  2  0
 20 18  1  0
 21 20  1  0
 22 21  1  0
 22 16  1  0
 22 12  1  0
 22 23  1  1
 24 15  1  0
 25  3  1  0
 26  3  1  0
  1 27  1  6
 28 27  2  0
 29 27  1  0
 30 29  1  0
 31 11  1  0
  5 32  1  1
  6 33  1  0
  6 34  1  0
  7 35  1  6
  9 36  1  0
  9 37  1  0
  9 38  1  0
 10 39  1  0
 10 40  1  0
 11 41  1  6
 12 42  1  6
 13 43  1  1
 14 44  1  0
 14 45  1  0
 15 46  1  1
 17 47  1  0
 20 48  1  0
 20 49  1  0
 21 50  1  0
 21 51  1  0
 23 52  1  0
 23 53  1  0
 23 54  1  0
 25 55  1  0
 25 56  1  0
 25 57  1  0
 26 58  1  0
 26 59  1  0
 26 60  1  0
 29 61  1  0
 29 62  1  0
 30 63  1  0
 31 64  1  0
M  END
>  <score>  (2) 
-8.731

$$$$
=
     RDKit          3D

 64 68  0  0  0  0  0  0  0  0999 V2000
   -1.1730   57.5360   75.8080 C   0  0  2  0  0  0  0  0  0  0  0  0
   -2.2490   57.7870   74.8890 O   0  0  0  0  0  0  0  0  0  0  0  0
   -3.2200   58.5690   75.5880 C   0  0  0  0  0  0  0  0  0  0  0  0
   -2.6460   59.1000   76.7850 O   0  0  0  0  0  0  0  0  0  0  0  0
   -1.2830   58.6920   76.8080 C   0  0  2  0  0  0  0  0  0  0  0  0
   -0.3450   59.8150   76.3010 C   0  0  0  0  0  0  0  0  0  0  0  0
    0.1450   59.3120   74.9410 C   0  0  2  0  0  0  0  0  0  0  0  0
    0.2080   57.7770   75.1210 C   0  0  1  0  0  0  0  0  0  0  0  0
    1.3430   57.3150   76.0720 C   0  0  0  0  0  0  0  0  0  0  0  0
    0.3730   57.1570   73.7180 C   0  0  0  0  0  0  0  0  0  0  0  0
    1.5490   57.7430   72.9050 C   0  0  1  0  0  0  0  0  0  0  0  0
    1.5980   59.3030   72.8920 C   0  0  1  0  0  0  0  0  0  0  0  0
    1.4100   59.9200   74.3160 C   0  0  1  0  0  0  0  0  0  0  0  0
    1.2730   61.4460   74.2210 C   0  0  0  0  0  0  0  0  0  0  0  0
    2.4480   62.0840   73.4980 C   0  0  1  0  0  0  0  0  0  0  0  0
    2.6660   61.4790   72.1310 C   0  0  0  0  0  0  0  0  0  0  0  0
    2.7720   62.2720   71.0490 C   0  0  0  0  0  0  0  0  0  0  0  0
    3.1310   61.7310   69.7180 C   0  0  0  0  0  0  0  0  0  0  0  0
    3.1730   62.4850   68.7490 O   0  0  0  0  0  0  0  0  0  0  0  0
    3.5230   60.2800   69.6290 C   0  0  0  0  0  0  0  0  0  0  0  0
    2.7020   59.4530   70.6070 C   0  0  0  0  0  0  0  0  0  0  0  0
    2.7950   59.9500   72.0820 C   0  0  2  0  0  0  0  0  0  0  0  0
    4.1910   59.5990   72.6430 C   0  0  0  0  0  0  0  0  0  0  0  0
    2.2030   63.4220   73.4150 F   0  0  0  0  0  0  0  0  0  0  0  0
   -4.4100   57.6890   75.9590 C   0  0  0  0  0  0  0  0  0  0  0  0
   -3.6710   59.7180   74.6940 C   0  0  0  0  0  0  0  0  0  0  0  0
   -1.3310   56.1070   76.3580 C   0  0  0  0  0  0  0  0  0  0  0  0
   -1.2400   55.8610   77.5680 O   0  0  0  0  0  0  0  0  0  0  0  0
   -1.5910   54.9640   75.3850 C   0  0  0  0  0  0  0  0  0  0  0  0
   -2.9820   54.7870   75.1460 O   0  0  0  0  0  0  0  0  0  0  0  0
    2.7630   57.1480   73.3380 O   0  0  0  0  0  0  0  0  0  0  0  0
   -0.9938   58.4263   77.8355 H   0  0  0  0  0  0  0  0  0  0  0  0
   -0.8941   60.7618   76.1917 H   0  0  0  0  0  0  0  0  0  0  0  0
    0.4821   60.0185   76.9971 H   0  0  0  0  0  0  0  0  0  0  0  0
   -0.5575   59.6581   74.1685 H   0  0  0  0  0  0  0  0  0  0  0  0
    1.0224   57.4455   77.1161 H   0  0  0  0  0  0  0  0  0  0  0  0
    1.5671   56.2541   75.8871 H   0  0  0  0  0  0  0  0  0  0  0  0
    2.2444   57.9178   75.8871 H   0  0  0  0  0  0  0  0  0  0  0  0
    0.5386   56.0759   73.8351 H   0  0  0  0  0  0  0  0  0  0  0  0
   -0.5458   57.3873   73.1588 H   0  0  0  0  0  0  0  0  0  0  0  0
    1.3879   57.4847   71.8480 H   0  0  0  0  0  0  0  0  0  0  0  0
    0.7175   59.5889   72.2979 H   0  0  0  0  0  0  0  0  0  0  0  0
    2.2861   59.6948   74.9419 H   0  0  0  0  0  0  0  0  0  0  0  0
    0.3487   61.6854   73.6748 H   0  0  0  0  0  0  0  0  0  0  0  0
    1.2483   61.8473   75.2449 H   0  0  0  0  0  0  0  0  0  0  0  0
    3.3752   61.8987   74.0601 H   0  0  0  0  0  0  0  0  0  0  0  0
    2.5870   63.3510   71.1560 H   0  0  0  0  0  0  0  0  0  0  0  0
    3.3434   59.9172   68.6062 H   0  0  0  0  0  0  0  0  0  0  0  0
    4.5890   60.1801   69.8811 H   0  0  0  0  0  0  0  0  0  0  0  0
    1.6482   59.4905   70.2939 H   0  0  0  0  0  0  0  0  0  0  0  0
    3.1106   58.4319   70.5859 H   0  0  0  0  0  0  0  0  0  0  0  0
    4.1571   59.6075   73.7424 H   0  0  0  0  0  0  0  0  0  0  0  0
    4.4859   58.5987   72.2930 H   0  0  0  0  0  0  0  0  0  0  0  0
    4.9239   60.3408   72.2930 H   0  0  0  0  0  0  0  0  0  0  0  0
   -4.4932   57.6275   77.0541 H   0  0  0  0  0  0  0  0  0  0  0  0
   -5.3314   58.1247   75.5452 H   0  0  0  0  0  0  0  0  0  0  0  0
   -4.2633   56.6804   75.5452 H   0  0  0  0  0  0  0  0  0  0  0  0
   -4.0018   60.5607   75.3189 H   0  0  0  0  0  0  0  0  0  0  0  0
   -2.8323   60.0395   74.0590 H   0  0  0  0  0  0  0  0  0  0  0  0
   -4.5044   59.3831   74.0590 H   0  0  0  0  0  0  0  0  0  0  0  0
   -1.0902   55.1861   74.4311 H   0  0  0  0  0  0  0  0  0  0  0  0
   -1.1972   54.0377   75.8287 H   0  0  0  0  0  0  0  0  0  0  0  0
   -3.4603   54.7261   76.0107 H   0  0  0  0  0  0  0  0  0  0  0  0
    2.7896   57.1350   74.3276 H   0  0  0  0  0  0  0  0  0  0  0  0
  2  1  1  0
  3  2  1  0
  4  3  1  0
  5  1  1  0
  5  4  1  0
  6  5  1  0
  7  6  1  0
  8  7  1  0
  8  1  1  0
  8  9  1  1
 10  8  1  0
 11 10  1  0
 12 11  1  0
 13  7  1  0
 13 12  1  0
 14 13  1  0
 15 14  1  0
 16 15  1  0
 17 16  2  0
 18 17  1  0
 19 18  2  0
 20 18  1  0
 21 20  1  0
 22 21  1  0
 22 16  1  0
 22 12  1  0
 22 23  1  1
 24 15  1  0
 25  3  1  0
 26  3  1  0
  1 27  1  1
 28 27  2  0
 29 27  1  0
 30 29  1  0
 31 11  1  0
  5 32  1  1
  6 33  1  0
  6 34  1  0
  7 35  1  6
  9 36  1  0
  9 37  1  0
  9 38  1  0
 10 39  1  0
 10 40  1  0
 11 41  1  6
 12 42  1  6
 13 43  1  1
 14 44  1  0
 14 45  1  0
 15 46  1  1
 17 47  1  0
 20 48  1  0
 20 49  1  0
 21 50  1  0
 21 51  1  0
 23 52  1  0
 23 53  1  0
 23 54  1  0
 25 55  1  0
 25 56  1  0
 25 57  1  0
 26 58  1  0
 26 59  1  0
 26 60  1  0
 29 61  1  0
 29 62  1  0
 30 63  1  0
 31 64  1  0
M  END
>  <score>  (3) 
-8.273

$$$$
=
     RDKit          3D

 64 68  0  0  0  0  0  0  0  0999 V2000
    2.5690   61.6510   71.5940 C   0  0  2  0  0  0  0  0  0  0  0  0
    2.3460   60.5290   70.7230 O   0  0  0  0  0  0  0  0  0  0  0  0
    3.6060   59.8760   70.5540 C   0  0  0  0  0  0  0  0  0  0  0  0
    4.5290   60.3380   71.5450 O   0  0  0  0  0  0  0  0  0  0  0  0
    3.8220   61.2480   72.3780 C   0  0  2  0  0  0  0  0  0  0  0  0
    3.3360   60.5670   73.6810 C   0  0  0  0  0  0  0  0  0  0  0  0
    1.8180   60.4670   73.5120 C   0  0  2  0  0  0  0  0  0  0  0  0
    1.4590   61.7270   72.6900 C   0  0  1  0  0  0  0  0  0  0  0  0
    1.6160   63.0470   73.4880 C   0  0  0  0  0  0  0  0  0  0  0  0
    0.0120   61.5510   72.1890 C   0  0  0  0  0  0  0  0  0  0  0  0
   -1.0050   61.2180   73.3030 C   0  0  1  0  0  0  0  0  0  0  0  0
   -0.5480   60.0720   74.2600 C   0  0  1  0  0  0  0  0  0  0  0  0
    0.9280   60.2520   74.7450 C   0  0  1  0  0  0  0  0  0  0  0  0
    1.3870   59.0080   75.5200 C   0  0  0  0  0  0  0  0  0  0  0  0
    0.4640   58.6810   76.6810 C   0  0  1  0  0  0  0  0  0  0  0  0
   -0.9730   58.5360   76.2370 C   0  0  0  0  0  0  0  0  0  0  0  0
   -1.6810   57.4450   76.5840 C   0  0  0  0  0  0  0  0  0  0  0  0
   -3.1290   57.3310   76.2950 C   0  0  0  0  0  0  0  0  0  0  0  0
   -3.7250   56.2990   76.5890 O   0  0  0  0  0  0  0  0  0  0  0  0
   -3.8320   58.5370   75.7290 C   0  0  0  0  0  0  0  0  0  0  0  0
   -2.9080   59.2880   74.7830 C   0  0  0  0  0  0  0  0  0  0  0  0
   -1.5510   59.7040   75.4270 C   0  0  2  0  0  0  0  0  0  0  0  0
   -1.8030   60.8600   76.4220 C   0  0  0  0  0  0  0  0  0  0  0  0
    0.9220   57.5370   77.2630 F   0  0  0  0  0  0  0  0  0  0  0  0
    4.1640   60.1990   69.1710 C   0  0  0  0  0  0  0  0  0  0  0  0
    3.4130   58.3720   70.7090 C   0  0  0  0  0  0  0  0  0  0  0  0
    2.6520   62.9220   70.7300 C   0  0  0  0  0  0  0  0  0  0  0  0
    1.7600   63.2230   69.9270 O   0  0  0  0  0  0  0  0  0  0  0  0
    3.8730   63.8250   70.8580 C   0  0  0  0  0  0  0  0  0  0  0  0
    4.9000   63.4450   69.9520 O   0  0  0  0  0  0  0  0  0  0  0  0
   -1.3610   62.4100   73.9870 O   0  0  0  0  0  0  0  0  0  0  0  0
    4.4771   62.0912   72.6424 H   0  0  0  0  0  0  0  0  0  0  0  0
    3.7828   59.5676   73.7884 H   0  0  0  0  0  0  0  0  0  0  0  0
    3.6224   61.1300   74.5815 H   0  0  0  0  0  0  0  0  0  0  0  0
    1.5854   59.5115   73.0190 H   0  0  0  0  0  0  0  0  0  0  0  0
    1.5901   62.8291   74.5659 H   0  0  0  0  0  0  0  0  0  0  0  0
    2.5765   63.5181   73.2321 H   0  0  0  0  0  0  0  0  0  0  0  0
    0.7928   63.7303   73.2321 H   0  0  0  0  0  0  0  0  0  0  0  0
   -0.3017   62.4868   71.7034 H   0  0  0  0  0  0  0  0  0  0  0  0
    0.0174   60.6950   71.4982 H   0  0  0  0  0  0  0  0  0  0  0  0
   -1.9047   60.8053   72.8231 H   0  0  0  0  0  0  0  0  0  0  0  0
   -0.5729   59.1733   73.6262 H   0  0  0  0  0  0  0  0  0  0  0  0
    1.0002   61.1196   75.4173 H   0  0  0  0  0  0  0  0  0  0  0  0
    1.4080   58.1500   74.8319 H   0  0  0  0  0  0  0  0  0  0  0  0
    2.3856   59.2165   75.9315 H   0  0  0  0  0  0  0  0  0  0  0  0
    0.4723   59.5082   77.4061 H   0  0  0  0  0  0  0  0  0  0  0  0
   -1.1704   56.6160   77.0959 H   0  0  0  0  0  0  0  0  0  0  0  0
   -4.7274   58.2109   75.1796 H   0  0  0  0  0  0  0  0  0  0  0  0
   -4.1201   59.2046   76.5544 H   0  0  0  0  0  0  0  0  0  0  0  0
   -2.6977   58.6418   73.9180 H   0  0  0  0  0  0  0  0  0  0  0  0
   -3.4257   60.2162   74.4993 H   0  0  0  0  0  0  0  0  0  0  0  0
   -1.7206   60.4820   77.4517 H   0  0  0  0  0  0  0  0  0  0  0  0
   -1.0563   61.6516   76.2611 H   0  0  0  0  0  0  0  0  0  0  0  0
   -2.8114   61.2690   76.2611 H   0  0  0  0  0  0  0  0  0  0  0  0
    5.1116   60.7475   69.2769 H   0  0  0  0  0  0  0  0  0  0  0  0
    4.3413   59.2639   68.6196 H   0  0  0  0  0  0  0  0  0  0  0  0
    3.4414   60.8185   68.6196 H   0  0  0  0  0  0  0  0  0  0  0  0
    3.3800   58.1148   71.7780 H   0  0  0  0  0  0  0  0  0  0  0  0
    2.4690   58.0722   70.2304 H   0  0  0  0  0  0  0  0  0  0  0  0
    4.2507   57.8436   70.2304 H   0  0  0  0  0  0  0  0  0  0  0  0
    3.5744   64.8620   70.6450 H   0  0  0  0  0  0  0  0  0  0  0  0
    4.2646   63.7323   71.8817 H   0  0  0  0  0  0  0  0  0  0  0  0
    5.6965   63.1503   70.4608 H   0  0  0  0  0  0  0  0  0  0  0  0
   -1.3151   62.2562   74.9639 H   0  0  0  0  0  0  0  0  0  0  0  0
  2  1  1  0
  3  2  1  0
  4  3  1  0
  5  1  1  0
  5  4  1  0
  6  5  1  0
  7  6  1  0
  8  7  1  0
  8  1  1  0
  8  9  1  1
 10  8  1  0
 11 10  1  0
 12 11  1  0
 13  7  1  0
 13 12  1  0
 14 13  1  0
 15 14  1  0
 16 15  1  0
 17 16  2  0
 18 17  1  0
 19 18  2  0
 20 18  1  0
 21 20  1  0
 22 21  1  0
 22 16  1  0
 22 12  1  0
 22 23  1  1
 24 15  1  0
 25  3  1  0
 26  3  1  0
  1 27  1  6
 28 27  2  0
 29 27  1  0
 30 29  1  0
 31 11  1  0
  5 32  1  1
  6 33  1  0
  6 34  1  0
  7 35  1  6
  9 36  1  0
  9 37  1  0
  9 38  1  0
 10 39  1  0
 10 40  1  0
 11 41  1  6
 12 42  1  6
 13 43  1  1
 14 44  1  0
 14 45  1  0
 15 46  1  1
 17 47  1  0
 20 48  1  0
 20 49  1  0
 21 50  1  0
 21 51  1  0
 23 52  1  0
 23 53  1  0
 23 54  1  0
 25 55  1  0
 25 56  1  0
 25 57  1  0
 26 58  1  0
 26 59  1  0
 26 60  1  0
 29 61  1  0
 29 62  1  0
 30 63  1  0
 31 64  1  0
M  END
>  <score>  (4) 
-8.032

$$$$
=
     RDKit          3D

 64 68  0  0  0  0  0  0  0  0999 V2000
    1.2010   61.8030   72.7340 C   0  0  2  0  0  0  0  0  0  0  0  0
    1.4150   61.1810   71.4560 O   0  0  0  0  0  0  0  0  0  0  0  0
    2.7100   61.5860   71.0070 C   0  0  0  0  0  0  0  0  0  0  0  0
    3.4450   62.1540   72.0940 O   0  0  0  0  0  0  0  0  0  0  0  0
    2.6220   62.0520   73.2500 C   0  0  2  0  0  0  0  0  0  0  0  0
    3.0060   60.8270   74.1160 C   0  0  0  0  0  0  0  0  0  0  0  0
    1.8420   59.8520   73.9280 C   0  0  2  0  0  0  0  0  0  0  0  0
    0.6150   60.7780   73.7560 C   0  0  1  0  0  0  0  0  0  0  0  0
    0.2180   61.5210   75.0580 C   0  0  0  0  0  0  0  0  0  0  0  0
   -0.5480   59.9080   73.2370 C   0  0  0  0  0  0  0  0  0  0  0  0
   -0.8250   58.6510   74.0920 C   0  0  1  0  0  0  0  0  0  0  0  0
    0.4520   57.8210   74.4360 C   0  0  1  0  0  0  0  0  0  0  0  0
    1.6300   58.7170   74.9420 C   0  0  1  0  0  0  0  0  0  0  0  0
    2.9110   57.8830   75.0790 C   0  0  0  0  0  0  0  0  0  0  0  0
    2.7150   56.6740   75.9790 C   0  0  1  0  0  0  0  0  0  0  0  0
    1.5610   55.8120   75.5240 C   0  0  0  0  0  0  0  0  0  0  0  0
    1.7300   54.4880   75.3530 C   0  0  0  0  0  0  0  0  0  0  0  0
    0.5940   53.5890   75.0520 C   0  0  0  0  0  0  0  0  0  0  0  0
    0.8010   52.3940   74.8590 O   0  0  0  0  0  0  0  0  0  0  0  0
   -0.7950   54.1710   75.0860 C   0  0  0  0  0  0  0  0  0  0  0  0
   -0.7770   55.6010   74.5680 C   0  0  0  0  0  0  0  0  0  0  0  0
    0.2190   56.5310   75.3230 C   0  0  2  0  0  0  0  0  0  0  0  0
   -0.3440   56.8340   76.7300 C   0  0  0  0  0  0  0  0  0  0  0  0
    3.8850   55.9730   75.9870 F   0  0  0  0  0  0  0  0  0  0  0  0
    2.5610   62.6350   69.9090 C   0  0  0  0  0  0  0  0  0  0  0  0
    3.4560   60.3680   70.4770 C   0  0  0  0  0  0  0  0  0  0  0  0
    0.2980   63.0320   72.5270 C   0  0  0  0  0  0  0  0  0  0  0  0
   -0.7080   62.9870   71.8080 O   0  0  0  0  0  0  0  0  0  0  0  0
    0.6620   64.3430   73.2140 C   0  0  0  0  0  0  0  0  0  0  0  0
   -0.3990   65.2860   73.1350 O   0  0  0  0  0  0  0  0  0  0  0  0
   -1.5790   59.0190   75.2380 O   0  0  0  0  0  0  0  0  0  0  0  0
    2.7262   62.9621   73.8590 H   0  0  0  0  0  0  0  0  0  0  0  0
    3.9483   60.3813   73.7647 H   0  0  0  0  0  0  0  0  0  0  0  0
    3.1663   61.0919   75.1715 H   0  0  0  0  0  0  0  0  0  0  0  0
    2.0618   59.2106   73.0618 H   0  0  0  0  0  0  0  0  0  0  0  0
    0.5345   60.9287   75.9292 H   0  0  0  0  0  0  0  0  0  0  0  0
    0.7111   62.5039   75.0842 H   0  0  0  0  0  0  0  0  0  0  0  0
   -0.8732   61.6574   75.0842 H   0  0  0  0  0  0  0  0  0  0  0  0
   -1.4597   60.5233   73.2216 H   0  0  0  0  0  0  0  0  0  0  0  0
   -0.2579   59.5540   72.2367 H   0  0  0  0  0  0  0  0  0  0  0  0
   -1.4234   57.9567   73.4838 H   0  0  0  0  0  0  0  0  0  0  0  0
    0.7611   57.3990   73.4683 H   0  0  0  0  0  0  0  0  0  0  0  0
    1.3873   59.1345   75.9303 H   0  0  0  0  0  0  0  0  0  0  0  0
    3.2163   57.5359   74.0808 H   0  0  0  0  0  0  0  0  0  0  0  0
    3.6827   58.5213   75.5340 H   0  0  0  0  0  0  0  0  0  0  0  0
    2.4596   57.0054   76.9963 H   0  0  0  0  0  0  0  0  0  0  0  0
    2.7406   54.0623   75.4394 H   0  0  0  0  0  0  0  0  0  0  0  0
   -1.4592   53.5636   74.4537 H   0  0  0  0  0  0  0  0  0  0  0  0
   -1.1601   54.1692   76.1236 H   0  0  0  0  0  0  0  0  0  0  0  0
   -0.4950   55.5812   73.5049 H   0  0  0  0  0  0  0  0  0  0  0  0
   -1.7843   56.0126   74.7290 H   0  0  0  0  0  0  0  0  0  0  0  0
    0.3538   56.4584   77.4929 H   0  0  0  0  0  0  0  0  0  0  0  0
   -0.4676   57.9205   76.8493 H   0  0  0  0  0  0  0  0  0  0  0  0
   -1.3189   56.3387   76.8493 H   0  0  0  0  0  0  0  0  0  0  0  0
    2.4202   63.6260   70.3653 H   0  0  0  0  0  0  0  0  0  0  0  0
    3.4669   62.6439   69.2851 H   0  0  0  0  0  0  0  0  0  0  0  0
    1.6884   62.3913   69.2851 H   0  0  0  0  0  0  0  0  0  0  0  0
    3.8240   59.7672   71.3218 H   0  0  0  0  0  0  0  0  0  0  0  0
    2.7754   59.7596   69.8633 H   0  0  0  0  0  0  0  0  0  0  0  0
    4.3072   60.6978   69.8633 H   0  0  0  0  0  0  0  0  0  0  0  0
    0.8833   64.1421   74.2726 H   0  0  0  0  0  0  0  0  0  0  0  0
    1.5391   64.7676   72.7037 H   0  0  0  0  0  0  0  0  0  0  0  0
   -0.6840   65.5393   74.0486 H   0  0  0  0  0  0  0  0  0  0  0  0
   -1.0774   58.7742   76.0556 H   0  0  0  0  0  0  0  0  0  0  0  0
  2  1  1  0
  3  2  1  0
  4  3  1  0
  5  1  1  0
  5  4  1  0
  6  5  1  0
  7  6  1  0
  8  7  1  0
  8  1  1  0
  8  9  1  1
 10  8  1  0
 11 10  1  0
 12 11  1  0
 13  7  1  0
 13 12  1  0
 14 13  1  0
 15 14  1  0
 16 15  1  0
 17 16  2  0
 18 17  1  0
 19 18  2  0
 20 18  1  0
 21 20  1  0
 22 21  1  0
 22 16  1  0
 22 12  1  0
 22 23  1  1
 24 15  1  0
 25  3  1  0
 26  3  1  0
  1 27  1  6
 28 27  2  0
 29 27  1  0
 30 29  1  0
 31 11  1  0
  5 32  1  1
  6 33  1  0
  6 34  1  0
  7 35  1  6
  9 36  1  0
  9 37  1  0
  9 38  1  0
 10 39  1  0
 10 40  1  0
 11 41  1  6
 12 42  1  6
 13 43  1  1
 14 44  1  0
 14 45  1  0
 15 46  1  1
 17 47  1  0
 20 48  1  0
 20 49  1  0
 21 50  1  0
 21 51  1  0
 23 52  1  0
 23 53  1  0
 23 54  1  0
 25 55  1  0
 25 56  1  0
 25 57  1  0
 26 58  1  0
 26 59  1  0
 26 60  1  0
 29 61  1  0
 29 62  1  0
 30 63  1  0
 31 64  1  0
M  END
>  <score>  (5) 
-7.691

$$$$
=
     RDKit          3D

 64 68  0  0  0  0  0  0  0  0999 V2000
   -4.0660   79.7480   65.9050 C   0  0  2  0  0  0  0  0  0  0  0  0
   -2.8560   79.1020   66.3340 O   0  0  0  0  0  0  0  0  0  0  0  0
   -1.9820   80.1280   66.8100 C   0  0  0  0  0  0  0  0  0  0  0  0
   -2.7180   81.3380   67.0110 O   0  0  0  0  0  0  0  0  0  0  0  0
   -4.0790   81.0510   66.7110 C   0  0  2  0  0  0  0  0  0  0  0  0
   -4.8990   80.7750   67.9950 C   0  0  0  0  0  0  0  0  0  0  0  0
   -5.1880   79.2730   67.9430 C   0  0  2  0  0  0  0  0  0  0  0  0
   -5.3180   78.9790   66.4310 C   0  0  1  0  0  0  0  0  0  0  0  0
   -6.5970   79.5840   65.7950 C   0  0  0  0  0  0  0  0  0  0  0  0
   -5.2840   77.4470   66.2570 C   0  0  0  0  0  0  0  0  0  0  0  0
   -6.3060   76.6900   67.1340 C   0  0  1  0  0  0  0  0  0  0  0  0
   -6.3110   77.1330   68.6310 C   0  0  1  0  0  0  0  0  0  0  0  0
   -6.3260   78.6890   68.7940 C   0  0  1  0  0  0  0  0  0  0  0  0
   -6.1350   79.0700   70.2690 C   0  0  0  0  0  0  0  0  0  0  0  0
   -7.1690   78.4140   71.1700 C   0  0  1  0  0  0  0  0  0  0  0  0
   -7.1910   76.9130   71.0030 C   0  0  0  0  0  0  0  0  0  0  0  0
   -7.1100   76.1110   72.0810 C   0  0  0  0  0  0  0  0  0  0  0  0
   -7.2760   74.6430   71.9750 C   0  0  0  0  0  0  0  0  0  0  0  0
   -7.1500   73.9460   72.9780 O   0  0  0  0  0  0  0  0  0  0  0  0
   -7.6880   74.0750   70.6430 C   0  0  0  0  0  0  0  0  0  0  0  0
   -7.0490   74.8670   69.5130 C   0  0  0  0  0  0  0  0  0  0  0  0
   -7.3520   76.3950   69.5670 C   0  0  2  0  0  0  0  0  0  0  0  0
   -8.8270   76.6280   69.1680 C   0  0  0  0  0  0  0  0  0  0  0  0
   -6.8780   78.7670   72.4540 F   0  0  0  0  0  0  0  0  0  0  0  0
   -0.8870   80.3820   65.7780 C   0  0  0  0  0  0  0  0  0  0  0  0
   -1.3700   79.6870   68.1330 C   0  0  0  0  0  0  0  0  0  0  0  0
   -4.0310   79.8650   64.3700 C   0  0  0  0  0  0  0  0  0  0  0  0
   -4.5300   80.8320   63.7790 O   0  0  0  0  0  0  0  0  0  0  0  0
   -3.3800   78.7530   63.5570 C   0  0  0  0  0  0  0  0  0  0  0  0
   -3.3710   79.0580   62.1680 O   0  0  0  0  0  0  0  0  0  0  0  0
   -7.5870   76.7540   66.5260 O   0  0  0  0  0  0  0  0  0  0  0  0
   -4.5280   81.9038   66.1808 H   0  0  0  0  0  0  0  0  0  0  0  0
   -4.3154   81.0288   68.8922 H   0  0  0  0  0  0  0  0  0  0  0  0
   -5.8174   81.3784   68.0452 H   0  0  0  0  0  0  0  0  0  0  0  0
   -4.3668   78.7422   68.4469 H   0  0  0  0  0  0  0  0  0  0  0  0
   -7.2837   79.9088   66.5906 H   0  0  0  0  0  0  0  0  0  0  0  0
   -6.3231   80.4480   65.1717 H   0  0  0  0  0  0  0  0  0  0  0  0
   -7.0912   78.8242   65.1717 H   0  0  0  0  0  0  0  0  0  0  0  0
   -5.4942   77.2143   65.2026 H   0  0  0  0  0  0  0  0  0  0  0  0
   -4.2850   77.1137   66.5745 H   0  0  0  0  0  0  0  0  0  0  0  0
   -5.9920   75.6369   67.1818 H   0  0  0  0  0  0  0  0  0  0  0  0
   -5.3434   76.7770   69.0145 H   0  0  0  0  0  0  0  0  0  0  0  0
   -7.2926   79.0937   68.4596 H   0  0  0  0  0  0  0  0  0  0  0  0
   -5.1323   78.7516   70.5902 H   0  0  0  0  0  0  0  0  0  0  0  0
   -6.2554   80.1600   70.3546 H   0  0  0  0  0  0  0  0  0  0  0  0
   -8.1762   78.7615   70.8964 H   0  0  0  0  0  0  0  0  0  0  0  0
   -6.9153   76.5578   73.0671 H   0  0  0  0  0  0  0  0  0  0  0  0
   -7.3638   73.0258   70.5797 H   0  0  0  0  0  0  0  0  0  0  0  0
   -8.7823   74.1367   70.5499 H   0  0  0  0  0  0  0  0  0  0  0  0
   -5.9591   74.7274   69.5646 H   0  0  0  0  0  0  0  0  0  0  0  0
   -7.4776   74.4881   68.5735 H   0  0  0  0  0  0  0  0  0  0  0  0
   -9.4413   76.7250   70.0753 H   0  0  0  0  0  0  0  0  0  0  0  0
   -8.9045   77.5495   68.5724 H   0  0  0  0  0  0  0  0  0  0  0  0
   -9.1848   75.7752   68.5724 H   0  0  0  0  0  0  0  0  0  0  0  0
    0.0593   80.6015   66.2940 H   0  0  0  0  0  0  0  0  0  0  0  0
   -0.7626   79.4889   65.1480 H   0  0  0  0  0  0  0  0  0  0  0  0
   -1.1685   81.2387   65.1480 H   0  0  0  0  0  0  0  0  0  0  0  0
   -1.9536   80.1075   68.9652 H   0  0  0  0  0  0  0  0  0  0  0  0
   -1.3823   78.5888   68.1947 H   0  0  0  0  0  0  0  0  0  0  0  0
   -0.3321   80.0461   68.1947 H   0  0  0  0  0  0  0  0  0  0  0  0
   -2.3434   78.6196   63.9001 H   0  0  0  0  0  0  0  0  0  0  0  0
   -3.9634   77.8321   63.7038 H   0  0  0  0  0  0  0  0  0  0  0  0
   -3.3420   80.0400   62.0460 H   0  0  0  0  0  0  0  0  0  0  0  0
   -8.2841   76.7888   67.2281 H   0  0  0  0  0  0  0  0  0  0  0  0
  2  1  1  0
  3  2  1  0
  4  3  1  0
  5  1  1  0
  5  4  1  0
  6  5  1  0
  7  6  1  0
  8  7  1  0
  8  1  1  0
  8  9  1  6
 10  8  1  0
 11 10  1  0
 12 11  1  0
 13  7  1  0
 13 12  1  0
 14 13  1  0
 15 14  1  0
 16 15  1  0
 17 16  2  0
 18 17  1  0
 19 18  2  0
 20 18  1  0
 21 20  1  0
 22 21  1  0
 22 16  1  0
 22 12  1  0
 22 23  1  6
 24 15  1  0
 25  3  1  0
 26  3  1  0
  1 27  1  6
 28 27  2  0
 29 27  1  0
 30 29  1  0
 31 11  1  0
  5 32  1  6
  6 33  1  0
  6 34  1  0
  7 35  1  1
  9 36  1  0
  9 37  1  0
  9 38  1  0
 10 39  1  0
 10 40  1  0
 11 41  1  1
 12 42  1  1
 13 43  1  6
 14 44  1  0
 14 45  1  0
 15 46  1  6
 17 47  1  0
 20 48  1  0
 20 49  1  0
 21 50  1  0
 21 51  1  0
 23 52  1  0
 23 53  1  0
 23 54  1  0
 25 55  1  0
 25 56  1  0
 25 57  1  0
 26 58  1  0
 26 59  1  0
 26 60  1  0
 29 61  1  0
 29 62  1  0
 30 63  1  0
 31 64  1  0
M  END
>  <score>  (6) 
-7.105

$$$$
=
     RDKit          3D

 64 68  0  0  0  0  0  0  0  0999 V2000
    1.3160   61.4460   73.6310 C   0  0  2  0  0  0  0  0  0  0  0  0
    1.1950   61.9840   74.9580 O   0  0  0  0  0  0  0  0  0  0  0  0
    0.1200   62.9260   74.9300 C   0  0  0  0  0  0  0  0  0  0  0  0
   -0.6490   62.7500   73.7370 O   0  0  0  0  0  0  0  0  0  0  0  0
   -0.0820   61.6480   73.0370 C   0  0  2  0  0  0  0  0  0  0  0  0
   -0.8730   60.3420   73.2970 C   0  0  0  0  0  0  0  0  0  0  0  0
    0.0610   59.5030   74.1720 C   0  0  2  0  0  0  0  0  0  0  0  0
    1.4730   59.8930   73.6770 C   0  0  1  0  0  0  0  0  0  0  0  0
    1.7930   59.3670   72.2540 C   0  0  0  0  0  0  0  0  0  0  0  0
    2.4860   59.3550   74.7080 C   0  0  0  0  0  0  0  0  0  0  0  0
    2.3250   57.8510   75.0240 C   0  0  1  0  0  0  0  0  0  0  0  0
    0.8560   57.4190   75.3290 C   0  0  1  0  0  0  0  0  0  0  0  0
   -0.1630   57.9870   74.2890 C   0  0  1  0  0  0  0  0  0  0  0  0
   -1.6010   57.6970   74.7410 C   0  0  0  0  0  0  0  0  0  0  0  0
   -1.8380   56.2170   74.9890 C   0  0  1  0  0  0  0  0  0  0  0  0
   -0.8420   55.6420   75.9680 C   0  0  0  0  0  0  0  0  0  0  0  0
   -1.2690   54.9330   77.0300 C   0  0  0  0  0  0  0  0  0  0  0  0
   -0.3250   54.2310   77.9290 C   0  0  0  0  0  0  0  0  0  0  0  0
   -0.7550   53.6330   78.9110 O   0  0  0  0  0  0  0  0  0  0  0  0
    1.1300   54.2050   77.5420 C   0  0  0  0  0  0  0  0  0  0  0  0
    1.5210   55.5160   76.8770 C   0  0  0  0  0  0  0  0  0  0  0  0
    0.6390   55.8830   75.6460 C   0  0  2  0  0  0  0  0  0  0  0  0
    1.0020   54.9460   74.4720 C   0  0  0  0  0  0  0  0  0  0  0  0
   -3.1170   56.0740   75.4390 F   0  0  0  0  0  0  0  0  0  0  0  0
    0.6860   64.3430   74.9480 C   0  0  0  0  0  0  0  0  0  0  0  0
   -0.7740   62.6980   76.1430 C   0  0  0  0  0  0  0  0  0  0  0  0
    2.4910   62.1510   72.9300 C   0  0  0  0  0  0  0  0  0  0  0  0
    3.6620   61.9780   73.2900 O   0  0  0  0  0  0  0  0  0  0  0  0
    2.2020   63.0990   71.7730 C   0  0  0  0  0  0  0  0  0  0  0  0
    2.3010   62.4380   70.5180 O   0  0  0  0  0  0  0  0  0  0  0  0
    2.9310   57.0860   73.9930 O   0  0  0  0  0  0  0  0  0  0  0  0
   -0.0854   61.8551   71.9567 H   0  0  0  0  0  0  0  0  0  0  0  0
   -1.8145   60.5550   73.8245 H   0  0  0  0  0  0  0  0  0  0  0  0
   -1.1524   59.8271   72.3660 H   0  0  0  0  0  0  0  0  0  0  0  0
   -0.1420   59.7432   75.2261 H   0  0  0  0  0  0  0  0  0  0  0  0
    2.3634   58.4294   72.3293 H   0  0  0  0  0  0  0  0  0  0  0  0
    0.8540   59.1824   71.7116 H   0  0  0  0  0  0  0  0  0  0  0  0
    2.3886   60.1160   71.7116 H   0  0  0  0  0  0  0  0  0  0  0  0
    3.4999   59.5188   74.3142 H   0  0  0  0  0  0  0  0  0  0  0  0
    2.3024   59.8981   75.6468 H   0  0  0  0  0  0  0  0  0  0  0  0
    2.8513   57.6484   75.9684 H   0  0  0  0  0  0  0  0  0  0  0  0
    0.6345   57.9005   76.2929 H   0  0  0  0  0  0  0  0  0  0  0  0
   -0.0092   57.5069   73.3113 H   0  0  0  0  0  0  0  0  0  0  0  0
   -1.7973   58.2480   75.6726 H   0  0  0  0  0  0  0  0  0  0  0  0
   -2.2787   58.0169   73.9358 H   0  0  0  0  0  0  0  0  0  0  0  0
   -1.6972   55.6561   74.0533 H   0  0  0  0  0  0  0  0  0  0  0  0
   -2.3481   54.8737   77.2352 H   0  0  0  0  0  0  0  0  0  0  0  0
    1.7430   54.0580   78.4434 H   0  0  0  0  0  0  0  0  0  0  0  0
    1.2982   53.3798   76.8343 H   0  0  0  0  0  0  0  0  0  0  0  0
    1.4322   56.3221   77.6202 H   0  0  0  0  0  0  0  0  0  0  0  0
    2.5506   55.3947   76.5093 H   0  0  0  0  0  0  0  0  0  0  0  0
    1.3728   53.9890   74.8678 H   0  0  0  0  0  0  0  0  0  0  0  0
    0.1083   54.7666   73.8562 H   0  0  0  0  0  0  0  0  0  0  0  0
    1.7833   55.4155   73.8562 H   0  0  0  0  0  0  0  0  0  0  0  0
    0.8175   64.6721   75.9893 H   0  0  0  0  0  0  0  0  0  0  0  0
    1.6583   64.3560   74.4338 H   0  0  0  0  0  0  0  0  0  0  0  0
   -0.0098   65.0223   74.4338 H   0  0  0  0  0  0  0  0  0  0  0  0
   -0.1892   62.8471   77.0627 H   0  0  0  0  0  0  0  0  0  0  0  0
   -1.6110   63.4114   76.1209 H   0  0  0  0  0  0  0  0  0  0  0  0
   -1.1671   61.6709   76.1209 H   0  0  0  0  0  0  0  0  0  0  0  0
    1.1840   63.5002   71.8859 H   0  0  0  0  0  0  0  0  0  0  0  0
    2.9475   63.9075   71.7960 H   0  0  0  0  0  0  0  0  0  0  0  0
    2.4460   61.4698   70.6655 H   0  0  0  0  0  0  0  0  0  0  0  0
    3.4928   56.3768   74.3950 H   0  0  0  0  0  0  0  0  0  0  0  0
  2  1  1  0
  3  2  1  0
  4  3  1  0
  5  1  1  0
  5  4  1  0
  6  5  1  0
  7  6  1  0
  8  7  1  0
  8  1  1  0
  8  9  1  6
 10  8  1  0
 11 10  1  0
 12 11  1  0
 13  7  1  0
 13 12  1  0
 14 13  1  0
 15 14  1  0
 16 15  1  0
 17 16  2  0
 18 17  1  0
 19 18  2  0
 20 18  1  0
 21 20  1  0
 22 21  1  0
 22 16  1  0
 22 12  1  0
 22 23  1  6
 24 15  1  0
 25  3  1  0
 26  3  1  0
  1 27  1  6
 28 27  2  0
 29 27  1  0
 30 29  1  0
 31 11  1  0
  5 32  1  6
  6 33  1  0
  6 34  1  0
  7 35  1  1
  9 36  1  0
  9 37  1  0
  9 38  1  0
 10 39  1  0
 10 40  1  0
 11 41  1  1
 12 42  1  1
 13 43  1  6
 14 44  1  0
 14 45  1  0
 15 46  1  6
 17 47  1  0
 20 48  1  0
 20 49  1  0
 21 50  1  0
 21 51  1  0
 23 52  1  0
 23 53  1  0
 23 54  1  0
 25 55  1  0
 25 56  1  0
 25 57  1  0
 26 58  1  0
 26 59  1  0
 26 60  1  0
 29 61  1  0
 29 62  1  0
 30 63  1  0
 31 64  1  0
M  END
>  <score>  (7) 
-7.077

$$$$
=
     RDKit          3D

 64 68  0  0  0  0  0  0  0  0999 V2000
    1.4440   61.7790   72.7300 C   0  0  2  0  0  0  0  0  0  0  0  0
    1.3900   62.7380   73.7990 O   0  0  0  0  0  0  0  0  0  0  0  0
    0.1110   63.3720   73.7260 C   0  0  0  0  0  0  0  0  0  0  0  0
   -0.7580   62.6170   72.8760 O   0  0  0  0  0  0  0  0  0  0  0  0
   -0.0310   61.4670   72.4580 C   0  0  2  0  0  0  0  0  0  0  0  0
   -0.3920   60.2250   73.3090 C   0  0  0  0  0  0  0  0  0  0  0  0
    0.8570   59.9730   74.1570 C   0  0  2  0  0  0  0  0  0  0  0  0
    2.0180   60.4190   73.2380 C   0  0  1  0  0  0  0  0  0  0  0  0
    2.2430   59.4730   72.0300 C   0  0  0  0  0  0  0  0  0  0  0  0
    3.2850   60.5130   74.1120 C   0  0  0  0  0  0  0  0  0  0  0  0
    3.5850   59.2350   74.9280 C   0  0  1  0  0  0  0  0  0  0  0  0
    2.3510   58.6700   75.7000 C   0  0  1  0  0  0  0  0  0  0  0  0
    1.0680   58.5980   74.8090 C   0  0  1  0  0  0  0  0  0  0  0  0
   -0.1510   58.2230   75.6630 C   0  0  0  0  0  0  0  0  0  0  0  0
    0.0600   56.9260   76.4270 C   0  0  1  0  0  0  0  0  0  0  0  0
    1.3130   56.9640   77.2690 C   0  0  0  0  0  0  0  0  0  0  0  0
    1.2620   56.6340   78.5730 C   0  0  0  0  0  0  0  0  0  0  0  0
    2.4870   56.5170   79.3970 C   0  0  0  0  0  0  0  0  0  0  0  0
    2.3900   56.2570   80.5920 O   0  0  0  0  0  0  0  0  0  0  0  0
    3.8170   56.6330   78.7010 C   0  0  0  0  0  0  0  0  0  0  0  0
    3.7340   57.6510   77.5740 C   0  0  0  0  0  0  0  0  0  0  0  0
    2.6060   57.3530   76.5400 C   0  0  2  0  0  0  0  0  0  0  0  0
    3.0210   56.1360   75.6820 C   0  0  0  0  0  0  0  0  0  0  0  0
   -1.0480   56.7140   77.1930 F   0  0  0  0  0  0  0  0  0  0  0  0
    0.2710   64.7740   73.1470 C   0  0  0  0  0  0  0  0  0  0  0  0
   -0.4910   63.4430   75.1240 C   0  0  0  0  0  0  0  0  0  0  0  0
    2.2630   62.3860   71.5770 C   0  0  0  0  0  0  0  0  0  0  0  0
    3.4580   62.6820   71.7130 O   0  0  0  0  0  0  0  0  0  0  0  0
    1.5810   62.6460   70.2400 C   0  0  0  0  0  0  0  0  0  0  0  0
    2.5230   62.7170   69.1780 O   0  0  0  0  0  0  0  0  0  0  0  0
    4.2070   58.2750   74.0870 O   0  0  0  0  0  0  0  0  0  0  0  0
   -0.2571   61.2506   71.4034 H   0  0  0  0  0  0  0  0  0  0  0  0
   -1.2628   60.4306   73.9489 H   0  0  0  0  0  0  0  0  0  0  0  0
   -0.6635   59.3562   72.6913 H   0  0  0  0  0  0  0  0  0  0  0  0
    0.7639   60.5441   75.0925 H   0  0  0  0  0  0  0  0  0  0  0  0
    2.4831   58.4634   72.3947 H   0  0  0  0  0  0  0  0  0  0  0  0
    1.3290   59.4345   71.4192 H   0  0  0  0  0  0  0  0  0  0  0  0
    3.0765   59.8501   71.4192 H   0  0  0  0  0  0  0  0  0  0  0  0
    4.1441   60.7127   73.4547 H   0  0  0  0  0  0  0  0  0  0  0  0
    3.1097   61.3197   74.8390 H   0  0  0  0  0  0  0  0  0  0  0  0
    4.2861   59.5060   75.7311 H   0  0  0  0  0  0  0  0  0  0  0  0
    2.1599   59.4233   76.4785 H   0  0  0  0  0  0  0  0  0  0  0  0
    1.1907   57.8278   74.0332 H   0  0  0  0  0  0  0  0  0  0  0  0
   -0.3408   59.0319   76.3839 H   0  0  0  0  0  0  0  0  0  0  0  0
   -1.0065   58.0808   74.9863 H   0  0  0  0  0  0  0  0  0  0  0  0
    0.1997   56.0959   75.7189 H   0  0  0  0  0  0  0  0  0  0  0  0
    0.2836   56.4461   79.0394 H   0  0  0  0  0  0  0  0  0  0  0  0
    4.5793   56.9549   79.4257 H   0  0  0  0  0  0  0  0  0  0  0  0
    4.0881   55.6535   78.2802 H   0  0  0  0  0  0  0  0  0  0  0  0
    3.5482   58.6417   78.0143 H   0  0  0  0  0  0  0  0  0  0  0  0
    4.6886   57.6052   77.0294 H   0  0  0  0  0  0  0  0  0  0  0  0
    3.3052   55.3025   76.3411 H   0  0  0  0  0  0  0  0  0  0  0  0
    2.1765   55.8299   75.0471 H   0  0  0  0  0  0  0  0  0  0  0  0
    3.8766   56.4096   75.0471 H   0  0  0  0  0  0  0  0  0  0  0  0
    0.3541   65.5022   73.9673 H   0  0  0  0  0  0  0  0  0  0  0  0
    1.1795   64.8136   72.5281 H   0  0  0  0  0  0  0  0  0  0  0  0
   -0.6052   65.0173   72.5281 H   0  0  0  0  0  0  0  0  0  0  0  0
    0.3091   63.3486   75.8730 H   0  0  0  0  0  0  0  0  0  0  0  0
   -1.0031   64.4078   75.2541 H   0  0  0  0  0  0  0  0  0  0  0  0
   -1.2135   62.6238   75.2541 H   0  0  0  0  0  0  0  0  0  0  0  0
    0.8731   61.8293   70.0354 H   0  0  0  0  0  0  0  0  0  0  0  0
    1.0585   63.6120   70.3020 H   0  0  0  0  0  0  0  0  0  0  0  0
    3.4371   62.7859   69.5518 H   0  0  0  0  0  0  0  0  0  0  0  0
    4.6522   57.5879   74.6435 H   0  0  0  0  0  0  0  0  0  0  0  0
  2  1  1  0
  3  2  1  0
  4  3  1  0
  5  1  1  0
  5  4  1  0
  6  5  1  0
  7  6  1  0
  8  7  1  0
  8  1  1  0
  8  9  1  6
 10  8  1  0
 11 10  1  0
 12 11  1  0
 13  7  1  0
 13 12  1  0
 14 13  1  0
 15 14  1  0
 16 15  1  0
 17 16  2  0
 18 17  1  0
 19 18  2  0
 20 18  1  0
 21 20  1  0
 22 21  1  0
 22 16  1  0
 22 12  1  0
 22 23  1  6
 24 15  1  0
 25  3  1  0
 26  3  1  0
  1 27  1  6
 28 27  2  0
 29 27  1  0
 30 29  1  0
 31 11  1  0
  5 32  1  6
  6 33  1  0
  6 34  1  0
  7 35  1  1
  9 36  1  0
  9 37  1  0
  9 38  1  0
 10 39  1  0
 10 40  1  0
 11 41  1  1
 12 42  1  1
 13 43  1  6
 14 44  1  0
 14 45  1  0
 15 46  1  6
 17 47  1  0
 20 48  1  0
 20 49  1  0
 21 50  1  0
 21 51  1  0
 23 52  1  0
 23 53  1  0
 23 54  1  0
 25 55  1  0
 25 56  1  0
 25 57  1  0
 26 58  1  0
 26 59  1  0
 26 60  1  0
 29 61  1  0
 29 62  1  0
 30 63  1  0
 31 64  1  0
M  END
>  <score>  (8) 
-6.945

$$$$
=
     RDKit          3D

 64 68  0  0  0  0  0  0  0  0999 V2000
    1.7980   63.2280   70.9500 C   0  0  2  0  0  0  0  0  0  0  0  0
    1.7450   64.5350   71.5460 O   0  0  0  0  0  0  0  0  0  0  0  0
    0.7440   65.2730   70.8410 C   0  0  0  0  0  0  0  0  0  0  0  0
   -0.0600   64.3810   70.0630 O   0  0  0  0  0  0  0  0  0  0  0  0
    0.4080   63.0640   70.3270 C   0  0  2  0  0  0  0  0  0  0  0  0
   -0.4730   62.3480   71.3800 C   0  0  0  0  0  0  0  0  0  0  0  0
    0.4120   62.2730   72.6260 C   0  0  2  0  0  0  0  0  0  0  0  0
    1.8400   62.1220   72.0510 C   0  0  1  0  0  0  0  0  0  0  0  0
    2.0910   60.7440   71.3840 C   0  0  0  0  0  0  0  0  0  0  0  0
    2.8290   62.3660   73.2080 C   0  0  0  0  0  0  0  0  0  0  0  0
    2.5620   61.5020   74.4600 C   0  0  1  0  0  0  0  0  0  0  0  0
    1.0710   61.4970   74.9230 C   0  0  1  0  0  0  0  0  0  0  0  0
    0.0770   61.2670   73.7380 C   0  0  1  0  0  0  0  0  0  0  0  0
   -1.3700   61.4650   74.2120 C   0  0  0  0  0  0  0  0  0  0  0  0
   -1.7130   60.5750   75.3960 C   0  0  1  0  0  0  0  0  0  0  0  0
   -0.7430   60.7590   76.5400 C   0  0  0  0  0  0  0  0  0  0  0  0
   -1.2010   61.0000   77.7820 C   0  0  0  0  0  0  0  0  0  0  0  0
   -0.2950   61.0410   78.9530 C   0  0  0  0  0  0  0  0  0  0  0  0
   -0.7500   61.3080   80.0620 O   0  0  0  0  0  0  0  0  0  0  0  0
    1.1460   60.6580   78.7430 C   0  0  0  0  0  0  0  0  0  0  0  0
    1.6200   61.1280   77.3770 C   0  0  0  0  0  0  0  0  0  0  0  0
    0.7450   60.6130   76.1950 C   0  0  2  0  0  0  0  0  0  0  0  0
    1.0130   59.1040   75.9930 C   0  0  0  0  0  0  0  0  0  0  0  0
   -2.9890   60.8670   75.7740 F   0  0  0  0  0  0  0  0  0  0  0  0
    1.4140   66.2760   69.9070 C   0  0  0  0  0  0  0  0  0  0  0  0
   -0.1410   65.9980   71.8480 C   0  0  0  0  0  0  0  0  0  0  0  0
    3.0090   63.1800   70.0010 C   0  0  0  0  0  0  0  0  0  0  0  0
    2.8970   62.8310   68.8190 O   0  0  0  0  0  0  0  0  0  0  0  0
    4.3850   63.5580   70.5360 C   0  0  0  0  0  0  0  0  0  0  0  0
    5.1890   62.4080   70.7680 O   0  0  0  0  0  0  0  0  0  0  0  0
    3.0880   60.1990   74.2530 O   0  0  0  0  0  0  0  0  0  0  0  0
    0.3984   62.4756   69.3977 H   0  0  0  0  0  0  0  0  0  0  0  0
   -1.3850   62.9281   71.5843 H   0  0  0  0  0  0  0  0  0  0  0  0
   -0.8085   61.3562   71.0427 H   0  0  0  0  0  0  0  0  0  0  0  0
    0.2481   63.1820   73.2235 H   0  0  0  0  0  0  0  0  0  0  0  0
    2.2302   59.9796   72.1627 H   0  0  0  0  0  0  0  0  0  0  0  0
    1.2268   60.4767   70.7582 H   0  0  0  0  0  0  0  0  0  0  0  0
    2.9940   60.7986   70.7582 H   0  0  0  0  0  0  0  0  0  0  0  0
    3.8443   62.1457   72.8466 H   0  0  0  0  0  0  0  0  0  0  0  0
    2.7050   63.4150   73.5148 H   0  0  0  0  0  0  0  0  0  0  0  0
    3.0902   61.9653   75.3064 H   0  0  0  0  0  0  0  0  0  0  0  0
    0.9056   62.5212   75.2887 H   0  0  0  0  0  0  0  0  0  0  0  0
    0.1750   60.2389   73.3594 H   0  0  0  0  0  0  0  0  0  0  0  0
   -1.5053   62.5158   74.5077 H   0  0  0  0  0  0  0  0  0  0  0  0
   -2.0378   61.1940   73.3810 H   0  0  0  0  0  0  0  0  0  0  0  0
   -1.6338   59.5178   75.1026 H   0  0  0  0  0  0  0  0  0  0  0  0
   -2.2772   61.1712   77.9317 H   0  0  0  0  0  0  0  0  0  0  0  0
    1.7640   61.1265   79.5231 H   0  0  0  0  0  0  0  0  0  0  0  0
    1.2383   59.5633   78.7981 H   0  0  0  0  0  0  0  0  0  0  0  0
    1.6063   62.2278   77.3649 H   0  0  0  0  0  0  0  0  0  0  0  0
    2.6298   60.7173   77.2301 H   0  0  0  0  0  0  0  0  0  0  0  0
    1.1003   58.6127   76.9733 H   0  0  0  0  0  0  0  0  0  0  0  0
    0.1804   58.6557   75.4310 H   0  0  0  0  0  0  0  0  0  0  0  0
    1.9490   58.9698   75.4310 H   0  0  0  0  0  0  0  0  0  0  0  0
    1.9277   67.0451   70.5025 H   0  0  0  0  0  0  0  0  0  0  0  0
    2.1455   65.7542   69.2725 H   0  0  0  0  0  0  0  0  0  0  0  0
    0.6518   66.7520   69.2725 H   0  0  0  0  0  0  0  0  0  0  0  0
    0.1762   65.7382   72.8687 H   0  0  0  0  0  0  0  0  0  0  0  0
   -0.0498   67.0843   71.7010 H   0  0  0  0  0  0  0  0  0  0  0  0
   -1.1881   65.6948   71.7010 H   0  0  0  0  0  0  0  0  0  0  0  0
    4.8887   64.2039   69.8018 H   0  0  0  0  0  0  0  0  0  0  0  0
    4.2504   64.0833   71.4931 H   0  0  0  0  0  0  0  0  0  0  0  0
    5.2883   62.2660   71.7427 H   0  0  0  0  0  0  0  0  0  0  0  0
    3.2611   59.7701   75.1283 H   0  0  0  0  0  0  0  0  0  0  0  0
  2  1  1  0
  3  2  1  0
  4  3  1  0
  5  1  1  0
  5  4  1  0
  6  5  1  0
  7  6  1  0
  8  7  1  0
  8  1  1  0
  8  9  1  6
 10  8  1  0
 11 10  1  0
 12 11  1  0
 13  7  1  0
 13 12  1  0
 14 13  1  0
 15 14  1  0
 16 15  1  0
 17 16  2  0
 18 17  1  0
 19 18  2  0
 20 18  1  0
 21 20  1  0
 22 21  1  0
 22 16  1  0
 22 12  1  0
 22 23  1  6
 24 15  1  0
 25  3  1  0
 26  3  1  0
  1 27  1  6
 28 27  2  0
 29 27  1  0
 30 29  1  0
 31 11  1  0
  5 32  1  6
  6 33  1  0
  6 34  1  0
  7 35  1  1
  9 36  1  0
  9 37  1  0
  9 38  1  0
 10 39  1  0
 10 40  1  0
 11 41  1  1
 12 42  1  1
 13 43  1  6
 14 44  1  0
 14 45  1  0
 15 46  1  6
 17 47  1  0
 20 48  1  0
 20 49  1  0
 21 50  1  0
 21 51  1  0
 23 52  1  0
 23 53  1  0
 23 54  1  0
 25 55  1  0
 25 56  1  0
 25 57  1  0
 26 58  1  0
 26 59  1  0
 26 60  1  0
 29 61  1  0
 29 62  1  0
 30 63  1  0
 31 64  1  0
M  END
>  <score>  (9) 
-6.602

$$$$
