=
     RDKit          3D

 21 21  0  0  0  0  0  0  0  0999 V2000
    2.9180   68.5640   64.0020 N   0  0  0  0  0  0  0  0  0  0  0  0
    3.5550   69.1290   65.0980 C   0  0  0  0  0  0  0  0  0  0  0  0
    2.9670   69.2020   66.4620 C   0  0  0  0  0  0  0  0  0  0  0  0
    4.7480   69.5830   64.7690 N   0  0  0  0  0  0  0  0  0  0  0  0
    4.9070   69.3080   63.4370 C   0  0  0  0  0  0  0  0  0  0  0  0
    3.7850   68.6920   62.9440 C   0  0  0  0  0  0  0  0  0  0  0  0
    3.5540   68.2630   61.6100 N   0  0  0  0  0  4  0  0  0  0  0  0
    2.9400   69.0280   60.8590 O   0  0  0  0  0  0  0  0  0  0  0  0
    4.0060   67.1560   61.3000 O   0  0  0  0  0  1  0  0  0  0  0  0
    1.6170   67.9260   64.0440 C   0  0  0  0  0  0  0  0  0  0  0  0
    0.5080   68.7890   63.4530 C   0  0  0  0  0  0  0  0  0  0  0  0
    0.2080   68.3700   62.1260 O   0  0  0  0  0  0  0  0  0  0  0  0
    3.7660   69.1028   67.2115 H   0  0  0  0  0  0  0  0  0  0  0  0
    2.4607   70.1699   66.5917 H   0  0  0  0  0  0  0  0  0  0  0  0
    2.2394   68.3873   66.5917 H   0  0  0  0  0  0  0  0  0  0  0  0
    5.8046   69.5466   62.8477 H   0  0  0  0  0  0  0  0  0  0  0  0
    1.6697   66.9859   63.4753 H   0  0  0  0  0  0  0  0  0  0  0  0
    1.3701   67.7542   65.1021 H   0  0  0  0  0  0  0  0  0  0  0  0
   -0.3943   68.6961   64.0753 H   0  0  0  0  0  0  0  0  0  0  0  0
    0.8444   69.8360   63.4295 H   0  0  0  0  0  0  0  0  0  0  0  0
   -0.3681   67.5654   62.1563 H   0  0  0  0  0  0  0  0  0  0  0  0
  2  1  1  0
  3  2  1  0
  4  2  2  0
  5  4  1  0
  6  5  2  0
  6  1  1  0
  7  6  1  0
  8  7  2  0
  9  7  1  0
 10  1  1  0
 11 10  1  0
 12 11  1  0
  3 13  1  0
  3 14  1  0
  3 15  1  0
  5 16  1  0
 10 17  1  0
 10 18  1  0
 11 19  1  0
 11 20  1  0
 12 21  1  0
M  CHG  2   7   1   9  -1
M  END
>  <score>  (1) 
-5.616

$$$$
=
     RDKit          3D

 21 21  0  0  0  0  0  0  0  0999 V2000
    1.6960   68.4910   64.7780 N   0  0  0  0  0  0  0  0  0  0  0  0
    2.9900   68.9410   64.9970 C   0  0  0  0  0  0  0  0  0  0  0  0
    4.0140   69.0980   63.9290 C   0  0  0  0  0  0  0  0  0  0  0  0
    3.1850   69.2170   66.2710 N   0  0  0  0  0  0  0  0  0  0  0  0
    2.0000   68.9520   66.9050 C   0  0  0  0  0  0  0  0  0  0  0  0
    1.0750   68.4920   66.0030 C   0  0  0  0  0  0  0  0  0  0  0  0
   -0.2630   68.0950   66.2690 N   0  0  0  0  0  4  0  0  0  0  0  0
   -1.1390   68.9650   66.2260 O   0  0  0  0  0  0  0  0  0  0  0  0
   -0.4460   66.8970   66.5070 O   0  0  0  0  0  1  0  0  0  0  0  0
    1.1490   68.1580   63.4780 C   0  0  0  0  0  0  0  0  0  0  0  0
    0.1910   69.2160   62.9420 C   0  0  0  0  0  0  0  0  0  0  0  0
   -1.1580   68.8200   63.1630 O   0  0  0  0  0  0  0  0  0  0  0  0
    5.0022   69.2495   64.3879 H   0  0  0  0  0  0  0  0  0  0  0  0
    4.0346   68.1925   63.3048 H   0  0  0  0  0  0  0  0  0  0  0  0
    3.7623   69.9681   63.3048 H   0  0  0  0  0  0  0  0  0  0  0  0
    1.8170   69.0883   67.9811 H   0  0  0  0  0  0  0  0  0  0  0  0
    1.9806   68.0465   62.7667 H   0  0  0  0  0  0  0  0  0  0  0  0
    0.5764   67.2258   63.5927 H   0  0  0  0  0  0  0  0  0  0  0  0
    0.3782   70.1694   63.4578 H   0  0  0  0  0  0  0  0  0  0  0  0
    0.3565   69.3329   61.8608 H   0  0  0  0  0  0  0  0  0  0  0  0
   -1.3317   68.7690   64.1363 H   0  0  0  0  0  0  0  0  0  0  0  0
  2  1  1  0
  3  2  1  0
  4  2  2  0
  5  4  1  0
  6  5  2  0
  6  1  1  0
  7  6  1  0
  8  7  2  0
  9  7  1  0
 10  1  1  0
 11 10  1  0
 12 11  1  0
  3 13  1  0
  3 14  1  0
  3 15  1  0
  5 16  1  0
 10 17  1  0
 10 18  1  0
 11 19  1  0
 11 20  1  0
 12 21  1  0
M  CHG  2   7   1   9  -1
M  END
>  <score>  (2) 
-5.533

$$$$
=
     RDKit          3D

 21 21  0  0  0  0  0  0  0  0999 V2000
    3.2760   68.3990   63.9550 N   0  0  0  0  0  0  0  0  0  0  0  0
    4.3140   69.1750   64.4510 C   0  0  0  0  0  0  0  0  0  0  0  0
    5.5440   69.5170   63.6880 C   0  0  0  0  0  0  0  0  0  0  0  0
    4.0600   69.5710   65.6830 N   0  0  0  0  0  0  0  0  0  0  0  0
    2.8320   69.0560   66.0040 C   0  0  0  0  0  0  0  0  0  0  0  0
    2.3400   68.3210   64.9560 C   0  0  0  0  0  0  0  0  0  0  0  0
    1.1070   67.6170   64.9030 N   0  0  0  0  0  4  0  0  0  0  0  0
    0.0970   68.2510   64.5830 O   0  0  0  0  0  0  0  0  0  0  0  0
    1.1490   66.4110   65.1660 O   0  0  0  0  0  1  0  0  0  0  0  0
    3.2240   67.8570   62.6110 C   0  0  0  0  0  0  0  0  0  0  0  0
    2.5620   68.7980   61.6110 C   0  0  0  0  0  0  0  0  0  0  0  0
    3.3840   68.9530   60.4590 O   0  0  0  0  0  0  0  0  0  0  0  0
    6.3598   69.7438   64.3901 H   0  0  0  0  0  0  0  0  0  0  0  0
    5.8315   68.6647   63.0548 H   0  0  0  0  0  0  0  0  0  0  0  0
    5.3503   70.3954   63.0548 H   0  0  0  0  0  0  0  0  0  0  0  0
    2.3156   69.2097   66.9630 H   0  0  0  0  0  0  0  0  0  0  0  0
    4.2519   67.6560   62.2748 H   0  0  0  0  0  0  0  0  0  0  0  0
    2.6165   66.9408   62.6505 H   0  0  0  0  0  0  0  0  0  0  0  0
    1.5897   68.3813   61.3095 H   0  0  0  0  0  0  0  0  0  0  0  0
    2.4205   69.7808   62.0843 H   0  0  0  0  0  0  0  0  0  0  0  0
    4.3167   69.1289   60.7404 H   0  0  0  0  0  0  0  0  0  0  0  0
  2  1  1  0
  3  2  1  0
  4  2  2  0
  5  4  1  0
  6  5  2  0
  6  1  1  0
  7  6  1  0
  8  7  2  0
  9  7  1  0
 10  1  1  0
 11 10  1  0
 12 11  1  0
  3 13  1  0
  3 14  1  0
  3 15  1  0
  5 16  1  0
 10 17  1  0
 10 18  1  0
 11 19  1  0
 11 20  1  0
 12 21  1  0
M  CHG  2   7   1   9  -1
M  END
>  <score>  (3) 
-5.47

$$$$
=
     RDKit          3D

 21 21  0  0  0  0  0  0  0  0999 V2000
    3.9100   67.6070   64.7230 N   0  0  0  0  0  0  0  0  0  0  0  0
    2.8870   67.9060   65.6110 C   0  0  0  0  0  0  0  0  0  0  0  0
    2.8500   69.1220   66.4680 C   0  0  0  0  0  0  0  0  0  0  0  0
    1.9530   66.9760   65.5870 N   0  0  0  0  0  0  0  0  0  0  0  0
    2.3600   66.0500   64.6640 C   0  0  0  0  0  0  0  0  0  0  0  0
    3.5700   66.4150   64.1300 C   0  0  0  0  0  0  0  0  0  0  0  0
    4.3280   65.7130   63.1560 N   0  0  0  0  0  4  0  0  0  0  0  0
    4.9990   64.7490   63.5370 O   0  0  0  0  0  0  0  0  0  0  0  0
    4.2410   66.1180   61.9920 O   0  0  0  0  0  1  0  0  0  0  0  0
    5.0570   68.4570   64.4720 C   0  0  0  0  0  0  0  0  0  0  0  0
    4.9780   69.1900   63.1370 C   0  0  0  0  0  0  0  0  0  0  0  0
    5.8850   68.6170   62.2020 O   0  0  0  0  0  0  0  0  0  0  0  0
    2.8590   68.8246   67.5270 H   0  0  0  0  0  0  0  0  0  0  0  0
    3.7295   69.7474   66.2552 H   0  0  0  0  0  0  0  0  0  0  0  0
    1.9341   69.6928   66.2552 H   0  0  0  0  0  0  0  0  0  0  0  0
    1.7983   65.1447   64.3903 H   0  0  0  0  0  0  0  0  0  0  0  0
    5.1228   69.2031   65.2776 H   0  0  0  0  0  0  0  0  0  0  0  0
    5.9447   67.8082   64.4378 H   0  0  0  0  0  0  0  0  0  0  0  0
    3.9542   69.1142   62.7419 H   0  0  0  0  0  0  0  0  0  0  0  0
    5.2458   70.2454   63.2930 H   0  0  0  0  0  0  0  0  0  0  0  0
    6.6138   68.1566   62.6888 H   0  0  0  0  0  0  0  0  0  0  0  0
  2  1  1  0
  3  2  1  0
  4  2  2  0
  5  4  1  0
  6  5  2  0
  6  1  1  0
  7  6  1  0
  8  7  2  0
  9  7  1  0
 10  1  1  0
 11 10  1  0
 12 11  1  0
  3 13  1  0
  3 14  1  0
  3 15  1  0
  5 16  1  0
 10 17  1  0
 10 18  1  0
 11 19  1  0
 11 20  1  0
 12 21  1  0
M  CHG  2   7   1   9  -1
M  END
>  <score>  (4) 
-5.46

$$$$
=
     RDKit          3D

 21 21  0  0  0  0  0  0  0  0999 V2000
    2.6520   68.9970   66.4620 N   0  0  0  0  0  0  0  0  0  0  0  0
    3.7890   69.3380   65.7450 C   0  0  0  0  0  0  0  0  0  0  0  0
    5.0300   69.8900   66.3520 C   0  0  0  0  0  0  0  0  0  0  0  0
    3.6250   69.1000   64.4580 N   0  0  0  0  0  0  0  0  0  0  0  0
    2.3620   68.5880   64.3230 C   0  0  0  0  0  0  0  0  0  0  0  0
    1.7430   68.5290   65.5450 C   0  0  0  0  0  0  0  0  0  0  0  0
    0.4260   68.0730   65.8230 N   0  0  0  0  0  4  0  0  0  0  0  0
    0.2640   66.8610   66.0000 O   0  0  0  0  0  0  0  0  0  0  0  0
   -0.4550   68.9360   65.8820 O   0  0  0  0  0  1  0  0  0  0  0  0
    2.5310   69.0850   67.9040 C   0  0  0  0  0  0  0  0  0  0  0  0
    2.0060   70.4360   68.3800 C   0  0  0  0  0  0  0  0  0  0  0  0
    0.5850   70.4670   68.3080 O   0  0  0  0  0  0  0  0  0  0  0  0
    4.9492   69.8541   67.4484 H   0  0  0  0  0  0  0  0  0  0  0  0
    5.8942   69.2914   66.0282 H   0  0  0  0  0  0  0  0  0  0  0  0
    5.1642   70.9327   66.0282 H   0  0  0  0  0  0  0  0  0  0  0  0
    1.9097   68.2702   63.3720 H   0  0  0  0  0  0  0  0  0  0  0  0
    1.8395   68.3008   68.2456 H   0  0  0  0  0  0  0  0  0  0  0  0
    3.5390   68.9582   68.3257 H   0  0  0  0  0  0  0  0  0  0  0  0
    2.3203   70.6010   69.4212 H   0  0  0  0  0  0  0  0  0  0  0  0
    2.4143   71.2266   67.7333 H   0  0  0  0  0  0  0  0  0  0  0  0
    0.2083   70.4752   69.2235 H   0  0  0  0  0  0  0  0  0  0  0  0
  2  1  1  0
  3  2  1  0
  4  2  2  0
  5  4  1  0
  6  5  2  0
  6  1  1  0
  7  6  1  0
  8  7  2  0
  9  7  1  0
 10  1  1  0
 11 10  1  0
 12 11  1  0
  3 13  1  0
  3 14  1  0
  3 15  1  0
  5 16  1  0
 10 17  1  0
 10 18  1  0
 11 19  1  0
 11 20  1  0
 12 21  1  0
M  CHG  2   7   1   9  -1
M  END
>  <score>  (5) 
-5.431

$$$$
=
     RDKit          3D

 21 21  0  0  0  0  0  0  0  0999 V2000
    2.6390   68.7550   63.6620 N   0  0  0  0  0  0  0  0  0  0  0  0
    3.9630   68.7450   63.2460 C   0  0  0  0  0  0  0  0  0  0  0  0
    5.1310   68.6900   64.1660 C   0  0  0  0  0  0  0  0  0  0  0  0
    4.0450   68.7820   61.9310 N   0  0  0  0  0  0  0  0  0  0  0  0
    2.7560   68.8100   61.4690 C   0  0  0  0  0  0  0  0  0  0  0  0
    1.8770   68.8070   62.5210 C   0  0  0  0  0  0  0  0  0  0  0  0
    0.4580   68.8460   62.4580 N   0  0  0  0  0  4  0  0  0  0  0  0
   -0.0770   69.9380   62.2420 O   0  0  0  0  0  0  0  0  0  0  0  0
   -0.1300   67.7700   62.6090 O   0  0  0  0  0  1  0  0  0  0  0  0
    2.2110   68.6660   65.0440 C   0  0  0  0  0  0  0  0  0  0  0  0
    2.1350   67.2320   65.5560 C   0  0  0  0  0  0  0  0  0  0  0  0
    0.8270   66.7050   65.3620 O   0  0  0  0  0  0  0  0  0  0  0  0
    4.7783   68.7066   65.2078 H   0  0  0  0  0  0  0  0  0  0  0  0
    5.6969   67.7642   63.9852 H   0  0  0  0  0  0  0  0  0  0  0  0
    5.7814   69.5585   63.9852 H   0  0  0  0  0  0  0  0  0  0  0  0
    2.4678   68.8317   60.4076 H   0  0  0  0  0  0  0  0  0  0  0  0
    2.9252   69.2231   65.6681 H   0  0  0  0  0  0  0  0  0  0  0  0
    1.1970   69.0885   65.1009 H   0  0  0  0  0  0  0  0  0  0  0  0
    2.8604   66.6125   65.0082 H   0  0  0  0  0  0  0  0  0  0  0  0
    2.3673   67.2240   66.6312 H   0  0  0  0  0  0  0  0  0  0  0  0
    0.4058   66.5353   66.2417 H   0  0  0  0  0  0  0  0  0  0  0  0
  2  1  1  0
  3  2  1  0
  4  2  2  0
  5  4  1  0
  6  5  2  0
  6  1  1  0
  7  6  1  0
  8  7  2  0
  9  7  1  0
 10  1  1  0
 11 10  1  0
 12 11  1  0
  3 13  1  0
  3 14  1  0
  3 15  1  0
  5 16  1  0
 10 17  1  0
 10 18  1  0
 11 19  1  0
 11 20  1  0
 12 21  1  0
M  CHG  2   7   1   9  -1
M  END
>  <score>  (6) 
-5.224

$$$$
=
     RDKit          3D

 21 21  0  0  0  0  0  0  0  0999 V2000
    1.8950   69.1290   66.7960 N   0  0  0  0  0  0  0  0  0  0  0  0
    3.0590   69.6110   67.3780 C   0  0  0  0  0  0  0  0  0  0  0  0
    3.1550   70.1020   68.7790 C   0  0  0  0  0  0  0  0  0  0  0  0
    4.0650   69.5690   66.5270 N   0  0  0  0  0  0  0  0  0  0  0  0
    3.5620   69.0450   65.3670 C   0  0  0  0  0  0  0  0  0  0  0  0
    2.2240   68.7790   65.5100 C   0  0  0  0  0  0  0  0  0  0  0  0
    1.3420   68.2450   64.5320 N   0  0  0  0  0  4  0  0  0  0  0  0
    0.8690   69.0240   63.6990 O   0  0  0  0  0  0  0  0  0  0  0  0
    1.1330   67.0290   64.5840 O   0  0  0  0  0  1  0  0  0  0  0  0
    0.6270   68.9910   67.4850 C   0  0  0  0  0  0  0  0  0  0  0  0
    0.4010   67.5930   68.0500 C   0  0  0  0  0  0  0  0  0  0  0  0
   -0.3870   66.8180   67.1520 O   0  0  0  0  0  0  0  0  0  0  0  0
    2.9912   69.2645   69.4731 H   0  0  0  0  0  0  0  0  0  0  0  0
    4.1538   70.5299   68.9499 H   0  0  0  0  0  0  0  0  0  0  0  0
    2.3909   70.8746   68.9499 H   0  0  0  0  0  0  0  0  0  0  0  0
    4.1460   68.8635   64.4527 H   0  0  0  0  0  0  0  0  0  0  0  0
    0.5995   69.7124   68.3149 H   0  0  0  0  0  0  0  0  0  0  0  0
   -0.1681   69.1790   66.7485 H   0  0  0  0  0  0  0  0  0  0  0  0
    1.3731   67.0999   68.1978 H   0  0  0  0  0  0  0  0  0  0  0  0
   -0.1292   67.6767   69.0101 H   0  0  0  0  0  0  0  0  0  0  0  0
   -0.9892   66.2257   67.6683 H   0  0  0  0  0  0  0  0  0  0  0  0
  2  1  1  0
  3  2  1  0
  4  2  2  0
  5  4  1  0
  6  5  2  0
  6  1  1  0
  7  6  1  0
  8  7  2  0
  9  7  1  0
 10  1  1  0
 11 10  1  0
 12 11  1  0
  3 13  1  0
  3 14  1  0
  3 15  1  0
  5 16  1  0
 10 17  1  0
 10 18  1  0
 11 19  1  0
 11 20  1  0
 12 21  1  0
M  CHG  2   7   1   9  -1
M  END
>  <score>  (7) 
-5.207

$$$$
=
     RDKit          3D

 21 21  0  0  0  0  0  0  0  0999 V2000
    2.5570   68.1240   63.4680 N   0  0  0  0  0  0  0  0  0  0  0  0
    2.3360   68.6370   62.1980 C   0  0  0  0  0  0  0  0  0  0  0  0
    3.3740   68.7260   61.1370 C   0  0  0  0  0  0  0  0  0  0  0  0
    1.0840   69.0270   62.0570 N   0  0  0  0  0  0  0  0  0  0  0  0
    0.4660   68.7620   63.2500 C   0  0  0  0  0  0  0  0  0  0  0  0
    1.3600   68.2170   64.1350 C   0  0  0  0  0  0  0  0  0  0  0  0
    1.1120   67.8200   65.4760 N   0  0  0  0  0  4  0  0  0  0  0  0
    0.6780   66.6790   65.6670 O   0  0  0  0  0  0  0  0  0  0  0  0
    1.3690   68.6510   66.3540 O   0  0  0  0  0  1  0  0  0  0  0  0
    3.8140   67.5610   63.9200 C   0  0  0  0  0  0  0  0  0  0  0  0
    3.8530   66.0390   63.8340 C   0  0  0  0  0  0  0  0  0  0  0  0
    4.2640   65.6280   62.5350 O   0  0  0  0  0  0  0  0  0  0  0  0
    4.3672   68.8112   61.6020 H   0  0  0  0  0  0  0  0  0  0  0  0
    3.3380   67.8215   60.5121 H   0  0  0  0  0  0  0  0  0  0  0  0
    3.1846   69.6112   60.5121 H   0  0  0  0  0  0  0  0  0  0  0  0
   -0.5944   68.9581   63.4668 H   0  0  0  0  0  0  0  0  0  0  0  0
    4.6240   67.9677   63.2968 H   0  0  0  0  0  0  0  0  0  0  0  0
    3.9332   67.8329   64.9792 H   0  0  0  0  0  0  0  0  0  0  0  0
    4.5636   65.6516   64.5789 H   0  0  0  0  0  0  0  0  0  0  0  0
    2.8459   65.6435   64.0325 H   0  0  0  0  0  0  0  0  0  0  0  0
    4.9617   64.9303   62.6150 H   0  0  0  0  0  0  0  0  0  0  0  0
  2  1  1  0
  3  2  1  0
  4  2  2  0
  5  4  1  0
  6  5  2  0
  6  1  1  0
  7  6  1  0
  8  7  2  0
  9  7  1  0
 10  1  1  0
 11 10  1  0
 12 11  1  0
  3 13  1  0
  3 14  1  0
  3 15  1  0
  5 16  1  0
 10 17  1  0
 10 18  1  0
 11 19  1  0
 11 20  1  0
 12 21  1  0
M  CHG  2   7   1   9  -1
M  END
>  <score>  (8) 
-5.085

$$$$
=
     RDKit          3D

 21 21  0  0  0  0  0  0  0  0999 V2000
    2.3280   61.5820   71.1150 N   0  0  0  0  0  0  0  0  0  0  0  0
    1.6110   62.6980   70.7070 C   0  0  0  0  0  0  0  0  0  0  0  0
    0.5400   63.3460   71.5110 C   0  0  0  0  0  0  0  0  0  0  0  0
    2.0110   63.1090   69.5200 N   0  0  0  0  0  0  0  0  0  0  0  0
    3.0130   62.2560   69.1390 C   0  0  0  0  0  0  0  0  0  0  0  0
    3.2130   61.3020   70.1030 C   0  0  0  0  0  0  0  0  0  0  0  0
    4.1490   60.2320   70.0760 N   0  0  0  0  0  4  0  0  0  0  0  0
    3.8060   59.1840   69.5200 O   0  0  0  0  0  0  0  0  0  0  0  0
    5.2460   60.4470   70.6010 O   0  0  0  0  0  1  0  0  0  0  0  0
    2.1660   60.9230   72.3960 C   0  0  0  0  0  0  0  0  0  0  0  0
    3.0230   61.5380   73.4980 C   0  0  0  0  0  0  0  0  0  0  0  0
    4.3990   61.2560   73.2700 O   0  0  0  0  0  0  0  0  0  0  0  0
    0.7556   63.2156   72.5818 H   0  0  0  0  0  0  0  0  0  0  0  0
    0.5012   64.4192   71.2729 H   0  0  0  0  0  0  0  0  0  0  0  0
   -0.4287   62.8823   71.2729 H   0  0  0  0  0  0  0  0  0  0  0  0
    3.5755   62.3264   68.1963 H   0  0  0  0  0  0  0  0  0  0  0  0
    1.1095   60.9924   72.6943 H   0  0  0  0  0  0  0  0  0  0  0  0
    2.4911   59.8795   72.2715 H   0  0  0  0  0  0  0  0  0  0  0  0
    2.8730   62.6277   73.5087 H   0  0  0  0  0  0  0  0  0  0  0  0
    2.7252   61.1067   74.4651 H   0  0  0  0  0  0  0  0  0  0  0  0
    4.8646   61.1606   74.1384 H   0  0  0  0  0  0  0  0  0  0  0  0
  2  1  1  0
  3  2  1  0
  4  2  2  0
  5  4  1  0
  6  5  2  0
  6  1  1  0
  7  6  1  0
  8  7  2  0
  9  7  1  0
 10  1  1  0
 11 10  1  0
 12 11  1  0
  3 13  1  0
  3 14  1  0
  3 15  1  0
  5 16  1  0
 10 17  1  0
 10 18  1  0
 11 19  1  0
 11 20  1  0
 12 21  1  0
M  CHG  2   7   1   9  -1
M  END
>  <score>  (9) 
-4.934

$$$$
