=
     RDKit          3D

 20 20  0  0  0  0  0  0  0  0999 V2000
    5.2400   69.7900   66.6200 C   0  0  0  0  0  0  0  0  0  0  0  0
    3.8980   69.5280   66.9090 C   0  0  0  0  0  0  0  0  0  0  0  0
    2.9970   69.2220   65.8840 C   0  0  0  0  0  0  0  0  0  0  0  0
    3.4300   69.1750   64.5620 C   0  0  0  0  0  0  0  0  0  0  0  0
    4.7620   69.4350   64.2720 C   0  0  0  0  0  0  0  0  0  0  0  0
    5.6690   69.7410   65.2860 C   0  0  0  0  0  0  0  0  0  0  0  0
    7.5540   71.2800   69.2030 C   0  0  0  0  0  0  0  0  0  0  0  0
    6.4280   71.3320   68.2010 C   0  0  0  0  0  0  0  0  0  0  0  0
    5.8060   72.3710   68.0120 O   0  0  0  0  0  0  0  0  0  0  0  0
    6.2080   70.1060   67.5980 N   0  0  0  0  0  0  0  0  0  0  0  0
    5.1460   69.3800   62.9640 O   0  0  0  0  0  0  0  0  0  0  0  0
    3.5475   69.5627   67.9511 H   0  0  0  0  0  0  0  0  0  0  0  0
    1.9429   69.0178   66.1233 H   0  0  0  0  0  0  0  0  0  0  0  0
    2.7229   68.9340   63.7546 H   0  0  0  0  0  0  0  0  0  0  0  0
    6.7216   69.9440   65.0392 H   0  0  0  0  0  0  0  0  0  0  0  0
    7.1395   71.2991   70.2217 H   0  0  0  0  0  0  0  0  0  0  0  0
    8.1305   70.3543   69.0590 H   0  0  0  0  0  0  0  0  0  0  0  0
    8.2133   72.1487   69.0590 H   0  0  0  0  0  0  0  0  0  0  0  0
    6.8215   69.3347   67.8973 H   0  0  0  0  0  0  0  0  0  0  0  0
    6.0877   69.5593   62.7166 H   0  0  0  0  0  0  0  0  0  0  0  0
  2  1  2  0
  3  2  1  0
  4  3  2  0
  5  4  1  0
  6  5  2  0
  6  1  1  0
  8  7  1  0
  9  8  2  0
 10  1  1  0
 10  8  1  0
 11  5  1  0
  2 12  1  0
  3 13  1  0
  4 14  1  0
  6 15  1  0
  7 16  1  0
  7 17  1  0
  7 18  1  0
 10 19  1  0
 11 20  1  0
M  END
>  <score>  (1) 
-7.092

$$$$
=
     RDKit          3D

 20 20  0  0  0  0  0  0  0  0999 V2000
    5.2370   69.7940   66.6480 C   0  0  0  0  0  0  0  0  0  0  0  0
    5.5040   69.6950   65.2800 C   0  0  0  0  0  0  0  0  0  0  0  0
    4.4840   69.3730   64.3780 C   0  0  0  0  0  0  0  0  0  0  0  0
    3.1900   69.1460   64.8380 C   0  0  0  0  0  0  0  0  0  0  0  0
    2.9220   69.2430   66.1960 C   0  0  0  0  0  0  0  0  0  0  0  0
    3.9310   69.5630   67.1030 C   0  0  0  0  0  0  0  0  0  0  0  0
    7.5710   71.2910   69.2090 C   0  0  0  0  0  0  0  0  0  0  0  0
    6.4400   71.3410   68.2130 C   0  0  0  0  0  0  0  0  0  0  0  0
    5.8200   72.3810   68.0210 O   0  0  0  0  0  0  0  0  0  0  0  0
    6.2120   70.1130   67.6180 N   0  0  0  0  0  0  0  0  0  0  0  0
    1.6410   69.0130   66.6050 O   0  0  0  0  0  0  0  0  0  0  0  0
    6.5244   69.8717   64.9092 H   0  0  0  0  0  0  0  0  0  0  0  0
    4.7052   69.2991   63.3030 H   0  0  0  0  0  0  0  0  0  0  0  0
    2.3866   68.8919   64.1309 H   0  0  0  0  0  0  0  0  0  0  0  0
    3.7024   69.6344   68.1766 H   0  0  0  0  0  0  0  0  0  0  0  0
    7.1617   71.3091   70.2298 H   0  0  0  0  0  0  0  0  0  0  0  0
    8.1485   70.3664   69.0619 H   0  0  0  0  0  0  0  0  0  0  0  0
    8.2279   72.1610   69.0619 H   0  0  0  0  0  0  0  0  0  0  0  0
    6.8251   69.3415   67.9176 H   0  0  0  0  0  0  0  0  0  0  0  0
    1.4099   69.0727   67.5658 H   0  0  0  0  0  0  0  0  0  0  0  0
  2  1  2  0
  3  2  1  0
  4  3  2  0
  5  4  1  0
  6  5  2  0
  6  1  1  0
  8  7  1  0
  9  8  2  0
 10  1  1  0
 10  8  1  0
 11  5  1  0
  2 12  1  0
  3 13  1  0
  4 14  1  0
  6 15  1  0
  7 16  1  0
  7 17  1  0
  7 18  1  0
 10 19  1  0
 11 20  1  0
M  END
>  <score>  (2) 
-7.09

$$$$
=
     RDKit          3D

 20 20  0  0  0  0  0  0  0  0999 V2000
    5.5650   70.0610   66.3360 C   0  0  0  0  0  0  0  0  0  0  0  0
    4.3460   69.8570   66.9880 C   0  0  0  0  0  0  0  0  0  0  0  0
    4.1840   70.2300   68.3260 C   0  0  0  0  0  0  0  0  0  0  0  0
    5.2400   70.8100   69.0230 C   0  0  0  0  0  0  0  0  0  0  0  0
    6.4520   71.0140   68.3780 C   0  0  0  0  0  0  0  0  0  0  0  0
    6.6240   70.6460   67.0450 C   0  0  0  0  0  0  0  0  0  0  0  0
    5.5150   69.0330   62.7050 C   0  0  0  0  0  0  0  0  0  0  0  0
    4.8760   69.3280   64.0390 C   0  0  0  0  0  0  0  0  0  0  0  0
    3.6620   69.2410   64.1840 O   0  0  0  0  0  0  0  0  0  0  0  0
    5.8050   69.7110   64.9890 N   0  0  0  0  0  0  0  0  0  0  0  0
    7.4610   71.5850   69.0970 O   0  0  0  0  0  0  0  0  0  0  0  0
    3.5067   69.3991   66.4441 H   0  0  0  0  0  0  0  0  0  0  0  0
    3.2197   70.0646   68.8288 H   0  0  0  0  0  0  0  0  0  0  0  0
    5.1152   71.1041   70.0756 H   0  0  0  0  0  0  0  0  0  0  0  0
    7.5911   70.8145   66.5486 H   0  0  0  0  0  0  0  0  0  0  0  0
    6.5031   68.5768   62.8646 H   0  0  0  0  0  0  0  0  0  0  0  0
    4.8775   68.3381   62.1387 H   0  0  0  0  0  0  0  0  0  0  0  0
    5.6304   69.9690   62.1387 H   0  0  0  0  0  0  0  0  0  0  0  0
    6.7863   69.7450   64.6780 H   0  0  0  0  0  0  0  0  0  0  0  0
    8.3407   71.7471   68.6729 H   0  0  0  0  0  0  0  0  0  0  0  0
  2  1  2  0
  3  2  1  0
  4  3  2  0
  5  4  1  0
  6  5  2  0
  6  1  1  0
  8  7  1  0
  9  8  2  0
 10  1  1  0
 10  8  1  0
 11  5  1  0
  2 12  1  0
  3 13  1  0
  4 14  1  0
  6 15  1  0
  7 16  1  0
  7 17  1  0
  7 18  1  0
 10 19  1  0
 11 20  1  0
M  END
>  <score>  (3) 
-6.631

$$$$
=
     RDKit          3D

 20 20  0  0  0  0  0  0  0  0999 V2000
    4.2710   69.6050   66.2000 C   0  0  0  0  0  0  0  0  0  0  0  0
    5.6140   69.9540   66.3560 C   0  0  0  0  0  0  0  0  0  0  0  0
    6.0800   70.4630   67.5730 C   0  0  0  0  0  0  0  0  0  0  0  0
    5.2050   70.6270   68.6440 C   0  0  0  0  0  0  0  0  0  0  0  0
    3.8700   70.2800   68.4910 C   0  0  0  0  0  0  0  0  0  0  0  0
    3.3950   69.7720   67.2830 C   0  0  0  0  0  0  0  0  0  0  0  0
    3.3950   68.4750   62.7070 C   0  0  0  0  0  0  0  0  0  0  0  0
    4.2730   69.1450   63.7340 C   0  0  0  0  0  0  0  0  0  0  0  0
    5.3460   69.6410   63.4130 O   0  0  0  0  0  0  0  0  0  0  0  0
    3.7270   69.0860   65.0040 N   0  0  0  0  0  0  0  0  0  0  0  0
    3.0450   70.4560   69.5640 O   0  0  0  0  0  0  0  0  0  0  0  0
    6.3115   69.8277   65.5149 H   0  0  0  0  0  0  0  0  0  0  0  0
    7.1402   70.7344   67.6842 H   0  0  0  0  0  0  0  0  0  0  0  0
    5.5685   71.0276   69.6018 H   0  0  0  0  0  0  0  0  0  0  0  0
    2.3337   69.5022   67.1789 H   0  0  0  0  0  0  0  0  0  0  0  0
    2.6201   67.8837   63.2168 H   0  0  0  0  0  0  0  0  0  0  0  0
    2.9174   69.2403   62.0776 H   0  0  0  0  0  0  0  0  0  0  0  0
    4.0071   67.8123   62.0776 H   0  0  0  0  0  0  0  0  0  0  0  0
    2.8183   68.6082   65.0870 H   0  0  0  0  0  0  0  0  0  0  0  0
    2.0859   70.2204   69.4949 H   0  0  0  0  0  0  0  0  0  0  0  0
  2  1  2  0
  3  2  1  0
  4  3  2  0
  5  4  1  0
  6  5  2  0
  6  1  1  0
  8  7  1  0
  9  8  2  0
 10  1  1  0
 10  8  1  0
 11  5  1  0
  2 12  1  0
  3 13  1  0
  4 14  1  0
  6 15  1  0
  7 16  1  0
  7 17  1  0
  7 18  1  0
 10 19  1  0
 11 20  1  0
M  END
>  <score>  (4) 
-6.612

$$$$
=
     RDKit          3D

 20 20  0  0  0  0  0  0  0  0999 V2000
    3.1590   69.3870   66.6440 C   0  0  0  0  0  0  0  0  0  0  0  0
    3.8770   69.8480   67.7500 C   0  0  0  0  0  0  0  0  0  0  0  0
    5.2210   70.2160   67.6240 C   0  0  0  0  0  0  0  0  0  0  0  0
    5.8570   70.1260   66.3890 C   0  0  0  0  0  0  0  0  0  0  0  0
    5.1470   69.6680   65.2880 C   0  0  0  0  0  0  0  0  0  0  0  0
    3.8080   69.2990   65.4030 C   0  0  0  0  0  0  0  0  0  0  0  0
   -0.2180   67.7020   66.6460 C   0  0  0  0  0  0  0  0  0  0  0  0
    1.2850   67.7250   66.5200 C   0  0  0  0  0  0  0  0  0  0  0  0
    1.9120   66.6930   66.3140 O   0  0  0  0  0  0  0  0  0  0  0  0
    1.8030   68.9970   66.6920 N   0  0  0  0  0  0  0  0  0  0  0  0
    5.8080   69.5950   64.0960 O   0  0  0  0  0  0  0  0  0  0  0  0
    3.3812   69.9224   68.7291 H   0  0  0  0  0  0  0  0  0  0  0  0
    5.7760   70.5771   68.5024 H   0  0  0  0  0  0  0  0  0  0  0  0
    6.9133   70.4154   66.2866 H   0  0  0  0  0  0  0  0  0  0  0  0
    3.2595   68.9385   64.5203 H   0  0  0  0  0  0  0  0  0  0  0  0
   -0.4967   67.6977   67.7101 H   0  0  0  0  0  0  0  0  0  0  0  0
   -0.6404   68.5938   66.1599 H   0  0  0  0  0  0  0  0  0  0  0  0
   -0.6129   66.7977   66.1599 H   0  0  0  0  0  0  0  0  0  0  0  0
    1.1201   69.7457   66.8764 H   0  0  0  0  0  0  0  0  0  0  0  0
    5.3362   69.2733   63.2873 H   0  0  0  0  0  0  0  0  0  0  0  0
  2  1  2  0
  3  2  1  0
  4  3  2  0
  5  4  1  0
  6  5  2  0
  6  1  1  0
  8  7  1  0
  9  8  2  0
 10  1  1  0
 10  8  1  0
 11  5  1  0
  2 12  1  0
  3 13  1  0
  4 14  1  0
  6 15  1  0
  7 16  1  0
  7 17  1  0
  7 18  1  0
 10 19  1  0
 11 20  1  0
M  END
>  <score>  (5) 
-6.515

$$$$
=
     RDKit          3D

 20 20  0  0  0  0  0  0  0  0999 V2000
    2.2600   69.2190   67.1210 C   0  0  0  0  0  0  0  0  0  0  0  0
    3.2890   69.1860   66.1770 C   0  0  0  0  0  0  0  0  0  0  0  0
    4.5530   69.7020   66.4830 C   0  0  0  0  0  0  0  0  0  0  0  0
    4.7980   70.2540   67.7370 C   0  0  0  0  0  0  0  0  0  0  0  0
    3.7770   70.2890   68.6770 C   0  0  0  0  0  0  0  0  0  0  0  0
    2.5140   69.7780   68.3820 C   0  0  0  0  0  0  0  0  0  0  0  0
   -1.0290   67.3770   66.9350 C   0  0  0  0  0  0  0  0  0  0  0  0
    0.3840   67.5820   67.4210 C   0  0  0  0  0  0  0  0  0  0  0  0
    0.8910   66.8020   68.2190 O   0  0  0  0  0  0  0  0  0  0  0  0
    0.9600   68.7210   66.8860 N   0  0  0  0  0  0  0  0  0  0  0  0
    4.0590   70.8390   69.8940 O   0  0  0  0  0  0  0  0  0  0  0  0
    3.1039   68.7504   65.1840 H   0  0  0  0  0  0  0  0  0  0  0  0
    5.3550   69.6714   65.7308 H   0  0  0  0  0  0  0  0  0  0  0  0
    5.7913   70.6587   67.9810 H   0  0  0  0  0  0  0  0  0  0  0  0
    1.7163   69.8132   69.1385 H   0  0  0  0  0  0  0  0  0  0  0  0
   -1.7032   67.2792   67.7986 H   0  0  0  0  0  0  0  0  0  0  0  0
   -1.3361   68.2400   66.3260 H   0  0  0  0  0  0  0  0  0  0  0  0
   -1.0782   66.4623   66.3260 H   0  0  0  0  0  0  0  0  0  0  0  0
    0.3721   69.2689   66.2417 H   0  0  0  0  0  0  0  0  0  0  0  0
    3.3581   70.8829   70.5918 H   0  0  0  0  0  0  0  0  0  0  0  0
  2  1  2  0
  3  2  1  0
  4  3  2  0
  5  4  1  0
  6  5  2  0
  6  1  1  0
  8  7  1  0
  9  8  2  0
 10  1  1  0
 10  8  1  0
 11  5  1  0
  2 12  1  0
  3 13  1  0
  4 14  1  0
  6 15  1  0
  7 16  1  0
  7 17  1  0
  7 18  1  0
 10 19  1  0
 11 20  1  0
M  END
>  <score>  (6) 
-6.411

$$$$
=
     RDKit          3D

 20 20  0  0  0  0  0  0  0  0999 V2000
    2.8260   68.9130   65.3390 C   0  0  0  0  0  0  0  0  0  0  0  0
    2.9890   68.7810   63.9580 C   0  0  0  0  0  0  0  0  0  0  0  0
    4.2230   69.0520   63.3580 C   0  0  0  0  0  0  0  0  0  0  0  0
    5.3050   69.4570   64.1350 C   0  0  0  0  0  0  0  0  0  0  0  0
    5.1460   69.5890   65.5070 C   0  0  0  0  0  0  0  0  0  0  0  0
    3.9210   69.3220   66.1150 C   0  0  0  0  0  0  0  0  0  0  0  0
   -0.3810   67.6100   66.8410 C   0  0  0  0  0  0  0  0  0  0  0  0
    0.8530   67.5050   65.9810 C   0  0  0  0  0  0  0  0  0  0  0  0
    1.1030   66.4740   65.3680 O   0  0  0  0  0  0  0  0  0  0  0  0
    1.6130   68.6600   66.0160 N   0  0  0  0  0  0  0  0  0  0  0  0
    6.2310   69.9890   66.2320 O   0  0  0  0  0  0  0  0  0  0  0  0
    2.1394   68.4611   63.3369 H   0  0  0  0  0  0  0  0  0  0  0  0
    4.3390   68.9449   62.2694 H   0  0  0  0  0  0  0  0  0  0  0  0
    6.2767   69.6703   63.6656 H   0  0  0  0  0  0  0  0  0  0  0  0
    3.8124   69.4320   67.2041 H   0  0  0  0  0  0  0  0  0  0  0  0
   -0.0917   67.5854   67.9020 H   0  0  0  0  0  0  0  0  0  0  0  0
   -0.8996   68.5555   66.6242 H   0  0  0  0  0  0  0  0  0  0  0  0
   -1.0519   66.7657   66.6242 H   0  0  0  0  0  0  0  0  0  0  0  0
    1.2522   69.4245   66.6044 H   0  0  0  0  0  0  0  0  0  0  0  0
    6.1586   70.0951   67.2136 H   0  0  0  0  0  0  0  0  0  0  0  0
  2  1  2  0
  3  2  1  0
  4  3  2  0
  5  4  1  0
  6  5  2  0
  6  1  1  0
  8  7  1  0
  9  8  2  0
 10  1  1  0
 10  8  1  0
 11  5  1  0
  2 12  1  0
  3 13  1  0
  4 14  1  0
  6 15  1  0
  7 16  1  0
  7 17  1  0
  7 18  1  0
 10 19  1  0
 11 20  1  0
M  END
>  <score>  (7) 
-6.304

$$$$
=
     RDKit          3D

 20 20  0  0  0  0  0  0  0  0999 V2000
    4.4450   69.4830   66.1030 C   0  0  0  0  0  0  0  0  0  0  0  0
    5.0350   69.4480   64.8380 C   0  0  0  0  0  0  0  0  0  0  0  0
    4.2830   69.1010   63.7110 C   0  0  0  0  0  0  0  0  0  0  0  0
    2.9330   68.7850   63.8410 C   0  0  0  0  0  0  0  0  0  0  0  0
    2.3440   68.8190   65.0970 C   0  0  0  0  0  0  0  0  0  0  0  0
    3.0850   69.1630   66.2270 C   0  0  0  0  0  0  0  0  0  0  0  0
    6.6030   70.8790   68.8680 C   0  0  0  0  0  0  0  0  0  0  0  0
    6.0860   70.8160   67.4520 C   0  0  0  0  0  0  0  0  0  0  0  0
    6.4880   71.6040   66.6040 O   0  0  0  0  0  0  0  0  0  0  0  0
    5.1380   69.8220   67.2860 N   0  0  0  0  0  0  0  0  0  0  0  0
    1.0190   68.5020   65.1820 O   0  0  0  0  0  0  0  0  0  0  0  0
    6.1010   69.6956   64.7268 H   0  0  0  0  0  0  0  0  0  0  0  0
    4.7590   69.0776   62.7196 H   0  0  0  0  0  0  0  0  0  0  0  0
    2.3392   68.5111   62.9565 H   0  0  0  0  0  0  0  0  0  0  0  0
    2.6030   69.1834   67.2156 H   0  0  0  0  0  0  0  0  0  0  0  0
    5.7625   70.7766   69.5701 H   0  0  0  0  0  0  0  0  0  0  0  0
    7.3204   70.0616   69.0331 H   0  0  0  0  0  0  0  0  0  0  0  0
    7.1031   71.8447   69.0331 H   0  0  0  0  0  0  0  0  0  0  0  0
    4.9114   69.2647   68.1220 H   0  0  0  0  0  0  0  0  0  0  0  0
    0.5624   68.5147   66.0603 H   0  0  0  0  0  0  0  0  0  0  0  0
  2  1  2  0
  3  2  1  0
  4  3  2  0
  5  4  1  0
  6  5  2  0
  6  1  1  0
  8  7  1  0
  9  8  2  0
 10  1  1  0
 10  8  1  0
 11  5  1  0
  2 12  1  0
  3 13  1  0
  4 14  1  0
  6 15  1  0
  7 16  1  0
  7 17  1  0
  7 18  1  0
 10 19  1  0
 11 20  1  0
M  END
>  <score>  (8) 
-6.216

$$$$
=
     RDKit          3D

 20 20  0  0  0  0  0  0  0  0999 V2000
    1.8970   67.5640   66.0090 C   0  0  0  0  0  0  0  0  0  0  0  0
    2.5210   68.8120   66.0740 C   0  0  0  0  0  0  0  0  0  0  0  0
    3.5980   69.1150   65.2350 C   0  0  0  0  0  0  0  0  0  0  0  0
    4.0610   68.1700   64.3230 C   0  0  0  0  0  0  0  0  0  0  0  0
    3.4430   66.9290   64.2550 C   0  0  0  0  0  0  0  0  0  0  0  0
    2.3690   66.6180   65.0870 C   0  0  0  0  0  0  0  0  0  0  0  0
   -1.3990   66.9240   67.7310 C   0  0  0  0  0  0  0  0  0  0  0  0
   -0.5250   67.5220   66.6570 C   0  0  0  0  0  0  0  0  0  0  0  0
   -1.0110   68.1980   65.7580 O   0  0  0  0  0  0  0  0  0  0  0  0
    0.8070   67.1850   66.8220 N   0  0  0  0  0  0  0  0  0  0  0  0
    3.9270   66.0320   63.3480 O   0  0  0  0  0  0  0  0  0  0  0  0
    2.1617   69.5638   66.7921 H   0  0  0  0  0  0  0  0  0  0  0  0
    4.0804   70.1017   65.2956 H   0  0  0  0  0  0  0  0  0  0  0  0
    4.9087   68.4048   63.6625 H   0  0  0  0  0  0  0  0  0  0  0  0
    1.8909   65.6296   65.0206 H   0  0  0  0  0  0  0  0  0  0  0  0
   -1.0020   67.1956   68.7202 H   0  0  0  0  0  0  0  0  0  0  0  0
   -2.4234   67.3114   67.6280 H   0  0  0  0  0  0  0  0  0  0  0  0
   -1.4090   65.8289   67.6280 H   0  0  0  0  0  0  0  0  0  0  0  0
    1.0288   66.5885   67.6319 H   0  0  0  0  0  0  0  0  0  0  0  0
    3.5134   65.1360   63.2688 H   0  0  0  0  0  0  0  0  0  0  0  0
  2  1  2  0
  3  2  1  0
  4  3  2  0
  5  4  1  0
  6  5  2  0
  6  1  1  0
  8  7  1  0
  9  8  2  0
 10  1  1  0
 10  8  1  0
 11  5  1  0
  2 12  1  0
  3 13  1  0
  4 14  1  0
  6 15  1  0
  7 16  1  0
  7 17  1  0
  7 18  1  0
 10 19  1  0
 11 20  1  0
M  END
>  <score>  (9) 
-5.882

$$$$
