=
     RDKit          3D

 34 34  0  0  0  0  0  0  0  0999 V2000
    5.1770   70.9730   68.1260 N   0  0  0  0  0  0  0  0  0  0  0  0
    5.0140   70.0730   67.0750 C   0  0  0  0  0  0  0  0  0  0  0  0
    5.9320   69.7650   66.3130 O   0  0  0  0  0  0  0  0  0  0  0  0
    3.7510   69.5320   66.9380 N   0  0  0  0  0  0  0  0  0  0  0  0
    3.4190   68.6370   65.8370 C   0  0  1  0  0  0  0  0  0  0  0  0
    1.9890   68.1150   66.0010 C   0  0  0  0  0  0  0  0  0  0  0  0
    1.5750   67.2200   64.8330 C   0  0  0  0  0  0  0  0  0  0  0  0
    1.7600   67.8920   63.4660 C   0  0  2  0  0  0  0  0  0  0  0  0
    3.1840   68.4470   63.3210 C   0  0  0  0  0  0  0  0  0  0  0  0
    3.6020   69.3410   64.4870 C   0  0  0  0  0  0  0  0  0  0  0  0
    0.7040   68.9740   63.2200 C   0  0  0  0  0  0  0  0  0  0  0  0
    4.0200   71.3170   69.0160 N   0  0  0  0  0  0  0  0  0  0  0  0
    3.6770   70.3890   69.7560 O   0  0  0  0  0  0  0  0  0  0  0  0
    6.4880   71.5610   68.3920 C   0  0  0  0  0  0  0  0  0  0  0  0
    7.0170   70.4370   70.8500 Cl  0  0  0  0  0  0  0  0  0  0  0  0
    7.4420   70.6250   69.1310 C   0  0  0  0  0  0  0  0  0  0  0  0
    3.0259   69.7668   67.6309 H   0  0  0  0  0  0  0  0  0  0  0  0
    4.1067   67.7787   65.8577 H   0  0  0  0  0  0  0  0  0  0  0  0
    1.9262   67.5353   66.9337 H   0  0  0  0  0  0  0  0  0  0  0  0
    1.3098   68.9798   66.0271 H   0  0  0  0  0  0  0  0  0  0  0  0
    2.1854   66.3053   64.8591 H   0  0  0  0  0  0  0  0  0  0  0  0
    0.5030   67.0026   64.9497 H   0  0  0  0  0  0  0  0  0  0  0  0
    1.6167   67.1244   62.6912 H   0  0  0  0  0  0  0  0  0  0  0  0
    3.8846   67.6011   63.2601 H   0  0  0  0  0  0  0  0  0  0  0  0
    3.2033   69.0651   62.4113 H   0  0  0  0  0  0  0  0  0  0  0  0
    4.6615   69.6111   64.3668 H   0  0  0  0  0  0  0  0  0  0  0  0
    2.9629   70.2362   64.4783 H   0  0  0  0  0  0  0  0  0  0  0  0
    0.3349   69.3522   64.1847 H   0  0  0  0  0  0  0  0  0  0  0  0
    1.1521   69.8007   62.6493 H   0  0  0  0  0  0  0  0  0  0  0  0
   -0.1334   68.5461   62.6493 H   0  0  0  0  0  0  0  0  0  0  0  0
    6.9467   71.8363   67.4308 H   0  0  0  0  0  0  0  0  0  0  0  0
    6.3235   72.4321   69.0432 H   0  0  0  0  0  0  0  0  0  0  0  0
    8.4610   71.0335   69.0621 H   0  0  0  0  0  0  0  0  0  0  0  0
    7.3709   69.6341   68.6587 H   0  0  0  0  0  0  0  0  0  0  0  0
  2  1  1  0
  3  2  2  0
  4  2  1  0
  5  4  1  0
  6  5  1  0
  7  6  1  0
  8  7  1  0
  9  8  1  0
 10  9  1  0
 10  5  1  0
 11  8  1  0
 12  1  1  0
 13 12  2  0
 14  1  1  0
 16 15  1  0
 16 14  1  0
  4 17  1  0
  5 18  1  6
  6 19  1  0
  6 20  1  0
  7 21  1  0
  7 22  1  0
  8 23  1  6
  9 24  1  0
  9 25  1  0
 10 26  1  0
 10 27  1  0
 11 28  1  0
 11 29  1  0
 11 30  1  0
 14 31  1  0
 14 32  1  0
 16 33  1  0
 16 34  1  0
M  END
>  <score>  (1) 
-7.14

$$$$
=
     RDKit          3D

 34 34  0  0  0  0  0  0  0  0999 V2000
    5.3500   70.7610   68.1010 N   0  0  0  0  0  0  0  0  0  0  0  0
    5.4280   70.5140   66.7320 C   0  0  0  0  0  0  0  0  0  0  0  0
    6.3110   70.9900   66.0180 O   0  0  0  0  0  0  0  0  0  0  0  0
    4.4520   69.6860   66.2150 N   0  0  0  0  0  0  0  0  0  0  0  0
    4.3670   69.4040   64.7880 C   0  0  1  0  0  0  0  0  0  0  0  0
    5.5830   68.5870   64.3420 C   0  0  0  0  0  0  0  0  0  0  0  0
    5.5050   68.2150   62.8620 C   0  0  0  0  0  0  0  0  0  0  0  0
    4.1990   67.5000   62.4910 C   0  0  2  0  0  0  0  0  0  0  0  0
    2.9830   68.3050   62.9720 C   0  0  0  0  0  0  0  0  0  0  0  0
    3.0570   68.6800   64.4500 C   0  0  0  0  0  0  0  0  0  0  0  0
    4.1700   66.0630   63.0190 C   0  0  0  0  0  0  0  0  0  0  0  0
    4.2460   70.1600   68.9180 N   0  0  0  0  0  0  0  0  0  0  0  0
    3.8580   70.8930   69.8340 O   0  0  0  0  0  0  0  0  0  0  0  0
    6.3670   71.5800   68.7580 C   0  0  0  0  0  0  0  0  0  0  0  0
    7.1210   70.3010   71.0770 Cl  0  0  0  0  0  0  0  0  0  0  0  0
    7.4900   70.7660   69.3980 C   0  0  0  0  0  0  0  0  0  0  0  0
    3.7671   69.2570   66.8536 H   0  0  0  0  0  0  0  0  0  0  0  0
    4.3686   70.3571   64.2388 H   0  0  0  0  0  0  0  0  0  0  0  0
    6.4930   69.1811   64.5123 H   0  0  0  0  0  0  0  0  0  0  0  0
    5.6030   67.6562   64.9279 H   0  0  0  0  0  0  0  0  0  0  0  0
    5.5824   69.1355   62.2648 H   0  0  0  0  0  0  0  0  0  0  0  0
    6.3313   67.5194   62.6538 H   0  0  0  0  0  0  0  0  0  0  0  0
    4.1499   67.4369   61.3939 H   0  0  0  0  0  0  0  0  0  0  0  0
    2.9191   69.2295   62.3794 H   0  0  0  0  0  0  0  0  0  0  0  0
    2.0960   67.6679   62.8402 H   0  0  0  0  0  0  0  0  0  0  0  0
    2.2118   69.3409   64.6926 H   0  0  0  0  0  0  0  0  0  0  0  0
    3.0156   67.7531   65.0410 H   0  0  0  0  0  0  0  0  0  0  0  0
    4.1703   66.0764   64.1189 H   0  0  0  0  0  0  0  0  0  0  0  0
    3.2615   65.5582   62.6587 H   0  0  0  0  0  0  0  0  0  0  0  0
    5.0574   65.5220   62.6587 H   0  0  0  0  0  0  0  0  0  0  0  0
    6.8091   72.2526   68.0083 H   0  0  0  0  0  0  0  0  0  0  0  0
    5.8646   72.1283   69.5685 H   0  0  0  0  0  0  0  0  0  0  0  0
    8.4102   71.3687   69.3927 H   0  0  0  0  0  0  0  0  0  0  0  0
    7.6093   69.8421   68.8131 H   0  0  0  0  0  0  0  0  0  0  0  0
  2  1  1  0
  3  2  2  0
  4  2  1  0
  5  4  1  0
  6  5  1  0
  7  6  1  0
  8  7  1  0
  9  8  1  0
 10  9  1  0
 10  5  1  0
 11  8  1  0
 12  1  1  0
 13 12  2  0
 14  1  1  0
 16 15  1  0
 16 14  1  0
  4 17  1  0
  5 18  1  6
  6 19  1  0
  6 20  1  0
  7 21  1  0
  7 22  1  0
  8 23  1  6
  9 24  1  0
  9 25  1  0
 10 26  1  0
 10 27  1  0
 11 28  1  0
 11 29  1  0
 11 30  1  0
 14 31  1  0
 14 32  1  0
 16 33  1  0
 16 34  1  0
M  END
>  <score>  (2) 
-7.019

$$$$
=
     RDKit          3D

 34 34  0  0  0  0  0  0  0  0999 V2000
    3.1560   67.1980   64.7680 N   0  0  0  0  0  0  0  0  0  0  0  0
    3.8310   68.3760   65.0840 C   0  0  0  0  0  0  0  0  0  0  0  0
    4.5620   68.9590   64.2830 O   0  0  0  0  0  0  0  0  0  0  0  0
    3.6240   68.8640   66.3580 N   0  0  0  0  0  0  0  0  0  0  0  0
    4.3250   70.0430   66.8480 C   0  0  1  0  0  0  0  0  0  0  0  0
    3.9370   70.3160   68.3040 C   0  0  0  0  0  0  0  0  0  0  0  0
    4.6980   71.5100   68.8800 C   0  0  0  0  0  0  0  0  0  0  0  0
    6.2200   71.3800   68.7330 C   0  0  2  0  0  0  0  0  0  0  0  0
    6.6010   71.0700   67.2780 C   0  0  0  0  0  0  0  0  0  0  0  0
    5.8430   69.8780   66.6990 C   0  0  0  0  0  0  0  0  0  0  0  0
    6.7960   70.3420   69.7010 C   0  0  0  0  0  0  0  0  0  0  0  0
    2.2860   66.5270   65.7880 N   0  0  0  0  0  0  0  0  0  0  0  0
    1.0940   66.4840   65.4660 O   0  0  0  0  0  0  0  0  0  0  0  0
    3.2630   66.6270   63.4270 C   0  0  0  0  0  0  0  0  0  0  0  0
    4.1590   64.1260   64.1530 Cl  0  0  0  0  0  0  0  0  0  0  0  0
    4.4250   65.6490   63.2680 C   0  0  0  0  0  0  0  0  0  0  0  0
    2.9571   68.3825   66.9779 H   0  0  0  0  0  0  0  0  0  0  0  0
    4.0259   70.9101   66.2408 H   0  0  0  0  0  0  0  0  0  0  0  0
    2.8581   70.5248   68.3518 H   0  0  0  0  0  0  0  0  0  0  0  0
    4.1945   69.4272   68.8988 H   0  0  0  0  0  0  0  0  0  0  0  0
    4.3718   72.4198   68.3548 H   0  0  0  0  0  0  0  0  0  0  0  0
    4.4744   71.5539   69.9561 H   0  0  0  0  0  0  0  0  0  0  0  0
    6.6679   72.3484   69.0007 H   0  0  0  0  0  0  0  0  0  0  0  0
    6.3824   71.9555   66.6631 H   0  0  0  0  0  0  0  0  0  0  0  0
    7.6707   70.8137   67.2676 H   0  0  0  0  0  0  0  0  0  0  0  0
    6.0881   69.7847   65.6307 H   0  0  0  0  0  0  0  0  0  0  0  0
    6.1457   68.9775   67.2535 H   0  0  0  0  0  0  0  0  0  0  0  0
    6.6159   70.6666   70.7365 H   0  0  0  0  0  0  0  0  0  0  0  0
    6.3076   69.3712   69.5308 H   0  0  0  0  0  0  0  0  0  0  0  0
    7.8782   70.2428   69.5308 H   0  0  0  0  0  0  0  0  0  0  0  0
    2.3274   66.0947   63.2004 H   0  0  0  0  0  0  0  0  0  0  0  0
    3.4484   67.4621   62.7355 H   0  0  0  0  0  0  0  0  0  0  0  0
    5.3408   66.1238   63.6499 H   0  0  0  0  0  0  0  0  0  0  0  0
    4.5126   65.4042   62.1992 H   0  0  0  0  0  0  0  0  0  0  0  0
  2  1  1  0
  3  2  2  0
  4  2  1  0
  5  4  1  0
  6  5  1  0
  7  6  1  0
  8  7  1  0
  9  8  1  0
 10  9  1  0
 10  5  1  0
 11  8  1  0
 12  1  1  0
 13 12  2  0
 14  1  1  0
 16 15  1  0
 16 14  1  0
  4 17  1  0
  5 18  1  6
  6 19  1  0
  6 20  1  0
  7 21  1  0
  7 22  1  0
  8 23  1  1
  9 24  1  0
  9 25  1  0
 10 26  1  0
 10 27  1  0
 11 28  1  0
 11 29  1  0
 11 30  1  0
 14 31  1  0
 14 32  1  0
 16 33  1  0
 16 34  1  0
M  END
>  <score>  (3) 
-6.954

$$$$
=
     RDKit          3D

 34 34  0  0  0  0  0  0  0  0999 V2000
   -0.7860   68.7480   65.3660 N   0  0  0  0  0  0  0  0  0  0  0  0
    0.5380   68.4970   65.7230 C   0  0  0  0  0  0  0  0  0  0  0  0
    0.9360   68.5590   66.8860 O   0  0  0  0  0  0  0  0  0  0  0  0
    1.3860   68.1620   64.6860 N   0  0  0  0  0  0  0  0  0  0  0  0
    2.8110   67.9490   64.9050 C   0  0  1  0  0  0  0  0  0  0  0  0
    3.3970   67.1200   63.7590 C   0  0  0  0  0  0  0  0  0  0  0  0
    4.9050   66.9250   63.9140 C   0  0  0  0  0  0  0  0  0  0  0  0
    5.6680   68.2460   64.0810 C   0  0  2  0  0  0  0  0  0  0  0  0
    5.0530   69.0900   65.2060 C   0  0  0  0  0  0  0  0  0  0  0  0
    3.5460   69.2870   65.0550 C   0  0  0  0  0  0  0  0  0  0  0  0
    5.7430   69.0260   62.7650 C   0  0  0  0  0  0  0  0  0  0  0  0
   -1.2120   68.6660   63.9310 N   0  0  0  0  0  0  0  0  0  0  0  0
   -0.5770   69.4190   63.1860 O   0  0  0  0  0  0  0  0  0  0  0  0
   -1.7780   69.0570   66.3940 C   0  0  0  0  0  0  0  0  0  0  0  0
   -1.7310   66.8150   67.9920 Cl  0  0  0  0  0  0  0  0  0  0  0  0
   -2.6020   67.8490   66.8330 C   0  0  0  0  0  0  0  0  0  0  0  0
    1.0025   68.0603   63.7355 H   0  0  0  0  0  0  0  0  0  0  0  0
    2.9467   67.3905   65.8429 H   0  0  0  0  0  0  0  0  0  0  0  0
    2.9097   66.1339   63.7472 H   0  0  0  0  0  0  0  0  0  0  0  0
    3.2167   67.6609   62.8183 H   0  0  0  0  0  0  0  0  0  0  0  0
    5.0881   66.3003   64.8007 H   0  0  0  0  0  0  0  0  0  0  0  0
    5.2709   66.4487   62.9925 H   0  0  0  0  0  0  0  0  0  0  0  0
    6.7022   68.0044   64.3675 H   0  0  0  0  0  0  0  0  0  0  0  0
    5.2455   68.5874   66.1654 H   0  0  0  0  0  0  0  0  0  0  0  0
    5.5191   70.0853   65.1602 H   0  0  0  0  0  0  0  0  0  0  0  0
    3.1633   69.8060   65.9462 H   0  0  0  0  0  0  0  0  0  0  0  0
    3.3672   69.8802   64.1461 H   0  0  0  0  0  0  0  0  0  0  0  0
    5.8462   70.0997   62.9805 H   0  0  0  0  0  0  0  0  0  0  0  0
    6.6123   68.6833   62.1847 H   0  0  0  0  0  0  0  0  0  0  0  0
    4.8243   68.8552   62.1847 H   0  0  0  0  0  0  0  0  0  0  0  0
   -1.2534   69.4580   67.2737 H   0  0  0  0  0  0  0  0  0  0  0  0
   -2.4791   69.7833   65.9569 H   0  0  0  0  0  0  0  0  0  0  0  0
   -2.8517   67.2505   65.9445 H   0  0  0  0  0  0  0  0  0  0  0  0
   -3.5061   68.2251   67.3341 H   0  0  0  0  0  0  0  0  0  0  0  0
  2  1  1  0
  3  2  2  0
  4  2  1  0
  5  4  1  0
  6  5  1  0
  7  6  1  0
  8  7  1  0
  9  8  1  0
 10  9  1  0
 10  5  1  0
 11  8  1  0
 12  1  1  0
 13 12  2  0
 14  1  1  0
 16 15  1  0
 16 14  1  0
  4 17  1  0
  5 18  1  1
  6 19  1  0
  6 20  1  0
  7 21  1  0
  7 22  1  0
  8 23  1  1
  9 24  1  0
  9 25  1  0
 10 26  1  0
 10 27  1  0
 11 28  1  0
 11 29  1  0
 11 30  1  0
 14 31  1  0
 14 32  1  0
 16 33  1  0
 16 34  1  0
M  END
>  <score>  (4) 
-6.947

$$$$
=
     RDKit          3D

 34 34  0  0  0  0  0  0  0  0999 V2000
    1.1940   67.7200   66.7890 N   0  0  0  0  0  0  0  0  0  0  0  0
    1.8750   68.8840   67.1410 C   0  0  0  0  0  0  0  0  0  0  0  0
    1.3200   69.8460   67.6720 O   0  0  0  0  0  0  0  0  0  0  0  0
    3.2280   68.8930   66.8670 N   0  0  0  0  0  0  0  0  0  0  0  0
    4.0490   70.0720   67.1120 C   0  0  1  0  0  0  0  0  0  0  0  0
    3.9880   70.4530   68.5940 C   0  0  0  0  0  0  0  0  0  0  0  0
    4.8850   71.6490   68.9090 C   0  0  0  0  0  0  0  0  0  0  0  0
    6.3370   71.4490   68.4540 C   0  0  2  0  0  0  0  0  0  0  0  0
    6.3900   71.0320   66.9770 C   0  0  0  0  0  0  0  0  0  0  0  0
    5.4950   69.8360   66.6580 C   0  0  0  0  0  0  0  0  0  0  0  0
    7.0790   70.4530   69.3500 C   0  0  0  0  0  0  0  0  0  0  0  0
    1.9220   66.5840   66.1360 N   0  0  0  0  0  0  0  0  0  0  0  0
    2.3380   66.8510   65.0040 O   0  0  0  0  0  0  0  0  0  0  0  0
   -0.2310   67.5860   67.0860 C   0  0  0  0  0  0  0  0  0  0  0  0
   -0.4740   68.7890   64.6200 Cl  0  0  0  0  0  0  0  0  0  0  0  0
   -1.1210   68.5090   66.2560 C   0  0  0  0  0  0  0  0  0  0  0  0
    3.6680   68.0459   66.4800 H   0  0  0  0  0  0  0  0  0  0  0  0
    3.6506   70.9098   66.5210 H   0  0  0  0  0  0  0  0  0  0  0  0
    2.9500   70.7081   68.8538 H   0  0  0  0  0  0  0  0  0  0  0  0
    4.3430   69.5945   69.1830 H   0  0  0  0  0  0  0  0  0  0  0  0
    4.4778   72.5355   68.4007 H   0  0  0  0  0  0  0  0  0  0  0  0
    4.8977   71.7705   70.0022 H   0  0  0  0  0  0  0  0  0  0  0  0
    6.8573   72.4132   68.5518 H   0  0  0  0  0  0  0  0  0  0  0  0
    6.0674   71.8844   66.3611 H   0  0  0  0  0  0  0  0  0  0  0  0
    7.4258   70.7333   66.7582 H   0  0  0  0  0  0  0  0  0  0  0  0
    5.5039   69.6639   65.5716 H   0  0  0  0  0  0  0  0  0  0  0  0
    5.8857   68.9616   67.1990 H   0  0  0  0  0  0  0  0  0  0  0  0
    6.8942   70.7011   70.4056 H   0  0  0  0  0  0  0  0  0  0  0  0
    6.7176   69.4347   69.1440 H   0  0  0  0  0  0  0  0  0  0  0  0
    8.1581   70.5078   69.1440 H   0  0  0  0  0  0  0  0  0  0  0  0
   -0.5304   66.5459   66.8893 H   0  0  0  0  0  0  0  0  0  0  0  0
   -0.3677   67.8702   68.1398 H   0  0  0  0  0  0  0  0  0  0  0  0
   -1.2051   69.4765   66.7726 H   0  0  0  0  0  0  0  0  0  0  0  0
   -2.1013   68.0215   66.1492 H   0  0  0  0  0  0  0  0  0  0  0  0
  2  1  1  0
  3  2  2  0
  4  2  1  0
  5  4  1  0
  6  5  1  0
  7  6  1  0
  8  7  1  0
  9  8  1  0
 10  9  1  0
 10  5  1  0
 11  8  1  0
 12  1  1  0
 13 12  2  0
 14  1  1  0
 16 15  1  0
 16 14  1  0
  4 17  1  0
  5 18  1  6
  6 19  1  0
  6 20  1  0
  7 21  1  0
  7 22  1  0
  8 23  1  6
  9 24  1  0
  9 25  1  0
 10 26  1  0
 10 27  1  0
 11 28  1  0
 11 29  1  0
 11 30  1  0
 14 31  1  0
 14 32  1  0
 16 33  1  0
 16 34  1  0
M  END
>  <score>  (5) 
-6.831

$$$$
=
     RDKit          3D

 34 34  0  0  0  0  0  0  0  0999 V2000
    0.0160   68.4300   66.7300 N   0  0  0  0  0  0  0  0  0  0  0  0
    0.4900   68.2460   65.4320 C   0  0  0  0  0  0  0  0  0  0  0  0
   -0.1730   68.5320   64.4350 O   0  0  0  0  0  0  0  0  0  0  0  0
    1.7640   67.7250   65.3270 N   0  0  0  0  0  0  0  0  0  0  0  0
    2.3550   67.4090   64.0340 C   0  0  1  0  0  0  0  0  0  0  0  0
    2.5490   68.6920   63.2190 C   0  0  0  0  0  0  0  0  0  0  0  0
    3.2250   68.4140   61.8770 C   0  0  0  0  0  0  0  0  0  0  0  0
    4.5480   67.6490   62.0170 C   0  0  2  0  0  0  0  0  0  0  0  0
    4.3560   66.3830   62.8650 C   0  0  0  0  0  0  0  0  0  0  0  0
    3.6800   66.6560   64.2070 C   0  0  0  0  0  0  0  0  0  0  0  0
    5.6610   68.5400   62.5760 C   0  0  0  0  0  0  0  0  0  0  0  0
    0.8650   68.0550   67.9070 N   0  0  0  0  0  0  0  0  0  0  0  0
    0.9040   66.8380   68.1160 O   0  0  0  0  0  0  0  0  0  0  0  0
   -1.3000   69.0260   66.9530 C   0  0  0  0  0  0  0  0  0  0  0  0
   -3.7840   68.6460   65.8270 Cl  0  0  0  0  0  0  0  0  0  0  0  0
   -2.4520   68.0310   66.8370 C   0  0  0  0  0  0  0  0  0  0  0  0
    2.3099   67.5556   66.1839 H   0  0  0  0  0  0  0  0  0  0  0  0
    1.6690   66.7480   63.4840 H   0  0  0  0  0  0  0  0  0  0  0  0
    1.5656   69.1490   63.0346 H   0  0  0  0  0  0  0  0  0  0  0  0
    3.1972   69.3688   63.7951 H   0  0  0  0  0  0  0  0  0  0  0  0
    2.5397   67.8178   61.2566 H   0  0  0  0  0  0  0  0  0  0  0  0
    3.4553   69.3867   61.4178 H   0  0  0  0  0  0  0  0  0  0  0  0
    4.8651   67.3372   61.0109 H   0  0  0  0  0  0  0  0  0  0  0  0
    3.7351   65.6733   62.2985 H   0  0  0  0  0  0  0  0  0  0  0  0
    5.3559   65.9773   63.0786 H   0  0  0  0  0  0  0  0  0  0  0  0
    3.4818   65.6968   64.7076 H   0  0  0  0  0  0  0  0  0  0  0  0
    4.3542   67.2836   64.8083 H   0  0  0  0  0  0  0  0  0  0  0  0
    5.6320   68.5167   63.6754 H   0  0  0  0  0  0  0  0  0  0  0  0
    6.6366   68.1705   62.2271 H   0  0  0  0  0  0  0  0  0  0  0  0
    5.5140   69.5728   62.2271 H   0  0  0  0  0  0  0  0  0  0  0  0
   -1.3175   69.4613   67.9631 H   0  0  0  0  0  0  0  0  0  0  0  0
   -1.4478   69.7819   66.1676 H   0  0  0  0  0  0  0  0  0  0  0  0
   -2.8406   67.8220   67.8446 H   0  0  0  0  0  0  0  0  0  0  0  0
   -2.0613   67.1211   66.3579 H   0  0  0  0  0  0  0  0  0  0  0  0
  2  1  1  0
  3  2  2  0
  4  2  1  0
  5  4  1  0
  6  5  1  0
  7  6  1  0
  8  7  1  0
  9  8  1  0
 10  9  1  0
 10  5  1  0
 11  8  1  0
 12  1  1  0
 13 12  2  0
 14  1  1  0
 16 15  1  0
 16 14  1  0
  4 17  1  0
  5 18  1  6
  6 19  1  0
  6 20  1  0
  7 21  1  0
  7 22  1  0
  8 23  1  6
  9 24  1  0
  9 25  1  0
 10 26  1  0
 10 27  1  0
 11 28  1  0
 11 29  1  0
 11 30  1  0
 14 31  1  0
 14 32  1  0
 16 33  1  0
 16 34  1  0
M  END
>  <score>  (6) 
-6.651

$$$$
=
     RDKit          3D

 34 34  0  0  0  0  0  0  0  0999 V2000
    0.8840   64.0900   70.9510 N   0  0  0  0  0  0  0  0  0  0  0  0
    0.3890   65.3570   70.6470 C   0  0  0  0  0  0  0  0  0  0  0  0
   -0.1680   66.0710   71.4810 O   0  0  0  0  0  0  0  0  0  0  0  0
    0.5690   65.7750   69.3440 N   0  0  0  0  0  0  0  0  0  0  0  0
    0.0330   67.0440   68.8680 C   0  0  1  0  0  0  0  0  0  0  0  0
    1.1550   67.8900   68.2580 C   0  0  0  0  0  0  0  0  0  0  0  0
    0.6270   69.2060   67.6890 C   0  0  0  0  0  0  0  0  0  0  0  0
   -0.5190   69.0110   66.6880 C   0  0  2  0  0  0  0  0  0  0  0  0
   -1.6240   68.1320   67.2900 C   0  0  0  0  0  0  0  0  0  0  0  0
   -1.1010   66.8160   67.8610 C   0  0  0  0  0  0  0  0  0  0  0  0
   -0.0160   68.4510   65.3540 C   0  0  0  0  0  0  0  0  0  0  0  0
    1.5460   63.2610   69.8910 N   0  0  0  0  0  0  0  0  0  0  0  0
    2.6440   63.7030   69.5360 O   0  0  0  0  0  0  0  0  0  0  0  0
    0.7950   63.5750   72.3150 C   0  0  0  0  0  0  0  0  0  0  0  0
    2.9410   61.9930   73.0060 Cl  0  0  0  0  0  0  0  0  0  0  0  0
    1.2530   62.1250   72.4550 C   0  0  0  0  0  0  0  0  0  0  0  0
    1.0949   65.1755   68.6921 H   0  0  0  0  0  0  0  0  0  0  0  0
   -0.3904   67.5921   69.7226 H   0  0  0  0  0  0  0  0  0  0  0  0
    1.8981   68.1119   69.0381 H   0  0  0  0  0  0  0  0  0  0  0  0
    1.6061   67.3174   67.4342 H   0  0  0  0  0  0  0  0  0  0  0  0
    0.2633   69.8266   68.5212 H   0  0  0  0  0  0  0  0  0  0  0  0
    1.4563   69.6866   67.1493 H   0  0  0  0  0  0  0  0  0  0  0  0
   -0.9523   69.9996   66.4762 H   0  0  0  0  0  0  0  0  0  0  0  0
   -2.1157   68.6931   68.0984 H   0  0  0  0  0  0  0  0  0  0  0  0
   -2.3218   67.8816   66.4774 H   0  0  0  0  0  0  0  0  0  0  0  0
   -1.9267   66.2939   68.3665 H   0  0  0  0  0  0  0  0  0  0  0  0
   -0.7045   66.2154   67.0291 H   0  0  0  0  0  0  0  0  0  0  0  0
    0.7080   67.6450   65.5443 H   0  0  0  0  0  0  0  0  0  0  0  0
   -0.8655   68.0528   64.7798 H   0  0  0  0  0  0  0  0  0  0  0  0
    0.4708   69.2531   64.7798 H   0  0  0  0  0  0  0  0  0  0  0  0
    1.4235   64.2019   72.9646 H   0  0  0  0  0  0  0  0  0  0  0  0
   -0.2666   63.6058   72.6015 H   0  0  0  0  0  0  0  0  0  0  0  0
    1.1615   61.6302   71.4768 H   0  0  0  0  0  0  0  0  0  0  0  0
    0.6158   61.6450   73.2123 H   0  0  0  0  0  0  0  0  0  0  0  0
  2  1  1  0
  3  2  2  0
  4  2  1  0
  5  4  1  0
  6  5  1  0
  7  6  1  0
  8  7  1  0
  9  8  1  0
 10  9  1  0
 10  5  1  0
 11  8  1  0
 12  1  1  0
 13 12  2  0
 14  1  1  0
 16 15  1  0
 16 14  1  0
  4 17  1  0
  5 18  1  1
  6 19  1  0
  6 20  1  0
  7 21  1  0
  7 22  1  0
  8 23  1  6
  9 24  1  0
  9 25  1  0
 10 26  1  0
 10 27  1  0
 11 28  1  0
 11 29  1  0
 11 30  1  0
 14 31  1  0
 14 32  1  0
 16 33  1  0
 16 34  1  0
M  END
>  <score>  (7) 
-6.536

$$$$
=
     RDKit          3D

 34 34  0  0  0  0  0  0  0  0999 V2000
    0.4960   67.6660   66.9010 N   0  0  0  0  0  0  0  0  0  0  0  0
    1.4910   67.6840   65.9250 C   0  0  0  0  0  0  0  0  0  0  0  0
    2.6220   68.1240   66.1350 O   0  0  0  0  0  0  0  0  0  0  0  0
    1.1350   67.1680   64.6950 N   0  0  0  0  0  0  0  0  0  0  0  0
    2.0510   67.1950   63.5620 C   0  0  1  0  0  0  0  0  0  0  0  0
    2.1350   68.6140   62.9920 C   0  0  0  0  0  0  0  0  0  0  0  0
    3.1330   68.7030   61.8380 C   0  0  0  0  0  0  0  0  0  0  0  0
    4.5270   68.1770   62.2080 C   0  0  2  0  0  0  0  0  0  0  0  0
    4.4340   66.7690   62.8130 C   0  0  0  0  0  0  0  0  0  0  0  0
    3.4360   66.6760   63.9660 C   0  0  0  0  0  0  0  0  0  0  0  0
    5.2690   69.1440   63.1360 C   0  0  0  0  0  0  0  0  0  0  0  0
   -0.8660   67.1260   66.5840 N   0  0  0  0  0  0  0  0  0  0  0  0
   -1.5770   67.9220   65.9620 O   0  0  0  0  0  0  0  0  0  0  0  0
    0.7860   68.1380   68.2530 C   0  0  0  0  0  0  0  0  0  0  0  0
   -0.0440   66.1480   69.9660 Cl  0  0  0  0  0  0  0  0  0  0  0  0
    1.2870   67.0430   69.1920 C   0  0  0  0  0  0  0  0  0  0  0  0
    0.1995   66.7540   64.5753 H   0  0  0  0  0  0  0  0  0  0  0  0
    1.6646   66.5273   62.7779 H   0  0  0  0  0  0  0  0  0  0  0  0
    1.1407   68.9106   62.6267 H   0  0  0  0  0  0  0  0  0  0  0  0
    2.4777   69.2851   63.7934 H   0  0  0  0  0  0  0  0  0  0  0  0
    2.7475   68.1110   60.9948 H   0  0  0  0  0  0  0  0  0  0  0  0
    3.2411   69.7664   61.5780 H   0  0  0  0  0  0  0  0  0  0  0  0
    5.1176   68.1078   61.2826 H   0  0  0  0  0  0  0  0  0  0  0  0
    4.1230   66.0688   62.0237 H   0  0  0  0  0  0  0  0  0  0  0  0
    5.4261   66.5200   63.2175 H   0  0  0  0  0  0  0  0  0  0  0  0
    3.3460   65.6242   64.2754 H   0  0  0  0  0  0  0  0  0  0  0  0
    3.8080   67.3000   64.7920 H   0  0  0  0  0  0  0  0  0  0  0  0
    5.0641   68.8770   64.1833 H   0  0  0  0  0  0  0  0  0  0  0  0
    6.3504   69.0779   62.9455 H   0  0  0  0  0  0  0  0  0  0  0  0
    4.9253   70.1714   62.9455 H   0  0  0  0  0  0  0  0  0  0  0  0
    1.5566   68.9204   68.1897 H   0  0  0  0  0  0  0  0  0  0  0  0
   -0.1595   68.5126   68.6721 H   0  0  0  0  0  0  0  0  0  0  0  0
    1.9041   67.5057   69.9763 H   0  0  0  0  0  0  0  0  0  0  0  0
    1.8670   66.3268   68.5915 H   0  0  0  0  0  0  0  0  0  0  0  0
  2  1  1  0
  3  2  2  0
  4  2  1  0
  5  4  1  0
  6  5  1  0
  7  6  1  0
  8  7  1  0
  9  8  1  0
 10  9  1  0
 10  5  1  0
 11  8  1  0
 12  1  1  0
 13 12  2  0
 14  1  1  0
 16 15  1  0
 16 14  1  0
  4 17  1  0
  5 18  1  6
  6 19  1  0
  6 20  1  0
  7 21  1  0
  7 22  1  0
  8 23  1  6
  9 24  1  0
  9 25  1  0
 10 26  1  0
 10 27  1  0
 11 28  1  0
 11 29  1  0
 11 30  1  0
 14 31  1  0
 14 32  1  0
 16 33  1  0
 16 34  1  0
M  END
>  <score>  (8) 
-6.337

$$$$
=
     RDKit          3D

 34 34  0  0  0  0  0  0  0  0999 V2000
    1.4970   68.9970   67.2920 N   0  0  0  0  0  0  0  0  0  0  0  0
    2.2090   68.7610   66.1180 C   0  0  0  0  0  0  0  0  0  0  0  0
    3.1700   69.4490   65.7720 O   0  0  0  0  0  0  0  0  0  0  0  0
    1.7770   67.6930   65.3580 N   0  0  0  0  0  0  0  0  0  0  0  0
    2.3800   67.3790   64.0690 C   0  0  1  0  0  0  0  0  0  0  0  0
    2.4490   68.6410   63.2030 C   0  0  0  0  0  0  0  0  0  0  0  0
    3.1340   68.3710   61.8630 C   0  0  0  0  0  0  0  0  0  0  0  0
    4.5210   67.7330   62.0140 C   0  0  2  0  0  0  0  0  0  0  0  0
    4.4520   66.4900   62.9130 C   0  0  0  0  0  0  0  0  0  0  0  0
    3.7690   66.7540   64.2530 C   0  0  0  0  0  0  0  0  0  0  0  0
    5.5560   68.7410   62.5220 C   0  0  0  0  0  0  0  0  0  0  0  0
    0.3290   68.1310   67.6570 N   0  0  0  0  0  0  0  0  0  0  0  0
    0.6520   66.9890   67.9990 O   0  0  0  0  0  0  0  0  0  0  0  0
    1.9070   70.0690   68.1960 C   0  0  0  0  0  0  0  0  0  0  0  0
    4.4390   70.9440   68.8330 Cl  0  0  0  0  0  0  0  0  0  0  0  0
    3.1460   69.7350   69.0230 C   0  0  0  0  0  0  0  0  0  0  0  0
    1.0095   67.1034   65.7105 H   0  0  0  0  0  0  0  0  0  0  0  0
    1.7508   66.6382   63.5540 H   0  0  0  0  0  0  0  0  0  0  0  0
    1.4266   69.0003   63.0146 H   0  0  0  0  0  0  0  0  0  0  0  0
    3.0390   69.3958   63.7436 H   0  0  0  0  0  0  0  0  0  0  0  0
    2.4985   67.6921   61.2754 H   0  0  0  0  0  0  0  0  0  0  0  0
    3.2719   69.3414   61.3637 H   0  0  0  0  0  0  0  0  0  0  0  0
    4.8539   67.4106   61.0164 H   0  0  0  0  0  0  0  0  0  0  0  0
    3.8911   65.7060   62.3831 H   0  0  0  0  0  0  0  0  0  0  0  0
    5.4865   66.1842   63.1280 H   0  0  0  0  0  0  0  0  0  0  0  0
    3.6625   65.8014   64.7926 H   0  0  0  0  0  0  0  0  0  0  0  0
    4.3907   67.4617   64.8210 H   0  0  0  0  0  0  0  0  0  0  0  0
    5.5574   68.7423   63.6220 H   0  0  0  0  0  0  0  0  0  0  0  0
    6.5537   68.4589   62.1544 H   0  0  0  0  0  0  0  0  0  0  0  0
    5.3004   69.7458   62.1544 H   0  0  0  0  0  0  0  0  0  0  0  0
    2.1213   70.9659   67.5963 H   0  0  0  0  0  0  0  0  0  0  0  0
    1.0804   70.2252   68.9047 H   0  0  0  0  0  0  0  0  0  0  0  0
    3.5298   68.7549   68.7034 H   0  0  0  0  0  0  0  0  0  0  0  0
    2.8488   69.7272   70.0821 H   0  0  0  0  0  0  0  0  0  0  0  0
  2  1  1  0
  3  2  2  0
  4  2  1  0
  5  4  1  0
  6  5  1  0
  7  6  1  0
  8  7  1  0
  9  8  1  0
 10  9  1  0
 10  5  1  0
 11  8  1  0
 12  1  1  0
 13 12  2  0
 14  1  1  0
 16 15  1  0
 16 14  1  0
  4 17  1  0
  5 18  1  6
  6 19  1  0
  6 20  1  0
  7 21  1  0
  7 22  1  0
  8 23  1  6
  9 24  1  0
  9 25  1  0
 10 26  1  0
 10 27  1  0
 11 28  1  0
 11 29  1  0
 11 30  1  0
 14 31  1  0
 14 32  1  0
 16 33  1  0
 16 34  1  0
M  END
>  <score>  (9) 
-6.134

$$$$
