=
     RDKit          3D

 63 65  0  0  0  0  0  0  0  0999 V2000
    1.8890   56.2760   74.1140 C   0  0  1  0  0  0  0  0  0  0  0  0
    1.7390   56.6910   72.7440 O   0  0  0  0  0  0  0  0  0  0  0  0
    2.5470   57.7310   72.3810 C   0  0  0  0  0  0  0  0  0  0  0  0
    2.8210   57.8520   71.0220 C   0  0  0  0  0  0  0  0  0  0  0  0
    3.6390   58.8830   70.5590 C   0  0  0  0  0  0  0  0  0  0  0  0
    4.1860   59.8340   71.4350 C   0  0  0  0  0  0  0  0  0  0  0  0
    3.8840   59.7050   72.8060 C   0  0  0  0  0  0  0  0  0  0  0  0
    3.0630   58.6650   73.2720 C   0  0  0  0  0  0  0  0  0  0  0  0
    2.7000   58.5450   74.6940 C   0  0  0  0  0  0  0  0  0  0  0  0
    3.1650   59.3340   75.5190 O   0  0  0  0  0  0  0  0  0  0  0  0
    1.7200   57.4540   75.0790 C   0  0  2  0  0  0  0  0  0  0  0  0
   -1.0830   53.1830   74.8780 C   0  0  0  0  0  0  0  0  0  0  0  0
    0.2480   52.8340   74.6450 C   0  0  0  0  0  0  0  0  0  0  0  0
    1.2100   53.8230   74.3990 C   0  0  0  0  0  0  0  0  0  0  0  0
    0.8630   55.1830   74.3910 C   0  0  0  0  0  0  0  0  0  0  0  0
   -0.4780   55.5290   74.6170 C   0  0  0  0  0  0  0  0  0  0  0  0
   -1.4340   54.5380   74.8550 C   0  0  0  0  0  0  0  0  0  0  0  0
   -2.2550   51.8350   76.4570 C   0  0  0  0  0  0  0  0  0  0  0  0
   -2.0990   52.2960   75.1240 O   0  0  0  0  0  0  0  0  0  0  0  0
   -2.7390   54.8960   75.0680 O   0  0  0  0  0  0  0  0  0  0  0  0
    3.8610   58.8840   69.2100 O   0  0  0  0  0  0  0  0  0  0  0  0
    2.0000   57.0780   76.4310 O   0  0  0  0  0  0  0  0  0  0  0  0
    4.4110   60.6380   73.6660 O   0  0  0  0  0  0  0  0  0  0  0  0
    5.0910   60.9510   70.9610 C   0  0  0  0  0  0  0  0  0  0  0  0
    4.3950   62.2880   70.9710 C   0  0  0  0  0  0  0  0  0  0  0  0
    3.5570   62.8000   70.0440 C   0  0  0  0  0  0  0  0  0  0  0  0
    3.1540   62.1080   68.7690 C   0  0  0  0  0  0  0  0  0  0  0  0
    2.9530   64.1790   70.2430 C   0  0  0  0  0  0  0  0  0  0  0  0
    1.5340   64.1240   70.8230 C   0  0  0  0  0  0  0  0  0  0  0  0
    1.5530   63.7740   72.2870 C   0  0  0  0  0  0  0  0  0  0  0  0
    1.2490   62.5900   72.8530 C   0  0  0  0  0  0  0  0  0  0  0  0
    0.7750   61.3710   72.1080 C   0  0  0  0  0  0  0  0  0  0  0  0
    1.3580   62.4000   74.3430 C   0  0  0  0  0  0  0  0  0  0  0  0
    2.9051   55.8865   74.2746 H   0  0  0  0  0  0  0  0  0  0  0  0
    2.3910   57.1320   70.3101 H   0  0  0  0  0  0  0  0  0  0  0  0
    0.6766   57.7959   75.0121 H   0  0  0  0  0  0  0  0  0  0  0  0
    0.5443   51.7747   74.6545 H   0  0  0  0  0  0  0  0  0  0  0  0
    2.2529   53.5290   74.2093 H   0  0  0  0  0  0  0  0  0  0  0  0
   -0.7786   56.5871   74.6067 H   0  0  0  0  0  0  0  0  0  0  0  0
   -1.9830   52.6387   77.1571 H   0  0  0  0  0  0  0  0  0  0  0  0
   -3.3022   51.5424   76.6236 H   0  0  0  0  0  0  0  0  0  0  0  0
   -1.6007   50.9666   76.6236 H   0  0  0  0  0  0  0  0  0  0  0  0
   -2.9989   55.8512   75.0540 H   0  0  0  0  0  0  0  0  0  0  0  0
    4.4312   59.5834   68.8027 H   0  0  0  0  0  0  0  0  0  0  0  0
    1.5379   57.6986   77.0486 H   0  0  0  0  0  0  0  0  0  0  0  0
    4.2210   60.5803   74.6359 H   0  0  0  0  0  0  0  0  0  0  0  0
    5.9676   61.0025   71.6236 H   0  0  0  0  0  0  0  0  0  0  0  0
    5.3863   60.7308   69.9245 H   0  0  0  0  0  0  0  0  0  0  0  0
    4.5949   62.9273   71.8435 H   0  0  0  0  0  0  0  0  0  0  0  0
    2.6139   61.1806   69.0101 H   0  0  0  0  0  0  0  0  0  0  0  0
    2.5007   62.7709   68.1827 H   0  0  0  0  0  0  0  0  0  0  0  0
    4.0530   61.8669   68.1827 H   0  0  0  0  0  0  0  0  0  0  0  0
    3.5937   64.7479   70.9329 H   0  0  0  0  0  0  0  0  0  0  0  0
    2.8908   64.6608   69.2561 H   0  0  0  0  0  0  0  0  0  0  0  0
    1.0570   65.1070   70.6961 H   0  0  0  0  0  0  0  0  0  0  0  0
    0.9709   63.3452   70.2878 H   0  0  0  0  0  0  0  0  0  0  0  0
    1.8498   64.5793   72.9751 H   0  0  0  0  0  0  0  0  0  0  0  0
    0.4735   60.5956   72.8277 H   0  0  0  0  0  0  0  0  0  0  0  0
   -0.0845   61.6388   71.4759 H   0  0  0  0  0  0  0  0  0  0  0  0
    1.5896   60.9878   71.4759 H   0  0  0  0  0  0  0  0  0  0  0  0
    0.8740   63.2437   74.8566 H   0  0  0  0  0  0  0  0  0  0  0  0
    0.8608   61.4618   74.6303 H   0  0  0  0  0  0  0  0  0  0  0  0
    2.4189   62.3557   74.6303 H   0  0  0  0  0  0  0  0  0  0  0  0
  2  1  1  0
  3  2  1  0
  4  3  2  0
  5  4  1  0
  6  5  2  0
  7  6  1  0
  8  7  2  0
  8  3  1  0
  9  8  1  0
 10  9  2  0
 11  9  1  0
 11  1  1  0
 13 12  2  0
 14 13  1  0
 15 14  2  0
 15  1  1  0
 16 15  1  0
 17 12  1  0
 17 16  2  0
 19 12  1  0
 19 18  1  0
 20 17  1  0
 21  5  1  0
 22 11  1  0
 23  7  1  0
 24  6  1  0
 25 24  1  0
 26 25  2  0
 27 26  1  0
 28 26  1  0
 29 28  1  0
 30 29  1  0
 31 30  2  3
 32 31  1  0
 33 31  1  0
  1 34  1  6
  4 35  1  0
 11 36  1  1
 13 37  1  0
 14 38  1  0
 16 39  1  0
 18 40  1  0
 18 41  1  0
 18 42  1  0
 20 43  1  0
 21 44  1  0
 22 45  1  0
 23 46  1  0
 24 47  1  0
 24 48  1  0
 25 49  1  0
 27 50  1  0
 27 51  1  0
 27 52  1  0
 28 53  1  0
 28 54  1  0
 29 55  1  0
 29 56  1  0
 30 57  1  0
 32 58  1  0
 32 59  1  0
 32 60  1  0
 33 61  1  0
 33 62  1  0
 33 63  1  0
M  END
>  <score>  (1) 
-8.786

$$$$
=
     RDKit          3D

 63 65  0  0  0  0  0  0  0  0999 V2000
    2.3730   60.1540   73.9090 C   0  0  1  0  0  0  0  0  0  0  0  0
    2.0420   61.5080   74.2670 O   0  0  0  0  0  0  0  0  0  0  0  0
    1.6500   62.2870   73.2150 C   0  0  0  0  0  0  0  0  0  0  0  0
    0.8680   63.3940   73.5270 C   0  0  0  0  0  0  0  0  0  0  0  0
    0.4180   64.2450   72.5160 C   0  0  0  0  0  0  0  0  0  0  0  0
    0.7570   64.0270   71.1710 C   0  0  0  0  0  0  0  0  0  0  0  0
    1.5630   62.9100   70.8760 C   0  0  0  0  0  0  0  0  0  0  0  0
    2.0120   62.0510   71.8930 C   0  0  0  0  0  0  0  0  0  0  0  0
    2.8940   60.9070   71.6060 C   0  0  0  0  0  0  0  0  0  0  0  0
    3.2100   60.6480   70.4440 O   0  0  0  0  0  0  0  0  0  0  0  0
    3.4140   60.1090   72.7850 C   0  0  2  0  0  0  0  0  0  0  0  0
    3.8660   58.1080   77.4550 C   0  0  0  0  0  0  0  0  0  0  0  0
    3.2450   59.3530   77.5720 C   0  0  0  0  0  0  0  0  0  0  0  0
    2.7620   60.0170   76.4360 C   0  0  0  0  0  0  0  0  0  0  0  0
    2.8800   59.4450   75.1600 C   0  0  0  0  0  0  0  0  0  0  0  0
    3.5130   58.1980   75.0450 C   0  0  0  0  0  0  0  0  0  0  0  0
    3.9990   57.5440   76.1810 C   0  0  0  0  0  0  0  0  0  0  0  0
    4.8380   58.0980   79.6310 C   0  0  0  0  0  0  0  0  0  0  0  0
    4.3750   57.3800   78.4980 O   0  0  0  0  0  0  0  0  0  0  0  0
    4.6190   56.3290   76.0470 O   0  0  0  0  0  0  0  0  0  0  0  0
   -0.3660   65.2820   72.9400 O   0  0  0  0  0  0  0  0  0  0  0  0
    3.6490   58.7710   72.3320 O   0  0  0  0  0  0  0  0  0  0  0  0
    1.9030   62.6970   69.5620 O   0  0  0  0  0  0  0  0  0  0  0  0
    0.2680   64.9240   70.0540 C   0  0  0  0  0  0  0  0  0  0  0  0
    1.0920   66.1800   69.9330 C   0  0  0  0  0  0  0  0  0  0  0  0
    0.9350   67.2010   69.0650 C   0  0  0  0  0  0  0  0  0  0  0  0
   -0.1290   67.2750   68.0010 C   0  0  0  0  0  0  0  0  0  0  0  0
    1.8810   68.3900   69.1070 C   0  0  0  0  0  0  0  0  0  0  0  0
    1.8980   69.1790   67.7930 C   0  0  0  0  0  0  0  0  0  0  0  0
    3.3020   69.5420   67.3890 C   0  0  0  0  0  0  0  0  0  0  0  0
    3.8510   69.4620   66.1610 C   0  0  0  0  0  0  0  0  0  0  0  0
    3.1560   68.9340   64.9360 C   0  0  0  0  0  0  0  0  0  0  0  0
    5.2710   69.9060   65.9240 C   0  0  0  0  0  0  0  0  0  0  0  0
    1.4781   59.6429   73.5245 H   0  0  0  0  0  0  0  0  0  0  0  0
    0.6030   63.5998   74.5746 H   0  0  0  0  0  0  0  0  0  0  0  0
    4.3533   60.5233   73.1800 H   0  0  0  0  0  0  0  0  0  0  0  0
    3.1339   59.8164   78.5634 H   0  0  0  0  0  0  0  0  0  0  0  0
    2.2833   61.0012   76.5464 H   0  0  0  0  0  0  0  0  0  0  0  0
    3.6275   57.7322   74.0551 H   0  0  0  0  0  0  0  0  0  0  0  0
    4.5089   57.5876   80.5482 H   0  0  0  0  0  0  0  0  0  0  0  0
    5.9368   58.1447   79.6116 H   0  0  0  0  0  0  0  0  0  0  0  0
    4.4272   59.1182   79.6116 H   0  0  0  0  0  0  0  0  0  0  0  0
    4.7188   55.9204   75.1508 H   0  0  0  0  0  0  0  0  0  0  0  0
   -0.7256   65.9309   72.2845 H   0  0  0  0  0  0  0  0  0  0  0  0
    3.7542   58.1719   73.1131 H   0  0  0  0  0  0  0  0  0  0  0  0
    2.4682   61.9222   69.3163 H   0  0  0  0  0  0  0  0  0  0  0  0
    0.3234   64.3707   69.1049 H   0  0  0  0  0  0  0  0  0  0  0  0
   -0.7664   65.2186   70.2847 H   0  0  0  0  0  0  0  0  0  0  0  0
    1.9273   66.2766   70.6422 H   0  0  0  0  0  0  0  0  0  0  0  0
   -1.1186   67.3438   68.4763 H   0  0  0  0  0  0  0  0  0  0  0  0
    0.0397   68.1636   67.3749 H   0  0  0  0  0  0  0  0  0  0  0  0
   -0.0849   66.3716   67.3749 H   0  0  0  0  0  0  0  0  0  0  0  0
    1.5646   69.0630   69.9175 H   0  0  0  0  0  0  0  0  0  0  0  0
    2.8963   68.0011   69.2742 H   0  0  0  0  0  0  0  0  0  0  0  0
    1.4450   68.5649   67.0008 H   0  0  0  0  0  0  0  0  0  0  0  0
    1.3285   70.1086   67.9397 H   0  0  0  0  0  0  0  0  0  0  0  0
    3.9564   69.9164   68.1900 H   0  0  0  0  0  0  0  0  0  0  0  0
    2.3140   68.2943   65.2392 H   0  0  0  0  0  0  0  0  0  0  0  0
    2.7795   69.7759   64.3365 H   0  0  0  0  0  0  0  0  0  0  0  0
    3.8662   68.3456   64.3365 H   0  0  0  0  0  0  0  0  0  0  0  0
    5.7723   70.0627   66.8905 H   0  0  0  0  0  0  0  0  0  0  0  0
    5.8068   69.1325   65.3542 H   0  0  0  0  0  0  0  0  0  0  0  0
    5.2707   70.8469   65.3542 H   0  0  0  0  0  0  0  0  0  0  0  0
  2  1  1  0
  3  2  1  0
  4  3  2  0
  5  4  1  0
  6  5  2  0
  7  6  1  0
  8  7  2  0
  8  3  1  0
  9  8  1  0
 10  9  2  0
 11  9  1  0
 11  1  1  0
 13 12  2  0
 14 13  1  0
 15 14  2  0
 15  1  1  0
 16 15  1  0
 17 12  1  0
 17 16  2  0
 19 12  1  0
 19 18  1  0
 20 17  1  0
 21  5  1  0
 22 11  1  0
 23  7  1  0
 24  6  1  0
 25 24  1  0
 26 25  2  0
 27 26  1  0
 28 26  1  0
 29 28  1  0
 30 29  1  0
 31 30  2  3
 32 31  1  0
 33 31  1  0
  1 34  1  6
  4 35  1  0
 11 36  1  1
 13 37  1  0
 14 38  1  0
 16 39  1  0
 18 40  1  0
 18 41  1  0
 18 42  1  0
 20 43  1  0
 21 44  1  0
 22 45  1  0
 23 46  1  0
 24 47  1  0
 24 48  1  0
 25 49  1  0
 27 50  1  0
 27 51  1  0
 27 52  1  0
 28 53  1  0
 28 54  1  0
 29 55  1  0
 29 56  1  0
 30 57  1  0
 32 58  1  0
 32 59  1  0
 32 60  1  0
 33 61  1  0
 33 62  1  0
 33 63  1  0
M  END
>  <score>  (2) 
-8.413

$$$$
=
     RDKit          3D

 63 65  0  0  0  0  0  0  0  0999 V2000
    1.0790   60.0380   73.5370 C   0  0  1  0  0  0  0  0  0  0  0  0
    1.4170   60.2890   72.1610 O   0  0  0  0  0  0  0  0  0  0  0  0
    1.3940   61.6090   71.8090 C   0  0  0  0  0  0  0  0  0  0  0  0
    2.1590   61.9650   70.7030 C   0  0  0  0  0  0  0  0  0  0  0  0
    2.1980   63.2920   70.2730 C   0  0  0  0  0  0  0  0  0  0  0  0
    1.4570   64.2940   70.9190 C   0  0  0  0  0  0  0  0  0  0  0  0
    0.6760   63.9120   72.0280 C   0  0  0  0  0  0  0  0  0  0  0  0
    0.6390   62.5760   72.4630 C   0  0  0  0  0  0  0  0  0  0  0  0
   -0.2100   62.1540   73.5900 C   0  0  0  0  0  0  0  0  0  0  0  0
   -0.8670   62.9880   74.2150 O   0  0  0  0  0  0  0  0  0  0  0  0
   -0.2640   60.6730   73.9100 C   0  0  2  0  0  0  0  0  0  0  0  0
    1.0370   55.7300   74.1920 C   0  0  0  0  0  0  0  0  0  0  0  0
   -0.0520   56.3580   73.5850 C   0  0  0  0  0  0  0  0  0  0  0  0
   -0.0460   57.7430   73.3710 C   0  0  0  0  0  0  0  0  0  0  0  0
    1.0540   58.5280   73.7490 C   0  0  0  0  0  0  0  0  0  0  0  0
    2.1430   57.8940   74.3660 C   0  0  0  0  0  0  0  0  0  0  0  0
    2.1290   56.5140   74.5830 C   0  0  0  0  0  0  0  0  0  0  0  0
    0.0460   53.5670   74.0370 C   0  0  0  0  0  0  0  0  0  0  0  0
    1.1290   54.3870   74.4490 O   0  0  0  0  0  0  0  0  0  0  0  0
    3.2000   55.9140   75.1920 O   0  0  0  0  0  0  0  0  0  0  0  0
    3.0060   63.5260   69.1950 O   0  0  0  0  0  0  0  0  0  0  0  0
   -0.5430   60.5430   75.3090 O   0  0  0  0  0  0  0  0  0  0  0  0
   -0.0570   64.8880   72.6590 O   0  0  0  0  0  0  0  0  0  0  0  0
    1.4970   65.7430   70.4840 C   0  0  0  0  0  0  0  0  0  0  0  0
    0.4630   66.0470   69.4290 C   0  0  0  0  0  0  0  0  0  0  0  0
    0.4240   67.0920   68.5760 C   0  0  0  0  0  0  0  0  0  0  0  0
    1.4390   68.2020   68.5230 C   0  0  0  0  0  0  0  0  0  0  0  0
   -0.7140   67.2160   67.5770 C   0  0  0  0  0  0  0  0  0  0  0  0
   -0.9210   68.6560   67.0940 C   0  0  0  0  0  0  0  0  0  0  0  0
   -1.0300   68.7220   65.5930 C   0  0  0  0  0  0  0  0  0  0  0  0
   -0.0260   68.7210   64.6950 C   0  0  0  0  0  0  0  0  0  0  0  0
    1.4390   68.7020   65.0370 C   0  0  0  0  0  0  0  0  0  0  0  0
   -0.3160   68.7540   63.2170 C   0  0  0  0  0  0  0  0  0  0  0  0
    1.8326   60.4972   74.1937 H   0  0  0  0  0  0  0  0  0  0  0  0
    2.7353   61.1976   70.1654 H   0  0  0  0  0  0  0  0  0  0  0  0
   -1.0496   60.1569   73.3386 H   0  0  0  0  0  0  0  0  0  0  0  0
   -0.9215   55.7612   73.2723 H   0  0  0  0  0  0  0  0  0  0  0  0
   -0.9168   58.2220   72.8996 H   0  0  0  0  0  0  0  0  0  0  0  0
    3.0138   58.4876   74.6810 H   0  0  0  0  0  0  0  0  0  0  0  0
   -0.4737   53.1735   74.9230 H   0  0  0  0  0  0  0  0  0  0  0  0
   -0.6559   54.1621   73.4344 H   0  0  0  0  0  0  0  0  0  0  0  0
    0.4284   52.7300   73.4344 H   0  0  0  0  0  0  0  0  0  0  0  0
    3.9781   56.4577   75.4731 H   0  0  0  0  0  0  0  0  0  0  0  0
    3.0890   64.4418   68.8281 H   0  0  0  0  0  0  0  0  0  0  0  0
    0.2190   60.8981   75.8318 H   0  0  0  0  0  0  0  0  0  0  0  0
   -0.6177   64.6577   73.4417 H   0  0  0  0  0  0  0  0  0  0  0  0
    1.3088   66.3816   71.3596 H   0  0  0  0  0  0  0  0  0  0  0  0
    2.4895   65.9400   70.0525 H   0  0  0  0  0  0  0  0  0  0  0  0
   -0.3635   65.3261   69.3441 H   0  0  0  0  0  0  0  0  0  0  0  0
    1.7109   68.4994   69.5465 H   0  0  0  0  0  0  0  0  0  0  0  0
    2.3368   67.8529   67.9919 H   0  0  0  0  0  0  0  0  0  0  0  0
    1.0111   69.0650   67.9919 H   0  0  0  0  0  0  0  0  0  0  0  0
   -0.4895   66.5815   66.7069 H   0  0  0  0  0  0  0  0  0  0  0  0
   -1.6375   66.8988   68.0834 H   0  0  0  0  0  0  0  0  0  0  0  0
   -1.8460   69.0529   67.5378 H   0  0  0  0  0  0  0  0  0  0  0  0
   -0.0513   69.2537   67.4045 H   0  0  0  0  0  0  0  0  0  0  0  0
   -2.0489   68.7775   65.1821 H   0  0  0  0  0  0  0  0  0  0  0  0
    1.5603   68.7004   66.1303 H   0  0  0  0  0  0  0  0  0  0  0  0
    1.9023   67.7978   64.6154 H   0  0  0  0  0  0  0  0  0  0  0  0
    1.9256   69.5939   64.6154 H   0  0  0  0  0  0  0  0  0  0  0  0
   -1.3975   68.8771   63.0582 H   0  0  0  0  0  0  0  0  0  0  0  0
    0.2204   69.5969   62.7568 H   0  0  0  0  0  0  0  0  0  0  0  0
    0.0173   67.8121   62.7568 H   0  0  0  0  0  0  0  0  0  0  0  0
  2  1  1  0
  3  2  1  0
  4  3  2  0
  5  4  1  0
  6  5  2  0
  7  6  1  0
  8  7  2  0
  8  3  1  0
  9  8  1  0
 10  9  2  0
 11  9  1  0
 11  1  1  0
 13 12  2  0
 14 13  1  0
 15 14  2  0
 15  1  1  0
 16 15  1  0
 17 12  1  0
 17 16  2  0
 19 12  1  0
 19 18  1  0
 20 17  1  0
 21  5  1  0
 22 11  1  0
 23  7  1  0
 24  6  1  0
 25 24  1  0
 26 25  2  0
 27 26  1  0
 28 26  1  0
 29 28  1  0
 30 29  1  0
 31 30  2  3
 32 31  1  0
 33 31  1  0
  1 34  1  1
  4 35  1  0
 11 36  1  6
 13 37  1  0
 14 38  1  0
 16 39  1  0
 18 40  1  0
 18 41  1  0
 18 42  1  0
 20 43  1  0
 21 44  1  0
 22 45  1  0
 23 46  1  0
 24 47  1  0
 24 48  1  0
 25 49  1  0
 27 50  1  0
 27 51  1  0
 27 52  1  0
 28 53  1  0
 28 54  1  0
 29 55  1  0
 29 56  1  0
 30 57  1  0
 32 58  1  0
 32 59  1  0
 32 60  1  0
 33 61  1  0
 33 62  1  0
 33 63  1  0
M  END
>  <score>  (3) 
-8.235

$$$$
=
     RDKit          3D

 63 65  0  0  0  0  0  0  0  0999 V2000
    0.6220   64.4580   70.3400 C   0  0  1  0  0  0  0  0  0  0  0  0
    1.7360   63.7820   69.7300 O   0  0  0  0  0  0  0  0  0  0  0  0
    2.1470   62.6610   70.3950 C   0  0  0  0  0  0  0  0  0  0  0  0
    2.8410   61.7190   69.6440 C   0  0  0  0  0  0  0  0  0  0  0  0
    3.2970   60.5420   70.2390 C   0  0  0  0  0  0  0  0  0  0  0  0
    3.0910   60.2850   71.6040 C   0  0  0  0  0  0  0  0  0  0  0  0
    2.4000   61.2580   72.3520 C   0  0  0  0  0  0  0  0  0  0  0  0
    1.9390   62.4410   71.7520 C   0  0  0  0  0  0  0  0  0  0  0  0
    1.2560   63.4880   72.5310 C   0  0  0  0  0  0  0  0  0  0  0  0
    1.0250   63.3150   73.7290 O   0  0  0  0  0  0  0  0  0  0  0  0
    0.8980   64.7750   71.8140 C   0  0  2  0  0  0  0  0  0  0  0  0
   -0.1080   68.0920   68.0490 C   0  0  0  0  0  0  0  0  0  0  0  0
   -1.0750   67.0870   68.0980 C   0  0  0  0  0  0  0  0  0  0  0  0
   -0.8480   65.9150   68.8330 C   0  0  0  0  0  0  0  0  0  0  0  0
    0.3470   65.7290   69.5440 C   0  0  0  0  0  0  0  0  0  0  0  0
    1.3210   66.7370   69.4850 C   0  0  0  0  0  0  0  0  0  0  0  0
    1.0920   67.9000   68.7450 C   0  0  0  0  0  0  0  0  0  0  0  0
   -1.3360   69.4020   66.4820 C   0  0  0  0  0  0  0  0  0  0  0  0
   -0.2290   69.2700   67.3600 O   0  0  0  0  0  0  0  0  0  0  0  0
    2.0580   68.8710   68.6970 O   0  0  0  0  0  0  0  0  0  0  0  0
    3.9400   59.6790   69.3960 O   0  0  0  0  0  0  0  0  0  0  0  0
   -0.2540   65.3250   72.4630 O   0  0  0  0  0  0  0  0  0  0  0  0
    2.2030   61.0130   73.6900 O   0  0  0  0  0  0  0  0  0  0  0  0
    3.5590   59.0080   72.2700 C   0  0  0  0  0  0  0  0  0  0  0  0
    2.4230   58.0470   72.5150 C   0  0  0  0  0  0  0  0  0  0  0  0
    2.0230   57.5090   73.6860 C   0  0  0  0  0  0  0  0  0  0  0  0
    2.6700   57.7680   75.0210 C   0  0  0  0  0  0  0  0  0  0  0  0
    0.8430   56.5540   73.7220 C   0  0  0  0  0  0  0  0  0  0  0  0
   -0.3360   57.1000   74.5360 C   0  0  0  0  0  0  0  0  0  0  0  0
   -0.9150   58.3370   73.9020 C   0  0  0  0  0  0  0  0  0  0  0  0
   -0.9180   59.5900   74.3970 C   0  0  0  0  0  0  0  0  0  0  0  0
   -0.3680   59.9910   75.7380 C   0  0  0  0  0  0  0  0  0  0  0  0
   -1.5120   60.7270   73.6070 C   0  0  0  0  0  0  0  0  0  0  0  0
   -0.2633   63.8054   70.3221 H   0  0  0  0  0  0  0  0  0  0  0  0
    3.0314   61.9023   68.5762 H   0  0  0  0  0  0  0  0  0  0  0  0
    1.7161   65.5093   71.8529 H   0  0  0  0  0  0  0  0  0  0  0  0
   -2.0232   67.2155   67.5554 H   0  0  0  0  0  0  0  0  0  0  0  0
   -1.6181   65.1298   68.8525 H   0  0  0  0  0  0  0  0  0  0  0  0
    2.2711   66.6110   70.0248 H   0  0  0  0  0  0  0  0  0  0  0  0
   -2.2592   69.5121   67.0699 H   0  0  0  0  0  0  0  0  0  0  0  0
   -1.1971   70.2899   65.8478 H   0  0  0  0  0  0  0  0  0  0  0  0
   -1.4098   68.5063   65.8478 H   0  0  0  0  0  0  0  0  0  0  0  0
    2.9102   68.7460   69.1851 H   0  0  0  0  0  0  0  0  0  0  0  0
    4.2937   58.8212   69.7412 H   0  0  0  0  0  0  0  0  0  0  0  0
   -0.1377   65.2695   73.4446 H   0  0  0  0  0  0  0  0  0  0  0  0
    1.7216   61.6736   74.2485 H   0  0  0  0  0  0  0  0  0  0  0  0
    4.3018   58.5211   71.6210 H   0  0  0  0  0  0  0  0  0  0  0  0
    3.9940   59.2740   73.2447 H   0  0  0  0  0  0  0  0  0  0  0  0
    1.8477   57.7466   71.6268 H   0  0  0  0  0  0  0  0  0  0  0  0
    1.9740   57.4894   75.8260 H   0  0  0  0  0  0  0  0  0  0  0  0
    3.5881   57.1681   75.1061 H   0  0  0  0  0  0  0  0  0  0  0  0
    2.9205   58.8357   75.1061 H   0  0  0  0  0  0  0  0  0  0  0  0
    0.5050   56.3733   72.6909 H   0  0  0  0  0  0  0  0  0  0  0  0
    1.1809   55.6268   74.2079 H   0  0  0  0  0  0  0  0  0  0  0  0
   -1.1179   56.3286   74.5951 H   0  0  0  0  0  0  0  0  0  0  0  0
    0.0287   57.3636   75.5397 H   0  0  0  0  0  0  0  0  0  0  0  0
   -1.3913   58.2018   72.9197 H   0  0  0  0  0  0  0  0  0  0  0  0
   -0.9812   59.5440   76.5344 H   0  0  0  0  0  0  0  0  0  0  0  0
    0.6689   59.6354   75.8303 H   0  0  0  0  0  0  0  0  0  0  0  0
   -0.3894   61.0869   75.8303 H   0  0  0  0  0  0  0  0  0  0  0  0
   -1.9084   61.4857   74.2978 H   0  0  0  0  0  0  0  0  0  0  0  0
   -0.7346   61.1786   72.9732 H   0  0  0  0  0  0  0  0  0  0  0  0
   -2.3267   60.3468   72.9732 H   0  0  0  0  0  0  0  0  0  0  0  0
  2  1  1  0
  3  2  1  0
  4  3  2  0
  5  4  1  0
  6  5  2  0
  7  6  1  0
  8  7  2  0
  8  3  1  0
  9  8  1  0
 10  9  2  0
 11  9  1  0
 11  1  1  0
 13 12  2  0
 14 13  1  0
 15 14  2  0
 15  1  1  0
 16 15  1  0
 17 12  1  0
 17 16  2  0
 19 12  1  0
 19 18  1  0
 20 17  1  0
 21  5  1  0
 22 11  1  0
 23  7  1  0
 24  6  1  0
 25 24  1  0
 26 25  2  0
 27 26  1  0
 28 26  1  0
 29 28  1  0
 30 29  1  0
 31 30  2  3
 32 31  1  0
 33 31  1  0
  1 34  1  1
  4 35  1  0
 11 36  1  6
 13 37  1  0
 14 38  1  0
 16 39  1  0
 18 40  1  0
 18 41  1  0
 18 42  1  0
 20 43  1  0
 21 44  1  0
 22 45  1  0
 23 46  1  0
 24 47  1  0
 24 48  1  0
 25 49  1  0
 27 50  1  0
 27 51  1  0
 27 52  1  0
 28 53  1  0
 28 54  1  0
 29 55  1  0
 29 56  1  0
 30 57  1  0
 32 58  1  0
 32 59  1  0
 32 60  1  0
 33 61  1  0
 33 62  1  0
 33 63  1  0
M  END
>  <score>  (4) 
-8.184

$$$$
=
     RDKit          3D

 63 65  0  0  0  0  0  0  0  0999 V2000
    1.5720   58.3580   72.3130 C   0  0  1  0  0  0  0  0  0  0  0  0
    1.2080   59.5200   73.0790 O   0  0  0  0  0  0  0  0  0  0  0  0
    1.4680   60.7080   72.4570 C   0  0  0  0  0  0  0  0  0  0  0  0
    0.7220   61.8020   72.8820 C   0  0  0  0  0  0  0  0  0  0  0  0
    0.9190   63.0560   72.3000 C   0  0  0  0  0  0  0  0  0  0  0  0
    1.8800   63.2550   71.2960 C   0  0  0  0  0  0  0  0  0  0  0  0
    2.6370   62.1380   70.8900 C   0  0  0  0  0  0  0  0  0  0  0  0
    2.4370   60.8760   71.4730 C   0  0  0  0  0  0  0  0  0  0  0  0
    3.2520   59.7100   71.0930 C   0  0  0  0  0  0  0  0  0  0  0  0
    4.0980   59.8130   70.2020 O   0  0  0  0  0  0  0  0  0  0  0  0
    3.0340   58.4210   71.8590 C   0  0  2  0  0  0  0  0  0  0  0  0
    0.8700   54.8540   74.8070 C   0  0  0  0  0  0  0  0  0  0  0  0
   -0.1840   55.4340   74.0990 C   0  0  0  0  0  0  0  0  0  0  0  0
    0.0340   56.5610   73.2940 C   0  0  0  0  0  0  0  0  0  0  0  0
    1.3130   57.1250   73.1720 C   0  0  0  0  0  0  0  0  0  0  0  0
    2.3680   56.5450   73.8930 C   0  0  0  0  0  0  0  0  0  0  0  0
    2.1430   55.4260   74.6990 C   0  0  0  0  0  0  0  0  0  0  0  0
    0.0650   53.9200   76.8470 C   0  0  0  0  0  0  0  0  0  0  0  0
    0.7630   53.7580   75.6220 O   0  0  0  0  0  0  0  0  0  0  0  0
    3.1860   54.8770   75.3990 O   0  0  0  0  0  0  0  0  0  0  0  0
    0.1090   64.0480   72.7780 O   0  0  0  0  0  0  0  0  0  0  0  0
    3.3670   57.3360   70.9850 O   0  0  0  0  0  0  0  0  0  0  0  0
    3.5840   62.3310   69.9130 O   0  0  0  0  0  0  0  0  0  0  0  0
    2.1000   64.6000   70.6370 C   0  0  0  0  0  0  0  0  0  0  0  0
    0.8660   65.0900   69.9220 C   0  0  0  0  0  0  0  0  0  0  0  0
    0.5820   66.3430   69.5100 C   0  0  0  0  0  0  0  0  0  0  0  0
    1.4760   67.5390   69.7060 C   0  0  0  0  0  0  0  0  0  0  0  0
   -0.7290   66.6330   68.8000 C   0  0  0  0  0  0  0  0  0  0  0  0
   -0.5780   67.6720   67.6820 C   0  0  0  0  0  0  0  0  0  0  0  0
    0.1370   67.0950   66.4890 C   0  0  0  0  0  0  0  0  0  0  0  0
    1.2770   67.5340   65.9220 C   0  0  0  0  0  0  0  0  0  0  0  0
    2.0490   68.7490   66.3600 C   0  0  0  0  0  0  0  0  0  0  0  0
    1.8790   66.8090   64.7460 C   0  0  0  0  0  0  0  0  0  0  0  0
    0.9637   58.3119   71.3977 H   0  0  0  0  0  0  0  0  0  0  0  0
   -0.0258   61.6791   73.6793 H   0  0  0  0  0  0  0  0  0  0  0  0
    3.6671   58.3638   72.7567 H   0  0  0  0  0  0  0  0  0  0  0  0
   -1.1935   55.0035   74.1733 H   0  0  0  0  0  0  0  0  0  0  0  0
   -0.8102   57.0097   72.7500 H   0  0  0  0  0  0  0  0  0  0  0  0
    3.3785   56.9740   73.8232 H   0  0  0  0  0  0  0  0  0  0  0  0
    0.7567   53.7595   77.6871 H   0  0  0  0  0  0  0  0  0  0  0  0
   -0.3483   54.9379   76.9017 H   0  0  0  0  0  0  0  0  0  0  0  0
   -0.7544   53.1882   76.9017 H   0  0  0  0  0  0  0  0  0  0  0  0
    4.0909   55.2728   75.3306 H   0  0  0  0  0  0  0  0  0  0  0  0
    0.1858   64.9667   72.4172 H   0  0  0  0  0  0  0  0  0  0  0  0
    3.6108   56.5416   71.5232 H   0  0  0  0  0  0  0  0  0  0  0  0
    4.1358   61.5704   69.6013 H   0  0  0  0  0  0  0  0  0  0  0  0
    2.3767   65.3325   71.4096 H   0  0  0  0  0  0  0  0  0  0  0  0
    2.9004   64.4849   69.8912 H   0  0  0  0  0  0  0  0  0  0  0  0
    0.1003   64.3294   69.7094 H   0  0  0  0  0  0  0  0  0  0  0  0
    1.6128   67.7221   70.7820 H   0  0  0  0  0  0  0  0  0  0  0  0
    2.4534   67.3465   69.2396 H   0  0  0  0  0  0  0  0  0  0  0  0
    1.0147   68.4220   69.2396 H   0  0  0  0  0  0  0  0  0  0  0  0
   -1.1070   65.6972   68.3624 H   0  0  0  0  0  0  0  0  0  0  0  0
   -1.4267   67.0442   69.5444 H   0  0  0  0  0  0  0  0  0  0  0  0
   -1.5772   68.0109   67.3710 H   0  0  0  0  0  0  0  0  0  0  0  0
    0.0165   68.5129   68.0687 H   0  0  0  0  0  0  0  0  0  0  0  0
   -0.3262   66.2111   66.0262 H   0  0  0  0  0  0  0  0  0  0  0  0
    2.0752   68.7903   67.4589 H   0  0  0  0  0  0  0  0  0  0  0  0
    3.0761   68.6908   65.9706 H   0  0  0  0  0  0  0  0  0  0  0  0
    1.5600   69.6541   65.9706 H   0  0  0  0  0  0  0  0  0  0  0  0
    2.5425   66.0100   65.1084 H   0  0  0  0  0  0  0  0  0  0  0  0
    1.0760   66.3702   64.1356 H   0  0  0  0  0  0  0  0  0  0  0  0
    2.4580   67.5177   64.1356 H   0  0  0  0  0  0  0  0  0  0  0  0
  2  1  1  0
  3  2  1  0
  4  3  2  0
  5  4  1  0
  6  5  2  0
  7  6  1  0
  8  7  2  0
  8  3  1  0
  9  8  1  0
 10  9  2  0
 11  9  1  0
 11  1  1  0
 13 12  2  0
 14 13  1  0
 15 14  2  0
 15  1  1  0
 16 15  1  0
 17 12  1  0
 17 16  2  0
 19 12  1  0
 19 18  1  0
 20 17  1  0
 21  5  1  0
 22 11  1  0
 23  7  1  0
 24  6  1  0
 25 24  1  0
 26 25  2  0
 27 26  1  0
 28 26  1  0
 29 28  1  0
 30 29  1  0
 31 30  2  3
 32 31  1  0
 33 31  1  0
  1 34  1  6
  4 35  1  0
 11 36  1  1
 13 37  1  0
 14 38  1  0
 16 39  1  0
 18 40  1  0
 18 41  1  0
 18 42  1  0
 20 43  1  0
 21 44  1  0
 22 45  1  0
 23 46  1  0
 24 47  1  0
 24 48  1  0
 25 49  1  0
 27 50  1  0
 27 51  1  0
 27 52  1  0
 28 53  1  0
 28 54  1  0
 29 55  1  0
 29 56  1  0
 30 57  1  0
 32 58  1  0
 32 59  1  0
 32 60  1  0
 33 61  1  0
 33 62  1  0
 33 63  1  0
M  END
>  <score>  (5) 
-8.059

$$$$
=
     RDKit          3D

 63 65  0  0  0  0  0  0  0  0999 V2000
    0.5810   64.4670   70.3420 C   0  0  1  0  0  0  0  0  0  0  0  0
    1.7060   63.7740   69.7700 O   0  0  0  0  0  0  0  0  0  0  0  0
    2.0780   62.6490   70.4520 C   0  0  0  0  0  0  0  0  0  0  0  0
    2.7840   61.6960   69.7260 C   0  0  0  0  0  0  0  0  0  0  0  0
    3.2020   60.5130   70.3390 C   0  0  0  0  0  0  0  0  0  0  0  0
    2.9470   60.2620   71.6960 C   0  0  0  0  0  0  0  0  0  0  0  0
    2.2440   61.2470   72.4190 C   0  0  0  0  0  0  0  0  0  0  0  0
    1.8210   62.4350   71.8010 C   0  0  0  0  0  0  0  0  0  0  0  0
    1.1270   63.4940   72.5540 C   0  0  0  0  0  0  0  0  0  0  0  0
    0.8530   63.3260   73.7440 O   0  0  0  0  0  0  0  0  0  0  0  0
    0.8110   64.7830   71.8230 C   0  0  2  0  0  0  0  0  0  0  0  0
   -0.0190   68.1060   68.0210 C   0  0  0  0  0  0  0  0  0  0  0  0
   -0.9950   67.1080   68.0260 C   0  0  0  0  0  0  0  0  0  0  0  0
   -0.8100   65.9340   68.7700 C   0  0  0  0  0  0  0  0  0  0  0  0
    0.3510   65.7390   69.5340 C   0  0  0  0  0  0  0  0  0  0  0  0
    1.3340   66.7410   69.5190 C   0  0  0  0  0  0  0  0  0  0  0  0
    1.1460   67.9060   68.7700 C   0  0  0  0  0  0  0  0  0  0  0  0
   -1.2150   69.4590   66.4650 C   0  0  0  0  0  0  0  0  0  0  0  0
   -0.1010   69.2840   67.3270 O   0  0  0  0  0  0  0  0  0  0  0  0
    2.1200   68.8700   68.7650 O   0  0  0  0  0  0  0  0  0  0  0  0
    3.8610   59.6390   69.5190 O   0  0  0  0  0  0  0  0  0  0  0  0
   -0.3540   65.3510   72.4320 O   0  0  0  0  0  0  0  0  0  0  0  0
    1.9990   61.0080   73.7490 O   0  0  0  0  0  0  0  0  0  0  0  0
    3.3740   58.9800   72.3800 C   0  0  0  0  0  0  0  0  0  0  0  0
    2.2710   57.9530   72.3970 C   0  0  0  0  0  0  0  0  0  0  0  0
    1.6770   57.3840   73.4670 C   0  0  0  0  0  0  0  0  0  0  0  0
    2.0260   57.6720   74.9040 C   0  0  0  0  0  0  0  0  0  0  0  0
    0.5720   56.3600   73.2700 C   0  0  0  0  0  0  0  0  0  0  0  0
    0.8400   55.0490   74.0200 C   0  0  0  0  0  0  0  0  0  0  0  0
   -0.4000   54.5500   74.7130 C   0  0  0  0  0  0  0  0  0  0  0  0
   -0.8760   53.2910   74.7400 C   0  0  0  0  0  0  0  0  0  0  0  0
   -0.2650   52.1200   74.0200 C   0  0  0  0  0  0  0  0  0  0  0  0
   -2.1210   52.9560   75.5200 C   0  0  0  0  0  0  0  0  0  0  0  0
   -0.3124   63.8268   70.2967 H   0  0  0  0  0  0  0  0  0  0  0  0
    3.0140   61.8746   68.6652 H   0  0  0  0  0  0  0  0  0  0  0  0
    1.6376   65.5059   71.8878 H   0  0  0  0  0  0  0  0  0  0  0  0
   -1.9169   67.2437   67.4414 H   0  0  0  0  0  0  0  0  0  0  0  0
   -1.5861   65.1546   68.7546 H   0  0  0  0  0  0  0  0  0  0  0  0
    2.2583   66.6085   70.1005 H   0  0  0  0  0  0  0  0  0  0  0  0
   -2.1250   69.6019   67.0663 H   0  0  0  0  0  0  0  0  0  0  0  0
   -1.0523   70.3426   65.8304 H   0  0  0  0  0  0  0  0  0  0  0  0
   -1.3311   68.5681   65.8304 H   0  0  0  0  0  0  0  0  0  0  0  0
    2.9484   68.7394   69.2911 H   0  0  0  0  0  0  0  0  0  0  0  0
    4.1901   58.7767   69.8770 H   0  0  0  0  0  0  0  0  0  0  0  0
   -0.2657   65.3079   73.4171 H   0  0  0  0  0  0  0  0  0  0  0  0
    1.5081   61.6763   74.2898 H   0  0  0  0  0  0  0  0  0  0  0  0
    4.2391   58.5628   71.8438 H   0  0  0  0  0  0  0  0  0  0  0  0
    3.6294   59.2207   73.4225 H   0  0  0  0  0  0  0  0  0  0  0  0
    1.9037   57.6259   71.4131 H   0  0  0  0  0  0  0  0  0  0  0  0
    1.3480   57.1125   75.5652 H   0  0  0  0  0  0  0  0  0  0  0  0
    3.0641   57.3642   75.0980 H   0  0  0  0  0  0  0  0  0  0  0  0
    1.9208   58.7496   75.0980 H   0  0  0  0  0  0  0  0  0  0  0  0
   -0.3734   56.7876   73.6353 H   0  0  0  0  0  0  0  0  0  0  0  0
    0.5239   56.1251   72.1965 H   0  0  0  0  0  0  0  0  0  0  0  0
    1.1792   54.2884   73.3014 H   0  0  0  0  0  0  0  0  0  0  0  0
    1.6108   55.2370   74.7819 H   0  0  0  0  0  0  0  0  0  0  0  0
   -0.9857   55.3024   75.2616 H   0  0  0  0  0  0  0  0  0  0  0  0
    0.1135   51.3945   74.7551 H   0  0  0  0  0  0  0  0  0  0  0  0
   -1.0272   51.6391   73.3892 H   0  0  0  0  0  0  0  0  0  0  0  0
    0.5654   52.4701   73.3892 H   0  0  0  0  0  0  0  0  0  0  0  0
   -1.9056   53.0140   76.5971 H   0  0  0  0  0  0  0  0  0  0  0  0
   -2.9165   53.6720   75.2661 H   0  0  0  0  0  0  0  0  0  0  0  0
   -2.4498   51.9374   75.2661 H   0  0  0  0  0  0  0  0  0  0  0  0
  2  1  1  0
  3  2  1  0
  4  3  2  0
  5  4  1  0
  6  5  2  0
  7  6  1  0
  8  7  2  0
  8  3  1  0
  9  8  1  0
 10  9  2  0
 11  9  1  0
 11  1  1  0
 13 12  2  0
 14 13  1  0
 15 14  2  0
 15  1  1  0
 16 15  1  0
 17 12  1  0
 17 16  2  0
 19 12  1  0
 19 18  1  0
 20 17  1  0
 21  5  1  0
 22 11  1  0
 23  7  1  0
 24  6  1  0
 25 24  1  0
 26 25  2  0
 27 26  1  0
 28 26  1  0
 29 28  1  0
 30 29  1  0
 31 30  2  3
 32 31  1  0
 33 31  1  0
  1 34  1  1
  4 35  1  0
 11 36  1  6
 13 37  1  0
 14 38  1  0
 16 39  1  0
 18 40  1  0
 18 41  1  0
 18 42  1  0
 20 43  1  0
 21 44  1  0
 22 45  1  0
 23 46  1  0
 24 47  1  0
 24 48  1  0
 25 49  1  0
 27 50  1  0
 27 51  1  0
 27 52  1  0
 28 53  1  0
 28 54  1  0
 29 55  1  0
 29 56  1  0
 30 57  1  0
 32 58  1  0
 32 59  1  0
 32 60  1  0
 33 61  1  0
 33 62  1  0
 33 63  1  0
M  END
>  <score>  (6) 
-7.707

$$$$
=
     RDKit          3D

 63 65  0  0  0  0  0  0  0  0999 V2000
    1.3460   60.3910   72.1760 C   0  0  1  0  0  0  0  0  0  0  0  0
    0.9410   61.5970   72.8490 O   0  0  0  0  0  0  0  0  0  0  0  0
    1.0890   62.7330   72.1040 C   0  0  0  0  0  0  0  0  0  0  0  0
    0.2920   63.8140   72.4640 C   0  0  0  0  0  0  0  0  0  0  0  0
    0.3730   65.0140   71.7570 C   0  0  0  0  0  0  0  0  0  0  0  0
    1.2680   65.1750   70.6870 C   0  0  0  0  0  0  0  0  0  0  0  0
    2.0780   64.0740   70.3470 C   0  0  0  0  0  0  0  0  0  0  0  0
    1.9940   62.8650   71.0560 C   0  0  0  0  0  0  0  0  0  0  0  0
    2.8680   61.7210   70.7430 C   0  0  0  0  0  0  0  0  0  0  0  0
    3.6590   61.7890   69.8010 O   0  0  0  0  0  0  0  0  0  0  0  0
    2.7760   60.5020   71.6390 C   0  0  2  0  0  0  0  0  0  0  0  0
    1.0160   57.1050   75.0190 C   0  0  0  0  0  0  0  0  0  0  0  0
   -0.1340   57.7010   74.4990 C   0  0  0  0  0  0  0  0  0  0  0  0
   -0.0370   58.7580   73.5840 C   0  0  0  0  0  0  0  0  0  0  0  0
    1.2140   59.2340   73.1610 C   0  0  0  0  0  0  0  0  0  0  0  0
    2.3680   58.6390   73.6940 C   0  0  0  0  0  0  0  0  0  0  0  0
    2.2640   57.5900   74.6110 C   0  0  0  0  0  0  0  0  0  0  0  0
    0.0300   56.0690   76.9260 C   0  0  0  0  0  0  0  0  0  0  0  0
    1.0300   56.0720   75.9190 O   0  0  0  0  0  0  0  0  0  0  0  0
    3.4020   57.0250   75.1230 O   0  0  0  0  0  0  0  0  0  0  0  0
   -0.4780   65.9960   72.1840 O   0  0  0  0  0  0  0  0  0  0  0  0
    3.1380   59.3600   70.8540 O   0  0  0  0  0  0  0  0  0  0  0  0
    2.9610   64.2290   69.3050 O   0  0  0  0  0  0  0  0  0  0  0  0
    1.3630   66.4600   69.8920 C   0  0  0  0  0  0  0  0  0  0  0  0
    0.3030   66.5460   68.8240 C   0  0  0  0  0  0  0  0  0  0  0  0
    0.0330   67.5770   67.9970 C   0  0  0  0  0  0  0  0  0  0  0  0
    0.7620   68.8950   67.9930 C   0  0  0  0  0  0  0  0  0  0  0  0
   -1.0880   67.4630   66.9770 C   0  0  0  0  0  0  0  0  0  0  0  0
   -0.9420   68.4630   65.8240 C   0  0  0  0  0  0  0  0  0  0  0  0
    0.4090   68.3500   65.1680 C   0  0  0  0  0  0  0  0  0  0  0  0
    0.7430   68.6980   63.9110 C   0  0  0  0  0  0  0  0  0  0  0  0
   -0.2110   69.2380   62.8800 C   0  0  0  0  0  0  0  0  0  0  0  0
    2.1620   68.5520   63.4240 C   0  0  0  0  0  0  0  0  0  0  0  0
    0.6989   60.2173   71.3036 H   0  0  0  0  0  0  0  0  0  0  0  0
   -0.4053   63.7227   73.3098 H   0  0  0  0  0  0  0  0  0  0  0  0
    3.4546   60.5737   72.5018 H   0  0  0  0  0  0  0  0  0  0  0  0
   -1.1247   57.3380   74.8100 H   0  0  0  0  0  0  0  0  0  0  0  0
   -0.9543   59.2213   73.1916 H   0  0  0  0  0  0  0  0  0  0  0  0
    3.3606   59.0008   73.3878 H   0  0  0  0  0  0  0  0  0  0  0  0
    0.5075   56.0704   77.9169 H   0  0  0  0  0  0  0  0  0  0  0  0
   -0.5990   56.9653   76.8208 H   0  0  0  0  0  0  0  0  0  0  0  0
   -0.5936   55.1690   76.8208 H   0  0  0  0  0  0  0  0  0  0  0  0
    4.2904   57.3595   74.8420 H   0  0  0  0  0  0  0  0  0  0  0  0
   -0.4819   66.8778   71.7340 H   0  0  0  0  0  0  0  0  0  0  0  0
    3.3760   58.6092   71.4538 H   0  0  0  0  0  0  0  0  0  0  0  0
    3.5470   63.4775   69.0368 H   0  0  0  0  0  0  0  0  0  0  0  0
    1.2446   67.3113   70.5785 H   0  0  0  0  0  0  0  0  0  0  0  0
    2.3450   66.4800   69.3968 H   0  0  0  0  0  0  0  0  0  0  0  0
   -0.3308   65.6551   68.7036 H   0  0  0  0  0  0  0  0  0  0  0  0
    0.9408   69.2183   69.0291 H   0  0  0  0  0  0  0  0  0  0  0  0
    1.7247   68.7799   67.4735 H   0  0  0  0  0  0  0  0  0  0  0  0
    0.1529   69.6494   67.4735 H   0  0  0  0  0  0  0  0  0  0  0  0
   -1.0841   66.4443   66.5621 H   0  0  0  0  0  0  0  0  0  0  0  0
   -2.0324   67.6876   67.4944 H   0  0  0  0  0  0  0  0  0  0  0  0
   -1.7219   68.2620   65.0747 H   0  0  0  0  0  0  0  0  0  0  0  0
   -1.0457   69.4795   66.2314 H   0  0  0  0  0  0  0  0  0  0  0  0
    1.2171   67.9347   65.7882 H   0  0  0  0  0  0  0  0  0  0  0  0
   -1.0618   69.7196   63.3843 H   0  0  0  0  0  0  0  0  0  0  0  0
    0.3081   69.9762   62.2511 H   0  0  0  0  0  0  0  0  0  0  0  0
   -0.5767   68.4130   62.2511 H   0  0  0  0  0  0  0  0  0  0  0  0
    2.8405   68.4822   64.2870 H   0  0  0  0  0  0  0  0  0  0  0  0
    2.2486   67.6402   62.8148 H   0  0  0  0  0  0  0  0  0  0  0  0
    2.4324   69.4271   62.8148 H   0  0  0  0  0  0  0  0  0  0  0  0
  2  1  1  0
  3  2  1  0
  4  3  2  0
  5  4  1  0
  6  5  2  0
  7  6  1  0
  8  7  2  0
  8  3  1  0
  9  8  1  0
 10  9  2  0
 11  9  1  0
 11  1  1  0
 13 12  2  0
 14 13  1  0
 15 14  2  0
 15  1  1  0
 16 15  1  0
 17 12  1  0
 17 16  2  0
 19 12  1  0
 19 18  1  0
 20 17  1  0
 21  5  1  0
 22 11  1  0
 23  7  1  0
 24  6  1  0
 25 24  1  0
 26 25  2  0
 27 26  1  0
 28 26  1  0
 29 28  1  0
 30 29  1  0
 31 30  2  3
 32 31  1  0
 33 31  1  0
  1 34  1  6
  4 35  1  0
 11 36  1  1
 13 37  1  0
 14 38  1  0
 16 39  1  0
 18 40  1  0
 18 41  1  0
 18 42  1  0
 20 43  1  0
 21 44  1  0
 22 45  1  0
 23 46  1  0
 24 47  1  0
 24 48  1  0
 25 49  1  0
 27 50  1  0
 27 51  1  0
 27 52  1  0
 28 53  1  0
 28 54  1  0
 29 55  1  0
 29 56  1  0
 30 57  1  0
 32 58  1  0
 32 59  1  0
 32 60  1  0
 33 61  1  0
 33 62  1  0
 33 63  1  0
M  END
>  <score>  (7) 
-7.682

$$$$
=
     RDKit          3D

 63 65  0  0  0  0  0  0  0  0999 V2000
    1.1080   65.3910   70.7660 C   0  0  1  0  0  0  0  0  0  0  0  0
    0.1020   65.3450   71.7940 O   0  0  0  0  0  0  0  0  0  0  0  0
    0.4060   64.5190   72.8400 C   0  0  0  0  0  0  0  0  0  0  0  0
   -0.2340   64.7910   74.0440 C   0  0  0  0  0  0  0  0  0  0  0  0
    0.0170   64.0020   75.1680 C   0  0  0  0  0  0  0  0  0  0  0  0
    0.8950   62.9070   75.1130 C   0  0  0  0  0  0  0  0  0  0  0  0
    1.5210   62.6380   73.8790 C   0  0  0  0  0  0  0  0  0  0  0  0
    1.2700   63.4340   72.7500 C   0  0  0  0  0  0  0  0  0  0  0  0
    1.8810   63.1360   71.4430 C   0  0  0  0  0  0  0  0  0  0  0  0
    2.6770   62.2030   71.3320 O   0  0  0  0  0  0  0  0  0  0  0  0
    1.4600   63.9880   70.2620 C   0  0  2  0  0  0  0  0  0  0  0  0
   -0.3320   67.9040   67.5100 C   0  0  0  0  0  0  0  0  0  0  0  0
   -1.1560   66.9150   68.0500 C   0  0  0  0  0  0  0  0  0  0  0  0
   -0.7000   66.1030   69.0970 C   0  0  0  0  0  0  0  0  0  0  0  0
    0.5850   66.2700   69.6350 C   0  0  0  0  0  0  0  0  0  0  0  0
    1.4140   67.2600   69.0830 C   0  0  0  0  0  0  0  0  0  0  0  0
    0.9560   68.0620   68.0340 C   0  0  0  0  0  0  0  0  0  0  0  0
   -2.0420   68.7690   66.0920 C   0  0  0  0  0  0  0  0  0  0  0  0
   -0.6790   68.7450   66.4860 O   0  0  0  0  0  0  0  0  0  0  0  0
    1.7820   69.0190   67.5060 O   0  0  0  0  0  0  0  0  0  0  0  0
   -0.6460   64.3820   76.3020 O   0  0  0  0  0  0  0  0  0  0  0  0
    2.5520   64.0150   69.3370 O   0  0  0  0  0  0  0  0  0  0  0  0
    2.3740   61.5630   73.8190 O   0  0  0  0  0  0  0  0  0  0  0  0
    1.1980   62.0470   76.3210 C   0  0  0  0  0  0  0  0  0  0  0  0
    0.2220   60.9080   76.4660 C   0  0  0  0  0  0  0  0  0  0  0  0
    0.4470   59.5880   76.2940 C   0  0  0  0  0  0  0  0  0  0  0  0
    1.7670   58.9810   75.8980 C   0  0  0  0  0  0  0  0  0  0  0  0
   -0.6830   58.5910   76.4920 C   0  0  0  0  0  0  0  0  0  0  0  0
   -1.4470   58.2990   75.1950 C   0  0  0  0  0  0  0  0  0  0  0  0
   -2.7330   59.0800   75.1280 C   0  0  0  0  0  0  0  0  0  0  0  0
   -2.9720   60.2130   74.4410 C   0  0  0  0  0  0  0  0  0  0  0  0
   -1.9530   60.9610   73.6250 C   0  0  0  0  0  0  0  0  0  0  0  0
   -4.3390   60.8460   74.4550 C   0  0  0  0  0  0  0  0  0  0  0  0
    2.0371   65.8159   71.1737 H   0  0  0  0  0  0  0  0  0  0  0  0
   -0.9409   65.6311   74.1111 H   0  0  0  0  0  0  0  0  0  0  0  0
    0.5724   63.5800   69.7564 H   0  0  0  0  0  0  0  0  0  0  0  0
   -2.1709   66.7720   67.6506 H   0  0  0  0  0  0  0  0  0  0  0  0
   -1.3598   65.3224   69.5035 H   0  0  0  0  0  0  0  0  0  0  0  0
    2.4301   67.4052   69.4787 H   0  0  0  0  0  0  0  0  0  0  0  0
   -2.6821   68.7803   66.9865 H   0  0  0  0  0  0  0  0  0  0  0  0
   -2.2344   69.6707   65.4920 H   0  0  0  0  0  0  0  0  0  0  0  0
   -2.2661   67.8747   65.4920 H   0  0  0  0  0  0  0  0  0  0  0  0
    2.6952   69.1396   67.8688 H   0  0  0  0  0  0  0  0  0  0  0  0
   -0.5215   63.8733   77.1421 H   0  0  0  0  0  0  0  0  0  0  0  0
    3.4068   64.0361   69.8360 H   0  0  0  0  0  0  0  0  0  0  0  0
    2.8327   61.3418   72.9700 H   0  0  0  0  0  0  0  0  0  0  0  0
    2.2121   61.6338   76.2167 H   0  0  0  0  0  0  0  0  0  0  0  0
    1.1147   62.6801   77.2167 H   0  0  0  0  0  0  0  0  0  0  0  0
   -0.8039   61.1876   76.7477 H   0  0  0  0  0  0  0  0  0  0  0  0
    2.3362   58.7193   76.8022 H   0  0  0  0  0  0  0  0  0  0  0  0
    1.5893   58.0742   75.3013 H   0  0  0  0  0  0  0  0  0  0  0  0
    2.3398   59.7062   75.3013 H   0  0  0  0  0  0  0  0  0  0  0  0
   -0.2593   57.6492   76.8707 H   0  0  0  0  0  0  0  0  0  0  0  0
   -1.3947   59.0321   77.2053 H   0  0  0  0  0  0  0  0  0  0  0  0
   -0.8155   58.5748   74.3376 H   0  0  0  0  0  0  0  0  0  0  0  0
   -1.6911   57.2267   75.1705 H   0  0  0  0  0  0  0  0  0  0  0  0
   -3.5761   58.6774   75.7086 H   0  0  0  0  0  0  0  0  0  0  0  0
   -1.2513   61.4761   74.2975 H   0  0  0  0  0  0  0  0  0  0  0  0
   -1.3999   60.2529   72.9905 H   0  0  0  0  0  0  0  0  0  0  0  0
   -2.4628   61.7009   72.9905 H   0  0  0  0  0  0  0  0  0  0  0  0
   -4.6630   60.9960   75.4955 H   0  0  0  0  0  0  0  0  0  0  0  0
   -4.2987   61.8171   73.9399 H   0  0  0  0  0  0  0  0  0  0  0  0
   -5.0535   60.1871   73.9399 H   0  0  0  0  0  0  0  0  0  0  0  0
  2  1  1  0
  3  2  1  0
  4  3  2  0
  5  4  1  0
  6  5  2  0
  7  6  1  0
  8  7  2  0
  8  3  1  0
  9  8  1  0
 10  9  2  0
 11  9  1  0
 11  1  1  0
 13 12  2  0
 14 13  1  0
 15 14  2  0
 15  1  1  0
 16 15  1  0
 17 12  1  0
 17 16  2  0
 19 12  1  0
 19 18  1  0
 20 17  1  0
 21  5  1  0
 22 11  1  0
 23  7  1  0
 24  6  1  0
 25 24  1  0
 26 25  2  0
 27 26  1  0
 28 26  1  0
 29 28  1  0
 30 29  1  0
 31 30  2  3
 32 31  1  0
 33 31  1  0
  1 34  1  1
  4 35  1  0
 11 36  1  6
 13 37  1  0
 14 38  1  0
 16 39  1  0
 18 40  1  0
 18 41  1  0
 18 42  1  0
 20 43  1  0
 21 44  1  0
 22 45  1  0
 23 46  1  0
 24 47  1  0
 24 48  1  0
 25 49  1  0
 27 50  1  0
 27 51  1  0
 27 52  1  0
 28 53  1  0
 28 54  1  0
 29 55  1  0
 29 56  1  0
 30 57  1  0
 32 58  1  0
 32 59  1  0
 32 60  1  0
 33 61  1  0
 33 62  1  0
 33 63  1  0
M  END
>  <score>  (8) 
-7.353

$$$$
=
     RDKit          3D

 63 65  0  0  0  0  0  0  0  0999 V2000
   -1.3740   59.2470   75.2530 C   0  0  1  0  0  0  0  0  0  0  0  0
   -0.8620   58.6910   74.0280 O   0  0  0  0  0  0  0  0  0  0  0  0
    0.4380   59.0200   73.7630 C   0  0  0  0  0  0  0  0  0  0  0  0
    1.1290   58.1600   72.9160 C   0  0  0  0  0  0  0  0  0  0  0  0
    2.4630   58.4140   72.5920 C   0  0  0  0  0  0  0  0  0  0  0  0
    3.1340   59.5440   73.0850 C   0  0  0  0  0  0  0  0  0  0  0  0
    2.4120   60.4110   73.9290 C   0  0  0  0  0  0  0  0  0  0  0  0
    1.0710   60.1540   74.2580 C   0  0  0  0  0  0  0  0  0  0  0  0
    0.2910   61.0760   75.1000 C   0  0  0  0  0  0  0  0  0  0  0  0
    0.8270   62.0750   75.5840 O   0  0  0  0  0  0  0  0  0  0  0  0
   -1.1790   60.7660   75.3050 C   0  0  2  0  0  0  0  0  0  0  0  0
   -5.5810   58.1670   75.6090 C   0  0  0  0  0  0  0  0  0  0  0  0
   -5.2060   59.2990   74.8820 C   0  0  0  0  0  0  0  0  0  0  0  0
   -3.8550   59.6520   74.7620 C   0  0  0  0  0  0  0  0  0  0  0  0
   -2.8500   58.8760   75.3590 C   0  0  0  0  0  0  0  0  0  0  0  0
   -3.2310   57.7450   76.0960 C   0  0  0  0  0  0  0  0  0  0  0  0
   -4.5800   57.4010   76.2170 C   0  0  0  0  0  0  0  0  0  0  0  0
   -7.7390   58.5750   76.5360 C   0  0  0  0  0  0  0  0  0  0  0  0
   -6.8700   57.7380   75.7890 O   0  0  0  0  0  0  0  0  0  0  0  0
   -4.9330   56.2950   76.9460 O   0  0  0  0  0  0  0  0  0  0  0  0
    3.0460   57.4850   71.7750 O   0  0  0  0  0  0  0  0  0  0  0  0
   -1.5630   61.3080   76.5730 O   0  0  0  0  0  0  0  0  0  0  0  0
    3.0640   61.5230   74.4080 O   0  0  0  0  0  0  0  0  0  0  0  0
    4.5850   59.8320   72.7640 C   0  0  0  0  0  0  0  0  0  0  0  0
    4.7450   61.0830   71.9370 C   0  0  0  0  0  0  0  0  0  0  0  0
    4.4580   61.2620   70.6300 C   0  0  0  0  0  0  0  0  0  0  0  0
    3.9130   60.2000   69.7120 C   0  0  0  0  0  0  0  0  0  0  0  0
    4.6920   62.6140   69.9780 C   0  0  0  0  0  0  0  0  0  0  0  0
    3.8780   63.7350   70.6350 C   0  0  0  0  0  0  0  0  0  0  0  0
    2.4530   63.7360   70.1490 C   0  0  0  0  0  0  0  0  0  0  0  0
    1.3320   63.6580   70.8920 C   0  0  0  0  0  0  0  0  0  0  0  0
    1.2940   63.5040   72.3880 C   0  0  0  0  0  0  0  0  0  0  0  0
   -0.0260   63.7110   70.2410 C   0  0  0  0  0  0  0  0  0  0  0  0
   -0.8197   58.8331   76.1082 H   0  0  0  0  0  0  0  0  0  0  0  0
    0.6226   57.2766   72.4999 H   0  0  0  0  0  0  0  0  0  0  0  0
   -1.8073   61.2129   74.5205 H   0  0  0  0  0  0  0  0  0  0  0  0
   -5.9768   59.9182   74.3999 H   0  0  0  0  0  0  0  0  0  0  0  0
   -3.5784   60.5508   74.1913 H   0  0  0  0  0  0  0  0  0  0  0  0
   -2.4631   57.1250   76.5817 H   0  0  0  0  0  0  0  0  0  0  0  0
   -7.5703   58.4125   77.6108 H   0  0  0  0  0  0  0  0  0  0  0  0
   -7.5371   59.6275   76.2881 H   0  0  0  0  0  0  0  0  0  0  0  0
   -8.7832   58.3337   76.2881 H   0  0  0  0  0  0  0  0  0  0  0  0
   -4.2341   55.7450   77.3809 H   0  0  0  0  0  0  0  0  0  0  0  0
    3.9905   57.5922   71.4984 H   0  0  0  0  0  0  0  0  0  0  0  0
   -1.1735   60.7583   77.2984 H   0  0  0  0  0  0  0  0  0  0  0  0
    2.5905   62.1561   75.0038 H   0  0  0  0  0  0  0  0  0  0  0  0
    5.1389   59.9563   73.7062 H   0  0  0  0  0  0  0  0  0  0  0  0
    4.9771   58.9867   72.1794 H   0  0  0  0  0  0  0  0  0  0  0  0
    5.1462   61.9604   72.4655 H   0  0  0  0  0  0  0  0  0  0  0  0
    3.4916   59.3789   70.3106 H   0  0  0  0  0  0  0  0  0  0  0  0
    3.1256   60.6327   69.0774 H   0  0  0  0  0  0  0  0  0  0  0  0
    4.7237   59.8126   69.0774 H   0  0  0  0  0  0  0  0  0  0  0  0
    5.7607   62.8625   70.0563 H   0  0  0  0  0  0  0  0  0  0  0  0
    4.3684   62.5383   68.9294 H   0  0  0  0  0  0  0  0  0  0  0  0
    3.8842   63.5900   71.7254 H   0  0  0  0  0  0  0  0  0  0  0  0
    4.3361   64.6985   70.3669 H   0  0  0  0  0  0  0  0  0  0  0  0
    2.3107   63.8089   69.0607 H   0  0  0  0  0  0  0  0  0  0  0  0
    1.5318   64.4677   72.8620 H   0  0  0  0  0  0  0  0  0  0  0  0
    0.2892   63.1810   72.6980 H   0  0  0  0  0  0  0  0  0  0  0  0
    2.0332   62.7507   72.6980 H   0  0  0  0  0  0  0  0  0  0  0  0
   -0.8041   63.7414   71.0179 H   0  0  0  0  0  0  0  0  0  0  0  0
   -0.0976   64.6126   69.6149 H   0  0  0  0  0  0  0  0  0  0  0  0
   -0.1676   62.8177   69.6149 H   0  0  0  0  0  0  0  0  0  0  0  0
  2  1  1  0
  3  2  1  0
  4  3  2  0
  5  4  1  0
  6  5  2  0
  7  6  1  0
  8  7  2  0
  8  3  1  0
  9  8  1  0
 10  9  2  0
 11  9  1  0
 11  1  1  0
 13 12  2  0
 14 13  1  0
 15 14  2  0
 15  1  1  0
 16 15  1  0
 17 12  1  0
 17 16  2  0
 19 12  1  0
 19 18  1  0
 20 17  1  0
 21  5  1  0
 22 11  1  0
 23  7  1  0
 24  6  1  0
 25 24  1  0
 26 25  2  0
 27 26  1  0
 28 26  1  0
 29 28  1  0
 30 29  1  0
 31 30  2  3
 32 31  1  0
 33 31  1  0
  1 34  1  1
  4 35  1  0
 11 36  1  6
 13 37  1  0
 14 38  1  0
 16 39  1  0
 18 40  1  0
 18 41  1  0
 18 42  1  0
 20 43  1  0
 21 44  1  0
 22 45  1  0
 23 46  1  0
 24 47  1  0
 24 48  1  0
 25 49  1  0
 27 50  1  0
 27 51  1  0
 27 52  1  0
 28 53  1  0
 28 54  1  0
 29 55  1  0
 29 56  1  0
 30 57  1  0
 32 58  1  0
 32 59  1  0
 32 60  1  0
 33 61  1  0
 33 62  1  0
 33 63  1  0
M  END
>  <score>  (9) 
-7.275

$$$$
