=
     RDKit          3D

 26 25  0  0  0  0  0  0  0  0999 V2000
    1.5890   68.3810   66.1490 N   0  0  0  0  0  0  0  0  0  0  0  0
    0.9700   67.2950   65.6080 C   0  0  0  0  0  0  0  0  0  0  0  0
    1.2330   66.7860   64.5300 O   0  0  0  0  0  0  0  0  0  0  0  0
    2.7850   68.9430   65.5700 C   0  0  0  0  0  0  0  0  0  0  0  0
    3.7350   69.4510   66.6500 C   0  0  0  0  0  0  0  0  0  0  0  0
    6.0660   70.2700   67.1450 C   0  0  0  0  0  0  0  0  0  0  0  0
    5.1300   69.7140   66.0830 C   0  0  0  0  0  0  0  0  0  0  0  0
    0.0200   66.8580   66.4690 O   0  0  0  0  0  0  0  0  0  0  0  0
   -0.8330   67.8950   66.9760 C   0  0  0  0  0  0  0  0  0  0  0  0
   -2.0620   67.2550   67.6180 C   0  0  0  0  0  0  0  0  0  0  0  0
   -3.2280   68.0580   67.4440 O   0  0  0  0  0  0  0  0  0  0  0  0
    1.1920   68.8133   66.9954 H   0  0  0  0  0  0  0  0  0  0  0  0
    3.2954   68.1685   64.9786 H   0  0  0  0  0  0  0  0  0  0  0  0
    2.4974   69.7917   64.9321 H   0  0  0  0  0  0  0  0  0  0  0  0
    3.3355   70.3870   67.0674 H   0  0  0  0  0  0  0  0  0  0  0  0
    3.8170   68.6807   67.4309 H   0  0  0  0  0  0  0  0  0  0  0  0
    5.6690   70.0342   68.1434 H   0  0  0  0  0  0  0  0  0  0  0  0
    7.0617   69.8168   67.0298 H   0  0  0  0  0  0  0  0  0  0  0  0
    6.1443   71.3612   67.0298 H   0  0  0  0  0  0  0  0  0  0  0  0
    5.5443   68.7697   65.6999 H   0  0  0  0  0  0  0  0  0  0  0  0
    5.0411   70.4573   65.2770 H   0  0  0  0  0  0  0  0  0  0  0  0
   -0.2892   68.4858   67.7278 H   0  0  0  0  0  0  0  0  0  0  0  0
   -1.1439   68.5568   66.1542 H   0  0  0  0  0  0  0  0  0  0  0  0
   -2.2342   66.2719   67.1556 H   0  0  0  0  0  0  0  0  0  0  0  0
   -1.8723   67.1561   68.6970 H   0  0  0  0  0  0  0  0  0  0  0  0
   -3.5915   68.3084   68.3302 H   0  0  0  0  0  0  0  0  0  0  0  0
  2  1  1  0
  3  2  2  0
  4  1  1  0
  5  4  1  0
  7  5  1  0
  7  6  1  0
  8  2  1  0
  9  8  1  0
 10  9  1  0
 11 10  1  0
  1 12  1  0
  4 13  1  0
  4 14  1  0
  5 15  1  0
  5 16  1  0
  6 17  1  0
  6 18  1  0
  6 19  1  0
  7 20  1  0
  7 21  1  0
  9 22  1  0
  9 23  1  0
 10 24  1  0
 10 25  1  0
 11 26  1  0
M  END
>  <score>  (1) 
-5.541

$$$$
=
     RDKit          3D

 26 25  0  0  0  0  0  0  0  0999 V2000
    1.7500   68.4800   65.2920 N   0  0  0  0  0  0  0  0  0  0  0  0
    1.4720   67.1800   65.5840 C   0  0  0  0  0  0  0  0  0  0  0  0
    2.2570   66.2480   65.5090 O   0  0  0  0  0  0  0  0  0  0  0  0
    3.0970   68.9340   65.0390 C   0  0  0  0  0  0  0  0  0  0  0  0
    3.7680   69.4160   66.3210 C   0  0  0  0  0  0  0  0  0  0  0  0
    5.9140   70.2290   67.3590 C   0  0  0  0  0  0  0  0  0  0  0  0
    5.2210   69.8170   66.0710 C   0  0  0  0  0  0  0  0  0  0  0  0
    0.1830   67.0860   65.9870 O   0  0  0  0  0  0  0  0  0  0  0  0
   -0.2750   68.2140   66.7470 C   0  0  0  0  0  0  0  0  0  0  0  0
   -1.5260   68.7840   66.0810 C   0  0  0  0  0  0  0  0  0  0  0  0
   -1.3860   68.8500   64.6620 O   0  0  0  0  0  0  0  0  0  0  0  0
    0.9771   69.1595   65.2503 H   0  0  0  0  0  0  0  0  0  0  0  0
    3.6824   68.1031   64.6185 H   0  0  0  0  0  0  0  0  0  0  0  0
    3.0533   69.7754   64.3319 H   0  0  0  0  0  0  0  0  0  0  0  0
    3.2177   70.2863   66.7079 H   0  0  0  0  0  0  0  0  0  0  0  0
    3.7560   68.5921   67.0497 H   0  0  0  0  0  0  0  0  0  0  0  0
    5.3256   69.8792   68.2201 H   0  0  0  0  0  0  0  0  0  0  0  0
    6.9180   69.7810   67.3947 H   0  0  0  0  0  0  0  0  0  0  0  0
    6.0001   71.3250   67.3947 H   0  0  0  0  0  0  0  0  0  0  0  0
    5.7577   68.9621   65.6339 H   0  0  0  0  0  0  0  0  0  0  0  0
    5.2288   70.6764   65.3845 H   0  0  0  0  0  0  0  0  0  0  0  0
   -0.5149   67.8957   67.7722 H   0  0  0  0  0  0  0  0  0  0  0  0
    0.5109   68.9827   66.7837 H   0  0  0  0  0  0  0  0  0  0  0  0
   -2.3842   68.1405   66.3249 H   0  0  0  0  0  0  0  0  0  0  0  0
   -1.6794   69.8059   66.4580 H   0  0  0  0  0  0  0  0  0  0  0  0
   -0.5143   69.2609   64.4352 H   0  0  0  0  0  0  0  0  0  0  0  0
  2  1  1  0
  3  2  2  0
  4  1  1  0
  5  4  1  0
  7  5  1  0
  7  6  1  0
  8  2  1  0
  9  8  1  0
 10  9  1  0
 11 10  1  0
  1 12  1  0
  4 13  1  0
  4 14  1  0
  5 15  1  0
  5 16  1  0
  6 17  1  0
  6 18  1  0
  6 19  1  0
  7 20  1  0
  7 21  1  0
  9 22  1  0
  9 23  1  0
 10 24  1  0
 10 25  1  0
 11 26  1  0
M  END
>  <score>  (2) 
-5.522

$$$$
=
     RDKit          3D

 26 25  0  0  0  0  0  0  0  0999 V2000
    4.8290   67.5230   63.8700 N   0  0  0  0  0  0  0  0  0  0  0  0
    4.3900   66.9950   62.6950 C   0  0  0  0  0  0  0  0  0  0  0  0
    4.0140   67.6310   61.7230 O   0  0  0  0  0  0  0  0  0  0  0  0
    5.0840   68.9350   64.0240 C   0  0  0  0  0  0  0  0  0  0  0  0
    4.5310   69.4570   65.3470 C   0  0  0  0  0  0  0  0  0  0  0  0
    5.1580   70.2460   67.6550 C   0  0  0  0  0  0  0  0  0  0  0  0
    5.6440   70.0120   66.2340 C   0  0  0  0  0  0  0  0  0  0  0  0
    4.4500   65.6440   62.7710 O   0  0  0  0  0  0  0  0  0  0  0  0
    3.9000   65.1010   63.9800 C   0  0  0  0  0  0  0  0  0  0  0  0
    4.5290   63.7330   64.2380 C   0  0  0  0  0  0  0  0  0  0  0  0
    4.8950   63.0820   63.0220 O   0  0  0  0  0  0  0  0  0  0  0  0
    4.9838   66.8965   64.6728 H   0  0  0  0  0  0  0  0  0  0  0  0
    6.1699   69.1082   63.9962 H   0  0  0  0  0  0  0  0  0  0  0  0
    4.5836   69.4698   63.2033 H   0  0  0  0  0  0  0  0  0  0  0  0
    3.8046   70.2570   65.1409 H   0  0  0  0  0  0  0  0  0  0  0  0
    4.0500   68.6211   65.8760 H   0  0  0  0  0  0  0  0  0  0  0  0
    5.9144   69.8818   68.3658 H   0  0  0  0  0  0  0  0  0  0  0  0
    4.9936   71.3220   67.8138 H   0  0  0  0  0  0  0  0  0  0  0  0
    4.2143   69.7035   67.8138 H   0  0  0  0  0  0  0  0  0  0  0  0
    6.4767   69.2935   66.2546 H   0  0  0  0  0  0  0  0  0  0  0  0
    5.9697   70.9764   65.8170 H   0  0  0  0  0  0  0  0  0  0  0  0
    4.1214   65.7740   64.8214 H   0  0  0  0  0  0  0  0  0  0  0  0
    2.8095   64.9973   63.8801 H   0  0  0  0  0  0  0  0  0  0  0  0
    5.4291   63.8655   64.8562 H   0  0  0  0  0  0  0  0  0  0  0  0
    3.7860   63.1057   64.7523 H   0  0  0  0  0  0  0  0  0  0  0  0
    5.3694   62.2382   63.2293 H   0  0  0  0  0  0  0  0  0  0  0  0
  2  1  1  0
  3  2  2  0
  4  1  1  0
  5  4  1  0
  7  5  1  0
  7  6  1  0
  8  2  1  0
  9  8  1  0
 10  9  1  0
 11 10  1  0
  1 12  1  0
  4 13  1  0
  4 14  1  0
  5 15  1  0
  5 16  1  0
  6 17  1  0
  6 18  1  0
  6 19  1  0
  7 20  1  0
  7 21  1  0
  9 22  1  0
  9 23  1  0
 10 24  1  0
 10 25  1  0
 11 26  1  0
M  END
>  <score>  (3) 
-5.456

$$$$
=
     RDKit          3D

 26 25  0  0  0  0  0  0  0  0999 V2000
    3.1290   67.6510   65.1400 N   0  0  0  0  0  0  0  0  0  0  0  0
    2.1570   66.8250   65.6160 C   0  0  0  0  0  0  0  0  0  0  0  0
    1.2690   67.1400   66.3920 O   0  0  0  0  0  0  0  0  0  0  0  0
    3.0950   69.0760   65.3620 C   0  0  0  0  0  0  0  0  0  0  0  0
    3.9760   69.4730   66.5420 C   0  0  0  0  0  0  0  0  0  0  0  0
    6.1590   70.5520   67.1880 C   0  0  0  0  0  0  0  0  0  0  0  0
    5.3820   69.8540   66.0820 C   0  0  0  0  0  0  0  0  0  0  0  0
    2.3240   65.5940   65.0780 O   0  0  0  0  0  0  0  0  0  0  0  0
    3.5050   65.4630   64.2720 C   0  0  0  0  0  0  0  0  0  0  0  0
    3.9990   64.0200   64.3490 C   0  0  0  0  0  0  0  0  0  0  0  0
    4.6240   63.6090   63.1340 O   0  0  0  0  0  0  0  0  0  0  0  0
    3.9114   67.2467   64.6058 H   0  0  0  0  0  0  0  0  0  0  0  0
    3.4548   69.5884   64.4576 H   0  0  0  0  0  0  0  0  0  0  0  0
    2.0588   69.3681   65.5879 H   0  0  0  0  0  0  0  0  0  0  0  0
    3.5214   70.3334   67.0550 H   0  0  0  0  0  0  0  0  0  0  0  0
    4.0547   68.6116   67.2216 H   0  0  0  0  0  0  0  0  0  0  0  0
    5.7854   70.2164   68.1666 H   0  0  0  0  0  0  0  0  0  0  0  0
    7.2269   70.3040   67.0986 H   0  0  0  0  0  0  0  0  0  0  0  0
    6.0265   71.6403   67.0986 H   0  0  0  0  0  0  0  0  0  0  0  0
    5.9213   68.9418   65.7869 H   0  0  0  0  0  0  0  0  0  0  0  0
    5.2919   70.5470   65.2325 H   0  0  0  0  0  0  0  0  0  0  0  0
    3.2697   65.7175   63.2280 H   0  0  0  0  0  0  0  0  0  0  0  0
    4.2856   66.1443   64.6413 H   0  0  0  0  0  0  0  0  0  0  0  0
    4.7264   63.9359   65.1699 H   0  0  0  0  0  0  0  0  0  0  0  0
    3.1293   63.3694   64.5235 H   0  0  0  0  0  0  0  0  0  0  0  0
    5.4327   63.0772   63.3423 H   0  0  0  0  0  0  0  0  0  0  0  0
  2  1  1  0
  3  2  2  0
  4  1  1  0
  5  4  1  0
  7  5  1  0
  7  6  1  0
  8  2  1  0
  9  8  1  0
 10  9  1  0
 11 10  1  0
  1 12  1  0
  4 13  1  0
  4 14  1  0
  5 15  1  0
  5 16  1  0
  6 17  1  0
  6 18  1  0
  6 19  1  0
  7 20  1  0
  7 21  1  0
  9 22  1  0
  9 23  1  0
 10 24  1  0
 10 25  1  0
 11 26  1  0
M  END
>  <score>  (4) 
-5.358

$$$$
=
     RDKit          3D

 26 25  0  0  0  0  0  0  0  0999 V2000
    4.7090   69.4770   65.5070 N   0  0  0  0  0  0  0  0  0  0  0  0
    3.4940   69.1250   65.0050 C   0  0  0  0  0  0  0  0  0  0  0  0
    2.4800   68.9320   65.6570 O   0  0  0  0  0  0  0  0  0  0  0  0
    4.8820   69.8550   66.8890 C   0  0  0  0  0  0  0  0  0  0  0  0
    6.2770   70.4210   67.1370 C   0  0  0  0  0  0  0  0  0  0  0  0
    7.4000   70.8800   69.3450 C   0  0  0  0  0  0  0  0  0  0  0  0
    6.3040   71.3070   68.3810 C   0  0  0  0  0  0  0  0  0  0  0  0
    3.5850   69.0380   63.6560 O   0  0  0  0  0  0  0  0  0  0  0  0
    4.9210   68.8400   63.1720 C   0  0  0  0  0  0  0  0  0  0  0  0
    5.0020   67.4750   62.4910 C   0  0  0  0  0  0  0  0  0  0  0  0
    4.1510   67.4030   61.3470 O   0  0  0  0  0  0  0  0  0  0  0  0
    5.5284   69.4735   64.8829 H   0  0  0  0  0  0  0  0  0  0  0  0
    4.1339   70.6186   67.1482 H   0  0  0  0  0  0  0  0  0  0  0  0
    4.7544   68.9584   67.5134 H   0  0  0  0  0  0  0  0  0  0  0  0
    6.9822   69.5881   67.2750 H   0  0  0  0  0  0  0  0  0  0  0  0
    6.5624   71.0332   66.2688 H   0  0  0  0  0  0  0  0  0  0  0  0
    7.0517   71.0157   70.3795 H   0  0  0  0  0  0  0  0  0  0  0  0
    7.6445   69.8209   69.1764 H   0  0  0  0  0  0  0  0  0  0  0  0
    8.2966   71.4946   69.1764 H   0  0  0  0  0  0  0  0  0  0  0  0
    6.4830   72.3482   68.0746 H   0  0  0  0  0  0  0  0  0  0  0  0
    5.3359   71.2111   68.8944 H   0  0  0  0  0  0  0  0  0  0  0  0
    5.1726   69.6294   62.4484 H   0  0  0  0  0  0  0  0  0  0  0  0
    5.6317   68.8815   64.0105 H   0  0  0  0  0  0  0  0  0  0  0  0
    6.0402   67.2958   62.1746 H   0  0  0  0  0  0  0  0  0  0  0  0
    4.6717   66.7126   63.2119 H   0  0  0  0  0  0  0  0  0  0  0  0
    3.2090   67.3233   61.6409 H   0  0  0  0  0  0  0  0  0  0  0  0
  2  1  1  0
  3  2  2  0
  4  1  1  0
  5  4  1  0
  7  5  1  0
  7  6  1  0
  8  2  1  0
  9  8  1  0
 10  9  1  0
 11 10  1  0
  1 12  1  0
  4 13  1  0
  4 14  1  0
  5 15  1  0
  5 16  1  0
  6 17  1  0
  6 18  1  0
  6 19  1  0
  7 20  1  0
  7 21  1  0
  9 22  1  0
  9 23  1  0
 10 24  1  0
 10 25  1  0
 11 26  1  0
M  END
>  <score>  (5) 
-5.349

$$$$
=
     RDKit          3D

 26 25  0  0  0  0  0  0  0  0999 V2000
    4.5950   69.6250   66.5940 N   0  0  0  0  0  0  0  0  0  0  0  0
    3.7780   69.3020   65.5540 C   0  0  0  0  0  0  0  0  0  0  0  0
    4.0800   69.3320   64.3720 O   0  0  0  0  0  0  0  0  0  0  0  0
    6.0070   69.8600   66.4100 C   0  0  0  0  0  0  0  0  0  0  0  0
    6.4890   71.0310   67.2600 C   0  0  0  0  0  0  0  0  0  0  0  0
    7.5270   70.8850   69.5500 C   0  0  0  0  0  0  0  0  0  0  0  0
    6.2420   70.7770   68.7460 C   0  0  0  0  0  0  0  0  0  0  0  0
    2.5720   68.9260   66.0440 O   0  0  0  0  0  0  0  0  0  0  0  0
    2.4200   69.1440   67.4540 C   0  0  0  0  0  0  0  0  0  0  0  0
    0.9470   69.4160   67.7550 C   0  0  0  0  0  0  0  0  0  0  0  0
    0.7700   70.6410   68.4640 O   0  0  0  0  0  0  0  0  0  0  0  0
    4.1938   69.7039   67.5394 H   0  0  0  0  0  0  0  0  0  0  0  0
    6.5616   68.9551   66.6991 H   0  0  0  0  0  0  0  0  0  0  0  0
    6.1836   70.1031   65.3518 H   0  0  0  0  0  0  0  0  0  0  0  0
    7.5672   71.1735   67.0952 H   0  0  0  0  0  0  0  0  0  0  0  0
    5.9279   71.9294   66.9634 H   0  0  0  0  0  0  0  0  0  0  0  0
    7.2903   70.8651   70.6240 H   0  0  0  0  0  0  0  0  0  0  0  0
    8.1857   70.0390   69.3040 H   0  0  0  0  0  0  0  0  0  0  0  0
    8.0352   71.8290   69.3040 H   0  0  0  0  0  0  0  0  0  0  0  0
    5.5222   71.5196   69.1208 H   0  0  0  0  0  0  0  0  0  0  0  0
    5.8473   69.7567   68.8611 H   0  0  0  0  0  0  0  0  0  0  0  0
    2.7507   68.2505   68.0039 H   0  0  0  0  0  0  0  0  0  0  0  0
    3.0301   70.0042   67.7668 H   0  0  0  0  0  0  0  0  0  0  0  0
    0.3935   69.4704   66.8059 H   0  0  0  0  0  0  0  0  0  0  0  0
    0.5695   68.5976   68.3857 H   0  0  0  0  0  0  0  0  0  0  0  0
    0.7954   70.4652   69.4379 H   0  0  0  0  0  0  0  0  0  0  0  0
  2  1  1  0
  3  2  2  0
  4  1  1  0
  5  4  1  0
  7  5  1  0
  7  6  1  0
  8  2  1  0
  9  8  1  0
 10  9  1  0
 11 10  1  0
  1 12  1  0
  4 13  1  0
  4 14  1  0
  5 15  1  0
  5 16  1  0
  6 17  1  0
  6 18  1  0
  6 19  1  0
  7 20  1  0
  7 21  1  0
  9 22  1  0
  9 23  1  0
 10 24  1  0
 10 25  1  0
 11 26  1  0
M  END
>  <score>  (6) 
-5.271

$$$$
=
     RDKit          3D

 26 25  0  0  0  0  0  0  0  0999 V2000
    4.5540   69.7660   65.9240 N   0  0  0  0  0  0  0  0  0  0  0  0
    4.4400   69.3920   64.6200 C   0  0  0  0  0  0  0  0  0  0  0  0
    5.3000   69.5190   63.7620 O   0  0  0  0  0  0  0  0  0  0  0  0
    5.8130   70.1900   66.4880 C   0  0  0  0  0  0  0  0  0  0  0  0
    5.7050   70.3800   67.9980 C   0  0  0  0  0  0  0  0  0  0  0  0
    7.3660   70.6630   69.8710 C   0  0  0  0  0  0  0  0  0  0  0  0
    6.8720   71.2050   68.5380 C   0  0  0  0  0  0  0  0  0  0  0  0
    3.2190   68.8400   64.4260 O   0  0  0  0  0  0  0  0  0  0  0  0
    3.1720   67.4250   64.6650 C   0  0  0  0  0  0  0  0  0  0  0  0
    1.9240   67.1040   65.4850 C   0  0  0  0  0  0  0  0  0  0  0  0
    1.1240   66.1010   64.8580 O   0  0  0  0  0  0  0  0  0  0  0  0
    3.7179   69.7458   66.5252 H   0  0  0  0  0  0  0  0  0  0  0  0
    6.5763   69.4268   66.2761 H   0  0  0  0  0  0  0  0  0  0  0  0
    6.0911   71.1529   66.0348 H   0  0  0  0  0  0  0  0  0  0  0  0
    4.7627   70.8990   68.2274 H   0  0  0  0  0  0  0  0  0  0  0  0
    5.7296   69.3893   68.4755 H   0  0  0  0  0  0  0  0  0  0  0  0
    6.8730   71.2039   70.6922 H   0  0  0  0  0  0  0  0  0  0  0  0
    7.1273   69.5916   69.9423 H   0  0  0  0  0  0  0  0  0  0  0  0
    8.4549   70.8016   69.9423 H   0  0  0  0  0  0  0  0  0  0  0  0
    7.6975   71.1752   67.8116 H   0  0  0  0  0  0  0  0  0  0  0  0
    6.5240   72.2371   68.6918 H   0  0  0  0  0  0  0  0  0  0  0  0
    3.1312   66.8894   63.7051 H   0  0  0  0  0  0  0  0  0  0  0  0
    4.0710   67.1094   65.2147 H   0  0  0  0  0  0  0  0  0  0  0  0
    2.2324   66.7449   66.4779 H   0  0  0  0  0  0  0  0  0  0  0  0
    1.3222   68.0211   65.5671 H   0  0  0  0  0  0  0  0  0  0  0  0
    0.6836   65.5488   65.5517 H   0  0  0  0  0  0  0  0  0  0  0  0
  2  1  1  0
  3  2  2  0
  4  1  1  0
  5  4  1  0
  7  5  1  0
  7  6  1  0
  8  2  1  0
  9  8  1  0
 10  9  1  0
 11 10  1  0
  1 12  1  0
  4 13  1  0
  4 14  1  0
  5 15  1  0
  5 16  1  0
  6 17  1  0
  6 18  1  0
  6 19  1  0
  7 20  1  0
  7 21  1  0
  9 22  1  0
  9 23  1  0
 10 24  1  0
 10 25  1  0
 11 26  1  0
M  END
>  <score>  (7) 
-5.154

$$$$
=
     RDKit          3D

 26 25  0  0  0  0  0  0  0  0999 V2000
    2.1750   68.7280   65.8580 N   0  0  0  0  0  0  0  0  0  0  0  0
    0.8580   68.4750   66.0920 C   0  0  0  0  0  0  0  0  0  0  0  0
    0.2790   68.6270   67.1570 O   0  0  0  0  0  0  0  0  0  0  0  0
    3.0050   69.4040   66.8260 C   0  0  0  0  0  0  0  0  0  0  0  0
    4.4400   69.5400   66.3260 C   0  0  0  0  0  0  0  0  0  0  0  0
    5.5410   68.4170   64.3570 C   0  0  0  0  0  0  0  0  0  0  0  0
    4.5080   69.4410   64.8030 C   0  0  0  0  0  0  0  0  0  0  0  0
    0.2840   68.0400   64.9460 O   0  0  0  0  0  0  0  0  0  0  0  0
    0.8280   68.6330   63.7570 C   0  0  0  0  0  0  0  0  0  0  0  0
   -0.3200   69.0150   62.8260 C   0  0  0  0  0  0  0  0  0  0  0  0
   -1.5910   68.8220   63.4460 O   0  0  0  0  0  0  0  0  0  0  0  0
    2.5910   68.4284   64.9646 H   0  0  0  0  0  0  0  0  0  0  0  0
    2.5938   70.4071   67.0125 H   0  0  0  0  0  0  0  0  0  0  0  0
    3.0143   68.8094   67.7514 H   0  0  0  0  0  0  0  0  0  0  0  0
    4.8380   70.5163   66.6399 H   0  0  0  0  0  0  0  0  0  0  0  0
    5.0364   68.7211   66.7545 H   0  0  0  0  0  0  0  0  0  0  0  0
    6.0059   67.9562   65.2410 H   0  0  0  0  0  0  0  0  0  0  0  0
    5.0497   67.6394   63.7537 H   0  0  0  0  0  0  0  0  0  0  0  0
    6.3143   68.9151   63.7537 H   0  0  0  0  0  0  0  0  0  0  0  0
    3.5209   69.1434   64.4196 H   0  0  0  0  0  0  0  0  0  0  0  0
    4.8020   70.4237   64.4058 H   0  0  0  0  0  0  0  0  0  0  0  0
    1.4030   69.5323   64.0226 H   0  0  0  0  0  0  0  0  0  0  0  0
    1.4936   67.9163   63.2537 H   0  0  0  0  0  0  0  0  0  0  0  0
   -0.2162   70.0744   62.5486 H   0  0  0  0  0  0  0  0  0  0  0  0
   -0.2705   68.3675   61.9381 H   0  0  0  0  0  0  0  0  0  0  0  0
   -1.4840   68.8382   64.4301 H   0  0  0  0  0  0  0  0  0  0  0  0
  2  1  1  0
  3  2  2  0
  4  1  1  0
  5  4  1  0
  7  5  1  0
  7  6  1  0
  8  2  1  0
  9  8  1  0
 10  9  1  0
 11 10  1  0
  1 12  1  0
  4 13  1  0
  4 14  1  0
  5 15  1  0
  5 16  1  0
  6 17  1  0
  6 18  1  0
  6 19  1  0
  7 20  1  0
  7 21  1  0
  9 22  1  0
  9 23  1  0
 10 24  1  0
 10 25  1  0
 11 26  1  0
M  END
>  <score>  (8) 
-5.035

$$$$
=
     RDKit          3D

 26 25  0  0  0  0  0  0  0  0999 V2000
    2.0730   66.8810   65.9030 N   0  0  0  0  0  0  0  0  0  0  0  0
    0.8280   67.4270   65.8390 C   0  0  0  0  0  0  0  0  0  0  0  0
    0.2940   67.8730   64.8360 O   0  0  0  0  0  0  0  0  0  0  0  0
    2.8390   66.5890   64.7160 C   0  0  0  0  0  0  0  0  0  0  0  0
    3.1680   65.1030   64.6210 C   0  0  0  0  0  0  0  0  0  0  0  0
    4.9410   63.4740   63.8800 C   0  0  0  0  0  0  0  0  0  0  0  0
    4.3340   64.8510   63.6660 C   0  0  0  0  0  0  0  0  0  0  0  0
    0.2650   67.3850   67.0710 O   0  0  0  0  0  0  0  0  0  0  0  0
   -0.9470   68.1450   67.1870 C   0  0  0  0  0  0  0  0  0  0  0  0
   -2.1100   67.1860   67.4300 C   0  0  0  0  0  0  0  0  0  0  0  0
   -3.3470   67.8820   67.5770 O   0  0  0  0  0  0  0  0  0  0  0  0
    2.4800   66.6702   66.8254 H   0  0  0  0  0  0  0  0  0  0  0  0
    2.2556   66.8842   63.8314 H   0  0  0  0  0  0  0  0  0  0  0  0
    3.7831   67.1514   64.7648 H   0  0  0  0  0  0  0  0  0  0  0  0
    3.4372   64.7312   65.6207 H   0  0  0  0  0  0  0  0  0  0  0  0
    2.2832   64.5761   64.2343 H   0  0  0  0  0  0  0  0  0  0  0  0
    5.0285   63.2754   64.9584 H   0  0  0  0  0  0  0  0  0  0  0  0
    4.2950   62.7127   63.4182 H   0  0  0  0  0  0  0  0  0  0  0  0
    5.9387   63.4373   63.4182 H   0  0  0  0  0  0  0  0  0  0  0  0
    3.9703   64.9244   62.6305 H   0  0  0  0  0  0  0  0  0  0  0  0
    5.1104   65.6050   63.8624 H   0  0  0  0  0  0  0  0  0  0  0  0
   -0.8640   68.8462   68.0305 H   0  0  0  0  0  0  0  0  0  0  0  0
   -1.1202   68.7144   66.2619 H   0  0  0  0  0  0  0  0  0  0  0  0
   -2.1881   66.4970   66.5761 H   0  0  0  0  0  0  0  0  0  0  0  0
   -1.9126   66.6375   68.3628 H   0  0  0  0  0  0  0  0  0  0  0  0
   -3.5493   67.9958   68.5394 H   0  0  0  0  0  0  0  0  0  0  0  0
  2  1  1  0
  3  2  2  0
  4  1  1  0
  5  4  1  0
  7  5  1  0
  7  6  1  0
  8  2  1  0
  9  8  1  0
 10  9  1  0
 11 10  1  0
  1 12  1  0
  4 13  1  0
  4 14  1  0
  5 15  1  0
  5 16  1  0
  6 17  1  0
  6 18  1  0
  6 19  1  0
  7 20  1  0
  7 21  1  0
  9 22  1  0
  9 23  1  0
 10 24  1  0
 10 25  1  0
 11 26  1  0
M  END
>  <score>  (9) 
-4.971

$$$$
