=
     RDKit          3D

 60 63  0  0  0  0  0  0  0  0999 V2000
    1.4230   57.0980   74.8900 C   0  0  2  0  0  0  0  0  0  0  0  0
    0.8070   57.6060   76.2270 C   0  0  0  0  0  0  0  0  0  0  0  0
    0.5710   59.1240   76.0750 C   0  0  0  0  0  0  0  0  0  0  0  0
    0.9230   59.4320   74.6240 C   0  0  2  0  0  0  0  0  0  0  0  0
    2.0430   58.4170   74.3030 C   0  0  1  0  0  0  0  0  0  0  0  0
    3.3870   58.7250   75.0330 C   0  0  0  0  0  0  0  0  0  0  0  0
    2.3070   58.4560   72.7850 C   0  0  0  0  0  0  0  0  0  0  0  0
    2.6400   59.8760   72.2940 C   0  0  0  0  0  0  0  0  0  0  0  0
    1.5960   60.9370   72.7240 C   0  0  1  0  0  0  0  0  0  0  0  0
    1.2960   60.8700   74.2510 C   0  0  1  0  0  0  0  0  0  0  0  0
    0.1810   61.8610   74.6120 C   0  0  0  0  0  0  0  0  0  0  0  0
    0.5760   63.2860   74.2390 C   0  0  0  0  0  0  0  0  0  0  0  0
    0.9800   63.3950   72.7900 C   0  0  0  0  0  0  0  0  0  0  0  0
    0.4740   64.3600   71.9970 C   0  0  0  0  0  0  0  0  0  0  0  0
    0.8970   64.5920   70.5730 C   0  0  2  0  0  0  0  0  0  0  0  0
    2.2300   63.9030   70.2720 C   0  0  0  0  0  0  0  0  0  0  0  0
    2.2250   62.4640   70.7730 C   0  0  0  0  0  0  0  0  0  0  0  0
    2.0020   62.3780   72.2990 C   0  0  2  0  0  0  0  0  0  0  0  0
   -0.4760   56.0490   73.3060 C   0  0  0  0  0  0  0  0  0  0  0  0
    0.3750   56.5260   74.0070 C   0  0  0  0  0  0  0  0  0  0  0  0
    1.0430   66.0120   70.4080 O   0  0  0  0  0  0  0  0  0  0  0  0
    0.4270   66.5430   69.3190 C   0  0  0  0  0  0  0  0  0  0  0  0
   -0.6490   66.1880   68.8620 O   0  0  0  0  0  0  0  0  0  0  0  0
    1.2670   67.6430   68.7460 C   0  0  0  0  0  0  0  0  0  0  0  0
    2.4740   56.1300   75.0720 O   0  0  0  0  0  0  0  0  0  0  0  0
    2.2310   54.8300   74.7600 C   0  0  0  0  0  0  0  0  0  0  0  0
    2.4840   54.2770   73.7000 O   0  0  0  0  0  0  0  0  0  0  0  0
    1.5730   54.1510   75.9230 C   0  0  0  0  0  0  0  0  0  0  0  0
   -0.1472   57.0940   76.4206 H   0  0  0  0  0  0  0  0  0  0  0  0
    1.4818   57.3989   77.0707 H   0  0  0  0  0  0  0  0  0  0  0  0
   -0.4803   59.3747   76.2799 H   0  0  0  0  0  0  0  0  0  0  0  0
    1.1769   59.7102   76.7816 H   0  0  0  0  0  0  0  0  0  0  0  0
    0.0165   59.3337   74.0087 H   0  0  0  0  0  0  0  0  0  0  0  0
    3.2299   58.6890   76.1211 H   0  0  0  0  0  0  0  0  0  0  0  0
    4.1400   57.9761   74.7463 H   0  0  0  0  0  0  0  0  0  0  0  0
    3.7387   59.7270   74.7463 H   0  0  0  0  0  0  0  0  0  0  0  0
    3.1539   57.7929   72.5547 H   0  0  0  0  0  0  0  0  0  0  0  0
    1.3917   58.1252   72.2724 H   0  0  0  0  0  0  0  0  0  0  0  0
    3.6195   60.1653   72.7024 H   0  0  0  0  0  0  0  0  0  0  0  0
    2.6397   59.8475   71.1944 H   0  0  0  0  0  0  0  0  0  0  0  0
    0.6685   60.6894   72.1869 H   0  0  0  0  0  0  0  0  0  0  0  0
    2.1883   61.1571   74.8267 H   0  0  0  0  0  0  0  0  0  0  0  0
   -0.7344   61.5869   74.0671 H   0  0  0  0  0  0  0  0  0  0  0  0
    0.0103   61.8169   75.6978 H   0  0  0  0  0  0  0  0  0  0  0  0
   -0.2805   63.9519   74.4207 H   0  0  0  0  0  0  0  0  0  0  0  0
    1.4393   63.5740   74.8569 H   0  0  0  0  0  0  0  0  0  0  0  0
   -0.2981   65.0204   72.4186 H   0  0  0  0  0  0  0  0  0  0  0  0
    0.1474   64.1760   69.8838 H   0  0  0  0  0  0  0  0  0  0  0  0
    2.3989   63.9051   69.1850 H   0  0  0  0  0  0  0  0  0  0  0  0
    3.0326   64.4512   70.7872 H   0  0  0  0  0  0  0  0  0  0  0  0
    1.4180   61.9151   70.2656 H   0  0  0  0  0  0  0  0  0  0  0  0
    3.2090   62.0256   70.5504 H   0  0  0  0  0  0  0  0  0  0  0  0
    2.9614   62.6248   72.7772 H   0  0  0  0  0  0  0  0  0  0  0  0
   -1.2552   55.6122   72.6641 H   0  0  0  0  0  0  0  0  0  0  0  0
    1.7134   68.2275   69.5640 H   0  0  0  0  0  0  0  0  0  0  0  0
    2.0660   67.2095   68.1266 H   0  0  0  0  0  0  0  0  0  0  0  0
    0.6384   68.2997   68.1266 H   0  0  0  0  0  0  0  0  0  0  0  0
    1.9720   54.5628   76.8617 H   0  0  0  0  0  0  0  0  0  0  0  0
    0.4870   54.3210   75.8804 H   0  0  0  0  0  0  0  0  0  0  0  0
    1.7770   53.0709   75.8804 H   0  0  0  0  0  0  0  0  0  0  0  0
  2  1  1  0
  3  2  1  0
  4  3  1  0
  5  4  1  0
  5  1  1  0
  5  6  1  1
  7  5  1  0
  8  7  1  0
  9  8  1  0
 10  4  1  0
 10  9  1  0
 11 10  1  0
 12 11  1  0
 13 12  1  0
 14 13  2  0
 15 14  1  0
 16 15  1  0
 17 16  1  0
 18 17  1  0
 18 13  1  0
 18  9  1  0
 20 19  3  0
  1 20  1  6
 21 15  1  0
 22 21  1  0
 23 22  2  0
 24 22  1  0
 25  1  1  0
 26 25  1  0
 27 26  2  0
 28 26  1  0
  2 29  1  0
  2 30  1  0
  3 31  1  0
  3 32  1  0
  4 33  1  6
  6 34  1  0
  6 35  1  0
  6 36  1  0
  7 37  1  0
  7 38  1  0
  8 39  1  0
  8 40  1  0
  9 41  1  6
 10 42  1  1
 11 43  1  0
 11 44  1  0
 12 45  1  0
 12 46  1  0
 14 47  1  0
 15 48  1  6
 16 49  1  0
 16 50  1  0
 17 51  1  0
 17 52  1  0
 18 53  1  1
 19 54  1  0
 24 55  1  0
 24 56  1  0
 24 57  1  0
 28 58  1  0
 28 59  1  0
 28 60  1  0
M  END
>  <score>  (1) 
-8.252

$$$$
=
     RDKit          3D

 60 63  0  0  0  0  0  0  0  0999 V2000
    2.1340   58.2530   75.7220 C   0  0  2  0  0  0  0  0  0  0  0  0
    3.6490   57.9920   75.4730 C   0  0  0  0  0  0  0  0  0  0  0  0
    4.1080   58.9710   74.3730 C   0  0  0  0  0  0  0  0  0  0  0  0
    2.8960   59.8600   74.1090 C   0  0  2  0  0  0  0  0  0  0  0  0
    1.6980   58.9200   74.3680 C   0  0  1  0  0  0  0  0  0  0  0  0
    1.5300   57.8160   73.2780 C   0  0  0  0  0  0  0  0  0  0  0  0
    0.4130   59.7720   74.3830 C   0  0  0  0  0  0  0  0  0  0  0  0
    0.2500   60.5930   73.0920 C   0  0  0  0  0  0  0  0  0  0  0  0
    1.4980   61.4410   72.7400 C   0  0  1  0  0  0  0  0  0  0  0  0
    2.8040   60.5910   72.7670 C   0  0  1  0  0  0  0  0  0  0  0  0
    4.0230   61.4910   72.5200 C   0  0  0  0  0  0  0  0  0  0  0  0
    3.9120   62.2020   71.1750 C   0  0  0  0  0  0  0  0  0  0  0  0
    2.6160   62.9620   71.0470 C   0  0  0  0  0  0  0  0  0  0  0  0
    2.5980   64.2440   70.6320 C   0  0  0  0  0  0  0  0  0  0  0  0
    1.3440   65.0360   70.3890 C   0  0  2  0  0  0  0  0  0  0  0  0
    0.1260   64.1190   70.2590 C   0  0  0  0  0  0  0  0  0  0  0  0
    0.0940   63.0910   71.3830 C   0  0  0  0  0  0  0  0  0  0  0  0
    1.3480   62.1880   71.3830 C   0  0  2  0  0  0  0  0  0  0  0  0
    1.7700   59.8990   77.8130 C   0  0  0  0  0  0  0  0  0  0  0  0
    1.9350   59.1550   76.8840 C   0  0  0  0  0  0  0  0  0  0  0  0
    1.5370   65.7550   69.1600 O   0  0  0  0  0  0  0  0  0  0  0  0
    1.1250   67.0500   69.1670 C   0  0  0  0  0  0  0  0  0  0  0  0
    1.7250   67.9890   69.6690 O   0  0  0  0  0  0  0  0  0  0  0  0
   -0.1900   67.1690   68.4600 C   0  0  0  0  0  0  0  0  0  0  0  0
    1.3660   57.0480   75.9160 O   0  0  0  0  0  0  0  0  0  0  0  0
    1.9650   55.9750   76.4960 C   0  0  0  0  0  0  0  0  0  0  0  0
    2.2980   55.8740   77.6670 O   0  0  0  0  0  0  0  0  0  0  0  0
    2.1820   54.9070   75.4680 C   0  0  0  0  0  0  0  0  0  0  0  0
    4.2186   58.1701   76.3971 H   0  0  0  0  0  0  0  0  0  0  0  0
    3.8191   56.9503   75.1632 H   0  0  0  0  0  0  0  0  0  0  0  0
    4.9607   59.5724   74.7212 H   0  0  0  0  0  0  0  0  0  0  0  0
    4.4433   58.4472   73.4657 H   0  0  0  0  0  0  0  0  0  0  0  0
    2.9471   60.7386   74.7688 H   0  0  0  0  0  0  0  0  0  0  0  0
    1.3815   56.8404   73.7640 H   0  0  0  0  0  0  0  0  0  0  0  0
    0.6571   58.0498   72.6508 H   0  0  0  0  0  0  0  0  0  0  0  0
    2.4329   57.7796   72.6508 H   0  0  0  0  0  0  0  0  0  0  0  0
   -0.4545   59.1043   74.4910 H   0  0  0  0  0  0  0  0  0  0  0  0
    0.4817   60.4752   75.2261 H   0  0  0  0  0  0  0  0  0  0  0  0
    0.0536   59.9000   72.2606 H   0  0  0  0  0  0  0  0  0  0  0  0
   -0.5826   61.2931   73.2555 H   0  0  0  0  0  0  0  0  0  0  0  0
    1.5779   62.2075   73.5249 H   0  0  0  0  0  0  0  0  0  0  0  0
    2.7855   59.8391   71.9643 H   0  0  0  0  0  0  0  0  0  0  0  0
    4.0836   62.2428   73.3207 H   0  0  0  0  0  0  0  0  0  0  0  0
    4.9267   60.8638   72.5121 H   0  0  0  0  0  0  0  0  0  0  0  0
    4.7497   62.9079   71.0755 H   0  0  0  0  0  0  0  0  0  0  0  0
    3.9402   61.4396   70.3826 H   0  0  0  0  0  0  0  0  0  0  0  0
    3.5632   64.7429   70.4600 H   0  0  0  0  0  0  0  0  0  0  0  0
    1.1566   65.7151   71.2338 H   0  0  0  0  0  0  0  0  0  0  0  0
   -0.7890   64.7280   70.3024 H   0  0  0  0  0  0  0  0  0  0  0  0
    0.1893   63.5863   69.2987 H   0  0  0  0  0  0  0  0  0  0  0  0
    0.0383   63.6202   72.3457 H   0  0  0  0  0  0  0  0  0  0  0  0
   -0.7853   62.4484   71.2284 H   0  0  0  0  0  0  0  0  0  0  0  0
    1.2048   61.4408   70.5885 H   0  0  0  0  0  0  0  0  0  0  0  0
    1.6189   60.5801   78.6635 H   0  0  0  0  0  0  0  0  0  0  0  0
   -0.9995   67.2423   69.2012 H   0  0  0  0  0  0  0  0  0  0  0  0
   -0.1872   68.0706   67.8298 H   0  0  0  0  0  0  0  0  0  0  0  0
   -0.3491   66.2816   67.8298 H   0  0  0  0  0  0  0  0  0  0  0  0
    2.3768   53.9482   75.9708 H   0  0  0  0  0  0  0  0  0  0  0  0
    1.2841   54.8155   74.8392 H   0  0  0  0  0  0  0  0  0  0  0  0
    3.0444   55.1731   74.8392 H   0  0  0  0  0  0  0  0  0  0  0  0
  2  1  1  0
  3  2  1  0
  4  3  1  0
  5  4  1  0
  5  1  1  0
  5  6  1  6
  7  5  1  0
  8  7  1  0
  9  8  1  0
 10  4  1  0
 10  9  1  0
 11 10  1  0
 12 11  1  0
 13 12  1  0
 14 13  2  0
 15 14  1  0
 16 15  1  0
 17 16  1  0
 18 17  1  0
 18 13  1  0
 18  9  1  0
 20 19  3  0
  1 20  1  1
 21 15  1  0
 22 21  1  0
 23 22  2  0
 24 22  1  0
 25  1  1  0
 26 25  1  0
 27 26  2  0
 28 26  1  0
  2 29  1  0
  2 30  1  0
  3 31  1  0
  3 32  1  0
  4 33  1  1
  6 34  1  0
  6 35  1  0
  6 36  1  0
  7 37  1  0
  7 38  1  0
  8 39  1  0
  8 40  1  0
  9 41  1  1
 10 42  1  6
 11 43  1  0
 11 44  1  0
 12 45  1  0
 12 46  1  0
 14 47  1  0
 15 48  1  1
 16 49  1  0
 16 50  1  0
 17 51  1  0
 17 52  1  0
 18 53  1  6
 19 54  1  0
 24 55  1  0
 24 56  1  0
 24 57  1  0
 28 58  1  0
 28 59  1  0
 28 60  1  0
M  END
>  <score>  (2) 
-7.988

$$$$
=
     RDKit          3D

 60 63  0  0  0  0  0  0  0  0999 V2000
    2.8960   62.5380   71.5450 C   0  0  2  0  0  0  0  0  0  0  0  0
    4.3510   62.3960   72.0820 C   0  0  0  0  0  0  0  0  0  0  0  0
    4.4010   61.1090   72.9330 C   0  0  0  0  0  0  0  0  0  0  0  0
    3.0270   60.4700   72.7590 C   0  0  2  0  0  0  0  0  0  0  0  0
    2.0860   61.6830   72.5860 C   0  0  1  0  0  0  0  0  0  0  0  0
    1.8930   62.5100   73.8940 C   0  0  0  0  0  0  0  0  0  0  0  0
    0.7050   61.1610   72.1450 C   0  0  0  0  0  0  0  0  0  0  0  0
    0.1440   60.1150   73.1250 C   0  0  0  0  0  0  0  0  0  0  0  0
    1.1300   58.9570   73.4200 C   0  0  1  0  0  0  0  0  0  0  0  0
    2.5400   59.4830   73.8230 C   0  0  1  0  0  0  0  0  0  0  0  0
    3.5100   58.3060   74.0000 C   0  0  0  0  0  0  0  0  0  0  0  0
    3.0080   57.3410   75.0690 C   0  0  0  0  0  0  0  0  0  0  0  0
    1.6020   56.8750   74.7880 C   0  0  0  0  0  0  0  0  0  0  0  0
    1.2800   55.5670   74.8330 C   0  0  0  0  0  0  0  0  0  0  0  0
   -0.1140   55.0330   74.6590 C   0  0  2  0  0  0  0  0  0  0  0  0
   -1.1580   56.1380   74.8460 C   0  0  0  0  0  0  0  0  0  0  0  0
   -0.7830   57.3830   74.0510 C   0  0  0  0  0  0  0  0  0  0  0  0
    0.5810   57.9640   74.4860 C   0  0  2  0  0  0  0  0  0  0  0  0
    2.7150   61.5630   69.0480 C   0  0  0  0  0  0  0  0  0  0  0  0
    2.7850   62.0000   70.1650 C   0  0  0  0  0  0  0  0  0  0  0  0
   -0.3020   54.0220   75.6620 O   0  0  0  0  0  0  0  0  0  0  0  0
    0.2120   52.7990   75.3660 C   0  0  0  0  0  0  0  0  0  0  0  0
    1.0660   52.2070   76.0100 O   0  0  0  0  0  0  0  0  0  0  0  0
   -0.4250   52.2680   74.1190 C   0  0  0  0  0  0  0  0  0  0  0  0
    2.4030   63.8920   71.5700 O   0  0  0  0  0  0  0  0  0  0  0  0
    1.7540   64.3750   70.4780 C   0  0  0  0  0  0  0  0  0  0  0  0
    2.2720   64.8510   69.4780 O   0  0  0  0  0  0  0  0  0  0  0  0
    0.2750   64.2560   70.6800 C   0  0  0  0  0  0  0  0  0  0  0  0
    5.0569   62.3197   71.2418 H   0  0  0  0  0  0  0  0  0  0  0  0
    4.6320   63.2728   72.6839 H   0  0  0  0  0  0  0  0  0  0  0  0
    5.1903   60.4348   72.5691 H   0  0  0  0  0  0  0  0  0  0  0  0
    4.6295   61.3189   73.9883 H   0  0  0  0  0  0  0  0  0  0  0  0
    3.0595   59.7819   71.9014 H   0  0  0  0  0  0  0  0  0  0  0  0
    2.0453   61.8574   74.7663 H   0  0  0  0  0  0  0  0  0  0  0  0
    2.6234   63.3321   73.9192 H   0  0  0  0  0  0  0  0  0  0  0  0
    0.8741   62.9239   73.9192 H   0  0  0  0  0  0  0  0  0  0  0  0
    0.0056   62.0084   72.0913 H   0  0  0  0  0  0  0  0  0  0  0  0
    0.8218   60.6786   71.1633 H   0  0  0  0  0  0  0  0  0  0  0  0
   -0.0958   60.6188   74.0730 H   0  0  0  0  0  0  0  0  0  0  0  0
   -0.7453   59.6719   72.6530 H   0  0  0  0  0  0  0  0  0  0  0  0
    1.2351   58.3978   72.4786 H   0  0  0  0  0  0  0  0  0  0  0  0
    2.4885   60.0110   74.7866 H   0  0  0  0  0  0  0  0  0  0  0  0
    3.6019   57.7686   73.0446 H   0  0  0  0  0  0  0  0  0  0  0  0
    4.4871   58.7010   74.3150 H   0  0  0  0  0  0  0  0  0  0  0  0
    3.6737   56.4658   75.0993 H   0  0  0  0  0  0  0  0  0  0  0  0
    3.0061   57.8704   76.0333 H   0  0  0  0  0  0  0  0  0  0  0  0
    2.0899   54.8436   75.0084 H   0  0  0  0  0  0  0  0  0  0  0  0
   -0.2388   54.6285   73.6437 H   0  0  0  0  0  0  0  0  0  0  0  0
   -2.1358   55.7714   74.5004 H   0  0  0  0  0  0  0  0  0  0  0  0
   -1.2011   56.4029   75.9128 H   0  0  0  0  0  0  0  0  0  0  0  0
   -0.7321   57.1201   72.9841 H   0  0  0  0  0  0  0  0  0  0  0  0
   -1.5512   58.1477   74.2385 H   0  0  0  0  0  0  0  0  0  0  0  0
    0.4101   58.5163   75.4218 H   0  0  0  0  0  0  0  0  0  0  0  0
    2.6509   61.1629   68.0253 H   0  0  0  0  0  0  0  0  0  0  0  0
   -1.2443   51.5850   74.3880 H   0  0  0  0  0  0  0  0  0  0  0  0
   -0.8244   53.1043   73.5265 H   0  0  0  0  0  0  0  0  0  0  0  0
    0.3258   51.7246   73.5265 H   0  0  0  0  0  0  0  0  0  0  0  0
    0.0523   64.2381   71.7571 H   0  0  0  0  0  0  0  0  0  0  0  0
   -0.2289   65.1165   70.2157 H   0  0  0  0  0  0  0  0  0  0  0  0
   -0.0848   63.3260   70.2157 H   0  0  0  0  0  0  0  0  0  0  0  0
  2  1  1  0
  3  2  1  0
  4  3  1  0
  5  4  1  0
  5  1  1  0
  5  6  1  1
  7  5  1  0
  8  7  1  0
  9  8  1  0
 10  4  1  0
 10  9  1  0
 11 10  1  0
 12 11  1  0
 13 12  1  0
 14 13  2  0
 15 14  1  0
 16 15  1  0
 17 16  1  0
 18 17  1  0
 18 13  1  0
 18  9  1  0
 20 19  3  0
  1 20  1  6
 21 15  1  0
 22 21  1  0
 23 22  2  0
 24 22  1  0
 25  1  1  0
 26 25  1  0
 27 26  2  0
 28 26  1  0
  2 29  1  0
  2 30  1  0
  3 31  1  0
  3 32  1  0
  4 33  1  6
  6 34  1  0
  6 35  1  0
  6 36  1  0
  7 37  1  0
  7 38  1  0
  8 39  1  0
  8 40  1  0
  9 41  1  6
 10 42  1  1
 11 43  1  0
 11 44  1  0
 12 45  1  0
 12 46  1  0
 14 47  1  0
 15 48  1  6
 16 49  1  0
 16 50  1  0
 17 51  1  0
 17 52  1  0
 18 53  1  1
 19 54  1  0
 24 55  1  0
 24 56  1  0
 24 57  1  0
 28 58  1  0
 28 59  1  0
 28 60  1  0
M  END
>  <score>  (3) 
-7.66

$$$$
=
     RDKit          3D

 60 63  0  0  0  0  0  0  0  0999 V2000
    3.4770   61.3640   71.7500 C   0  0  2  0  0  0  0  0  0  0  0  0
    4.8170   61.0910   72.4950 C   0  0  0  0  0  0  0  0  0  0  0  0
    4.5400   60.0010   73.5510 C   0  0  0  0  0  0  0  0  0  0  0  0
    3.0970   59.5740   73.3050 C   0  0  2  0  0  0  0  0  0  0  0  0
    2.4210   60.8690   72.8030 C   0  0  1  0  0  0  0  0  0  0  0  0
    2.2520   61.9520   73.9130 C   0  0  0  0  0  0  0  0  0  0  0  0
    1.0180   60.5060   72.2760 C   0  0  0  0  0  0  0  0  0  0  0  0
    0.1760   59.7740   73.3350 C   0  0  0  0  0  0  0  0  0  0  0  0
    0.8940   58.5480   73.9530 C   0  0  1  0  0  0  0  0  0  0  0  0
    2.3280   58.9030   74.4470 C   0  0  1  0  0  0  0  0  0  0  0  0
    3.0390   57.6390   74.9500 C   0  0  0  0  0  0  0  0  0  0  0  0
    2.2600   56.9920   76.0910 C   0  0  0  0  0  0  0  0  0  0  0  0
    0.8280   56.7180   75.7070 C   0  0  0  0  0  0  0  0  0  0  0  0
    0.2660   55.5130   75.9300 C   0  0  0  0  0  0  0  0  0  0  0  0
   -1.1780   55.1920   75.6630 C   0  0  2  0  0  0  0  0  0  0  0  0
   -2.0120   56.4680   75.5170 C   0  0  0  0  0  0  0  0  0  0  0  0
   -1.3330   57.4590   74.5790 C   0  0  0  0  0  0  0  0  0  0  0  0
    0.0630   57.8810   75.0880 C   0  0  2  0  0  0  0  0  0  0  0  0
    3.3390   59.9690   69.4590 C   0  0  0  0  0  0  0  0  0  0  0  0
    3.4100   60.5970   70.4810 C   0  0  0  0  0  0  0  0  0  0  0  0
   -1.6520   54.4370   76.7900 O   0  0  0  0  0  0  0  0  0  0  0  0
   -1.6380   53.0860   76.6390 C   0  0  0  0  0  0  0  0  0  0  0  0
   -1.1060   52.2870   77.3950 O   0  0  0  0  0  0  0  0  0  0  0  0
   -2.3780   52.7060   75.3930 C   0  0  0  0  0  0  0  0  0  0  0  0
    3.2440   62.7600   71.4780 O   0  0  0  0  0  0  0  0  0  0  0  0
    3.6670   63.2770   70.2940 C   0  0  0  0  0  0  0  0  0  0  0  0
    2.9840   63.4610   69.2970 O   0  0  0  0  0  0  0  0  0  0  0  0
    5.1310   63.5830   70.3750 C   0  0  0  0  0  0  0  0  0  0  0  0
    5.5790   60.7407   71.7832 H   0  0  0  0  0  0  0  0  0  0  0  0
    5.1921   62.0088   72.9713 H   0  0  0  0  0  0  0  0  0  0  0  0
    5.2237   59.1497   73.4170 H   0  0  0  0  0  0  0  0  0  0  0  0
    4.6939   60.3690   74.5761 H   0  0  0  0  0  0  0  0  0  0  0  0
    3.0889   58.7382   72.5900 H   0  0  0  0  0  0  0  0  0  0  0  0
    2.3261   61.4774   74.9026 H   0  0  0  0  0  0  0  0  0  0  0  0
    3.0428   62.7096   73.8096 H   0  0  0  0  0  0  0  0  0  0  0  0
    1.2680   62.4326   73.8096 H   0  0  0  0  0  0  0  0  0  0  0  0
    0.4976   61.4306   71.9855 H   0  0  0  0  0  0  0  0  0  0  0  0
    1.1422   59.8321   71.4156 H   0  0  0  0  0  0  0  0  0  0  0  0
   -0.0614   60.4825   74.1423 H   0  0  0  0  0  0  0  0  0  0  0  0
   -0.7272   59.4007   72.8302 H   0  0  0  0  0  0  0  0  0  0  0  0
    0.9898   57.8093   73.1436 H   0  0  0  0  0  0  0  0  0  0  0  0
    2.2767   59.6069   75.2907 H   0  0  0  0  0  0  0  0  0  0  0  0
    3.1260   56.9211   74.1211 H   0  0  0  0  0  0  0  0  0  0  0  0
    4.0353   57.9211   75.3211 H   0  0  0  0  0  0  0  0  0  0  0  0
    2.7448   56.0417   76.3591 H   0  0  0  0  0  0  0  0  0  0  0  0
    2.2583   57.6890   76.9420 H   0  0  0  0  0  0  0  0  0  0  0  0
    0.9051   54.7136   76.3331 H   0  0  0  0  0  0  0  0  0  0  0  0
   -1.2714   54.6270   74.7238 H   0  0  0  0  0  0  0  0  0  0  0  0
   -3.0005   56.2073   75.1108 H   0  0  0  0  0  0  0  0  0  0  0  0
   -2.1139   56.9357   76.5074 H   0  0  0  0  0  0  0  0  0  0  0  0
   -1.2229   56.9917   73.5893 H   0  0  0  0  0  0  0  0  0  0  0  0
   -1.9609   58.3607   74.5282 H   0  0  0  0  0  0  0  0  0  0  0  0
   -0.0983   58.6230   75.8839 H   0  0  0  0  0  0  0  0  0  0  0  0
    3.2740   59.3941   68.5234 H   0  0  0  0  0  0  0  0  0  0  0  0
   -3.3264   52.2190   75.6639 H   0  0  0  0  0  0  0  0  0  0  0  0
   -2.5857   53.6090   74.8001 H   0  0  0  0  0  0  0  0  0  0  0  0
   -1.7652   52.0110   74.8001 H   0  0  0  0  0  0  0  0  0  0  0  0
    5.4345   63.6464   71.4304 H   0  0  0  0  0  0  0  0  0  0  0  0
    5.7006   62.7845   69.8770 H   0  0  0  0  0  0  0  0  0  0  0  0
    5.3331   64.5428   69.8770 H   0  0  0  0  0  0  0  0  0  0  0  0
  2  1  1  0
  3  2  1  0
  4  3  1  0
  5  4  1  0
  5  1  1  0
  5  6  1  1
  7  5  1  0
  8  7  1  0
  9  8  1  0
 10  4  1  0
 10  9  1  0
 11 10  1  0
 12 11  1  0
 13 12  1  0
 14 13  2  0
 15 14  1  0
 16 15  1  0
 17 16  1  0
 18 17  1  0
 18 13  1  0
 18  9  1  0
 20 19  3  0
  1 20  1  6
 21 15  1  0
 22 21  1  0
 23 22  2  0
 24 22  1  0
 25  1  1  0
 26 25  1  0
 27 26  2  0
 28 26  1  0
  2 29  1  0
  2 30  1  0
  3 31  1  0
  3 32  1  0
  4 33  1  6
  6 34  1  0
  6 35  1  0
  6 36  1  0
  7 37  1  0
  7 38  1  0
  8 39  1  0
  8 40  1  0
  9 41  1  6
 10 42  1  1
 11 43  1  0
 11 44  1  0
 12 45  1  0
 12 46  1  0
 14 47  1  0
 15 48  1  6
 16 49  1  0
 16 50  1  0
 17 51  1  0
 17 52  1  0
 18 53  1  1
 19 54  1  0
 24 55  1  0
 24 56  1  0
 24 57  1  0
 28 58  1  0
 28 59  1  0
 28 60  1  0
M  END
>  <score>  (4) 
-7.562

$$$$
=
     RDKit          3D

 60 63  0  0  0  0  0  0  0  0999 V2000
    3.5530   60.3470   72.5150 C   0  0  2  0  0  0  0  0  0  0  0  0
    4.1480   59.2320   73.4260 C   0  0  0  0  0  0  0  0  0  0  0  0
    2.9850   58.6520   74.2580 C   0  0  0  0  0  0  0  0  0  0  0  0
    1.7350   59.3410   73.7190 C   0  0  2  0  0  0  0  0  0  0  0  0
    2.2480   60.7360   73.2980 C   0  0  1  0  0  0  0  0  0  0  0  0
    2.6240   61.6490   74.5060 C   0  0  0  0  0  0  0  0  0  0  0  0
    1.1310   61.4390   72.5010 C   0  0  0  0  0  0  0  0  0  0  0  0
   -0.1860   61.5090   73.2930 C   0  0  0  0  0  0  0  0  0  0  0  0
   -0.6480   60.1360   73.8440 C   0  0  1  0  0  0  0  0  0  0  0  0
    0.4930   59.4060   74.6120 C   0  0  1  0  0  0  0  0  0  0  0  0
    0.0250   58.0080   75.0440 C   0  0  0  0  0  0  0  0  0  0  0  0
   -1.2070   58.0980   75.9380 C   0  0  0  0  0  0  0  0  0  0  0  0
   -2.3150   58.8860   75.2880 C   0  0  0  0  0  0  0  0  0  0  0  0
   -3.5750   58.4100   75.2440 C   0  0  0  0  0  0  0  0  0  0  0  0
   -4.7490   59.1760   74.7000 C   0  0  2  0  0  0  0  0  0  0  0  0
   -4.4370   60.6710   74.5980 C   0  0  0  0  0  0  0  0  0  0  0  0
   -3.0850   60.9020   73.9340 C   0  0  0  0  0  0  0  0  0  0  0  0
   -1.9290   60.2460   74.7210 C   0  0  2  0  0  0  0  0  0  0  0  0
    3.0230   59.3810   70.0650 C   0  0  0  0  0  0  0  0  0  0  0  0
    3.2610   59.8230   71.1570 C   0  0  0  0  0  0  0  0  0  0  0  0
   -5.8380   58.9740   75.6150 O   0  0  0  0  0  0  0  0  0  0  0  0
   -6.6500   57.9200   75.3380 C   0  0  0  0  0  0  0  0  0  0  0  0
   -6.7990   57.4000   74.2430 O   0  0  0  0  0  0  0  0  0  0  0  0
   -7.3500   57.4770   76.5860 C   0  0  0  0  0  0  0  0  0  0  0  0
    4.3960   61.5110   72.4060 O   0  0  0  0  0  0  0  0  0  0  0  0
    5.2360   61.6160   71.3440 C   0  0  0  0  0  0  0  0  0  0  0  0
    6.0990   60.8140   71.0190 O   0  0  0  0  0  0  0  0  0  0  0  0
    4.9640   62.8960   70.6140 C   0  0  0  0  0  0  0  0  0  0  0  0
    4.5998   58.4420   72.8082 H   0  0  0  0  0  0  0  0  0  0  0  0
    4.9309   59.6407   74.0818 H   0  0  0  0  0  0  0  0  0  0  0  0
    2.9163   57.5628   74.1205 H   0  0  0  0  0  0  0  0  0  0  0  0
    3.1207   58.8244   75.3359 H   0  0  0  0  0  0  0  0  0  0  0  0
    1.3168   58.7338   72.9027 H   0  0  0  0  0  0  0  0  0  0  0  0
    2.4066   61.1211   75.4462 H   0  0  0  0  0  0  0  0  0  0  0  0
    3.6957   61.8928   74.4617 H   0  0  0  0  0  0  0  0  0  0  0  0
    2.0348   62.5768   74.4617 H   0  0  0  0  0  0  0  0  0  0  0  0
    1.4559   62.4622   72.2612 H   0  0  0  0  0  0  0  0  0  0  0  0
    0.9470   60.8553   71.5870 H   0  0  0  0  0  0  0  0  0  0  0  0
   -0.0466   62.1957   74.1409 H   0  0  0  0  0  0  0  0  0  0  0  0
   -0.9641   61.8579   72.5981 H   0  0  0  0  0  0  0  0  0  0  0  0
   -0.9080   59.5257   72.9665 H   0  0  0  0  0  0  0  0  0  0  0  0
    0.7528   59.9614   75.5253 H   0  0  0  0  0  0  0  0  0  0  0  0
   -0.2221   57.4185   74.1488 H   0  0  0  0  0  0  0  0  0  0  0  0
    0.8354   57.5258   75.6104 H   0  0  0  0  0  0  0  0  0  0  0  0
   -1.5695   57.0809   76.1479 H   0  0  0  0  0  0  0  0  0  0  0  0
   -0.9190   58.6148   76.8653 H   0  0  0  0  0  0  0  0  0  0  0  0
   -3.7562   57.3963   75.6308 H   0  0  0  0  0  0  0  0  0  0  0  0
   -4.9950   58.8213   73.6882 H   0  0  0  0  0  0  0  0  0  0  0  0
   -5.2197   61.1620   74.0010 H   0  0  0  0  0  0  0  0  0  0  0  0
   -4.4057   61.0928   75.6134 H   0  0  0  0  0  0  0  0  0  0  0  0
   -3.1105   60.4753   72.9205 H   0  0  0  0  0  0  0  0  0  0  0  0
   -2.9027   61.9865   73.9072 H   0  0  0  0  0  0  0  0  0  0  0  0
   -1.7110   60.9033   75.5757 H   0  0  0  0  0  0  0  0  0  0  0  0
    2.8052   58.9765   69.0656 H   0  0  0  0  0  0  0  0  0  0  0  0
   -6.7912   57.8306   77.4650 H   0  0  0  0  0  0  0  0  0  0  0  0
   -8.3667   57.8965   76.6047 H   0  0  0  0  0  0  0  0  0  0  0  0
   -7.4061   56.3786   76.6047 H   0  0  0  0  0  0  0  0  0  0  0  0
    4.7924   63.7034   71.3411 H   0  0  0  0  0  0  0  0  0  0  0  0
    5.8285   63.1488   69.9825 H   0  0  0  0  0  0  0  0  0  0  0  0
    4.0714   62.7754   69.9825 H   0  0  0  0  0  0  0  0  0  0  0  0
  2  1  1  0
  3  2  1  0
  4  3  1  0
  5  4  1  0
  5  1  1  0
  5  6  1  1
  7  5  1  0
  8  7  1  0
  9  8  1  0
 10  4  1  0
 10  9  1  0
 11 10  1  0
 12 11  1  0
 13 12  1  0
 14 13  2  0
 15 14  1  0
 16 15  1  0
 17 16  1  0
 18 17  1  0
 18 13  1  0
 18  9  1  0
 20 19  3  0
  1 20  1  6
 21 15  1  0
 22 21  1  0
 23 22  2  0
 24 22  1  0
 25  1  1  0
 26 25  1  0
 27 26  2  0
 28 26  1  0
  2 29  1  0
  2 30  1  0
  3 31  1  0
  3 32  1  0
  4 33  1  6
  6 34  1  0
  6 35  1  0
  6 36  1  0
  7 37  1  0
  7 38  1  0
  8 39  1  0
  8 40  1  0
  9 41  1  6
 10 42  1  1
 11 43  1  0
 11 44  1  0
 12 45  1  0
 12 46  1  0
 14 47  1  0
 15 48  1  6
 16 49  1  0
 16 50  1  0
 17 51  1  0
 17 52  1  0
 18 53  1  1
 19 54  1  0
 24 55  1  0
 24 56  1  0
 24 57  1  0
 28 58  1  0
 28 59  1  0
 28 60  1  0
M  END
>  <score>  (5) 
-7.45

$$$$
=
     RDKit          3D

 60 63  0  0  0  0  0  0  0  0999 V2000
    2.4070   61.7940   72.7620 C   0  0  2  0  0  0  0  0  0  0  0  0
    1.8520   60.4680   72.1630 C   0  0  0  0  0  0  0  0  0  0  0  0
    0.4130   60.2940   72.6920 C   0  0  0  0  0  0  0  0  0  0  0  0
    0.1230   61.5750   73.4660 C   0  0  2  0  0  0  0  0  0  0  0  0
    1.5030   61.9730   74.0340 C   0  0  1  0  0  0  0  0  0  0  0  0
    2.0060   61.0210   75.1640 C   0  0  0  0  0  0  0  0  0  0  0  0
    1.3900   63.3920   74.6240 C   0  0  0  0  0  0  0  0  0  0  0  0
    0.2690   63.4920   75.6740 C   0  0  0  0  0  0  0  0  0  0  0  0
   -1.0980   62.9690   75.1680 C   0  0  1  0  0  0  0  0  0  0  0  0
   -0.9780   61.5520   74.5310 C   0  0  1  0  0  0  0  0  0  0  0  0
   -2.3310   61.1210   73.9480 C   0  0  0  0  0  0  0  0  0  0  0  0
   -3.4080   61.0980   75.0270 C   0  0  0  0  0  0  0  0  0  0  0  0
   -3.5020   62.4160   75.7530 C   0  0  0  0  0  0  0  0  0  0  0  0
   -4.6900   63.0230   75.9430 C   0  0  0  0  0  0  0  0  0  0  0  0
   -4.8770   64.2860   76.7360 C   0  0  2  0  0  0  0  0  0  0  0  0
   -3.6670   64.5610   77.6330 C   0  0  0  0  0  0  0  0  0  0  0  0
   -2.3660   64.4130   76.8540 C   0  0  0  0  0  0  0  0  0  0  0  0
   -2.1920   62.9910   76.2750 C   0  0  2  0  0  0  0  0  0  0  0  0
    2.1530   63.8270   71.0250 C   0  0  0  0  0  0  0  0  0  0  0  0
    2.2560   62.9150   71.8010 C   0  0  0  0  0  0  0  0  0  0  0  0
   -6.0450   64.0970   77.5520 O   0  0  0  0  0  0  0  0  0  0  0  0
   -7.2000   64.6070   77.0490 C   0  0  0  0  0  0  0  0  0  0  0  0
   -8.2700   64.0190   76.9770 O   0  0  0  0  0  0  0  0  0  0  0  0
   -6.9770   66.0150   76.5900 C   0  0  0  0  0  0  0  0  0  0  0  0
    3.7840   61.7050   73.1790 O   0  0  0  0  0  0  0  0  0  0  0  0
    4.5420   60.6710   72.7260 C   0  0  0  0  0  0  0  0  0  0  0  0
    4.5460   59.5290   73.1620 O   0  0  0  0  0  0  0  0  0  0  0  0
    5.4090   61.1410   71.5990 C   0  0  0  0  0  0  0  0  0  0  0  0
    1.8452   60.5247   71.0645 H   0  0  0  0  0  0  0  0  0  0  0  0
    2.4810   59.6144   72.4559 H   0  0  0  0  0  0  0  0  0  0  0  0
   -0.2946   60.1770   71.8580 H   0  0  0  0  0  0  0  0  0  0  0  0
    0.3080   59.3973   73.3204 H   0  0  0  0  0  0  0  0  0  0  0  0
   -0.3263   62.3106   72.7826 H   0  0  0  0  0  0  0  0  0  0  0  0
    1.7734   61.4612   76.1449 H   0  0  0  0  0  0  0  0  0  0  0  0
    1.5054   60.0459   75.0717 H   0  0  0  0  0  0  0  0  0  0  0  0
    3.0937   60.8850   75.0717 H   0  0  0  0  0  0  0  0  0  0  0  0
    2.3463   63.6563   75.0991 H   0  0  0  0  0  0  0  0  0  0  0  0
    1.1493   64.0833   73.8029 H   0  0  0  0  0  0  0  0  0  0  0  0
    0.5631   62.9026   76.5549 H   0  0  0  0  0  0  0  0  0  0  0  0
    0.1406   64.5586   75.9105 H   0  0  0  0  0  0  0  0  0  0  0  0
   -1.4195   63.6667   74.3807 H   0  0  0  0  0  0  0  0  0  0  0  0
   -0.7024   60.8121   75.2969 H   0  0  0  0  0  0  0  0  0  0  0  0
   -2.6258   61.8302   73.1605 H   0  0  0  0  0  0  0  0  0  0  0  0
   -2.2275   60.1071   73.5342 H   0  0  0  0  0  0  0  0  0  0  0  0
   -4.3784   60.8806   74.5568 H   0  0  0  0  0  0  0  0  0  0  0  0
   -3.1410   60.3224   75.7599 H   0  0  0  0  0  0  0  0  0  0  0  0
   -5.5805   62.5645   75.4883 H   0  0  0  0  0  0  0  0  0  0  0  0
   -4.9876   65.1447   76.0575 H   0  0  0  0  0  0  0  0  0  0  0  0
   -3.7362   65.5859   78.0265 H   0  0  0  0  0  0  0  0  0  0  0  0
   -3.6678   63.8316   78.4564 H   0  0  0  0  0  0  0  0  0  0  0  0
   -2.3652   65.1358   76.0248 H   0  0  0  0  0  0  0  0  0  0  0  0
   -1.5333   64.5997   77.5480 H   0  0  0  0  0  0  0  0  0  0  0  0
   -1.8628   62.3464   77.1033 H   0  0  0  0  0  0  0  0  0  0  0  0
    2.0587   64.6617   70.3148 H   0  0  0  0  0  0  0  0  0  0  0  0
   -6.8727   66.6737   77.4648 H   0  0  0  0  0  0  0  0  0  0  0  0
   -6.0602   66.0623   75.9840 H   0  0  0  0  0  0  0  0  0  0  0  0
   -7.8344   66.3433   75.9840 H   0  0  0  0  0  0  0  0  0  0  0  0
    6.3074   61.6280   72.0060 H   0  0  0  0  0  0  0  0  0  0  0  0
    5.7062   60.2805   70.9816 H   0  0  0  0  0  0  0  0  0  0  0  0
    4.8502   61.8597   70.9816 H   0  0  0  0  0  0  0  0  0  0  0  0
  2  1  1  0
  3  2  1  0
  4  3  1  0
  5  4  1  0
  5  1  1  0
  5  6  1  1
  7  5  1  0
  8  7  1  0
  9  8  1  0
 10  4  1  0
 10  9  1  0
 11 10  1  0
 12 11  1  0
 13 12  1  0
 14 13  2  0
 15 14  1  0
 16 15  1  0
 17 16  1  0
 18 17  1  0
 18 13  1  0
 18  9  1  0
 20 19  3  0
  1 20  1  6
 21 15  1  0
 22 21  1  0
 23 22  2  0
 24 22  1  0
 25  1  1  0
 26 25  1  0
 27 26  2  0
 28 26  1  0
  2 29  1  0
  2 30  1  0
  3 31  1  0
  3 32  1  0
  4 33  1  6
  6 34  1  0
  6 35  1  0
  6 36  1  0
  7 37  1  0
  7 38  1  0
  8 39  1  0
  8 40  1  0
  9 41  1  6
 10 42  1  1
 11 43  1  0
 11 44  1  0
 12 45  1  0
 12 46  1  0
 14 47  1  0
 15 48  1  6
 16 49  1  0
 16 50  1  0
 17 51  1  0
 17 52  1  0
 18 53  1  1
 19 54  1  0
 24 55  1  0
 24 56  1  0
 24 57  1  0
 28 58  1  0
 28 59  1  0
 28 60  1  0
M  END
>  <score>  (6) 
-7.018

$$$$
=
     RDKit          3D

 60 63  0  0  0  0  0  0  0  0999 V2000
    3.0340   60.6940   72.1480 C   0  0  2  0  0  0  0  0  0  0  0  0
    3.2340   59.5890   71.0690 C   0  0  0  0  0  0  0  0  0  0  0  0
    2.5000   58.3270   71.5650 C   0  0  0  0  0  0  0  0  0  0  0  0
    1.7840   58.7640   72.8390 C   0  0  2  0  0  0  0  0  0  0  0  0
    2.7250   59.8380   73.4290 C   0  0  1  0  0  0  0  0  0  0  0  0
    4.0580   59.2530   73.9920 C   0  0  0  0  0  0  0  0  0  0  0  0
    1.9880   60.5410   74.5860 C   0  0  0  0  0  0  0  0  0  0  0  0
    1.4960   59.5420   75.6470 C   0  0  0  0  0  0  0  0  0  0  0  0
    0.6620   58.3770   75.0570 C   0  0  1  0  0  0  0  0  0  0  0  0
    1.3860   57.6930   73.8590 C   0  0  1  0  0  0  0  0  0  0  0  0
    0.4800   56.6210   73.2390 C   0  0  0  0  0  0  0  0  0  0  0  0
    0.1030   55.5620   74.2700 C   0  0  0  0  0  0  0  0  0  0  0  0
   -0.5110   56.1740   75.5040 C   0  0  0  0  0  0  0  0  0  0  0  0
   -1.6610   55.6960   76.0190 C   0  0  0  0  0  0  0  0  0  0  0  0
   -2.2840   56.1890   77.2950 C   0  0  2  0  0  0  0  0  0  0  0  0
   -1.2750   56.9740   78.1380 C   0  0  0  0  0  0  0  0  0  0  0  0
   -0.5300   57.9940   77.2860 C   0  0  0  0  0  0  0  0  0  0  0  0
    0.2560   57.3290   76.1340 C   0  0  2  0  0  0  0  0  0  0  0  0
    0.9870   62.3030   71.4860 C   0  0  0  0  0  0  0  0  0  0  0  0
    1.9080   61.5920   71.7850 C   0  0  0  0  0  0  0  0  0  0  0  0
   -2.7170   55.0290   78.0230 O   0  0  0  0  0  0  0  0  0  0  0  0
   -3.9660   55.1000   78.5540 C   0  0  0  0  0  0  0  0  0  0  0  0
   -4.3980   54.4070   79.4630 O   0  0  0  0  0  0  0  0  0  0  0  0
   -4.7530   56.1680   77.8580 C   0  0  0  0  0  0  0  0  0  0  0  0
    4.2160   61.4840   72.3900 O   0  0  0  0  0  0  0  0  0  0  0  0
    5.1300   61.6190   71.3930 C   0  0  0  0  0  0  0  0  0  0  0  0
    5.9930   60.8100   71.0850 O   0  0  0  0  0  0  0  0  0  0  0  0
    4.9420   62.9420   70.7160 C   0  0  0  0  0  0  0  0  0  0  0  0
    2.8097   59.9187   70.1092 H   0  0  0  0  0  0  0  0  0  0  0  0
    4.3036   59.3829   70.9156 H   0  0  0  0  0  0  0  0  0  0  0  0
    1.7754   57.9803   70.8135 H   0  0  0  0  0  0  0  0  0  0  0  0
    3.1909   57.4901   71.7448 H   0  0  0  0  0  0  0  0  0  0  0  0
    0.7771   59.1215   72.5775 H   0  0  0  0  0  0  0  0  0  0  0  0
    4.0286   59.2659   75.0915 H   0  0  0  0  0  0  0  0  0  0  0  0
    4.1815   58.2180   73.6406 H   0  0  0  0  0  0  0  0  0  0  0  0
    4.9034   59.8628   73.6406 H   0  0  0  0  0  0  0  0  0  0  0  0
    2.6751   61.2557   75.0626 H   0  0  0  0  0  0  0  0  0  0  0  0
    1.1088   61.0529   74.1677 H   0  0  0  0  0  0  0  0  0  0  0  0
    2.3722   59.1185   76.1598 H   0  0  0  0  0  0  0  0  0  0  0  0
    0.8390   60.0958   76.3338 H   0  0  0  0  0  0  0  0  0  0  0  0
   -0.2666   58.8280   74.6770 H   0  0  0  0  0  0  0  0  0  0  0  0
    2.2998   57.1878   74.2049 H   0  0  0  0  0  0  0  0  0  0  0  0
   -0.4364   57.0985   72.8620 H   0  0  0  0  0  0  0  0  0  0  0  0
    1.0255   56.1327   72.4180 H   0  0  0  0  0  0  0  0  0  0  0  0
   -0.6214   54.8680   73.8188 H   0  0  0  0  0  0  0  0  0  0  0  0
    1.0211   55.0358   74.5704 H   0  0  0  0  0  0  0  0  0  0  0  0
   -2.1766   54.8939   75.4706 H   0  0  0  0  0  0  0  0  0  0  0  0
   -3.1217   56.8651   77.0688 H   0  0  0  0  0  0  0  0  0  0  0  0
   -1.8099   57.4994   78.9429 H   0  0  0  0  0  0  0  0  0  0  0  0
   -0.5443   56.2676   78.5589 H   0  0  0  0  0  0  0  0  0  0  0  0
   -1.2589   58.6978   76.8576 H   0  0  0  0  0  0  0  0  0  0  0  0
    0.1930   58.5115   77.9337 H   0  0  0  0  0  0  0  0  0  0  0  0
    1.1725   56.9080   76.5730 H   0  0  0  0  0  0  0  0  0  0  0  0
    0.1437   62.9540   71.2122 H   0  0  0  0  0  0  0  0  0  0  0  0
   -5.2314   56.8173   78.6060 H   0  0  0  0  0  0  0  0  0  0  0  0
   -4.0797   56.7683   77.2285 H   0  0  0  0  0  0  0  0  0  0  0  0
   -5.5257   55.7027   77.2285 H   0  0  0  0  0  0  0  0  0  0  0  0
    4.8300   63.7299   71.4754 H   0  0  0  0  0  0  0  0  0  0  0  0
    5.8182   63.1602   70.0877 H   0  0  0  0  0  0  0  0  0  0  0  0
    4.0397   62.9075   70.0877 H   0  0  0  0  0  0  0  0  0  0  0  0
  2  1  1  0
  3  2  1  0
  4  3  1  0
  5  4  1  0
  5  1  1  0
  5  6  1  1
  7  5  1  0
  8  7  1  0
  9  8  1  0
 10  4  1  0
 10  9  1  0
 11 10  1  0
 12 11  1  0
 13 12  1  0
 14 13  2  0
 15 14  1  0
 16 15  1  0
 17 16  1  0
 18 17  1  0
 18 13  1  0
 18  9  1  0
 20 19  3  0
  1 20  1  6
 21 15  1  0
 22 21  1  0
 23 22  2  0
 24 22  1  0
 25  1  1  0
 26 25  1  0
 27 26  2  0
 28 26  1  0
  2 29  1  0
  2 30  1  0
  3 31  1  0
  3 32  1  0
  4 33  1  6
  6 34  1  0
  6 35  1  0
  6 36  1  0
  7 37  1  0
  7 38  1  0
  8 39  1  0
  8 40  1  0
  9 41  1  6
 10 42  1  1
 11 43  1  0
 11 44  1  0
 12 45  1  0
 12 46  1  0
 14 47  1  0
 15 48  1  6
 16 49  1  0
 16 50  1  0
 17 51  1  0
 17 52  1  0
 18 53  1  1
 19 54  1  0
 24 55  1  0
 24 56  1  0
 24 57  1  0
 28 58  1  0
 28 59  1  0
 28 60  1  0
M  END
>  <score>  (7) 
-6.903

$$$$
=
     RDKit          3D

 60 63  0  0  0  0  0  0  0  0999 V2000
    1.2590   62.8680   72.7440 C   0  0  2  0  0  0  0  0  0  0  0  0
   -0.1740   62.7140   72.1530 C   0  0  0  0  0  0  0  0  0  0  0  0
   -0.6580   61.2890   72.4940 C   0  0  0  0  0  0  0  0  0  0  0  0
    0.4360   60.7050   73.3820 C   0  0  2  0  0  0  0  0  0  0  0  0
    1.7240   61.3710   72.8490 C   0  0  1  0  0  0  0  0  0  0  0  0
    2.1480   60.8610   71.4370 C   0  0  0  0  0  0  0  0  0  0  0  0
    2.8690   61.0560   73.8320 C   0  0  0  0  0  0  0  0  0  0  0  0
    3.0380   59.5430   74.0560 C   0  0  0  0  0  0  0  0  0  0  0  0
    1.7220   58.8310   74.4580 C   0  0  1  0  0  0  0  0  0  0  0  0
    0.5520   59.1810   73.4920 C   0  0  1  0  0  0  0  0  0  0  0  0
   -0.7520   58.5420   73.9890 C   0  0  0  0  0  0  0  0  0  0  0  0
   -0.6140   57.0260   74.0840 C   0  0  0  0  0  0  0  0  0  0  0  0
    0.5690   56.6210   74.9260 C   0  0  0  0  0  0  0  0  0  0  0  0
    0.4460   55.7010   75.9020 C   0  0  0  0  0  0  0  0  0  0  0  0
    1.5940   55.1770   76.7200 C   0  0  2  0  0  0  0  0  0  0  0  0
    2.9360   55.4820   76.0490 C   0  0  0  0  0  0  0  0  0  0  0  0
    3.0040   56.9380   75.6040 C   0  0  0  0  0  0  0  0  0  0  0  0
    1.8950   57.2890   74.5860 C   0  0  2  0  0  0  0  0  0  0  0  0
    1.1650   64.0840   75.1370 C   0  0  0  0  0  0  0  0  0  0  0  0
    1.2180   63.5400   74.0670 C   0  0  0  0  0  0  0  0  0  0  0  0
    1.4200   53.7540   76.8180 O   0  0  0  0  0  0  0  0  0  0  0  0
    0.7430   53.3200   77.9130 C   0  0  0  0  0  0  0  0  0  0  0  0
   -0.4270   52.9680   77.9380 O   0  0  0  0  0  0  0  0  0  0  0  0
    1.6470   53.3320   79.1080 C   0  0  0  0  0  0  0  0  0  0  0  0
    2.1660   63.5770   71.8760 O   0  0  0  0  0  0  0  0  0  0  0  0
    1.7200   63.9990   70.6640 C   0  0  0  0  0  0  0  0  0  0  0  0
    1.8470   63.4120   69.5990 O   0  0  0  0  0  0  0  0  0  0  0  0
    1.0470   65.3290   70.8130 C   0  0  0  0  0  0  0  0  0  0  0  0
   -0.8485   63.4584   72.6013 H   0  0  0  0  0  0  0  0  0  0  0  0
   -0.1666   62.8737   71.0647 H   0  0  0  0  0  0  0  0  0  0  0  0
   -1.6162   61.3244   73.0330 H   0  0  0  0  0  0  0  0  0  0  0  0
   -0.8273   60.6823   71.5922 H   0  0  0  0  0  0  0  0  0  0  0  0
    0.1998   60.9269   74.4332 H   0  0  0  0  0  0  0  0  0  0  0  0
    2.8478   60.0193   71.5460 H   0  0  0  0  0  0  0  0  0  0  0  0
    1.2570   60.5279   70.8847 H   0  0  0  0  0  0  0  0  0  0  0  0
    2.6382   61.6762   70.8847 H   0  0  0  0  0  0  0  0  0  0  0  0
    3.8073   61.4616   73.4257 H   0  0  0  0  0  0  0  0  0  0  0  0
    2.6218   61.5168   74.7998 H   0  0  0  0  0  0  0  0  0  0  0  0
    3.4083   59.0915   73.1238 H   0  0  0  0  0  0  0  0  0  0  0  0
    3.7449   59.4145   74.8889 H   0  0  0  0  0  0  0  0  0  0  0  0
    1.4605   59.2138   75.4555 H   0  0  0  0  0  0  0  0  0  0  0  0
    0.7518   58.7748   72.4895 H   0  0  0  0  0  0  0  0  0  0  0  0
   -0.9940   58.9446   74.9837 H   0  0  0  0  0  0  0  0  0  0  0  0
   -1.5536   58.7776   73.2735 H   0  0  0  0  0  0  0  0  0  0  0  0
   -1.5289   56.6131   74.5341 H   0  0  0  0  0  0  0  0  0  0  0  0
   -0.4598   56.6334   73.0681 H   0  0  0  0  0  0  0  0  0  0  0  0
   -0.5590   55.3075   76.1145 H   0  0  0  0  0  0  0  0  0  0  0  0
    1.6026   55.6565   77.7100 H   0  0  0  0  0  0  0  0  0  0  0  0
    3.7487   55.2857   76.7638 H   0  0  0  0  0  0  0  0  0  0  0  0
    3.0396   54.8388   75.1627 H   0  0  0  0  0  0  0  0  0  0  0  0
    2.8918   57.5841   76.4872 H   0  0  0  0  0  0  0  0  0  0  0  0
    3.9757   57.0965   75.1134 H   0  0  0  0  0  0  0  0  0  0  0  0
    2.2170   56.8932   73.6115 H   0  0  0  0  0  0  0  0  0  0  0  0
    1.1165   64.5820   76.1166 H   0  0  0  0  0  0  0  0  0  0  0  0
    1.0412   53.3240   80.0261 H   0  0  0  0  0  0  0  0  0  0  0  0
    2.2936   52.4424   79.0876 H   0  0  0  0  0  0  0  0  0  0  0  0
    2.2698   54.2385   79.0876 H   0  0  0  0  0  0  0  0  0  0  0  0
    0.9288   65.5625   71.8814 H   0  0  0  0  0  0  0  0  0  0  0  0
    1.6604   66.1061   70.3335 H   0  0  0  0  0  0  0  0  0  0  0  0
    0.0576   65.2951   70.3335 H   0  0  0  0  0  0  0  0  0  0  0  0
  2  1  1  0
  3  2  1  0
  4  3  1  0
  5  4  1  0
  5  1  1  0
  5  6  1  6
  7  5  1  0
  8  7  1  0
  9  8  1  0
 10  4  1  0
 10  9  1  0
 11 10  1  0
 12 11  1  0
 13 12  1  0
 14 13  2  0
 15 14  1  0
 16 15  1  0
 17 16  1  0
 18 17  1  0
 18 13  1  0
 18  9  1  0
 20 19  3  0
  1 20  1  1
 21 15  1  0
 22 21  1  0
 23 22  2  0
 24 22  1  0
 25  1  1  0
 26 25  1  0
 27 26  2  0
 28 26  1  0
  2 29  1  0
  2 30  1  0
  3 31  1  0
  3 32  1  0
  4 33  1  1
  6 34  1  0
  6 35  1  0
  6 36  1  0
  7 37  1  0
  7 38  1  0
  8 39  1  0
  8 40  1  0
  9 41  1  1
 10 42  1  6
 11 43  1  0
 11 44  1  0
 12 45  1  0
 12 46  1  0
 14 47  1  0
 15 48  1  1
 16 49  1  0
 16 50  1  0
 17 51  1  0
 17 52  1  0
 18 53  1  6
 19 54  1  0
 24 55  1  0
 24 56  1  0
 24 57  1  0
 28 58  1  0
 28 59  1  0
 28 60  1  0
M  END
>  <score>  (8) 
-6.827

$$$$
=
     RDKit          3D

 60 63  0  0  0  0  0  0  0  0999 V2000
    3.0100   61.2420   71.3020 C   0  0  2  0  0  0  0  0  0  0  0  0
    4.3720   61.7040   71.9000 C   0  0  0  0  0  0  0  0  0  0  0  0
    4.6000   60.8980   73.1960 C   0  0  0  0  0  0  0  0  0  0  0  0
    3.4460   59.9020   73.2460 C   0  0  2  0  0  0  0  0  0  0  0  0
    2.2850   60.6640   72.5700 C   0  0  1  0  0  0  0  0  0  0  0  0
    1.7310   61.8420   73.4310 C   0  0  0  0  0  0  0  0  0  0  0  0
    1.1320   59.6690   72.3300 C   0  0  0  0  0  0  0  0  0  0  0  0
    0.6990   58.9640   73.6270 C   0  0  0  0  0  0  0  0  0  0  0  0
    1.8740   58.3090   74.3940 C   0  0  1  0  0  0  0  0  0  0  0  0
    3.0580   59.3000   74.6000 C   0  0  1  0  0  0  0  0  0  0  0  0
    4.2390   58.5790   75.2650 C   0  0  0  0  0  0  0  0  0  0  0  0
    3.8310   57.9950   76.6140 C   0  0  0  0  0  0  0  0  0  0  0  0
    2.6210   57.1040   76.4960 C   0  0  0  0  0  0  0  0  0  0  0  0
    2.6050   55.8750   77.0500 C   0  0  0  0  0  0  0  0  0  0  0  0
    1.4060   54.9670   77.0570 C   0  0  2  0  0  0  0  0  0  0  0  0
    0.1220   55.7420   76.7510 C   0  0  0  0  0  0  0  0  0  0  0  0
    0.3060   56.6450   75.5370 C   0  0  0  0  0  0  0  0  0  0  0  0
    1.4280   57.6850   75.7490 C   0  0  2  0  0  0  0  0  0  0  0  0
    3.3960   59.3900   69.3960 C   0  0  0  0  0  0  0  0  0  0  0  0
    3.2140   60.2140   70.2510 C   0  0  0  0  0  0  0  0  0  0  0  0
    1.3220   54.4000   78.3750 O   0  0  0  0  0  0  0  0  0  0  0  0
    0.2050   54.7190   79.0800 C   0  0  0  0  0  0  0  0  0  0  0  0
    0.0160   55.7620   79.6880 O   0  0  0  0  0  0  0  0  0  0  0  0
   -0.7810   53.5930   79.0080 C   0  0  0  0  0  0  0  0  0  0  0  0
    2.2210   62.3230   70.7660 O   0  0  0  0  0  0  0  0  0  0  0  0
    2.8160   63.2240   69.9420 C   0  0  0  0  0  0  0  0  0  0  0  0
    3.3730   62.9810   68.8810 O   0  0  0  0  0  0  0  0  0  0  0  0
    2.7070   64.5950   70.5370 C   0  0  0  0  0  0  0  0  0  0  0  0
    5.1840   61.5052   71.1851 H   0  0  0  0  0  0  0  0  0  0  0  0
    4.3596   62.7838   72.1095 H   0  0  0  0  0  0  0  0  0  0  0  0
    5.5649   60.3711   73.1595 H   0  0  0  0  0  0  0  0  0  0  0  0
    4.6288   61.5438   74.0860 H   0  0  0  0  0  0  0  0  0  0  0  0
    3.7514   58.9756   72.7375 H   0  0  0  0  0  0  0  0  0  0  0  0
    1.8443   61.6010   74.4983 H   0  0  0  0  0  0  0  0  0  0  0  0
    2.2919   62.7598   73.2008 H   0  0  0  0  0  0  0  0  0  0  0  0
    0.6664   61.9954   73.2008 H   0  0  0  0  0  0  0  0  0  0  0  0
    0.2708   60.2160   71.9187 H   0  0  0  0  0  0  0  0  0  0  0  0
    1.4875   58.9003   71.6281 H   0  0  0  0  0  0  0  0  0  0  0  0
    0.2239   59.7063   74.2852 H   0  0  0  0  0  0  0  0  0  0  0  0
    0.0078   58.1571   73.3422 H   0  0  0  0  0  0  0  0  0  0  0  0
    2.2309   57.4847   73.7591 H   0  0  0  0  0  0  0  0  0  0  0  0
    2.7565   60.1189   75.2697 H   0  0  0  0  0  0  0  0  0  0  0  0
    4.5798   57.7649   74.6084 H   0  0  0  0  0  0  0  0  0  0  0  0
    5.0482   59.3062   75.4273 H   0  0  0  0  0  0  0  0  0  0  0  0
    4.6690   57.4060   77.0150 H   0  0  0  0  0  0  0  0  0  0  0  0
    3.5770   58.8291   77.2846 H   0  0  0  0  0  0  0  0  0  0  0  0
    3.5277   55.5133   77.5273 H   0  0  0  0  0  0  0  0  0  0  0  0
    1.5145   54.1913   76.2846 H   0  0  0  0  0  0  0  0  0  0  0  0
   -0.6898   55.0278   76.5485 H   0  0  0  0  0  0  0  0  0  0  0  0
   -0.1248   56.3691   77.6204 H   0  0  0  0  0  0  0  0  0  0  0  0
    0.5603   56.0217   74.6670 H   0  0  0  0  0  0  0  0  0  0  0  0
   -0.6352   57.1912   75.3763 H   0  0  0  0  0  0  0  0  0  0  0  0
    1.0091   58.4830   76.3796 H   0  0  0  0  0  0  0  0  0  0  0  0
    3.5627   58.6355   68.6131 H   0  0  0  0  0  0  0  0  0  0  0  0
   -1.0551   53.2800   80.0263 H   0  0  0  0  0  0  0  0  0  0  0  0
   -1.6816   53.9279   78.4724 H   0  0  0  0  0  0  0  0  0  0  0  0
   -0.3302   52.7445   78.4724 H   0  0  0  0  0  0  0  0  0  0  0  0
    2.7130   64.5200   71.6344 H   0  0  0  0  0  0  0  0  0  0  0  0
    3.5593   65.2069   70.2067 H   0  0  0  0  0  0  0  0  0  0  0  0
    1.7687   65.0645   70.2067 H   0  0  0  0  0  0  0  0  0  0  0  0
  2  1  1  0
  3  2  1  0
  4  3  1  0
  5  4  1  0
  5  1  1  0
  5  6  1  1
  7  5  1  0
  8  7  1  0
  9  8  1  0
 10  4  1  0
 10  9  1  0
 11 10  1  0
 12 11  1  0
 13 12  1  0
 14 13  2  0
 15 14  1  0
 16 15  1  0
 17 16  1  0
 18 17  1  0
 18 13  1  0
 18  9  1  0
 20 19  3  0
  1 20  1  6
 21 15  1  0
 22 21  1  0
 23 22  2  0
 24 22  1  0
 25  1  1  0
 26 25  1  0
 27 26  2  0
 28 26  1  0
  2 29  1  0
  2 30  1  0
  3 31  1  0
  3 32  1  0
  4 33  1  6
  6 34  1  0
  6 35  1  0
  6 36  1  0
  7 37  1  0
  7 38  1  0
  8 39  1  0
  8 40  1  0
  9 41  1  6
 10 42  1  1
 11 43  1  0
 11 44  1  0
 12 45  1  0
 12 46  1  0
 14 47  1  0
 15 48  1  6
 16 49  1  0
 16 50  1  0
 17 51  1  0
 17 52  1  0
 18 53  1  1
 19 54  1  0
 24 55  1  0
 24 56  1  0
 24 57  1  0
 28 58  1  0
 28 59  1  0
 28 60  1  0
M  END
>  <score>  (9) 
-6.164

$$$$
