=
     RDKit          3D

 35 35  0  0  0  0  0  0  0  0999 V2000
    4.5570   69.8230   66.7150 C   0  0  0  0  0  0  0  0  0  0  0  0
    4.2770   69.1660   65.5100 C   0  0  0  0  0  0  0  0  0  0  0  0
    3.0520   68.5180   65.3250 C   0  0  0  0  0  0  0  0  0  0  0  0
    2.0890   68.5240   66.3400 C   0  0  0  0  0  0  0  0  0  0  0  0
    2.3690   69.1590   67.5550 C   0  0  0  0  0  0  0  0  0  0  0  0
    3.5950   69.8070   67.7370 C   0  0  0  0  0  0  0  0  0  0  0  0
    0.8020   67.8160   66.0930 C   0  0  0  0  0  0  0  0  0  0  0  0
    0.8000   66.7240   65.5370 O   0  0  0  0  0  0  0  0  0  0  0  0
   -0.3450   68.4700   66.4940 N   0  0  0  0  0  0  0  0  0  0  0  0
   -1.6600   67.8530   66.3780 C   0  0  0  0  0  0  0  0  0  0  0  0
   -2.6840   68.8820   65.9100 C   0  0  0  0  0  0  0  0  0  0  0  0
   -2.0810   67.2390   67.7110 C   0  0  0  0  0  0  0  0  0  0  0  0
    5.8850   70.5150   66.9310 C   0  0  0  0  0  0  0  0  0  0  0  0
    5.7890   71.4900   68.0240 N   0  0  0  0  0  0  0  0  0  0  0  0
    7.4850   70.8300   69.5280 C   0  0  0  0  0  0  0  0  0  0  0  0
    7.1190   71.8050   68.5050 N   0  0  0  0  0  0  0  0  0  0  0  0
    5.0257   69.1598   64.7041 H   0  0  0  0  0  0  0  0  0  0  0  0
    2.8443   68.0008   64.3766 H   0  0  0  0  0  0  0  0  0  0  0  0
    1.6259   69.1486   68.3659 H   0  0  0  0  0  0  0  0  0  0  0  0
    3.8078   70.3098   68.6919 H   0  0  0  0  0  0  0  0  0  0  0  0
   -0.2696   69.4196   66.8858 H   0  0  0  0  0  0  0  0  0  0  0  0
   -1.6083   67.0476   65.6306 H   0  0  0  0  0  0  0  0  0  0  0  0
   -3.1546   69.3549   66.7846 H   0  0  0  0  0  0  0  0  0  0  0  0
   -2.1813   69.6501   65.3040 H   0  0  0  0  0  0  0  0  0  0  0  0
   -3.4546   68.3831   65.3040 H   0  0  0  0  0  0  0  0  0  0  0  0
   -1.6701   67.8383   68.5368 H   0  0  0  0  0  0  0  0  0  0  0  0
   -3.1789   67.2261   67.7783 H   0  0  0  0  0  0  0  0  0  0  0  0
   -1.6974   66.2103   67.7783 H   0  0  0  0  0  0  0  0  0  0  0  0
    6.6473   69.7632   67.1834 H   0  0  0  0  0  0  0  0  0  0  0  0
    6.1628   71.0443   66.0076 H   0  0  0  0  0  0  0  0  0  0  0  0
    5.3355   72.3485   67.6801 H   0  0  0  0  0  0  0  0  0  0  0  0
    7.3215   71.2655   70.5248 H   0  0  0  0  0  0  0  0  0  0  0  0
    6.8638   69.9293   69.4150 H   0  0  0  0  0  0  0  0  0  0  0  0
    8.5455   70.5606   69.4150 H   0  0  0  0  0  0  0  0  0  0  0  0
    7.1269   72.7523   68.9093 H   0  0  0  0  0  0  0  0  0  0  0  0
  2  1  2  0
  3  2  1  0
  4  3  2  0
  5  4  1  0
  6  5  2  0
  6  1  1  0
  7  4  1  0
  8  7  2  0
  9  7  1  0
 10  9  1  0
 11 10  1  0
 12 10  1  0
 13  1  1  0
 14 13  1  0
 16 15  1  0
 16 14  1  0
  2 17  1  0
  3 18  1  0
  5 19  1  0
  6 20  1  0
  9 21  1  0
 10 22  1  0
 11 23  1  0
 11 24  1  0
 11 25  1  0
 12 26  1  0
 12 27  1  0
 12 28  1  0
 13 29  1  0
 13 30  1  0
 14 31  1  0
 15 32  1  0
 15 33  1  0
 15 34  1  0
 16 35  1  0
M  END
>  <score>  (1) 
-7.883

$$$$
=
     RDKit          3D

 35 35  0  0  0  0  0  0  0  0999 V2000
    4.5040   70.2040   67.9450 C   0  0  0  0  0  0  0  0  0  0  0  0
    5.0610   69.9040   66.6950 C   0  0  0  0  0  0  0  0  0  0  0  0
    4.2940   69.2690   65.7140 C   0  0  0  0  0  0  0  0  0  0  0  0
    2.9600   68.9310   65.9670 C   0  0  0  0  0  0  0  0  0  0  0  0
    2.4030   69.2070   67.2210 C   0  0  0  0  0  0  0  0  0  0  0  0
    3.1720   69.8430   68.2010 C   0  0  0  0  0  0  0  0  0  0  0  0
    2.1900   68.2520   64.8880 C   0  0  0  0  0  0  0  0  0  0  0  0
    2.0680   67.0330   64.8960 O   0  0  0  0  0  0  0  0  0  0  0  0
    1.6690   69.0650   63.9020 N   0  0  0  0  0  0  0  0  0  0  0  0
    0.8330   68.5340   62.8330 C   0  0  0  0  0  0  0  0  0  0  0  0
    1.3460   69.0120   61.4780 C   0  0  0  0  0  0  0  0  0  0  0  0
   -0.6220   68.9500   63.0380 C   0  0  0  0  0  0  0  0  0  0  0  0
    5.3280   70.8790   69.0200 C   0  0  0  0  0  0  0  0  0  0  0  0
    6.2970   71.8070   68.4230 N   0  0  0  0  0  0  0  0  0  0  0  0
    7.4560   70.6160   70.1000 C   0  0  0  0  0  0  0  0  0  0  0  0
    7.5900   71.6210   69.0490 N   0  0  0  0  0  0  0  0  0  0  0  0
    6.1075   70.1696   66.4844 H   0  0  0  0  0  0  0  0  0  0  0  0
    4.7418   69.0336   64.7373 H   0  0  0  0  0  0  0  0  0  0  0  0
    1.3619   68.9241   67.4355 H   0  0  0  0  0  0  0  0  0  0  0  0
    2.7280   70.0627   69.1832 H   0  0  0  0  0  0  0  0  0  0  0  0
    1.8765   70.0737   63.9222 H   0  0  0  0  0  0  0  0  0  0  0  0
    0.8825   67.4354   62.8565 H   0  0  0  0  0  0  0  0  0  0  0  0
    2.1432   69.7548   61.6290 H   0  0  0  0  0  0  0  0  0  0  0  0
    1.7446   68.1558   60.9140 H   0  0  0  0  0  0  0  0  0  0  0  0
    0.5201   69.4700   60.9140 H   0  0  0  0  0  0  0  0  0  0  0  0
   -0.8375   69.0116   64.1149 H   0  0  0  0  0  0  0  0  0  0  0  0
   -0.7914   69.9326   62.5734 H   0  0  0  0  0  0  0  0  0  0  0  0
   -1.2852   68.2055   62.5734 H   0  0  0  0  0  0  0  0  0  0  0  0
    4.6588   71.4375   69.6910 H   0  0  0  0  0  0  0  0  0  0  0  0
    5.8755   70.1087   69.5829 H   0  0  0  0  0  0  0  0  0  0  0  0
    6.3742   71.6204   67.4130 H   0  0  0  0  0  0  0  0  0  0  0  0
    7.5210   71.1035   71.0839 H   0  0  0  0  0  0  0  0  0  0  0  0
    6.4828   70.1124   70.0039 H   0  0  0  0  0  0  0  0  0  0  0  0
    8.2633   69.8750   70.0039 H   0  0  0  0  0  0  0  0  0  0  0  0
    7.9092   72.5108   69.4579 H   0  0  0  0  0  0  0  0  0  0  0  0
  2  1  2  0
  3  2  1  0
  4  3  2  0
  5  4  1  0
  6  5  2  0
  6  1  1  0
  7  4  1  0
  8  7  2  0
  9  7  1  0
 10  9  1  0
 11 10  1  0
 12 10  1  0
 13  1  1  0
 14 13  1  0
 16 15  1  0
 16 14  1  0
  2 17  1  0
  3 18  1  0
  5 19  1  0
  6 20  1  0
  9 21  1  0
 10 22  1  0
 11 23  1  0
 11 24  1  0
 11 25  1  0
 12 26  1  0
 12 27  1  0
 12 28  1  0
 13 29  1  0
 13 30  1  0
 14 31  1  0
 15 32  1  0
 15 33  1  0
 15 34  1  0
 16 35  1  0
M  END
>  <score>  (2) 
-7.448

$$$$
=
     RDKit          3D

 35 35  0  0  0  0  0  0  0  0999 V2000
    1.3340   68.5870   64.2010 C   0  0  0  0  0  0  0  0  0  0  0  0
    1.3270   68.7230   65.5950 C   0  0  0  0  0  0  0  0  0  0  0  0
    2.5000   69.0500   66.2800 C   0  0  0  0  0  0  0  0  0  0  0  0
    3.6950   69.2520   65.5790 C   0  0  0  0  0  0  0  0  0  0  0  0
    3.7150   69.0960   64.1890 C   0  0  0  0  0  0  0  0  0  0  0  0
    2.5390   68.7690   63.5060 C   0  0  0  0  0  0  0  0  0  0  0  0
    4.9180   69.5950   66.3580 C   0  0  0  0  0  0  0  0  0  0  0  0
    6.0270   69.4070   65.8720 O   0  0  0  0  0  0  0  0  0  0  0  0
    4.7160   70.0940   67.6280 N   0  0  0  0  0  0  0  0  0  0  0  0
    5.8240   70.5390   68.4630 C   0  0  0  0  0  0  0  0  0  0  0  0
    5.4130   70.5300   69.9320 C   0  0  0  0  0  0  0  0  0  0  0  0
    6.2850   71.9310   68.0390 C   0  0  0  0  0  0  0  0  0  0  0  0
    0.0720   68.2190   63.4510 C   0  0  0  0  0  0  0  0  0  0  0  0
   -0.8820   69.3350   63.4640 N   0  0  0  0  0  0  0  0  0  0  0  0
   -2.3140   68.8500   65.2780 C   0  0  0  0  0  0  0  0  0  0  0  0
   -2.1960   68.8410   63.8220 N   0  0  0  0  0  0  0  0  0  0  0  0
    0.3919   68.5714   66.1541 H   0  0  0  0  0  0  0  0  0  0  0  0
    2.4846   69.1492   67.3754 H   0  0  0  0  0  0  0  0  0  0  0  0
    4.6549   69.2304   63.6335 H   0  0  0  0  0  0  0  0  0  0  0  0
    2.5592   68.6533   62.4123 H   0  0  0  0  0  0  0  0  0  0  0  0
    3.7558   70.1536   67.9960 H   0  0  0  0  0  0  0  0  0  0  0  0
    6.6665   69.8438   68.3332 H   0  0  0  0  0  0  0  0  0  0  0  0
    6.3127   70.5497   70.5646 H   0  0  0  0  0  0  0  0  0  0  0  0
    4.7953   71.4148   70.1454 H   0  0  0  0  0  0  0  0  0  0  0  0
    4.8346   69.6190   70.1454 H   0  0  0  0  0  0  0  0  0  0  0  0
    6.4863   72.5388   68.9334 H   0  0  0  0  0  0  0  0  0  0  0  0
    7.2031   71.8463   67.4390 H   0  0  0  0  0  0  0  0  0  0  0  0
    5.4979   72.4110   67.4390 H   0  0  0  0  0  0  0  0  0  0  0  0
    0.3287   67.9752   62.4095 H   0  0  0  0  0  0  0  0  0  0  0  0
   -0.3917   67.3509   63.9423 H   0  0  0  0  0  0  0  0  0  0  0  0
   -0.5794   70.0376   64.1537 H   0  0  0  0  0  0  0  0  0  0  0  0
   -1.3129   68.7736   65.7275 H   0  0  0  0  0  0  0  0  0  0  0  0
   -2.7907   69.7871   65.6015 H   0  0  0  0  0  0  0  0  0  0  0  0
   -2.9273   67.9960   65.6015 H   0  0  0  0  0  0  0  0  0  0  0  0
   -2.3138   67.8803   63.4699 H   0  0  0  0  0  0  0  0  0  0  0  0
  2  1  2  0
  3  2  1  0
  4  3  2  0
  5  4  1  0
  6  5  2  0
  6  1  1  0
  7  4  1  0
  8  7  2  0
  9  7  1  0
 10  9  1  0
 11 10  1  0
 12 10  1  0
 13  1  1  0
 14 13  1  0
 16 15  1  0
 16 14  1  0
  2 17  1  0
  3 18  1  0
  5 19  1  0
  6 20  1  0
  9 21  1  0
 10 22  1  0
 11 23  1  0
 11 24  1  0
 11 25  1  0
 12 26  1  0
 12 27  1  0
 12 28  1  0
 13 29  1  0
 13 30  1  0
 14 31  1  0
 15 32  1  0
 15 33  1  0
 15 34  1  0
 16 35  1  0
M  END
>  <score>  (3) 
-7.15

$$$$
=
     RDKit          3D

 35 35  0  0  0  0  0  0  0  0999 V2000
    1.8960   68.6630   65.7430 C   0  0  0  0  0  0  0  0  0  0  0  0
    1.4120   68.9090   67.0340 C   0  0  0  0  0  0  0  0  0  0  0  0
    2.2340   69.5010   67.9970 C   0  0  0  0  0  0  0  0  0  0  0  0
    3.5490   69.8600   67.6800 C   0  0  0  0  0  0  0  0  0  0  0  0
    4.0470   69.5980   66.3990 C   0  0  0  0  0  0  0  0  0  0  0  0
    3.2220   69.0060   65.4380 C   0  0  0  0  0  0  0  0  0  0  0  0
    4.3840   70.4850   68.7440 C   0  0  0  0  0  0  0  0  0  0  0  0
    3.8630   70.8690   69.7850 O   0  0  0  0  0  0  0  0  0  0  0  0
    5.7290   70.6190   68.4690 N   0  0  0  0  0  0  0  0  0  0  0  0
    6.6650   71.1430   69.4550 C   0  0  0  0  0  0  0  0  0  0  0  0
    8.0330   71.3640   68.8160 C   0  0  0  0  0  0  0  0  0  0  0  0
    6.7720   70.1950   70.6460 C   0  0  0  0  0  0  0  0  0  0  0  0
    1.0190   68.0110   64.6980 C   0  0  0  0  0  0  0  0  0  0  0  0
   -0.3840   68.4050   64.8780 N   0  0  0  0  0  0  0  0  0  0  0  0
    0.1250   68.9400   62.6360 C   0  0  0  0  0  0  0  0  0  0  0  0
   -0.9600   68.7350   63.5910 N   0  0  0  0  0  0  0  0  0  0  0  0
    0.3784   68.6346   67.2917 H   0  0  0  0  0  0  0  0  0  0  0  0
    1.8453   69.6857   69.0093 H   0  0  0  0  0  0  0  0  0  0  0  0
    5.0862   69.8574   66.1484 H   0  0  0  0  0  0  0  0  0  0  0  0
    3.6170   68.8068   64.4309 H   0  0  0  0  0  0  0  0  0  0  0  0
    6.0811   70.3412   67.5418 H   0  0  0  0  0  0  0  0  0  0  0  0
    6.2898   72.1106   69.8196 H   0  0  0  0  0  0  0  0  0  0  0  0
    8.7904   71.4864   69.6042 H   0  0  0  0  0  0  0  0  0  0  0  0
    8.2906   70.4958   68.1916 H   0  0  0  0  0  0  0  0  0  0  0  0
    8.0041   72.2691   68.1916 H   0  0  0  0  0  0  0  0  0  0  0  0
    6.7069   70.7715   71.5805 H   0  0  0  0  0  0  0  0  0  0  0  0
    5.9506   69.4643   70.6080 H   0  0  0  0  0  0  0  0  0  0  0  0
    7.7356   69.6658   70.6080 H   0  0  0  0  0  0  0  0  0  0  0  0
    1.3561   68.3226   63.6984 H   0  0  0  0  0  0  0  0  0  0  0  0
    1.0957   66.9188   64.8036 H   0  0  0  0  0  0  0  0  0  0  0  0
   -0.9085   67.6252   65.2994 H   0  0  0  0  0  0  0  0  0  0  0  0
    1.0641   69.1174   63.1806 H   0  0  0  0  0  0  0  0  0  0  0  0
    0.2309   68.0460   62.0039 H   0  0  0  0  0  0  0  0  0  0  0  0
   -0.1025   69.8110   62.0039 H   0  0  0  0  0  0  0  0  0  0  0  0
   -1.5193   69.5962   63.6713 H   0  0  0  0  0  0  0  0  0  0  0  0
  2  1  2  0
  3  2  1  0
  4  3  2  0
  5  4  1  0
  6  5  2  0
  6  1  1  0
  7  4  1  0
  8  7  2  0
  9  7  1  0
 10  9  1  0
 11 10  1  0
 12 10  1  0
 13  1  1  0
 14 13  1  0
 16 15  1  0
 16 14  1  0
  2 17  1  0
  3 18  1  0
  5 19  1  0
  6 20  1  0
  9 21  1  0
 10 22  1  0
 11 23  1  0
 11 24  1  0
 11 25  1  0
 12 26  1  0
 12 27  1  0
 12 28  1  0
 13 29  1  0
 13 30  1  0
 14 31  1  0
 15 32  1  0
 15 33  1  0
 15 34  1  0
 16 35  1  0
M  END
>  <score>  (4) 
-7.095

$$$$
=
     RDKit          3D

 35 35  0  0  0  0  0  0  0  0999 V2000
   -0.8000   68.1700   66.7590 C   0  0  0  0  0  0  0  0  0  0  0  0
    0.4950   68.3310   67.2680 C   0  0  0  0  0  0  0  0  0  0  0  0
    0.9220   67.5780   68.3660 C   0  0  0  0  0  0  0  0  0  0  0  0
    0.0620   66.6510   68.9650 C   0  0  0  0  0  0  0  0  0  0  0  0
   -1.2400   66.5000   68.4760 C   0  0  0  0  0  0  0  0  0  0  0  0
   -1.6650   67.2540   67.3780 C   0  0  0  0  0  0  0  0  0  0  0  0
    0.5660   65.8770   70.1340 C   0  0  0  0  0  0  0  0  0  0  0  0
    0.1100   66.0890   71.2520 O   0  0  0  0  0  0  0  0  0  0  0  0
    1.5670   64.9620   69.8790 N   0  0  0  0  0  0  0  0  0  0  0  0
    2.0920   64.0900   70.9210 C   0  0  0  0  0  0  0  0  0  0  0  0
    3.5590   63.7700   70.6490 C   0  0  0  0  0  0  0  0  0  0  0  0
    1.2670   62.8080   71.0100 C   0  0  0  0  0  0  0  0  0  0  0  0
   -1.2770   68.9900   65.5800 C   0  0  0  0  0  0  0  0  0  0  0  0
   -0.3840   68.8100   64.4290 N   0  0  0  0  0  0  0  0  0  0  0  0
   -0.2390   69.5280   62.1840 C   0  0  0  0  0  0  0  0  0  0  0  0
   -1.1350   68.9910   63.2040 N   0  0  0  0  0  0  0  0  0  0  0  0
    1.1800   69.0541   66.8012 H   0  0  0  0  0  0  0  0  0  0  0  0
    1.9394   67.7151   68.7610 H   0  0  0  0  0  0  0  0  0  0  0  0
   -1.9288   65.7886   68.9550 H   0  0  0  0  0  0  0  0  0  0  0  0
   -2.6884   67.1280   66.9950 H   0  0  0  0  0  0  0  0  0  0  0  0
    1.9532   64.8938   68.9266 H   0  0  0  0  0  0  0  0  0  0  0  0
    2.0218   64.6111   71.8872 H   0  0  0  0  0  0  0  0  0  0  0  0
    4.0921   63.6537   71.6041 H   0  0  0  0  0  0  0  0  0  0  0  0
    3.6298   62.8353   70.0734 H   0  0  0  0  0  0  0  0  0  0  0  0
    4.0126   64.5903   70.0734 H   0  0  0  0  0  0  0  0  0  0  0  0
    1.1016   62.5510   72.0667 H   0  0  0  0  0  0  0  0  0  0  0  0
    0.2973   62.9608   70.5137 H   0  0  0  0  0  0  0  0  0  0  0  0
    1.8078   61.9887   70.5137 H   0  0  0  0  0  0  0  0  0  0  0  0
   -2.2920   68.6687   65.3035 H   0  0  0  0  0  0  0  0  0  0  0  0
   -1.2779   70.0525   65.8648 H   0  0  0  0  0  0  0  0  0  0  0  0
    0.3759   69.5040   64.4719 H   0  0  0  0  0  0  0  0  0  0  0  0
    0.6075   70.0353   62.6699 H   0  0  0  0  0  0  0  0  0  0  0  0
    0.1370   68.7062   61.5568 H   0  0  0  0  0  0  0  0  0  0  0  0
   -0.7864   70.2470   61.5568 H   0  0  0  0  0  0  0  0  0  0  0  0
   -1.9104   69.6493   63.3663 H   0  0  0  0  0  0  0  0  0  0  0  0
  2  1  2  0
  3  2  1  0
  4  3  2  0
  5  4  1  0
  6  5  2  0
  6  1  1  0
  7  4  1  0
  8  7  2  0
  9  7  1  0
 10  9  1  0
 11 10  1  0
 12 10  1  0
 13  1  1  0
 14 13  1  0
 16 15  1  0
 16 14  1  0
  2 17  1  0
  3 18  1  0
  5 19  1  0
  6 20  1  0
  9 21  1  0
 10 22  1  0
 11 23  1  0
 11 24  1  0
 11 25  1  0
 12 26  1  0
 12 27  1  0
 12 28  1  0
 13 29  1  0
 13 30  1  0
 14 31  1  0
 15 32  1  0
 15 33  1  0
 15 34  1  0
 16 35  1  0
M  END
>  <score>  (5) 
-7.044

$$$$
=
     RDKit          3D

 35 35  0  0  0  0  0  0  0  0999 V2000
    2.9610   61.8760   71.1610 C   0  0  0  0  0  0  0  0  0  0  0  0
    3.5450   62.9120   70.4200 C   0  0  0  0  0  0  0  0  0  0  0  0
    2.8340   64.0890   70.1690 C   0  0  0  0  0  0  0  0  0  0  0  0
    1.5330   64.2480   70.6610 C   0  0  0  0  0  0  0  0  0  0  0  0
    0.9350   63.2090   71.3830 C   0  0  0  0  0  0  0  0  0  0  0  0
    1.6490   62.0330   71.6330 C   0  0  0  0  0  0  0  0  0  0  0  0
    0.8190   65.5210   70.3610 C   0  0  0  0  0  0  0  0  0  0  0  0
    0.0500   66.0000   71.1860 O   0  0  0  0  0  0  0  0  0  0  0  0
    1.0560   66.0810   69.1230 N   0  0  0  0  0  0  0  0  0  0  0  0
    0.4800   67.3610   68.7370 C   0  0  0  0  0  0  0  0  0  0  0  0
   -0.7410   67.1420   67.8480 C   0  0  0  0  0  0  0  0  0  0  0  0
    1.5200   68.2220   68.0240 C   0  0  0  0  0  0  0  0  0  0  0  0
    3.7170   60.5920   71.4270 C   0  0  0  0  0  0  0  0  0  0  0  0
    4.4000   60.1310   70.2110 N   0  0  0  0  0  0  0  0  0  0  0  0
    3.3310   58.1280   70.8590 C   0  0  0  0  0  0  0  0  0  0  0  0
    3.7470   58.9360   69.7170 N   0  0  0  0  0  0  0  0  0  0  0  0
    4.5686   62.7984   70.0337 H   0  0  0  0  0  0  0  0  0  0  0  0
    3.2991   64.8945   69.5818 H   0  0  0  0  0  0  0  0  0  0  0  0
   -0.0951   63.3173   71.7533 H   0  0  0  0  0  0  0  0  0  0  0  0
    1.1767   61.2217   72.2063 H   0  0  0  0  0  0  0  0  0  0  0  0
    1.6570   65.5798   68.4533 H   0  0  0  0  0  0  0  0  0  0  0  0
    0.1595   67.8924   69.6453 H   0  0  0  0  0  0  0  0  0  0  0  0
   -1.6290   66.9827   68.4774 H   0  0  0  0  0  0  0  0  0  0  0  0
   -0.8956   68.0267   67.2129 H   0  0  0  0  0  0  0  0  0  0  0  0
   -0.5785   66.2587   67.2129 H   0  0  0  0  0  0  0  0  0  0  0  0
    2.1428   68.7376   68.7698 H   0  0  0  0  0  0  0  0  0  0  0  0
    2.1560   67.5825   67.3942 H   0  0  0  0  0  0  0  0  0  0  0  0
    1.0105   68.9662   67.3942 H   0  0  0  0  0  0  0  0  0  0  0  0
    4.4633   60.7690   72.2155 H   0  0  0  0  0  0  0  0  0  0  0  0
    3.0016   59.8195   71.7456 H   0  0  0  0  0  0  0  0  0  0  0  0
    4.3576   60.8679   69.4926 H   0  0  0  0  0  0  0  0  0  0  0  0
    3.5979   58.6465   71.7917 H   0  0  0  0  0  0  0  0  0  0  0  0
    2.2422   57.9754   70.8230 H   0  0  0  0  0  0  0  0  0  0  0  0
    3.8393   57.1531   70.8230 H   0  0  0  0  0  0  0  0  0  0  0  0
    4.4027   58.3987   69.1320 H   0  0  0  0  0  0  0  0  0  0  0  0
  2  1  2  0
  3  2  1  0
  4  3  2  0
  5  4  1  0
  6  5  2  0
  6  1  1  0
  7  4  1  0
  8  7  2  0
  9  7  1  0
 10  9  1  0
 11 10  1  0
 12 10  1  0
 13  1  1  0
 14 13  1  0
 16 15  1  0
 16 14  1  0
  2 17  1  0
  3 18  1  0
  5 19  1  0
  6 20  1  0
  9 21  1  0
 10 22  1  0
 11 23  1  0
 11 24  1  0
 11 25  1  0
 12 26  1  0
 12 27  1  0
 12 28  1  0
 13 29  1  0
 13 30  1  0
 14 31  1  0
 15 32  1  0
 15 33  1  0
 15 34  1  0
 16 35  1  0
M  END
>  <score>  (6) 
-6.863

$$$$
=
     RDKit          3D

 35 35  0  0  0  0  0  0  0  0999 V2000
    1.0160   65.0260   70.7590 C   0  0  0  0  0  0  0  0  0  0  0  0
    2.2720   64.6310   70.2800 C   0  0  0  0  0  0  0  0  0  0  0  0
    2.8680   63.4550   70.7440 C   0  0  0  0  0  0  0  0  0  0  0  0
    2.2140   62.6560   71.6880 C   0  0  0  0  0  0  0  0  0  0  0  0
    0.9690   63.0550   72.1880 C   0  0  0  0  0  0  0  0  0  0  0  0
    0.3750   64.2310   71.7220 C   0  0  0  0  0  0  0  0  0  0  0  0
    2.8950   61.4140   72.1520 C   0  0  0  0  0  0  0  0  0  0  0  0
    3.9420   61.4900   72.7840 O   0  0  0  0  0  0  0  0  0  0  0  0
    2.2980   60.2200   71.8030 N   0  0  0  0  0  0  0  0  0  0  0  0
    2.8210   58.9390   72.2590 C   0  0  0  0  0  0  0  0  0  0  0  0
    3.4230   58.1700   71.0860 C   0  0  0  0  0  0  0  0  0  0  0  0
    1.7220   58.1230   72.9340 C   0  0  0  0  0  0  0  0  0  0  0  0
    0.3690   66.3040   70.2740 C   0  0  0  0  0  0  0  0  0  0  0  0
   -0.3560   66.0740   69.0180 N   0  0  0  0  0  0  0  0  0  0  0  0
   -0.8370   67.2880   67.0510 C   0  0  0  0  0  0  0  0  0  0  0  0
    0.2240   66.8900   67.9710 N   0  0  0  0  0  0  0  0  0  0  0  0
    2.7922   65.2501   69.5343 H   0  0  0  0  0  0  0  0  0  0  0  0
    3.8564   63.1561   70.3650 H   0  0  0  0  0  0  0  0  0  0  0  0
    0.4587   62.4436   72.9468 H   0  0  0  0  0  0  0  0  0  0  0  0
   -0.6060   64.5371   72.1143 H   0  0  0  0  0  0  0  0  0  0  0  0
    1.4602   60.2348   71.2041 H   0  0  0  0  0  0  0  0  0  0  0  0
    3.6137   59.1233   72.9991 H   0  0  0  0  0  0  0  0  0  0  0  0
    4.0589   57.3577   71.4678 H   0  0  0  0  0  0  0  0  0  0  0  0
    2.6148   57.7454   70.4724 H   0  0  0  0  0  0  0  0  0  0  0  0
    4.0292   58.8527   70.4724 H   0  0  0  0  0  0  0  0  0  0  0  0
    1.8262   58.2004   74.0263 H   0  0  0  0  0  0  0  0  0  0  0  0
    0.7384   58.5113   72.6311 H   0  0  0  0  0  0  0  0  0  0  0  0
    1.8092   57.0691   72.6311 H   0  0  0  0  0  0  0  0  0  0  0  0
   -0.3364   66.6640   71.0375 H   0  0  0  0  0  0  0  0  0  0  0  0
    1.1547   67.0533   70.0969 H   0  0  0  0  0  0  0  0  0  0  0  0
   -0.2855   65.0799   68.7577 H   0  0  0  0  0  0  0  0  0  0  0  0
   -1.7156   67.6176   67.6250 H   0  0  0  0  0  0  0  0  0  0  0  0
   -0.4821   68.1141   66.4173 H   0  0  0  0  0  0  0  0  0  0  0  0
   -1.1130   66.4323   66.4173 H   0  0  0  0  0  0  0  0  0  0  0  0
    0.9382   66.3481   67.4638 H   0  0  0  0  0  0  0  0  0  0  0  0
  2  1  2  0
  3  2  1  0
  4  3  2  0
  5  4  1  0
  6  5  2  0
  6  1  1  0
  7  4  1  0
  8  7  2  0
  9  7  1  0
 10  9  1  0
 11 10  1  0
 12 10  1  0
 13  1  1  0
 14 13  1  0
 16 15  1  0
 16 14  1  0
  2 17  1  0
  3 18  1  0
  5 19  1  0
  6 20  1  0
  9 21  1  0
 10 22  1  0
 11 23  1  0
 11 24  1  0
 11 25  1  0
 12 26  1  0
 12 27  1  0
 12 28  1  0
 13 29  1  0
 13 30  1  0
 14 31  1  0
 15 32  1  0
 15 33  1  0
 15 34  1  0
 16 35  1  0
M  END
>  <score>  (7) 
-6.449

$$$$
=
     RDKit          3D

 35 35  0  0  0  0  0  0  0  0999 V2000
    1.6170   57.4760   72.9990 C   0  0  0  0  0  0  0  0  0  0  0  0
    0.9110   58.5830   73.4860 C   0  0  0  0  0  0  0  0  0  0  0  0
    1.2130   59.8700   73.0310 C   0  0  0  0  0  0  0  0  0  0  0  0
    2.2190   60.0660   72.0790 C   0  0  0  0  0  0  0  0  0  0  0  0
    2.9440   58.9670   71.6040 C   0  0  0  0  0  0  0  0  0  0  0  0
    2.6400   57.6800   72.0600 C   0  0  0  0  0  0  0  0  0  0  0  0
    2.5030   61.4580   71.6310 C   0  0  0  0  0  0  0  0  0  0  0  0
    2.1530   62.4070   72.3220 O   0  0  0  0  0  0  0  0  0  0  0  0
    3.1380   61.5930   70.4140 N   0  0  0  0  0  0  0  0  0  0  0  0
    3.5400   62.8950   69.8990 C   0  0  0  0  0  0  0  0  0  0  0  0
    3.6740   62.8420   68.3800 C   0  0  0  0  0  0  0  0  0  0  0  0
    4.8500   63.3430   70.5410 C   0  0  0  0  0  0  0  0  0  0  0  0
    1.3080   56.0800   73.4940 C   0  0  0  0  0  0  0  0  0  0  0  0
    2.5150   55.2460   73.4810 N   0  0  0  0  0  0  0  0  0  0  0  0
    1.7540   53.9500   75.3020 C   0  0  0  0  0  0  0  0  0  0  0  0
    2.1770   53.9030   73.9050 N   0  0  0  0  0  0  0  0  0  0  0  0
    0.1143   58.4391   74.2307 H   0  0  0  0  0  0  0  0  0  0  0  0
    0.6563   60.7335   73.4239 H   0  0  0  0  0  0  0  0  0  0  0  0
    3.7522   59.1152   70.8727 H   0  0  0  0  0  0  0  0  0  0  0  0
    3.2086   56.8190   71.6787 H   0  0  0  0  0  0  0  0  0  0  0  0
    3.3332   60.7506   69.8544 H   0  0  0  0  0  0  0  0  0  0  0  0
    2.7634   63.6307   70.1554 H   0  0  0  0  0  0  0  0  0  0  0  0
    4.6663   62.4495   68.1129 H   0  0  0  0  0  0  0  0  0  0  0  0
    2.8958   62.1839   67.9660 H   0  0  0  0  0  0  0  0  0  0  0  0
    3.5565   63.8543   67.9660 H   0  0  0  0  0  0  0  0  0  0  0  0
    4.7519   63.3095   71.6361 H   0  0  0  0  0  0  0  0  0  0  0  0
    5.6618   62.6714   70.2248 H   0  0  0  0  0  0  0  0  0  0  0  0
    5.0805   64.3711   70.2248 H   0  0  0  0  0  0  0  0  0  0  0  0
    0.9208   56.1388   74.5219 H   0  0  0  0  0  0  0  0  0  0  0  0
    0.5580   55.6270   72.8290 H   0  0  0  0  0  0  0  0  0  0  0  0
    2.9028   55.2178   72.5272 H   0  0  0  0  0  0  0  0  0  0  0  0
    2.6338   53.8522   75.9550 H   0  0  0  0  0  0  0  0  0  0  0  0
    1.2540   54.9092   75.5016 H   0  0  0  0  0  0  0  0  0  0  0  0
    1.0556   53.1239   75.5016 H   0  0  0  0  0  0  0  0  0  0  0  0
    3.0008   53.2917   73.8119 H   0  0  0  0  0  0  0  0  0  0  0  0
  2  1  2  0
  3  2  1  0
  4  3  2  0
  5  4  1  0
  6  5  2  0
  6  1  1  0
  7  4  1  0
  8  7  2  0
  9  7  1  0
 10  9  1  0
 11 10  1  0
 12 10  1  0
 13  1  1  0
 14 13  1  0
 16 15  1  0
 16 14  1  0
  2 17  1  0
  3 18  1  0
  5 19  1  0
  6 20  1  0
  9 21  1  0
 10 22  1  0
 11 23  1  0
 11 24  1  0
 11 25  1  0
 12 26  1  0
 12 27  1  0
 12 28  1  0
 13 29  1  0
 13 30  1  0
 14 31  1  0
 15 32  1  0
 15 33  1  0
 15 34  1  0
 16 35  1  0
M  END
>  <score>  (8) 
-6.347

$$$$
=
     RDKit          3D

 35 35  0  0  0  0  0  0  0  0999 V2000
    3.5550   66.8650   64.3030 C   0  0  0  0  0  0  0  0  0  0  0  0
    2.4030   66.1070   64.5510 C   0  0  0  0  0  0  0  0  0  0  0  0
    1.3270   66.6640   65.2470 C   0  0  0  0  0  0  0  0  0  0  0  0
    1.3840   67.9870   65.6980 C   0  0  0  0  0  0  0  0  0  0  0  0
    2.5400   68.7440   65.4720 C   0  0  0  0  0  0  0  0  0  0  0  0
    3.6150   68.1850   64.7750 C   0  0  0  0  0  0  0  0  0  0  0  0
    0.2110   68.5310   66.4370 C   0  0  0  0  0  0  0  0  0  0  0  0
    0.3680   69.4170   67.2690 O   0  0  0  0  0  0  0  0  0  0  0  0
   -1.0130   67.9630   66.1480 N   0  0  0  0  0  0  0  0  0  0  0  0
   -2.2470   68.4550   66.7460 C   0  0  0  0  0  0  0  0  0  0  0  0
   -2.8880   67.3650   67.6000 C   0  0  0  0  0  0  0  0  0  0  0  0
   -3.2120   68.9300   65.6630 C   0  0  0  0  0  0  0  0  0  0  0  0
    4.7310   66.2670   63.5620 C   0  0  0  0  0  0  0  0  0  0  0  0
    4.3090   65.1060   62.7690 N   0  0  0  0  0  0  0  0  0  0  0  0
    4.4130   63.4780   64.4760 C   0  0  0  0  0  0  0  0  0  0  0  0
    5.0180   63.9280   63.2250 N   0  0  0  0  0  0  0  0  0  0  0  0
    2.3453   65.0675   64.1958 H   0  0  0  0  0  0  0  0  0  0  0  0
    0.4295   66.0584   65.4415 H   0  0  0  0  0  0  0  0  0  0  0  0
    2.6022   69.7778   65.8427 H   0  0  0  0  0  0  0  0  0  0  0  0
    4.5180   68.7866   64.5945 H   0  0  0  0  0  0  0  0  0  0  0  0
   -1.0553   67.1700   65.4920 H   0  0  0  0  0  0  0  0  0  0  0  0
   -2.0096   69.3117   67.3939 H   0  0  0  0  0  0  0  0  0  0  0  0
   -2.7478   67.6034   68.6647 H   0  0  0  0  0  0  0  0  0  0  0  0
   -3.9633   67.3082   67.3755 H   0  0  0  0  0  0  0  0  0  0  0  0
   -2.4150   66.3976   67.3755 H   0  0  0  0  0  0  0  0  0  0  0  0
   -4.1040   69.3691   66.1336 H   0  0  0  0  0  0  0  0  0  0  0  0
   -2.7171   69.6874   65.0374 H   0  0  0  0  0  0  0  0  0  0  0  0
   -3.5104   68.0758   65.0374 H   0  0  0  0  0  0  0  0  0  0  0  0
    5.1588   67.0264   62.8909 H   0  0  0  0  0  0  0  0  0  0  0  0
    5.4819   65.9396   64.2961 H   0  0  0  0  0  0  0  0  0  0  0  0
    3.2954   64.9624   62.8826 H   0  0  0  0  0  0  0  0  0  0  0  0
    4.9738   63.8951   65.3254 H   0  0  0  0  0  0  0  0  0  0  0  0
    3.3688   63.8206   64.5224 H   0  0  0  0  0  0  0  0  0  0  0  0
    4.4408   62.3793   64.5224 H   0  0  0  0  0  0  0  0  0  0  0  0
    6.0096   64.1583   63.3818 H   0  0  0  0  0  0  0  0  0  0  0  0
  2  1  2  0
  3  2  1  0
  4  3  2  0
  5  4  1  0
  6  5  2  0
  6  1  1  0
  7  4  1  0
  8  7  2  0
  9  7  1  0
 10  9  1  0
 11 10  1  0
 12 10  1  0
 13  1  1  0
 14 13  1  0
 16 15  1  0
 16 14  1  0
  2 17  1  0
  3 18  1  0
  5 19  1  0
  6 20  1  0
  9 21  1  0
 10 22  1  0
 11 23  1  0
 11 24  1  0
 11 25  1  0
 12 26  1  0
 12 27  1  0
 12 28  1  0
 13 29  1  0
 13 30  1  0
 14 31  1  0
 15 32  1  0
 15 33  1  0
 15 34  1  0
 16 35  1  0
M  END
>  <score>  (9) 
-6.317

$$$$
