=
     RDKit          3D

 57 59  0  0  0  0  0  0  0  0999 V2000
    0.3100   66.0890   70.8680 C   0  0  0  0  0  0  0  0  0  0  0  0
    0.4620   64.5680   70.8340 C   0  0  1  0  0  0  0  0  0  0  0  0
    1.8150   64.0850   70.2590 C   0  0  0  0  0  0  0  0  0  0  0  0
    2.3230   63.1130   71.2760 C   0  0  0  0  0  0  0  0  0  0  0  0
    1.5420   63.0840   72.4210 C   0  0  0  0  0  0  0  0  0  0  0  0
    0.4270   64.0030   72.2390 C   0  0  0  0  0  0  0  0  0  0  0  0
   -0.4040   64.2460   73.0960 O   0  0  0  0  0  0  0  0  0  0  0  0
    1.8280   62.2920   73.5170 C   0  0  0  0  0  0  0  0  0  0  0  0
    2.9640   61.4810   73.4490 C   0  0  0  0  0  0  0  0  0  0  0  0
    3.7800   61.4900   72.2820 C   0  0  0  0  0  0  0  0  0  0  0  0
    3.4550   62.3160   71.1950 C   0  0  0  0  0  0  0  0  0  0  0  0
    4.8740   60.6600   72.3180 O   0  0  0  0  0  0  0  0  0  0  0  0
    5.9070   60.8780   71.3690 C   0  0  0  0  0  0  0  0  0  0  0  0
    3.3730   60.6410   74.4570 O   0  0  0  0  0  0  0  0  0  0  0  0
    2.3910   60.1900   75.3800 C   0  0  0  0  0  0  0  0  0  0  0  0
    0.3860   67.9140   66.9400 C   0  0  0  0  0  0  0  0  0  0  0  0
    1.4330   68.1340   67.8480 C   0  0  0  0  0  0  0  0  0  0  0  0
    1.4120   67.5420   69.1130 C   0  0  0  0  0  0  0  0  0  0  0  0
    0.3460   66.7200   69.4960 C   0  0  0  0  0  0  0  0  0  0  0  0
   -0.6950   66.4920   68.5870 C   0  0  0  0  0  0  0  0  0  0  0  0
   -0.6750   67.0810   67.3200 C   0  0  0  0  0  0  0  0  0  0  0  0
    0.3850   68.5900   65.5960 C   0  0  0  0  0  0  0  0  0  0  0  0
    0.7970   67.6670   64.4620 N   0  0  0  0  0  4  0  0  0  0  0  0
   -0.3220   69.1340   62.7830 C   0  0  0  0  0  0  0  0  0  0  0  0
    0.9520   68.3850   63.1380 C   0  0  0  0  0  0  0  0  0  0  0  0
    1.9760   66.7670   64.7840 C   0  0  0  0  0  0  0  0  0  0  0  0
    3.3110   67.4830   64.6720 C   0  0  0  0  0  0  0  0  0  0  0  0
   -0.6526   66.3339   71.3406 H   0  0  0  0  0  0  0  0  0  0  0  0
    1.1622   66.4907   71.4357 H   0  0  0  0  0  0  0  0  0  0  0  0
   -0.3669   64.2266   70.1965 H   0  0  0  0  0  0  0  0  0  0  0  0
    1.6712   63.5918   69.2864 H   0  0  0  0  0  0  0  0  0  0  0  0
    2.5165   64.9137   70.0826 H   0  0  0  0  0  0  0  0  0  0  0  0
    1.1853   62.2998   74.4097 H   0  0  0  0  0  0  0  0  0  0  0  0
    4.0869   62.3310   70.2947 H   0  0  0  0  0  0  0  0  0  0  0  0
    6.8522   61.0775   71.8952 H   0  0  0  0  0  0  0  0  0  0  0  0
    6.0201   59.9839   70.7382 H   0  0  0  0  0  0  0  0  0  0  0  0
    5.6492   61.7415   70.7382 H   0  0  0  0  0  0  0  0  0  0  0  0
    2.7497   60.3548   76.4067 H   0  0  0  0  0  0  0  0  0  0  0  0
    1.4567   60.7493   75.2238 H   0  0  0  0  0  0  0  0  0  0  0  0
    2.2064   59.1169   75.2238 H   0  0  0  0  0  0  0  0  0  0  0  0
    2.2774   68.7781   67.5612 H   0  0  0  0  0  0  0  0  0  0  0  0
    2.2401   67.7234   69.8139 H   0  0  0  0  0  0  0  0  0  0  0  0
   -1.5360   65.8433   68.8732 H   0  0  0  0  0  0  0  0  0  0  0  0
   -1.4980   66.8894   66.6158 H   0  0  0  0  0  0  0  0  0  0  0  0
   -0.6299   68.9624   65.3926 H   0  0  0  0  0  0  0  0  0  0  0  0
    1.1229   69.4047   65.6391 H   0  0  0  0  0  0  0  0  0  0  0  0
   -0.0010   67.0253   64.3515 H   0  0  0  0  0  0  0  0  0  0  0  0
   -0.8382   69.4375   63.7058 H   0  0  0  0  0  0  0  0  0  0  0  0
   -0.0697   70.0276   62.1932 H   0  0  0  0  0  0  0  0  0  0  0  0
   -0.9801   68.4791   62.1932 H   0  0  0  0  0  0  0  0  0  0  0  0
    1.1695   67.6483   62.3506 H   0  0  0  0  0  0  0  0  0  0  0  0
    1.7768   69.1080   63.2212 H   0  0  0  0  0  0  0  0  0  0  0  0
    1.8626   66.3937   65.8125 H   0  0  0  0  0  0  0  0  0  0  0  0
    1.9772   65.9475   64.0502 H   0  0  0  0  0  0  0  0  0  0  0  0
    3.7006   67.6920   65.6792 H   0  0  0  0  0  0  0  0  0  0  0  0
    4.0241   66.8463   64.1278 H   0  0  0  0  0  0  0  0  0  0  0  0
    3.1751   68.4293   64.1278 H   0  0  0  0  0  0  0  0  0  0  0  0
  2  1  1  0
  3  2  1  0
  4  3  1  0
  5  4  2  0
  6  2  1  0
  6  5  1  0
  7  6  2  0
  8  5  1  0
  9  8  2  0
 10  9  1  0
 11 10  2  0
 11  4  1  0
 12 10  1  0
 13 12  1  0
 14  9  1  0
 15 14  1  0
 17 16  2  0
 18 17  1  0
 19 18  2  0
 19  1  1  0
 20 19  1  0
 21 20  2  0
 21 16  1  0
 22 16  1  0
 23 22  1  0
 25 24  1  0
 25 23  1  0
 26 23  1  0
 27 26  1  0
  1 28  1  0
  1 29  1  0
  2 30  1  6
  3 31  1  0
  3 32  1  0
  8 33  1  0
 11 34  1  0
 13 35  1  0
 13 36  1  0
 13 37  1  0
 15 38  1  0
 15 39  1  0
 15 40  1  0
 17 41  1  0
 18 42  1  0
 20 43  1  0
 21 44  1  0
 22 45  1  0
 22 46  1  0
 23 47  1  0
 24 48  1  0
 24 49  1  0
 24 50  1  0
 25 51  1  0
 25 52  1  0
 26 53  1  0
 26 54  1  0
 27 55  1  0
 27 56  1  0
 27 57  1  0
M  CHG  1  23   1
M  END
>  <score>  (1) 
-8.817

$$$$
=
     RDKit          3D

 57 59  0  0  0  0  0  0  0  0999 V2000
    0.0390   64.7690   70.9460 C   0  0  0  0  0  0  0  0  0  0  0  0
    1.3520   64.2390   71.5220 C   0  0  1  0  0  0  0  0  0  0  0  0
    1.2200   63.6490   72.9460 C   0  0  0  0  0  0  0  0  0  0  0  0
    1.8790   62.3090   72.8530 C   0  0  0  0  0  0  0  0  0  0  0  0
    2.2280   61.9760   71.5530 C   0  0  0  0  0  0  0  0  0  0  0  0
    1.8700   63.0870   70.6840 C   0  0  0  0  0  0  0  0  0  0  0  0
    1.9960   63.0750   69.4720 O   0  0  0  0  0  0  0  0  0  0  0  0
    2.8170   60.7740   71.2080 C   0  0  0  0  0  0  0  0  0  0  0  0
    3.0700   59.8600   72.2340 C   0  0  0  0  0  0  0  0  0  0  0  0
    2.7240   60.1800   73.5780 C   0  0  0  0  0  0  0  0  0  0  0  0
    2.1210   61.4100   73.8820 C   0  0  0  0  0  0  0  0  0  0  0  0
    3.0120   59.2130   74.5100 O   0  0  0  0  0  0  0  0  0  0  0  0
    2.8870   59.5530   75.8820 C   0  0  0  0  0  0  0  0  0  0  0  0
    3.6500   58.6290   72.0440 O   0  0  0  0  0  0  0  0  0  0  0  0
    3.2510   57.8800   70.9040 C   0  0  0  0  0  0  0  0  0  0  0  0
    0.6410   67.8680   67.9800 C   0  0  0  0  0  0  0  0  0  0  0  0
   -0.5530   67.1320   68.0080 C   0  0  0  0  0  0  0  0  0  0  0  0
   -0.7500   66.1350   68.9670 C   0  0  0  0  0  0  0  0  0  0  0  0
    0.2400   65.8560   69.9160 C   0  0  0  0  0  0  0  0  0  0  0  0
    1.4280   66.5980   69.8950 C   0  0  0  0  0  0  0  0  0  0  0  0
    1.6270   67.5960   68.9390 C   0  0  0  0  0  0  0  0  0  0  0  0
    0.8730   68.9090   66.9180 C   0  0  0  0  0  0  0  0  0  0  0  0
    1.2940   68.3180   65.5830 N   0  0  0  0  0  4  0  0  0  0  0  0
    1.2220   68.7610   63.1300 C   0  0  0  0  0  0  0  0  0  0  0  0
    0.4340   68.7830   64.4290 C   0  0  0  0  0  0  0  0  0  0  0  0
    2.7800   68.4300   65.2910 C   0  0  0  0  0  0  0  0  0  0  0  0
    3.5020   69.3520   66.2570 C   0  0  0  0  0  0  0  0  0  0  0  0
   -0.4984   63.9337   70.4733 H   0  0  0  0  0  0  0  0  0  0  0  0
   -0.5314   65.2070   71.7784 H   0  0  0  0  0  0  0  0  0  0  0  0
    2.0166   65.1155   71.5321 H   0  0  0  0  0  0  0  0  0  0  0  0
    1.7340   64.2859   73.6810 H   0  0  0  0  0  0  0  0  0  0  0  0
    0.1734   63.5807   73.2775 H   0  0  0  0  0  0  0  0  0  0  0  0
    3.0770   60.5454   70.1639 H   0  0  0  0  0  0  0  0  0  0  0  0
    1.8450   61.6572   74.9177 H   0  0  0  0  0  0  0  0  0  0  0  0
    3.2007   58.6997   76.5013 H   0  0  0  0  0  0  0  0  0  0  0  0
    3.5247   60.4213   76.1041 H   0  0  0  0  0  0  0  0  0  0  0  0
    1.8387   59.8015   76.1041 H   0  0  0  0  0  0  0  0  0  0  0  0
    2.7569   56.9525   71.2292 H   0  0  0  0  0  0  0  0  0  0  0  0
    2.5509   58.4761   70.3002 H   0  0  0  0  0  0  0  0  0  0  0  0
    4.1363   57.6316   70.3002 H   0  0  0  0  0  0  0  0  0  0  0  0
   -1.3405   67.3415   67.2691 H   0  0  0  0  0  0  0  0  0  0  0  0
   -1.6907   65.5649   68.9761 H   0  0  0  0  0  0  0  0  0  0  0  0
    2.2118   66.3924   70.6389 H   0  0  0  0  0  0  0  0  0  0  0  0
    2.5637   68.1728   68.9382 H   0  0  0  0  0  0  0  0  0  0  0  0
   -0.0598   69.4735   66.7720 H   0  0  0  0  0  0  0  0  0  0  0  0
    1.6951   69.5524   67.2647 H   0  0  0  0  0  0  0  0  0  0  0  0
    1.1197   67.3078   65.6836 H   0  0  0  0  0  0  0  0  0  0  0  0
    2.2984   68.7309   63.3546 H   0  0  0  0  0  0  0  0  0  0  0  0
    0.9440   67.8703   62.5475 H   0  0  0  0  0  0  0  0  0  0  0  0
    0.9941   69.6659   62.5475 H   0  0  0  0  0  0  0  0  0  0  0  0
    0.0899   69.8092   64.6255 H   0  0  0  0  0  0  0  0  0  0  0  0
   -0.4263   68.1043   64.3327 H   0  0  0  0  0  0  0  0  0  0  0  0
    3.2282   67.4279   65.3603 H   0  0  0  0  0  0  0  0  0  0  0  0
    2.8880   68.8567   64.2829 H   0  0  0  0  0  0  0  0  0  0  0  0
    3.2695   69.0551   67.2903 H   0  0  0  0  0  0  0  0  0  0  0  0
    4.5870   69.2807   66.0903 H   0  0  0  0  0  0  0  0  0  0  0  0
    3.1727   70.3882   66.0903 H   0  0  0  0  0  0  0  0  0  0  0  0
  2  1  1  0
  3  2  1  0
  4  3  1  0
  5  4  2  0
  6  2  1  0
  6  5  1  0
  7  6  2  0
  8  5  1  0
  9  8  2  0
 10  9  1  0
 11 10  2  0
 11  4  1  0
 12 10  1  0
 13 12  1  0
 14  9  1  0
 15 14  1  0
 17 16  2  0
 18 17  1  0
 19 18  2  0
 19  1  1  0
 20 19  1  0
 21 20  2  0
 21 16  1  0
 22 16  1  0
 23 22  1  0
 25 24  1  0
 25 23  1  0
 26 23  1  0
 27 26  1  0
  1 28  1  0
  1 29  1  0
  2 30  1  1
  3 31  1  0
  3 32  1  0
  8 33  1  0
 11 34  1  0
 13 35  1  0
 13 36  1  0
 13 37  1  0
 15 38  1  0
 15 39  1  0
 15 40  1  0
 17 41  1  0
 18 42  1  0
 20 43  1  0
 21 44  1  0
 22 45  1  0
 22 46  1  0
 23 47  1  0
 24 48  1  0
 24 49  1  0
 24 50  1  0
 25 51  1  0
 25 52  1  0
 26 53  1  0
 26 54  1  0
 27 55  1  0
 27 56  1  0
 27 57  1  0
M  CHG  1  23   1
M  END
>  <score>  (2) 
-8.092

$$$$
=
     RDKit          3D

 57 59  0  0  0  0  0  0  0  0999 V2000
   -0.6570   66.8600   68.6820 C   0  0  0  0  0  0  0  0  0  0  0  0
    0.2010   67.8840   67.9400 C   0  0  1  0  0  0  0  0  0  0  0  0
    1.5320   67.3130   67.3960 C   0  0  0  0  0  0  0  0  0  0  0  0
    1.5570   67.7380   65.9620 C   0  0  0  0  0  0  0  0  0  0  0  0
    0.3700   68.3320   65.5610 C   0  0  0  0  0  0  0  0  0  0  0  0
   -0.5240   68.3880   66.7090 C   0  0  0  0  0  0  0  0  0  0  0  0
   -1.6690   68.8010   66.6630 O   0  0  0  0  0  0  0  0  0  0  0  0
    0.1380   68.7760   64.2730 C   0  0  0  0  0  0  0  0  0  0  0  0
    1.1660   68.6140   63.3390 C   0  0  0  0  0  0  0  0  0  0  0  0
    2.3950   68.0100   63.7270 C   0  0  0  0  0  0  0  0  0  0  0  0
    2.5850   67.5680   65.0450 C   0  0  0  0  0  0  0  0  0  0  0  0
    3.3380   67.8960   62.7340 O   0  0  0  0  0  0  0  0  0  0  0  0
    4.4340   68.7970   62.7500 C   0  0  0  0  0  0  0  0  0  0  0  0
    1.0810   69.0070   62.0250 O   0  0  0  0  0  0  0  0  0  0  0  0
   -0.0140   69.8310   61.6500 C   0  0  0  0  0  0  0  0  0  0  0  0
    1.6730   64.0420   71.0040 C   0  0  0  0  0  0  0  0  0  0  0  0
    2.2080   65.2910   70.6540 C   0  0  0  0  0  0  0  0  0  0  0  0
    1.4560   66.2030   69.9090 C   0  0  0  0  0  0  0  0  0  0  0  0
    0.1560   65.8850   69.5000 C   0  0  0  0  0  0  0  0  0  0  0  0
   -0.3820   64.6420   69.8570 C   0  0  0  0  0  0  0  0  0  0  0  0
    0.3670   63.7300   70.6040 C   0  0  0  0  0  0  0  0  0  0  0  0
    2.5010   63.0420   71.7640 C   0  0  0  0  0  0  0  0  0  0  0  0
    3.7470   62.6020   71.0150 N   0  0  0  0  0  4  0  0  0  0  0  0
    5.0300   60.4960   71.3840 C   0  0  0  0  0  0  0  0  0  0  0  0
    4.7550   61.8990   71.8980 C   0  0  0  0  0  0  0  0  0  0  0  0
    3.4680   61.8490   69.7260 C   0  0  0  0  0  0  0  0  0  0  0  0
    3.7750   62.6700   68.4860 C   0  0  0  0  0  0  0  0  0  0  0  0
   -1.3394   67.3983   69.3562 H   0  0  0  0  0  0  0  0  0  0  0  0
   -1.2005   66.2774   67.9236 H   0  0  0  0  0  0  0  0  0  0  0  0
    0.3995   68.6643   68.6895 H   0  0  0  0  0  0  0  0  0  0  0  0
    2.3889   67.7339   67.9423 H   0  0  0  0  0  0  0  0  0  0  0  0
    1.6000   66.2213   67.5123 H   0  0  0  0  0  0  0  0  0  0  0  0
   -0.8195   69.2395   63.9930 H   0  0  0  0  0  0  0  0  0  0  0  0
    3.5315   67.0953   65.3461 H   0  0  0  0  0  0  0  0  0  0  0  0
    4.7082   69.0224   63.7912 H   0  0  0  0  0  0  0  0  0  0  0  0
    5.2921   68.3397   62.2356 H   0  0  0  0  0  0  0  0  0  0  0  0
    4.1514   69.7273   62.2356 H   0  0  0  0  0  0  0  0  0  0  0  0
   -0.5153   70.2082   62.5535 H   0  0  0  0  0  0  0  0  0  0  0  0
    0.3528   70.6790   61.0531 H   0  0  0  0  0  0  0  0  0  0  0  0
   -0.7273   69.2437   61.0531 H   0  0  0  0  0  0  0  0  0  0  0  0
    3.2285   65.5545   70.9689 H   0  0  0  0  0  0  0  0  0  0  0  0
    1.8891   67.1783   69.6420 H   0  0  0  0  0  0  0  0  0  0  0  0
   -1.4045   64.3815   69.5460 H   0  0  0  0  0  0  0  0  0  0  0  0
   -0.0716   62.7598   70.8803 H   0  0  0  0  0  0  0  0  0  0  0  0
    2.8087   63.4960   72.7176 H   0  0  0  0  0  0  0  0  0  0  0  0
    1.8774   62.1482   71.9131 H   0  0  0  0  0  0  0  0  0  0  0  0
    4.1905   63.4822   70.7160 H   0  0  0  0  0  0  0  0  0  0  0  0
    5.1639   59.8131   72.2359 H   0  0  0  0  0  0  0  0  0  0  0  0
    4.1813   60.1568   70.7720 H   0  0  0  0  0  0  0  0  0  0  0  0
    5.9440   60.5023   70.7720 H   0  0  0  0  0  0  0  0  0  0  0  0
    4.3577   61.8374   72.9219 H   0  0  0  0  0  0  0  0  0  0  0  0
    5.6947   62.4707   71.8880 H   0  0  0  0  0  0  0  0  0  0  0  0
    4.0882   60.9407   69.7084 H   0  0  0  0  0  0  0  0  0  0  0  0
    2.3943   61.6107   69.7077 H   0  0  0  0  0  0  0  0  0  0  0  0
    4.1457   63.6615   68.7852 H   0  0  0  0  0  0  0  0  0  0  0  0
    4.5421   62.1571   67.8873 H   0  0  0  0  0  0  0  0  0  0  0  0
    2.8596   62.7862   67.8873 H   0  0  0  0  0  0  0  0  0  0  0  0
  2  1  1  0
  3  2  1  0
  4  3  1  0
  5  4  2  0
  6  2  1  0
  6  5  1  0
  7  6  2  0
  8  5  1  0
  9  8  2  0
 10  9  1  0
 11 10  2  0
 11  4  1  0
 12 10  1  0
 13 12  1  0
 14  9  1  0
 15 14  1  0
 17 16  2  0
 18 17  1  0
 19 18  2  0
 19  1  1  0
 20 19  1  0
 21 20  2  0
 21 16  1  0
 22 16  1  0
 23 22  1  0
 25 24  1  0
 25 23  1  0
 26 23  1  0
 27 26  1  0
  1 28  1  0
  1 29  1  0
  2 30  1  1
  3 31  1  0
  3 32  1  0
  8 33  1  0
 11 34  1  0
 13 35  1  0
 13 36  1  0
 13 37  1  0
 15 38  1  0
 15 39  1  0
 15 40  1  0
 17 41  1  0
 18 42  1  0
 20 43  1  0
 21 44  1  0
 22 45  1  0
 22 46  1  0
 23 47  1  0
 24 48  1  0
 24 49  1  0
 24 50  1  0
 25 51  1  0
 25 52  1  0
 26 53  1  0
 26 54  1  0
 27 55  1  0
 27 56  1  0
 27 57  1  0
M  CHG  1  23   1
M  END
>  <score>  (3) 
-7.928

$$$$
=
     RDKit          3D

 57 59  0  0  0  0  0  0  0  0999 V2000
    3.5930   68.5840   62.8850 C   0  0  0  0  0  0  0  0  0  0  0  0
    2.3670   67.7390   63.2270 C   0  0  1  0  0  0  0  0  0  0  0  0
    2.4370   67.0630   64.6170 C   0  0  0  0  0  0  0  0  0  0  0  0
    1.1350   67.4140   65.2640 C   0  0  0  0  0  0  0  0  0  0  0  0
    0.3960   68.3190   64.5180 C   0  0  0  0  0  0  0  0  0  0  0  0
    1.1270   68.6080   63.2930 C   0  0  0  0  0  0  0  0  0  0  0  0
    0.7660   69.4160   62.4560 O   0  0  0  0  0  0  0  0  0  0  0  0
   -0.8260   68.8230   64.9240 C   0  0  0  0  0  0  0  0  0  0  0  0
   -1.3290   68.3830   66.1520 C   0  0  0  0  0  0  0  0  0  0  0  0
   -0.5910   67.4520   66.9350 C   0  0  0  0  0  0  0  0  0  0  0  0
    0.6490   66.9720   66.4860 C   0  0  0  0  0  0  0  0  0  0  0  0
   -1.1720   67.0870   68.1260 O   0  0  0  0  0  0  0  0  0  0  0  0
   -0.3470   66.4890   69.1130 C   0  0  0  0  0  0  0  0  0  0  0  0
   -2.5280   68.7940   66.6850 O   0  0  0  0  0  0  0  0  0  0  0  0
   -3.6520   68.8510   65.8170 C   0  0  0  0  0  0  0  0  0  0  0  0
    5.5820   70.2250   66.3660 C   0  0  0  0  0  0  0  0  0  0  0  0
    4.2680   69.7410   66.4580 C   0  0  0  0  0  0  0  0  0  0  0  0
    3.6270   69.2080   65.3370 C   0  0  0  0  0  0  0  0  0  0  0  0
    4.2850   69.1460   64.1050 C   0  0  0  0  0  0  0  0  0  0  0  0
    5.6010   69.6190   64.0140 C   0  0  0  0  0  0  0  0  0  0  0  0
    6.2440   70.1510   65.1330 C   0  0  0  0  0  0  0  0  0  0  0  0
    6.2540   70.8430   67.5620 C   0  0  0  0  0  0  0  0  0  0  0  0
    5.5520   70.5300   68.8720 N   0  0  0  0  0  4  0  0  0  0  0  0
    7.8980   70.8970   69.6370 C   0  0  0  0  0  0  0  0  0  0  0  0
    6.4940   70.4930   70.0560 C   0  0  0  0  0  0  0  0  0  0  0  0
    4.3120   71.3660   69.1330 C   0  0  0  0  0  0  0  0  0  0  0  0
    3.0550   70.5270   69.2760 C   0  0  0  0  0  0  0  0  0  0  0  0
    4.3089   67.9556   62.3349 H   0  0  0  0  0  0  0  0  0  0  0  0
    3.2459   69.4367   62.2830 H   0  0  0  0  0  0  0  0  0  0  0  0
    2.3343   66.9774   62.4339 H   0  0  0  0  0  0  0  0  0  0  0  0
    2.5403   65.9726   64.5154 H   0  0  0  0  0  0  0  0  0  0  0  0
    3.3032   67.4000   65.2053 H   0  0  0  0  0  0  0  0  0  0  0  0
   -1.3811   69.5427   64.3044 H   0  0  0  0  0  0  0  0  0  0  0  0
    1.2255   66.2578   67.0923 H   0  0  0  0  0  0  0  0  0  0  0  0
   -0.7180   66.7579   70.1130 H   0  0  0  0  0  0  0  0  0  0  0  0
   -0.3688   65.3955   68.9957 H   0  0  0  0  0  0  0  0  0  0  0  0
    0.6855   66.8499   68.9957 H   0  0  0  0  0  0  0  0  0  0  0  0
   -4.5745   68.8978   66.4143 H   0  0  0  0  0  0  0  0  0  0  0  0
   -3.5802   69.7467   65.1825 H   0  0  0  0  0  0  0  0  0  0  0  0
   -3.6712   67.9527   65.1825 H   0  0  0  0  0  0  0  0  0  0  0  0
    3.7382   69.7817   67.4211 H   0  0  0  0  0  0  0  0  0  0  0  0
    2.5962   68.8341   65.4244 H   0  0  0  0  0  0  0  0  0  0  0  0
    6.1322   69.5706   63.0520 H   0  0  0  0  0  0  0  0  0  0  0  0
    7.2784   70.5150   65.0463 H   0  0  0  0  0  0  0  0  0  0  0  0
    7.2849   70.4634   67.6186 H   0  0  0  0  0  0  0  0  0  0  0  0
    6.2219   71.9342   67.4270 H   0  0  0  0  0  0  0  0  0  0  0  0
    5.2007   69.5693   68.7517 H   0  0  0  0  0  0  0  0  0  0  0  0
    8.5115   71.0735   70.5328 H   0  0  0  0  0  0  0  0  0  0  0  0
    8.3477   70.0918   69.0375 H   0  0  0  0  0  0  0  0  0  0  0  0
    7.8510   71.8181   69.0375 H   0  0  0  0  0  0  0  0  0  0  0  0
    6.5189   69.4726   70.4661 H   0  0  0  0  0  0  0  0  0  0  0  0
    6.1341   71.2010   70.8171 H   0  0  0  0  0  0  0  0  0  0  0  0
    4.4616   71.9357   70.0620 H   0  0  0  0  0  0  0  0  0  0  0  0
    4.1709   72.0280   68.2659 H   0  0  0  0  0  0  0  0  0  0  0  0
    2.8326   70.3786   70.3430 H   0  0  0  0  0  0  0  0  0  0  0  0
    2.2121   71.0443   68.7943 H   0  0  0  0  0  0  0  0  0  0  0  0
    3.2094   69.5502   68.7943 H   0  0  0  0  0  0  0  0  0  0  0  0
  2  1  1  0
  3  2  1  0
  4  3  1  0
  5  4  2  0
  6  2  1  0
  6  5  1  0
  7  6  2  0
  8  5  1  0
  9  8  2  0
 10  9  1  0
 11 10  2  0
 11  4  1  0
 12 10  1  0
 13 12  1  0
 14  9  1  0
 15 14  1  0
 17 16  2  0
 18 17  1  0
 19 18  2  0
 19  1  1  0
 20 19  1  0
 21 20  2  0
 21 16  1  0
 22 16  1  0
 23 22  1  0
 25 24  1  0
 25 23  1  0
 26 23  1  0
 27 26  1  0
  1 28  1  0
  1 29  1  0
  2 30  1  6
  3 31  1  0
  3 32  1  0
  8 33  1  0
 11 34  1  0
 13 35  1  0
 13 36  1  0
 13 37  1  0
 15 38  1  0
 15 39  1  0
 15 40  1  0
 17 41  1  0
 18 42  1  0
 20 43  1  0
 21 44  1  0
 22 45  1  0
 22 46  1  0
 23 47  1  0
 24 48  1  0
 24 49  1  0
 24 50  1  0
 25 51  1  0
 25 52  1  0
 26 53  1  0
 26 54  1  0
 27 55  1  0
 27 56  1  0
 27 57  1  0
M  CHG  1  23   1
M  END
>  <score>  (4) 
-7.734

$$$$
=
     RDKit          3D

 57 59  0  0  0  0  0  0  0  0999 V2000
   -0.0090   68.1790   67.8820 C   0  0  0  0  0  0  0  0  0  0  0  0
   -0.2160   67.6650   66.4580 C   0  0  1  0  0  0  0  0  0  0  0  0
   -0.8140   68.7150   65.4910 C   0  0  0  0  0  0  0  0  0  0  0  0
    0.0950   68.6830   64.3030 C   0  0  0  0  0  0  0  0  0  0  0  0
    1.2120   67.8880   64.5080 C   0  0  0  0  0  0  0  0  0  0  0  0
    1.1140   67.2920   65.8330 C   0  0  0  0  0  0  0  0  0  0  0  0
    1.9750   66.5890   66.3310 O   0  0  0  0  0  0  0  0  0  0  0  0
    2.2150   67.7280   63.5700 C   0  0  0  0  0  0  0  0  0  0  0  0
    2.0770   68.4070   62.3560 C   0  0  0  0  0  0  0  0  0  0  0  0
    0.9380   69.2270   62.1210 C   0  0  0  0  0  0  0  0  0  0  0  0
   -0.0530   69.3660   63.1050 C   0  0  0  0  0  0  0  0  0  0  0  0
    0.9000   69.8530   60.8980 O   0  0  0  0  0  0  0  0  0  0  0  0
   -0.3680   70.0670   60.2980 C   0  0  0  0  0  0  0  0  0  0  0  0
    2.9900   68.3440   61.3300 O   0  0  0  0  0  0  0  0  0  0  0  0
    4.1980   67.6320   61.5640 C   0  0  0  0  0  0  0  0  0  0  0  0
    0.9250   65.0090   70.6820 C   0  0  0  0  0  0  0  0  0  0  0  0
    1.8560   66.0260   70.4220 C   0  0  0  0  0  0  0  0  0  0  0  0
    1.5540   67.0510   69.5220 C   0  0  0  0  0  0  0  0  0  0  0  0
    0.3180   67.0810   68.8680 C   0  0  0  0  0  0  0  0  0  0  0  0
   -0.6150   66.0720   69.1350 C   0  0  0  0  0  0  0  0  0  0  0  0
   -0.3170   65.0470   70.0350 C   0  0  0  0  0  0  0  0  0  0  0  0
    1.2690   63.8780   71.6140 C   0  0  0  0  0  0  0  0  0  0  0  0
    2.5210   63.1230   71.2030 N   0  0  0  0  0  4  0  0  0  0  0  0
    2.1710   62.2890   73.5270 C   0  0  0  0  0  0  0  0  0  0  0  0
    3.0440   62.2040   72.2860 C   0  0  0  0  0  0  0  0  0  0  0  0
    2.4240   62.4410   69.8500 C   0  0  0  0  0  0  0  0  0  0  0  0
    3.0420   61.0540   69.8440 C   0  0  0  0  0  0  0  0  0  0  0  0
    0.8199   68.9021   67.8760 H   0  0  0  0  0  0  0  0  0  0  0  0
   -0.9547   68.6385   68.2051 H   0  0  0  0  0  0  0  0  0  0  0  0
   -0.9069   66.8169   66.5740 H   0  0  0  0  0  0  0  0  0  0  0  0
   -1.8400   68.4410   65.2042 H   0  0  0  0  0  0  0  0  0  0  0  0
   -0.8785   69.7152   65.9442 H   0  0  0  0  0  0  0  0  0  0  0  0
    3.0885   67.0905   63.7714 H   0  0  0  0  0  0  0  0  0  0  0  0
   -0.9310   70.0049   62.9293 H   0  0  0  0  0  0  0  0  0  0  0  0
   -1.1280   70.1953   61.0828 H   0  0  0  0  0  0  0  0  0  0  0  0
   -0.3300   70.9714   59.6731 H   0  0  0  0  0  0  0  0  0  0  0  0
   -0.6289   69.2002   59.6731 H   0  0  0  0  0  0  0  0  0  0  0  0
    4.3625   67.5350   62.6473 H   0  0  0  0  0  0  0  0  0  0  0  0
    4.1271   66.6313   61.1129 H   0  0  0  0  0  0  0  0  0  0  0  0
    5.0392   68.1788   61.1129 H   0  0  0  0  0  0  0  0  0  0  0  0
    2.8312   66.0162   70.9307 H   0  0  0  0  0  0  0  0  0  0  0  0
    2.2942   67.8408   69.3262 H   0  0  0  0  0  0  0  0  0  0  0  0
   -1.5925   66.0869   68.6308 H   0  0  0  0  0  0  0  0  0  0  0  0
   -1.0625   64.2639   70.2374 H   0  0  0  0  0  0  0  0  0  0  0  0
    1.4247   64.2906   72.6217 H   0  0  0  0  0  0  0  0  0  0  0  0
    0.4326   63.1642   71.5841 H   0  0  0  0  0  0  0  0  0  0  0  0
    3.2331   63.8567   71.0784 H   0  0  0  0  0  0  0  0  0  0  0  0
    2.8033   62.2274   74.4250 H   0  0  0  0  0  0  0  0  0  0  0  0
    1.6259   63.2445   73.5271 H   0  0  0  0  0  0  0  0  0  0  0  0
    1.4519   61.4566   73.5271 H   0  0  0  0  0  0  0  0  0  0  0  0
    4.0713   62.4993   72.5457 H   0  0  0  0  0  0  0  0  0  0  0  0
    3.0285   61.1698   71.9116 H   0  0  0  0  0  0  0  0  0  0  0  0
    1.3623   62.3538   69.5758 H   0  0  0  0  0  0  0  0  0  0  0  0
    2.9828   63.0555   69.1288 H   0  0  0  0  0  0  0  0  0  0  0  0
    3.1929   60.7153   70.8796 H   0  0  0  0  0  0  0  0  0  0  0  0
    2.3700   60.3554   69.3240 H   0  0  0  0  0  0  0  0  0  0  0  0
    4.0108   61.0865   69.3240 H   0  0  0  0  0  0  0  0  0  0  0  0
  2  1  1  0
  3  2  1  0
  4  3  1  0
  5  4  2  0
  6  2  1  0
  6  5  1  0
  7  6  2  0
  8  5  1  0
  9  8  2  0
 10  9  1  0
 11 10  2  0
 11  4  1  0
 12 10  1  0
 13 12  1  0
 14  9  1  0
 15 14  1  0
 17 16  2  0
 18 17  1  0
 19 18  2  0
 19  1  1  0
 20 19  1  0
 21 20  2  0
 21 16  1  0
 22 16  1  0
 23 22  1  0
 25 24  1  0
 25 23  1  0
 26 23  1  0
 27 26  1  0
  1 28  1  0
  1 29  1  0
  2 30  1  1
  3 31  1  0
  3 32  1  0
  8 33  1  0
 11 34  1  0
 13 35  1  0
 13 36  1  0
 13 37  1  0
 15 38  1  0
 15 39  1  0
 15 40  1  0
 17 41  1  0
 18 42  1  0
 20 43  1  0
 21 44  1  0
 22 45  1  0
 22 46  1  0
 23 47  1  0
 24 48  1  0
 24 49  1  0
 24 50  1  0
 25 51  1  0
 25 52  1  0
 26 53  1  0
 26 54  1  0
 27 55  1  0
 27 56  1  0
 27 57  1  0
M  CHG  1  23   1
M  END
>  <score>  (5) 
-7.686

$$$$
=
     RDKit          3D

 57 59  0  0  0  0  0  0  0  0999 V2000
   -0.7920   68.1490   67.4580 C   0  0  0  0  0  0  0  0  0  0  0  0
    0.1740   69.1680   66.8550 C   0  0  1  0  0  0  0  0  0  0  0  0
    1.3000   69.6140   67.8180 C   0  0  0  0  0  0  0  0  0  0  0  0
    2.5550   69.4450   67.0220 C   0  0  0  0  0  0  0  0  0  0  0  0
    2.3330   68.8220   65.8030 C   0  0  0  0  0  0  0  0  0  0  0  0
    0.9070   68.5660   65.6730 C   0  0  0  0  0  0  0  0  0  0  0  0
    0.4020   67.9730   64.7350 O   0  0  0  0  0  0  0  0  0  0  0  0
    3.3420   68.5240   64.9070 C   0  0  0  0  0  0  0  0  0  0  0  0
    4.6470   68.8790   65.2610 C   0  0  0  0  0  0  0  0  0  0  0  0
    4.9000   69.5230   66.5050 C   0  0  0  0  0  0  0  0  0  0  0  0
    3.8450   69.8010   67.3880 C   0  0  0  0  0  0  0  0  0  0  0  0
    6.2160   69.8270   66.7580 O   0  0  0  0  0  0  0  0  0  0  0  0
    6.5120   70.5860   67.9210 C   0  0  0  0  0  0  0  0  0  0  0  0
    5.7500   68.6480   64.4730 O   0  0  0  0  0  0  0  0  0  0  0  0
    5.5940   68.7730   63.0660 C   0  0  0  0  0  0  0  0  0  0  0  0
    1.1240   65.4440   70.2460 C   0  0  0  0  0  0  0  0  0  0  0  0
   -0.1560   65.1630   69.7480 C   0  0  0  0  0  0  0  0  0  0  0  0
   -0.7740   66.0320   68.8450 C   0  0  0  0  0  0  0  0  0  0  0  0
   -0.1240   67.1970   68.4230 C   0  0  0  0  0  0  0  0  0  0  0  0
    1.1590   67.4730   68.9120 C   0  0  0  0  0  0  0  0  0  0  0  0
    1.7790   66.6050   69.8130 C   0  0  0  0  0  0  0  0  0  0  0  0
    1.7690   64.5330   71.2560 C   0  0  0  0  0  0  0  0  0  0  0  0
    1.8480   63.0880   70.7930 N   0  0  0  0  0  4  0  0  0  0  0  0
    3.4500   62.9620   68.8860 C   0  0  0  0  0  0  0  0  0  0  0  0
    3.2390   62.6770   70.3640 C   0  0  0  0  0  0  0  0  0  0  0  0
    1.2070   62.0910   71.7430 C   0  0  0  0  0  0  0  0  0  0  0  0
   -0.2430   62.4180   72.0490 C   0  0  0  0  0  0  0  0  0  0  0  0
   -1.5840   68.6923   67.9942 H   0  0  0  0  0  0  0  0  0  0  0  0
   -1.1933   67.5475   66.6291 H   0  0  0  0  0  0  0  0  0  0  0  0
   -0.4652   70.0241   66.5934 H   0  0  0  0  0  0  0  0  0  0  0  0
    1.1654   70.6645   68.1151 H   0  0  0  0  0  0  0  0  0  0  0  0
    1.3116   69.0303   68.7503 H   0  0  0  0  0  0  0  0  0  0  0  0
    3.1262   68.0257   63.9503 H   0  0  0  0  0  0  0  0  0  0  0  0
    4.0376   70.2924   68.3531 H   0  0  0  0  0  0  0  0  0  0  0  0
    6.2798   69.9906   68.8163 H   0  0  0  0  0  0  0  0  0  0  0  0
    7.5795   70.8514   67.9238 H   0  0  0  0  0  0  0  0  0  0  0  0
    5.9060   71.5040   67.9238 H   0  0  0  0  0  0  0  0  0  0  0  0
    4.7525   69.4473   62.8489 H   0  0  0  0  0  0  0  0  0  0  0  0
    6.5160   69.1851   62.6300 H   0  0  0  0  0  0  0  0  0  0  0  0
    5.3928   67.7833   62.6300 H   0  0  0  0  0  0  0  0  0  0  0  0
   -0.6784   64.2504   70.0709 H   0  0  0  0  0  0  0  0  0  0  0  0
   -1.7788   65.7985   68.4631 H   0  0  0  0  0  0  0  0  0  0  0  0
    1.6833   68.3823   68.5831 H   0  0  0  0  0  0  0  0  0  0  0  0
    2.7884   66.8339   70.1855 H   0  0  0  0  0  0  0  0  0  0  0  0
    2.7896   64.8940   71.4512 H   0  0  0  0  0  0  0  0  0  0  0  0
    1.1440   64.5530   72.1610 H   0  0  0  0  0  0  0  0  0  0  0  0
    1.2637   63.0579   69.9453 H   0  0  0  0  0  0  0  0  0  0  0  0
    4.1010   63.8413   68.7714 H   0  0  0  0  0  0  0  0  0  0  0  0
    3.9227   62.0911   68.4085 H   0  0  0  0  0  0  0  0  0  0  0  0
    2.4790   63.1599   68.4085 H   0  0  0  0  0  0  0  0  0  0  0  0
    3.3701   61.6002   70.5467 H   0  0  0  0  0  0  0  0  0  0  0  0
    3.9738   63.2541   70.9445 H   0  0  0  0  0  0  0  0  0  0  0  0
    1.2529   61.0912   71.2866 H   0  0  0  0  0  0  0  0  0  0  0  0
    1.7629   62.1329   72.6913 H   0  0  0  0  0  0  0  0  0  0  0  0
   -0.3893   62.4510   73.1387 H   0  0  0  0  0  0  0  0  0  0  0  0
   -0.4978   63.3962   71.6150 H   0  0  0  0  0  0  0  0  0  0  0  0
   -0.8929   61.6439   71.6150 H   0  0  0  0  0  0  0  0  0  0  0  0
  2  1  1  0
  3  2  1  0
  4  3  1  0
  5  4  2  0
  6  2  1  0
  6  5  1  0
  7  6  2  0
  8  5  1  0
  9  8  2  0
 10  9  1  0
 11 10  2  0
 11  4  1  0
 12 10  1  0
 13 12  1  0
 14  9  1  0
 15 14  1  0
 17 16  2  0
 18 17  1  0
 19 18  2  0
 19  1  1  0
 20 19  1  0
 21 20  2  0
 21 16  1  0
 22 16  1  0
 23 22  1  0
 25 24  1  0
 25 23  1  0
 26 23  1  0
 27 26  1  0
  1 28  1  0
  1 29  1  0
  2 30  1  6
  3 31  1  0
  3 32  1  0
  8 33  1  0
 11 34  1  0
 13 35  1  0
 13 36  1  0
 13 37  1  0
 15 38  1  0
 15 39  1  0
 15 40  1  0
 17 41  1  0
 18 42  1  0
 20 43  1  0
 21 44  1  0
 22 45  1  0
 22 46  1  0
 23 47  1  0
 24 48  1  0
 24 49  1  0
 24 50  1  0
 25 51  1  0
 25 52  1  0
 26 53  1  0
 26 54  1  0
 27 55  1  0
 27 56  1  0
 27 57  1  0
M  CHG  1  23   1
M  END
>  <score>  (6) 
-7.675

$$$$
=
     RDKit          3D

 57 59  0  0  0  0  0  0  0  0999 V2000
    2.6260   61.1880   70.7990 C   0  0  0  0  0  0  0  0  0  0  0  0
    2.4270   60.6240   72.2050 C   0  0  1  0  0  0  0  0  0  0  0  0
    0.9500   60.5850   72.6650 C   0  0  0  0  0  0  0  0  0  0  0  0
    0.7530   59.1860   73.1570 C   0  0  0  0  0  0  0  0  0  0  0  0
    1.8470   58.3740   72.9040 C   0  0  0  0  0  0  0  0  0  0  0  0
    2.8770   59.1780   72.2630 C   0  0  0  0  0  0  0  0  0  0  0  0
    3.9390   58.7350   71.8610 O   0  0  0  0  0  0  0  0  0  0  0  0
    1.8910   57.0320   73.2330 C   0  0  0  0  0  0  0  0  0  0  0  0
    0.7660   56.4830   73.8560 C   0  0  0  0  0  0  0  0  0  0  0  0
   -0.3690   57.2980   74.1290 C   0  0  0  0  0  0  0  0  0  0  0  0
   -0.3710   58.6550   73.7720 C   0  0  0  0  0  0  0  0  0  0  0  0
   -1.4220   56.6610   74.7410 O   0  0  0  0  0  0  0  0  0  0  0  0
   -1.6970   56.9820   76.0960 C   0  0  0  0  0  0  0  0  0  0  0  0
    0.6640   55.1680   74.2410 O   0  0  0  0  0  0  0  0  0  0  0  0
    1.8640   54.4140   74.3440 C   0  0  0  0  0  0  0  0  0  0  0  0
    0.9250   65.1360   70.2600 C   0  0  0  0  0  0  0  0  0  0  0  0
    0.0930   64.0190   70.4320 C   0  0  0  0  0  0  0  0  0  0  0  0
    0.6400   62.7460   70.6100 C   0  0  0  0  0  0  0  0  0  0  0  0
    2.0270   62.5640   70.6210 C   0  0  0  0  0  0  0  0  0  0  0  0
    2.8590   63.6800   70.4600 C   0  0  0  0  0  0  0  0  0  0  0  0
    2.3150   64.9540   70.2840 C   0  0  0  0  0  0  0  0  0  0  0  0
    0.3350   66.4990   70.0200 C   0  0  0  0  0  0  0  0  0  0  0  0
    0.0660   66.7850   68.5520 N   0  0  0  0  0  4  0  0  0  0  0  0
   -1.7600   67.8080   67.1960 C   0  0  0  0  0  0  0  0  0  0  0  0
   -1.4030   66.7190   68.1940 C   0  0  0  0  0  0  0  0  0  0  0  0
    0.7450   68.0360   68.0240 C   0  0  0  0  0  0  0  0  0  0  0  0
    1.7460   67.7420   66.9220 C   0  0  0  0  0  0  0  0  0  0  0  0
    3.7053   61.2472   70.5953 H   0  0  0  0  0  0  0  0  0  0  0  0
    2.1107   60.5134   70.0994 H   0  0  0  0  0  0  0  0  0  0  0  0
    3.0093   61.2978   72.8507 H   0  0  0  0  0  0  0  0  0  0  0  0
    0.7742   61.3106   73.4729 H   0  0  0  0  0  0  0  0  0  0  0  0
    0.2512   60.8489   71.8575 H   0  0  0  0  0  0  0  0  0  0  0  0
    2.7776   56.4192   73.0130 H   0  0  0  0  0  0  0  0  0  0  0  0
   -1.2483   59.2863   73.9762 H   0  0  0  0  0  0  0  0  0  0  0  0
   -1.1239   56.3131   76.7549 H   0  0  0  0  0  0  0  0  0  0  0  0
   -1.4080   58.0252   76.2916 H   0  0  0  0  0  0  0  0  0  0  0  0
   -2.7722   56.8565   76.2916 H   0  0  0  0  0  0  0  0  0  0  0  0
    2.1100   54.2594   75.4049 H   0  0  0  0  0  0  0  0  0  0  0  0
    1.7276   53.4390   73.8534 H   0  0  0  0  0  0  0  0  0  0  0  0
    2.6833   54.9599   73.8534 H   0  0  0  0  0  0  0  0  0  0  0  0
   -0.9995   64.1470   70.4266 H   0  0  0  0  0  0  0  0  0  0  0  0
   -0.0251   61.8799   70.7426 H   0  0  0  0  0  0  0  0  0  0  0  0
    3.9514   63.5512   70.4724 H   0  0  0  0  0  0  0  0  0  0  0  0
    2.9816   65.8207   70.1634 H   0  0  0  0  0  0  0  0  0  0  0  0
   -0.6150   66.5705   70.5699 H   0  0  0  0  0  0  0  0  0  0  0  0
    1.0705   67.2393   70.3678 H   0  0  0  0  0  0  0  0  0  0  0  0
    0.5204   66.0081   68.0512 H   0  0  0  0  0  0  0  0  0  0  0  0
   -2.0583   68.7179   67.7373 H   0  0  0  0  0  0  0  0  0  0  0  0
   -0.8866   68.0269   66.5641 H   0  0  0  0  0  0  0  0  0  0  0  0
   -2.5935   67.4674   66.5641 H   0  0  0  0  0  0  0  0  0  0  0  0
   -2.0036   66.8532   69.1057 H   0  0  0  0  0  0  0  0  0  0  0  0
   -1.6136   65.7394   67.7402 H   0  0  0  0  0  0  0  0  0  0  0  0
   -0.0257   68.7131   67.6271 H   0  0  0  0  0  0  0  0  0  0  0  0
    1.2970   68.4907   68.8598 H   0  0  0  0  0  0  0  0  0  0  0  0
    2.7105   67.4587   67.3687 H   0  0  0  0  0  0  0  0  0  0  0  0
    1.3735   66.9153   66.2992 H   0  0  0  0  0  0  0  0  0  0  0  0
    1.8797   68.6388   66.2992 H   0  0  0  0  0  0  0  0  0  0  0  0
  2  1  1  0
  3  2  1  0
  4  3  1  0
  5  4  2  0
  6  2  1  0
  6  5  1  0
  7  6  2  0
  8  5  1  0
  9  8  2  0
 10  9  1  0
 11 10  2  0
 11  4  1  0
 12 10  1  0
 13 12  1  0
 14  9  1  0
 15 14  1  0
 17 16  2  0
 18 17  1  0
 19 18  2  0
 19  1  1  0
 20 19  1  0
 21 20  2  0
 21 16  1  0
 22 16  1  0
 23 22  1  0
 25 24  1  0
 25 23  1  0
 26 23  1  0
 27 26  1  0
  1 28  1  0
  1 29  1  0
  2 30  1  1
  3 31  1  0
  3 32  1  0
  8 33  1  0
 11 34  1  0
 13 35  1  0
 13 36  1  0
 13 37  1  0
 15 38  1  0
 15 39  1  0
 15 40  1  0
 17 41  1  0
 18 42  1  0
 20 43  1  0
 21 44  1  0
 22 45  1  0
 22 46  1  0
 23 47  1  0
 24 48  1  0
 24 49  1  0
 24 50  1  0
 25 51  1  0
 25 52  1  0
 26 53  1  0
 26 54  1  0
 27 55  1  0
 27 56  1  0
 27 57  1  0
M  CHG  1  23   1
M  END
>  <score>  (7) 
-7.49

$$$$
=
     RDKit          3D

 57 59  0  0  0  0  0  0  0  0999 V2000
    2.9850   61.4290   70.5900 C   0  0  0  0  0  0  0  0  0  0  0  0
    3.7590   61.3300   71.9040 C   0  0  1  0  0  0  0  0  0  0  0  0
    2.9720   61.8340   73.1370 C   0  0  0  0  0  0  0  0  0  0  0  0
    3.1000   60.7260   74.1350 C   0  0  0  0  0  0  0  0  0  0  0  0
    3.7080   59.5990   73.6050 C   0  0  0  0  0  0  0  0  0  0  0  0
    4.0730   59.8820   72.2240 C   0  0  0  0  0  0  0  0  0  0  0  0
    4.5710   59.0670   71.4680 O   0  0  0  0  0  0  0  0  0  0  0  0
    3.9070   58.4340   74.3210 C   0  0  0  0  0  0  0  0  0  0  0  0
    3.4700   58.4090   75.6480 C   0  0  0  0  0  0  0  0  0  0  0  0
    2.8450   59.5550   76.2170 C   0  0  0  0  0  0  0  0  0  0  0  0
    2.6580   60.7150   75.4500 C   0  0  0  0  0  0  0  0  0  0  0  0
    2.4500   59.4260   77.5260 O   0  0  0  0  0  0  0  0  0  0  0  0
    2.2620   60.6110   78.2850 C   0  0  0  0  0  0  0  0  0  0  0  0
    3.6000   57.3240   76.4820 O   0  0  0  0  0  0  0  0  0  0  0  0
    4.8960   56.7630   76.6390 C   0  0  0  0  0  0  0  0  0  0  0  0
    0.7460   65.1150   70.1840 C   0  0  0  0  0  0  0  0  0  0  0  0
    0.0830   63.9010   70.4150 C   0  0  0  0  0  0  0  0  0  0  0  0
    0.8040   62.7120   70.5510 C   0  0  0  0  0  0  0  0  0  0  0  0
    2.2000   62.7140   70.4590 C   0  0  0  0  0  0  0  0  0  0  0  0
    2.8640   63.9270   70.2390 C   0  0  0  0  0  0  0  0  0  0  0  0
    2.1450   65.1170   70.1050 C   0  0  0  0  0  0  0  0  0  0  0  0
   -0.0340   66.3870   69.9900 C   0  0  0  0  0  0  0  0  0  0  0  0
   -0.2030   66.7690   68.5300 N   0  0  0  0  0  4  0  0  0  0  0  0
   -1.9000   67.9270   67.1150 C   0  0  0  0  0  0  0  0  0  0  0  0
   -1.6490   66.7830   68.0830 C   0  0  0  0  0  0  0  0  0  0  0  0
    0.5510   68.0210   68.1190 C   0  0  0  0  0  0  0  0  0  0  0  0
    1.6410   67.7440   67.0990 C   0  0  0  0  0  0  0  0  0  0  0  0
    3.7008   61.3697   69.7569 H   0  0  0  0  0  0  0  0  0  0  0  0
    2.2621   60.6001   70.5721 H   0  0  0  0  0  0  0  0  0  0  0  0
    4.6506   61.9531   71.7404 H   0  0  0  0  0  0  0  0  0  0  0  0
    3.4127   62.7631   73.5275 H   0  0  0  0  0  0  0  0  0  0  0  0
    1.9235   62.0673   72.9000 H   0  0  0  0  0  0  0  0  0  0  0  0
    4.3914   57.5588   73.8633 H   0  0  0  0  0  0  0  0  0  0  0  0
    2.1696   61.6001   75.8837 H   0  0  0  0  0  0  0  0  0  0  0  0
    2.3003   60.3695   79.3575 H   0  0  0  0  0  0  0  0  0  0  0  0
    3.0571   61.3316   78.0428 H   0  0  0  0  0  0  0  0  0  0  0  0
    1.2830   61.0501   78.0428 H   0  0  0  0  0  0  0  0  0  0  0  0
    5.1253   56.6638   77.7103 H   0  0  0  0  0  0  0  0  0  0  0  0
    4.9262   55.7712   76.1641 H   0  0  0  0  0  0  0  0  0  0  0  0
    5.6398   57.4197   76.1641 H   0  0  0  0  0  0  0  0  0  0  0  0
   -1.0143   63.8847   70.4898 H   0  0  0  0  0  0  0  0  0  0  0  0
    0.2701   61.7674   70.7317 H   0  0  0  0  0  0  0  0  0  0  0  0
    3.9618   63.9429   70.1711 H   0  0  0  0  0  0  0  0  0  0  0  0
    2.6810   66.0627   69.9362 H   0  0  0  0  0  0  0  0  0  0  0  0
   -1.0315   66.2566   70.4349 H   0  0  0  0  0  0  0  0  0  0  0  0
    0.5329   67.1950   70.4755 H   0  0  0  0  0  0  0  0  0  0  0  0
    0.2529   66.0049   68.0112 H   0  0  0  0  0  0  0  0  0  0  0  0
   -2.1022   68.8484   67.6808 H   0  0  0  0  0  0  0  0  0  0  0  0
   -1.0125   68.0729   66.4817 H   0  0  0  0  0  0  0  0  0  0  0  0
   -2.7671   67.6879   66.4817 H   0  0  0  0  0  0  0  0  0  0  0  0
   -2.2979   66.9052   68.9628 H   0  0  0  0  0  0  0  0  0  0  0  0
   -1.8715   65.8335   67.5742 H   0  0  0  0  0  0  0  0  0  0  0  0
   -0.1640   68.7348   67.6840 H   0  0  0  0  0  0  0  0  0  0  0  0
    1.0357   68.4259   69.0196 H   0  0  0  0  0  0  0  0  0  0  0  0
    2.5795   67.5055   67.6209 H   0  0  0  0  0  0  0  0  0  0  0  0
    1.3454   66.8924   66.4686 H   0  0  0  0  0  0  0  0  0  0  0  0
    1.7878   68.6334   66.4686 H   0  0  0  0  0  0  0  0  0  0  0  0
  2  1  1  0
  3  2  1  0
  4  3  1  0
  5  4  2  0
  6  2  1  0
  6  5  1  0
  7  6  2  0
  8  5  1  0
  9  8  2  0
 10  9  1  0
 11 10  2  0
 11  4  1  0
 12 10  1  0
 13 12  1  0
 14  9  1  0
 15 14  1  0
 17 16  2  0
 18 17  1  0
 19 18  2  0
 19  1  1  0
 20 19  1  0
 21 20  2  0
 21 16  1  0
 22 16  1  0
 23 22  1  0
 25 24  1  0
 25 23  1  0
 26 23  1  0
 27 26  1  0
  1 28  1  0
  1 29  1  0
  2 30  1  6
  3 31  1  0
  3 32  1  0
  8 33  1  0
 11 34  1  0
 13 35  1  0
 13 36  1  0
 13 37  1  0
 15 38  1  0
 15 39  1  0
 15 40  1  0
 17 41  1  0
 18 42  1  0
 20 43  1  0
 21 44  1  0
 22 45  1  0
 22 46  1  0
 23 47  1  0
 24 48  1  0
 24 49  1  0
 24 50  1  0
 25 51  1  0
 25 52  1  0
 26 53  1  0
 26 54  1  0
 27 55  1  0
 27 56  1  0
 27 57  1  0
M  CHG  1  23   1
M  END
>  <score>  (8) 
-6.991

$$$$
=
     RDKit          3D

 57 59  0  0  0  0  0  0  0  0999 V2000
   -0.9740   60.3330   74.8690 C   0  0  0  0  0  0  0  0  0  0  0  0
   -0.5500   60.4680   73.4070 C   0  0  1  0  0  0  0  0  0  0  0  0
   -1.1470   61.7010   72.6890 C   0  0  0  0  0  0  0  0  0  0  0  0
    0.0320   62.3650   72.0520 C   0  0  0  0  0  0  0  0  0  0  0  0
    1.2350   61.7870   72.4270 C   0  0  0  0  0  0  0  0  0  0  0  0
    0.9500   60.6650   73.3080 C   0  0  0  0  0  0  0  0  0  0  0  0
    1.8050   59.9900   73.8540 O   0  0  0  0  0  0  0  0  0  0  0  0
    2.4660   62.2470   71.9980 C   0  0  0  0  0  0  0  0  0  0  0  0
    2.4800   63.3510   71.1400 C   0  0  0  0  0  0  0  0  0  0  0  0
    1.2580   63.9590   70.7380 C   0  0  0  0  0  0  0  0  0  0  0  0
    0.0310   63.4630   71.2030 C   0  0  0  0  0  0  0  0  0  0  0  0
    1.3820   65.0380   69.8960 O   0  0  0  0  0  0  0  0  0  0  0  0
    0.6730   66.2230   70.2240 C   0  0  0  0  0  0  0  0  0  0  0  0
    3.6250   63.9170   70.6310 O   0  0  0  0  0  0  0  0  0  0  0  0
    4.7870   63.1020   70.5520 C   0  0  0  0  0  0  0  0  0  0  0  0
   -5.0730   61.5340   75.5900 C   0  0  0  0  0  0  0  0  0  0  0  0
   -4.0090   62.3500   76.0030 C   0  0  0  0  0  0  0  0  0  0  0  0
   -2.6860   61.9660   75.7670 C   0  0  0  0  0  0  0  0  0  0  0  0
   -2.4020   60.7620   75.1140 C   0  0  0  0  0  0  0  0  0  0  0  0
   -3.4640   59.9520   74.6920 C   0  0  0  0  0  0  0  0  0  0  0  0
   -4.7860   60.3340   74.9250 C   0  0  0  0  0  0  0  0  0  0  0  0
   -6.4950   61.9250   75.8870 C   0  0  0  0  0  0  0  0  0  0  0  0
   -7.1090   62.8110   74.8170 N   0  0  0  0  0  4  0  0  0  0  0  0
   -7.8410   61.3180   72.9580 C   0  0  0  0  0  0  0  0  0  0  0  0
   -8.2960   62.1750   74.1280 C   0  0  0  0  0  0  0  0  0  0  0  0
   -7.3840   64.2350   75.2660 C   0  0  0  0  0  0  0  0  0  0  0  0
   -6.2950   65.2060   74.8460 C   0  0  0  0  0  0  0  0  0  0  0  0
   -0.8686   59.2797   75.1683 H   0  0  0  0  0  0  0  0  0  0  0  0
   -0.3261   60.9961   75.4610 H   0  0  0  0  0  0  0  0  0  0  0  0
   -0.9099   59.5417   72.9353 H   0  0  0  0  0  0  0  0  0  0  0  0
   -1.8786   61.3922   71.9278 H   0  0  0  0  0  0  0  0  0  0  0  0
   -1.6839   62.3693   73.3782 H   0  0  0  0  0  0  0  0  0  0  0  0
    3.3997   61.7626   72.3196 H   0  0  0  0  0  0  0  0  0  0  0  0
   -0.9149   63.9358   70.9002 H   0  0  0  0  0  0  0  0  0  0  0  0
    0.6129   66.3235   71.3178 H   0  0  0  0  0  0  0  0  0  0  0  0
    1.1990   67.0931   69.8042 H   0  0  0  0  0  0  0  0  0  0  0  0
   -0.3424   66.1708   69.8042 H   0  0  0  0  0  0  0  0  0  0  0  0
    5.1339   62.8587   71.5671 H   0  0  0  0  0  0  0  0  0  0  0  0
    4.5474   62.1730   70.0139 H   0  0  0  0  0  0  0  0  0  0  0  0
    5.5789   63.6436   70.0139 H   0  0  0  0  0  0  0  0  0  0  0  0
   -4.2178   63.2999   76.5168 H   0  0  0  0  0  0  0  0  0  0  0  0
   -1.8619   62.6155   76.0973 H   0  0  0  0  0  0  0  0  0  0  0  0
   -3.2540   59.0057   74.1720 H   0  0  0  0  0  0  0  0  0  0  0  0
   -5.6089   59.6885   74.5842 H   0  0  0  0  0  0  0  0  0  0  0  0
   -7.0988   61.0094   75.9713 H   0  0  0  0  0  0  0  0  0  0  0  0
   -6.4860   62.5024   76.8233 H   0  0  0  0  0  0  0  0  0  0  0  0
   -6.3723   62.8974   74.1024 H   0  0  0  0  0  0  0  0  0  0  0  0
   -7.3569   60.4062   73.3378 H   0  0  0  0  0  0  0  0  0  0  0  0
   -8.7117   61.0426   72.3447 H   0  0  0  0  0  0  0  0  0  0  0  0
   -7.1251   61.8850   72.3447 H   0  0  0  0  0  0  0  0  0  0  0  0
   -8.9653   62.9657   73.7579 H   0  0  0  0  0  0  0  0  0  0  0  0
   -8.8243   61.5358   74.8507 H   0  0  0  0  0  0  0  0  0  0  0  0
   -8.3369   64.5642   74.8261 H   0  0  0  0  0  0  0  0  0  0  0  0
   -7.4203   64.2340   76.3654 H   0  0  0  0  0  0  0  0  0  0  0  0
   -5.8179   65.6314   75.7412 H   0  0  0  0  0  0  0  0  0  0  0  0
   -5.5413   64.6747   74.2463 H   0  0  0  0  0  0  0  0  0  0  0  0
   -6.7368   66.0154   74.2463 H   0  0  0  0  0  0  0  0  0  0  0  0
  2  1  1  0
  3  2  1  0
  4  3  1  0
  5  4  2  0
  6  2  1  0
  6  5  1  0
  7  6  2  0
  8  5  1  0
  9  8  2  0
 10  9  1  0
 11 10  2  0
 11  4  1  0
 12 10  1  0
 13 12  1  0
 14  9  1  0
 15 14  1  0
 17 16  2  0
 18 17  1  0
 19 18  2  0
 19  1  1  0
 20 19  1  0
 21 20  2  0
 21 16  1  0
 22 16  1  0
 23 22  1  0
 25 24  1  0
 25 23  1  0
 26 23  1  0
 27 26  1  0
  1 28  1  0
  1 29  1  0
  2 30  1  6
  3 31  1  0
  3 32  1  0
  8 33  1  0
 11 34  1  0
 13 35  1  0
 13 36  1  0
 13 37  1  0
 15 38  1  0
 15 39  1  0
 15 40  1  0
 17 41  1  0
 18 42  1  0
 20 43  1  0
 21 44  1  0
 22 45  1  0
 22 46  1  0
 23 47  1  0
 24 48  1  0
 24 49  1  0
 24 50  1  0
 25 51  1  0
 25 52  1  0
 26 53  1  0
 26 54  1  0
 27 55  1  0
 27 56  1  0
 27 57  1  0
M  CHG  1  23   1
M  END
>  <score>  (9) 
-6.821

$$$$
