=
     RDKit          3D

 40 40  0  0  0  0  0  0  0  0999 V2000
    3.3810   69.3040   65.8950 C   0  0  0  0  0  0  0  0  0  0  0  0
    4.4610   69.8090   66.8210 C   0  0  0  0  0  0  0  0  0  0  0  0
    4.1480   70.2090   68.1270 C   0  0  0  0  0  0  0  0  0  0  0  0
    5.1430   70.6920   68.9790 C   0  0  0  0  0  0  0  0  0  0  0  0
    6.4530   70.7790   68.5200 C   0  0  0  0  0  0  0  0  0  0  0  0
    6.7810   70.3930   67.2260 C   0  0  0  0  0  0  0  0  0  0  0  0
    5.7870   69.9100   66.3750 C   0  0  0  0  0  0  0  0  0  0  0  0
    7.4560   71.2450   69.3180 O   0  0  0  0  0  0  0  0  0  0  0  0
    2.1510   68.8240   66.6720 C   0  0  0  0  0  0  0  0  0  0  0  0
    1.8010   67.3800   66.3100 C   0  0  0  0  0  0  0  0  0  0  0  0
    2.1690   67.0060   64.8710 C   0  0  0  0  0  0  0  0  0  0  0  0
    2.8140   65.6290   64.6860 C   0  0  0  0  0  0  0  0  0  0  0  0
    4.1480   65.6180   63.9360 C   0  0  0  0  0  0  0  0  0  0  0  0
    4.9140   66.9450   63.8810 C   0  0  0  0  0  0  0  0  0  0  0  0
    5.2810   69.1260   62.5950 C   0  0  0  0  0  0  0  0  0  0  0  0
    4.8600   67.6670   62.5320 C   0  0  0  0  0  0  0  0  0  0  0  0
    3.0809   70.1182   65.2190 H   0  0  0  0  0  0  0  0  0  0  0  0
    3.7843   68.4517   65.3285 H   0  0  0  0  0  0  0  0  0  0  0  0
    3.1097   70.1419   68.4839 H   0  0  0  0  0  0  0  0  0  0  0  0
    4.8930   71.0011   70.0046 H   0  0  0  0  0  0  0  0  0  0  0  0
    7.8205   70.4681   66.8742 H   0  0  0  0  0  0  0  0  0  0  0  0
    6.0442   69.6069   65.3493 H   0  0  0  0  0  0  0  0  0  0  0  0
    8.3813   71.2982   68.9700 H   0  0  0  0  0  0  0  0  0  0  0  0
    2.3612   68.8834   67.7501 H   0  0  0  0  0  0  0  0  0  0  0  0
    1.2982   69.4670   66.4088 H   0  0  0  0  0  0  0  0  0  0  0  0
    2.3414   66.7086   66.9936 H   0  0  0  0  0  0  0  0  0  0  0  0
    0.7096   67.2780   66.4025 H   0  0  0  0  0  0  0  0  0  0  0  0
    1.2484   67.0314   64.2694 H   0  0  0  0  0  0  0  0  0  0  0  0
    2.9283   67.7371   64.5564 H   0  0  0  0  0  0  0  0  0  0  0  0
    2.9834   65.1980   65.6838 H   0  0  0  0  0  0  0  0  0  0  0  0
    2.1148   65.0508   64.0640 H   0  0  0  0  0  0  0  0  0  0  0  0
    4.7987   64.8766   64.4228 H   0  0  0  0  0  0  0  0  0  0  0  0
    3.8923   65.3865   62.8915 H   0  0  0  0  0  0  0  0  0  0  0  0
    4.4912   67.6151   64.6440 H   0  0  0  0  0  0  0  0  0  0  0  0
    5.9715   66.6974   64.0554 H   0  0  0  0  0  0  0  0  0  0  0  0
    5.3706   69.4367   63.6464 H   0  0  0  0  0  0  0  0  0  0  0  0
    6.2515   69.2496   62.0921 H   0  0  0  0  0  0  0  0  0  0  0  0
    4.5256   69.7476   62.0921 H   0  0  0  0  0  0  0  0  0  0  0  0
    3.8273   67.6208   62.1559 H   0  0  0  0  0  0  0  0  0  0  0  0
    5.5750   67.1575   61.8693 H   0  0  0  0  0  0  0  0  0  0  0  0
  2  1  1  0
  3  2  2  0
  4  3  1  0
  5  4  2  0
  6  5  1  0
  7  2  1  0
  7  6  2  0
  8  5  1  0
  9  1  1  0
 10  9  1  0
 11 10  1  0
 12 11  1  0
 13 12  1  0
 14 13  1  0
 16 15  1  0
 16 14  1  0
  1 17  1  0
  1 18  1  0
  3 19  1  0
  4 20  1  0
  6 21  1  0
  7 22  1  0
  8 23  1  0
  9 24  1  0
  9 25  1  0
 10 26  1  0
 10 27  1  0
 11 28  1  0
 11 29  1  0
 12 30  1  0
 12 31  1  0
 13 32  1  0
 13 33  1  0
 14 34  1  0
 14 35  1  0
 15 36  1  0
 15 37  1  0
 15 38  1  0
 16 39  1  0
 16 40  1  0
M  END
>  <score>  (1) 
-7.244

$$$$
=
     RDKit          3D

 40 40  0  0  0  0  0  0  0  0999 V2000
    5.5690   69.4410   64.8490 C   0  0  0  0  0  0  0  0  0  0  0  0
    5.0910   69.8090   66.2320 C   0  0  0  0  0  0  0  0  0  0  0  0
    3.7810   69.5110   66.6340 C   0  0  0  0  0  0  0  0  0  0  0  0
    3.3320   69.8660   67.9080 C   0  0  0  0  0  0  0  0  0  0  0  0
    4.1940   70.5240   68.7780 C   0  0  0  0  0  0  0  0  0  0  0  0
    5.4930   70.8340   68.3950 C   0  0  0  0  0  0  0  0  0  0  0  0
    5.9420   70.4780   67.1230 C   0  0  0  0  0  0  0  0  0  0  0  0
    3.7970   70.8890   70.0300 O   0  0  0  0  0  0  0  0  0  0  0  0
    4.4100   69.0040   63.9490 C   0  0  0  0  0  0  0  0  0  0  0  0
    4.7960   69.0910   62.4710 C   0  0  0  0  0  0  0  0  0  0  0  0
    3.6140   68.8890   61.5190 C   0  0  0  0  0  0  0  0  0  0  0  0
    2.3560   68.2730   62.1410 C   0  0  0  0  0  0  0  0  0  0  0  0
    1.0950   69.1380   62.0780 C   0  0  0  0  0  0  0  0  0  0  0  0
    0.1340   69.0360   63.2670 C   0  0  0  0  0  0  0  0  0  0  0  0
   -0.1920   68.5000   65.7490 C   0  0  0  0  0  0  0  0  0  0  0  0
    0.7760   68.5720   64.5780 C   0  0  0  0  0  0  0  0  0  0  0  0
    6.0616   70.3148   64.3974 H   0  0  0  0  0  0  0  0  0  0  0  0
    6.2699   68.5981   64.9405 H   0  0  0  0  0  0  0  0  0  0  0  0
    3.1017   68.9936   65.9405 H   0  0  0  0  0  0  0  0  0  0  0  0
    2.3048   69.6269   68.2205 H   0  0  0  0  0  0  0  0  0  0  0  0
    6.1643   71.3577   69.0914 H   0  0  0  0  0  0  0  0  0  0  0  0
    6.9697   70.7236   66.8173 H   0  0  0  0  0  0  0  0  0  0  0  0
    4.4279   71.3568   70.6326 H   0  0  0  0  0  0  0  0  0  0  0  0
    4.1409   67.9648   64.1893 H   0  0  0  0  0  0  0  0  0  0  0  0
    3.5574   69.6758   64.1271 H   0  0  0  0  0  0  0  0  0  0  0  0
    5.2296   70.0841   62.2821 H   0  0  0  0  0  0  0  0  0  0  0  0
    5.5122   68.2794   62.2750 H   0  0  0  0  0  0  0  0  0  0  0  0
    3.3406   69.8715   61.1068 H   0  0  0  0  0  0  0  0  0  0  0  0
    3.9582   68.1676   60.7633 H   0  0  0  0  0  0  0  0  0  0  0  0
    2.1459   67.3298   61.6155 H   0  0  0  0  0  0  0  0  0  0  0  0
    2.5805   68.1462   63.2104 H   0  0  0  0  0  0  0  0  0  0  0  0
    1.4138   70.1875   61.9955 H   0  0  0  0  0  0  0  0  0  0  0  0
    0.5281   68.7624   61.2134 H   0  0  0  0  0  0  0  0  0  0  0  0
   -0.3074   70.0293   63.4356 H   0  0  0  0  0  0  0  0  0  0  0  0
   -0.6078   68.2693   62.9988 H   0  0  0  0  0  0  0  0  0  0  0  0
    0.3709   68.5419   66.6931 H   0  0  0  0  0  0  0  0  0  0  0  0
   -0.8901   69.3487   65.7004 H   0  0  0  0  0  0  0  0  0  0  0  0
   -0.7569   67.5574   65.7004 H   0  0  0  0  0  0  0  0  0  0  0  0
    1.5808   69.2757   64.8372 H   0  0  0  0  0  0  0  0  0  0  0  0
    1.1457   67.5502   64.4073 H   0  0  0  0  0  0  0  0  0  0  0  0
  2  1  1  0
  3  2  2  0
  4  3  1  0
  5  4  2  0
  6  5  1  0
  7  2  1  0
  7  6  2  0
  8  5  1  0
  9  1  1  0
 10  9  1  0
 11 10  1  0
 12 11  1  0
 13 12  1  0
 14 13  1  0
 16 15  1  0
 16 14  1  0
  1 17  1  0
  1 18  1  0
  3 19  1  0
  4 20  1  0
  6 21  1  0
  7 22  1  0
  8 23  1  0
  9 24  1  0
  9 25  1  0
 10 26  1  0
 10 27  1  0
 11 28  1  0
 11 29  1  0
 12 30  1  0
 12 31  1  0
 13 32  1  0
 13 33  1  0
 14 34  1  0
 14 35  1  0
 15 36  1  0
 15 37  1  0
 15 38  1  0
 16 39  1  0
 16 40  1  0
M  END
>  <score>  (2) 
-7.235

$$$$
=
     RDKit          3D

 40 40  0  0  0  0  0  0  0  0999 V2000
    2.1250   68.0940   66.5000 C   0  0  0  0  0  0  0  0  0  0  0  0
    0.6270   68.0940   66.6790 C   0  0  0  0  0  0  0  0  0  0  0  0
    0.0230   67.2560   67.6280 C   0  0  0  0  0  0  0  0  0  0  0  0
   -1.3640   67.2430   67.7820 C   0  0  0  0  0  0  0  0  0  0  0  0
   -2.1490   68.0660   66.9820 C   0  0  0  0  0  0  0  0  0  0  0  0
   -1.5700   68.8980   66.0320 C   0  0  0  0  0  0  0  0  0  0  0  0
   -0.1830   68.9110   65.8780 C   0  0  0  0  0  0  0  0  0  0  0  0
   -3.5080   68.0850   67.0990 O   0  0  0  0  0  0  0  0  0  0  0  0
    2.5250   68.5060   65.0810 C   0  0  0  0  0  0  0  0  0  0  0  0
    4.0240   68.3100   64.8520 C   0  0  0  0  0  0  0  0  0  0  0  0
    4.8370   69.6000   64.9990 C   0  0  0  0  0  0  0  0  0  0  0  0
    5.5880   69.7670   66.3230 C   0  0  0  0  0  0  0  0  0  0  0  0
    4.7170   70.0650   67.5460 C   0  0  0  0  0  0  0  0  0  0  0  0
    5.3210   70.9890   68.6090 C   0  0  0  0  0  0  0  0  0  0  0  0
    7.6020   70.8170   69.7560 C   0  0  0  0  0  0  0  0  0  0  0  0
    6.8340   71.1960   68.5000 C   0  0  0  0  0  0  0  0  0  0  0  0
    2.5696   68.8014   67.2154 H   0  0  0  0  0  0  0  0  0  0  0  0
    2.4918   67.0721   66.6769 H   0  0  0  0  0  0  0  0  0  0  0  0
    0.6477   66.6038   68.2560 H   0  0  0  0  0  0  0  0  0  0  0  0
   -1.8325   66.5869   68.5303 H   0  0  0  0  0  0  0  0  0  0  0  0
   -2.2018   69.5435   65.4041 H   0  0  0  0  0  0  0  0  0  0  0  0
    0.2773   69.5661   65.1237 H   0  0  0  0  0  0  0  0  0  0  0  0
   -4.0465   68.6792   66.5185 H   0  0  0  0  0  0  0  0  0  0  0  0
    1.9680   67.8917   64.3582 H   0  0  0  0  0  0  0  0  0  0  0  0
    2.2878   69.5717   64.9470 H   0  0  0  0  0  0  0  0  0  0  0  0
    4.3957   67.5785   65.5846 H   0  0  0  0  0  0  0  0  0  0  0  0
    4.1510   67.9631   63.8159 H   0  0  0  0  0  0  0  0  0  0  0  0
    5.5769   69.6272   64.1855 H   0  0  0  0  0  0  0  0  0  0  0  0
    4.1048   70.4202   64.9653 H   0  0  0  0  0  0  0  0  0  0  0  0
    6.1389   68.8353   66.5191 H   0  0  0  0  0  0  0  0  0  0  0  0
    6.2341   70.6477   66.1927 H   0  0  0  0  0  0  0  0  0  0  0  0
    3.7871   70.5309   67.1881 H   0  0  0  0  0  0  0  0  0  0  0  0
    4.5798   69.0958   68.0478 H   0  0  0  0  0  0  0  0  0  0  0  0
    4.8348   71.9720   68.5232 H   0  0  0  0  0  0  0  0  0  0  0  0
    5.1461   70.4992   69.5783 H   0  0  0  0  0  0  0  0  0  0  0  0
    7.0189   71.1048   70.6432 H   0  0  0  0  0  0  0  0  0  0  0  0
    7.7740   69.7306   69.7668 H   0  0  0  0  0  0  0  0  0  0  0  0
    8.5689   71.3414   69.7668 H   0  0  0  0  0  0  0  0  0  0  0  0
    7.0233   72.2583   68.2862 H   0  0  0  0  0  0  0  0  0  0  0  0
    7.1890   70.5326   67.6976 H   0  0  0  0  0  0  0  0  0  0  0  0
  2  1  1  0
  3  2  2  0
  4  3  1  0
  5  4  2  0
  6  5  1  0
  7  2  1  0
  7  6  2  0
  8  5  1  0
  9  1  1  0
 10  9  1  0
 11 10  1  0
 12 11  1  0
 13 12  1  0
 14 13  1  0
 16 15  1  0
 16 14  1  0
  1 17  1  0
  1 18  1  0
  3 19  1  0
  4 20  1  0
  6 21  1  0
  7 22  1  0
  8 23  1  0
  9 24  1  0
  9 25  1  0
 10 26  1  0
 10 27  1  0
 11 28  1  0
 11 29  1  0
 12 30  1  0
 12 31  1  0
 13 32  1  0
 13 33  1  0
 14 34  1  0
 14 35  1  0
 15 36  1  0
 15 37  1  0
 15 38  1  0
 16 39  1  0
 16 40  1  0
M  END
>  <score>  (3) 
-7.229

$$$$
=
     RDKit          3D

 40 40  0  0  0  0  0  0  0  0999 V2000
    2.0860   69.0650   67.1950 C   0  0  0  0  0  0  0  0  0  0  0  0
    3.3750   69.7440   67.5890 C   0  0  0  0  0  0  0  0  0  0  0  0
    4.4720   69.7480   66.7160 C   0  0  0  0  0  0  0  0  0  0  0  0
    5.6710   70.3610   67.0860 C   0  0  0  0  0  0  0  0  0  0  0  0
    5.7720   70.9680   68.3330 C   0  0  0  0  0  0  0  0  0  0  0  0
    4.6970   70.9690   69.2140 C   0  0  0  0  0  0  0  0  0  0  0  0
    3.4990   70.3560   68.8440 C   0  0  0  0  0  0  0  0  0  0  0  0
    6.9230   71.5790   68.7350 O   0  0  0  0  0  0  0  0  0  0  0  0
    2.2810   68.1400   65.9900 C   0  0  0  0  0  0  0  0  0  0  0  0
    1.5750   68.6930   64.7510 C   0  0  0  0  0  0  0  0  0  0  0  0
    2.3020   68.3710   63.4420 C   0  0  0  0  0  0  0  0  0  0  0  0
    3.7720   68.7980   63.3740 C   0  0  0  0  0  0  0  0  0  0  0  0
    4.7960   67.6710   63.5310 C   0  0  0  0  0  0  0  0  0  0  0  0
    4.4120   66.3090   62.9410 C   0  0  0  0  0  0  0  0  0  0  0  0
    3.2620   64.8150   64.6710 C   0  0  0  0  0  0  0  0  0  0  0  0
    4.5390   65.1290   63.9090 C   0  0  0  0  0  0  0  0  0  0  0  0
    1.7211   68.4708   68.0457 H   0  0  0  0  0  0  0  0  0  0  0  0
    1.3587   69.8423   66.9177 H   0  0  0  0  0  0  0  0  0  0  0  0
    4.3876   69.2644   65.7316 H   0  0  0  0  0  0  0  0  0  0  0  0
    6.5283   70.3637   66.3968 H   0  0  0  0  0  0  0  0  0  0  0  0
    4.7900   71.4508   70.1985 H   0  0  0  0  0  0  0  0  0  0  0  0
    2.6478   70.3531   69.5407 H   0  0  0  0  0  0  0  0  0  0  0  0
    6.9718   72.0047   69.6275 H   0  0  0  0  0  0  0  0  0  0  0  0
    3.3565   68.0469   65.7790 H   0  0  0  0  0  0  0  0  0  0  0  0
    1.8474   67.1579   66.2298 H   0  0  0  0  0  0  0  0  0  0  0  0
    0.5643   68.2613   64.7038 H   0  0  0  0  0  0  0  0  0  0  0  0
    1.5551   69.7883   64.8504 H   0  0  0  0  0  0  0  0  0  0  0  0
    2.2593   67.2822   63.2911 H   0  0  0  0  0  0  0  0  0  0  0  0
    1.7858   68.9509   62.6627 H   0  0  0  0  0  0  0  0  0  0  0  0
    3.9410   69.2752   62.3974 H   0  0  0  0  0  0  0  0  0  0  0  0
    3.9302   69.4698   64.2305 H   0  0  0  0  0  0  0  0  0  0  0  0
    5.7272   67.9955   63.0435 H   0  0  0  0  0  0  0  0  0  0  0  0
    4.8809   67.5045   64.6150 H   0  0  0  0  0  0  0  0  0  0  0  0
    3.3660   66.3646   62.6051 H   0  0  0  0  0  0  0  0  0  0  0  0
    5.1218   66.1154   62.1232 H   0  0  0  0  0  0  0  0  0  0  0  0
    3.4588   64.8634   65.7522 H   0  0  0  0  0  0  0  0  0  0  0  0
    2.4870   65.5493   64.4062 H   0  0  0  0  0  0  0  0  0  0  0  0
    2.9159   63.8050   64.4062 H   0  0  0  0  0  0  0  0  0  0  0  0
    5.3284   65.3632   64.6384 H   0  0  0  0  0  0  0  0  0  0  0  0
    4.7735   64.2425   63.3015 H   0  0  0  0  0  0  0  0  0  0  0  0
  2  1  1  0
  3  2  2  0
  4  3  1  0
  5  4  2  0
  6  5  1  0
  7  2  1  0
  7  6  2  0
  8  5  1  0
  9  1  1  0
 10  9  1  0
 11 10  1  0
 12 11  1  0
 13 12  1  0
 14 13  1  0
 16 15  1  0
 16 14  1  0
  1 17  1  0
  1 18  1  0
  3 19  1  0
  4 20  1  0
  6 21  1  0
  7 22  1  0
  8 23  1  0
  9 24  1  0
  9 25  1  0
 10 26  1  0
 10 27  1  0
 11 28  1  0
 11 29  1  0
 12 30  1  0
 12 31  1  0
 13 32  1  0
 13 33  1  0
 14 34  1  0
 14 35  1  0
 15 36  1  0
 15 37  1  0
 15 38  1  0
 16 39  1  0
 16 40  1  0
M  END
>  <score>  (4) 
-7.144

$$$$
=
     RDKit          3D

 40 40  0  0  0  0  0  0  0  0999 V2000
    1.2130   67.3640   67.1200 C   0  0  0  0  0  0  0  0  0  0  0  0
   -0.2420   67.6830   66.8760 C   0  0  0  0  0  0  0  0  0  0  0  0
   -1.2450   67.0340   67.6110 C   0  0  0  0  0  0  0  0  0  0  0  0
   -2.5920   67.3160   67.3750 C   0  0  0  0  0  0  0  0  0  0  0  0
   -2.9360   68.2450   66.4000 C   0  0  0  0  0  0  0  0  0  0  0  0
   -1.9570   68.8940   65.6570 C   0  0  0  0  0  0  0  0  0  0  0  0
   -0.6100   68.6120   65.8930 C   0  0  0  0  0  0  0  0  0  0  0  0
   -4.2380   68.5510   66.1360 O   0  0  0  0  0  0  0  0  0  0  0  0
    2.1150   68.5580   66.7910 C   0  0  0  0  0  0  0  0  0  0  0  0
    3.1510   68.1890   65.7280 C   0  0  0  0  0  0  0  0  0  0  0  0
    3.8800   69.4020   65.1420 C   0  0  0  0  0  0  0  0  0  0  0  0
    5.4050   69.3950   65.2870 C   0  0  0  0  0  0  0  0  0  0  0  0
    5.9970   70.5450   66.1050 C   0  0  0  0  0  0  0  0  0  0  0  0
    6.5580   70.1870   67.4860 C   0  0  0  0  0  0  0  0  0  0  0  0
    4.4030   70.7080   68.7640 C   0  0  0  0  0  0  0  0  0  0  0  0
    5.9050   70.9230   68.6590 C   0  0  0  0  0  0  0  0  0  0  0  0
    1.3471   67.0962   68.1784 H   0  0  0  0  0  0  0  0  0  0  0  0
    1.4965   66.5276   66.4642 H   0  0  0  0  0  0  0  0  0  0  0  0
   -0.9682   66.2971   68.3794 H   0  0  0  0  0  0  0  0  0  0  0  0
   -3.3749   66.8069   67.9562 H   0  0  0  0  0  0  0  0  0  0  0  0
   -2.2419   69.6261   64.8870 H   0  0  0  0  0  0  0  0  0  0  0  0
    0.1668   69.1218   65.3042 H   0  0  0  0  0  0  0  0  0  0  0  0
   -4.4581   69.2162   65.4366 H   0  0  0  0  0  0  0  0  0  0  0  0
    1.4940   69.3847   66.4157 H   0  0  0  0  0  0  0  0  0  0  0  0
    2.6456   68.8578   67.7067 H   0  0  0  0  0  0  0  0  0  0  0  0
    3.8964   67.5213   66.1846 H   0  0  0  0  0  0  0  0  0  0  0  0
    2.6100   67.7049   64.9016 H   0  0  0  0  0  0  0  0  0  0  0  0
    3.6429   69.4528   64.0691 H   0  0  0  0  0  0  0  0  0  0  0  0
    3.5282   70.2703   65.7185 H   0  0  0  0  0  0  0  0  0  0  0  0
    5.6945   68.4509   65.7717 H   0  0  0  0  0  0  0  0  0  0  0  0
    5.8045   69.5132   64.2689 H   0  0  0  0  0  0  0  0  0  0  0  0
    6.8149   70.9866   65.5167 H   0  0  0  0  0  0  0  0  0  0  0  0
    5.1549   71.2250   66.3013 H   0  0  0  0  0  0  0  0  0  0  0  0
    6.4198   69.1068   67.6412 H   0  0  0  0  0  0  0  0  0  0  0  0
    7.6140   70.4950   67.4787 H   0  0  0  0  0  0  0  0  0  0  0  0
    4.1118   70.6663   69.8239 H   0  0  0  0  0  0  0  0  0  0  0  0
    3.8782   71.5402   68.2720 H   0  0  0  0  0  0  0  0  0  0  0  0
    4.1327   69.7620   68.2720 H   0  0  0  0  0  0  0  0  0  0  0  0
    6.0929   72.0002   68.5394 H   0  0  0  0  0  0  0  0  0  0  0  0
    6.3503   70.5154   69.5786 H   0  0  0  0  0  0  0  0  0  0  0  0
  2  1  1  0
  3  2  2  0
  4  3  1  0
  5  4  2  0
  6  5  1  0
  7  2  1  0
  7  6  2  0
  8  5  1  0
  9  1  1  0
 10  9  1  0
 11 10  1  0
 12 11  1  0
 13 12  1  0
 14 13  1  0
 16 15  1  0
 16 14  1  0
  1 17  1  0
  1 18  1  0
  3 19  1  0
  4 20  1  0
  6 21  1  0
  7 22  1  0
  8 23  1  0
  9 24  1  0
  9 25  1  0
 10 26  1  0
 10 27  1  0
 11 28  1  0
 11 29  1  0
 12 30  1  0
 12 31  1  0
 13 32  1  0
 13 33  1  0
 14 34  1  0
 14 35  1  0
 15 36  1  0
 15 37  1  0
 15 38  1  0
 16 39  1  0
 16 40  1  0
M  END
>  <score>  (5) 
-7.107

$$$$
=
     RDKit          3D

 40 40  0  0  0  0  0  0  0  0999 V2000
    1.3670   68.6500   65.2550 C   0  0  0  0  0  0  0  0  0  0  0  0
    2.5880   68.7750   64.3760 C   0  0  0  0  0  0  0  0  0  0  0  0
    2.5100   68.4870   63.0060 C   0  0  0  0  0  0  0  0  0  0  0  0
    3.6430   68.5860   62.1950 C   0  0  0  0  0  0  0  0  0  0  0  0
    4.8550   68.9710   62.7580 C   0  0  0  0  0  0  0  0  0  0  0  0
    4.9530   69.2540   64.1140 C   0  0  0  0  0  0  0  0  0  0  0  0
    3.8210   69.1550   64.9250 C   0  0  0  0  0  0  0  0  0  0  0  0
    5.9850   69.0800   62.0030 O   0  0  0  0  0  0  0  0  0  0  0  0
    1.5800   67.6260   66.3740 C   0  0  0  0  0  0  0  0  0  0  0  0
    1.2530   68.2290   67.7410 C   0  0  0  0  0  0  0  0  0  0  0  0
    1.5340   69.7330   67.8270 C   0  0  0  0  0  0  0  0  0  0  0  0
    2.6310   70.1490   68.8120 C   0  0  0  0  0  0  0  0  0  0  0  0
    4.0590   70.1230   68.2620 C   0  0  0  0  0  0  0  0  0  0  0  0
    5.1050   70.9390   69.0310 C   0  0  0  0  0  0  0  0  0  0  0  0
    7.6280   70.8980   69.4570 C   0  0  0  0  0  0  0  0  0  0  0  0
    6.5110   70.9200   68.4250 C   0  0  0  0  0  0  0  0  0  0  0  0
    1.1491   69.6300   65.7047 H   0  0  0  0  0  0  0  0  0  0  0  0
    0.5277   68.3084   64.6314 H   0  0  0  0  0  0  0  0  0  0  0  0
    1.5492   68.1808   62.5665 H   0  0  0  0  0  0  0  0  0  0  0  0
    3.5771   68.3614   61.1202 H   0  0  0  0  0  0  0  0  0  0  0  0
    5.9183   69.5548   64.5472 H   0  0  0  0  0  0  0  0  0  0  0  0
    3.8967   69.3762   65.9999 H   0  0  0  0  0  0  0  0  0  0  0  0
    6.8373   69.3557   62.4245 H   0  0  0  0  0  0  0  0  0  0  0  0
    0.9256   66.7596   66.1976 H   0  0  0  0  0  0  0  0  0  0  0  0
    2.6364   67.3193   66.3708 H   0  0  0  0  0  0  0  0  0  0  0  0
    0.1860   68.0614   67.9496 H   0  0  0  0  0  0  0  0  0  0  0  0
    1.9039   67.7349   68.4774 H   0  0  0  0  0  0  0  0  0  0  0  0
    1.8299   70.0792   66.8257 H   0  0  0  0  0  0  0  0  0  0  0  0
    0.6062   70.1903   68.2012 H   0  0  0  0  0  0  0  0  0  0  0  0
    2.4154   71.1750   69.1450 H   0  0  0  0  0  0  0  0  0  0  0  0
    2.6068   69.4041   69.6210 H   0  0  0  0  0  0  0  0  0  0  0  0
    4.3940   69.0753   68.2523 H   0  0  0  0  0  0  0  0  0  0  0  0
    3.9965   70.5929   67.2694 H   0  0  0  0  0  0  0  0  0  0  0  0
    4.7632   71.9839   69.0684 H   0  0  0  0  0  0  0  0  0  0  0  0
    5.1908   70.4729   70.0237 H   0  0  0  0  0  0  0  0  0  0  0  0
    7.1937   70.9066   70.4676 H   0  0  0  0  0  0  0  0  0  0  0  0
    8.2314   69.9878   69.3249 H   0  0  0  0  0  0  0  0  0  0  0  0
    8.2668   71.7837   69.3249 H   0  0  0  0  0  0  0  0  0  0  0  0
    6.6320   71.8192   67.8031 H   0  0  0  0  0  0  0  0  0  0  0  0
    6.5952   69.9896   67.8443 H   0  0  0  0  0  0  0  0  0  0  0  0
  2  1  1  0
  3  2  2  0
  4  3  1  0
  5  4  2  0
  6  5  1  0
  7  2  1  0
  7  6  2  0
  8  5  1  0
  9  1  1  0
 10  9  1  0
 11 10  1  0
 12 11  1  0
 13 12  1  0
 14 13  1  0
 16 15  1  0
 16 14  1  0
  1 17  1  0
  1 18  1  0
  3 19  1  0
  4 20  1  0
  6 21  1  0
  7 22  1  0
  8 23  1  0
  9 24  1  0
  9 25  1  0
 10 26  1  0
 10 27  1  0
 11 28  1  0
 11 29  1  0
 12 30  1  0
 12 31  1  0
 13 32  1  0
 13 33  1  0
 14 34  1  0
 14 35  1  0
 15 36  1  0
 15 37  1  0
 15 38  1  0
 16 39  1  0
 16 40  1  0
M  END
>  <score>  (6) 
-7.052

$$$$
=
     RDKit          3D

 40 40  0  0  0  0  0  0  0  0999 V2000
    1.8100   69.6100   68.0080 C   0  0  0  0  0  0  0  0  0  0  0  0
    3.2650   69.8500   67.6880 C   0  0  0  0  0  0  0  0  0  0  0  0
    3.7880   69.4860   66.4390 C   0  0  0  0  0  0  0  0  0  0  0  0
    5.1390   69.6920   66.1480 C   0  0  0  0  0  0  0  0  0  0  0  0
    5.9670   70.2590   67.1110 C   0  0  0  0  0  0  0  0  0  0  0  0
    5.4680   70.6200   68.3560 C   0  0  0  0  0  0  0  0  0  0  0  0
    4.1180   70.4140   68.6470 C   0  0  0  0  0  0  0  0  0  0  0  0
    7.2910   70.4780   66.8700 O   0  0  0  0  0  0  0  0  0  0  0  0
    1.2790   68.3530   67.3120 C   0  0  0  0  0  0  0  0  0  0  0  0
   -0.2040   68.4980   66.9680 C   0  0  0  0  0  0  0  0  0  0  0  0
   -0.4720   68.6140   65.4640 C   0  0  0  0  0  0  0  0  0  0  0  0
    0.7220   69.0460   64.6060 C   0  0  0  0  0  0  0  0  0  0  0  0
    1.1540   68.0540   63.5240 C   0  0  0  0  0  0  0  0  0  0  0  0
    2.6480   68.0210   63.1810 C   0  0  0  0  0  0  0  0  0  0  0  0
    2.6160   65.9710   64.7130 C   0  0  0  0  0  0  0  0  0  0  0  0
    3.4630   66.9770   63.9490 C   0  0  0  0  0  0  0  0  0  0  0  0
    1.6990   69.4895   69.0957 H   0  0  0  0  0  0  0  0  0  0  0  0
    1.2316   70.4732   67.6470 H   0  0  0  0  0  0  0  0  0  0  0  0
    3.1295   69.0347   65.6822 H   0  0  0  0  0  0  0  0  0  0  0  0
    5.5443   69.4081   65.1656 H   0  0  0  0  0  0  0  0  0  0  0  0
    6.1336   71.0663   69.1095 H   0  0  0  0  0  0  0  0  0  0  0  0
    3.7217   70.6957   69.6337 H   0  0  0  0  0  0  0  0  0  0  0  0
    7.8613   70.8829   67.5706 H   0  0  0  0  0  0  0  0  0  0  0  0
    1.8482   68.1881   66.3852 H   0  0  0  0  0  0  0  0  0  0  0  0
    1.3969   67.4994   67.9957 H   0  0  0  0  0  0  0  0  0  0  0  0
   -0.7383   67.6157   67.3502 H   0  0  0  0  0  0  0  0  0  0  0  0
   -0.5552   69.4310   67.4330 H   0  0  0  0  0  0  0  0  0  0  0  0
   -0.8081   67.6304   65.1041 H   0  0  0  0  0  0  0  0  0  0  0  0
   -1.2228   69.4105   65.3545 H   0  0  0  0  0  0  0  0  0  0  0  0
    0.4580   69.9923   64.1112 H   0  0  0  0  0  0  0  0  0  0  0  0
    1.5743   69.1269   65.2967 H   0  0  0  0  0  0  0  0  0  0  0  0
    0.8663   67.0469   63.8603 H   0  0  0  0  0  0  0  0  0  0  0  0
    0.6524   68.3904   62.6047 H   0  0  0  0  0  0  0  0  0  0  0  0
    2.7472   67.8088   62.1062 H   0  0  0  0  0  0  0  0  0  0  0  0
    3.0526   69.0021   63.4704 H   0  0  0  0  0  0  0  0  0  0  0  0
    2.7473   66.1270   65.7939 H   0  0  0  0  0  0  0  0  0  0  0  0
    1.5570   66.1077   64.4488 H   0  0  0  0  0  0  0  0  0  0  0  0
    2.9311   64.9507   64.4488 H   0  0  0  0  0  0  0  0  0  0  0  0
    4.1085   67.5026   64.6681 H   0  0  0  0  0  0  0  0  0  0  0  0
    4.0364   66.4083   63.2021 H   0  0  0  0  0  0  0  0  0  0  0  0
  2  1  1  0
  3  2  2  0
  4  3  1  0
  5  4  2  0
  6  5  1  0
  7  2  1  0
  7  6  2  0
  8  5  1  0
  9  1  1  0
 10  9  1  0
 11 10  1  0
 12 11  1  0
 13 12  1  0
 14 13  1  0
 16 15  1  0
 16 14  1  0
  1 17  1  0
  1 18  1  0
  3 19  1  0
  4 20  1  0
  6 21  1  0
  7 22  1  0
  8 23  1  0
  9 24  1  0
  9 25  1  0
 10 26  1  0
 10 27  1  0
 11 28  1  0
 11 29  1  0
 12 30  1  0
 12 31  1  0
 13 32  1  0
 13 33  1  0
 14 34  1  0
 14 35  1  0
 15 36  1  0
 15 37  1  0
 15 38  1  0
 16 39  1  0
 16 40  1  0
M  END
>  <score>  (7) 
-6.694

$$$$
=
     RDKit          3D

 40 40  0  0  0  0  0  0  0  0999 V2000
    1.6220   68.3700   67.8840 C   0  0  0  0  0  0  0  0  0  0  0  0
    0.1780   68.2670   67.4590 C   0  0  0  0  0  0  0  0  0  0  0  0
   -0.6410   67.2460   67.9630 C   0  0  0  0  0  0  0  0  0  0  0  0
   -1.9730   67.1390   67.5580 C   0  0  0  0  0  0  0  0  0  0  0  0
   -2.4850   68.0540   66.6430 C   0  0  0  0  0  0  0  0  0  0  0  0
   -1.6870   69.0680   66.1280 C   0  0  0  0  0  0  0  0  0  0  0  0
   -0.3560   69.1750   66.5340 C   0  0  0  0  0  0  0  0  0  0  0  0
   -3.7790   67.9870   66.2200 O   0  0  0  0  0  0  0  0  0  0  0  0
    1.9900   69.8000   68.2900 C   0  0  0  0  0  0  0  0  0  0  0  0
    3.3010   69.8280   69.0790 C   0  0  0  0  0  0  0  0  0  0  0  0
    4.2360   70.9690   68.6660 C   0  0  0  0  0  0  0  0  0  0  0  0
    5.3480   70.5950   67.6810 C   0  0  0  0  0  0  0  0  0  0  0  0
    4.9760   69.5480   66.6300 C   0  0  0  0  0  0  0  0  0  0  0  0
    5.4420   69.8210   65.1950 C   0  0  0  0  0  0  0  0  0  0  0  0
    3.1010   68.9800   64.5950 C   0  0  0  0  0  0  0  0  0  0  0  0
    4.5020   69.3050   64.1020 C   0  0  0  0  0  0  0  0  0  0  0  0
    1.7904   67.7012   68.7409 H   0  0  0  0  0  0  0  0  0  0  0  0
    2.2531   68.0817   67.0304 H   0  0  0  0  0  0  0  0  0  0  0  0
   -0.2304   66.5233   68.6835 H   0  0  0  0  0  0  0  0  0  0  0  0
   -2.6121   66.3384   67.9587 H   0  0  0  0  0  0  0  0  0  0  0  0
   -2.1025   69.7836   65.4032 H   0  0  0  0  0  0  0  0  0  0  0  0
    0.2776   69.9763   66.1259 H   0  0  0  0  0  0  0  0  0  0  0  0
   -4.1217   68.6488   65.5683 H   0  0  0  0  0  0  0  0  0  0  0  0
    2.1028   70.4131   67.3837 H   0  0  0  0  0  0  0  0  0  0  0  0
    1.1887   70.1992   68.9292 H   0  0  0  0  0  0  0  0  0  0  0  0
    3.0628   69.9417   70.1469 H   0  0  0  0  0  0  0  0  0  0  0  0
    3.8268   68.8851   68.8681 H   0  0  0  0  0  0  0  0  0  0  0  0
    3.6237   71.7558   68.2012 H   0  0  0  0  0  0  0  0  0  0  0  0
    4.7466   71.2858   69.5874 H   0  0  0  0  0  0  0  0  0  0  0  0
    5.6543   71.5102   67.1532 H   0  0  0  0  0  0  0  0  0  0  0  0
    6.1466   70.1422   68.2869 H   0  0  0  0  0  0  0  0  0  0  0  0
    5.4117   68.5886   66.9457 H   0  0  0  0  0  0  0  0  0  0  0  0
    3.8770   69.5592   66.5854 H   0  0  0  0  0  0  0  0  0  0  0  0
    5.5457   70.9090   65.0707 H   0  0  0  0  0  0  0  0  0  0  0  0
    6.3891   69.2758   65.0696 H   0  0  0  0  0  0  0  0  0  0  0  0
    3.0907   68.9776   65.6949 H   0  0  0  0  0  0  0  0  0  0  0  0
    2.3964   69.7385   64.2234 H   0  0  0  0  0  0  0  0  0  0  0  0
    2.8023   67.9887   64.2234 H   0  0  0  0  0  0  0  0  0  0  0  0
    4.9387   68.3910   63.6732 H   0  0  0  0  0  0  0  0  0  0  0  0
    4.4000   70.1126   63.3622 H   0  0  0  0  0  0  0  0  0  0  0  0
  2  1  1  0
  3  2  2  0
  4  3  1  0
  5  4  2  0
  6  5  1  0
  7  2  1  0
  7  6  2  0
  8  5  1  0
  9  1  1  0
 10  9  1  0
 11 10  1  0
 12 11  1  0
 13 12  1  0
 14 13  1  0
 16 15  1  0
 16 14  1  0
  1 17  1  0
  1 18  1  0
  3 19  1  0
  4 20  1  0
  6 21  1  0
  7 22  1  0
  8 23  1  0
  9 24  1  0
  9 25  1  0
 10 26  1  0
 10 27  1  0
 11 28  1  0
 11 29  1  0
 12 30  1  0
 12 31  1  0
 13 32  1  0
 13 33  1  0
 14 34  1  0
 14 35  1  0
 15 36  1  0
 15 37  1  0
 15 38  1  0
 16 39  1  0
 16 40  1  0
M  END
>  <score>  (8) 
-6.683

$$$$
=
     RDKit          3D

 40 40  0  0  0  0  0  0  0  0999 V2000
    2.5210   67.6910   64.5270 C   0  0  0  0  0  0  0  0  0  0  0  0
    1.2960   67.9740   65.3620 C   0  0  0  0  0  0  0  0  0  0  0  0
    1.2740   67.6450   66.7250 C   0  0  0  0  0  0  0  0  0  0  0  0
    0.1350   67.8910   67.4950 C   0  0  0  0  0  0  0  0  0  0  0  0
   -0.9840   68.4620   66.8990 C   0  0  0  0  0  0  0  0  0  0  0  0
   -0.9830   68.7890   65.5490 C   0  0  0  0  0  0  0  0  0  0  0  0
    0.1550   68.5440   64.7790 C   0  0  0  0  0  0  0  0  0  0  0  0
   -2.1160   68.7190   67.6140 O   0  0  0  0  0  0  0  0  0  0  0  0
    2.7880   68.8130   63.5190 C   0  0  0  0  0  0  0  0  0  0  0  0
    4.2840   69.1150   63.4140 C   0  0  0  0  0  0  0  0  0  0  0  0
    5.1120   68.4860   64.5390 C   0  0  0  0  0  0  0  0  0  0  0  0
    5.6680   69.4610   65.5820 C   0  0  0  0  0  0  0  0  0  0  0  0
    4.7230   69.8090   66.7330 C   0  0  0  0  0  0  0  0  0  0  0  0
    5.3650   70.4060   67.9910 C   0  0  0  0  0  0  0  0  0  0  0  0
    2.9910   70.1710   68.9180 C   0  0  0  0  0  0  0  0  0  0  0  0
    4.3830   70.7500   69.1150 C   0  0  0  0  0  0  0  0  0  0  0  0
    3.3918   67.5940   65.1921 H   0  0  0  0  0  0  0  0  0  0  0  0
    2.3483   66.7598   63.9675 H   0  0  0  0  0  0  0  0  0  0  0  0
    2.1603   67.1898   67.1911 H   0  0  0  0  0  0  0  0  0  0  0  0
    0.1233   67.6350   68.5647 H   0  0  0  0  0  0  0  0  0  0  0  0
   -1.8751   69.2390   65.0889 H   0  0  0  0  0  0  0  0  0  0  0  0
    0.1569   68.7994   63.7091 H   0  0  0  0  0  0  0  0  0  0  0  0
   -2.9009   69.1261   67.1688 H   0  0  0  0  0  0  0  0  0  0  0  0
    2.4135   68.5054   62.5315 H   0  0  0  0  0  0  0  0  0  0  0  0
    2.2716   69.7214   63.8627 H   0  0  0  0  0  0  0  0  0  0  0  0
    4.6513   68.7276   62.4522 H   0  0  0  0  0  0  0  0  0  0  0  0
    4.4016   70.2057   63.4950 H   0  0  0  0  0  0  0  0  0  0  0  0
    4.4733   67.7595   65.0627 H   0  0  0  0  0  0  0  0  0  0  0  0
    5.9899   68.0386   64.0500 H   0  0  0  0  0  0  0  0  0  0  0  0
    6.5757   69.0136   66.0132 H   0  0  0  0  0  0  0  0  0  0  0  0
    5.8480   70.4043   65.0455 H   0  0  0  0  0  0  0  0  0  0  0  0
    3.9900   70.5368   66.3548 H   0  0  0  0  0  0  0  0  0  0  0  0
    4.2916   68.8496   67.0546 H   0  0  0  0  0  0  0  0  0  0  0  0
    6.0910   69.6781   68.3824 H   0  0  0  0  0  0  0  0  0  0  0  0
    5.8247   71.3562   67.6815 H   0  0  0  0  0  0  0  0  0  0  0  0
    2.5312   69.9798   69.8988 H   0  0  0  0  0  0  0  0  0  0  0  0
    2.3724   70.8864   68.3563 H   0  0  0  0  0  0  0  0  0  0  0  0
    3.0623   69.2279   68.3563 H   0  0  0  0  0  0  0  0  0  0  0  0
    4.2968   71.8449   69.1761 H   0  0  0  0  0  0  0  0  0  0  0  0
    4.7855   70.3050   70.0369 H   0  0  0  0  0  0  0  0  0  0  0  0
  2  1  1  0
  3  2  2  0
  4  3  1  0
  5  4  2  0
  6  5  1  0
  7  2  1  0
  7  6  2  0
  8  5  1  0
  9  1  1  0
 10  9  1  0
 11 10  1  0
 12 11  1  0
 13 12  1  0
 14 13  1  0
 16 15  1  0
 16 14  1  0
  1 17  1  0
  1 18  1  0
  3 19  1  0
  4 20  1  0
  6 21  1  0
  7 22  1  0
  8 23  1  0
  9 24  1  0
  9 25  1  0
 10 26  1  0
 10 27  1  0
 11 28  1  0
 11 29  1  0
 12 30  1  0
 12 31  1  0
 13 32  1  0
 13 33  1  0
 14 34  1  0
 14 35  1  0
 15 36  1  0
 15 37  1  0
 15 38  1  0
 16 39  1  0
 16 40  1  0
M  END
>  <score>  (9) 
-6.658

$$$$
