=
     RDKit          3D

144147  0  0  0  0  0  0  0  0999 V2000
    0.4160   60.2090   75.9910 C   0  0  1  0  0  0  0  0  0  0  0  0
    1.1450   59.1970   76.7410 O   0  0  0  0  0  0  0  0  0  0  0  0
    0.9860   57.8990   76.3820 C   0  0  0  0  0  0  0  0  0  0  0  0
    0.2120   57.5060   75.5110 O   0  0  0  0  0  0  0  0  0  0  0  0
    1.8790   56.9460   77.2040 C   0  0  2  0  0  0  0  0  0  0  0  0
    2.9300   57.6080   78.1060 C   0  0  0  0  0  0  0  0  0  0  0  0
    4.1280   58.1530   77.3320 C   0  0  0  0  0  0  0  0  0  0  0  0
    4.7120   57.0990   76.3990 C   0  0  0  0  0  0  0  0  0  0  0  0
    3.6450   56.4890   75.4990 C   0  0  0  0  0  0  0  0  0  0  0  0
    2.5170   55.9860   76.2780 N   0  0  0  0  0  0  0  0  0  0  0  0
    1.9010   54.8030   75.8610 C   0  0  0  0  0  0  0  0  0  0  0  0
    2.2980   54.0940   74.9440 O   0  0  0  0  0  0  0  0  0  0  0  0
    0.6900   54.3410   76.6420 C   0  0  0  0  0  0  0  0  0  0  0  0
    0.8480   53.9840   77.8100 O   0  0  0  0  0  0  0  0  0  0  0  0
   -0.6660   54.4000   75.9080 C   0  0  2  0  0  0  0  0  0  0  0  0
   -1.4580   55.2140   76.7880 O   0  0  0  0  0  0  0  0  0  0  0  0
   -2.7990   54.8180   77.0590 C   0  0  1  0  0  0  0  0  0  0  0  0
   -3.4480   54.1030   75.8820 C   0  0  0  0  0  0  0  0  0  0  0  0
   -2.6700   52.8870   75.4060 C   0  0  0  0  0  0  0  0  0  0  0  0
   -1.1790   52.9450   75.7650 C   0  0  1  0  0  0  0  0  0  0  0  0
   -0.3800   52.1170   74.7520 C   0  0  0  0  0  0  0  0  0  0  0  0
   -2.8630   54.0500   78.3900 C   0  0  0  0  0  0  0  0  0  0  0  0
   -2.2840   54.8560   79.5770 C   0  0  1  0  0  0  0  0  0  0  0  0
   -3.1600   56.0520   79.9380 C   0  0  0  0  0  0  0  0  0  0  0  0
   -2.8460   57.2760   79.4650 C   0  0  0  0  0  0  0  0  0  0  0  0
   -3.6450   58.4710   79.5840 C   0  0  0  0  0  0  0  0  0  0  0  0
   -3.9250   59.1150   80.7270 C   0  0  0  0  0  0  0  0  0  0  0  0
   -4.8100   60.2600   80.7530 C   0  0  0  0  0  0  0  0  0  0  0  0
   -6.0900   60.1620   80.3550 C   0  0  0  0  0  0  0  0  0  0  0  0
   -7.1240   61.2600   80.2140 C   0  0  2  0  0  0  0  0  0  0  0  0
   -7.6470   61.2940   78.7550 C   0  0  0  0  0  0  0  0  0  0  0  0
   -8.5970   60.1300   78.4000 C   0  0  2  0  0  0  0  0  0  0  0  0
   -8.5420   59.8240   76.8980 C   0  0  0  0  0  0  0  0  0  0  0  0
   -9.4020   60.2520   76.1190 O   0  0  0  0  0  0  0  0  0  0  0  0
   -7.3510   59.0160   76.3440 C   0  0  1  0  0  0  0  0  0  0  0  0
   -6.5850   59.9790   75.3950 C   0  0  1  0  0  0  0  0  0  0  0  0
   -5.1360   59.6170   75.0940 C   0  0  0  0  0  0  0  0  0  0  0  0
   -4.1630   60.5290   75.3120 C   0  0  0  0  0  0  0  0  0  0  0  0
   -2.6790   60.3850   75.0600 C   0  0  2  0  0  0  0  0  0  0  0  0
   -1.9170   61.2430   76.0810 C   0  0  0  0  0  0  0  0  0  0  0  0
   -2.2100   62.4240   76.2860 O   0  0  0  0  0  0  0  0  0  0  0  0
   -0.7830   60.6000   76.8560 C   0  0  0  0  0  0  0  0  0  0  0  0
   -2.3360   60.8530   73.6490 C   0  0  0  0  0  0  0  0  0  0  0  0
   -4.8950   58.2530   74.5030 C   0  0  0  0  0  0  0  0  0  0  0  0
  -10.0330   60.4430   78.8290 C   0  0  0  0  0  0  0  0  0  0  0  0
   -6.6160   62.6510   80.6090 C   0  0  0  0  0  0  0  0  0  0  0  0
   -4.3820   55.7470   80.7690 C   0  0  0  0  0  0  0  0  0  0  0  0
    1.4550   61.3320   75.6850 C   0  0  2  0  0  0  0  0  0  0  0  0
    1.1370   62.6710   76.3440 C   0  0  0  0  0  0  0  0  0  0  0  0
    1.5870   61.4730   74.1380 C   0  0  0  0  0  0  0  0  0  0  0  0
    3.4370   59.2420   72.6470 C   0  0  2  0  0  0  0  0  0  0  0  0
    3.8280   60.2940   73.7010 C   0  0  0  0  0  0  0  0  0  0  0  0
    3.0370   61.6180   73.6130 C   0  0  1  0  0  0  0  0  0  0  0  0
    3.0900   62.1610   72.1730 C   0  0  0  0  0  0  0  0  0  0  0  0
    2.6900   61.1280   71.1170 C   0  0  0  0  0  0  0  0  0  0  0  0
    3.5090   59.8410   71.2290 C   0  0  1  0  0  0  0  0  0  0  0  0
    1.8930   57.4270   72.5130 C   0  0  0  0  0  0  0  0  0  0  0  0
    2.1260   58.7570   72.9620 O   0  0  0  0  0  0  0  0  0  0  0  0
    4.8740   60.1090   70.8950 O   0  0  0  0  0  0  0  0  0  0  0  0
   -0.7100   55.0390   74.6540 O   0  0  0  0  0  0  0  0  0  0  0  0
   -2.1970   54.0080   80.7310 O   0  0  0  0  0  0  0  0  0  0  0  0
   -1.4410   52.8280   80.4850 C   0  0  0  0  0  0  0  0  0  0  0  0
   -7.2620   60.0530   74.1310 O   0  0  0  0  0  0  0  0  0  0  0  0
   -6.5130   58.5060   77.3770 O   0  0  0  0  0  0  0  0  0  0  0  0
   -6.7360   57.1200   77.6220 C   0  0  0  0  0  0  0  0  0  0  0  0
   -0.0034   59.9021   75.0215 H   0  0  0  0  0  0  0  0  0  0  0  0
    1.2074   56.4468   77.9179 H   0  0  0  0  0  0  0  0  0  0  0  0
    2.4539   58.4402   78.6452 H   0  0  0  0  0  0  0  0  0  0  0  0
    3.3073   56.8345   78.7911 H   0  0  0  0  0  0  0  0  0  0  0  0
    3.8052   59.0194   76.7361 H   0  0  0  0  0  0  0  0  0  0  0  0
    4.9042   58.4445   78.0548 H   0  0  0  0  0  0  0  0  0  0  0  0
    5.4833   57.5677   75.7701 H   0  0  0  0  0  0  0  0  0  0  0  0
    5.1406   56.2952   77.0156 H   0  0  0  0  0  0  0  0  0  0  0  0
    3.2834   57.2579   74.8004 H   0  0  0  0  0  0  0  0  0  0  0  0
    4.0927   55.6458   74.9526 H   0  0  0  0  0  0  0  0  0  0  0  0
   -3.4167   55.7192   77.1868 H   0  0  0  0  0  0  0  0  0  0  0  0
   -4.4536   53.7760   76.1851 H   0  0  0  0  0  0  0  0  0  0  0  0
   -3.4753   54.8168   75.0455 H   0  0  0  0  0  0  0  0  0  0  0  0
   -3.1064   51.9896   75.8688 H   0  0  0  0  0  0  0  0  0  0  0  0
   -2.7414   52.8621   74.3086 H   0  0  0  0  0  0  0  0  0  0  0  0
   -1.0313   52.4976   76.7590 H   0  0  0  0  0  0  0  0  0  0  0  0
    0.2870   51.4258   75.2881 H   0  0  0  0  0  0  0  0  0  0  0  0
   -1.0731   51.5419   74.1205 H   0  0  0  0  0  0  0  0  0  0  0  0
    0.2195   52.7892   74.1205 H   0  0  0  0  0  0  0  0  0  0  0  0
   -3.9145   53.8109   78.6074 H   0  0  0  0  0  0  0  0  0  0  0  0
   -2.2523   53.1420   78.2776 H   0  0  0  0  0  0  0  0  0  0  0  0
   -1.2929   55.2224   79.2714 H   0  0  0  0  0  0  0  0  0  0  0  0
   -1.8861   57.3720   78.9365 H   0  0  0  0  0  0  0  0  0  0  0  0
   -4.0611   58.8910   78.6564 H   0  0  0  0  0  0  0  0  0  0  0  0
   -3.4716   58.7648   81.6660 H   0  0  0  0  0  0  0  0  0  0  0  0
   -4.4275   61.2293   81.1054 H   0  0  0  0  0  0  0  0  0  0  0  0
   -6.4326   59.1490   80.0972 H   0  0  0  0  0  0  0  0  0  0  0  0
   -7.9322   61.0156   80.9190 H   0  0  0  0  0  0  0  0  0  0  0  0
   -8.1876   62.2399   78.6035 H   0  0  0  0  0  0  0  0  0  0  0  0
   -6.7684   61.1981   78.1002 H   0  0  0  0  0  0  0  0  0  0  0  0
   -8.2605   59.2392   78.9506 H   0  0  0  0  0  0  0  0  0  0  0  0
   -7.7020   58.1232   75.8058 H   0  0  0  0  0  0  0  0  0  0  0  0
   -6.5692   60.9305   75.9467 H   0  0  0  0  0  0  0  0  0  0  0  0
   -4.4908   61.4951   75.7234 H   0  0  0  0  0  0  0  0  0  0  0  0
   -2.3924   59.3280   75.1629 H   0  0  0  0  0  0  0  0  0  0  0  0
   -0.4401   61.3112   77.6219 H   0  0  0  0  0  0  0  0  0  0  0  0
   -1.1800   59.6704   77.2899 H   0  0  0  0  0  0  0  0  0  0  0  0
   -1.6866   61.7391   73.7043 H   0  0  0  0  0  0  0  0  0  0  0  0
   -1.8126   60.0477   73.1127 H   0  0  0  0  0  0  0  0  0  0  0  0
   -3.2615   61.1096   73.1127 H   0  0  0  0  0  0  0  0  0  0  0  0
   -4.7655   57.5201   75.3130 H   0  0  0  0  0  0  0  0  0  0  0  0
   -5.7562   57.9650   73.8822 H   0  0  0  0  0  0  0  0  0  0  0  0
   -3.9873   58.2776   73.8822 H   0  0  0  0  0  0  0  0  0  0  0  0
  -10.0930   60.4561   79.9273 H   0  0  0  0  0  0  0  0  0  0  0  0
  -10.3276   61.4264   78.4340 H   0  0  0  0  0  0  0  0  0  0  0  0
  -10.7101   59.6714   78.4340 H   0  0  0  0  0  0  0  0  0  0  0  0
   -6.5862   62.7327   81.7056 H   0  0  0  0  0  0  0  0  0  0  0  0
   -5.6050   62.8012   80.2025 H   0  0  0  0  0  0  0  0  0  0  0  0
   -7.2923   63.4174   80.2025 H   0  0  0  0  0  0  0  0  0  0  0  0
   -4.1248   55.8112   81.8366 H   0  0  0  0  0  0  0  0  0  0  0  0
   -5.1735   56.4751   80.5381 H   0  0  0  0  0  0  0  0  0  0  0  0
   -4.7385   54.7323   80.5381 H   0  0  0  0  0  0  0  0  0  0  0  0
    2.4155   61.0301   76.1281 H   0  0  0  0  0  0  0  0  0  0  0  0
    1.1641   62.5570   77.4377 H   0  0  0  0  0  0  0  0  0  0  0  0
    1.8827   63.4182   76.0347 H   0  0  0  0  0  0  0  0  0  0  0  0
    0.1350   63.0031   76.0347 H   0  0  0  0  0  0  0  0  0  0  0  0
    1.1449   60.5783   73.6753 H   0  0  0  0  0  0  0  0  0  0  0  0
    1.0694   62.4059   73.8701 H   0  0  0  0  0  0  0  0  0  0  0  0
    4.1431   58.3988   72.6651 H   0  0  0  0  0  0  0  0  0  0  0  0
    3.6602   59.8598   74.6977 H   0  0  0  0  0  0  0  0  0  0  0  0
    4.8816   60.5474   73.5123 H   0  0  0  0  0  0  0  0  0  0  0  0
    3.5162   62.3534   74.2760 H   0  0  0  0  0  0  0  0  0  0  0  0
    2.4050   63.0184   72.0986 H   0  0  0  0  0  0  0  0  0  0  0  0
    4.1339   62.4430   71.9713 H   0  0  0  0  0  0  0  0  0  0  0  0
    1.6255   60.8830   71.2464 H   0  0  0  0  0  0  0  0  0  0  0  0
    2.8823   61.5657   70.1263 H   0  0  0  0  0  0  0  0  0  0  0  0
    3.0834   59.1087   70.5271 H   0  0  0  0  0  0  0  0  0  0  0  0
    1.7765   56.7620   73.3814 H   0  0  0  0  0  0  0  0  0  0  0  0
    0.9765   57.4004   71.9052 H   0  0  0  0  0  0  0  0  0  0  0  0
    2.7459   57.0905   71.9052 H   0  0  0  0  0  0  0  0  0  0  0  0
    5.4027   60.2128   71.7255 H   0  0  0  0  0  0  0  0  0  0  0  0
   -0.7774   56.0180   74.7847 H   0  0  0  0  0  0  0  0  0  0  0  0
   -1.1495   52.3729   81.4431 H   0  0  0  0  0  0  0  0  0  0  0  0
   -2.0508   52.1149   79.9109 H   0  0  0  0  0  0  0  0  0  0  0  0
   -0.5383   53.0839   79.9109 H   0  0  0  0  0  0  0  0  0  0  0  0
   -8.2344   60.1593   74.2832 H   0  0  0  0  0  0  0  0  0  0  0  0
   -6.7651   56.9394   78.7067 H   0  0  0  0  0  0  0  0  0  0  0  0
   -7.6943   56.8180   77.1742 H   0  0  0  0  0  0  0  0  0  0  0  0
   -5.9208   56.5327   77.1742 H   0  0  0  0  0  0  0  0  0  0  0  0
  2  1  1  0
  3  2  1  0
  4  3  2  0
  5  3  1  0
  6  5  1  0
  7  6  1  0
  8  7  1  0
  9  8  1  0
 10  9  1  0
 10  5  1  0
 11 10  1  0
 12 11  2  0
 13 11  1  0
 14 13  2  0
 15 13  1  0
 16 15  1  0
 17 16  1  0
 18 17  1  0
 19 18  1  0
 20 19  1  0
 20 15  1  0
 21 20  1  0
 22 17  1  0
 23 22  1  0
 24 23  1  0
 25 24  2  0
 26 25  1  0
 27 26  2  0
 28 27  1  0
 29 28  2  0
 30 29  1  0
 31 30  1  0
 32 31  1  0
 33 32  1  0
 34 33  2  0
 35 33  1  0
 36 35  1  0
 37 36  1  0
 38 37  2  0
 39 38  1  0
 40 39  1  0
 41 40  2  0
 42 40  1  0
 42  1  1  0
 43 39  1  0
 44 37  1  0
 45 32  1  0
 46 30  1  0
 47 24  1  0
 48  1  1  0
 49 48  1  0
 50 48  1  0
 52 51  1  0
 53 52  1  0
 53 50  1  0
 54 53  1  0
 55 54  1  0
 56 51  1  0
 56 55  1  0
 58 57  1  0
 58 51  1  0
 59 56  1  0
 15 60  1  6
 61 23  1  0
 62 61  1  0
 63 36  1  0
 64 35  1  0
 65 64  1  0
  1 66  1  6
  5 67  1  1
  6 68  1  0
  6 69  1  0
  7 70  1  0
  7 71  1  0
  8 72  1  0
  8 73  1  0
  9 74  1  0
  9 75  1  0
 17 76  1  1
 18 77  1  0
 18 78  1  0
 19 79  1  0
 19 80  1  0
 20 81  1  1
 21 82  1  0
 21 83  1  0
 21 84  1  0
 22 85  1  0
 22 86  1  0
 23 87  1  6
 25 88  1  0
 26 89  1  0
 27 90  1  0
 28 91  1  0
 29 92  1  0
 30 93  1  1
 31 94  1  0
 31 95  1  0
 32 96  1  1
 35 97  1  6
 36 98  1  1
 38 99  1  0
 39100  1  6
 42101  1  0
 42102  1  0
 43103  1  0
 43104  1  0
 43105  1  0
 44106  1  0
 44107  1  0
 44108  1  0
 45109  1  0
 45110  1  0
 45111  1  0
 46112  1  0
 46113  1  0
 46114  1  0
 47115  1  0
 47116  1  0
 47117  1  0
 48118  1  1
 49119  1  0
 49120  1  0
 49121  1  0
 50122  1  0
 50123  1  0
 51124  1  6
 52125  1  0
 52126  1  0
 53127  1  1
 54128  1  0
 54129  1  0
 55130  1  0
 55131  1  0
 56132  1  6
 57133  1  0
 57134  1  0
 57135  1  0
 59136  1  0
 60137  1  0
 62138  1  0
 62139  1  0
 62140  1  0
 63141  1  0
 65142  1  0
 65143  1  0
 65144  1  0
M  END
>  <score>  (1) 
-8.042

$$$$
=
     RDKit          3D

144147  0  0  0  0  0  0  0  0999 V2000
    0.3960   60.3620   76.0020 C   0  0  1  0  0  0  0  0  0  0  0  0
    1.1420   59.3580   76.7480 O   0  0  0  0  0  0  0  0  0  0  0  0
    1.0030   58.0590   76.3840 C   0  0  0  0  0  0  0  0  0  0  0  0
    0.2350   57.6570   75.5130 O   0  0  0  0  0  0  0  0  0  0  0  0
    1.9130   57.1180   77.2020 C   0  0  2  0  0  0  0  0  0  0  0  0
    2.9540   57.7940   78.1050 C   0  0  0  0  0  0  0  0  0  0  0  0
    4.1420   58.3600   77.3310 C   0  0  0  0  0  0  0  0  0  0  0  0
    4.7420   57.3180   76.3940 C   0  0  0  0  0  0  0  0  0  0  0  0
    3.6830   56.6940   75.4940 C   0  0  0  0  0  0  0  0  0  0  0  0
    2.5640   56.1710   76.2720 N   0  0  0  0  0  0  0  0  0  0  0  0
    1.9670   54.9800   75.8520 C   0  0  0  0  0  0  0  0  0  0  0  0
    2.3740   54.2810   74.9320 O   0  0  0  0  0  0  0  0  0  0  0  0
    0.7640   54.4960   76.6330 C   0  0  0  0  0  0  0  0  0  0  0  0
    0.9290   54.1370   77.7990 O   0  0  0  0  0  0  0  0  0  0  0  0
   -0.5930   54.5350   75.9010 C   0  0  2  0  0  0  0  0  0  0  0  0
   -1.3970   55.3350   76.7840 O   0  0  0  0  0  0  0  0  0  0  0  0
   -2.7320   54.9160   77.0560 C   0  0  1  0  0  0  0  0  0  0  0  0
   -3.3710   54.1950   75.8760 C   0  0  0  0  0  0  0  0  0  0  0  0
   -2.5730   52.9920   75.3960 C   0  0  0  0  0  0  0  0  0  0  0  0
   -1.0830   53.0740   75.7530 C   0  0  1  0  0  0  0  0  0  0  0  0
   -0.2720   52.2610   74.7370 C   0  0  0  0  0  0  0  0  0  0  0  0
   -2.7820   54.1430   78.3840 C   0  0  0  0  0  0  0  0  0  0  0  0
   -2.2140   54.9530   79.5730 C   0  0  1  0  0  0  0  0  0  0  0  0
   -3.1090   56.1340   79.9390 C   0  0  0  0  0  0  0  0  0  0  0  0
   -2.8140   57.3650   79.4700 C   0  0  0  0  0  0  0  0  0  0  0  0
   -3.6320   58.5460   79.5940 C   0  0  0  0  0  0  0  0  0  0  0  0
   -3.9210   59.1820   80.7390 C   0  0  0  0  0  0  0  0  0  0  0  0
   -4.8240   60.3120   80.7700 C   0  0  0  0  0  0  0  0  0  0  0  0
   -6.1030   60.1960   80.3740 C   0  0  0  0  0  0  0  0  0  0  0  0
   -7.1540   61.2770   80.2380 C   0  0  2  0  0  0  0  0  0  0  0  0
   -7.6790   61.3080   78.7790 C   0  0  0  0  0  0  0  0  0  0  0  0
   -8.6120   60.1300   78.4210 C   0  0  2  0  0  0  0  0  0  0  0  0
   -8.5530   59.8300   76.9180 C   0  0  0  0  0  0  0  0  0  0  0  0
   -9.4210   60.2470   76.1420 O   0  0  0  0  0  0  0  0  0  0  0  0
   -7.3500   59.0430   76.3600 C   0  0  1  0  0  0  0  0  0  0  0  0
   -6.6010   60.0220   75.4130 C   0  0  1  0  0  0  0  0  0  0  0  0
   -5.1470   59.6830   75.1090 C   0  0  0  0  0  0  0  0  0  0  0  0
   -4.1880   60.6100   75.3290 C   0  0  0  0  0  0  0  0  0  0  0  0
   -2.7020   60.4910   75.0760 C   0  0  2  0  0  0  0  0  0  0  0  0
   -1.9520   61.3580   76.0980 C   0  0  0  0  0  0  0  0  0  0  0  0
   -2.2650   62.5330   76.3080 O   0  0  0  0  0  0  0  0  0  0  0  0
   -0.8070   60.7300   76.8690 C   0  0  0  0  0  0  0  0  0  0  0  0
   -2.3680   60.9690   73.6650 C   0  0  0  0  0  0  0  0  0  0  0  0
   -4.8840   58.3260   74.5140 C   0  0  0  0  0  0  0  0  0  0  0  0
  -10.0520   60.4190   78.8530 C   0  0  0  0  0  0  0  0  0  0  0  0
   -6.6680   62.6750   80.6370 C   0  0  0  0  0  0  0  0  0  0  0  0
   -4.3250   55.8070   80.7700 C   0  0  0  0  0  0  0  0  0  0  0  0
    1.4170   61.5020   75.6980 C   0  0  2  0  0  0  0  0  0  0  0  0
    1.0530   62.8450   76.3250 C   0  0  0  0  0  0  0  0  0  0  0  0
    1.5820   61.6170   74.1530 C   0  0  0  0  0  0  0  0  0  0  0  0
    2.7230   61.3170   71.1140 C   0  0  2  0  0  0  0  0  0  0  0  0
    1.8640   60.3420   71.9400 C   0  0  0  0  0  0  0  0  0  0  0  0
    2.1530   60.3560   73.4580 C   0  0  1  0  0  0  0  0  0  0  0  0
    3.6640   60.1820   73.7010 C   0  0  0  0  0  0  0  0  0  0  0  0
    4.5270   61.1550   72.8960 C   0  0  0  0  0  0  0  0  0  0  0  0
    4.2210   61.0960   71.3980 C   0  0  1  0  0  0  0  0  0  0  0  0
    1.2410   63.1160   70.6010 C   0  0  0  0  0  0  0  0  0  0  0  0
    2.3060   62.6530   71.4230 O   0  0  0  0  0  0  0  0  0  0  0  0
    4.6220   59.8260   70.8760 O   0  0  0  0  0  0  0  0  0  0  0  0
   -0.6490   55.1780   74.6480 O   0  0  0  0  0  0  0  0  0  0  0  0
   -2.1120   54.1030   80.7230 O   0  0  0  0  0  0  0  0  0  0  0  0
   -2.2500   52.7250   80.3980 C   0  0  0  0  0  0  0  0  0  0  0  0
   -7.2800   60.0890   74.1510 O   0  0  0  0  0  0  0  0  0  0  0  0
   -6.5030   58.5430   77.3900 O   0  0  0  0  0  0  0  0  0  0  0  0
   -6.6190   57.1320   77.5510 C   0  0  0  0  0  0  0  0  0  0  0  0
   -0.0198   60.0526   75.0317 H   0  0  0  0  0  0  0  0  0  0  0  0
    1.2512   56.6058   77.9159 H   0  0  0  0  0  0  0  0  0  0  0  0
    2.4653   58.6170   78.6471 H   0  0  0  0  0  0  0  0  0  0  0  0
    3.3442   57.0249   78.7879 H   0  0  0  0  0  0  0  0  0  0  0  0
    3.8046   59.2228   76.7379 H   0  0  0  0  0  0  0  0  0  0  0  0
    4.9144   58.6616   78.0538 H   0  0  0  0  0  0  0  0  0  0  0  0
    5.5047   57.8008   75.7654 H   0  0  0  0  0  0  0  0  0  0  0  0
    5.1849   56.5195   77.0074 H   0  0  0  0  0  0  0  0  0  0  0  0
    3.3085   57.4593   74.7982 H   0  0  0  0  0  0  0  0  0  0  0  0
    4.1433   55.8592   74.9451 H   0  0  0  0  0  0  0  0  0  0  0  0
   -3.3644   55.8062   77.1886 H   0  0  0  0  0  0  0  0  0  0  0  0
   -4.3713   53.8513   76.1781 H   0  0  0  0  0  0  0  0  0  0  0  0
   -3.4104   54.9111   75.0419 H   0  0  0  0  0  0  0  0  0  0  0  0
   -2.9938   52.0865   75.8575 H   0  0  0  0  0  0  0  0  0  0  0  0
   -2.6455   52.9682   74.2987 H   0  0  0  0  0  0  0  0  0  0  0  0
   -0.9270   52.6269   76.7459 H   0  0  0  0  0  0  0  0  0  0  0  0
    0.4073   51.5801   75.2708 H   0  0  0  0  0  0  0  0  0  0  0  0
   -0.9566   51.6755   74.1057 H   0  0  0  0  0  0  0  0  0  0  0  0
    0.3151   52.9441   74.1057 H   0  0  0  0  0  0  0  0  0  0  0  0
   -3.8293   53.8870   78.6020 H   0  0  0  0  0  0  0  0  0  0  0  0
   -2.1572   53.2452   78.2674 H   0  0  0  0  0  0  0  0  0  0  0  0
   -1.2289   55.3357   79.2680 H   0  0  0  0  0  0  0  0  0  0  0  0
   -1.8559   57.4782   78.9416 H   0  0  0  0  0  0  0  0  0  0  0  0
   -4.0563   58.9619   78.6682 H   0  0  0  0  0  0  0  0  0  0  0  0
   -3.4607   58.8364   81.6764 H   0  0  0  0  0  0  0  0  0  0  0  0
   -4.4562   61.2860   81.1250 H   0  0  0  0  0  0  0  0  0  0  0  0
   -6.4302   59.1786   80.1136 H   0  0  0  0  0  0  0  0  0  0  0  0
   -7.9572   61.0169   80.9431 H   0  0  0  0  0  0  0  0  0  0  0  0
   -8.2342   62.2460   78.6312 H   0  0  0  0  0  0  0  0  0  0  0  0
   -6.7997   61.2278   78.1230 H   0  0  0  0  0  0  0  0  0  0  0  0
   -8.2618   59.2424   78.9683 H   0  0  0  0  0  0  0  0  0  0  0  0
   -7.6869   58.1463   75.8193 H   0  0  0  0  0  0  0  0  0  0  0  0
   -6.6000   60.9721   75.9673 H   0  0  0  0  0  0  0  0  0  0  0  0
   -4.5311   61.5695   75.7433 H   0  0  0  0  0  0  0  0  0  0  0  0
   -2.3986   59.4385   75.1766 H   0  0  0  0  0  0  0  0  0  0  0  0
   -0.4746   61.4435   77.6374 H   0  0  0  0  0  0  0  0  0  0  0  0
   -1.1887   59.7924   77.2994 H   0  0  0  0  0  0  0  0  0  0  0  0
   -1.7388   61.8695   73.7222 H   0  0  0  0  0  0  0  0  0  0  0  0
   -1.8261   60.1765   73.1281 H   0  0  0  0  0  0  0  0  0  0  0  0
   -3.2985   61.2054   73.1281 H   0  0  0  0  0  0  0  0  0  0  0  0
   -4.7419   57.5928   75.3216 H   0  0  0  0  0  0  0  0  0  0  0  0
   -5.7407   58.0258   73.8927 H   0  0  0  0  0  0  0  0  0  0  0  0
   -3.9772   58.3675   73.8927 H   0  0  0  0  0  0  0  0  0  0  0  0
  -10.1100   60.4306   79.9514 H   0  0  0  0  0  0  0  0  0  0  0  0
  -10.3636   61.3976   78.4590 H   0  0  0  0  0  0  0  0  0  0  0  0
  -10.7171   59.6364   78.4590 H   0  0  0  0  0  0  0  0  0  0  0  0
   -6.6404   62.7544   81.7338 H   0  0  0  0  0  0  0  0  0  0  0  0
   -5.6591   62.8420   80.2318 H   0  0  0  0  0  0  0  0  0  0  0  0
   -7.3558   63.4318   80.2318 H   0  0  0  0  0  0  0  0  0  0  0  0
   -4.0689   55.8759   81.8376 H   0  0  0  0  0  0  0  0  0  0  0  0
   -5.1296   56.5207   80.5392 H   0  0  0  0  0  0  0  0  0  0  0  0
   -4.6631   54.7860   80.5392 H   0  0  0  0  0  0  0  0  0  0  0  0
    2.3741   61.2306   76.1674 H   0  0  0  0  0  0  0  0  0  0  0  0
    1.0770   62.7564   77.4212 H   0  0  0  0  0  0  0  0  0  0  0  0
    1.7767   63.6082   76.0029 H   0  0  0  0  0  0  0  0  0  0  0  0
    0.0430   63.1383   76.0029 H   0  0  0  0  0  0  0  0  0  0  0  0
    0.5932   61.8270   73.7193 H   0  0  0  0  0  0  0  0  0  0  0  0
    2.3145   62.4196   73.9818 H   0  0  0  0  0  0  0  0  0  0  0  0
    2.5811   61.1384   70.0379 H   0  0  0  0  0  0  0  0  0  0  0  0
    0.8065   60.6049   71.7898 H   0  0  0  0  0  0  0  0  0  0  0  0
    2.1124   59.3309   71.5851 H   0  0  0  0  0  0  0  0  0  0  0  0
    1.6303   59.5055   73.9199 H   0  0  0  0  0  0  0  0  0  0  0  0
    3.8653   60.3410   74.7707 H   0  0  0  0  0  0  0  0  0  0  0  0
    3.9298   59.1662   73.3732 H   0  0  0  0  0  0  0  0  0  0  0  0
    4.3383   62.1771   73.2561 H   0  0  0  0  0  0  0  0  0  0  0  0
    5.5797   60.8687   73.0371 H   0  0  0  0  0  0  0  0  0  0  0  0
    4.7837   61.9033   70.9064 H   0  0  0  0  0  0  0  0  0  0  0  0
    0.4170   63.4742   71.2357 H   0  0  0  0  0  0  0  0  0  0  0  0
    1.5994   63.9396   69.9659 H   0  0  0  0  0  0  0  0  0  0  0  0
    0.8832   62.2922   69.9659 H   0  0  0  0  0  0  0  0  0  0  0  0
    4.8171   59.2082   71.6246 H   0  0  0  0  0  0  0  0  0  0  0  0
   -0.7341   56.1552   74.7821 H   0  0  0  0  0  0  0  0  0  0  0  0
   -2.3092   52.1340   81.3239 H   0  0  0  0  0  0  0  0  0  0  0  0
   -3.1674   52.5772   79.8094 H   0  0  0  0  0  0  0  0  0  0  0  0
   -1.3801   52.3982   79.8094 H   0  0  0  0  0  0  0  0  0  0  0  0
   -8.2533   60.1850   74.3046 H   0  0  0  0  0  0  0  0  0  0  0  0
   -6.6392   56.8857   78.6229 H   0  0  0  0  0  0  0  0  0  0  0  0
   -7.5488   56.7841   77.0772 H   0  0  0  0  0  0  0  0  0  0  0  0
   -5.7585   56.6369   77.0772 H   0  0  0  0  0  0  0  0  0  0  0  0
  2  1  1  0
  3  2  1  0
  4  3  2  0
  5  3  1  0
  6  5  1  0
  7  6  1  0
  8  7  1  0
  9  8  1  0
 10  9  1  0
 10  5  1  0
 11 10  1  0
 12 11  2  0
 13 11  1  0
 14 13  2  0
 15 13  1  0
 16 15  1  0
 17 16  1  0
 18 17  1  0
 19 18  1  0
 20 19  1  0
 20 15  1  0
 21 20  1  0
 22 17  1  0
 23 22  1  0
 24 23  1  0
 25 24  2  0
 26 25  1  0
 27 26  2  0
 28 27  1  0
 29 28  2  0
 30 29  1  0
 31 30  1  0
 32 31  1  0
 33 32  1  0
 34 33  2  0
 35 33  1  0
 36 35  1  0
 37 36  1  0
 38 37  2  0
 39 38  1  0
 40 39  1  0
 41 40  2  0
 42 40  1  0
 42  1  1  0
 43 39  1  0
 44 37  1  0
 45 32  1  0
 46 30  1  0
 47 24  1  0
 48  1  1  0
 49 48  1  0
 50 48  1  0
 52 51  1  0
 53 52  1  0
 53 50  1  0
 54 53  1  0
 55 54  1  0
 56 51  1  0
 56 55  1  0
 58 57  1  0
 58 51  1  0
 59 56  1  0
 15 60  1  6
 61 23  1  0
 62 61  1  0
 63 36  1  0
 64 35  1  0
 65 64  1  0
  1 66  1  6
  5 67  1  1
  6 68  1  0
  6 69  1  0
  7 70  1  0
  7 71  1  0
  8 72  1  0
  8 73  1  0
  9 74  1  0
  9 75  1  0
 17 76  1  1
 18 77  1  0
 18 78  1  0
 19 79  1  0
 19 80  1  0
 20 81  1  1
 21 82  1  0
 21 83  1  0
 21 84  1  0
 22 85  1  0
 22 86  1  0
 23 87  1  6
 25 88  1  0
 26 89  1  0
 27 90  1  0
 28 91  1  0
 29 92  1  0
 30 93  1  1
 31 94  1  0
 31 95  1  0
 32 96  1  1
 35 97  1  6
 36 98  1  1
 38 99  1  0
 39100  1  6
 42101  1  0
 42102  1  0
 43103  1  0
 43104  1  0
 43105  1  0
 44106  1  0
 44107  1  0
 44108  1  0
 45109  1  0
 45110  1  0
 45111  1  0
 46112  1  0
 46113  1  0
 46114  1  0
 47115  1  0
 47116  1  0
 47117  1  0
 48118  1  1
 49119  1  0
 49120  1  0
 49121  1  0
 50122  1  0
 50123  1  0
 51124  1  6
 52125  1  0
 52126  1  0
 53127  1  1
 54128  1  0
 54129  1  0
 55130  1  0
 55131  1  0
 56132  1  6
 57133  1  0
 57134  1  0
 57135  1  0
 59136  1  0
 60137  1  0
 62138  1  0
 62139  1  0
 62140  1  0
 63141  1  0
 65142  1  0
 65143  1  0
 65144  1  0
M  END
>  <score>  (2) 
-7.946

$$$$
=
     RDKit          3D

144147  0  0  0  0  0  0  0  0999 V2000
   -5.8090   59.7640   77.4350 C   0  0  1  0  0  0  0  0  0  0  0  0
   -5.3680   60.9390   78.1720 O   0  0  0  0  0  0  0  0  0  0  0  0
   -4.4530   61.7520   77.5890 C   0  0  0  0  0  0  0  0  0  0  0  0
   -3.9100   61.5290   76.5090 O   0  0  0  0  0  0  0  0  0  0  0  0
   -4.1420   62.9990   78.4430 C   0  0  2  0  0  0  0  0  0  0  0  0
   -5.0470   63.2300   79.6620 C   0  0  0  0  0  0  0  0  0  0  0  0
   -6.4300   63.7600   79.2900 C   0  0  0  0  0  0  0  0  0  0  0  0
   -6.3310   64.9740   78.3730 C   0  0  0  0  0  0  0  0  0  0  0  0
   -5.4520   64.6940   77.1610 C   0  0  0  0  0  0  0  0  0  0  0  0
   -4.1430   64.1840   77.5600 N   0  0  0  0  0  0  0  0  0  0  0  0
   -3.0240   64.5940   76.8300 C   0  0  0  0  0  0  0  0  0  0  0  0
   -3.0410   65.4320   75.9370 O   0  0  0  0  0  0  0  0  0  0  0  0
   -1.6890   63.9960   77.2180 C   0  0  0  0  0  0  0  0  0  0  0  0
   -1.2180   64.2800   78.3200 O   0  0  0  0  0  0  0  0  0  0  0  0
   -1.0430   63.0340   76.1990 C   0  0  2  0  0  0  0  0  0  0  0  0
   -0.8520   61.8430   76.9790 O   0  0  0  0  0  0  0  0  0  0  0  0
    0.3810   61.1400   76.8570 C   0  0  1  0  0  0  0  0  0  0  0  0
    0.9830   61.2510   75.4620 C   0  0  0  0  0  0  0  0  0  0  0  0
    1.1950   62.6860   75.0050 C   0  0  0  0  0  0  0  0  0  0  0  0
    0.2740   63.6880   75.7150 C   0  0  1  0  0  0  0  0  0  0  0  0
    0.0510   64.9030   74.8070 C   0  0  0  0  0  0  0  0  0  0  0  0
    1.3310   61.5390   77.9980 C   0  0  0  0  0  0  0  0  0  0  0  0
    0.7140   61.3150   79.3990 C   0  0  1  0  0  0  0  0  0  0  0  0
    0.5500   59.8320   79.7210 C   0  0  0  0  0  0  0  0  0  0  0  0
   -0.6480   59.2370   79.5310 C   0  0  0  0  0  0  0  0  0  0  0  0
   -0.9290   57.8270   79.6390 C   0  0  0  0  0  0  0  0  0  0  0  0
   -0.8800   57.1030   80.7670 C   0  0  0  0  0  0  0  0  0  0  0  0
   -1.0960   55.6720   80.7570 C   0  0  0  0  0  0  0  0  0  0  0  0
   -0.2980   54.8500   80.0540 C   0  0  0  0  0  0  0  0  0  0  0  0
   -0.4290   53.3560   79.8410 C   0  0  2  0  0  0  0  0  0  0  0  0
   -0.5140   53.0550   78.3230 C   0  0  0  0  0  0  0  0  0  0  0  0
    0.8290   53.2080   77.5750 C   0  0  2  0  0  0  0  0  0  0  0  0
    0.5910   53.5610   76.1010 C   0  0  0  0  0  0  0  0  0  0  0  0
    0.6400   52.6990   75.2150 O   0  0  0  0  0  0  0  0  0  0  0  0
    0.2230   55.0120   75.7300 C   0  0  1  0  0  0  0  0  0  0  0  0
   -1.2180   54.9530   75.1530 C   0  0  1  0  0  0  0  0  0  0  0  0
   -1.9980   56.2630   75.1550 C   0  0  0  0  0  0  0  0  0  0  0  0
   -3.2160   56.3100   75.7370 C   0  0  0  0  0  0  0  0  0  0  0  0
   -4.1580   57.4890   75.8290 C   0  0  2  0  0  0  0  0  0  0  0  0
   -4.9790   57.3700   77.1230 C   0  0  0  0  0  0  0  0  0  0  0  0
   -5.5580   56.3250   77.4320 O   0  0  0  0  0  0  0  0  0  0  0  0
   -5.0570   58.5770   78.0370 C   0  0  0  0  0  0  0  0  0  0  0  0
   -5.1030   57.5030   74.6310 C   0  0  0  0  0  0  0  0  0  0  0  0
   -1.3630   57.4220   74.4360 C   0  0  0  0  0  0  0  0  0  0  0  0
    1.6700   51.9340   77.6910 C   0  0  0  0  0  0  0  0  0  0  0  0
   -1.6290   52.7260   80.5560 C   0  0  0  0  0  0  0  0  0  0  0  0
    1.7960   59.1140   80.1770 C   0  0  0  0  0  0  0  0  0  0  0  0
   -7.3630   59.7470   77.5630 C   0  0  2  0  0  0  0  0  0  0  0  0
   -8.0250   58.5170   76.9470 C   0  0  0  0  0  0  0  0  0  0  0  0
   -7.9230   61.0650   76.9490 C   0  0  0  0  0  0  0  0  0  0  0  0
   -9.8170   63.2350   75.4220 C   0  0  2  0  0  0  0  0  0  0  0  0
  -10.0250   61.7240   75.6260 C   0  0  0  0  0  0  0  0  0  0  0  0
   -8.7240   60.8900   75.6350 C   0  0  1  0  0  0  0  0  0  0  0  0
   -7.8870   61.2190   74.3860 C   0  0  0  0  0  0  0  0  0  0  0  0
   -7.6620   62.7180   74.1810 C   0  0  0  0  0  0  0  0  0  0  0  0
   -8.9750   63.5020   74.1600 C   0  0  1  0  0  0  0  0  0  0  0  0
   -9.5760   65.1120   76.8770 C   0  0  0  0  0  0  0  0  0  0  0  0
   -9.2030   63.7660   76.6030 O   0  0  0  0  0  0  0  0  0  0  0  0
   -9.7300   63.1440   73.0000 O   0  0  0  0  0  0  0  0  0  0  0  0
   -1.8110   62.6420   75.0850 O   0  0  0  0  0  0  0  0  0  0  0  0
    1.5710   61.8900   80.3950 O   0  0  0  0  0  0  0  0  0  0  0  0
    2.1520   63.1180   79.9730 C   0  0  0  0  0  0  0  0  0  0  0  0
   -1.1760   54.5020   73.7910 O   0  0  0  0  0  0  0  0  0  0  0  0
    0.3180   55.8980   76.8420 O   0  0  0  0  0  0  0  0  0  0  0  0
    1.5270   56.6500   76.8350 C   0  0  0  0  0  0  0  0  0  0  0  0
   -5.5879   59.7421   76.3577 H   0  0  0  0  0  0  0  0  0  0  0  0
   -3.1529   62.8189   78.8893 H   0  0  0  0  0  0  0  0  0  0  0  0
   -5.1695   62.2745   80.1930 H   0  0  0  0  0  0  0  0  0  0  0  0
   -4.5623   63.9915   80.2905 H   0  0  0  0  0  0  0  0  0  0  0  0
   -6.9908   62.9665   78.7744 H   0  0  0  0  0  0  0  0  0  0  0  0
   -6.9447   64.0640   80.2134 H   0  0  0  0  0  0  0  0  0  0  0  0
   -7.3400   65.2428   78.0272 H   0  0  0  0  0  0  0  0  0  0  0  0
   -5.8771   65.7982   78.9428 H   0  0  0  0  0  0  0  0  0  0  0  0
   -5.9482   63.9473   76.5236 H   0  0  0  0  0  0  0  0  0  0  0  0
   -5.3047   65.6370   76.6142 H   0  0  0  0  0  0  0  0  0  0  0  0
    0.1886   60.0630   76.9716 H   0  0  0  0  0  0  0  0  0  0  0  0
    1.9560   60.7379   75.4609 H   0  0  0  0  0  0  0  0  0  0  0  0
    0.2681   60.7914   74.7637 H   0  0  0  0  0  0  0  0  0  0  0  0
    2.2392   62.9668   75.2070 H   0  0  0  0  0  0  0  0  0  0  0  0
    0.9570   62.7263   73.9318 H   0  0  0  0  0  0  0  0  0  0  0  0
    0.7651   64.0384   76.6348 H   0  0  0  0  0  0  0  0  0  0  0  0
   -0.1132   65.7977   75.4255 H   0  0  0  0  0  0  0  0  0  0  0  0
    0.9365   65.0537   74.1720 H   0  0  0  0  0  0  0  0  0  0  0  0
   -0.8303   64.7294   74.1720 H   0  0  0  0  0  0  0  0  0  0  0  0
    2.2484   60.9374   77.9179 H   0  0  0  0  0  0  0  0  0  0  0  0
    1.5376   62.6146   77.8956 H   0  0  0  0  0  0  0  0  0  0  0  0
   -0.2780   61.7903   79.3992 H   0  0  0  0  0  0  0  0  0  0  0  0
   -1.4915   59.8924   79.2682 H   0  0  0  0  0  0  0  0  0  0  0  0
   -1.2080   57.2987   78.7154 H   0  0  0  0  0  0  0  0  0  0  0  0
   -0.6709   57.6084   81.7214 H   0  0  0  0  0  0  0  0  0  0  0  0
   -1.9298   55.2486   81.3362 H   0  0  0  0  0  0  0  0  0  0  0  0
    0.5663   55.3262   79.5681 H   0  0  0  0  0  0  0  0  0  0  0  0
    0.4685   52.9011   80.2855 H   0  0  0  0  0  0  0  0  0  0  0  0
   -0.8652   52.0205   78.1948 H   0  0  0  0  0  0  0  0  0  0  0  0
   -1.2046   53.7940   77.8906 H   0  0  0  0  0  0  0  0  0  0  0  0
    1.3868   54.0311   78.0455 H   0  0  0  0  0  0  0  0  0  0  0  0
    0.9304   55.4178   74.9918 H   0  0  0  0  0  0  0  0  0  0  0  0
   -1.7432   54.2655   75.8324 H   0  0  0  0  0  0  0  0  0  0  0  0
   -3.5654   55.3759   76.2010 H   0  0  0  0  0  0  0  0  0  0  0  0
   -3.5747   58.4216   75.8335 H   0  0  0  0  0  0  0  0  0  0  0  0
   -5.5686   58.2771   78.9635 H   0  0  0  0  0  0  0  0  0  0  0  0
   -4.0237   58.9106   78.2132 H   0  0  0  0  0  0  0  0  0  0  0  0
   -6.1442   57.5184   74.9855 H   0  0  0  0  0  0  0  0  0  0  0  0
   -4.9097   58.3984   74.0220 H   0  0  0  0  0  0  0  0  0  0  0  0
   -4.9363   56.6023   74.0220 H   0  0  0  0  0  0  0  0  0  0  0  0
   -0.9701   58.1391   75.1718 H   0  0  0  0  0  0  0  0  0  0  0  0
   -0.5396   57.0556   73.8053 H   0  0  0  0  0  0  0  0  0  0  0  0
   -2.1150   57.9187   73.8053 H   0  0  0  0  0  0  0  0  0  0  0  0
    1.8281   51.6945   78.7529 H   0  0  0  0  0  0  0  0  0  0  0  0
    1.1435   51.1013   77.2017 H   0  0  0  0  0  0  0  0  0  0  0  0
    2.6426   52.0909   77.2017 H   0  0  0  0  0  0  0  0  0  0  0  0
   -1.4877   52.8002   81.6444 H   0  0  0  0  0  0  0  0  0  0  0  0
   -2.5479   53.2580   80.2685 H   0  0  0  0  0  0  0  0  0  0  0  0
   -1.7129   51.6676   80.2685 H   0  0  0  0  0  0  0  0  0  0  0  0
    1.8272   59.0960   81.2764 H   0  0  0  0  0  0  0  0  0  0  0  0
    1.7862   58.0830   79.7935 H   0  0  0  0  0  0  0  0  0  0  0  0
    2.6831   59.6394   79.7935 H   0  0  0  0  0  0  0  0  0  0  0  0
   -7.6106   59.6848   78.6330 H   0  0  0  0  0  0  0  0  0  0  0  0
   -8.3823   57.8531   77.7480 H   0  0  0  0  0  0  0  0  0  0  0  0
   -8.8757   58.8315   76.3246 H   0  0  0  0  0  0  0  0  0  0  0  0
   -7.2940   57.9802   76.3246 H   0  0  0  0  0  0  0  0  0  0  0  0
   -8.5857   61.5324   77.6922 H   0  0  0  0  0  0  0  0  0  0  0  0
   -7.0474   61.6801   76.6941 H   0  0  0  0  0  0  0  0  0  0  0  0
  -10.7822   63.7384   75.2641 H   0  0  0  0  0  0  0  0  0  0  0  0
  -10.5345   61.5750   76.5894 H   0  0  0  0  0  0  0  0  0  0  0  0
  -10.6145   61.3720   74.7666 H   0  0  0  0  0  0  0  0  0  0  0  0
   -8.9936   59.8242   75.5968 H   0  0  0  0  0  0  0  0  0  0  0  0
   -6.9067   60.7299   74.4848 H   0  0  0  0  0  0  0  0  0  0  0  0
   -8.4490   60.8535   73.5139 H   0  0  0  0  0  0  0  0  0  0  0  0
   -7.0358   63.0977   75.0018 H   0  0  0  0  0  0  0  0  0  0  0  0
   -7.1711   62.8555   73.2063 H   0  0  0  0  0  0  0  0  0  0  0  0
   -8.7276   64.5735   74.1353 H   0  0  0  0  0  0  0  0  0  0  0  0
   -9.6188   65.2663   77.9653 H   0  0  0  0  0  0  0  0  0  0  0  0
   -8.8332   65.7948   76.4387 H   0  0  0  0  0  0  0  0  0  0  0  0
  -10.5643   65.3151   76.4387 H   0  0  0  0  0  0  0  0  0  0  0  0
  -10.5886   62.7369   73.2778 H   0  0  0  0  0  0  0  0  0  0  0  0
   -2.6483   62.2146   75.3954 H   0  0  0  0  0  0  0  0  0  0  0  0
    2.4333   63.7126   80.8546 H   0  0  0  0  0  0  0  0  0  0  0  0
    3.0478   62.9114   79.3690 H   0  0  0  0  0  0  0  0  0  0  0  0
    1.4241   63.6796   79.3690 H   0  0  0  0  0  0  0  0  0  0  0  0
   -1.0842   53.5164   73.7724 H   0  0  0  0  0  0  0  0  0  0  0  0
    1.8427   56.8463   77.8703 H   0  0  0  0  0  0  0  0  0  0  0  0
    2.3106   56.0797   76.3147 H   0  0  0  0  0  0  0  0  0  0  0  0
    1.3618   57.6050   76.3147 H   0  0  0  0  0  0  0  0  0  0  0  0
  2  1  1  0
  3  2  1  0
  4  3  2  0
  5  3  1  0
  6  5  1  0
  7  6  1  0
  8  7  1  0
  9  8  1  0
 10  9  1  0
 10  5  1  0
 11 10  1  0
 12 11  2  0
 13 11  1  0
 14 13  2  0
 15 13  1  0
 16 15  1  0
 17 16  1  0
 18 17  1  0
 19 18  1  0
 20 19  1  0
 20 15  1  0
 21 20  1  0
 22 17  1  0
 23 22  1  0
 24 23  1  0
 25 24  2  0
 26 25  1  0
 27 26  2  0
 28 27  1  0
 29 28  2  0
 30 29  1  0
 31 30  1  0
 32 31  1  0
 33 32  1  0
 34 33  2  0
 35 33  1  0
 36 35  1  0
 37 36  1  0
 38 37  2  0
 39 38  1  0
 40 39  1  0
 41 40  2  0
 42 40  1  0
 42  1  1  0
 43 39  1  0
 44 37  1  0
 45 32  1  0
 46 30  1  0
 47 24  1  0
 48  1  1  0
 49 48  1  0
 50 48  1  0
 52 51  1  0
 53 52  1  0
 53 50  1  0
 54 53  1  0
 55 54  1  0
 56 51  1  0
 56 55  1  0
 58 57  1  0
 58 51  1  0
 59 56  1  0
 15 60  1  6
 61 23  1  0
 62 61  1  0
 63 36  1  0
 64 35  1  0
 65 64  1  0
  1 66  1  6
  5 67  1  1
  6 68  1  0
  6 69  1  0
  7 70  1  0
  7 71  1  0
  8 72  1  0
  8 73  1  0
  9 74  1  0
  9 75  1  0
 17 76  1  1
 18 77  1  0
 18 78  1  0
 19 79  1  0
 19 80  1  0
 20 81  1  1
 21 82  1  0
 21 83  1  0
 21 84  1  0
 22 85  1  0
 22 86  1  0
 23 87  1  6
 25 88  1  0
 26 89  1  0
 27 90  1  0
 28 91  1  0
 29 92  1  0
 30 93  1  1
 31 94  1  0
 31 95  1  0
 32 96  1  1
 35 97  1  6
 36 98  1  1
 38 99  1  0
 39100  1  1
 42101  1  0
 42102  1  0
 43103  1  0
 43104  1  0
 43105  1  0
 44106  1  0
 44107  1  0
 44108  1  0
 45109  1  0
 45110  1  0
 45111  1  0
 46112  1  0
 46113  1  0
 46114  1  0
 47115  1  0
 47116  1  0
 47117  1  0
 48118  1  1
 49119  1  0
 49120  1  0
 49121  1  0
 50122  1  0
 50123  1  0
 51124  1  6
 52125  1  0
 52126  1  0
 53127  1  6
 54128  1  0
 54129  1  0
 55130  1  0
 55131  1  0
 56132  1  6
 57133  1  0
 57134  1  0
 57135  1  0
 59136  1  0
 60137  1  0
 62138  1  0
 62139  1  0
 62140  1  0
 63141  1  0
 65142  1  0
 65143  1  0
 65144  1  0
M  END
>  <score>  (3) 
-6.651

$$$$
=
     RDKit          3D

144147  0  0  0  0  0  0  0  0999 V2000
    1.7620   59.3920   73.4300 C   0  0  1  0  0  0  0  0  0  0  0  0
    0.7640   60.4110   73.1410 O   0  0  0  0  0  0  0  0  0  0  0  0
    0.5090   61.3420   74.0930 C   0  0  0  0  0  0  0  0  0  0  0  0
    1.0080   61.3470   75.2160 O   0  0  0  0  0  0  0  0  0  0  0  0
   -0.5050   62.4060   73.6210 C   0  0  2  0  0  0  0  0  0  0  0  0
   -0.8780   62.3750   72.1320 C   0  0  0  0  0  0  0  0  0  0  0  0
    0.2160   62.9360   71.2270 C   0  0  0  0  0  0  0  0  0  0  0  0
    0.6820   64.3070   71.7040 C   0  0  0  0  0  0  0  0  0  0  0  0
    1.0730   64.2880   73.1760 C   0  0  0  0  0  0  0  0  0  0  0  0
    0.0030   63.7400   74.0040 N   0  0  0  0  0  0  0  0  0  0  0  0
   -0.2170   64.3100   75.2610 C   0  0  0  0  0  0  0  0  0  0  0  0
    0.3560   65.3050   75.6870 O   0  0  0  0  0  0  0  0  0  0  0  0
   -1.2840   63.6780   76.1280 C   0  0  0  0  0  0  0  0  0  0  0  0
   -2.4570   63.7530   75.7620 O   0  0  0  0  0  0  0  0  0  0  0  0
   -0.7970   62.9480   77.3970 C   0  0  2  0  0  0  0  0  0  0  0  0
   -1.3470   61.6320   77.2260 O   0  0  0  0  0  0  0  0  0  0  0  0
   -1.9500   60.9940   78.3490 C   0  0  1  0  0  0  0  0  0  0  0  0
   -1.2950   61.3880   79.6670 C   0  0  0  0  0  0  0  0  0  0  0  0
   -1.2790   62.8890   79.9110 C   0  0  0  0  0  0  0  0  0  0  0  0
   -1.3620   63.7130   78.6190 C   0  0  1  0  0  0  0  0  0  0  0  0
   -0.6980   65.0760   78.8430 C   0  0  0  0  0  0  0  0  0  0  0  0
   -3.4750   61.1850   78.3080 C   0  0  0  0  0  0  0  0  0  0  0  0
   -4.1090   60.6780   76.9910 C   0  0  1  0  0  0  0  0  0  0  0  0
   -4.0460   59.1580   76.8750 C   0  0  0  0  0  0  0  0  0  0  0  0
   -3.0560   58.5850   76.1580 C   0  0  0  0  0  0  0  0  0  0  0  0
   -2.7660   57.1740   76.0750 C   0  0  0  0  0  0  0  0  0  0  0  0
   -3.5520   56.2450   75.5100 C   0  0  0  0  0  0  0  0  0  0  0  0
   -3.2120   54.8390   75.5530 C   0  0  0  0  0  0  0  0  0  0  0  0
   -3.0810   54.1880   76.7220 C   0  0  0  0  0  0  0  0  0  0  0  0
   -2.6340   52.7620   76.9660 C   0  0  2  0  0  0  0  0  0  0  0  0
   -1.3900   52.7610   77.8920 C   0  0  0  0  0  0  0  0  0  0  0  0
   -1.7050   53.0870   79.3680 C   0  0  2  0  0  0  0  0  0  0  0  0
   -0.4860   53.7140   80.0570 C   0  0  0  0  0  0  0  0  0  0  0  0
    0.2700   53.0430   80.7700 O   0  0  0  0  0  0  0  0  0  0  0  0
   -0.1660   55.2010   79.8000 C   0  0  1  0  0  0  0  0  0  0  0  0
    1.2010   55.2230   79.0620 C   0  0  1  0  0  0  0  0  0  0  0  0
    1.5210   56.4890   78.2770 C   0  0  0  0  0  0  0  0  0  0  0  0
    1.8540   56.3940   76.9710 C   0  0  0  0  0  0  0  0  0  0  0  0
    2.2280   57.5110   76.0230 C   0  0  2  0  0  0  0  0  0  0  0  0
    1.7920   57.1240   74.6020 C   0  0  0  0  0  0  0  0  0  0  0  0
    2.0700   56.0260   74.1120 O   0  0  0  0  0  0  0  0  0  0  0  0
    0.9870   58.1280   73.7990 C   0  0  0  0  0  0  0  0  0  0  0  0
    3.7380   57.7380   76.0440 C   0  0  0  0  0  0  0  0  0  0  0  0
    1.5010   57.7810   79.0490 C   0  0  0  0  0  0  0  0  0  0  0  0
   -2.1580   51.8340   80.1230 C   0  0  0  0  0  0  0  0  0  0  0  0
   -2.3210   51.9780   75.6870 C   0  0  0  0  0  0  0  0  0  0  0  0
   -5.0910   58.3930   77.6480 C   0  0  0  0  0  0  0  0  0  0  0  0
    2.6630   59.3160   72.1580 C   0  0  2  0  0  0  0  0  0  0  0  0
    2.3290   58.1520   71.2290 C   0  0  0  0  0  0  0  0  0  0  0  0
    4.1540   59.2770   72.6110 C   0  0  0  0  0  0  0  0  0  0  0  0
    5.4090   61.3120   70.3960 C   0  0  2  0  0  0  0  0  0  0  0  0
    5.9190   60.9610   71.8050 C   0  0  0  0  0  0  0  0  0  0  0  0
    4.8080   60.6620   72.8360 C   0  0  1  0  0  0  0  0  0  0  0  0
    3.7780   61.8070   72.8370 C   0  0  0  0  0  0  0  0  0  0  0  0
    3.2530   62.1560   71.4430 C   0  0  0  0  0  0  0  0  0  0  0  0
    4.3850   62.4620   70.4600 C   0  0  1  0  0  0  0  0  0  0  0  0
    3.8990   60.3940   68.7920 C   0  0  0  0  0  0  0  0  0  0  0  0
    4.8550   60.1270   69.8110 O   0  0  0  0  0  0  0  0  0  0  0  0
    5.0470   63.6680   70.8490 O   0  0  0  0  0  0  0  0  0  0  0  0
    0.5900   62.7630   77.5600 O   0  0  0  0  0  0  0  0  0  0  0  0
   -5.4880   61.0670   76.9460 O   0  0  0  0  0  0  0  0  0  0  0  0
   -5.8930   61.4950   75.6500 C   0  0  0  0  0  0  0  0  0  0  0  0
    2.2650   55.0470   80.0100 O   0  0  0  0  0  0  0  0  0  0  0  0
   -1.1880   55.8550   79.0520 O   0  0  0  0  0  0  0  0  0  0  0  0
   -1.9600   56.7460   79.8520 C   0  0  0  0  0  0  0  0  0  0  0  0
    2.4372   59.5848   74.2768 H   0  0  0  0  0  0  0  0  0  0  0  0
   -1.4515   62.1647   74.1269 H   0  0  0  0  0  0  0  0  0  0  0  0
   -1.0714   61.3318   71.8415 H   0  0  0  0  0  0  0  0  0  0  0  0
   -1.7666   63.0107   72.0039 H   0  0  0  0  0  0  0  0  0  0  0  0
    1.0724   62.2456   71.2301 H   0  0  0  0  0  0  0  0  0  0  0  0
   -0.1946   63.0431   70.2121 H   0  0  0  0  0  0  0  0  0  0  0  0
    1.5535   64.6148   71.1075 H   0  0  0  0  0  0  0  0  0  0  0  0
   -0.1507   65.0149   71.5793 H   0  0  0  0  0  0  0  0  0  0  0  0
    1.9737   63.6687   73.2991 H   0  0  0  0  0  0  0  0  0  0  0  0
    1.2639   65.3227   73.4970 H   0  0  0  0  0  0  0  0  0  0  0  0
   -1.7688   59.9110   78.2831 H   0  0  0  0  0  0  0  0  0  0  0  0
   -1.8476   60.9076   80.4879 H   0  0  0  0  0  0  0  0  0  0  0  0
   -0.2472   61.0565   79.6197 H   0  0  0  0  0  0  0  0  0  0  0  0
   -2.1380   63.1489   80.5471 H   0  0  0  0  0  0  0  0  0  0  0  0
   -0.3199   63.1315   80.3920 H   0  0  0  0  0  0  0  0  0  0  0  0
   -2.4195   63.8887   78.3722 H   0  0  0  0  0  0  0  0  0  0  0  0
   -0.6055   65.2658   79.9225 H   0  0  0  0  0  0  0  0  0  0  0  0
    0.3015   65.0769   78.3836 H   0  0  0  0  0  0  0  0  0  0  0  0
   -1.3134   65.8636   78.3836 H   0  0  0  0  0  0  0  0  0  0  0  0
   -3.9209   60.6322   79.1480 H   0  0  0  0  0  0  0  0  0  0  0  0
   -3.6749   62.2645   78.3770 H   0  0  0  0  0  0  0  0  0  0  0  0
   -3.5390   61.1211   76.1611 H   0  0  0  0  0  0  0  0  0  0  0  0
   -2.4070   59.2598   75.5806 H   0  0  0  0  0  0  0  0  0  0  0  0
   -1.8176   56.8299   76.5133 H   0  0  0  0  0  0  0  0  0  0  0  0
   -4.4760   56.5592   75.0025 H   0  0  0  0  0  0  0  0  0  0  0  0
   -3.0578   54.2923   74.6110 H   0  0  0  0  0  0  0  0  0  0  0  0
   -3.3322   54.7691   77.6216 H   0  0  0  0  0  0  0  0  0  0  0  0
   -3.4829   52.2493   77.4418 H   0  0  0  0  0  0  0  0  0  0  0  0
   -0.9278   51.7637   77.8491 H   0  0  0  0  0  0  0  0  0  0  0  0
   -0.7210   53.5542   77.5268 H   0  0  0  0  0  0  0  0  0  0  0  0
   -2.5294   53.8151   79.3842 H   0  0  0  0  0  0  0  0  0  0  0  0
   -0.1153   55.7589   80.7467 H   0  0  0  0  0  0  0  0  0  0  0  0
    1.1171   54.4050   78.3314 H   0  0  0  0  0  0  0  0  0  0  0  0
    1.8529   55.3797   76.5452 H   0  0  0  0  0  0  0  0  0  0  0  0
    1.7245   58.4376   76.3360 H   0  0  0  0  0  0  0  0  0  0  0  0
    0.6554   57.6417   72.8697 H   0  0  0  0  0  0  0  0  0  0  0  0
    0.1465   58.4438   74.4345 H   0  0  0  0  0  0  0  0  0  0  0  0
    4.0865   57.7904   77.0860 H   0  0  0  0  0  0  0  0  0  0  0  0
    4.2411   56.9054   75.5305 H   0  0  0  0  0  0  0  0  0  0  0  0
    3.9741   58.6817   75.5305 H   0  0  0  0  0  0  0  0  0  0  0  0
    1.5044   57.5639   80.1274 H   0  0  0  0  0  0  0  0  0  0  0  0
    2.3900   58.3756   78.7919 H   0  0  0  0  0  0  0  0  0  0  0  0
    0.5940   58.3478   78.7919 H   0  0  0  0  0  0  0  0  0  0  0  0
   -2.0926   52.0148   81.2061 H   0  0  0  0  0  0  0  0  0  0  0  0
   -3.1980   51.5989   79.8526 H   0  0  0  0  0  0  0  0  0  0  0  0
   -1.5087   50.9882   79.8526 H   0  0  0  0  0  0  0  0  0  0  0  0
   -1.9252   50.9866   75.9523 H   0  0  0  0  0  0  0  0  0  0  0  0
   -3.2407   51.8593   75.0953 H   0  0  0  0  0  0  0  0  0  0  0  0
   -1.5724   52.5254   75.0953 H   0  0  0  0  0  0  0  0  0  0  0  0
   -4.9162   58.5210   78.7264 H   0  0  0  0  0  0  0  0  0  0  0  0
   -6.0900   58.7747   77.3907 H   0  0  0  0  0  0  0  0  0  0  0  0
   -5.0290   57.3253   77.3907 H   0  0  0  0  0  0  0  0  0  0  0  0
    2.4681   60.2143   71.5538 H   0  0  0  0  0  0  0  0  0  0  0  0
    2.0747   57.2656   71.8287 H   0  0  0  0  0  0  0  0  0  0  0  0
    1.4725   58.4235   70.5944 H   0  0  0  0  0  0  0  0  0  0  0  0
    3.1991   57.9280   70.5944 H   0  0  0  0  0  0  0  0  0  0  0  0
    4.2086   58.7167   73.5561 H   0  0  0  0  0  0  0  0  0  0  0  0
    4.7118   58.8045   71.7890 H   0  0  0  0  0  0  0  0  0  0  0  0
    6.2368   61.6673   69.7647 H   0  0  0  0  0  0  0  0  0  0  0  0
    6.5614   60.0717   71.7255 H   0  0  0  0  0  0  0  0  0  0  0  0
    6.4542   61.8489   72.1726 H   0  0  0  0  0  0  0  0  0  0  0  0
    5.2657   60.6099   73.8349 H   0  0  0  0  0  0  0  0  0  0  0  0
    2.9260   61.5084   73.4654 H   0  0  0  0  0  0  0  0  0  0  0  0
    4.2883   62.7013   73.2241 H   0  0  0  0  0  0  0  0  0  0  0  0
    2.6714   61.3046   71.0599 H   0  0  0  0  0  0  0  0  0  0  0  0
    2.6298   63.0580   71.5324 H   0  0  0  0  0  0  0  0  0  0  0  0
    3.9411   62.5795   69.4604 H   0  0  0  0  0  0  0  0  0  0  0  0
    2.9371   60.6627   69.2530 H   0  0  0  0  0  0  0  0  0  0  0  0
    4.2519   61.2279   68.1675 H   0  0  0  0  0  0  0  0  0  0  0  0
    3.7687   59.4979   68.1675 H   0  0  0  0  0  0  0  0  0  0  0  0
    5.0776   63.7237   71.8370 H   0  0  0  0  0  0  0  0  0  0  0  0
    0.8079   62.7339   78.5253 H   0  0  0  0  0  0  0  0  0  0  0  0
   -6.6462   62.2910   75.7455 H   0  0  0  0  0  0  0  0  0  0  0  0
   -5.0205   61.8797   75.1016 H   0  0  0  0  0  0  0  0  0  0  0  0
   -6.3252   60.6450   75.1016 H   0  0  0  0  0  0  0  0  0  0  0  0
    1.9016   55.1071   80.9289 H   0  0  0  0  0  0  0  0  0  0  0  0
   -1.7773   56.5352   80.9160 H   0  0  0  0  0  0  0  0  0  0  0  0
   -1.6706   57.7835   79.6288 H   0  0  0  0  0  0  0  0  0  0  0  0
   -3.0281   56.6072   79.6288 H   0  0  0  0  0  0  0  0  0  0  0  0
  2  1  1  0
  3  2  1  0
  4  3  2  0
  5  3  1  0
  6  5  1  0
  7  6  1  0
  8  7  1  0
  9  8  1  0
 10  9  1  0
 10  5  1  0
 11 10  1  0
 12 11  2  0
 13 11  1  0
 14 13  2  0
 15 13  1  0
 16 15  1  0
 17 16  1  0
 18 17  1  0
 19 18  1  0
 20 19  1  0
 20 15  1  0
 21 20  1  0
 22 17  1  0
 23 22  1  0
 24 23  1  0
 25 24  2  0
 26 25  1  0
 27 26  2  0
 28 27  1  0
 29 28  2  0
 30 29  1  0
 31 30  1  0
 32 31  1  0
 33 32  1  0
 34 33  2  0
 35 33  1  0
 36 35  1  0
 37 36  1  0
 38 37  2  0
 39 38  1  0
 40 39  1  0
 41 40  2  0
 42 40  1  0
 42  1  1  0
 43 39  1  0
 44 37  1  0
 45 32  1  0
 46 30  1  0
 47 24  1  0
 48  1  1  0
 49 48  1  0
 50 48  1  0
 52 51  1  0
 53 52  1  0
 53 50  1  0
 54 53  1  0
 55 54  1  0
 56 51  1  0
 56 55  1  0
 58 57  1  0
 58 51  1  0
 59 56  1  0
 15 60  1  1
 61 23  1  0
 62 61  1  0
 63 36  1  0
 64 35  1  0
 65 64  1  0
  1 66  1  1
  5 67  1  1
  6 68  1  0
  6 69  1  0
  7 70  1  0
  7 71  1  0
  8 72  1  0
  8 73  1  0
  9 74  1  0
  9 75  1  0
 17 76  1  6
 18 77  1  0
 18 78  1  0
 19 79  1  0
 19 80  1  0
 20 81  1  6
 21 82  1  0
 21 83  1  0
 21 84  1  0
 22 85  1  0
 22 86  1  0
 23 87  1  6
 25 88  1  0
 26 89  1  0
 27 90  1  0
 28 91  1  0
 29 92  1  0
 30 93  1  1
 31 94  1  0
 31 95  1  0
 32 96  1  6
 35 97  1  1
 36 98  1  6
 38 99  1  0
 39100  1  1
 42101  1  0
 42102  1  0
 43103  1  0
 43104  1  0
 43105  1  0
 44106  1  0
 44107  1  0
 44108  1  0
 45109  1  0
 45110  1  0
 45111  1  0
 46112  1  0
 46113  1  0
 46114  1  0
 47115  1  0
 47116  1  0
 47117  1  0
 48118  1  6
 49119  1  0
 49120  1  0
 49121  1  0
 50122  1  0
 50123  1  0
 51124  1  6
 52125  1  0
 52126  1  0
 53127  1  1
 54128  1  0
 54129  1  0
 55130  1  0
 55131  1  0
 56132  1  6
 57133  1  0
 57134  1  0
 57135  1  0
 59136  1  0
 60137  1  0
 62138  1  0
 62139  1  0
 62140  1  0
 63141  1  0
 65142  1  0
 65143  1  0
 65144  1  0
M  END
>  <score>  (4) 
-5.792

$$$$
