=
     RDKit          3D

 42 44  0  0  0  0  0  0  0  0999 V2000
    2.1910   69.0980   67.6940 C   0  0  0  0  0  0  0  0  0  0  0  0
    1.9120   70.2430   68.0310 O   0  0  0  0  0  0  0  0  0  0  0  0
    1.4010   67.8400   68.1050 C   0  0  2  0  0  0  0  0  0  0  0  0
   -0.0210   67.8990   67.5800 C   0  0  0  0  0  0  0  0  0  0  0  0
   -0.3990   68.8610   66.6260 C   0  0  0  0  0  0  0  0  0  0  0  0
   -1.7100   68.9090   66.1500 C   0  0  0  0  0  0  0  0  0  0  0  0
   -2.6560   68.0000   66.6160 C   0  0  0  0  0  0  0  0  0  0  0  0
   -2.2930   67.0410   67.5600 C   0  0  0  0  0  0  0  0  0  0  0  0
   -0.9840   66.9900   68.0410 C   0  0  0  0  0  0  0  0  0  0  0  0
    1.4000   67.5900   69.5100 O   0  0  0  0  0  0  0  0  0  0  0  0
    3.2700   68.7840   66.9110 O   0  0  0  0  0  0  0  0  0  0  0  0
    3.0690   68.8940   65.4930 C   0  0  2  0  0  0  0  0  0  0  0  0
    2.6510   67.5400   64.9010 C   0  0  0  0  0  0  0  0  0  0  0  0
    3.0090   67.3630   63.4200 C   0  0  2  0  0  0  0  0  0  0  0  0
    4.3860   66.7190   63.2470 C   0  0  0  0  0  0  0  0  0  0  0  0
    5.3790   67.8780   63.2140 C   0  0  0  0  0  0  0  0  0  0  0  0
    4.5350   69.1440   63.3900 C   0  0  2  0  0  0  0  0  0  0  0  0
    4.3420   69.4840   64.8730 C   0  0  0  0  0  0  0  0  0  0  0  0
    3.1940   68.7400   62.8100 N   0  0  1  0  0  4  0  0  0  0  0  0
    3.1220   68.7720   61.3070 C   0  0  0  0  0  0  0  0  0  0  0  0
    1.9305   66.9940   67.6424 H   0  0  0  0  0  0  0  0  0  0  0  0
    0.3442   69.5808   66.2524 H   0  0  0  0  0  0  0  0  0  0  0  0
   -1.9964   69.6663   65.4054 H   0  0  0  0  0  0  0  0  0  0  0  0
   -3.6889   68.0386   66.2395 H   0  0  0  0  0  0  0  0  0  0  0  0
   -3.0405   66.3222   67.9270 H   0  0  0  0  0  0  0  0  0  0  0  0
   -0.7056   66.2312   68.7872 H   0  0  0  0  0  0  0  0  0  0  0  0
    1.4034   68.4511   69.9984 H   0  0  0  0  0  0  0  0  0  0  0  0
    2.2390   69.5765   65.2580 H   0  0  0  0  0  0  0  0  0  0  0  0
    3.1499   66.7444   65.4738 H   0  0  0  0  0  0  0  0  0  0  0  0
    1.5542   67.4908   64.9688 H   0  0  0  0  0  0  0  0  0  0  0  0
    2.2129   66.7553   62.9652 H   0  0  0  0  0  0  0  0  0  0  0  0
    4.6055   66.0490   64.0913 H   0  0  0  0  0  0  0  0  0  0  0  0
    4.4392   66.1108   62.3320 H   0  0  0  0  0  0  0  0  0  0  0  0
    6.1070   67.7841   64.0333 H   0  0  0  0  0  0  0  0  0  0  0  0
    5.9534   67.8972   62.2761 H   0  0  0  0  0  0  0  0  0  0  0  0
    4.9982   70.0224   62.9168 H   0  0  0  0  0  0  0  0  0  0  0  0
    5.2081   69.0984   65.4309 H   0  0  0  0  0  0  0  0  0  0  0  0
    4.2468   70.5780   64.9366 H   0  0  0  0  0  0  0  0  0  0  0  0
    2.4349   69.3980   63.0372 H   0  0  0  0  0  0  0  0  0  0  0  0
    2.1581   69.2004   60.9951 H   0  0  0  0  0  0  0  0  0  0  0  0
    3.9424   69.3902   60.9137 H   0  0  0  0  0  0  0  0  0  0  0  0
    3.2129   67.7487   60.9137 H   0  0  0  0  0  0  0  0  0  0  0  0
  2  1  2  0
  3  1  1  0
  4  3  1  0
  5  4  2  0
  6  5  1  0
  7  6  2  0
  8  7  1  0
  9  8  2  0
  9  4  1  0
 10  3  1  0
 11  1  1  0
 12 11  1  0
 13 12  1  0
 14 13  1  0
 15 14  1  0
 16 15  1  0
 17 16  1  0
 18 17  1  0
 18 12  1  0
 19 17  1  0
 19 14  1  0
 20 19  1  0
  3 21  1  6
  5 22  1  0
  6 23  1  0
  7 24  1  0
  8 25  1  0
  9 26  1  0
 10 27  1  0
 12 28  1  1
 13 29  1  0
 13 30  1  0
 14 31  1  6
 15 32  1  0
 15 33  1  0
 16 34  1  0
 16 35  1  0
 17 36  1  6
 18 37  1  0
 18 38  1  0
 19 39  1  1
 20 40  1  0
 20 41  1  0
 20 42  1  0
M  CHG  1  19   1
M  END
>  <score>  (1) 
-8.327

$$$$
=
     RDKit          3D

 42 44  0  0  0  0  0  0  0  0999 V2000
   -0.4980   68.5590   64.8570 C   0  0  0  0  0  0  0  0  0  0  0  0
   -1.2870   68.7210   63.9320 O   0  0  0  0  0  0  0  0  0  0  0  0
   -0.5980   69.2440   66.2330 C   0  0  2  0  0  0  0  0  0  0  0  0
   -0.2490   68.2750   67.3470 C   0  0  0  0  0  0  0  0  0  0  0  0
   -1.1370   67.2500   67.7150 C   0  0  0  0  0  0  0  0  0  0  0  0
   -0.8080   66.3640   68.7430 C   0  0  0  0  0  0  0  0  0  0  0  0
    0.4080   66.4890   69.4100 C   0  0  0  0  0  0  0  0  0  0  0  0
    1.2970   67.5000   69.0520 C   0  0  0  0  0  0  0  0  0  0  0  0
    0.9720   68.3900   68.0270 C   0  0  0  0  0  0  0  0  0  0  0  0
   -1.8640   69.8540   66.4860 O   0  0  0  0  0  0  0  0  0  0  0  0
    0.6020   67.7460   64.7750 O   0  0  0  0  0  0  0  0  0  0  0  0
    1.8280   68.3880   64.3880 C   0  0  2  0  0  0  0  0  0  0  0  0
    2.0010   68.3460   62.8620 C   0  0  0  0  0  0  0  0  0  0  0  0
    3.4590   68.4060   62.3920 C   0  0  2  0  0  0  0  0  0  0  0  0
    4.0590   67.0070   62.2380 C   0  0  0  0  0  0  0  0  0  0  0  0
    4.6500   66.6610   63.6020 C   0  0  0  0  0  0  0  0  0  0  0  0
    4.3490   67.8680   64.4950 C   0  0  2  0  0  0  0  0  0  0  0  0
    2.9760   67.7360   65.1680 C   0  0  0  0  0  0  0  0  0  0  0  0
    4.2910   69.0160   63.5050 N   0  0  1  0  0  4  0  0  0  0  0  0
    5.6330   69.5390   63.0690 C   0  0  0  0  0  0  0  0  0  0  0  0
    0.1385   70.0608   66.2104 H   0  0  0  0  0  0  0  0  0  0  0  0
   -2.0978   67.1448   67.1898 H   0  0  0  0  0  0  0  0  0  0  0  0
   -1.5104   65.5662   69.0263 H   0  0  0  0  0  0  0  0  0  0  0  0
    0.6664   65.7899   70.2190 H   0  0  0  0  0  0  0  0  0  0  0  0
    2.2579   67.5972   69.5786 H   0  0  0  0  0  0  0  0  0  0  0  0
    1.6783   69.1868   67.7508 H   0  0  0  0  0  0  0  0  0  0  0  0
   -2.0076   69.9232   67.4631 H   0  0  0  0  0  0  0  0  0  0  0  0
    1.8184   69.4577   64.6441 H   0  0  0  0  0  0  0  0  0  0  0  0
    1.5571   67.4107   62.4903 H   0  0  0  0  0  0  0  0  0  0  0  0
    1.5036   69.2424   62.4631 H   0  0  0  0  0  0  0  0  0  0  0  0
    3.4698   68.9630   61.4435 H   0  0  0  0  0  0  0  0  0  0  0  0
    3.2783   66.2826   61.9629 H   0  0  0  0  0  0  0  0  0  0  0  0
    4.8206   66.9760   61.4449 H   0  0  0  0  0  0  0  0  0  0  0  0
    4.1765   65.7548   64.0077 H   0  0  0  0  0  0  0  0  0  0  0  0
    5.7293   66.4577   63.5400 H   0  0  0  0  0  0  0  0  0  0  0  0
    5.0910   67.9864   65.2984 H   0  0  0  0  0  0  0  0  0  0  0  0
    2.7501   66.6657   65.2838 H   0  0  0  0  0  0  0  0  0  0  0  0
    3.0439   68.2640   66.1306 H   0  0  0  0  0  0  0  0  0  0  0  0
    3.8856   69.8773   63.8984 H   0  0  0  0  0  0  0  0  0  0  0  0
    6.2399   69.7755   63.9554 H   0  0  0  0  0  0  0  0  0  0  0  0
    6.1461   68.7750   62.4665 H   0  0  0  0  0  0  0  0  0  0  0  0
    5.4939   70.4487   62.4665 H   0  0  0  0  0  0  0  0  0  0  0  0
  2  1  2  0
  3  1  1  0
  4  3  1  0
  5  4  2  0
  6  5  1  0
  7  6  2  0
  8  7  1  0
  9  8  2  0
  9  4  1  0
 10  3  1  0
 11  1  1  0
 12 11  1  0
 13 12  1  0
 14 13  1  0
 15 14  1  0
 16 15  1  0
 17 16  1  0
 18 17  1  0
 18 12  1  0
 19 17  1  0
 19 14  1  0
 20 19  1  0
  3 21  1  6
  5 22  1  0
  6 23  1  0
  7 24  1  0
  8 25  1  0
  9 26  1  0
 10 27  1  0
 12 28  1  1
 13 29  1  0
 13 30  1  0
 14 31  1  6
 15 32  1  0
 15 33  1  0
 16 34  1  0
 16 35  1  0
 17 36  1  1
 18 37  1  0
 18 38  1  0
 19 39  1  1
 20 40  1  0
 20 41  1  0
 20 42  1  0
M  CHG  1  19   1
M  END
>  <score>  (2) 
-8.315

$$$$
=
     RDKit          3D

 42 44  0  0  0  0  0  0  0  0999 V2000
    3.4510   67.5970   64.3920 C   0  0  0  0  0  0  0  0  0  0  0  0
    3.4970   66.3960   64.6340 O   0  0  0  0  0  0  0  0  0  0  0  0
    4.6710   68.5380   64.3590 C   0  0  2  0  0  0  0  0  0  0  0  0
    4.8510   69.2380   65.6920 C   0  0  0  0  0  0  0  0  0  0  0  0
    3.7570   69.4510   66.5480 C   0  0  0  0  0  0  0  0  0  0  0  0
    3.9310   70.0980   67.7730 C   0  0  0  0  0  0  0  0  0  0  0  0
    5.1960   70.5350   68.1570 C   0  0  0  0  0  0  0  0  0  0  0  0
    6.2890   70.3280   67.3190 C   0  0  0  0  0  0  0  0  0  0  0  0
    6.1190   69.6830   66.0920 C   0  0  0  0  0  0  0  0  0  0  0  0
    4.6370   69.4930   63.2990 O   0  0  0  0  0  0  0  0  0  0  0  0
    2.2860   68.2700   64.1330 O   0  0  0  0  0  0  0  0  0  0  0  0
    1.1170   67.7810   64.8090 C   0  0  2  0  0  0  0  0  0  0  0  0
   -0.0460   68.7730   64.6610 C   0  0  0  0  0  0  0  0  0  0  0  0
   -1.0810   68.7030   65.7910 C   0  0  2  0  0  0  0  0  0  0  0  0
   -0.7410   69.6730   66.9250 C   0  0  0  0  0  0  0  0  0  0  0  0
    0.1590   68.8910   67.8780 C   0  0  0  0  0  0  0  0  0  0  0  0
    0.3190   67.5060   67.2430 C   0  0  2  0  0  0  0  0  0  0  0  0
    1.4980   67.4750   66.2630 C   0  0  0  0  0  0  0  0  0  0  0  0
   -0.9670   67.3440   66.4550 N   0  0  1  0  0  4  0  0  0  0  0  0
   -2.1630   66.9470   67.2760 C   0  0  0  0  0  0  0  0  0  0  0  0
    5.5383   67.8905   64.1626 H   0  0  0  0  0  0  0  0  0  0  0  0
    2.7559   69.1054   66.2507 H   0  0  0  0  0  0  0  0  0  0  0  0
    3.0682   70.2626   68.4351 H   0  0  0  0  0  0  0  0  0  0  0  0
    5.3322   71.0439   69.1226 H   0  0  0  0  0  0  0  0  0  0  0  0
    7.2879   70.6731   67.6241 H   0  0  0  0  0  0  0  0  0  0  0  0
    6.9863   69.5229   65.4346 H   0  0  0  0  0  0  0  0  0  0  0  0
    4.6045   70.4066   63.6789 H   0  0  0  0  0  0  0  0  0  0  0  0
    0.7546   66.8461   64.3566 H   0  0  0  0  0  0  0  0  0  0  0  0
    0.3701   69.7910   64.6371 H   0  0  0  0  0  0  0  0  0  0  0  0
   -0.5730   68.5055   63.7332 H   0  0  0  0  0  0  0  0  0  0  0  0
   -2.0624   68.9216   65.3447 H   0  0  0  0  0  0  0  0  0  0  0  0
   -0.2110   70.5530   66.5316 H   0  0  0  0  0  0  0  0  0  0  0  0
   -1.6459   70.0418   67.4302 H   0  0  0  0  0  0  0  0  0  0  0  0
    1.1371   69.3848   67.9757 H   0  0  0  0  0  0  0  0  0  0  0  0
   -0.2708   68.8302   68.8887 H   0  0  0  0  0  0  0  0  0  0  0  0
    0.5038   66.7228   67.9930 H   0  0  0  0  0  0  0  0  0  0  0  0
    2.2376   68.2208   66.5898 H   0  0  0  0  0  0  0  0  0  0  0  0
    1.8925   66.4483   66.2764 H   0  0  0  0  0  0  0  0  0  0  0  0
   -0.9430   66.5592   65.7883 H   0  0  0  0  0  0  0  0  0  0  0  0
   -1.9173   67.0286   68.3451 H   0  0  0  0  0  0  0  0  0  0  0  0
   -3.0062   67.6135   67.0417 H   0  0  0  0  0  0  0  0  0  0  0  0
   -2.4403   65.9086   67.0417 H   0  0  0  0  0  0  0  0  0  0  0  0
  2  1  2  0
  3  1  1  0
  4  3  1  0
  5  4  2  0
  6  5  1  0
  7  6  2  0
  8  7  1  0
  9  8  2  0
  9  4  1  0
 10  3  1  0
 11  1  1  0
 12 11  1  0
 13 12  1  0
 14 13  1  0
 15 14  1  0
 16 15  1  0
 17 16  1  0
 18 17  1  0
 18 12  1  0
 19 17  1  0
 19 14  1  0
 20 19  1  0
  3 21  1  6
  5 22  1  0
  6 23  1  0
  7 24  1  0
  8 25  1  0
  9 26  1  0
 10 27  1  0
 12 28  1  6
 13 29  1  0
 13 30  1  0
 14 31  1  6
 15 32  1  0
 15 33  1  0
 16 34  1  0
 16 35  1  0
 17 36  1  1
 18 37  1  0
 18 38  1  0
 19 39  1  6
 20 40  1  0
 20 41  1  0
 20 42  1  0
M  CHG  1  19   1
M  END
>  <score>  (3) 
-8.253

$$$$
=
     RDKit          3D

 42 44  0  0  0  0  0  0  0  0999 V2000
   -0.8360   69.0150   64.5220 C   0  0  0  0  0  0  0  0  0  0  0  0
   -1.4590   68.4530   63.6280 O   0  0  0  0  0  0  0  0  0  0  0  0
   -1.4030   69.3570   65.9130 C   0  0  2  0  0  0  0  0  0  0  0  0
   -0.8010   68.4610   66.9790 C   0  0  0  0  0  0  0  0  0  0  0  0
    0.4410   68.7680   67.5620 C   0  0  0  0  0  0  0  0  0  0  0  0
    0.9890   67.9380   68.5400 C   0  0  0  0  0  0  0  0  0  0  0  0
    0.3050   66.7950   68.9490 C   0  0  0  0  0  0  0  0  0  0  0  0
   -0.9270   66.4810   68.3800 C   0  0  0  0  0  0  0  0  0  0  0  0
   -1.4780   67.3080   67.3990 C   0  0  0  0  0  0  0  0  0  0  0  0
   -2.8290   69.3190   65.9820 O   0  0  0  0  0  0  0  0  0  0  0  0
    0.4620   69.4340   64.3880 O   0  0  0  0  0  0  0  0  0  0  0  0
    1.4180   68.4160   64.0540 C   0  0  2  0  0  0  0  0  0  0  0  0
    2.5810   68.4170   65.0570 C   0  0  0  0  0  0  0  0  0  0  0  0
    3.8970   67.8650   64.4960 C   0  0  2  0  0  0  0  0  0  0  0  0
    4.7600   68.9750   63.8930 C   0  0  0  0  0  0  0  0  0  0  0  0
    4.3320   69.0780   62.4310 C   0  0  0  0  0  0  0  0  0  0  0  0
    3.2230   68.0370   62.2560 C   0  0  2  0  0  0  0  0  0  0  0  0
    1.8470   68.6230   62.5960 C   0  0  0  0  0  0  0  0  0  0  0  0
    3.5720   66.9920   63.2980 N   0  0  1  0  0  4  0  0  0  0  0  0
    4.6710   66.0460   62.8980 C   0  0  0  0  0  0  0  0  0  0  0  0
   -1.1124   70.4009   66.1020 H   0  0  0  0  0  0  0  0  0  0  0  0
    0.9849   69.6698   67.2444 H   0  0  0  0  0  0  0  0  0  0  0  0
    1.9621   68.1860   68.9888 H   0  0  0  0  0  0  0  0  0  0  0  0
    0.7376   66.1412   69.7206 H   0  0  0  0  0  0  0  0  0  0  0  0
   -1.4672   65.5793   68.7042 H   0  0  0  0  0  0  0  0  0  0  0  0
   -2.4504   67.0527   66.9527 H   0  0  0  0  0  0  0  0  0  0  0  0
   -3.1134   69.3114   66.9302 H   0  0  0  0  0  0  0  0  0  0  0  0
    0.9765   67.4114   64.1311 H   0  0  0  0  0  0  0  0  0  0  0  0
    2.7533   69.4530   65.3840 H   0  0  0  0  0  0  0  0  0  0  0  0
    2.2864   67.7522   65.8824 H   0  0  0  0  0  0  0  0  0  0  0  0
    4.4101   67.3499   65.3215 H   0  0  0  0  0  0  0  0  0  0  0  0
    4.5804   69.9271   64.4139 H   0  0  0  0  0  0  0  0  0  0  0  0
    5.8333   68.7541   63.9887 H   0  0  0  0  0  0  0  0  0  0  0  0
    3.9510   70.0864   62.2120 H   0  0  0  0  0  0  0  0  0  0  0  0
    5.1732   68.8978   61.7455 H   0  0  0  0  0  0  0  0  0  0  0  0
    3.1652   67.6609   61.2239 H   0  0  0  0  0  0  0  0  0  0  0  0
    1.8731   69.7040   62.3943 H   0  0  0  0  0  0  0  0  0  0  0  0
    1.1139   68.0905   61.9723 H   0  0  0  0  0  0  0  0  0  0  0  0
    2.8133   66.3173   63.4717 H   0  0  0  0  0  0  0  0  0  0  0  0
    5.1479   65.6355   63.8003 H   0  0  0  0  0  0  0  0  0  0  0  0
    4.2485   65.2247   62.3006 H   0  0  0  0  0  0  0  0  0  0  0  0
    5.4203   66.5861   62.3006 H   0  0  0  0  0  0  0  0  0  0  0  0
  2  1  2  0
  3  1  1  0
  4  3  1  0
  5  4  2  0
  6  5  1  0
  7  6  2  0
  8  7  1  0
  9  8  2  0
  9  4  1  0
 10  3  1  0
 11  1  1  0
 12 11  1  0
 13 12  1  0
 14 13  1  0
 15 14  1  0
 16 15  1  0
 17 16  1  0
 18 17  1  0
 18 12  1  0
 19 17  1  0
 19 14  1  0
 20 19  1  0
  3 21  1  1
  5 22  1  0
  6 23  1  0
  7 24  1  0
  8 25  1  0
  9 26  1  0
 10 27  1  0
 12 28  1  6
 13 29  1  0
 13 30  1  0
 14 31  1  1
 15 32  1  0
 15 33  1  0
 16 34  1  0
 16 35  1  0
 17 36  1  6
 18 37  1  0
 18 38  1  0
 19 39  1  1
 20 40  1  0
 20 41  1  0
 20 42  1  0
M  CHG  1  19   1
M  END
>  <score>  (4) 
-8.016

$$$$
=
     RDKit          3D

 42 44  0  0  0  0  0  0  0  0999 V2000
    3.5540   59.1620   72.4430 C   0  0  0  0  0  0  0  0  0  0  0  0
    4.1170   58.9900   73.5190 O   0  0  0  0  0  0  0  0  0  0  0  0
    4.2680   59.2780   71.0830 C   0  0  2  0  0  0  0  0  0  0  0  0
    4.1470   60.6850   70.5270 C   0  0  0  0  0  0  0  0  0  0  0  0
    4.9720   61.7200   70.9990 C   0  0  0  0  0  0  0  0  0  0  0  0
    4.8530   63.0110   70.4840 C   0  0  0  0  0  0  0  0  0  0  0  0
    3.9140   63.2830   69.4920 C   0  0  0  0  0  0  0  0  0  0  0  0
    3.0920   62.2650   69.0140 C   0  0  0  0  0  0  0  0  0  0  0  0
    3.2060   60.9720   69.5280 C   0  0  0  0  0  0  0  0  0  0  0  0
    3.8300   58.3240   70.1160 O   0  0  0  0  0  0  0  0  0  0  0  0
    2.1960   59.2920   72.3160 O   0  0  0  0  0  0  0  0  0  0  0  0
    1.5770   60.2650   73.1710 C   0  0  2  0  0  0  0  0  0  0  0  0
    0.1160   60.4950   72.7580 C   0  0  0  0  0  0  0  0  0  0  0  0
   -0.4360   61.8750   73.1370 C   0  0  2  0  0  0  0  0  0  0  0  0
   -0.2300   62.8900   72.0100 C   0  0  0  0  0  0  0  0  0  0  0  0
    1.1400   63.5130   72.2650 C   0  0  0  0  0  0  0  0  0  0  0  0
    1.6790   62.8160   73.5170 C   0  0  2  0  0  0  0  0  0  0  0  0
    2.4400   61.5330   73.1580 C   0  0  0  0  0  0  0  0  0  0  0  0
    0.4150   62.4330   74.2620 N   0  0  1  0  0  4  0  0  0  0  0  0
   -0.2260   63.5550   75.0330 C   0  0  0  0  0  0  0  0  0  0  0  0
    5.3253   59.0500   71.2832 H   0  0  0  0  0  0  0  0  0  0  0  0
    5.7173   61.5106   71.7805 H   0  0  0  0  0  0  0  0  0  0  0  0
    5.5016   63.8151   70.8618 H   0  0  0  0  0  0  0  0  0  0  0  0
    3.8215   64.3012   69.0862 H   0  0  0  0  0  0  0  0  0  0  0  0
    2.3514   62.4804   68.2297 H   0  0  0  0  0  0  0  0  0  0  0  0
    2.5532   60.1730   69.1467 H   0  0  0  0  0  0  0  0  0  0  0  0
    3.4649   57.5287   70.5789 H   0  0  0  0  0  0  0  0  0  0  0  0
    1.5265   59.9093   74.2107 H   0  0  0  0  0  0  0  0  0  0  0  0
    0.0448   60.3832   71.6660 H   0  0  0  0  0  0  0  0  0  0  0  0
   -0.4865   59.7535   73.3032 H   0  0  0  0  0  0  0  0  0  0  0  0
   -1.5004   61.7426   73.3808 H   0  0  0  0  0  0  0  0  0  0  0  0
   -0.2471   62.3868   71.0320 H   0  0  0  0  0  0  0  0  0  0  0  0
   -1.0261   63.6489   71.9948 H   0  0  0  0  0  0  0  0  0  0  0  0
    1.8080   63.3366   71.4090 H   0  0  0  0  0  0  0  0  0  0  0  0
    1.0742   64.6026   72.4006 H   0  0  0  0  0  0  0  0  0  0  0  0
    2.3741   63.4545   74.0819 H   0  0  0  0  0  0  0  0  0  0  0  0
    2.8616   61.6529   72.1491 H   0  0  0  0  0  0  0  0  0  0  0  0
    3.2123   61.3974   73.9295 H   0  0  0  0  0  0  0  0  0  0  0  0
    0.5780   61.7633   75.0274 H   0  0  0  0  0  0  0  0  0  0  0  0
   -0.1186   63.3670   76.1115 H   0  0  0  0  0  0  0  0  0  0  0  0
    0.2659   64.5046   74.7756 H   0  0  0  0  0  0  0  0  0  0  0  0
   -1.2938   63.6136   74.7756 H   0  0  0  0  0  0  0  0  0  0  0  0
  2  1  2  0
  3  1  1  0
  4  3  1  0
  5  4  2  0
  6  5  1  0
  7  6  2  0
  8  7  1  0
  9  8  2  0
  9  4  1  0
 10  3  1  0
 11  1  1  0
 12 11  1  0
 13 12  1  0
 14 13  1  0
 15 14  1  0
 16 15  1  0
 17 16  1  0
 18 17  1  0
 18 12  1  0
 19 17  1  0
 19 14  1  0
 20 19  1  0
  3 21  1  1
  5 22  1  0
  6 23  1  0
  7 24  1  0
  8 25  1  0
  9 26  1  0
 10 27  1  0
 12 28  1  1
 13 29  1  0
 13 30  1  0
 14 31  1  1
 15 32  1  0
 15 33  1  0
 16 34  1  0
 16 35  1  0
 17 36  1  1
 18 37  1  0
 18 38  1  0
 19 39  1  1
 20 40  1  0
 20 41  1  0
 20 42  1  0
M  CHG  1  19   1
M  END
>  <score>  (5) 
-8.002

$$$$
=
     RDKit          3D

 42 44  0  0  0  0  0  0  0  0999 V2000
    3.8270   69.8460   67.5720 C   0  0  0  0  0  0  0  0  0  0  0  0
    5.0240   70.0660   67.7210 O   0  0  0  0  0  0  0  0  0  0  0  0
    2.8280   69.5920   68.7170 C   0  0  2  0  0  0  0  0  0  0  0  0
    1.5000   69.0940   68.1770 C   0  0  0  0  0  0  0  0  0  0  0  0
    1.2100   67.7190   68.1340 C   0  0  0  0  0  0  0  0  0  0  0  0
   -0.0130   67.2690   67.6340 C   0  0  0  0  0  0  0  0  0  0  0  0
   -0.9580   68.1830   67.1740 C   0  0  0  0  0  0  0  0  0  0  0  0
   -0.6820   69.5480   67.2130 C   0  0  0  0  0  0  0  0  0  0  0  0
    0.5400   70.0030   67.7110 C   0  0  0  0  0  0  0  0  0  0  0  0
    2.6240   70.7200   69.5680 O   0  0  0  0  0  0  0  0  0  0  0  0
    3.2200   69.7780   66.3460 O   0  0  0  0  0  0  0  0  0  0  0  0
    3.5790   68.6520   65.5300 C   0  0  2  0  0  0  0  0  0  0  0  0
    4.8750   68.9370   64.7570 C   0  0  0  0  0  0  0  0  0  0  0  0
    5.0170   68.1450   63.4520 C   0  0  2  0  0  0  0  0  0  0  0  0
    4.4460   68.9180   62.2610 C   0  0  0  0  0  0  0  0  0  0  0  0
    2.9730   68.5240   62.1860 C   0  0  0  0  0  0  0  0  0  0  0  0
    2.7500   67.5560   63.3510 C   0  0  2  0  0  0  0  0  0  0  0  0
    2.3800   68.3060   64.6370 C   0  0  0  0  0  0  0  0  0  0  0  0
    4.1170   66.9270   63.5360 N   0  0  1  0  0  4  0  0  0  0  0  0
    4.4460   65.8370   62.5530 C   0  0  0  0  0  0  0  0  0  0  0  0
    3.2875   68.8125   69.3425 H   0  0  0  0  0  0  0  0  0  0  0  0
    1.9521   66.9927   68.4969 H   0  0  0  0  0  0  0  0  0  0  0  0
   -0.2308   66.1912   67.6032 H   0  0  0  0  0  0  0  0  0  0  0  0
   -1.9215   67.8273   66.7802 H   0  0  0  0  0  0  0  0  0  0  0  0
   -1.4292   70.2692   66.8503 H   0  0  0  0  0  0  0  0  0  0  0  0
    0.7511   71.0822   67.7380 H   0  0  0  0  0  0  0  0  0  0  0  0
    2.6759   70.4332   70.5141 H   0  0  0  0  0  0  0  0  0  0  0  0
    3.8018   67.7674   66.1447 H   0  0  0  0  0  0  0  0  0  0  0  0
    4.9028   70.0095   64.5141 H   0  0  0  0  0  0  0  0  0  0  0  0
    5.7054   68.6250   65.4074 H   0  0  0  0  0  0  0  0  0  0  0  0
    6.0868   67.9241   63.3224 H   0  0  0  0  0  0  0  0  0  0  0  0
    4.5462   70.0015   62.4224 H   0  0  0  0  0  0  0  0  0  0  0  0
    4.9792   68.6818   61.3283 H   0  0  0  0  0  0  0  0  0  0  0  0
    2.3316   69.4110   62.2947 H   0  0  0  0  0  0  0  0  0  0  0  0
    2.7218   68.0641   61.2188 H   0  0  0  0  0  0  0  0  0  0  0  0
    1.9366   66.8433   63.1498 H   0  0  0  0  0  0  0  0  0  0  0  0
    1.8764   69.2431   64.3572 H   0  0  0  0  0  0  0  0  0  0  0  0
    1.7345   67.6334   65.2208 H   0  0  0  0  0  0  0  0  0  0  0  0
    4.2121   66.4035   64.4179 H   0  0  0  0  0  0  0  0  0  0  0  0
    4.7220   64.9225   63.0984 H   0  0  0  0  0  0  0  0  0  0  0  0
    3.5684   65.6362   61.9209 H   0  0  0  0  0  0  0  0  0  0  0  0
    5.2881   66.1552   61.9209 H   0  0  0  0  0  0  0  0  0  0  0  0
  2  1  2  0
  3  1  1  0
  4  3  1  0
  5  4  2  0
  6  5  1  0
  7  6  2  0
  8  7  1  0
  9  8  2  0
  9  4  1  0
 10  3  1  0
 11  1  1  0
 12 11  1  0
 13 12  1  0
 14 13  1  0
 15 14  1  0
 16 15  1  0
 17 16  1  0
 18 17  1  0
 18 12  1  0
 19 17  1  0
 19 14  1  0
 20 19  1  0
  3 21  1  1
  5 22  1  0
  6 23  1  0
  7 24  1  0
  8 25  1  0
  9 26  1  0
 10 27  1  0
 12 28  1  1
 13 29  1  0
 13 30  1  0
 14 31  1  6
 15 32  1  0
 15 33  1  0
 16 34  1  0
 16 35  1  0
 17 36  1  6
 18 37  1  0
 18 38  1  0
 19 39  1  1
 20 40  1  0
 20 41  1  0
 20 42  1  0
M  CHG  1  19   1
M  END
>  <score>  (6) 
-7.485

$$$$
=
     RDKit          3D

 42 44  0  0  0  0  0  0  0  0999 V2000
    0.0680   63.4810   71.8870 C   0  0  0  0  0  0  0  0  0  0  0  0
    0.0110   64.3810   72.7180 O   0  0  0  0  0  0  0  0  0  0  0  0
    0.5220   63.6570   70.4250 C   0  0  2  0  0  0  0  0  0  0  0  0
    1.9570   63.2000   70.2450 C   0  0  0  0  0  0  0  0  0  0  0  0
    2.2510   61.9770   69.6170 C   0  0  0  0  0  0  0  0  0  0  0  0
    3.5740   61.5640   69.4570 C   0  0  0  0  0  0  0  0  0  0  0  0
    4.6170   62.3640   69.9180 C   0  0  0  0  0  0  0  0  0  0  0  0
    4.3380   63.5790   70.5410 C   0  0  0  0  0  0  0  0  0  0  0  0
    3.0160   63.9960   70.7050 C   0  0  0  0  0  0  0  0  0  0  0  0
    0.3570   64.9830   69.9230 O   0  0  0  0  0  0  0  0  0  0  0  0
   -0.2880   62.1850   72.1540 O   0  0  0  0  0  0  0  0  0  0  0  0
    0.4200   61.5500   73.2290 C   0  0  2  0  0  0  0  0  0  0  0  0
    1.7480   62.2720   73.5030 C   0  0  0  0  0  0  0  0  0  0  0  0
    2.8280   61.3850   74.1340 C   0  0  2  0  0  0  0  0  0  0  0  0
    3.7070   60.7250   73.0690 C   0  0  0  0  0  0  0  0  0  0  0  0
    3.0140   59.4090   72.7240 C   0  0  0  0  0  0  0  0  0  0  0  0
    1.7520   59.3740   73.5900 C   0  0  2  0  0  0  0  0  0  0  0  0
    0.5740   60.0620   72.8880 C   0  0  0  0  0  0  0  0  0  0  0  0
    2.1450   60.2040   74.7960 N   0  0  1  0  0  4  0  0  0  0  0  0
    2.9890   59.4810   75.8100 C   0  0  0  0  0  0  0  0  0  0  0  0
   -0.1456   63.0174   69.8290 H   0  0  0  0  0  0  0  0  0  0  0  0
    1.4321   61.3412   69.2492 H   0  0  0  0  0  0  0  0  0  0  0  0
    3.7939   60.6047   68.9658 H   0  0  0  0  0  0  0  0  0  0  0  0
    5.6595   62.0371   69.7905 H   0  0  0  0  0  0  0  0  0  0  0  0
    5.1617   64.2110   70.9044 H   0  0  0  0  0  0  0  0  0  0  0  0
    2.8034   64.9558   71.1986 H   0  0  0  0  0  0  0  0  0  0  0  0
    0.2783   65.6153   70.6807 H   0  0  0  0  0  0  0  0  0  0  0  0
   -0.1412   61.6183   74.1726 H   0  0  0  0  0  0  0  0  0  0  0  0
    2.1338   62.6585   72.5481 H   0  0  0  0  0  0  0  0  0  0  0  0
    1.5301   63.0691   74.2291 H   0  0  0  0  0  0  0  0  0  0  0  0
    3.4143   62.0230   74.8116 H   0  0  0  0  0  0  0  0  0  0  0  0
    3.7785   61.3666   72.1783 H   0  0  0  0  0  0  0  0  0  0  0  0
    4.7330   60.5625   73.4309 H   0  0  0  0  0  0  0  0  0  0  0  0
    2.7491   59.3819   71.6567 H   0  0  0  0  0  0  0  0  0  0  0  0
    3.6644   58.5424   72.9141 H   0  0  0  0  0  0  0  0  0  0  0  0
    1.4335   58.3464   73.8196 H   0  0  0  0  0  0  0  0  0  0  0  0
    0.7189   59.9704   71.8014 H   0  0  0  0  0  0  0  0  0  0  0  0
   -0.3398   59.5610   73.2402 H   0  0  0  0  0  0  0  0  0  0  0  0
    1.3457   60.4690   75.3891 H   0  0  0  0  0  0  0  0  0  0  0  0
    2.6638   59.7595   76.8233 H   0  0  0  0  0  0  0  0  0  0  0  0
    2.8758   58.3953   75.6741 H   0  0  0  0  0  0  0  0  0  0  0  0
    4.0444   59.7595   75.6741 H   0  0  0  0  0  0  0  0  0  0  0  0
  2  1  2  0
  3  1  1  0
  4  3  1  0
  5  4  2  0
  6  5  1  0
  7  6  2  0
  8  7  1  0
  9  8  2  0
  9  4  1  0
 10  3  1  0
 11  1  1  0
 12 11  1  0
 13 12  1  0
 14 13  1  0
 15 14  1  0
 16 15  1  0
 17 16  1  0
 18 17  1  0
 18 12  1  0
 19 17  1  0
 19 14  1  0
 20 19  1  0
  3 21  1  6
  5 22  1  0
  6 23  1  0
  7 24  1  0
  8 25  1  0
  9 26  1  0
 10 27  1  0
 12 28  1  1
 13 29  1  0
 13 30  1  0
 14 31  1  1
 15 32  1  0
 15 33  1  0
 16 34  1  0
 16 35  1  0
 17 36  1  1
 18 37  1  0
 18 38  1  0
 19 39  1  1
 20 40  1  0
 20 41  1  0
 20 42  1  0
M  CHG  1  19   1
M  END
>  <score>  (7) 
-7.35

$$$$
=
     RDKit          3D

 42 44  0  0  0  0  0  0  0  0999 V2000
    2.5000   58.7950   72.1460 C   0  0  0  0  0  0  0  0  0  0  0  0
    1.8950   59.7330   72.6520 O   0  0  0  0  0  0  0  0  0  0  0  0
    3.7480   58.9290   71.2520 C   0  0  2  0  0  0  0  0  0  0  0  0
    3.9070   60.3540   70.7560 C   0  0  0  0  0  0  0  0  0  0  0  0
    3.2250   60.7990   69.6110 C   0  0  0  0  0  0  0  0  0  0  0  0
    3.3790   62.1110   69.1610 C   0  0  0  0  0  0  0  0  0  0  0  0
    4.2110   62.9920   69.8480 C   0  0  0  0  0  0  0  0  0  0  0  0
    4.8910   62.5630   70.9850 C   0  0  0  0  0  0  0  0  0  0  0  0
    4.7420   61.2510   71.4390 C   0  0  0  0  0  0  0  0  0  0  0  0
    3.7750   58.0170   70.1550 O   0  0  0  0  0  0  0  0  0  0  0  0
    2.1260   57.4860   72.3000 O   0  0  0  0  0  0  0  0  0  0  0  0
    1.5030   57.1550   73.5510 C   0  0  2  0  0  0  0  0  0  0  0  0
    2.3400   56.1170   74.3130 C   0  0  0  0  0  0  0  0  0  0  0  0
    1.5340   55.2490   75.2870 C   0  0  2  0  0  0  0  0  0  0  0  0
    1.0320   53.9680   74.6160 C   0  0  0  0  0  0  0  0  0  0  0  0
   -0.3250   54.3250   74.0150 C   0  0  0  0  0  0  0  0  0  0  0  0
   -0.5410   55.8040   74.3460 C   0  0  2  0  0  0  0  0  0  0  0  0
    0.0630   56.7120   73.2670 C   0  0  0  0  0  0  0  0  0  0  0  0
    0.2510   55.9850   75.6260 N   0  0  1  0  0  4  0  0  0  0  0  0
   -0.4410   55.4960   76.8690 C   0  0  0  0  0  0  0  0  0  0  0  0
    4.6015   58.6639   71.8933 H   0  0  0  0  0  0  0  0  0  0  0  0
    2.5651   60.1084   69.0655 H   0  0  0  0  0  0  0  0  0  0  0  0
    2.8426   62.4499   68.2625 H   0  0  0  0  0  0  0  0  0  0  0  0
    4.3308   64.0261   69.4926 H   0  0  0  0  0  0  0  0  0  0  0  0
    5.5474   63.2597   71.5270 H   0  0  0  0  0  0  0  0  0  0  0  0
    5.2825   60.9187   72.3376 H   0  0  0  0  0  0  0  0  0  0  0  0
    3.8025   57.0888   70.4981 H   0  0  0  0  0  0  0  0  0  0  0  0
    1.4560   58.0288   74.2175 H   0  0  0  0  0  0  0  0  0  0  0  0
    2.8203   55.4547   73.5777 H   0  0  0  0  0  0  0  0  0  0  0  0
    3.0652   56.6801   74.9187 H   0  0  0  0  0  0  0  0  0  0  0  0
    2.1878   55.0329   76.1448 H   0  0  0  0  0  0  0  0  0  0  0  0
    1.7293   53.6488   73.8274 H   0  0  0  0  0  0  0  0  0  0  0  0
    0.9543   53.1366   75.3321 H   0  0  0  0  0  0  0  0  0  0  0  0
   -0.3155   54.1720   72.9257 H   0  0  0  0  0  0  0  0  0  0  0  0
   -1.1299   53.6939   74.4197 H   0  0  0  0  0  0  0  0  0  0  0  0
   -1.6078   56.0612   74.4219 H   0  0  0  0  0  0  0  0  0  0  0  0
    0.0521   56.1667   72.3118 H   0  0  0  0  0  0  0  0  0  0  0  0
   -0.5495   57.6254   73.2439 H   0  0  0  0  0  0  0  0  0  0  0  0
    0.3964   56.9719   75.8823 H   0  0  0  0  0  0  0  0  0  0  0  0
    0.0902   55.8713   77.7561 H   0  0  0  0  0  0  0  0  0  0  0  0
   -1.4779   55.8630   76.8799 H   0  0  0  0  0  0  0  0  0  0  0  0
   -0.4413   54.3961   76.8799 H   0  0  0  0  0  0  0  0  0  0  0  0
  2  1  2  0
  3  1  1  0
  4  3  1  0
  5  4  2  0
  6  5  1  0
  7  6  2  0
  8  7  1  0
  9  8  2  0
  9  4  1  0
 10  3  1  0
 11  1  1  0
 12 11  1  0
 13 12  1  0
 14 13  1  0
 15 14  1  0
 16 15  1  0
 17 16  1  0
 18 17  1  0
 18 12  1  0
 19 17  1  0
 19 14  1  0
 20 19  1  0
  3 21  1  1
  5 22  1  0
  6 23  1  0
  7 24  1  0
  8 25  1  0
  9 26  1  0
 10 27  1  0
 12 28  1  1
 13 29  1  0
 13 30  1  0
 14 31  1  1
 15 32  1  0
 15 33  1  0
 16 34  1  0
 16 35  1  0
 17 36  1  1
 18 37  1  0
 18 38  1  0
 19 39  1  1
 20 40  1  0
 20 41  1  0
 20 42  1  0
M  CHG  1  19   1
M  END
>  <score>  (8) 
-7.249

$$$$
=
     RDKit          3D

 42 44  0  0  0  0  0  0  0  0999 V2000
    3.7140   60.1910   71.3430 C   0  0  0  0  0  0  0  0  0  0  0  0
    4.5220   59.7220   70.5480 O   0  0  0  0  0  0  0  0  0  0  0  0
    3.9410   61.4610   72.1840 C   0  0  2  0  0  0  0  0  0  0  0  0
    2.9980   62.5700   71.7550 C   0  0  0  0  0  0  0  0  0  0  0  0
    3.2970   63.3840   70.6490 C   0  0  0  0  0  0  0  0  0  0  0  0
    2.4250   64.4030   70.2630 C   0  0  0  0  0  0  0  0  0  0  0  0
    1.2460   64.6180   70.9720 C   0  0  0  0  0  0  0  0  0  0  0  0
    0.9370   63.8160   72.0690 C   0  0  0  0  0  0  0  0  0  0  0  0
    1.8070   62.7970   72.4600 C   0  0  0  0  0  0  0  0  0  0  0  0
    5.2890   61.9280   72.1760 O   0  0  0  0  0  0  0  0  0  0  0  0
    2.4940   59.6240   71.6000 O   0  0  0  0  0  0  0  0  0  0  0  0
    2.4250   58.7880   72.7660 C   0  0  2  0  0  0  0  0  0  0  0  0
    2.2010   57.3210   72.3660 C   0  0  0  0  0  0  0  0  0  0  0  0
    1.5090   56.4750   73.4400 C   0  0  2  0  0  0  0  0  0  0  0  0
   -0.0120   56.4820   73.2670 C   0  0  0  0  0  0  0  0  0  0  0  0
   -0.5100   57.6780   74.0750 C   0  0  0  0  0  0  0  0  0  0  0  0
    0.7460   58.3240   74.6640 C   0  0  2  0  0  0  0  0  0  0  0  0
    1.3480   59.3540   73.6990 C   0  0  0  0  0  0  0  0  0  0  0  0
    1.7060   57.1560   74.7810 N   0  0  1  0  0  4  0  0  0  0  0  0
    1.4740   56.2680   75.9740 C   0  0  0  0  0  0  0  0  0  0  0  0
    3.7219   61.1706   73.2221 H   0  0  0  0  0  0  0  0  0  0  0  0
    4.2254   63.2167   70.0833 H   0  0  0  0  0  0  0  0  0  0  0  0
    2.6693   65.0369   69.3979 H   0  0  0  0  0  0  0  0  0  0  0  0
    0.5587   65.4206   70.6663 H   0  0  0  0  0  0  0  0  0  0  0  0
    0.0052   63.9865   72.6281 H   0  0  0  0  0  0  0  0  0  0  0  0
    1.5569   62.1678   73.3269 H   0  0  0  0  0  0  0  0  0  0  0  0
    5.6058   62.0377   73.1075 H   0  0  0  0  0  0  0  0  0  0  0  0
    3.3768   58.7919   73.3174 H   0  0  0  0  0  0  0  0  0  0  0  0
    1.5795   57.3020   71.4586 H   0  0  0  0  0  0  0  0  0  0  0  0
    3.1969   56.8806   72.2102 H   0  0  0  0  0  0  0  0  0  0  0  0
    1.9253   55.4593   73.3691 H   0  0  0  0  0  0  0  0  0  0  0  0
   -0.2775   56.5978   72.2058 H   0  0  0  0  0  0  0  0  0  0  0  0
   -0.4657   55.5406   73.6104 H   0  0  0  0  0  0  0  0  0  0  0  0
   -1.0387   58.3891   73.4232 H   0  0  0  0  0  0  0  0  0  0  0  0
   -1.2191   57.3743   74.8592 H   0  0  0  0  0  0  0  0  0  0  0  0
    0.5397   58.8493   75.6082 H   0  0  0  0  0  0  0  0  0  0  0  0
    0.5356   59.7626   73.0800 H   0  0  0  0  0  0  0  0  0  0  0  0
    1.8379   60.1191   74.3192 H   0  0  0  0  0  0  0  0  0  0  0  0
    2.6794   57.4412   74.9600 H   0  0  0  0  0  0  0  0  0  0  0  0
    1.6253   56.8470   76.8970 H   0  0  0  0  0  0  0  0  0  0  0  0
    0.4446   55.8811   75.9484 H   0  0  0  0  0  0  0  0  0  0  0  0
    2.1826   55.4270   75.9484 H   0  0  0  0  0  0  0  0  0  0  0  0
  2  1  2  0
  3  1  1  0
  4  3  1  0
  5  4  2  0
  6  5  1  0
  7  6  2  0
  8  7  1  0
  9  8  2  0
  9  4  1  0
 10  3  1  0
 11  1  1  0
 12 11  1  0
 13 12  1  0
 14 13  1  0
 15 14  1  0
 16 15  1  0
 17 16  1  0
 18 17  1  0
 18 12  1  0
 19 17  1  0
 19 14  1  0
 20 19  1  0
  3 21  1  1
  5 22  1  0
  6 23  1  0
  7 24  1  0
  8 25  1  0
  9 26  1  0
 10 27  1  0
 12 28  1  1
 13 29  1  0
 13 30  1  0
 14 31  1  1
 15 32  1  0
 15 33  1  0
 16 34  1  0
 16 35  1  0
 17 36  1  1
 18 37  1  0
 18 38  1  0
 19 39  1  6
 20 40  1  0
 20 41  1  0
 20 42  1  0
M  CHG  1  19   1
M  END
>  <score>  (9) 
-7.154

$$$$
