=
     RDKit          3D

 31 32  0  0  0  0  0  0  0  0999 V2000
    2.1770   68.1620   64.6670 S   0  0  0  0  0  6  0  0  0  0  0  0
    2.5700   66.7870   64.4560 O   0  0  0  0  0  0  0  0  0  0  0  0
    2.0960   69.1290   63.5950 O   0  0  0  0  0  0  0  0  0  0  0  0
   -1.9290   68.1050   66.7020 C   0  0  0  0  0  0  0  0  0  0  0  0
   -0.8690   67.3520   67.2180 C   0  0  0  0  0  0  0  0  0  0  0  0
    0.3890   67.3730   66.6080 C   0  0  0  0  0  0  0  0  0  0  0  0
    0.5740   68.1300   65.4500 C   0  0  0  0  0  0  0  0  0  0  0  0
   -0.4890   68.8330   64.8820 C   0  0  0  0  0  0  0  0  0  0  0  0
   -1.7400   68.8010   65.5040 C   0  0  0  0  0  0  0  0  0  0  0  0
   -3.2100   67.9790   67.2470 N   0  0  0  0  0  0  0  0  0  0  0  0
    3.0860   68.8050   65.9100 N   0  0  0  0  0  0  0  0  0  0  0  0
    4.3300   69.4160   65.6910 C   0  0  0  0  0  0  0  0  0  0  0  0
    4.8520   69.5230   64.5940 O   0  0  0  0  0  0  0  0  0  0  0  0
    4.9990   69.9540   66.9080 C   0  0  0  0  0  0  0  0  0  0  0  0
    6.3720   70.2330   66.9560 C   0  0  0  0  0  0  0  0  0  0  0  0
    6.9470   70.7180   68.1330 C   0  0  0  0  0  0  0  0  0  0  0  0
    6.1580   70.9270   69.2640 C   0  0  0  0  0  0  0  0  0  0  0  0
    4.7910   70.6620   69.2210 C   0  0  0  0  0  0  0  0  0  0  0  0
    4.2110   70.1790   68.0460 C   0  0  0  0  0  0  0  0  0  0  0  0
   -1.0272   66.7355   68.1151 H   0  0  0  0  0  0  0  0  0  0  0  0
    1.2240   66.7990   67.0362 H   0  0  0  0  0  0  0  0  0  0  0  0
   -0.3439   69.4063   63.9545 H   0  0  0  0  0  0  0  0  0  0  0  0
   -2.5877   69.3306   65.0449 H   0  0  0  0  0  0  0  0  0  0  0  0
   -3.9889   68.5345   66.8654 H   0  0  0  0  0  0  0  0  0  0  0  0
   -3.3750   67.3307   68.0302 H   0  0  0  0  0  0  0  0  0  0  0  0
    2.7211   68.7515   66.8717 H   0  0  0  0  0  0  0  0  0  0  0  0
    6.9972   70.0698   66.0658 H   0  0  0  0  0  0  0  0  0  0  0  0
    8.0247   70.9356   68.1680 H   0  0  0  0  0  0  0  0  0  0  0  0
    6.6158   71.3017   70.1914 H   0  0  0  0  0  0  0  0  0  0  0  0
    4.1689   70.8331   70.1119 H   0  0  0  0  0  0  0  0  0  0  0  0
    3.1308   69.9740   68.0130 H   0  0  0  0  0  0  0  0  0  0  0  0
  2  1  2  0
  3  1  2  0
  5  4  2  0
  6  5  1  0
  7  1  1  0
  7  6  2  0
  8  7  1  0
  9  8  2  0
  9  4  1  0
 10  4  1  0
 11  1  1  0
 12 11  1  0
 13 12  2  0
 14 12  1  0
 15 14  2  0
 16 15  1  0
 17 16  2  0
 18 17  1  0
 19 18  2  0
 19 14  1  0
  5 20  1  0
  6 21  1  0
  8 22  1  0
  9 23  1  0
 10 24  1  0
 10 25  1  0
 11 26  1  0
 15 27  1  0
 16 28  1  0
 17 29  1  0
 18 30  1  0
 19 31  1  0
M  END
>  <score>  (1) 
-9.717

$$$$
=
     RDKit          3D

 31 32  0  0  0  0  0  0  0  0999 V2000
    0.9260   68.2520   66.3670 S   0  0  0  0  0  6  0  0  0  0  0  0
   -0.0160   69.1360   67.0160 O   0  0  0  0  0  0  0  0  0  0  0  0
    0.8720   66.8130   66.4990 O   0  0  0  0  0  0  0  0  0  0  0  0
    0.7370   69.1310   61.8730 C   0  0  0  0  0  0  0  0  0  0  0  0
    1.9460   68.7720   62.4770 C   0  0  0  0  0  0  0  0  0  0  0  0
    2.0080   68.4930   63.8450 C   0  0  0  0  0  0  0  0  0  0  0  0
    0.8530   68.6080   64.6200 C   0  0  0  0  0  0  0  0  0  0  0  0
   -0.3470   69.0310   64.0480 C   0  0  0  0  0  0  0  0  0  0  0  0
   -0.3930   69.3070   62.6790 C   0  0  0  0  0  0  0  0  0  0  0  0
    0.7120   69.5260   60.5330 N   0  0  0  0  0  0  0  0  0  0  0  0
    2.4780   68.7700   66.6970 N   0  0  0  0  0  0  0  0  0  0  0  0
    2.7550   69.7190   67.6930 C   0  0  0  0  0  0  0  0  0  0  0  0
    1.9020   70.2450   68.3880 O   0  0  0  0  0  0  0  0  0  0  0  0
    4.1960   70.0540   67.8700 C   0  0  0  0  0  0  0  0  0  0  0  0
    4.7090   70.5760   69.0650 C   0  0  0  0  0  0  0  0  0  0  0  0
    6.0670   70.8900   69.1660 C   0  0  0  0  0  0  0  0  0  0  0  0
    6.9160   70.6840   68.0790 C   0  0  0  0  0  0  0  0  0  0  0  0
    6.4140   70.1560   66.8900 C   0  0  0  0  0  0  0  0  0  0  0  0
    5.0590   69.8390   66.7860 C   0  0  0  0  0  0  0  0  0  0  0  0
    2.8597   68.7084   61.8678 H   0  0  0  0  0  0  0  0  0  0  0  0
    2.9580   68.1857   64.3065 H   0  0  0  0  0  0  0  0  0  0  0  0
   -1.2480   69.1461   64.6685 H   0  0  0  0  0  0  0  0  0  0  0  0
   -1.3299   69.6674   62.2291 H   0  0  0  0  0  0  0  0  0  0  0  0
   -0.1798   69.7899   60.0904 H   0  0  0  0  0  0  0  0  0  0  0  0
    1.5854   69.5532   59.9877 H   0  0  0  0  0  0  0  0  0  0  0  0
    3.2592   68.3797   66.1509 H   0  0  0  0  0  0  0  0  0  0  0  0
    4.0421   70.7388   69.9245 H   0  0  0  0  0  0  0  0  0  0  0  0
    6.4671   71.3005   70.1048 H   0  0  0  0  0  0  0  0  0  0  0  0
    7.9831   70.9384   68.1596 H   0  0  0  0  0  0  0  0  0  0  0  0
    7.0855   69.9895   66.0348 H   0  0  0  0  0  0  0  0  0  0  0  0
    4.6659   69.4183   65.8487 H   0  0  0  0  0  0  0  0  0  0  0  0
  2  1  2  0
  3  1  2  0
  5  4  2  0
  6  5  1  0
  7  1  1  0
  7  6  2  0
  8  7  1  0
  9  8  2  0
  9  4  1  0
 10  4  1  0
 11  1  1  0
 12 11  1  0
 13 12  2  0
 14 12  1  0
 15 14  2  0
 16 15  1  0
 17 16  2  0
 18 17  1  0
 19 18  2  0
 19 14  1  0
  5 20  1  0
  6 21  1  0
  8 22  1  0
  9 23  1  0
 10 24  1  0
 10 25  1  0
 11 26  1  0
 15 27  1  0
 16 28  1  0
 17 29  1  0
 18 30  1  0
 19 31  1  0
M  END
>  <score>  (2) 
-9.558

$$$$
=
     RDKit          3D

 31 32  0  0  0  0  0  0  0  0999 V2000
    1.7890   67.5150   65.1240 S   0  0  0  0  0  6  0  0  0  0  0  0
    1.5770   68.3840   63.9880 O   0  0  0  0  0  0  0  0  0  0  0  0
    0.7060   66.8810   65.8410 O   0  0  0  0  0  0  0  0  0  0  0  0
    4.5570   64.1450   63.7170 C   0  0  0  0  0  0  0  0  0  0  0  0
    3.7970   64.0010   64.8820 C   0  0  0  0  0  0  0  0  0  0  0  0
    2.9430   65.0210   65.3110 C   0  0  0  0  0  0  0  0  0  0  0  0
    2.8780   66.2100   64.5820 C   0  0  0  0  0  0  0  0  0  0  0  0
    3.6800   66.3980   63.4560 C   0  0  0  0  0  0  0  0  0  0  0  0
    4.5290   65.3690   63.0410 C   0  0  0  0  0  0  0  0  0  0  0  0
    5.4960   63.1700   63.3670 N   0  0  0  0  0  0  0  0  0  0  0  0
    2.7900   68.2820   66.2180 N   0  0  0  0  0  0  0  0  0  0  0  0
    3.7730   69.1990   65.8190 C   0  0  0  0  0  0  0  0  0  0  0  0
    3.9870   69.5060   64.6590 O   0  0  0  0  0  0  0  0  0  0  0  0
    4.5640   69.8060   66.9260 C   0  0  0  0  0  0  0  0  0  0  0  0
    3.9950   70.1540   68.1590 C   0  0  0  0  0  0  0  0  0  0  0  0
    4.7840   70.7400   69.1540 C   0  0  0  0  0  0  0  0  0  0  0  0
    6.1380   70.9790   68.9230 C   0  0  0  0  0  0  0  0  0  0  0  0
    6.7130   70.6270   67.7030 C   0  0  0  0  0  0  0  0  0  0  0  0
    5.9290   70.0400   66.7080 C   0  0  0  0  0  0  0  0  0  0  0  0
    3.8722   63.0733   65.4682 H   0  0  0  0  0  0  0  0  0  0  0  0
    2.3285   64.8883   66.2136 H   0  0  0  0  0  0  0  0  0  0  0  0
    3.6442   67.3468   62.9006 H   0  0  0  0  0  0  0  0  0  0  0  0
    5.1841   65.5236   62.1710 H   0  0  0  0  0  0  0  0  0  0  0  0
    6.0548   63.2778   62.5085 H   0  0  0  0  0  0  0  0  0  0  0  0
    5.6289   62.3439   63.9676 H   0  0  0  0  0  0  0  0  0  0  0  0
    2.6818   68.0744   67.2210 H   0  0  0  0  0  0  0  0  0  0  0  0
    2.9271   69.9660   68.3441 H   0  0  0  0  0  0  0  0  0  0  0  0
    4.3355   71.0128   70.1206 H   0  0  0  0  0  0  0  0  0  0  0  0
    6.7540   71.4464   69.7054 H   0  0  0  0  0  0  0  0  0  0  0  0
    7.7826   70.8114   67.5245 H   0  0  0  0  0  0  0  0  0  0  0  0
    6.3851   69.7594   65.7471 H   0  0  0  0  0  0  0  0  0  0  0  0
  2  1  2  0
  3  1  2  0
  5  4  2  0
  6  5  1  0
  7  1  1  0
  7  6  2  0
  8  7  1  0
  9  8  2  0
  9  4  1  0
 10  4  1  0
 11  1  1  0
 12 11  1  0
 13 12  2  0
 14 12  1  0
 15 14  2  0
 16 15  1  0
 17 16  2  0
 18 17  1  0
 19 18  2  0
 19 14  1  0
  5 20  1  0
  6 21  1  0
  8 22  1  0
  9 23  1  0
 10 24  1  0
 10 25  1  0
 11 26  1  0
 15 27  1  0
 16 28  1  0
 17 29  1  0
 18 30  1  0
 19 31  1  0
M  END
>  <score>  (3) 
-9.529

$$$$
=
     RDKit          3D

 31 32  0  0  0  0  0  0  0  0999 V2000
    3.9330   67.1720   63.6070 S   0  0  0  0  0  6  0  0  0  0  0  0
    3.5360   65.8200   63.9280 O   0  0  0  0  0  0  0  0  0  0  0  0
    4.9430   67.4810   62.6200 O   0  0  0  0  0  0  0  0  0  0  0  0
    0.1290   69.3870   62.3310 C   0  0  0  0  0  0  0  0  0  0  0  0
    1.2530   69.3640   61.4980 C   0  0  0  0  0  0  0  0  0  0  0  0
    2.4120   68.6820   61.8760 C   0  0  0  0  0  0  0  0  0  0  0  0
    2.4560   68.0450   63.1180 C   0  0  0  0  0  0  0  0  0  0  0  0
    1.3700   68.1150   63.9910 C   0  0  0  0  0  0  0  0  0  0  0  0
    0.2180   68.8010   63.5980 C   0  0  0  0  0  0  0  0  0  0  0  0
   -0.9770   70.1720   61.9960 N   0  0  0  0  0  0  0  0  0  0  0  0
    4.2880   67.9870   65.0200 N   0  0  0  0  0  0  0  0  0  0  0  0
    4.9360   69.2310   65.0260 C   0  0  0  0  0  0  0  0  0  0  0  0
    5.2980   69.8150   64.0180 O   0  0  0  0  0  0  0  0  0  0  0  0
    5.1570   69.8280   66.3730 C   0  0  0  0  0  0  0  0  0  0  0  0
    6.4050   70.3130   66.7880 C   0  0  0  0  0  0  0  0  0  0  0  0
    6.5570   70.8440   68.0720 C   0  0  0  0  0  0  0  0  0  0  0  0
    5.4690   70.8940   68.9430 C   0  0  0  0  0  0  0  0  0  0  0  0
    4.2230   70.4220   68.5330 C   0  0  0  0  0  0  0  0  0  0  0  0
    4.0660   69.8930   67.2500 C   0  0  0  0  0  0  0  0  0  0  0  0
    1.2236   69.8901   60.5324 H   0  0  0  0  0  0  0  0  0  0  0  0
    3.2809   68.6471   61.2024 H   0  0  0  0  0  0  0  0  0  0  0  0
    1.4202   67.6347   64.9793 H   0  0  0  0  0  0  0  0  0  0  0  0
   -0.6300   68.8813   64.2940 H   0  0  0  0  0  0  0  0  0  0  0  0
   -1.8031   70.1871   62.6110 H   0  0  0  0  0  0  0  0  0  0  0  0
   -0.9663   70.7357   61.1340 H   0  0  0  0  0  0  0  0  0  0  0  0
    4.0218   67.5613   65.9193 H   0  0  0  0  0  0  0  0  0  0  0  0
    7.2649   70.2757   66.1030 H   0  0  0  0  0  0  0  0  0  0  0  0
    7.5373   71.2234   68.3963 H   0  0  0  0  0  0  0  0  0  0  0  0
    5.5942   71.3065   69.9550 H   0  0  0  0  0  0  0  0  0  0  0  0
    3.3644   70.4662   69.2192 H   0  0  0  0  0  0  0  0  0  0  0  0
    3.0810   69.5255   66.9263 H   0  0  0  0  0  0  0  0  0  0  0  0
  2  1  2  0
  3  1  2  0
  5  4  2  0
  6  5  1  0
  7  1  1  0
  7  6  2  0
  8  7  1  0
  9  8  2  0
  9  4  1  0
 10  4  1  0
 11  1  1  0
 12 11  1  0
 13 12  2  0
 14 12  1  0
 15 14  2  0
 16 15  1  0
 17 16  2  0
 18 17  1  0
 19 18  2  0
 19 14  1  0
  5 20  1  0
  6 21  1  0
  8 22  1  0
  9 23  1  0
 10 24  1  0
 10 25  1  0
 11 26  1  0
 15 27  1  0
 16 28  1  0
 17 29  1  0
 18 30  1  0
 19 31  1  0
M  END
>  <score>  (4) 
-9.352

$$$$
=
     RDKit          3D

 31 32  0  0  0  0  0  0  0  0999 V2000
    3.3710   68.3140   64.4150 S   0  0  0  0  0  6  0  0  0  0  0  0
    3.5080   69.1390   63.2350 O   0  0  0  0  0  0  0  0  0  0  0  0
    3.8190   66.9410   64.4690 O   0  0  0  0  0  0  0  0  0  0  0  0
    5.4720   70.5520   67.8180 C   0  0  0  0  0  0  0  0  0  0  0  0
    6.1750   70.1910   66.6640 C   0  0  0  0  0  0  0  0  0  0  0  0
    5.5380   69.5170   65.6180 C   0  0  0  0  0  0  0  0  0  0  0  0
    4.1910   69.1730   65.7460 C   0  0  0  0  0  0  0  0  0  0  0  0
    3.4920   69.4650   66.9180 C   0  0  0  0  0  0  0  0  0  0  0  0
    4.1440   70.1380   67.9550 C   0  0  0  0  0  0  0  0  0  0  0  0
    6.1490   71.1140   68.9040 N   0  0  0  0  0  0  0  0  0  0  0  0
    1.7940   68.3930   64.9560 N   0  0  0  0  0  0  0  0  0  0  0  0
    1.2520   67.4350   65.8260 C   0  0  0  0  0  0  0  0  0  0  0  0
    1.8710   66.4740   66.2510 O   0  0  0  0  0  0  0  0  0  0  0  0
   -0.1640   67.6670   66.2260 C   0  0  0  0  0  0  0  0  0  0  0  0
   -0.7930   66.9320   67.2400 C   0  0  0  0  0  0  0  0  0  0  0  0
   -2.1310   67.1810   67.5580 C   0  0  0  0  0  0  0  0  0  0  0  0
   -2.8440   68.1610   66.8690 C   0  0  0  0  0  0  0  0  0  0  0  0
   -2.2220   68.9030   65.8660 C   0  0  0  0  0  0  0  0  0  0  0  0
   -0.8850   68.6590   65.5470 C   0  0  0  0  0  0  0  0  0  0  0  0
    7.2429   70.4407   66.5784 H   0  0  0  0  0  0  0  0  0  0  0  0
    6.0925   69.2603   64.7033 H   0  0  0  0  0  0  0  0  0  0  0  0
    2.4381   69.1684   67.0246 H   0  0  0  0  0  0  0  0  0  0  0  0
    3.6049   70.3446   68.8913 H   0  0  0  0  0  0  0  0  0  0  0  0
    5.6299   71.3793   69.7531 H   0  0  0  0  0  0  0  0  0  0  0  0
    7.1670   71.2628   68.8552 H   0  0  0  0  0  0  0  0  0  0  0  0
    1.1983   69.1717   64.6403 H   0  0  0  0  0  0  0  0  0  0  0  0
   -0.2332   66.1585   67.7861 H   0  0  0  0  0  0  0  0  0  0  0  0
   -2.6227   66.6023   68.3539 H   0  0  0  0  0  0  0  0  0  0  0  0
   -3.8990   68.3491   67.1172 H   0  0  0  0  0  0  0  0  0  0  0  0
   -2.7840   69.6797   65.3266 H   0  0  0  0  0  0  0  0  0  0  0  0
   -0.3945   69.2485   64.7584 H   0  0  0  0  0  0  0  0  0  0  0  0
  2  1  2  0
  3  1  2  0
  5  4  2  0
  6  5  1  0
  7  1  1  0
  7  6  2  0
  8  7  1  0
  9  8  2  0
  9  4  1  0
 10  4  1  0
 11  1  1  0
 12 11  1  0
 13 12  2  0
 14 12  1  0
 15 14  2  0
 16 15  1  0
 17 16  2  0
 18 17  1  0
 19 18  2  0
 19 14  1  0
  5 20  1  0
  6 21  1  0
  8 22  1  0
  9 23  1  0
 10 24  1  0
 10 25  1  0
 11 26  1  0
 15 27  1  0
 16 28  1  0
 17 29  1  0
 18 30  1  0
 19 31  1  0
M  END
>  <score>  (5) 
-8.635

$$$$
=
     RDKit          3D

 31 32  0  0  0  0  0  0  0  0999 V2000
    1.0250   68.4800   67.4110 S   0  0  0  0  0  6  0  0  0  0  0  0
    0.2540   69.5460   68.0100 O   0  0  0  0  0  0  0  0  0  0  0  0
    0.6290   67.8130   66.1910 O   0  0  0  0  0  0  0  0  0  0  0  0
    5.2570   70.0950   66.7180 C   0  0  0  0  0  0  0  0  0  0  0  0
    4.6040   70.3110   67.9360 C   0  0  0  0  0  0  0  0  0  0  0  0
    3.3170   69.8130   68.1580 C   0  0  0  0  0  0  0  0  0  0  0  0
    2.6670   69.1200   67.1350 C   0  0  0  0  0  0  0  0  0  0  0  0
    3.2760   68.9530   65.8900 C   0  0  0  0  0  0  0  0  0  0  0  0
    4.5630   69.4580   65.6850 C   0  0  0  0  0  0  0  0  0  0  0  0
    6.4910   70.7020   66.4660 N   0  0  0  0  0  0  0  0  0  0  0  0
    1.3610   67.3300   68.5730 N   0  0  0  0  0  0  0  0  0  0  0  0
    0.3620   66.5310   69.1480 C   0  0  0  0  0  0  0  0  0  0  0  0
   -0.8220   66.6090   68.8620 O   0  0  0  0  0  0  0  0  0  0  0  0
    0.8380   65.5410   70.1550 C   0  0  0  0  0  0  0  0  0  0  0  0
    2.0780   64.8960   70.0520 C   0  0  0  0  0  0  0  0  0  0  0  0
    2.4620   63.9600   71.0170 C   0  0  0  0  0  0  0  0  0  0  0  0
    1.6140   63.6670   72.0840 C   0  0  0  0  0  0  0  0  0  0  0  0
    0.3830   64.3120   72.1980 C   0  0  0  0  0  0  0  0  0  0  0  0
   -0.0030   65.2480   71.2380 C   0  0  0  0  0  0  0  0  0  0  0  0
    5.1100   70.8803   68.7296 H   0  0  0  0  0  0  0  0  0  0  0  0
    2.8216   69.9654   69.1282 H   0  0  0  0  0  0  0  0  0  0  0  0
    2.7486   68.4295   65.0790 H   0  0  0  0  0  0  0  0  0  0  0  0
    5.0362   69.3528   64.6976 H   0  0  0  0  0  0  0  0  0  0  0  0
    6.9701   70.5416   65.5684 H   0  0  0  0  0  0  0  0  0  0  0  0
    6.9210   71.3096   67.1779 H   0  0  0  0  0  0  0  0  0  0  0  0
    2.3363   67.2026   68.8786 H   0  0  0  0  0  0  0  0  0  0  0  0
    2.7494   65.1263   69.2116 H   0  0  0  0  0  0  0  0  0  0  0  0
    3.4351   63.4538   70.9341 H   0  0  0  0  0  0  0  0  0  0  0  0
    1.9167   62.9252   72.8378 H   0  0  0  0  0  0  0  0  0  0  0  0
   -0.2826   64.0833   73.0433 H   0  0  0  0  0  0  0  0  0  0  0  0
   -0.9726   65.7590   71.3313 H   0  0  0  0  0  0  0  0  0  0  0  0
  2  1  2  0
  3  1  2  0
  5  4  2  0
  6  5  1  0
  7  1  1  0
  7  6  2  0
  8  7  1  0
  9  8  2  0
  9  4  1  0
 10  4  1  0
 11  1  1  0
 12 11  1  0
 13 12  2  0
 14 12  1  0
 15 14  2  0
 16 15  1  0
 17 16  2  0
 18 17  1  0
 19 18  2  0
 19 14  1  0
  5 20  1  0
  6 21  1  0
  8 22  1  0
  9 23  1  0
 10 24  1  0
 10 25  1  0
 11 26  1  0
 15 27  1  0
 16 28  1  0
 17 29  1  0
 18 30  1  0
 19 31  1  0
M  END
>  <score>  (6) 
-8.612

$$$$
=
     RDKit          3D

 31 32  0  0  0  0  0  0  0  0999 V2000
    1.6030   68.9290   67.4100 S   0  0  0  0  0  6  0  0  0  0  0  0
    1.6500   67.5210   67.7340 O   0  0  0  0  0  0  0  0  0  0  0  0
    0.5890   69.8200   67.9290 O   0  0  0  0  0  0  0  0  0  0  0  0
    5.6450   70.7390   68.5860 C   0  0  0  0  0  0  0  0  0  0  0  0
    5.4510   70.2010   67.3090 C   0  0  0  0  0  0  0  0  0  0  0  0
    4.2180   69.6560   66.9410 C   0  0  0  0  0  0  0  0  0  0  0  0
    3.1800   69.6220   67.8740 C   0  0  0  0  0  0  0  0  0  0  0  0
    3.3760   70.0920   69.1730 C   0  0  0  0  0  0  0  0  0  0  0  0
    4.6150   70.6330   69.5260 C   0  0  0  0  0  0  0  0  0  0  0  0
    6.9160   71.1680   68.9810 N   0  0  0  0  0  0  0  0  0  0  0  0
    1.6900   69.1120   65.7530 N   0  0  0  0  0  0  0  0  0  0  0  0
    0.7030   68.6100   64.8910 C   0  0  0  0  0  0  0  0  0  0  0  0
   -0.2830   67.9990   65.2670 O   0  0  0  0  0  0  0  0  0  0  0  0
    0.9260   68.8790   63.4430 C   0  0  0  0  0  0  0  0  0  0  0  0
    2.1160   68.5360   62.7850 C   0  0  0  0  0  0  0  0  0  0  0  0
    2.2750   68.8320   61.4280 C   0  0  0  0  0  0  0  0  0  0  0  0
    1.2530   69.4680   60.7250 C   0  0  0  0  0  0  0  0  0  0  0  0
    0.0630   69.8030   61.3710 C   0  0  0  0  0  0  0  0  0  0  0  0
   -0.1010   69.5070   62.7250 C   0  0  0  0  0  0  0  0  0  0  0  0
    6.2796   70.2071   66.5856 H   0  0  0  0  0  0  0  0  0  0  0  0
    4.0668   69.2579   65.9268 H   0  0  0  0  0  0  0  0  0  0  0  0
    2.5631   70.0372   69.9120 H   0  0  0  0  0  0  0  0  0  0  0  0
    4.7823   70.9799   70.5564 H   0  0  0  0  0  0  0  0  0  0  0  0
    7.0568   71.5638   69.9215 H   0  0  0  0  0  0  0  0  0  0  0  0
    7.7114   71.0882   68.3315 H   0  0  0  0  0  0  0  0  0  0  0  0
    2.4959   69.6106   65.3494 H   0  0  0  0  0  0  0  0  0  0  0  0
    2.9244   68.0340   63.3367 H   0  0  0  0  0  0  0  0  0  0  0  0
    3.2091   68.5623   60.9136 H   0  0  0  0  0  0  0  0  0  0  0  0
    1.3852   69.7060   59.6592 H   0  0  0  0  0  0  0  0  0  0  0  0
   -0.7451   70.2998   60.8140 H   0  0  0  0  0  0  0  0  0  0  0  0
   -1.0418   69.7681   63.2317 H   0  0  0  0  0  0  0  0  0  0  0  0
  2  1  2  0
  3  1  2  0
  5  4  2  0
  6  5  1  0
  7  1  1  0
  7  6  2  0
  8  7  1  0
  9  8  2  0
  9  4  1  0
 10  4  1  0
 11  1  1  0
 12 11  1  0
 13 12  2  0
 14 12  1  0
 15 14  2  0
 16 15  1  0
 17 16  2  0
 18 17  1  0
 19 18  2  0
 19 14  1  0
  5 20  1  0
  6 21  1  0
  8 22  1  0
  9 23  1  0
 10 24  1  0
 10 25  1  0
 11 26  1  0
 15 27  1  0
 16 28  1  0
 17 29  1  0
 18 30  1  0
 19 31  1  0
M  END
>  <score>  (7) 
-8.553

$$$$
=
     RDKit          3D

 31 32  0  0  0  0  0  0  0  0999 V2000
    0.6440   63.2640   72.1850 S   0  0  0  0  0  6  0  0  0  0  0  0
   -0.7030   62.7660   72.3490 O   0  0  0  0  0  0  0  0  0  0  0  0
    1.4150   63.8180   73.2760 O   0  0  0  0  0  0  0  0  0  0  0  0
    3.1580   59.8520   70.4420 C   0  0  0  0  0  0  0  0  0  0  0  0
    3.0370   61.0670   69.7590 C   0  0  0  0  0  0  0  0  0  0  0  0
    2.2800   62.1150   70.2900 C   0  0  0  0  0  0  0  0  0  0  0  0
    1.6110   61.9300   71.5020 C   0  0  0  0  0  0  0  0  0  0  0  0
    1.6660   60.7020   72.1630 C   0  0  0  0  0  0  0  0  0  0  0  0
    2.4260   59.6640   71.6180 C   0  0  0  0  0  0  0  0  0  0  0  0
    3.8150   58.7730   69.8430 N   0  0  0  0  0  0  0  0  0  0  0  0
    0.6810   64.3280   70.9000 N   0  0  0  0  0  0  0  0  0  0  0  0
    0.1270   65.6140   70.9760 C   0  0  0  0  0  0  0  0  0  0  0  0
   -0.4280   66.0600   71.9670 O   0  0  0  0  0  0  0  0  0  0  0  0
    0.2640   66.4410   69.7440 C   0  0  0  0  0  0  0  0  0  0  0  0
    1.4010   67.2160   69.4770 C   0  0  0  0  0  0  0  0  0  0  0  0
    1.4640   67.9880   68.3140 C   0  0  0  0  0  0  0  0  0  0  0  0
    0.3990   67.9890   67.4140 C   0  0  0  0  0  0  0  0  0  0  0  0
   -0.7310   67.2120   67.6690 C   0  0  0  0  0  0  0  0  0  0  0  0
   -0.7970   66.4380   68.8290 C   0  0  0  0  0  0  0  0  0  0  0  0
    3.5441   61.1991   68.7918 H   0  0  0  0  0  0  0  0  0  0  0  0
    2.2118   63.0758   69.7588 H   0  0  0  0  0  0  0  0  0  0  0  0
    1.1163   60.5528   73.1040 H   0  0  0  0  0  0  0  0  0  0  0  0
    2.4486   58.6860   72.1209 H   0  0  0  0  0  0  0  0  0  0  0  0
    3.9031   57.8793   70.3474 H   0  0  0  0  0  0  0  0  0  0  0  0
    4.2109   58.8718   68.8973 H   0  0  0  0  0  0  0  0  0  0  0  0
    1.1263   64.0298   70.0204 H   0  0  0  0  0  0  0  0  0  0  0  0
    2.2442   67.2165   70.1834 H   0  0  0  0  0  0  0  0  0  0  0  0
    2.3566   68.5969   68.1078 H   0  0  0  0  0  0  0  0  0  0  0  0
    0.4500   68.6028   66.5026 H   0  0  0  0  0  0  0  0  0  0  0  0
   -1.5693   67.2091   66.9568 H   0  0  0  0  0  0  0  0  0  0  0  0
   -1.6871   65.8223   69.0257 H   0  0  0  0  0  0  0  0  0  0  0  0
  2  1  2  0
  3  1  2  0
  5  4  2  0
  6  5  1  0
  7  1  1  0
  7  6  2  0
  8  7  1  0
  9  8  2  0
  9  4  1  0
 10  4  1  0
 11  1  1  0
 12 11  1  0
 13 12  2  0
 14 12  1  0
 15 14  2  0
 16 15  1  0
 17 16  2  0
 18 17  1  0
 19 18  2  0
 19 14  1  0
  5 20  1  0
  6 21  1  0
  8 22  1  0
  9 23  1  0
 10 24  1  0
 10 25  1  0
 11 26  1  0
 15 27  1  0
 16 28  1  0
 17 29  1  0
 18 30  1  0
 19 31  1  0
M  END
>  <score>  (8) 
-7.567

$$$$
=
     RDKit          3D

 31 32  0  0  0  0  0  0  0  0999 V2000
    4.4970   60.5550   71.7860 S   0  0  0  0  0  6  0  0  0  0  0  0
    5.4110   60.9050   72.8500 O   0  0  0  0  0  0  0  0  0  0  0  0
    4.9400   60.1990   70.4560 O   0  0  0  0  0  0  0  0  0  0  0  0
    1.9230   57.0830   73.3070 C   0  0  0  0  0  0  0  0  0  0  0  0
    2.4620   58.0140   74.2020 C   0  0  0  0  0  0  0  0  0  0  0  0
    3.2400   59.0810   73.7430 C   0  0  0  0  0  0  0  0  0  0  0  0
    3.5060   59.1950   72.3770 C   0  0  0  0  0  0  0  0  0  0  0  0
    3.0330   58.2390   71.4780 C   0  0  0  0  0  0  0  0  0  0  0  0
    2.2580   57.1780   71.9530 C   0  0  0  0  0  0  0  0  0  0  0  0
    1.2510   55.9550   73.7880 N   0  0  0  0  0  0  0  0  0  0  0  0
    3.3200   61.7330   71.6680 N   0  0  0  0  0  0  0  0  0  0  0  0
    3.5410   62.9500   71.0050 C   0  0  0  0  0  0  0  0  0  0  0  0
    4.5960   63.2530   70.4720 O   0  0  0  0  0  0  0  0  0  0  0  0
    2.3780   63.8800   70.9760 C   0  0  0  0  0  0  0  0  0  0  0  0
    2.3240   64.9970   70.1320 C   0  0  0  0  0  0  0  0  0  0  0  0
    1.2140   65.8460   70.1630 C   0  0  0  0  0  0  0  0  0  0  0  0
    0.1570   65.5840   71.0340 C   0  0  0  0  0  0  0  0  0  0  0  0
    0.1990   64.4690   71.8690 C   0  0  0  0  0  0  0  0  0  0  0  0
    1.3050   63.6170   71.8390 C   0  0  0  0  0  0  0  0  0  0  0  0
    2.2712   57.9049   75.2798 H   0  0  0  0  0  0  0  0  0  0  0  0
    3.6384   59.8230   74.4506 H   0  0  0  0  0  0  0  0  0  0  0  0
    3.2677   58.3196   70.4064 H   0  0  0  0  0  0  0  0  0  0  0  0
    1.9065   56.4067   71.2519 H   0  0  0  0  0  0  0  0  0  0  0  0
    0.8550   55.2709   73.1276 H   0  0  0  0  0  0  0  0  0  0  0  0
    1.1520   55.8082   74.8027 H   0  0  0  0  0  0  0  0  0  0  0  0
    2.3995   61.5606   72.0968 H   0  0  0  0  0  0  0  0  0  0  0  0
    3.1564   65.2062   69.4439 H   0  0  0  0  0  0  0  0  0  0  0  0
    1.1742   66.7222   69.4992 H   0  0  0  0  0  0  0  0  0  0  0  0
   -0.7114   66.2586   71.0621 H   0  0  0  0  0  0  0  0  0  0  0  0
   -0.6383   64.2602   72.5511 H   0  0  0  0  0  0  0  0  0  0  0  0
    1.3344   62.7351   72.4958 H   0  0  0  0  0  0  0  0  0  0  0  0
  2  1  2  0
  3  1  2  0
  5  4  2  0
  6  5  1  0
  7  1  1  0
  7  6  2  0
  8  7  1  0
  9  8  2  0
  9  4  1  0
 10  4  1  0
 11  1  1  0
 12 11  1  0
 13 12  2  0
 14 12  1  0
 15 14  2  0
 16 15  1  0
 17 16  2  0
 18 17  1  0
 19 18  2  0
 19 14  1  0
  5 20  1  0
  6 21  1  0
  8 22  1  0
  9 23  1  0
 10 24  1  0
 10 25  1  0
 11 26  1  0
 15 27  1  0
 16 28  1  0
 17 29  1  0
 18 30  1  0
 19 31  1  0
M  END
>  <score>  (9) 
-7.368

$$$$
