=
     RDKit          3D

 56 59  0  0  0  0  0  0  0  0999 V2000
    0.8140   66.6560   69.8830 C   0  0  0  0  0  0  0  0  0  0  0  0
    1.5890   67.9250   69.5060 C   0  0  0  0  0  0  0  0  0  0  0  0
    1.7140   68.1310   68.0000 C   0  0  0  0  0  0  0  0  0  0  0  0
    0.3410   68.1110   67.3650 N   0  0  0  0  0  4  0  0  0  0  0  0
   -0.4040   66.8320   67.6480 C   0  0  0  0  0  0  0  0  0  0  0  0
   -0.5350   66.6270   69.1510 C   0  0  0  0  0  0  0  0  0  0  0  0
    2.3340   59.9290   71.9560 C   0  0  0  0  0  0  0  0  0  0  0  0
    1.3870   60.3720   72.9010 C   0  0  0  0  0  0  0  0  0  0  0  0
    0.8330   61.6560   72.8410 C   0  0  0  0  0  0  0  0  0  0  0  0
    1.2410   62.4940   71.8190 C   0  0  0  0  0  0  0  0  0  0  0  0
    2.1800   62.0440   70.8900 C   0  0  0  0  0  0  0  0  0  0  0  0
    2.7420   60.7790   70.9280 C   0  0  0  0  0  0  0  0  0  0  0  0
    2.4410   63.1090   69.9180 C   0  0  0  0  0  0  0  0  0  0  0  0
    3.2000   63.0630   68.9710 O   0  0  0  0  0  0  0  0  0  0  0  0
    1.5900   64.2780   70.3090 C   0  0  0  0  0  0  0  0  0  0  0  0
    1.6210   65.4130   69.5960 C   0  0  0  0  0  0  0  0  0  0  0  0
    0.8020   63.9000   71.5400 C   0  0  0  0  0  0  0  0  0  0  0  0
    3.2880   57.9570   71.0250 C   0  0  0  0  0  0  0  0  0  0  0  0
    2.7750   58.6500   72.1570 O   0  0  0  0  0  0  0  0  0  0  0  0
    0.3930   68.3910   65.8740 C   0  0  0  0  0  0  0  0  0  0  0  0
    1.6850   67.9570   65.2390 C   0  0  0  0  0  0  0  0  0  0  0  0
    2.6550   68.8980   64.8680 C   0  0  0  0  0  0  0  0  0  0  0  0
    3.8610   68.4780   64.3080 C   0  0  0  0  0  0  0  0  0  0  0  0
    4.1160   67.1190   64.1120 C   0  0  0  0  0  0  0  0  0  0  0  0
    3.1600   66.1710   64.4710 C   0  0  0  0  0  0  0  0  0  0  0  0
    1.9510   66.5960   65.0310 C   0  0  0  0  0  0  0  0  0  0  0  0
    3.2770   64.8170   64.3410 O   0  0  0  0  0  0  0  0  0  0  0  0
    4.5410   64.3150   63.9200 C   0  0  0  0  0  0  0  0  0  0  0  0
    0.6229   66.6739   70.9661 H   0  0  0  0  0  0  0  0  0  0  0  0
    1.0671   68.7931   69.9349 H   0  0  0  0  0  0  0  0  0  0  0  0
    2.6080   67.8149   69.9053 H   0  0  0  0  0  0  0  0  0  0  0  0
    2.1937   69.1010   67.8026 H   0  0  0  0  0  0  0  0  0  0  0  0
    2.3243   67.3221   67.5719 H   0  0  0  0  0  0  0  0  0  0  0  0
   -0.1861   68.8780   67.8064 H   0  0  0  0  0  0  0  0  0  0  0  0
   -1.4067   66.8876   67.1992 H   0  0  0  0  0  0  0  0  0  0  0  0
    0.1520   65.9871   67.2156 H   0  0  0  0  0  0  0  0  0  0  0  0
   -1.1718   67.4257   69.5590 H   0  0  0  0  0  0  0  0  0  0  0  0
   -0.9723   65.6301   69.3090 H   0  0  0  0  0  0  0  0  0  0  0  0
    1.0751   59.6911   73.7066 H   0  0  0  0  0  0  0  0  0  0  0  0
    0.0945   61.9890   73.5851 H   0  0  0  0  0  0  0  0  0  0  0  0
    3.4799   60.4576   70.1782 H   0  0  0  0  0  0  0  0  0  0  0  0
    2.2933   65.4409   68.7258 H   0  0  0  0  0  0  0  0  0  0  0  0
    1.0474   64.5630   72.3828 H   0  0  0  0  0  0  0  0  0  0  0  0
   -0.2850   63.9888   71.3967 H   0  0  0  0  0  0  0  0  0  0  0  0
    3.9111   57.1153   71.3617 H   0  0  0  0  0  0  0  0  0  0  0  0
    2.4529   57.5756   70.4191 H   0  0  0  0  0  0  0  0  0  0  0  0
    3.8966   58.6444   70.4191 H   0  0  0  0  0  0  0  0  0  0  0  0
   -0.4344   67.8538   65.3875 H   0  0  0  0  0  0  0  0  0  0  0  0
    0.3106   69.4798   65.7408 H   0  0  0  0  0  0  0  0  0  0  0  0
    2.4645   69.9708   65.0190 H   0  0  0  0  0  0  0  0  0  0  0  0
    4.6171   69.2226   64.0185 H   0  0  0  0  0  0  0  0  0  0  0  0
    5.0722   66.7968   63.6739 H   0  0  0  0  0  0  0  0  0  0  0  0
    1.1948   65.8488   65.3135 H   0  0  0  0  0  0  0  0  0  0  0  0
    5.1516   64.0725   64.8023 H   0  0  0  0  0  0  0  0  0  0  0  0
    4.3925   63.4076   63.3162 H   0  0  0  0  0  0  0  0  0  0  0  0
    5.0555   65.0770   63.3162 H   0  0  0  0  0  0  0  0  0  0  0  0
  2  1  1  0
  3  2  1  0
  4  3  1  0
  5  4  1  0
  6  5  1  0
  6  1  1  0
  8  7  2  0
  9  8  1  0
 10  9  2  0
 11 10  1  0
 12  7  1  0
 12 11  2  0
 13 11  1  0
 14 13  2  0
 15 13  1  0
 16 15  2  0
 16  1  1  0
 17 15  1  0
 17 10  1  0
 19 18  1  0
 19  7  1  0
 20  4  1  0
 21 20  1  0
 22 21  2  0
 23 22  1  0
 24 23  2  0
 25 24  1  0
 26 25  2  0
 26 21  1  0
 27 25  1  0
 28 27  1  0
  1 29  1  0
  2 30  1  0
  2 31  1  0
  3 32  1  0
  3 33  1  0
  4 34  1  0
  5 35  1  0
  5 36  1  0
  6 37  1  0
  6 38  1  0
  8 39  1  0
  9 40  1  0
 12 41  1  0
 16 42  1  0
 17 43  1  0
 17 44  1  0
 18 45  1  0
 18 46  1  0
 18 47  1  0
 20 48  1  0
 20 49  1  0
 22 50  1  0
 23 51  1  0
 24 52  1  0
 26 53  1  0
 28 54  1  0
 28 55  1  0
 28 56  1  0
M  CHG  1   4   1
M  END
>  <score>  (1) 
-9.682

$$$$
=
     RDKit          3D

 56 59  0  0  0  0  0  0  0  0999 V2000
    3.4810   59.1560   71.6820 C   0  0  0  0  0  0  0  0  0  0  0  0
    3.3330   59.5970   70.2200 C   0  0  0  0  0  0  0  0  0  0  0  0
    3.0820   61.0930   70.0630 C   0  0  0  0  0  0  0  0  0  0  0  0
    4.1680   61.8710   70.7700 N   0  0  0  0  0  4  0  0  0  0  0  0
    4.2700   61.5190   72.2320 C   0  0  0  0  0  0  0  0  0  0  0  0
    4.5280   60.0270   72.3900 C   0  0  0  0  0  0  0  0  0  0  0  0
   -1.5490   55.3040   75.1050 C   0  0  0  0  0  0  0  0  0  0  0  0
   -0.5810   54.3490   74.7340 C   0  0  0  0  0  0  0  0  0  0  0  0
    0.5780   54.7090   74.0360 C   0  0  0  0  0  0  0  0  0  0  0  0
    0.7550   56.0420   73.7130 C   0  0  0  0  0  0  0  0  0  0  0  0
   -0.2110   56.9780   74.0850 C   0  0  0  0  0  0  0  0  0  0  0  0
   -1.3640   56.6460   74.7760 C   0  0  0  0  0  0  0  0  0  0  0  0
    0.2080   58.3060   73.6300 C   0  0  0  0  0  0  0  0  0  0  0  0
   -0.3880   59.3520   73.7850 O   0  0  0  0  0  0  0  0  0  0  0  0
    1.5230   58.1360   72.9330 C   0  0  0  0  0  0  0  0  0  0  0  0
    2.1560   59.1930   72.4040 C   0  0  0  0  0  0  0  0  0  0  0  0
    1.8980   56.6740   72.9760 C   0  0  0  0  0  0  0  0  0  0  0  0
   -2.7830   53.3740   75.7510 C   0  0  0  0  0  0  0  0  0  0  0  0
   -2.6200   54.7870   75.7820 O   0  0  0  0  0  0  0  0  0  0  0  0
    4.0170   63.3710   70.5820 C   0  0  0  0  0  0  0  0  0  0  0  0
    2.6360   63.8670   70.9100 C   0  0  0  0  0  0  0  0  0  0  0  0
    1.9490   63.3900   72.0350 C   0  0  0  0  0  0  0  0  0  0  0  0
    0.6810   63.8820   72.3420 C   0  0  0  0  0  0  0  0  0  0  0  0
    0.0830   64.8540   71.5370 C   0  0  0  0  0  0  0  0  0  0  0  0
    0.7510   65.3350   70.4120 C   0  0  0  0  0  0  0  0  0  0  0  0
    2.0220   64.8380   70.1060 C   0  0  0  0  0  0  0  0  0  0  0  0
    0.2910   66.2830   69.5430 O   0  0  0  0  0  0  0  0  0  0  0  0
    1.2560   67.1590   68.9710 C   0  0  0  0  0  0  0  0  0  0  0  0
    3.8278   58.1122   71.6978 H   0  0  0  0  0  0  0  0  0  0  0  0
    4.2577   59.3400   69.6826 H   0  0  0  0  0  0  0  0  0  0  0  0
    2.4560   59.0750   69.8097 H   0  0  0  0  0  0  0  0  0  0  0  0
    3.0830   61.3533   68.9942 H   0  0  0  0  0  0  0  0  0  0  0  0
    2.1071   61.3462   70.5051 H   0  0  0  0  0  0  0  0  0  0  0  0
    5.0525   61.5892   70.3238 H   0  0  0  0  0  0  0  0  0  0  0  0
    5.0988   62.0823   72.6856 H   0  0  0  0  0  0  0  0  0  0  0  0
    3.3256   61.7778   72.7331 H   0  0  0  0  0  0  0  0  0  0  0  0
    5.5177   59.7964   71.9688 H   0  0  0  0  0  0  0  0  0  0  0  0
    4.4734   59.7969   73.4643 H   0  0  0  0  0  0  0  0  0  0  0  0
   -0.7403   53.2935   74.9998 H   0  0  0  0  0  0  0  0  0  0  0  0
    1.3259   53.9537   73.7528 H   0  0  0  0  0  0  0  0  0  0  0  0
   -2.1044   57.4105   75.0542 H   0  0  0  0  0  0  0  0  0  0  0  0
    1.6668   60.1730   72.5050 H   0  0  0  0  0  0  0  0  0  0  0  0
    1.9877   56.2609   71.9605 H   0  0  0  0  0  0  0  0  0  0  0  0
    2.8705   56.4947   73.4578 H   0  0  0  0  0  0  0  0  0  0  0  0
   -2.8276   52.9874   76.7799 H   0  0  0  0  0  0  0  0  0  0  0  0
   -3.7159   53.1240   75.2246 H   0  0  0  0  0  0  0  0  0  0  0  0
   -1.9315   52.9181   75.2246 H   0  0  0  0  0  0  0  0  0  0  0  0
    4.7378   63.8810   71.2379 H   0  0  0  0  0  0  0  0  0  0  0  0
    4.2024   63.5903   69.5201 H   0  0  0  0  0  0  0  0  0  0  0  0
    2.4113   62.6258   72.6771 H   0  0  0  0  0  0  0  0  0  0  0  0
    0.1473   63.5015   73.2254 H   0  0  0  0  0  0  0  0  0  0  0  0
   -0.9153   65.2401   71.7907 H   0  0  0  0  0  0  0  0  0  0  0  0
    2.5499   65.2159   69.2180 H   0  0  0  0  0  0  0  0  0  0  0  0
    1.8132   67.6648   69.7733 H   0  0  0  0  0  0  0  0  0  0  0  0
    1.9540   66.5796   68.3488 H   0  0  0  0  0  0  0  0  0  0  0  0
    0.7466   67.9096   68.3488 H   0  0  0  0  0  0  0  0  0  0  0  0
  2  1  1  0
  3  2  1  0
  4  3  1  0
  5  4  1  0
  6  5  1  0
  6  1  1  0
  8  7  2  0
  9  8  1  0
 10  9  2  0
 11 10  1  0
 12  7  1  0
 12 11  2  0
 13 11  1  0
 14 13  2  0
 15 13  1  0
 16 15  2  0
 16  1  1  0
 17 15  1  0
 17 10  1  0
 19 18  1  0
 19  7  1  0
 20  4  1  0
 21 20  1  0
 22 21  2  0
 23 22  1  0
 24 23  2  0
 25 24  1  0
 26 25  2  0
 26 21  1  0
 27 25  1  0
 28 27  1  0
  1 29  1  0
  2 30  1  0
  2 31  1  0
  3 32  1  0
  3 33  1  0
  4 34  1  0
  5 35  1  0
  5 36  1  0
  6 37  1  0
  6 38  1  0
  8 39  1  0
  9 40  1  0
 12 41  1  0
 16 42  1  0
 17 43  1  0
 17 44  1  0
 18 45  1  0
 18 46  1  0
 18 47  1  0
 20 48  1  0
 20 49  1  0
 22 50  1  0
 23 51  1  0
 24 52  1  0
 26 53  1  0
 28 54  1  0
 28 55  1  0
 28 56  1  0
M  CHG  1   4   1
M  END
>  <score>  (2) 
-8.665

$$$$
=
     RDKit          3D

 56 59  0  0  0  0  0  0  0  0999 V2000
    3.2510   62.0540   70.4820 C   0  0  0  0  0  0  0  0  0  0  0  0
    1.8750   62.0060   69.8070 C   0  0  0  0  0  0  0  0  0  0  0  0
    0.9310   63.1050   70.2810 C   0  0  0  0  0  0  0  0  0  0  0  0
    1.5890   64.4560   70.1050 N   0  0  0  0  0  4  0  0  0  0  0  0
    2.9020   64.5560   70.8370 C   0  0  0  0  0  0  0  0  0  0  0  0
    3.8480   63.4620   70.3600 C   0  0  0  0  0  0  0  0  0  0  0  0
    1.8710   56.6030   74.9820 C   0  0  0  0  0  0  0  0  0  0  0  0
    1.6770   56.0460   73.7010 C   0  0  0  0  0  0  0  0  0  0  0  0
    1.8530   56.8030   72.5360 C   0  0  0  0  0  0  0  0  0  0  0  0
    2.2260   58.1270   72.6700 C   0  0  0  0  0  0  0  0  0  0  0  0
    2.4140   58.6670   73.9430 C   0  0  0  0  0  0  0  0  0  0  0  0
    2.2470   57.9400   75.1100 C   0  0  0  0  0  0  0  0  0  0  0  0
    2.8030   60.0740   73.8150 C   0  0  0  0  0  0  0  0  0  0  0  0
    3.0490   60.8480   74.7170 O   0  0  0  0  0  0  0  0  0  0  0  0
    2.8440   60.3860   72.3510 C   0  0  0  0  0  0  0  0  0  0  0  0
    3.1720   61.6140   71.9240 C   0  0  0  0  0  0  0  0  0  0  0  0
    2.4740   59.1360   71.5890 C   0  0  0  0  0  0  0  0  0  0  0  0
    0.4140   55.0410   76.0310 C   0  0  0  0  0  0  0  0  0  0  0  0
    1.6580   55.7300   76.0130 O   0  0  0  0  0  0  0  0  0  0  0  0
    0.6660   65.5990   70.4870 C   0  0  0  0  0  0  0  0  0  0  0  0
    0.4170   66.5580   69.3550 C   0  0  0  0  0  0  0  0  0  0  0  0
    1.3940   67.4880   68.9750 C   0  0  0  0  0  0  0  0  0  0  0  0
    1.1610   68.3500   67.9030 C   0  0  0  0  0  0  0  0  0  0  0  0
   -0.0440   68.2950   67.1990 C   0  0  0  0  0  0  0  0  0  0  0  0
   -1.0260   67.3780   67.5670 C   0  0  0  0  0  0  0  0  0  0  0  0
   -0.7900   66.5160   68.6430 C   0  0  0  0  0  0  0  0  0  0  0  0
   -2.2420   67.2110   66.9670 O   0  0  0  0  0  0  0  0  0  0  0  0
   -2.7940   68.3420   66.3010 C   0  0  0  0  0  0  0  0  0  0  0  0
    3.9167   61.3474   69.9649 H   0  0  0  0  0  0  0  0  0  0  0  0
    2.0152   62.1109   68.7210 H   0  0  0  0  0  0  0  0  0  0  0  0
    1.4145   61.0436   70.0751 H   0  0  0  0  0  0  0  0  0  0  0  0
    0.0040   63.0704   69.6899 H   0  0  0  0  0  0  0  0  0  0  0  0
    0.6978   62.9501   71.3448 H   0  0  0  0  0  0  0  0  0  0  0  0
    1.7910   64.5427   69.0987 H   0  0  0  0  0  0  0  0  0  0  0  0
    3.3542   65.5395   70.6416 H   0  0  0  0  0  0  0  0  0  0  0  0
    2.7244   64.4352   71.9158 H   0  0  0  0  0  0  0  0  0  0  0  0
    4.0937   63.6477   69.3040 H   0  0  0  0  0  0  0  0  0  0  0  0
    4.7399   63.4967   71.0029 H   0  0  0  0  0  0  0  0  0  0  0  0
    1.3800   54.9904   73.6147 H   0  0  0  0  0  0  0  0  0  0  0  0
    1.6988   56.3565   71.5426 H   0  0  0  0  0  0  0  0  0  0  0  0
    2.4045   58.3984   76.0975 H   0  0  0  0  0  0  0  0  0  0  0  0
    3.4039   62.3669   72.6917 H   0  0  0  0  0  0  0  0  0  0  0  0
    1.5681   59.2968   70.9861 H   0  0  0  0  0  0  0  0  0  0  0  0
    3.2531   58.8206   70.8794 H   0  0  0  0  0  0  0  0  0  0  0  0
    0.1048   54.8697   77.0726 H   0  0  0  0  0  0  0  0  0  0  0  0
   -0.3476   55.6459   75.5171 H   0  0  0  0  0  0  0  0  0  0  0  0
    0.5227   54.0745   75.5171 H   0  0  0  0  0  0  0  0  0  0  0  0
   -0.2982   65.1783   70.8083 H   0  0  0  0  0  0  0  0  0  0  0  0
    1.1576   66.1630   71.2934 H   0  0  0  0  0  0  0  0  0  0  0  0
    2.3465   67.5385   69.5230 H   0  0  0  0  0  0  0  0  0  0  0  0
    1.9318   69.0781   67.6102 H   0  0  0  0  0  0  0  0  0  0  0  0
   -0.2178   68.9764   66.3531 H   0  0  0  0  0  0  0  0  0  0  0  0
   -1.5651   65.7924   68.9357 H   0  0  0  0  0  0  0  0  0  0  0  0
   -3.1489   69.0692   67.0461 H   0  0  0  0  0  0  0  0  0  0  0  0
   -2.0226   68.8092   65.6712 H   0  0  0  0  0  0  0  0  0  0  0  0
   -3.6369   68.0213   65.6712 H   0  0  0  0  0  0  0  0  0  0  0  0
  2  1  1  0
  3  2  1  0
  4  3  1  0
  5  4  1  0
  6  5  1  0
  6  1  1  0
  8  7  2  0
  9  8  1  0
 10  9  2  0
 11 10  1  0
 12  7  1  0
 12 11  2  0
 13 11  1  0
 14 13  2  0
 15 13  1  0
 16 15  2  0
 16  1  1  0
 17 15  1  0
 17 10  1  0
 19 18  1  0
 19  7  1  0
 20  4  1  0
 21 20  1  0
 22 21  2  0
 23 22  1  0
 24 23  2  0
 25 24  1  0
 26 25  2  0
 26 21  1  0
 27 25  1  0
 28 27  1  0
  1 29  1  0
  2 30  1  0
  2 31  1  0
  3 32  1  0
  3 33  1  0
  4 34  1  0
  5 35  1  0
  5 36  1  0
  6 37  1  0
  6 38  1  0
  8 39  1  0
  9 40  1  0
 12 41  1  0
 16 42  1  0
 17 43  1  0
 17 44  1  0
 18 45  1  0
 18 46  1  0
 18 47  1  0
 20 48  1  0
 20 49  1  0
 22 50  1  0
 23 51  1  0
 24 52  1  0
 26 53  1  0
 28 54  1  0
 28 55  1  0
 28 56  1  0
M  CHG  1   4   1
M  END
>  <score>  (3) 
-8.536

$$$$
=
     RDKit          3D

 56 59  0  0  0  0  0  0  0  0999 V2000
    0.4410   66.4030   70.5130 C   0  0  0  0  0  0  0  0  0  0  0  0
   -0.2420   65.2700   71.2890 C   0  0  0  0  0  0  0  0  0  0  0  0
    0.0910   63.8830   70.7500 C   0  0  0  0  0  0  0  0  0  0  0  0
    1.5910   63.6980   70.7030 N   0  0  0  0  0  4  0  0  0  0  0  0
    2.2750   64.7510   69.8690 C   0  0  0  0  0  0  0  0  0  0  0  0
    1.9480   66.1360   70.4100 C   0  0  0  0  0  0  0  0  0  0  0  0
    1.4060   68.8550   63.8110 C   0  0  0  0  0  0  0  0  0  0  0  0
    2.6300   69.1300   64.4550 C   0  0  0  0  0  0  0  0  0  0  0  0
    2.8450   68.7970   65.7980 C   0  0  0  0  0  0  0  0  0  0  0  0
    1.8170   68.1830   66.4890 C   0  0  0  0  0  0  0  0  0  0  0  0
    0.6110   67.9160   65.8410 C   0  0  0  0  0  0  0  0  0  0  0  0
    0.3730   68.2360   64.5140 C   0  0  0  0  0  0  0  0  0  0  0  0
   -0.3060   67.2670   66.7810 C   0  0  0  0  0  0  0  0  0  0  0  0
   -1.4390   66.8930   66.5560 O   0  0  0  0  0  0  0  0  0  0  0  0
    0.4180   67.1460   68.0870 C   0  0  0  0  0  0  0  0  0  0  0  0
   -0.1790   66.5860   69.1490 C   0  0  0  0  0  0  0  0  0  0  0  0
    1.7990   67.7330   67.9190 C   0  0  0  0  0  0  0  0  0  0  0  0
    2.4130   68.7950   61.6550 C   0  0  0  0  0  0  0  0  0  0  0  0
    1.3600   69.2430   62.5000 O   0  0  0  0  0  0  0  0  0  0  0  0
    1.9850   62.3040   70.2480 C   0  0  0  0  0  0  0  0  0  0  0  0
    3.1370   61.7340   71.0290 C   0  0  0  0  0  0  0  0  0  0  0  0
    4.4260   61.6960   70.4820 C   0  0  0  0  0  0  0  0  0  0  0  0
    5.4900   61.1920   71.2300 C   0  0  0  0  0  0  0  0  0  0  0  0
    5.2830   60.7230   72.5290 C   0  0  0  0  0  0  0  0  0  0  0  0
    4.0060   60.7510   73.0860 C   0  0  0  0  0  0  0  0  0  0  0  0
    2.9420   61.2550   72.3330 C   0  0  0  0  0  0  0  0  0  0  0  0
    3.6620   60.3320   74.3390 O   0  0  0  0  0  0  0  0  0  0  0  0
    2.3180   60.5600   74.7510 C   0  0  0  0  0  0  0  0  0  0  0  0
    0.2910   67.3427   71.0648 H   0  0  0  0  0  0  0  0  0  0  0  0
    0.0800   65.3228   72.3395 H   0  0  0  0  0  0  0  0  0  0  0  0
   -1.3277   65.4094   71.1805 H   0  0  0  0  0  0  0  0  0  0  0  0
   -0.3506   63.1199   71.4078 H   0  0  0  0  0  0  0  0  0  0  0  0
   -0.3195   63.7798   69.7347 H   0  0  0  0  0  0  0  0  0  0  0  0
    1.9198   63.8126   71.6724 H   0  0  0  0  0  0  0  0  0  0  0  0
    3.3631   64.5936   69.9040 H   0  0  0  0  0  0  0  0  0  0  0  0
    1.9209   64.6758   68.8303 H   0  0  0  0  0  0  0  0  0  0  0  0
    2.3898   66.2332   71.4127 H   0  0  0  0  0  0  0  0  0  0  0  0
    2.3629   66.8698   69.7034 H   0  0  0  0  0  0  0  0  0  0  0  0
    3.4362   69.6184   63.8880 H   0  0  0  0  0  0  0  0  0  0  0  0
    3.8043   69.0176   66.2891 H   0  0  0  0  0  0  0  0  0  0  0  0
   -0.5912   68.0110   64.0348 H   0  0  0  0  0  0  0  0  0  0  0  0
   -1.2106   66.2288   69.0145 H   0  0  0  0  0  0  0  0  0  0  0  0
    1.9504   68.5831   68.6005 H   0  0  0  0  0  0  0  0  0  0  0  0
    2.6002   67.0164   68.1525 H   0  0  0  0  0  0  0  0  0  0  0  0
    3.2513   68.4383   62.2715 H   0  0  0  0  0  0  0  0  0  0  0  0
    2.0494   67.9737   61.0200 H   0  0  0  0  0  0  0  0  0  0  0  0
    2.7526   69.6266   61.0200 H   0  0  0  0  0  0  0  0  0  0  0  0
    1.1174   61.6383   70.3670 H   0  0  0  0  0  0  0  0  0  0  0  0
    2.3046   62.3789   69.1981 H   0  0  0  0  0  0  0  0  0  0  0  0
    4.5995   62.0645   69.4602 H   0  0  0  0  0  0  0  0  0  0  0  0
    6.4993   61.1638   70.7936 H   0  0  0  0  0  0  0  0  0  0  0  0
    6.1288   60.3311   73.1130 H   0  0  0  0  0  0  0  0  0  0  0  0
    1.9331   61.2765   72.7709 H   0  0  0  0  0  0  0  0  0  0  0  0
    2.2678   60.5685   75.8498 H   0  0  0  0  0  0  0  0  0  0  0  0
    1.9743   61.5293   74.3607 H   0  0  0  0  0  0  0  0  0  0  0  0
    1.6738   59.7583   74.3607 H   0  0  0  0  0  0  0  0  0  0  0  0
  2  1  1  0
  3  2  1  0
  4  3  1  0
  5  4  1  0
  6  5  1  0
  6  1  1  0
  8  7  2  0
  9  8  1  0
 10  9  2  0
 11 10  1  0
 12  7  1  0
 12 11  2  0
 13 11  1  0
 14 13  2  0
 15 13  1  0
 16 15  2  0
 16  1  1  0
 17 15  1  0
 17 10  1  0
 19 18  1  0
 19  7  1  0
 20  4  1  0
 21 20  1  0
 22 21  2  0
 23 22  1  0
 24 23  2  0
 25 24  1  0
 26 25  2  0
 26 21  1  0
 27 25  1  0
 28 27  1  0
  1 29  1  0
  2 30  1  0
  2 31  1  0
  3 32  1  0
  3 33  1  0
  4 34  1  0
  5 35  1  0
  5 36  1  0
  6 37  1  0
  6 38  1  0
  8 39  1  0
  9 40  1  0
 12 41  1  0
 16 42  1  0
 17 43  1  0
 17 44  1  0
 18 45  1  0
 18 46  1  0
 18 47  1  0
 20 48  1  0
 20 49  1  0
 22 50  1  0
 23 51  1  0
 24 52  1  0
 26 53  1  0
 28 54  1  0
 28 55  1  0
 28 56  1  0
M  CHG  1   4   1
M  END
>  <score>  (4) 
-8.482

$$$$
=
     RDKit          3D

 56 59  0  0  0  0  0  0  0  0999 V2000
    1.6090   58.8350   74.2840 C   0  0  0  0  0  0  0  0  0  0  0  0
    1.8480   57.8200   73.1590 C   0  0  0  0  0  0  0  0  0  0  0  0
    2.4980   58.4330   71.9230 C   0  0  0  0  0  0  0  0  0  0  0  0
    3.7770   59.1390   72.3130 N   0  0  0  0  0  4  0  0  0  0  0  0
    3.5500   60.2050   73.3550 C   0  0  0  0  0  0  0  0  0  0  0  0
    2.9060   59.5940   74.5920 C   0  0  0  0  0  0  0  0  0  0  0  0
   -5.4540   60.1430   74.8010 C   0  0  0  0  0  0  0  0  0  0  0  0
   -5.2840   58.9160   75.4750 C   0  0  0  0  0  0  0  0  0  0  0  0
   -4.0260   58.3130   75.5960 C   0  0  0  0  0  0  0  0  0  0  0  0
   -2.9390   58.9550   75.0330 C   0  0  0  0  0  0  0  0  0  0  0  0
   -3.1200   60.1680   74.3680 C   0  0  0  0  0  0  0  0  0  0  0  0
   -4.3530   60.7850   74.2350 C   0  0  0  0  0  0  0  0  0  0  0  0
   -1.8260   60.6390   73.8670 C   0  0  0  0  0  0  0  0  0  0  0  0
   -1.6120   61.6600   73.2460 O   0  0  0  0  0  0  0  0  0  0  0  0
   -0.8040   59.6200   74.2670 C   0  0  0  0  0  0  0  0  0  0  0  0
    0.4860   59.7830   73.9400 C   0  0  0  0  0  0  0  0  0  0  0  0
   -1.5050   58.5180   75.0270 C   0  0  0  0  0  0  0  0  0  0  0  0
   -7.3100   60.8570   73.4930 C   0  0  0  0  0  0  0  0  0  0  0  0
   -6.7450   60.5950   74.7720 O   0  0  0  0  0  0  0  0  0  0  0  0
    4.5130   59.7030   71.1110 C   0  0  0  0  0  0  0  0  0  0  0  0
    4.1670   61.1390   70.8300 C   0  0  0  0  0  0  0  0  0  0  0  0
    5.1380   62.1450   70.9300 C   0  0  0  0  0  0  0  0  0  0  0  0
    4.8090   63.4680   70.6370 C   0  0  0  0  0  0  0  0  0  0  0  0
    3.5130   63.8050   70.2410 C   0  0  0  0  0  0  0  0  0  0  0  0
    2.5350   62.8170   70.1420 C   0  0  0  0  0  0  0  0  0  0  0  0
    2.8680   61.4920   70.4380 C   0  0  0  0  0  0  0  0  0  0  0  0
    1.2360   63.0020   69.7640 O   0  0  0  0  0  0  0  0  0  0  0  0
    0.3180   63.3960   70.7790 C   0  0  0  0  0  0  0  0  0  0  0  0
    1.3033   58.2871   75.1875 H   0  0  0  0  0  0  0  0  0  0  0  0
    2.5043   57.0239   73.5404 H   0  0  0  0  0  0  0  0  0  0  0  0
    0.8643   57.4344   72.8530 H   0  0  0  0  0  0  0  0  0  0  0  0
    2.7264   57.6377   71.1982 H   0  0  0  0  0  0  0  0  0  0  0  0
    1.8060   59.1590   71.4713 H   0  0  0  0  0  0  0  0  0  0  0  0
    4.3797   58.4185   72.7355 H   0  0  0  0  0  0  0  0  0  0  0  0
    4.5146   60.6558   73.6313 H   0  0  0  0  0  0  0  0  0  0  0  0
    2.8824   60.9764   72.9435 H   0  0  0  0  0  0  0  0  0  0  0  0
    3.6209   58.8940   75.0491 H   0  0  0  0  0  0  0  0  0  0  0  0
    2.6483   60.4213   75.2695 H   0  0  0  0  0  0  0  0  0  0  0  0
   -6.1612   58.4204   75.9165 H   0  0  0  0  0  0  0  0  0  0  0  0
   -3.9062   57.3555   76.1241 H   0  0  0  0  0  0  0  0  0  0  0  0
   -4.4594   61.7427   73.7044 H   0  0  0  0  0  0  0  0  0  0  0  0
    0.7490   60.6870   73.3711 H   0  0  0  0  0  0  0  0  0  0  0  0
   -1.3905   57.5519   74.5137 H   0  0  0  0  0  0  0  0  0  0  0  0
   -1.0982   58.3688   76.0381 H   0  0  0  0  0  0  0  0  0  0  0  0
   -8.3015   61.3168   73.6174 H   0  0  0  0  0  0  0  0  0  0  0  0
   -6.6548   61.5432   72.9363 H   0  0  0  0  0  0  0  0  0  0  0  0
   -7.4105   59.9136   72.9363 H   0  0  0  0  0  0  0  0  0  0  0  0
    5.5947   59.6334   71.2982 H   0  0  0  0  0  0  0  0  0  0  0  0
    4.2090   59.1138   70.2333 H   0  0  0  0  0  0  0  0  0  0  0  0
    6.1621   61.8902   71.2404 H   0  0  0  0  0  0  0  0  0  0  0  0
    5.5762   64.2521   70.7184 H   0  0  0  0  0  0  0  0  0  0  0  0
    3.2639   64.8506   70.0071 H   0  0  0  0  0  0  0  0  0  0  0  0
    2.0964   60.7117   70.3619 H   0  0  0  0  0  0  0  0  0  0  0  0
    0.7609   63.2059   71.7678 H   0  0  0  0  0  0  0  0  0  0  0  0
    0.0963   64.4685   70.6766 H   0  0  0  0  0  0  0  0  0  0  0  0
   -0.6122   62.8179   70.6766 H   0  0  0  0  0  0  0  0  0  0  0  0
  2  1  1  0
  3  2  1  0
  4  3  1  0
  5  4  1  0
  6  5  1  0
  6  1  1  0
  8  7  2  0
  9  8  1  0
 10  9  2  0
 11 10  1  0
 12  7  1  0
 12 11  2  0
 13 11  1  0
 14 13  2  0
 15 13  1  0
 16 15  2  0
 16  1  1  0
 17 15  1  0
 17 10  1  0
 19 18  1  0
 19  7  1  0
 20  4  1  0
 21 20  1  0
 22 21  2  0
 23 22  1  0
 24 23  2  0
 25 24  1  0
 26 25  2  0
 26 21  1  0
 27 25  1  0
 28 27  1  0
  1 29  1  0
  2 30  1  0
  2 31  1  0
  3 32  1  0
  3 33  1  0
  4 34  1  0
  5 35  1  0
  5 36  1  0
  6 37  1  0
  6 38  1  0
  8 39  1  0
  9 40  1  0
 12 41  1  0
 16 42  1  0
 17 43  1  0
 17 44  1  0
 18 45  1  0
 18 46  1  0
 18 47  1  0
 20 48  1  0
 20 49  1  0
 22 50  1  0
 23 51  1  0
 24 52  1  0
 26 53  1  0
 28 54  1  0
 28 55  1  0
 28 56  1  0
M  CHG  1   4   1
M  END
>  <score>  (5) 
-8.464

$$$$
=
     RDKit          3D

 56 59  0  0  0  0  0  0  0  0999 V2000
    0.4000   67.2830   68.9100 C   0  0  0  0  0  0  0  0  0  0  0  0
    1.2530   68.5530   68.7890 C   0  0  0  0  0  0  0  0  0  0  0  0
    2.0220   68.6400   67.4750 C   0  0  0  0  0  0  0  0  0  0  0  0
    1.0660   68.5010   66.3120 N   0  0  0  0  0  4  0  0  0  0  0  0
    0.2820   67.2150   66.3630 C   0  0  0  0  0  0  0  0  0  0  0  0
   -0.4920   67.1290   67.6710 C   0  0  0  0  0  0  0  0  0  0  0  0
    1.9860   61.8050   73.3070 C   0  0  0  0  0  0  0  0  0  0  0  0
    0.9680   62.5040   73.9870 C   0  0  0  0  0  0  0  0  0  0  0  0
    0.3810   63.6560   73.4470 C   0  0  0  0  0  0  0  0  0  0  0  0
    0.8280   64.0980   72.2160 C   0  0  0  0  0  0  0  0  0  0  0  0
    1.8370   63.3980   71.5540 C   0  0  0  0  0  0  0  0  0  0  0  0
    2.4330   62.2580   72.0660 C   0  0  0  0  0  0  0  0  0  0  0  0
    2.1270   64.0640   70.2820 C   0  0  0  0  0  0  0  0  0  0  0  0
    2.9460   63.7250   69.4510 O   0  0  0  0  0  0  0  0  0  0  0  0
    1.2190   65.2510   70.1910 C   0  0  0  0  0  0  0  0  0  0  0  0
    1.2610   66.0610   69.1230 C   0  0  0  0  0  0  0  0  0  0  0  0
    0.3660   65.2920   71.4360 C   0  0  0  0  0  0  0  0  0  0  0  0
    2.1300   60.5970   75.3530 C   0  0  0  0  0  0  0  0  0  0  0  0
    2.4520   60.7030   73.9710 O   0  0  0  0  0  0  0  0  0  0  0  0
    1.7630   68.6590   64.9720 C   0  0  0  0  0  0  0  0  0  0  0  0
    3.2090   69.0520   65.1040 C   0  0  0  0  0  0  0  0  0  0  0  0
    4.0410   69.1170   63.9790 C   0  0  0  0  0  0  0  0  0  0  0  0
    5.3720   69.5120   64.1130 C   0  0  0  0  0  0  0  0  0  0  0  0
    5.8880   69.8490   65.3670 C   0  0  0  0  0  0  0  0  0  0  0  0
    5.0740   69.7860   66.4960 C   0  0  0  0  0  0  0  0  0  0  0  0
    3.7410   69.3870   66.3580 C   0  0  0  0  0  0  0  0  0  0  0  0
    5.4430   70.0890   67.7750 O   0  0  0  0  0  0  0  0  0  0  0  0
    5.7340   71.4540   68.0580 C   0  0  0  0  0  0  0  0  0  0  0  0
   -0.2466   67.3805   69.7946 H   0  0  0  0  0  0  0  0  0  0  0  0
    0.5899   69.4275   68.8641 H   0  0  0  0  0  0  0  0  0  0  0  0
    1.9957   68.5252   69.6000 H   0  0  0  0  0  0  0  0  0  0  0  0
    2.5322   69.6126   67.4141 H   0  0  0  0  0  0  0  0  0  0  0  0
    2.7641   67.8291   67.4341 H   0  0  0  0  0  0  0  0  0  0  0  0
    0.3933   69.2754   66.4054 H   0  0  0  0  0  0  0  0  0  0  0  0
   -0.4235   67.1847   65.5195 H   0  0  0  0  0  0  0  0  0  0  0  0
    0.9774   66.3652   66.2982 H   0  0  0  0  0  0  0  0  0  0  0  0
   -1.2487   67.9273   67.6831 H   0  0  0  0  0  0  0  0  0  0  0  0
   -0.9474   66.1288   67.7172 H   0  0  0  0  0  0  0  0  0  0  0  0
    0.6261   62.1360   74.9656 H   0  0  0  0  0  0  0  0  0  0  0  0
   -0.4126   64.1931   73.9871 H   0  0  0  0  0  0  0  0  0  0  0  0
    3.2268   61.7310   71.5163 H   0  0  0  0  0  0  0  0  0  0  0  0
    1.9858   65.8136   68.3334 H   0  0  0  0  0  0  0  0  0  0  0  0
    0.5379   66.2206   72.0000 H   0  0  0  0  0  0  0  0  0  0  0  0
   -0.7119   65.2704   71.2178 H   0  0  0  0  0  0  0  0  0  0  0  0
    3.0038   60.8846   75.9562 H   0  0  0  0  0  0  0  0  0  0  0  0
    1.2878   61.2653   75.5856 H   0  0  0  0  0  0  0  0  0  0  0  0
    1.8495   59.5591   75.5856 H   0  0  0  0  0  0  0  0  0  0  0  0
    1.7078   67.7016   64.4332 H   0  0  0  0  0  0  0  0  0  0  0  0
    1.2510   69.4665   64.4282 H   0  0  0  0  0  0  0  0  0  0  0  0
    3.6436   68.8558   62.9871 H   0  0  0  0  0  0  0  0  0  0  0  0
    6.0199   69.5585   63.2253 H   0  0  0  0  0  0  0  0  0  0  0  0
    6.9375   70.1642   65.4629 H   0  0  0  0  0  0  0  0  0  0  0  0
    3.0979   69.3349   67.2489 H   0  0  0  0  0  0  0  0  0  0  0  0
    5.7660   71.6039   69.1473 H   0  0  0  0  0  0  0  0  0  0  0  0
    6.7088   71.7190   67.6227 H   0  0  0  0  0  0  0  0  0  0  0  0
    4.9520   72.0935   67.6227 H   0  0  0  0  0  0  0  0  0  0  0  0
  2  1  1  0
  3  2  1  0
  4  3  1  0
  5  4  1  0
  6  5  1  0
  6  1  1  0
  8  7  2  0
  9  8  1  0
 10  9  2  0
 11 10  1  0
 12  7  1  0
 12 11  2  0
 13 11  1  0
 14 13  2  0
 15 13  1  0
 16 15  2  0
 16  1  1  0
 17 15  1  0
 17 10  1  0
 19 18  1  0
 19  7  1  0
 20  4  1  0
 21 20  1  0
 22 21  2  0
 23 22  1  0
 24 23  2  0
 25 24  1  0
 26 25  2  0
 26 21  1  0
 27 25  1  0
 28 27  1  0
  1 29  1  0
  2 30  1  0
  2 31  1  0
  3 32  1  0
  3 33  1  0
  4 34  1  0
  5 35  1  0
  5 36  1  0
  6 37  1  0
  6 38  1  0
  8 39  1  0
  9 40  1  0
 12 41  1  0
 16 42  1  0
 17 43  1  0
 17 44  1  0
 18 45  1  0
 18 46  1  0
 18 47  1  0
 20 48  1  0
 20 49  1  0
 22 50  1  0
 23 51  1  0
 24 52  1  0
 26 53  1  0
 28 54  1  0
 28 55  1  0
 28 56  1  0
M  CHG  1   4   1
M  END
>  <score>  (6) 
-8.187

$$$$
=
     RDKit          3D

 56 59  0  0  0  0  0  0  0  0999 V2000
    0.1200   64.5660   71.1780 C   0  0  0  0  0  0  0  0  0  0  0  0
    1.1590   65.5620   70.6460 C   0  0  0  0  0  0  0  0  0  0  0  0
    2.5240   64.9330   70.3930 C   0  0  0  0  0  0  0  0  0  0  0  0
    2.3770   63.7410   69.4740 N   0  0  0  0  0  4  0  0  0  0  0  0
    1.4280   62.7060   70.0220 C   0  0  0  0  0  0  0  0  0  0  0  0
    0.0620   63.3310   70.2690 C   0  0  0  0  0  0  0  0  0  0  0  0
   -0.8630   59.6410   76.3400 C   0  0  0  0  0  0  0  0  0  0  0  0
   -1.5600   59.1180   75.2310 C   0  0  0  0  0  0  0  0  0  0  0  0
   -1.6090   59.7960   74.0070 C   0  0  0  0  0  0  0  0  0  0  0  0
   -0.9480   61.0060   73.9060 C   0  0  0  0  0  0  0  0  0  0  0  0
   -0.2630   61.5140   75.0100 C   0  0  0  0  0  0  0  0  0  0  0  0
   -0.2000   60.8630   76.2310 C   0  0  0  0  0  0  0  0  0  0  0  0
    0.3460   62.7960   74.6490 C   0  0  0  0  0  0  0  0  0  0  0  0
    1.0180   63.5130   75.3630 O   0  0  0  0  0  0  0  0  0  0  0  0
   -0.0120   63.0650   73.2190 C   0  0  0  0  0  0  0  0  0  0  0  0
    0.4100   64.1820   72.6090 C   0  0  0  0  0  0  0  0  0  0  0  0
   -0.8510   61.9140   72.7170 C   0  0  0  0  0  0  0  0  0  0  0  0
   -1.4550   57.5490   77.3070 C   0  0  0  0  0  0  0  0  0  0  0  0
   -0.9150   58.8560   77.4590 O   0  0  0  0  0  0  0  0  0  0  0  0
    3.7160   63.1180   69.1210 C   0  0  0  0  0  0  0  0  0  0  0  0
    4.1380   62.0450   70.0860 C   0  0  0  0  0  0  0  0  0  0  0  0
    4.8400   62.3680   71.2550 C   0  0  0  0  0  0  0  0  0  0  0  0
    5.1990   61.3650   72.1560 C   0  0  0  0  0  0  0  0  0  0  0  0
    4.8610   60.0330   71.9060 C   0  0  0  0  0  0  0  0  0  0  0  0
    4.1660   59.6960   70.7460 C   0  0  0  0  0  0  0  0  0  0  0  0
    3.8100   60.7040   69.8440 C   0  0  0  0  0  0  0  0  0  0  0  0
    3.7680   58.4430   70.3770 O   0  0  0  0  0  0  0  0  0  0  0  0
    2.9920   57.7080   71.3180 C   0  0  0  0  0  0  0  0  0  0  0  0
   -0.8665   65.0525   71.1676 H   0  0  0  0  0  0  0  0  0  0  0  0
    0.7874   65.9818   69.6996 H   0  0  0  0  0  0  0  0  0  0  0  0
    1.2945   66.3342   71.4176 H   0  0  0  0  0  0  0  0  0  0  0  0
    3.1870   65.6754   69.9247 H   0  0  0  0  0  0  0  0  0  0  0  0
    2.9544   64.6027   71.3499 H   0  0  0  0  0  0  0  0  0  0  0  0
    1.9650   64.1050   68.6030 H   0  0  0  0  0  0  0  0  0  0  0  0
    1.3271   61.8844   69.2975 H   0  0  0  0  0  0  0  0  0  0  0  0
    1.8251   62.3190   70.9720 H   0  0  0  0  0  0  0  0  0  0  0  0
   -0.3668   63.6289   69.3008 H   0  0  0  0  0  0  0  0  0  0  0  0
   -0.5559   62.5773   70.7790 H   0  0  0  0  0  0  0  0  0  0  0  0
   -2.0783   58.1529   75.3302 H   0  0  0  0  0  0  0  0  0  0  0  0
   -2.1577   59.3779   73.1502 H   0  0  0  0  0  0  0  0  0  0  0  0
    0.3509   61.2927   77.0806 H   0  0  0  0  0  0  0  0  0  0  0  0
    1.0202   64.8788   73.2025 H   0  0  0  0  0  0  0  0  0  0  0  0
   -1.8472   62.2606   72.4048 H   0  0  0  0  0  0  0  0  0  0  0  0
   -0.4165   61.4200   71.8354 H   0  0  0  0  0  0  0  0  0  0  0  0
   -1.6365   57.1096   78.2990 H   0  0  0  0  0  0  0  0  0  0  0  0
   -2.4031   57.6062   76.7522 H   0  0  0  0  0  0  0  0  0  0  0  0
   -0.7430   56.9203   76.7522 H   0  0  0  0  0  0  0  0  0  0  0  0
    3.6431   62.6766   68.1161 H   0  0  0  0  0  0  0  0  0  0  0  0
    4.4718   63.9160   69.1655 H   0  0  0  0  0  0  0  0  0  0  0  0
    5.1085   63.4143   71.4627 H   0  0  0  0  0  0  0  0  0  0  0  0
    5.7525   61.6252   73.0703 H   0  0  0  0  0  0  0  0  0  0  0  0
    5.1435   59.2498   72.6249 H   0  0  0  0  0  0  0  0  0  0  0  0
    3.2623   60.4393   68.9275 H   0  0  0  0  0  0  0  0  0  0  0  0
    3.2897   57.9900   72.3387 H   0  0  0  0  0  0  0  0  0  0  0  0
    1.9258   57.9352   71.1711 H   0  0  0  0  0  0  0  0  0  0  0  0
    3.1610   56.6310   71.1711 H   0  0  0  0  0  0  0  0  0  0  0  0
  2  1  1  0
  3  2  1  0
  4  3  1  0
  5  4  1  0
  6  5  1  0
  6  1  1  0
  8  7  2  0
  9  8  1  0
 10  9  2  0
 11 10  1  0
 12  7  1  0
 12 11  2  0
 13 11  1  0
 14 13  2  0
 15 13  1  0
 16 15  2  0
 16  1  1  0
 17 15  1  0
 17 10  1  0
 19 18  1  0
 19  7  1  0
 20  4  1  0
 21 20  1  0
 22 21  2  0
 23 22  1  0
 24 23  2  0
 25 24  1  0
 26 25  2  0
 26 21  1  0
 27 25  1  0
 28 27  1  0
  1 29  1  0
  2 30  1  0
  2 31  1  0
  3 32  1  0
  3 33  1  0
  4 34  1  0
  5 35  1  0
  5 36  1  0
  6 37  1  0
  6 38  1  0
  8 39  1  0
  9 40  1  0
 12 41  1  0
 16 42  1  0
 17 43  1  0
 17 44  1  0
 18 45  1  0
 18 46  1  0
 18 47  1  0
 20 48  1  0
 20 49  1  0
 22 50  1  0
 23 51  1  0
 24 52  1  0
 26 53  1  0
 28 54  1  0
 28 55  1  0
 28 56  1  0
M  CHG  1   4   1
M  END
>  <score>  (7) 
-7.774

$$$$
=
     RDKit          3D

 56 59  0  0  0  0  0  0  0  0999 V2000
    1.4200   62.5090   70.8660 C   0  0  0  0  0  0  0  0  0  0  0  0
    0.1270   63.0880   70.2780 C   0  0  0  0  0  0  0  0  0  0  0  0
    0.0230   64.6020   70.4240 C   0  0  0  0  0  0  0  0  0  0  0  0
    1.2470   65.2600   69.8280 N   0  0  0  0  0  4  0  0  0  0  0  0
    2.5270   64.7710   70.4570 C   0  0  0  0  0  0  0  0  0  0  0  0
    2.6350   63.2600   70.3060 C   0  0  0  0  0  0  0  0  0  0  0  0
    3.3670   59.1430   76.9280 C   0  0  0  0  0  0  0  0  0  0  0  0
    3.8490   58.3040   75.9020 C   0  0  0  0  0  0  0  0  0  0  0  0
    3.6670   58.6180   74.5500 C   0  0  0  0  0  0  0  0  0  0  0  0
    2.9950   59.7860   74.2370 C   0  0  0  0  0  0  0  0  0  0  0  0
    2.5230   60.6070   75.2610 C   0  0  0  0  0  0  0  0  0  0  0  0
    2.6900   60.3190   76.6050 C   0  0  0  0  0  0  0  0  0  0  0  0
    1.8530   61.7700   74.6740 C   0  0  0  0  0  0  0  0  0  0  0  0
    1.3290   62.6890   75.2690 O   0  0  0  0  0  0  0  0  0  0  0  0
    1.9360   61.6190   73.1860 C   0  0  0  0  0  0  0  0  0  0  0  0
    1.4020   62.5430   72.3750 C   0  0  0  0  0  0  0  0  0  0  0  0
    2.6750   60.3380   72.8800 C   0  0  0  0  0  0  0  0  0  0  0  0
    2.5120   58.5060   79.0560 C   0  0  0  0  0  0  0  0  0  0  0  0
    3.6280   58.6920   78.1930 O   0  0  0  0  0  0  0  0  0  0  0  0
    1.1650   66.7760   69.8730 C   0  0  0  0  0  0  0  0  0  0  0  0
    0.8680   67.3880   68.5320 C   0  0  0  0  0  0  0  0  0  0  0  0
   -0.4050   67.2730   67.9570 C   0  0  0  0  0  0  0  0  0  0  0  0
   -0.6740   67.8720   66.7260 C   0  0  0  0  0  0  0  0  0  0  0  0
    0.3170   68.5930   66.0570 C   0  0  0  0  0  0  0  0  0  0  0  0
    1.5890   68.7130   66.6140 C   0  0  0  0  0  0  0  0  0  0  0  0
    1.8560   68.1090   67.8470 C   0  0  0  0  0  0  0  0  0  0  0  0
    2.6470   69.3870   66.0750 O   0  0  0  0  0  0  0  0  0  0  0  0
    3.4050   68.7110   65.0780 C   0  0  0  0  0  0  0  0  0  0  0  0
    1.4947   61.4529   70.5676 H   0  0  0  0  0  0  0  0  0  0  0  0
    0.0871   62.8369   69.2078 H   0  0  0  0  0  0  0  0  0  0  0  0
   -0.7112   62.6484   70.8385 H   0  0  0  0  0  0  0  0  0  0  0  0
   -0.8754   64.9585   69.8988 H   0  0  0  0  0  0  0  0  0  0  0  0
   -0.0443   64.8599   71.4912 H   0  0  0  0  0  0  0  0  0  0  0  0
    1.2641   64.9789   68.8372 H   0  0  0  0  0  0  0  0  0  0  0  0
    3.3836   65.2493   69.9596 H   0  0  0  0  0  0  0  0  0  0  0  0
    2.5262   65.0287   71.5264 H   0  0  0  0  0  0  0  0  0  0  0  0
    2.7312   63.0214   69.2365 H   0  0  0  0  0  0  0  0  0  0  0  0
    3.5142   62.9356   70.8820 H   0  0  0  0  0  0  0  0  0  0  0  0
    4.3813   57.3797   76.1709 H   0  0  0  0  0  0  0  0  0  0  0  0
    4.0475   57.9549   73.7591 H   0  0  0  0  0  0  0  0  0  0  0  0
    2.3044   60.9904   77.3864 H   0  0  0  0  0  0  0  0  0  0  0  0
    0.9068   63.4021   72.8512 H   0  0  0  0  0  0  0  0  0  0  0  0
    2.0386   59.6428   72.3128 H   0  0  0  0  0  0  0  0  0  0  0  0
    3.5697   60.4970   72.2602 H   0  0  0  0  0  0  0  0  0  0  0  0
    2.8449   58.5615   80.1030 H   0  0  0  0  0  0  0  0  0  0  0  0
    1.7666   59.2923   78.8661 H   0  0  0  0  0  0  0  0  0  0  0  0
    2.0619   57.5204   78.8661 H   0  0  0  0  0  0  0  0  0  0  0  0
    0.3674   67.0633   70.5739 H   0  0  0  0  0  0  0  0  0  0  0  0
    2.1483   67.1495   70.1948 H   0  0  0  0  0  0  0  0  0  0  0  0
   -1.1935   66.7094   68.4773 H   0  0  0  0  0  0  0  0  0  0  0  0
   -1.6745   67.7755   66.2791 H   0  0  0  0  0  0  0  0  0  0  0  0
    0.0937   69.0667   65.0896 H   0  0  0  0  0  0  0  0  0  0  0  0
    2.8598   68.2014   68.2873 H   0  0  0  0  0  0  0  0  0  0  0  0
    4.1425   68.0533   65.5612 H   0  0  0  0  0  0  0  0  0  0  0  0
    2.7314   68.1083   64.4511 H   0  0  0  0  0  0  0  0  0  0  0  0
    3.9270   69.4489   64.4511 H   0  0  0  0  0  0  0  0  0  0  0  0
  2  1  1  0
  3  2  1  0
  4  3  1  0
  5  4  1  0
  6  5  1  0
  6  1  1  0
  8  7  2  0
  9  8  1  0
 10  9  2  0
 11 10  1  0
 12  7  1  0
 12 11  2  0
 13 11  1  0
 14 13  2  0
 15 13  1  0
 16 15  2  0
 16  1  1  0
 17 15  1  0
 17 10  1  0
 19 18  1  0
 19  7  1  0
 20  4  1  0
 21 20  1  0
 22 21  2  0
 23 22  1  0
 24 23  2  0
 25 24  1  0
 26 25  2  0
 26 21  1  0
 27 25  1  0
 28 27  1  0
  1 29  1  0
  2 30  1  0
  2 31  1  0
  3 32  1  0
  3 33  1  0
  4 34  1  0
  5 35  1  0
  5 36  1  0
  6 37  1  0
  6 38  1  0
  8 39  1  0
  9 40  1  0
 12 41  1  0
 16 42  1  0
 17 43  1  0
 17 44  1  0
 18 45  1  0
 18 46  1  0
 18 47  1  0
 20 48  1  0
 20 49  1  0
 22 50  1  0
 23 51  1  0
 24 52  1  0
 26 53  1  0
 28 54  1  0
 28 55  1  0
 28 56  1  0
M  CHG  1   4   1
M  END
>  <score>  (8) 
-7.741

$$$$
