=
     RDKit          3D

 54 57  0  0  0  0  0  0  0  0999 V2000
    2.9220   62.1160   72.9000 C   0  0  2  0  0  0  0  0  0  0  0  0
    1.4920   62.1680   73.1550 N   0  0  0  0  0  0  0  0  0  0  0  0
    1.0080   62.8190   74.2560 C   0  0  0  0  0  0  0  0  0  0  0  0
    1.6810   63.6210   74.9040 O   0  0  0  0  0  0  0  0  0  0  0  0
   -0.3040   62.5310   74.5790 N   0  0  0  0  0  0  0  0  0  0  0  0
   -0.9520   63.1610   75.7050 C   0  0  0  0  0  0  0  0  0  0  0  0
   -2.2310   62.3630   75.8870 C   0  0  0  0  0  0  0  0  0  0  0  0
   -2.4180   61.7220   74.6170 N   0  0  0  0  0  0  0  0  0  0  0  0
   -1.2120   61.6800   73.9230 C   0  0  0  0  0  0  0  0  0  0  0  0
   -1.0140   60.9830   72.9430 O   0  0  0  0  0  0  0  0  0  0  0  0
    3.1950   62.3540   71.4250 C   0  0  0  0  0  0  0  0  0  0  0  0
    4.3130   63.1070   71.0310 C   0  0  0  0  0  0  0  0  0  0  0  0
    4.5890   63.3160   69.6790 C   0  0  0  0  0  0  0  0  0  0  0  0
    3.7490   62.7800   68.7040 C   0  0  0  0  0  0  0  0  0  0  0  0
    2.6280   62.0440   69.0810 C   0  0  0  0  0  0  0  0  0  0  0  0
    2.3480   61.8370   70.4330 C   0  0  0  0  0  0  0  0  0  0  0  0
    4.7150   60.5480   73.5070 O   0  0  0  0  0  0  0  0  0  0  0  0
    3.5070   60.7660   73.4060 C   0  0  0  0  0  0  0  0  0  0  0  0
    2.5630   59.8020   73.6940 N   0  0  0  0  0  0  0  0  0  0  0  0
    2.9500   58.4600   74.2200 C   0  0  2  0  0  0  0  0  0  0  0  0
    2.1580   57.2690   73.6210 C   0  0  0  0  0  0  0  0  0  0  0  0
    1.7850   56.9500   72.5150 O   0  0  0  0  0  0  0  0  0  0  0  0
    1.9030   56.7700   74.8590 N   0  0  0  0  0  0  0  0  0  0  0  0
    2.3280   57.9870   75.5630 C   0  0  2  0  0  0  0  0  0  0  0  0
    0.7730   58.8280   76.0780 S   0  0  0  0  0  0  0  0  0  0  0  0
   -0.3160   57.3870   75.6240 C   0  0  0  0  0  0  0  0  0  0  0  0
    0.6140   56.1980   75.2770 C   0  0  2  0  0  0  0  0  0  0  0  0
   -1.1290   57.8220   74.3890 C   0  0  0  0  0  0  0  0  0  0  0  0
   -1.2950   57.1550   76.7840 C   0  0  0  0  0  0  0  0  0  0  0  0
    0.7370   55.1910   76.4560 C   0  0  0  0  0  0  0  0  0  0  0  0
    1.5380   55.5090   77.3820 O   0  0  0  0  0  0  0  0  0  0  0  0
    0.0010   54.1650   76.3520 O   0  0  0  0  0  1  0  0  0  0  0  0
    3.4296   62.9166   73.4579 H   0  0  0  0  0  0  0  0  0  0  0  0
    0.8389   61.7116   72.5022 H   0  0  0  0  0  0  0  0  0  0  0  0
   -0.3212   63.0989   76.6040 H   0  0  0  0  0  0  0  0  0  0  0  0
   -1.1413   64.2319   75.5396 H   0  0  0  0  0  0  0  0  0  0  0  0
   -2.1177   61.6185   76.6888 H   0  0  0  0  0  0  0  0  0  0  0  0
   -3.0865   62.9908   76.1768 H   0  0  0  0  0  0  0  0  0  0  0  0
   -3.3128   61.3480   74.2699 H   0  0  0  0  0  0  0  0  0  0  0  0
    4.9775   63.5362   71.7953 H   0  0  0  0  0  0  0  0  0  0  0  0
    5.4700   63.9041   69.3825 H   0  0  0  0  0  0  0  0  0  0  0  0
    3.9711   62.9381   67.6383 H   0  0  0  0  0  0  0  0  0  0  0  0
    1.9622   61.6251   68.3121 H   0  0  0  0  0  0  0  0  0  0  0  0
    1.4553   61.2634   70.7232 H   0  0  0  0  0  0  0  0  0  0  0  0
    1.5665   60.0137   73.5422 H   0  0  0  0  0  0  0  0  0  0  0  0
    4.0321   58.6202   74.1039 H   0  0  0  0  0  0  0  0  0  0  0  0
    2.9515   58.0443   76.4674 H   0  0  0  0  0  0  0  0  0  0  0  0
    0.1959   55.5984   74.4551 H   0  0  0  0  0  0  0  0  0  0  0  0
   -2.0551   58.3175   74.7156 H   0  0  0  0  0  0  0  0  0  0  0  0
   -0.5323   58.5214   73.7850 H   0  0  0  0  0  0  0  0  0  0  0  0
   -1.3798   56.9375   73.7850 H   0  0  0  0  0  0  0  0  0  0  0  0
   -0.7664   57.2803   77.7405 H   0  0  0  0  0  0  0  0  0  0  0  0
   -2.1171   57.8832   76.7212 H   0  0  0  0  0  0  0  0  0  0  0  0
   -1.7028   56.1353   76.7212 H   0  0  0  0  0  0  0  0  0  0  0  0
  2  1  1  0
  3  2  1  0
  4  3  2  0
  5  3  1  0
  6  5  1  0
  7  6  1  0
  8  7  1  0
  9  8  1  0
  9  5  1  0
 10  9  2  0
 11  1  1  0
 12 11  2  0
 13 12  1  0
 14 13  2  0
 15 14  1  0
 16 15  2  0
 16 11  1  0
 18 17  2  0
 18  1  1  0
 19 18  1  0
 20 19  1  0
 21 20  1  0
 22 21  2  0
 23 21  1  0
 24 23  1  0
 24 20  1  0
 25 24  1  0
 26 25  1  0
 27 26  1  0
 27 23  1  0
 28 26  1  0
 29 26  1  0
 30 27  1  0
 31 30  2  0
 32 30  1  0
  1 33  1  1
  2 34  1  0
  6 35  1  0
  6 36  1  0
  7 37  1  0
  7 38  1  0
  8 39  1  0
 12 40  1  0
 13 41  1  0
 14 42  1  0
 15 43  1  0
 16 44  1  0
 19 45  1  0
 20 46  1  1
 24 47  1  1
 27 48  1  6
 28 49  1  0
 28 50  1  0
 28 51  1  0
 29 52  1  0
 29 53  1  0
 29 54  1  0
M  CHG  1  32  -1
M  END
>  <score>  (1) 
-7.797

$$$$
=
     RDKit          3D

 54 57  0  0  0  0  0  0  0  0999 V2000
    1.4770   65.2560   70.6980 C   0  0  2  0  0  0  0  0  0  0  0  0
    0.7860   65.7970   69.5390 N   0  0  0  0  0  0  0  0  0  0  0  0
    1.0630   67.0610   69.0960 C   0  0  0  0  0  0  0  0  0  0  0  0
    2.0720   67.6790   69.4350 O   0  0  0  0  0  0  0  0  0  0  0  0
    0.1360   67.5900   68.2180 N   0  0  0  0  0  0  0  0  0  0  0  0
    0.3110   68.9080   67.6540 C   0  0  0  0  0  0  0  0  0  0  0  0
   -1.0320   69.2140   67.0150 C   0  0  0  0  0  0  0  0  0  0  0  0
   -1.6360   67.9230   66.8480 N   0  0  0  0  0  0  0  0  0  0  0  0
   -1.0340   67.0040   67.7040 C   0  0  0  0  0  0  0  0  0  0  0  0
   -1.5000   65.9070   67.9610 O   0  0  0  0  0  0  0  0  0  0  0  0
    2.3340   64.0730   70.2860 C   0  0  0  0  0  0  0  0  0  0  0  0
    3.6950   64.0370   70.6320 C   0  0  0  0  0  0  0  0  0  0  0  0
    4.4900   62.9460   70.2780 C   0  0  0  0  0  0  0  0  0  0  0  0
    3.9390   61.8800   69.5700 C   0  0  0  0  0  0  0  0  0  0  0  0
    2.5940   61.9090   69.2070 C   0  0  0  0  0  0  0  0  0  0  0  0
    1.7970   63.0000   69.5560 C   0  0  0  0  0  0  0  0  0  0  0  0
   -0.3770   65.6890   72.2540 O   0  0  0  0  0  0  0  0  0  0  0  0
    0.4520   64.8920   71.8110 C   0  0  0  0  0  0  0  0  0  0  0  0
    0.5710   63.6090   72.3040 N   0  0  0  0  0  0  0  0  0  0  0  0
   -0.3530   63.0850   73.3530 C   0  0  2  0  0  0  0  0  0  0  0  0
    0.2760   62.9360   74.7630 C   0  0  0  0  0  0  0  0  0  0  0  0
    1.0070   63.6050   75.4560 O   0  0  0  0  0  0  0  0  0  0  0  0
   -0.1980   61.6680   74.8780 N   0  0  0  0  0  0  0  0  0  0  0  0
   -0.5540   61.5490   73.4580 C   0  0  2  0  0  0  0  0  0  0  0  0
    0.7620   60.5040   72.7050 S   0  0  0  0  0  0  0  0  0  0  0  0
    1.5120   60.0310   74.3420 C   0  0  0  0  0  0  0  0  0  0  0  0
    0.5600   60.5440   75.4510 C   0  0  2  0  0  0  0  0  0  0  0  0
    2.8770   60.7410   74.4240 C   0  0  0  0  0  0  0  0  0  0  0  0
    1.7610   58.5160   74.3240 C   0  0  0  0  0  0  0  0  0  0  0  0
   -0.3440   59.4110   76.0150 C   0  0  0  0  0  0  0  0  0  0  0  0
   -1.3530   59.1000   75.3160 O   0  0  0  0  0  0  0  0  0  0  0  0
    0.0490   58.9200   77.1140 O   0  0  0  0  0  1  0  0  0  0  0  0
    2.1522   66.0165   71.1173 H   0  0  0  0  0  0  0  0  0  0  0  0
    0.0837   65.2250   69.0486 H   0  0  0  0  0  0  0  0  0  0  0  0
    0.5468   69.6414   68.4392 H   0  0  0  0  0  0  0  0  0  0  0  0
    1.1427   68.9546   66.9356 H   0  0  0  0  0  0  0  0  0  0  0  0
   -1.6427   69.8498   67.6728 H   0  0  0  0  0  0  0  0  0  0  0  0
   -0.9357   69.7635   66.0670 H   0  0  0  0  0  0  0  0  0  0  0  0
   -2.4009   67.7080   66.1926 H   0  0  0  0  0  0  0  0  0  0  0  0
    4.1383   64.8767   71.1872 H   0  0  0  0  0  0  0  0  0  0  0  0
    5.5535   62.9276   70.5584 H   0  0  0  0  0  0  0  0  0  0  0  0
    4.5646   61.0171   69.2981 H   0  0  0  0  0  0  0  0  0  0  0  0
    2.1594   61.0699   68.6440 H   0  0  0  0  0  0  0  0  0  0  0  0
    0.7387   63.0198   69.2567 H   0  0  0  0  0  0  0  0  0  0  0  0
    1.3155   62.9977   71.9394 H   0  0  0  0  0  0  0  0  0  0  0  0
   -1.1805   63.7640   73.0997 H   0  0  0  0  0  0  0  0  0  0  0  0
   -1.4778   61.1215   73.0412 H   0  0  0  0  0  0  0  0  0  0  0  0
    1.1277   60.8928   76.3263 H   0  0  0  0  0  0  0  0  0  0  0  0
    3.1529   60.8845   75.4791 H   0  0  0  0  0  0  0  0  0  0  0  0
    3.6408   60.1259   73.9257 H   0  0  0  0  0  0  0  0  0  0  0  0
    2.8119   61.7195   73.9257 H   0  0  0  0  0  0  0  0  0  0  0  0
    1.8224   58.1422   75.3567 H   0  0  0  0  0  0  0  0  0  0  0  0
    0.9332   58.0145   73.8012 H   0  0  0  0  0  0  0  0  0  0  0  0
    2.7057   58.3059   73.8012 H   0  0  0  0  0  0  0  0  0  0  0  0
  2  1  1  0
  3  2  1  0
  4  3  2  0
  5  3  1  0
  6  5  1  0
  7  6  1  0
  8  7  1  0
  9  8  1  0
  9  5  1  0
 10  9  2  0
 11  1  1  0
 12 11  2  0
 13 12  1  0
 14 13  2  0
 15 14  1  0
 16 15  2  0
 16 11  1  0
 18 17  2  0
 18  1  1  0
 19 18  1  0
 20 19  1  0
 21 20  1  0
 22 21  2  0
 23 21  1  0
 24 23  1  0
 24 20  1  0
 25 24  1  0
 26 25  1  0
 27 26  1  0
 27 23  1  0
 28 26  1  0
 29 26  1  0
 30 27  1  0
 31 30  2  0
 32 30  1  0
  1 33  1  1
  2 34  1  0
  6 35  1  0
  6 36  1  0
  7 37  1  0
  7 38  1  0
  8 39  1  0
 12 40  1  0
 13 41  1  0
 14 42  1  0
 15 43  1  0
 16 44  1  0
 19 45  1  0
 20 46  1  1
 24 47  1  1
 27 48  1  1
 28 49  1  0
 28 50  1  0
 28 51  1  0
 29 52  1  0
 29 53  1  0
 29 54  1  0
M  CHG  1  32  -1
M  END
>  <score>  (2) 
-7.748

$$$$
=
     RDKit          3D

 54 57  0  0  0  0  0  0  0  0999 V2000
    2.4940   61.4190   73.5880 C   0  0  2  0  0  0  0  0  0  0  0  0
    1.6800   62.4070   74.2750 N   0  0  0  0  0  0  0  0  0  0  0  0
    1.0920   62.1070   75.4730 C   0  0  0  0  0  0  0  0  0  0  0  0
    1.4380   61.1490   76.1630 O   0  0  0  0  0  0  0  0  0  0  0  0
    0.0910   62.9740   75.8680 N   0  0  0  0  0  0  0  0  0  0  0  0
   -0.6030   62.7920   77.1210 C   0  0  0  0  0  0  0  0  0  0  0  0
   -1.7860   63.7380   77.0270 C   0  0  0  0  0  0  0  0  0  0  0  0
   -1.3970   64.6750   76.0120 N   0  0  0  0  0  0  0  0  0  0  0  0
   -0.3890   64.1270   75.2230 C   0  0  0  0  0  0  0  0  0  0  0  0
   -0.0430   64.5850   74.1470 O   0  0  0  0  0  0  0  0  0  0  0  0
    3.2560   62.0740   72.4490 C   0  0  0  0  0  0  0  0  0  0  0  0
    2.6600   63.1080   71.7090 C   0  0  0  0  0  0  0  0  0  0  0  0
    3.3560   63.7330   70.6730 C   0  0  0  0  0  0  0  0  0  0  0  0
    4.6530   63.3310   70.3610 C   0  0  0  0  0  0  0  0  0  0  0  0
    5.2510   62.2970   71.0780 C   0  0  0  0  0  0  0  0  0  0  0  0
    4.5560   61.6670   72.1110 C   0  0  0  0  0  0  0  0  0  0  0  0
    0.6310   60.3760   72.3690 O   0  0  0  0  0  0  0  0  0  0  0  0
    1.6070   60.2340   73.1080 C   0  0  0  0  0  0  0  0  0  0  0  0
    1.9690   59.0020   73.6140 N   0  0  0  0  0  0  0  0  0  0  0  0
    1.2450   57.7550   73.2310 C   0  0  2  0  0  0  0  0  0  0  0  0
   -0.0990   57.5270   73.9700 C   0  0  0  0  0  0  0  0  0  0  0  0
   -1.0420   58.2190   74.2790 O   0  0  0  0  0  0  0  0  0  0  0  0
    0.2480   56.2500   74.2800 N   0  0  0  0  0  0  0  0  0  0  0  0
    1.6590   56.4220   73.9130 C   0  0  2  0  0  0  0  0  0  0  0  0
    2.5680   56.5750   75.5080 S   0  0  0  0  0  0  0  0  0  0  0  0
    1.1010   56.0880   76.5460 C   0  0  0  0  0  0  0  0  0  0  0  0
   -0.0100   55.6090   75.5790 C   0  0  2  0  0  0  0  0  0  0  0  0
    0.6560   57.3560   77.3020 C   0  0  0  0  0  0  0  0  0  0  0  0
    1.5780   55.0580   77.5790 C   0  0  0  0  0  0  0  0  0  0  0  0
   -0.0850   54.0580   75.5000 C   0  0  0  0  0  0  0  0  0  0  0  0
    0.7820   53.4920   74.7700 O   0  0  0  0  0  0  0  0  0  0  0  0
   -1.0080   53.5380   76.1920 O   0  0  0  0  0  1  0  0  0  0  0  0
    3.2395   61.0042   74.2824 H   0  0  0  0  0  0  0  0  0  0  0  0
    1.5449   63.3388   73.8575 H   0  0  0  0  0  0  0  0  0  0  0  0
   -0.9424   61.7516   77.2324 H   0  0  0  0  0  0  0  0  0  0  0  0
    0.0358   62.9986   77.9924 H   0  0  0  0  0  0  0  0  0  0  0  0
   -2.6974   63.1972   76.7322 H   0  0  0  0  0  0  0  0  0  0  0  0
   -2.0192   64.2233   77.9862 H   0  0  0  0  0  0  0  0  0  0  0  0
   -1.8030   65.6132   75.8859 H   0  0  0  0  0  0  0  0  0  0  0  0
    1.6352   63.4284   71.9480 H   0  0  0  0  0  0  0  0  0  0  0  0
    2.8799   64.5439   70.1022 H   0  0  0  0  0  0  0  0  0  0  0  0
    5.2040   63.8293   69.5498 H   0  0  0  0  0  0  0  0  0  0  0  0
    6.2734   61.9765   70.8292 H   0  0  0  0  0  0  0  0  0  0  0  0
    5.0311   60.8442   72.6653 H   0  0  0  0  0  0  0  0  0  0  0  0
    2.7587   58.9420   74.2725 H   0  0  0  0  0  0  0  0  0  0  0  0
    1.3513   57.9115   72.1474 H   0  0  0  0  0  0  0  0  0  0  0  0
    2.2828   55.7219   73.3379 H   0  0  0  0  0  0  0  0  0  0  0  0
   -1.0044   55.9065   75.9433 H   0  0  0  0  0  0  0  0  0  0  0  0
    0.7186   57.1777   78.3857 H   0  0  0  0  0  0  0  0  0  0  0  0
    1.3135   58.1949   77.0298 H   0  0  0  0  0  0  0  0  0  0  0  0
   -0.3815   57.6000   77.0298 H   0  0  0  0  0  0  0  0  0  0  0  0
    1.3986   55.4453   78.5928 H   0  0  0  0  0  0  0  0  0  0  0  0
    1.0236   54.1178   77.4423 H   0  0  0  0  0  0  0  0  0  0  0  0
    2.6536   54.8727   77.4423 H   0  0  0  0  0  0  0  0  0  0  0  0
  2  1  1  0
  3  2  1  0
  4  3  2  0
  5  3  1  0
  6  5  1  0
  7  6  1  0
  8  7  1  0
  9  8  1  0
  9  5  1  0
 10  9  2  0
 11  1  1  0
 12 11  2  0
 13 12  1  0
 14 13  2  0
 15 14  1  0
 16 15  2  0
 16 11  1  0
 18 17  2  0
 18  1  1  0
 19 18  1  0
 20 19  1  0
 21 20  1  0
 22 21  2  0
 23 21  1  0
 24 23  1  0
 24 20  1  0
 25 24  1  0
 26 25  1  0
 27 26  1  0
 27 23  1  0
 28 26  1  0
 29 26  1  0
 30 27  1  0
 31 30  2  0
 32 30  1  0
  1 33  1  1
  2 34  1  0
  6 35  1  0
  6 36  1  0
  7 37  1  0
  7 38  1  0
  8 39  1  0
 12 40  1  0
 13 41  1  0
 14 42  1  0
 15 43  1  0
 16 44  1  0
 19 45  1  0
 20 46  1  6
 24 47  1  6
 27 48  1  1
 28 49  1  0
 28 50  1  0
 28 51  1  0
 29 52  1  0
 29 53  1  0
 29 54  1  0
M  CHG  1  32  -1
M  END
>  <score>  (3) 
-7.74

$$$$
=
     RDKit          3D

 54 57  0  0  0  0  0  0  0  0999 V2000
    2.4510   57.3270   75.1010 C   0  0  2  0  0  0  0  0  0  0  0  0
    1.3920   56.3340   75.1700 N   0  0  0  0  0  0  0  0  0  0  0  0
    1.6800   55.0040   75.0290 C   0  0  0  0  0  0  0  0  0  0  0  0
    2.8210   54.5560   75.1360 O   0  0  0  0  0  0  0  0  0  0  0  0
    0.5910   54.1920   74.7800 N   0  0  0  0  0  0  0  0  0  0  0  0
    0.7430   52.7640   74.6300 C   0  0  0  0  0  0  0  0  0  0  0  0
   -0.5960   52.3070   74.0790 C   0  0  0  0  0  0  0  0  0  0  0  0
   -1.4910   53.3740   74.4240 N   0  0  0  0  0  0  0  0  0  0  0  0
   -0.7670   54.5380   74.6720 C   0  0  0  0  0  0  0  0  0  0  0  0
   -1.2670   55.6490   74.7400 O   0  0  0  0  0  0  0  0  0  0  0  0
    2.1540   58.4710   76.0550 C   0  0  0  0  0  0  0  0  0  0  0  0
    3.0980   58.8370   77.0280 C   0  0  0  0  0  0  0  0  0  0  0  0
    2.8470   59.9000   77.8970 C   0  0  0  0  0  0  0  0  0  0  0  0
    1.6490   60.6050   77.8100 C   0  0  0  0  0  0  0  0  0  0  0  0
    0.6960   60.2420   76.8600 C   0  0  0  0  0  0  0  0  0  0  0  0
    0.9430   59.1780   75.9920 C   0  0  0  0  0  0  0  0  0  0  0  0
    2.1090   57.2570   72.6680 O   0  0  0  0  0  0  0  0  0  0  0  0
    2.6400   57.8080   73.6330 C   0  0  0  0  0  0  0  0  0  0  0  0
    3.4940   58.8810   73.4850 N   0  0  0  0  0  0  0  0  0  0  0  0
    3.7630   59.4900   72.1490 C   0  0  2  0  0  0  0  0  0  0  0  0
    4.3840   60.9100   72.1900 C   0  0  0  0  0  0  0  0  0  0  0  0
    5.2510   61.4540   72.8360 O   0  0  0  0  0  0  0  0  0  0  0  0
    3.4660   61.3750   71.3030 N   0  0  0  0  0  0  0  0  0  0  0  0
    2.5930   60.1990   71.4130 C   0  0  2  0  0  0  0  0  0  0  0  0
    1.1780   60.7340   72.4640 S   0  0  0  0  0  0  0  0  0  0  0  0
    1.6540   62.5330   72.4260 C   0  0  0  0  0  0  0  0  0  0  0  0
    2.8040   62.6850   71.3990 C   0  0  2  0  0  0  0  0  0  0  0  0
    2.1390   62.8900   73.8450 C   0  0  0  0  0  0  0  0  0  0  0  0
    0.3860   63.3480   72.1350 C   0  0  0  0  0  0  0  0  0  0  0  0
    2.2960   63.2250   70.0320 C   0  0  0  0  0  0  0  0  0  0  0  0
    2.0000   62.3550   69.1610 O   0  0  0  0  0  0  0  0  0  0  0  0
    2.2290   64.4870   69.9550 O   0  0  0  0  0  1  0  0  0  0  0  0
    3.4033   56.8774   75.4186 H   0  0  0  0  0  0  0  0  0  0  0  0
    0.4189   56.6334   75.3260 H   0  0  0  0  0  0  0  0  0  0  0  0
    1.5557   52.5292   73.9269 H   0  0  0  0  0  0  0  0  0  0  0  0
    1.0042   52.2649   75.5748 H   0  0  0  0  0  0  0  0  0  0  0  0
   -0.5462   52.1747   72.9881 H   0  0  0  0  0  0  0  0  0  0  0  0
   -0.9146   51.3363   74.4868 H   0  0  0  0  0  0  0  0  0  0  0  0
   -2.5162   53.2916   74.4800 H   0  0  0  0  0  0  0  0  0  0  0  0
    4.0439   58.2809   77.1060 H   0  0  0  0  0  0  0  0  0  0  0  0
    3.5963   60.1813   78.6516 H   0  0  0  0  0  0  0  0  0  0  0  0
    1.4552   61.4474   78.4903 H   0  0  0  0  0  0  0  0  0  0  0  0
   -0.2525   60.7953   76.7945 H   0  0  0  0  0  0  0  0  0  0  0  0
    0.1819   58.8906   75.2516 H   0  0  0  0  0  0  0  0  0  0  0  0
    3.9578   59.2719   74.3174 H   0  0  0  0  0  0  0  0  0  0  0  0
    4.2559   58.5980   71.7349 H   0  0  0  0  0  0  0  0  0  0  0  0
    2.1011   59.6601   70.5899 H   0  0  0  0  0  0  0  0  0  0  0  0
    3.5323   63.4399   71.7302 H   0  0  0  0  0  0  0  0  0  0  0  0
    1.4855   62.4090   74.5877 H   0  0  0  0  0  0  0  0  0  0  0  0
    3.1712   62.5346   73.9799 H   0  0  0  0  0  0  0  0  0  0  0  0
    2.1064   63.9812   73.9799 H   0  0  0  0  0  0  0  0  0  0  0  0
   -0.0822   63.6489   73.0838 H   0  0  0  0  0  0  0  0  0  0  0  0
    0.6514   64.2451   71.5564 H   0  0  0  0  0  0  0  0  0  0  0  0
   -0.3198   62.7340   71.5564 H   0  0  0  0  0  0  0  0  0  0  0  0
  2  1  1  0
  3  2  1  0
  4  3  2  0
  5  3  1  0
  6  5  1  0
  7  6  1  0
  8  7  1  0
  9  8  1  0
  9  5  1  0
 10  9  2  0
 11  1  1  0
 12 11  2  0
 13 12  1  0
 14 13  2  0
 15 14  1  0
 16 15  2  0
 16 11  1  0
 18 17  2  0
 18  1  1  0
 19 18  1  0
 20 19  1  0
 21 20  1  0
 22 21  2  0
 23 21  1  0
 24 23  1  0
 24 20  1  0
 25 24  1  0
 26 25  1  0
 27 26  1  0
 27 23  1  0
 28 26  1  0
 29 26  1  0
 30 27  1  0
 31 30  2  0
 32 30  1  0
  1 33  1  1
  2 34  1  0
  6 35  1  0
  6 36  1  0
  7 37  1  0
  7 38  1  0
  8 39  1  0
 12 40  1  0
 13 41  1  0
 14 42  1  0
 15 43  1  0
 16 44  1  0
 19 45  1  0
 20 46  1  6
 24 47  1  6
 27 48  1  1
 28 49  1  0
 28 50  1  0
 28 51  1  0
 29 52  1  0
 29 53  1  0
 29 54  1  0
M  CHG  1  32  -1
M  END
>  <score>  (4) 
-7.598

$$$$
=
     RDKit          3D

 54 57  0  0  0  0  0  0  0  0999 V2000
   -0.3160   58.3930   75.8970 C   0  0  2  0  0  0  0  0  0  0  0  0
   -0.1050   57.1280   75.2140 N   0  0  0  0  0  0  0  0  0  0  0  0
   -0.5320   55.9570   75.7790 C   0  0  0  0  0  0  0  0  0  0  0  0
   -1.3460   55.9220   76.7010 O   0  0  0  0  0  0  0  0  0  0  0  0
    0.0010   54.8100   75.2240 N   0  0  0  0  0  0  0  0  0  0  0  0
   -0.3750   53.5030   75.7070 C   0  0  0  0  0  0  0  0  0  0  0  0
    0.6340   52.5690   75.0630 C   0  0  0  0  0  0  0  0  0  0  0  0
    1.1390   53.3220   73.9510 N   0  0  0  0  0  0  0  0  0  0  0  0
    0.9010   54.6790   74.1510 C   0  0  0  0  0  0  0  0  0  0  0  0
    1.4330   55.5660   73.5040 O   0  0  0  0  0  0  0  0  0  0  0  0
   -1.4630   59.1480   75.2490 C   0  0  0  0  0  0  0  0  0  0  0  0
   -2.7870   58.8760   75.6300 C   0  0  0  0  0  0  0  0  0  0  0  0
   -3.8500   59.5770   75.0580 C   0  0  0  0  0  0  0  0  0  0  0  0
   -3.6050   60.5540   74.0960 C   0  0  0  0  0  0  0  0  0  0  0  0
   -2.2970   60.8240   73.6970 C   0  0  0  0  0  0  0  0  0  0  0  0
   -1.2330   60.1220   74.2640 C   0  0  0  0  0  0  0  0  0  0  0  0
    1.3420   59.9300   76.8640 O   0  0  0  0  0  0  0  0  0  0  0  0
    1.0040   59.2170   75.9180 C   0  0  0  0  0  0  0  0  0  0  0  0
    1.7570   59.1250   74.7650 N   0  0  0  0  0  0  0  0  0  0  0  0
    3.0680   59.8250   74.6280 C   0  0  2  0  0  0  0  0  0  0  0  0
    2.9690   61.3370   74.2990 C   0  0  0  0  0  0  0  0  0  0  0  0
    2.2870   62.2610   74.6800 O   0  0  0  0  0  0  0  0  0  0  0  0
    3.8640   61.2100   73.2840 N   0  0  0  0  0  0  0  0  0  0  0  0
    3.8100   59.7430   73.2660 C   0  0  2  0  0  0  0  0  0  0  0  0
    2.7780   59.3060   71.8050 S   0  0  0  0  0  0  0  0  0  0  0  0
    2.7510   61.0430   71.1350 C   0  0  0  0  0  0  0  0  0  0  0  0
    3.7450   61.8790   71.9790 C   0  0  2  0  0  0  0  0  0  0  0  0
    1.3110   61.5620   71.3150 C   0  0  0  0  0  0  0  0  0  0  0  0
    3.0480   60.9700   69.6300 C   0  0  0  0  0  0  0  0  0  0  0  0
    5.1070   62.0710   71.2540 C   0  0  0  0  0  0  0  0  0  0  0  0
    5.2940   63.1950   70.7020 O   0  0  0  0  0  0  0  0  0  0  0  0
    5.8820   61.0710   71.3140 O   0  0  0  0  0  1  0  0  0  0  0  0
   -0.5981   58.2080   76.9440 H   0  0  0  0  0  0  0  0  0  0  0  0
    0.3686   57.1125   74.2995 H   0  0  0  0  0  0  0  0  0  0  0  0
   -0.3060   53.4568   76.8039 H   0  0  0  0  0  0  0  0  0  0  0  0
   -1.4137   53.2418   75.4564 H   0  0  0  0  0  0  0  0  0  0  0  0
    1.4420   52.3202   75.7667 H   0  0  0  0  0  0  0  0  0  0  0  0
    0.1907   51.6091   74.7596 H   0  0  0  0  0  0  0  0  0  0  0  0
    1.6078   52.9186   73.1274 H   0  0  0  0  0  0  0  0  0  0  0  0
   -2.9883   58.1032   76.3864 H   0  0  0  0  0  0  0  0  0  0  0  0
   -4.8825   59.3575   75.3674 H   0  0  0  0  0  0  0  0  0  0  0  0
   -4.4426   61.1118   73.6517 H   0  0  0  0  0  0  0  0  0  0  0  0
   -2.1033   61.5920   72.9337 H   0  0  0  0  0  0  0  0  0  0  0  0
   -0.2044   60.3334   73.9364 H   0  0  0  0  0  0  0  0  0  0  0  0
    1.4054   58.5591   73.9795 H   0  0  0  0  0  0  0  0  0  0  0  0
    3.4974   59.4059   75.5499 H   0  0  0  0  0  0  0  0  0  0  0  0
    4.6609   59.0507   73.1847 H   0  0  0  0  0  0  0  0  0  0  0  0
    3.3741   62.9042   72.1252 H   0  0  0  0  0  0  0  0  0  0  0  0
    1.0824   61.6444   72.3878 H   0  0  0  0  0  0  0  0  0  0  0  0
    1.2160   62.5509   70.8428 H   0  0  0  0  0  0  0  0  0  0  0  0
    0.6069   60.8611   70.8428 H   0  0  0  0  0  0  0  0  0  0  0  0
    4.1059   60.7100   69.4772 H   0  0  0  0  0  0  0  0  0  0  0  0
    2.4111   60.2017   69.1674 H   0  0  0  0  0  0  0  0  0  0  0  0
    2.8398   61.9460   69.1674 H   0  0  0  0  0  0  0  0  0  0  0  0
  2  1  1  0
  3  2  1  0
  4  3  2  0
  5  3  1  0
  6  5  1  0
  7  6  1  0
  8  7  1  0
  9  8  1  0
  9  5  1  0
 10  9  2  0
 11  1  1  0
 12 11  2  0
 13 12  1  0
 14 13  2  0
 15 14  1  0
 16 15  2  0
 16 11  1  0
 18 17  2  0
 18  1  1  0
 19 18  1  0
 20 19  1  0
 21 20  1  0
 22 21  2  0
 23 21  1  0
 24 23  1  0
 24 20  1  0
 25 24  1  0
 26 25  1  0
 27 26  1  0
 27 23  1  0
 28 26  1  0
 29 26  1  0
 30 27  1  0
 31 30  2  0
 32 30  1  0
  1 33  1  1
  2 34  1  0
  6 35  1  0
  6 36  1  0
  7 37  1  0
  7 38  1  0
  8 39  1  0
 12 40  1  0
 13 41  1  0
 14 42  1  0
 15 43  1  0
 16 44  1  0
 19 45  1  0
 20 46  1  1
 24 47  1  1
 27 48  1  1
 28 49  1  0
 28 50  1  0
 28 51  1  0
 29 52  1  0
 29 53  1  0
 29 54  1  0
M  CHG  1  32  -1
M  END
>  <score>  (5) 
-7.2

$$$$
=
     RDKit          3D

 54 57  0  0  0  0  0  0  0  0999 V2000
    3.1000   57.3330   76.3410 C   0  0  2  0  0  0  0  0  0  0  0  0
    2.1720   56.2330   76.5420 N   0  0  0  0  0  0  0  0  0  0  0  0
    2.1200   55.2000   75.6470 C   0  0  0  0  0  0  0  0  0  0  0  0
    3.0120   54.9850   74.8260 O   0  0  0  0  0  0  0  0  0  0  0  0
    1.0010   54.3950   75.7450 N   0  0  0  0  0  0  0  0  0  0  0  0
    0.8230   53.2550   74.8770 C   0  0  0  0  0  0  0  0  0  0  0  0
   -0.6230   52.8480   75.0970 C   0  0  0  0  0  0  0  0  0  0  0  0
   -0.9590   53.4410   76.3590 N   0  0  0  0  0  0  0  0  0  0  0  0
   -0.0750   54.4790   76.6450 C   0  0  0  0  0  0  0  0  0  0  0  0
   -0.2650   55.3150   77.5140 O   0  0  0  0  0  0  0  0  0  0  0  0
    3.8690   57.6040   77.6220 C   0  0  0  0  0  0  0  0  0  0  0  0
    4.8650   56.7090   78.0460 C   0  0  0  0  0  0  0  0  0  0  0  0
    5.5940   56.9560   79.2100 C   0  0  0  0  0  0  0  0  0  0  0  0
    5.3350   58.0960   79.9680 C   0  0  0  0  0  0  0  0  0  0  0  0
    4.3390   58.9850   79.5680 C   0  0  0  0  0  0  0  0  0  0  0  0
    3.6050   58.7380   78.4070 C   0  0  0  0  0  0  0  0  0  0  0  0
    1.1730   58.8460   76.1310 O   0  0  0  0  0  0  0  0  0  0  0  0
    2.3390   58.5890   75.8250 C   0  0  0  0  0  0  0  0  0  0  0  0
    3.0590   59.3790   74.9530 N   0  0  0  0  0  0  0  0  0  0  0  0
    2.4910   60.6390   74.3880 C   0  0  2  0  0  0  0  0  0  0  0  0
    1.5400   60.4420   73.1780 C   0  0  0  0  0  0  0  0  0  0  0  0
    0.6460   59.6770   72.8990 O   0  0  0  0  0  0  0  0  0  0  0  0
    2.2010   61.3890   72.4610 N   0  0  0  0  0  0  0  0  0  0  0  0
    3.3490   61.4460   73.3750 C   0  0  2  0  0  0  0  0  0  0  0  0
    4.6960   60.5160   72.5310 S   0  0  0  0  0  0  0  0  0  0  0  0
    3.7810   60.3890   70.9150 C   0  0  0  0  0  0  0  0  0  0  0  0
    2.5180   61.2790   71.0290 C   0  0  2  0  0  0  0  0  0  0  0  0
    3.3910   58.9070   70.7450 C   0  0  0  0  0  0  0  0  0  0  0  0
    4.7590   60.7570   69.7910 C   0  0  0  0  0  0  0  0  0  0  0  0
    2.7090   62.6540   70.3290 C   0  0  0  0  0  0  0  0  0  0  0  0
    2.2730   62.7440   69.1440 O   0  0  0  0  0  0  0  0  0  0  0  0
    3.2750   63.5340   71.0410 O   0  0  0  0  0  1  0  0  0  0  0  0
    3.8363   57.0623   75.5699 H   0  0  0  0  0  0  0  0  0  0  0  0
    1.5500   56.2312   77.3630 H   0  0  0  0  0  0  0  0  0  0  0  0
    0.9956   53.5326   73.8267 H   0  0  0  0  0  0  0  0  0  0  0  0
    1.5299   52.4413   75.0965 H   0  0  0  0  0  0  0  0  0  0  0  0
   -1.2665   53.2409   74.2961 H   0  0  0  0  0  0  0  0  0  0  0  0
   -0.7629   51.7570   75.0898 H   0  0  0  0  0  0  0  0  0  0  0  0
   -1.7379   53.1437   76.9638 H   0  0  0  0  0  0  0  0  0  0  0  0
    5.0724   55.8048   77.4549 H   0  0  0  0  0  0  0  0  0  0  0  0
    6.3743   56.2496   79.5296 H   0  0  0  0  0  0  0  0  0  0  0  0
    5.9158   58.2941   80.8809 H   0  0  0  0  0  0  0  0  0  0  0  0
    4.1311   59.8829   80.1684 H   0  0  0  0  0  0  0  0  0  0  0  0
    2.8124   59.4380   78.1041 H   0  0  0  0  0  0  0  0  0  0  0  0
    4.0115   59.0928   74.6852 H   0  0  0  0  0  0  0  0  0  0  0  0
    2.1954   61.0563   75.3619 H   0  0  0  0  0  0  0  0  0  0  0  0
    3.8608   62.3491   73.7391 H   0  0  0  0  0  0  0  0  0  0  0  0
    1.6671   60.8259   70.4993 H   0  0  0  0  0  0  0  0  0  0  0  0
    3.2692   58.4440   71.7353 H   0  0  0  0  0  0  0  0  0  0  0  0
    2.4442   58.8384   70.1892 H   0  0  0  0  0  0  0  0  0  0  0  0
    4.1814   58.3813   70.1892 H   0  0  0  0  0  0  0  0  0  0  0  0
    5.7036   61.1124   70.2286 H   0  0  0  0  0  0  0  0  0  0  0  0
    4.9535   59.8706   69.1694 H   0  0  0  0  0  0  0  0  0  0  0  0
    4.3209   61.5518   69.1694 H   0  0  0  0  0  0  0  0  0  0  0  0
  2  1  1  0
  3  2  1  0
  4  3  2  0
  5  3  1  0
  6  5  1  0
  7  6  1  0
  8  7  1  0
  9  8  1  0
  9  5  1  0
 10  9  2  0
 11  1  1  0
 12 11  2  0
 13 12  1  0
 14 13  2  0
 15 14  1  0
 16 15  2  0
 16 11  1  0
 18 17  2  0
 18  1  1  0
 19 18  1  0
 20 19  1  0
 21 20  1  0
 22 21  2  0
 23 21  1  0
 24 23  1  0
 24 20  1  0
 25 24  1  0
 26 25  1  0
 27 26  1  0
 27 23  1  0
 28 26  1  0
 29 26  1  0
 30 27  1  0
 31 30  2  0
 32 30  1  0
  1 33  1  6
  2 34  1  0
  6 35  1  0
  6 36  1  0
  7 37  1  0
  7 38  1  0
  8 39  1  0
 12 40  1  0
 13 41  1  0
 14 42  1  0
 15 43  1  0
 16 44  1  0
 19 45  1  0
 20 46  1  1
 24 47  1  1
 27 48  1  6
 28 49  1  0
 28 50  1  0
 28 51  1  0
 29 52  1  0
 29 53  1  0
 29 54  1  0
M  CHG  1  32  -1
M  END
>  <score>  (6) 
-7.003

$$$$
=
     RDKit          3D

 54 57  0  0  0  0  0  0  0  0999 V2000
    3.6650   59.0710   73.0700 C   0  0  2  0  0  0  0  0  0  0  0  0
    3.3600   59.6170   74.3820 N   0  0  0  0  0  0  0  0  0  0  0  0
    3.7370   58.9480   75.5140 C   0  0  0  0  0  0  0  0  0  0  0  0
    4.5780   58.0490   75.5060 O   0  0  0  0  0  0  0  0  0  0  0  0
    3.1220   59.3700   76.6760 N   0  0  0  0  0  0  0  0  0  0  0  0
    3.4380   58.7680   77.9500 C   0  0  0  0  0  0  0  0  0  0  0  0
    2.3570   59.2870   78.8810 C   0  0  0  0  0  0  0  0  0  0  0  0
    1.8610   60.4550   78.2130 N   0  0  0  0  0  0  0  0  0  0  0  0
    2.1820   60.4000   76.8590 C   0  0  0  0  0  0  0  0  0  0  0  0
    1.6810   61.1190   76.0100 O   0  0  0  0  0  0  0  0  0  0  0  0
    3.8490   60.1980   72.0680 C   0  0  0  0  0  0  0  0  0  0  0  0
    2.7720   60.6050   71.2640 C   0  0  0  0  0  0  0  0  0  0  0  0
    2.9210   61.6530   70.3540 C   0  0  0  0  0  0  0  0  0  0  0  0
    4.1470   62.3030   70.2320 C   0  0  0  0  0  0  0  0  0  0  0  0
    5.2280   61.9000   71.0130 C   0  0  0  0  0  0  0  0  0  0  0  0
    5.0840   60.8500   71.9210 C   0  0  0  0  0  0  0  0  0  0  0  0
    2.5880   57.4420   71.5760 O   0  0  0  0  0  0  0  0  0  0  0  0
    2.5590   58.0650   72.6390 C   0  0  0  0  0  0  0  0  0  0  0  0
    1.5070   57.9530   73.5240 N   0  0  0  0  0  0  0  0  0  0  0  0
    0.3760   57.0090   73.2810 C   0  0  2  0  0  0  0  0  0  0  0  0
   -0.7050   56.9840   74.3930 C   0  0  0  0  0  0  0  0  0  0  0  0
   -1.2780   57.8170   75.0580 O   0  0  0  0  0  0  0  0  0  0  0  0
   -0.6650   55.6270   74.4500 N   0  0  0  0  0  0  0  0  0  0  0  0
    0.5690   55.5150   73.6610 C   0  0  2  0  0  0  0  0  0  0  0  0
    1.9010   55.1520   74.8790 S   0  0  0  0  0  0  0  0  0  0  0  0
    0.7200   54.8560   76.2870 C   0  0  0  0  0  0  0  0  0  0  0  0
   -0.7110   54.8430   75.6940 C   0  0  2  0  0  0  0  0  0  0  0  0
    0.8950   56.0350   77.2640 C   0  0  0  0  0  0  0  0  0  0  0  0
    1.1580   53.5710   77.0050 C   0  0  0  0  0  0  0  0  0  0  0  0
   -1.2470   53.3970   75.4960 C   0  0  0  0  0  0  0  0  0  0  0  0
   -0.8020   52.7680   74.4920 O   0  0  0  0  0  0  0  0  0  0  0  0
   -2.0670   53.0120   76.3800 O   0  0  0  0  0  1  0  0  0  0  0  0
    4.6122   58.5131   73.1101 H   0  0  0  0  0  0  0  0  0  0  0  0
    2.8572   60.5126   74.4598 H   0  0  0  0  0  0  0  0  0  0  0  0
    3.4025   57.6706   77.8832 H   0  0  0  0  0  0  0  0  0  0  0  0
    4.4512   59.0193   78.2968 H   0  0  0  0  0  0  0  0  0  0  0  0
    1.5592   58.5407   79.0094 H   0  0  0  0  0  0  0  0  0  0  0  0
    2.7341   59.5032   79.8915 H   0  0  0  0  0  0  0  0  0  0  0  0
    1.3439   61.2212   78.6674 H   0  0  0  0  0  0  0  0  0  0  0  0
    1.8022   60.0934   71.3521 H   0  0  0  0  0  0  0  0  0  0  0  0
    2.0691   61.9660   69.7324 H   0  0  0  0  0  0  0  0  0  0  0  0
    4.2615   63.1335   69.5198 H   0  0  0  0  0  0  0  0  0  0  0  0
    6.1973   62.4106   70.9137 H   0  0  0  0  0  0  0  0  0  0  0  0
    5.9450   60.5305   72.5265 H   0  0  0  0  0  0  0  0  0  0  0  0
    1.5015   58.5351   74.3737 H   0  0  0  0  0  0  0  0  0  0  0  0
    0.2053   57.3282   72.2423 H   0  0  0  0  0  0  0  0  0  0  0  0
    0.7736   54.8005   72.8501 H   0  0  0  0  0  0  0  0  0  0  0  0
   -1.4300   55.3009   76.3892 H   0  0  0  0  0  0  0  0  0  0  0  0
    0.8401   55.6652   78.2985 H   0  0  0  0  0  0  0  0  0  0  0  0
    1.8733   56.5088   77.0954 H   0  0  0  0  0  0  0  0  0  0  0  0
    0.0965   56.7725   77.0954 H   0  0  0  0  0  0  0  0  0  0  0  0
    1.1061   53.7231   78.0932 H   0  0  0  0  0  0  0  0  0  0  0  0
    0.4907   52.7450   76.7180 H   0  0  0  0  0  0  0  0  0  0  0  0
    2.1909   53.3245   76.7180 H   0  0  0  0  0  0  0  0  0  0  0  0
  2  1  1  0
  3  2  1  0
  4  3  2  0
  5  3  1  0
  6  5  1  0
  7  6  1  0
  8  7  1  0
  9  8  1  0
  9  5  1  0
 10  9  2  0
 11  1  1  0
 12 11  2  0
 13 12  1  0
 14 13  2  0
 15 14  1  0
 16 15  2  0
 16 11  1  0
 18 17  2  0
 18  1  1  0
 19 18  1  0
 20 19  1  0
 21 20  1  0
 22 21  2  0
 23 21  1  0
 24 23  1  0
 24 20  1  0
 25 24  1  0
 26 25  1  0
 27 26  1  0
 27 23  1  0
 28 26  1  0
 29 26  1  0
 30 27  1  0
 31 30  2  0
 32 30  1  0
  1 33  1  1
  2 34  1  0
  6 35  1  0
  6 36  1  0
  7 37  1  0
  7 38  1  0
  8 39  1  0
 12 40  1  0
 13 41  1  0
 14 42  1  0
 15 43  1  0
 16 44  1  0
 19 45  1  0
 20 46  1  6
 24 47  1  6
 27 48  1  1
 28 49  1  0
 28 50  1  0
 28 51  1  0
 29 52  1  0
 29 53  1  0
 29 54  1  0
M  CHG  1  32  -1
M  END
>  <score>  (7) 
-6.941

$$$$
=
     RDKit          3D

 54 57  0  0  0  0  0  0  0  0999 V2000
    1.8270   60.5830   72.3630 C   0  0  2  0  0  0  0  0  0  0  0  0
    2.3940   59.7390   73.4010 N   0  0  0  0  0  0  0  0  0  0  0  0
    2.0960   58.4050   73.4480 C   0  0  0  0  0  0  0  0  0  0  0  0
    1.6050   57.8000   72.4960 O   0  0  0  0  0  0  0  0  0  0  0  0
    2.4080   57.7760   74.6380 N   0  0  0  0  0  0  0  0  0  0  0  0
    2.1670   56.3650   74.8220 C   0  0  0  0  0  0  0  0  0  0  0  0
    2.3520   56.1510   76.3130 C   0  0  0  0  0  0  0  0  0  0  0  0
    3.1250   57.2860   76.7290 N   0  0  0  0  0  0  0  0  0  0  0  0
    3.0050   58.3100   75.7930 C   0  0  0  0  0  0  0  0  0  0  0  0
    3.3410   59.4650   76.0000 O   0  0  0  0  0  0  0  0  0  0  0  0
    2.9110   61.4550   71.7530 C   0  0  0  0  0  0  0  0  0  0  0  0
    2.5600   62.5630   70.9640 C   0  0  0  0  0  0  0  0  0  0  0  0
    3.5450   63.3850   70.4140 C   0  0  0  0  0  0  0  0  0  0  0  0
    4.8910   63.1080   70.6400 C   0  0  0  0  0  0  0  0  0  0  0  0
    5.2550   62.0030   71.4070 C   0  0  0  0  0  0  0  0  0  0  0  0
    4.2720   61.1770   71.9550 C   0  0  0  0  0  0  0  0  0  0  0  0
   -0.5000   61.3660   72.4840 O   0  0  0  0  0  0  0  0  0  0  0  0
    0.6440   61.4160   72.9360 C   0  0  0  0  0  0  0  0  0  0  0  0
    0.9850   62.2600   73.9730 N   0  0  0  0  0  0  0  0  0  0  0  0
   -0.0350   63.1070   74.6600 C   0  0  2  0  0  0  0  0  0  0  0  0
    0.5190   64.0000   75.8010 C   0  0  0  0  0  0  0  0  0  0  0  0
    1.4950   64.6980   75.9530 O   0  0  0  0  0  0  0  0  0  0  0  0
   -0.4560   63.5810   76.6490 N   0  0  0  0  0  0  0  0  0  0  0  0
   -0.8830   62.4670   75.7930 C   0  0  2  0  0  0  0  0  0  0  0  0
   -0.1840   60.9510   76.5730 S   0  0  0  0  0  0  0  0  0  0  0  0
    0.3440   61.8310   78.1270 C   0  0  0  0  0  0  0  0  0  0  0  0
   -0.2450   63.2620   78.0700 C   0  0  2  0  0  0  0  0  0  0  0  0
    1.8850   61.8730   78.1060 C   0  0  0  0  0  0  0  0  0  0  0  0
   -0.0940   60.9740   79.3230 C   0  0  0  0  0  0  0  0  0  0  0  0
   -1.5310   63.3980   78.9340 C   0  0  0  0  0  0  0  0  0  0  0  0
   -2.5930   62.9230   78.4350 O   0  0  0  0  0  0  0  0  0  0  0  0
   -1.3570   63.9650   80.0520 O   0  0  0  0  0  1  0  0  0  0  0  0
    1.4197   59.9566   71.5557 H   0  0  0  0  0  0  0  0  0  0  0  0
    3.0242   60.1478   74.1057 H   0  0  0  0  0  0  0  0  0  0  0  0
    1.1452   56.0995   74.5129 H   0  0  0  0  0  0  0  0  0  0  0  0
    2.8402   55.7388   74.2182 H   0  0  0  0  0  0  0  0  0  0  0  0
    1.3808   56.1281   76.8290 H   0  0  0  0  0  0  0  0  0  0  0  0
    2.8414   55.1942   76.5477 H   0  0  0  0  0  0  0  0  0  0  0  0
    3.6854   57.3359   77.5918 H   0  0  0  0  0  0  0  0  0  0  0  0
    1.4988   62.7849   70.7778 H   0  0  0  0  0  0  0  0  0  0  0  0
    3.2578   64.2524   69.8015 H   0  0  0  0  0  0  0  0  0  0  0  0
    5.6664   63.7612   70.2133 H   0  0  0  0  0  0  0  0  0  0  0  0
    6.3183   61.7813   71.5809 H   0  0  0  0  0  0  0  0  0  0  0  0
    4.5666   60.3003   72.5505 H   0  0  0  0  0  0  0  0  0  0  0  0
    1.9669   62.3069   74.2806 H   0  0  0  0  0  0  0  0  0  0  0  0
   -0.4917   63.4799   73.7314 H   0  0  0  0  0  0  0  0  0  0  0  0
   -1.9161   62.1714   75.5578 H   0  0  0  0  0  0  0  0  0  0  0  0
    0.4501   63.9924   78.5098 H   0  0  0  0  0  0  0  0  0  0  0  0
    2.2656   61.8834   79.1380 H   0  0  0  0  0  0  0  0  0  0  0  0
    2.2689   60.9850   77.5825 H   0  0  0  0  0  0  0  0  0  0  0  0
    2.2200   62.7806   77.5825 H   0  0  0  0  0  0  0  0  0  0  0  0
    0.1691   61.4888   80.2588 H   0  0  0  0  0  0  0  0  0  0  0  0
   -1.1822   60.8183   79.2836 H   0  0  0  0  0  0  0  0  0  0  0  0
    0.4173   60.0008   79.2836 H   0  0  0  0  0  0  0  0  0  0  0  0
  2  1  1  0
  3  2  1  0
  4  3  2  0
  5  3  1  0
  6  5  1  0
  7  6  1  0
  8  7  1  0
  9  8  1  0
  9  5  1  0
 10  9  2  0
 11  1  1  0
 12 11  2  0
 13 12  1  0
 14 13  2  0
 15 14  1  0
 16 15  2  0
 16 11  1  0
 18 17  2  0
 18  1  1  0
 19 18  1  0
 20 19  1  0
 21 20  1  0
 22 21  2  0
 23 21  1  0
 24 23  1  0
 24 20  1  0
 25 24  1  0
 26 25  1  0
 27 26  1  0
 27 23  1  0
 28 26  1  0
 29 26  1  0
 30 27  1  0
 31 30  2  0
 32 30  1  0
  1 33  1  6
  2 34  1  0
  6 35  1  0
  6 36  1  0
  7 37  1  0
  7 38  1  0
  8 39  1  0
 12 40  1  0
 13 41  1  0
 14 42  1  0
 15 43  1  0
 16 44  1  0
 19 45  1  0
 20 46  1  6
 24 47  1  6
 27 48  1  1
 28 49  1  0
 28 50  1  0
 28 51  1  0
 29 52  1  0
 29 53  1  0
 29 54  1  0
M  CHG  1  32  -1
M  END
>  <score>  (8) 
-6.903

$$$$
=
     RDKit          3D

 54 57  0  0  0  0  0  0  0  0999 V2000
    2.5250   58.0020   73.6450 C   0  0  2  0  0  0  0  0  0  0  0  0
    3.0130   58.2880   74.9840 N   0  0  0  0  0  0  0  0  0  0  0  0
    3.1140   57.2880   75.9120 C   0  0  0  0  0  0  0  0  0  0  0  0
    3.0940   56.0950   75.6100 O   0  0  0  0  0  0  0  0  0  0  0  0
    3.2640   57.7140   77.2180 N   0  0  0  0  0  0  0  0  0  0  0  0
    3.4040   56.7680   78.3000 C   0  0  0  0  0  0  0  0  0  0  0  0
    3.2360   57.6120   79.5500 C   0  0  0  0  0  0  0  0  0  0  0  0
    3.5050   58.9480   79.1010 N   0  0  0  0  0  0  0  0  0  0  0  0
    3.3480   59.0240   77.7190 C   0  0  0  0  0  0  0  0  0  0  0  0
    3.2650   60.0720   77.1010 O   0  0  0  0  0  0  0  0  0  0  0  0
    3.2330   58.8870   72.6340 C   0  0  0  0  0  0  0  0  0  0  0  0
    4.0940   59.9050   73.0740 C   0  0  0  0  0  0  0  0  0  0  0  0
    4.7670   60.7130   72.1560 C   0  0  0  0  0  0  0  0  0  0  0  0
    4.5850   60.5170   70.7880 C   0  0  0  0  0  0  0  0  0  0  0  0
    3.7220   59.5200   70.3380 C   0  0  0  0  0  0  0  0  0  0  0  0
    3.0440   58.7140   71.2540 C   0  0  0  0  0  0  0  0  0  0  0  0
    0.2060   57.2080   73.4510 O   0  0  0  0  0  0  0  0  0  0  0  0
    0.9780   58.1580   73.5950 C   0  0  0  0  0  0  0  0  0  0  0  0
    0.5280   59.4590   73.6780 N   0  0  0  0  0  0  0  0  0  0  0  0
   -0.9290   59.7860   73.6770 C   0  0  2  0  0  0  0  0  0  0  0  0
   -1.2660   61.2680   73.3690 C   0  0  0  0  0  0  0  0  0  0  0  0
   -0.8750   62.0950   72.5770 O   0  0  0  0  0  0  0  0  0  0  0  0
   -2.0900   61.3410   74.4470 N   0  0  0  0  0  0  0  0  0  0  0  0
   -1.6200   60.0810   75.0370 C   0  0  2  0  0  0  0  0  0  0  0  0
   -0.5090   60.5700   76.4220 S   0  0  0  0  0  0  0  0  0  0  0  0
   -0.9800   62.3700   76.3430 C   0  0  0  0  0  0  0  0  0  0  0  0
   -2.1690   62.4930   75.3580 C   0  0  2  0  0  0  0  0  0  0  0  0
    0.2530   63.1240   75.8070 C   0  0  0  0  0  0  0  0  0  0  0  0
   -1.2470   62.8480   77.7770 C   0  0  0  0  0  0  0  0  0  0  0  0
   -3.5310   62.6040   76.1000 C   0  0  0  0  0  0  0  0  0  0  0  0
   -4.0710   63.7490   76.1110 O   0  0  0  0  0  0  0  0  0  0  0  0
   -3.9490   61.5180   76.6010 O   0  0  0  0  0  1  0  0  0  0  0  0
    2.7533   56.9590   73.3802 H   0  0  0  0  0  0  0  0  0  0  0  0
    3.2843   59.2492   75.2356 H   0  0  0  0  0  0  0  0  0  0  0  0
    2.6259   55.9925   78.2444 H   0  0  0  0  0  0  0  0  0  0  0  0
    4.3663   56.2356   78.2749 H   0  0  0  0  0  0  0  0  0  0  0  0
    2.2121   57.5297   79.9434 H   0  0  0  0  0  0  0  0  0  0  0  0
    3.9004   57.2968   80.3680 H   0  0  0  0  0  0  0  0  0  0  0  0
    3.7741   59.7339   79.7100 H   0  0  0  0  0  0  0  0  0  0  0  0
    4.2396   60.0674   74.1522 H   0  0  0  0  0  0  0  0  0  0  0  0
    5.4417   61.5053   72.5125 H   0  0  0  0  0  0  0  0  0  0  0  0
    5.1219   61.1485   70.0648 H   0  0  0  0  0  0  0  0  0  0  0  0
    3.5747   59.3677   69.2586 H   0  0  0  0  0  0  0  0  0  0  0  0
    2.3556   57.9365   70.8912 H   0  0  0  0  0  0  0  0  0  0  0  0
    1.2142   60.2244   73.7423 H   0  0  0  0  0  0  0  0  0  0  0  0
   -1.2190   58.9294   73.0508 H   0  0  0  0  0  0  0  0  0  0  0  0
   -2.2383   59.2880   75.4829 H   0  0  0  0  0  0  0  0  0  0  0  0
   -2.1048   63.4246   74.7767 H   0  0  0  0  0  0  0  0  0  0  0  0
    0.8539   63.4915   76.6519 H   0  0  0  0  0  0  0  0  0  0  0  0
    0.8610   62.4431   75.1933 H   0  0  0  0  0  0  0  0  0  0  0  0
   -0.0761   63.9755   75.1933 H   0  0  0  0  0  0  0  0  0  0  0  0
   -0.8383   62.1163   78.4895 H   0  0  0  0  0  0  0  0  0  0  0  0
   -0.7629   63.8231   77.9346 H   0  0  0  0  0  0  0  0  0  0  0  0
   -2.3311   62.9471   77.9346 H   0  0  0  0  0  0  0  0  0  0  0  0
  2  1  1  0
  3  2  1  0
  4  3  2  0
  5  3  1  0
  6  5  1  0
  7  6  1  0
  8  7  1  0
  9  8  1  0
  9  5  1  0
 10  9  2  0
 11  1  1  0
 12 11  2  0
 13 12  1  0
 14 13  2  0
 15 14  1  0
 16 15  2  0
 16 11  1  0
 18 17  2  0
 18  1  1  0
 19 18  1  0
 20 19  1  0
 21 20  1  0
 22 21  2  0
 23 21  1  0
 24 23  1  0
 24 20  1  0
 25 24  1  0
 26 25  1  0
 27 26  1  0
 27 23  1  0
 28 26  1  0
 29 26  1  0
 30 27  1  0
 31 30  2  0
 32 30  1  0
  1 33  1  6
  2 34  1  0
  6 35  1  0
  6 36  1  0
  7 37  1  0
  7 38  1  0
  8 39  1  0
 12 40  1  0
 13 41  1  0
 14 42  1  0
 15 43  1  0
 16 44  1  0
 19 45  1  0
 20 46  1  6
 24 47  1  1
 27 48  1  6
 28 49  1  0
 28 50  1  0
 28 51  1  0
 29 52  1  0
 29 53  1  0
 29 54  1  0
M  CHG  1  32  -1
M  END
>  <score>  (9) 
-6.558

$$$$
