=
     RDKit          3D

 68 71  0  0  0  0  0  0  0  0999 V2000
    0.6210   68.6210   65.9170 C   0  0  0  0  0  0  0  0  0  0  0  0
    0.8360   68.4680   67.4420 C   0  0  0  0  0  0  0  0  0  0  0  0
    0.3950   65.6010   70.5910 C   0  0  0  0  0  0  0  0  0  0  0  0
   -0.6020   65.5400   69.4180 C   0  0  0  0  0  0  0  0  0  0  0  0
   -0.6220   66.8570   68.6680 C   0  0  0  0  0  0  0  0  0  0  0  0
    0.7220   67.0680   67.9870 N   0  0  0  0  0  4  0  0  0  0  0  0
    1.9000   66.5930   68.8080 C   0  0  0  0  0  0  0  0  0  0  0  0
    1.5570   66.5700   70.2860 C   0  0  0  0  0  0  0  0  0  0  0  0
    2.1300   60.0030   72.1700 Cl  0  0  0  0  0  0  0  0  0  0  0  0
    1.6250   61.5820   71.7220 C   0  0  0  0  0  0  0  0  0  0  0  0
    2.4730   62.4000   70.9850 C   0  0  0  0  0  0  0  0  0  0  0  0
    2.0560   63.6860   70.6260 C   0  0  0  0  0  0  0  0  0  0  0  0
    0.7850   64.1770   70.9920 C   0  0  0  0  0  0  0  0  0  0  0  0
   -0.0480   63.3310   71.7440 C   0  0  0  0  0  0  0  0  0  0  0  0
    0.3690   62.0430   72.1040 C   0  0  0  0  0  0  0  0  0  0  0  0
   -0.2980   66.2100   71.6930 O   0  0  0  0  0  0  0  0  0  0  0  0
    1.8140   68.2840   64.9350 C   0  0  0  0  0  0  0  0  0  0  0  0
    1.6190   68.7910   63.4840 C   0  0  0  0  0  0  0  0  0  0  0  0
    2.5870   68.6110   62.4780 C   0  0  0  0  0  0  0  0  0  0  0  0
    2.3610   69.0600   61.1740 C   0  0  0  0  0  0  0  0  0  0  0  0
    1.1600   69.6810   60.8440 C   0  0  0  0  0  0  0  0  0  0  0  0
    0.1760   69.8450   61.8130 C   0  0  0  0  0  0  0  0  0  0  0  0
    0.3990   69.3980   63.1170 C   0  0  0  0  0  0  0  0  0  0  0  0
    3.1130   69.0170   65.4440 C   0  0  0  0  0  0  0  0  0  0  0  0
    4.1720   69.2870   64.5480 C   0  0  0  0  0  0  0  0  0  0  0  0
    5.3460   69.9200   64.9670 C   0  0  0  0  0  0  0  0  0  0  0  0
    5.5070   70.2750   66.3000 C   0  0  0  0  0  0  0  0  0  0  0  0
    4.5100   69.9680   67.2170 C   0  0  0  0  0  0  0  0  0  0  0  0
    3.3360   69.3280   66.7990 C   0  0  0  0  0  0  0  0  0  0  0  0
    1.9180   66.7080   65.0250 C   0  0  0  0  0  0  0  0  0  0  0  0
    0.8710   66.0690   65.2410 O   0  0  0  0  0  0  0  0  0  0  0  0
    3.0650   66.0050   64.6940 N   0  0  0  0  0  0  0  0  0  0  0  0
    3.1230   64.5800   65.0040 C   0  0  0  0  0  0  0  0  0  0  0  0
    4.2800   66.5340   64.0810 C   0  0  0  0  0  0  0  0  0  0  0  0
   -0.2174   67.9639   65.6425 H   0  0  0  0  0  0  0  0  0  0  0  0
    0.4652   69.7013   65.7805 H   0  0  0  0  0  0  0  0  0  0  0  0
    1.8434   68.8406   67.6791 H   0  0  0  0  0  0  0  0  0  0  0  0
    0.0229   69.0380   67.9152 H   0  0  0  0  0  0  0  0  0  0  0  0
   -0.3020   64.7361   68.7296 H   0  0  0  0  0  0  0  0  0  0  0  0
   -1.6081   65.3428   69.8167 H   0  0  0  0  0  0  0  0  0  0  0  0
   -1.4188   66.8361   67.9099 H   0  0  0  0  0  0  0  0  0  0  0  0
   -0.8112   67.6799   69.3731 H   0  0  0  0  0  0  0  0  0  0  0  0
    0.7596   66.4463   67.1666 H   0  0  0  0  0  0  0  0  0  0  0  0
    2.1767   65.5780   68.4868 H   0  0  0  0  0  0  0  0  0  0  0  0
    2.7388   67.2876   68.6530 H   0  0  0  0  0  0  0  0  0  0  0  0
    2.4444   66.2509   70.8523 H   0  0  0  0  0  0  0  0  0  0  0  0
    1.2430   67.5826   70.5794 H   0  0  0  0  0  0  0  0  0  0  0  0
    3.4675   62.0378   70.6854 H   0  0  0  0  0  0  0  0  0  0  0  0
    2.7341   64.3288   70.0454 H   0  0  0  0  0  0  0  0  0  0  0  0
   -1.0420   63.6854   72.0545 H   0  0  0  0  0  0  0  0  0  0  0  0
   -0.2984   61.3943   72.6903 H   0  0  0  0  0  0  0  0  0  0  0  0
    0.0805   65.8774   72.5452 H   0  0  0  0  0  0  0  0  0  0  0  0
    3.5352   68.1096   62.7218 H   0  0  0  0  0  0  0  0  0  0  0  0
    3.1356   68.9220   60.4052 H   0  0  0  0  0  0  0  0  0  0  0  0
    0.9894   70.0414   59.8188 H   0  0  0  0  0  0  0  0  0  0  0  0
   -0.7779   70.3268   61.5523 H   0  0  0  0  0  0  0  0  0  0  0  0
   -0.3911   69.5213   63.8723 H   0  0  0  0  0  0  0  0  0  0  0  0
    4.0699   68.9914   63.4934 H   0  0  0  0  0  0  0  0  0  0  0  0
    6.1428   70.1370   64.2404 H   0  0  0  0  0  0  0  0  0  0  0  0
    6.4186   70.7962   66.6276 H   0  0  0  0  0  0  0  0  0  0  0  0
    4.6430   70.2288   68.2773 H   0  0  0  0  0  0  0  0  0  0  0  0
    2.5724   69.0629   67.5450 H   0  0  0  0  0  0  0  0  0  0  0  0
    3.1286   64.4421   66.0953 H   0  0  0  0  0  0  0  0  0  0  0  0
    2.2446   64.0754   64.5752 H   0  0  0  0  0  0  0  0  0  0  0  0
    4.0395   64.1485   64.5752 H   0  0  0  0  0  0  0  0  0  0  0  0
    4.9843   66.8407   64.8683 H   0  0  0  0  0  0  0  0  0  0  0  0
    4.7440   65.7565   63.4564 H   0  0  0  0  0  0  0  0  0  0  0  0
    4.0270   67.4034   63.4564 H   0  0  0  0  0  0  0  0  0  0  0  0
  2  1  1  0
  4  3  1  0
  5  4  1  0
  6  5  1  0
  6  2  1  0
  7  6  1  0
  8  7  1  0
  8  3  1  0
 10  9  1  0
 11 10  2  0
 12 11  1  0
 13 12  2  0
 13  3  1  0
 14 13  1  0
 15 14  2  0
 15 10  1  0
 16  3  1  0
 17  1  1  0
 18 17  1  0
 19 18  2  0
 20 19  1  0
 21 20  2  0
 22 21  1  0
 23 22  2  0
 23 18  1  0
 24 17  1  0
 25 24  2  0
 26 25  1  0
 27 26  2  0
 28 27  1  0
 29 28  2  0
 29 24  1  0
 30 17  1  0
 31 30  2  0
 32 30  1  0
 33 32  1  0
 34 32  1  0
  1 35  1  0
  1 36  1  0
  2 37  1  0
  2 38  1  0
  4 39  1  0
  4 40  1  0
  5 41  1  0
  5 42  1  0
  6 43  1  0
  7 44  1  0
  7 45  1  0
  8 46  1  0
  8 47  1  0
 11 48  1  0
 12 49  1  0
 14 50  1  0
 15 51  1  0
 16 52  1  0
 19 53  1  0
 20 54  1  0
 21 55  1  0
 22 56  1  0
 23 57  1  0
 25 58  1  0
 26 59  1  0
 27 60  1  0
 28 61  1  0
 29 62  1  0
 33 63  1  0
 33 64  1  0
 33 65  1  0
 34 66  1  0
 34 67  1  0
 34 68  1  0
M  CHG  1   6   1
M  END
>  <score>  (1) 
-11.01

$$$$
=
     RDKit          3D

 68 71  0  0  0  0  0  0  0  0999 V2000
    1.7270   67.1610   67.8990 C   0  0  0  0  0  0  0  0  0  0  0  0
    0.8440   67.1800   69.1690 C   0  0  0  0  0  0  0  0  0  0  0  0
    1.3670   63.1920   70.6370 C   0  0  0  0  0  0  0  0  0  0  0  0
    2.5510   64.1680   70.7710 C   0  0  0  0  0  0  0  0  0  0  0  0
    2.3920   65.3320   69.8120 C   0  0  0  0  0  0  0  0  0  0  0  0
    1.1890   66.1650   70.2280 N   0  0  0  0  0  4  0  0  0  0  0  0
    0.0290   65.3420   70.7430 C   0  0  0  0  0  0  0  0  0  0  0  0
    0.0840   63.9280   70.1970 C   0  0  0  0  0  0  0  0  0  0  0  0
    1.1080   59.9590   75.7680 Cl  0  0  0  0  0  0  0  0  0  0  0  0
    1.1720   60.8640   74.3090 C   0  0  0  0  0  0  0  0  0  0  0  0
    2.3280   61.5570   73.9720 C   0  0  0  0  0  0  0  0  0  0  0  0
    2.3720   62.2950   72.7850 C   0  0  0  0  0  0  0  0  0  0  0  0
    1.2660   62.3490   71.9100 C   0  0  0  0  0  0  0  0  0  0  0  0
    0.1080   61.6440   72.2810 C   0  0  0  0  0  0  0  0  0  0  0  0
    0.0630   60.9050   73.4690 C   0  0  0  0  0  0  0  0  0  0  0  0
    1.6720   62.3180   69.5380 O   0  0  0  0  0  0  0  0  0  0  0  0
    1.9570   68.5080   67.1020 C   0  0  0  0  0  0  0  0  0  0  0  0
    3.0910   69.4040   67.6630 C   0  0  0  0  0  0  0  0  0  0  0  0
    3.0350   69.9900   68.9410 C   0  0  0  0  0  0  0  0  0  0  0  0
    4.0910   70.7710   69.4200 C   0  0  0  0  0  0  0  0  0  0  0  0
    5.2280   70.9670   68.6430 C   0  0  0  0  0  0  0  0  0  0  0  0
    5.3190   70.3740   67.3870 C   0  0  0  0  0  0  0  0  0  0  0  0
    4.2660   69.5950   66.9050 C   0  0  0  0  0  0  0  0  0  0  0  0
    2.4120   68.1580   65.6350 C   0  0  0  0  0  0  0  0  0  0  0  0
    2.7510   66.8280   65.2960 C   0  0  0  0  0  0  0  0  0  0  0  0
    3.1740   66.4840   64.0080 C   0  0  0  0  0  0  0  0  0  0  0  0
    3.3000   67.4630   63.0320 C   0  0  0  0  0  0  0  0  0  0  0  0
    3.0340   68.7890   63.3520 C   0  0  0  0  0  0  0  0  0  0  0  0
    2.6150   69.1350   64.6420 C   0  0  0  0  0  0  0  0  0  0  0  0
    0.5390   69.2050   67.1610 C   0  0  0  0  0  0  0  0  0  0  0  0
    0.4150   70.2070   67.8900 O   0  0  0  0  0  0  0  0  0  0  0  0
   -0.5040   68.8730   66.3110 N   0  0  0  0  0  0  0  0  0  0  0  0
   -1.8260   69.4290   66.5810 C   0  0  0  0  0  0  0  0  0  0  0  0
   -0.4530   67.9810   65.1570 C   0  0  0  0  0  0  0  0  0  0  0  0
    2.7184   66.7928   68.2017 H   0  0  0  0  0  0  0  0  0  0  0  0
    1.1617   66.5325   67.1952 H   0  0  0  0  0  0  0  0  0  0  0  0
    0.9260   68.1794   69.6211 H   0  0  0  0  0  0  0  0  0  0  0  0
   -0.1699   66.9217   68.8294 H   0  0  0  0  0  0  0  0  0  0  0  0
    2.5895   64.5508   71.8015 H   0  0  0  0  0  0  0  0  0  0  0  0
    3.4815   63.6332   70.5297 H   0  0  0  0  0  0  0  0  0  0  0  0
    3.2976   65.9558   69.8379 H   0  0  0  0  0  0  0  0  0  0  0  0
    2.2412   64.9507   68.7913 H   0  0  0  0  0  0  0  0  0  0  0  0
    1.4569   66.7114   71.0590 H   0  0  0  0  0  0  0  0  0  0  0  0
    0.0727   65.3058   71.8415 H   0  0  0  0  0  0  0  0  0  0  0  0
   -0.9092   65.8107   70.4111 H   0  0  0  0  0  0  0  0  0  0  0  0
   -0.7900   63.3703   70.5647 H   0  0  0  0  0  0  0  0  0  0  0  0
    0.0833   63.9859   69.0985 H   0  0  0  0  0  0  0  0  0  0  0  0
    3.2046   61.5253   74.6358 H   0  0  0  0  0  0  0  0  0  0  0  0
    3.2889   62.8456   72.5276 H   0  0  0  0  0  0  0  0  0  0  0  0
   -0.7765   61.6734   71.6277 H   0  0  0  0  0  0  0  0  0  0  0  0
   -0.8508   60.3555   73.7392 H   0  0  0  0  0  0  0  0  0  0  0  0
    1.9773   61.4433   69.8869 H   0  0  0  0  0  0  0  0  0  0  0  0
    2.1480   69.8314   69.5720 H   0  0  0  0  0  0  0  0  0  0  0  0
    4.0224   71.2327   70.4161 H   0  0  0  0  0  0  0  0  0  0  0  0
    6.0531   71.5890   69.0202 H   0  0  0  0  0  0  0  0  0  0  0  0
    6.2209   70.5193   66.7743 H   0  0  0  0  0  0  0  0  0  0  0  0
    4.3535   69.1212   65.9161 H   0  0  0  0  0  0  0  0  0  0  0  0
    2.6803   66.0441   66.0644 H   0  0  0  0  0  0  0  0  0  0  0  0
    3.4072   65.4361   63.7681 H   0  0  0  0  0  0  0  0  0  0  0  0
    3.6084   67.1910   62.0118 H   0  0  0  0  0  0  0  0  0  0  0  0
    3.1534   69.5708   62.5875 H   0  0  0  0  0  0  0  0  0  0  0  0
    2.4405   70.1935   64.8851 H   0  0  0  0  0  0  0  0  0  0  0  0
   -1.9813   69.4943   67.6680 H   0  0  0  0  0  0  0  0  0  0  0  0
   -1.8984   70.4338   66.1392 H   0  0  0  0  0  0  0  0  0  0  0  0
   -2.5948   68.7780   66.1392 H   0  0  0  0  0  0  0  0  0  0  0  0
   -0.3934   66.9382   65.5020 H   0  0  0  0  0  0  0  0  0  0  0  0
   -1.3603   68.1150   64.5496 H   0  0  0  0  0  0  0  0  0  0  0  0
    0.4331   68.2175   64.5496 H   0  0  0  0  0  0  0  0  0  0  0  0
  2  1  1  0
  4  3  1  0
  5  4  1  0
  6  5  1  0
  6  2  1  0
  7  6  1  0
  8  7  1  0
  8  3  1  0
 10  9  1  0
 11 10  2  0
 12 11  1  0
 13 12  2  0
 13  3  1  0
 14 13  1  0
 15 14  2  0
 15 10  1  0
 16  3  1  0
 17  1  1  0
 18 17  1  0
 19 18  2  0
 20 19  1  0
 21 20  2  0
 22 21  1  0
 23 22  2  0
 23 18  1  0
 24 17  1  0
 25 24  2  0
 26 25  1  0
 27 26  2  0
 28 27  1  0
 29 28  2  0
 29 24  1  0
 30 17  1  0
 31 30  2  0
 32 30  1  0
 33 32  1  0
 34 32  1  0
  1 35  1  0
  1 36  1  0
  2 37  1  0
  2 38  1  0
  4 39  1  0
  4 40  1  0
  5 41  1  0
  5 42  1  0
  6 43  1  0
  7 44  1  0
  7 45  1  0
  8 46  1  0
  8 47  1  0
 11 48  1  0
 12 49  1  0
 14 50  1  0
 15 51  1  0
 16 52  1  0
 19 53  1  0
 20 54  1  0
 21 55  1  0
 22 56  1  0
 23 57  1  0
 25 58  1  0
 26 59  1  0
 27 60  1  0
 28 61  1  0
 29 62  1  0
 33 63  1  0
 33 64  1  0
 33 65  1  0
 34 66  1  0
 34 67  1  0
 34 68  1  0
M  CHG  1   6   1
M  END
>  <score>  (2) 
-10.948

$$$$
=
     RDKit          3D

 68 71  0  0  0  0  0  0  0  0999 V2000
    0.9080   67.9870   65.3040 C   0  0  0  0  0  0  0  0  0  0  0  0
    0.7430   68.1100   66.8380 C   0  0  0  0  0  0  0  0  0  0  0  0
    0.4180   65.7680   70.4060 C   0  0  0  0  0  0  0  0  0  0  0  0
   -0.6480   65.5630   69.3120 C   0  0  0  0  0  0  0  0  0  0  0  0
   -0.6800   66.7520   68.3720 C   0  0  0  0  0  0  0  0  0  0  0  0
    0.6270   66.8130   67.5950 N   0  0  0  0  0  4  0  0  0  0  0  0
    1.8390   66.4280   68.4140 C   0  0  0  0  0  0  0  0  0  0  0  0
    1.5830   66.6400   69.8940 C   0  0  0  0  0  0  0  0  0  0  0  0
    1.7310   60.3120   72.7220 Cl  0  0  0  0  0  0  0  0  0  0  0  0
    1.3720   61.8610   72.0710 C   0  0  0  0  0  0  0  0  0  0  0  0
    0.0600   62.3170   72.0450 C   0  0  0  0  0  0  0  0  0  0  0  0
   -0.2250   63.5770   71.5110 C   0  0  0  0  0  0  0  0  0  0  0  0
    0.7950   64.4080   70.9980 C   0  0  0  0  0  0  0  0  0  0  0  0
    2.1110   63.9170   71.0310 C   0  0  0  0  0  0  0  0  0  0  0  0
    2.3970   62.6550   71.5660 C   0  0  0  0  0  0  0  0  0  0  0  0
   -0.1940   66.5580   71.4390 O   0  0  0  0  0  0  0  0  0  0  0  0
    2.3410   68.1900   64.6660 C   0  0  0  0  0  0  0  0  0  0  0  0
    3.3390   68.9730   65.5560 C   0  0  0  0  0  0  0  0  0  0  0  0
    3.0090   69.4340   66.8450 C   0  0  0  0  0  0  0  0  0  0  0  0
    3.9480   70.1130   67.6270 C   0  0  0  0  0  0  0  0  0  0  0  0
    5.2350   70.3310   67.1470 C   0  0  0  0  0  0  0  0  0  0  0  0
    5.5940   69.8600   65.8890 C   0  0  0  0  0  0  0  0  0  0  0  0
    4.6600   69.1820   65.1040 C   0  0  0  0  0  0  0  0  0  0  0  0
    3.0100   66.7790   64.4600 C   0  0  0  0  0  0  0  0  0  0  0  0
    3.9310   66.5780   63.4060 C   0  0  0  0  0  0  0  0  0  0  0  0
    4.5310   65.3350   63.1820 C   0  0  0  0  0  0  0  0  0  0  0  0
    4.2060   64.2510   63.9880 C   0  0  0  0  0  0  0  0  0  0  0  0
    3.2590   64.4020   64.9920 C   0  0  0  0  0  0  0  0  0  0  0  0
    2.6530   65.6440   65.2130 C   0  0  0  0  0  0  0  0  0  0  0  0
    2.0250   68.9300   63.3040 C   0  0  0  0  0  0  0  0  0  0  0  0
    2.9730   69.1420   62.5250 O   0  0  0  0  0  0  0  0  0  0  0  0
    0.7360   69.1820   62.8610 N   0  0  0  0  0  0  0  0  0  0  0  0
    0.5560   70.0460   61.6980 C   0  0  0  0  0  0  0  0  0  0  0  0
   -0.5110   68.7000   63.4480 C   0  0  0  0  0  0  0  0  0  0  0  0
    0.5709   66.9781   65.0238 H   0  0  0  0  0  0  0  0  0  0  0  0
    0.3223   68.8298   64.9083 H   0  0  0  0  0  0  0  0  0  0  0  0
    1.6178   68.6506   67.2284 H   0  0  0  0  0  0  0  0  0  0  0  0
   -0.2135   68.6307   66.9929 H   0  0  0  0  0  0  0  0  0  0  0  0
   -0.4087   64.6550   68.7391 H   0  0  0  0  0  0  0  0  0  0  0  0
   -1.6334   65.4611   69.7902 H   0  0  0  0  0  0  0  0  0  0  0  0
   -1.5201   66.6433   67.6703 H   0  0  0  0  0  0  0  0  0  0  0  0
   -0.8077   67.6777   68.9523 H   0  0  0  0  0  0  0  0  0  0  0  0
    0.6017   66.0739   66.8781 H   0  0  0  0  0  0  0  0  0  0  0  0
    2.0709   65.3674   68.2371 H   0  0  0  0  0  0  0  0  0  0  0  0
    2.6844   67.0626   68.1096 H   0  0  0  0  0  0  0  0  0  0  0  0
    2.4940   66.3808   70.4534 H   0  0  0  0  0  0  0  0  0  0  0  0
    1.3118   67.6952   70.0458 H   0  0  0  0  0  0  0  0  0  0  0  0
   -0.7510   61.6893   72.4429 H   0  0  0  0  0  0  0  0  0  0  0  0
   -1.2669   63.9290   71.4899 H   0  0  0  0  0  0  0  0  0  0  0  0
    2.9292   64.5335   70.6304 H   0  0  0  0  0  0  0  0  0  0  0  0
    3.4346   62.2904   71.5871 H   0  0  0  0  0  0  0  0  0  0  0  0
    0.0763   66.2091   72.3252 H   0  0  0  0  0  0  0  0  0  0  0  0
    1.9985   69.2574   67.2420 H   0  0  0  0  0  0  0  0  0  0  0  0
    3.6676   70.4766   68.6266 H   0  0  0  0  0  0  0  0  0  0  0  0
    5.9675   70.8750   67.7614 H   0  0  0  0  0  0  0  0  0  0  0  0
    6.6147   70.0218   65.5122 H   0  0  0  0  0  0  0  0  0  0  0  0
    4.9586   68.8037   64.1152 H   0  0  0  0  0  0  0  0  0  0  0  0
    4.1819   67.4210   62.7454 H   0  0  0  0  0  0  0  0  0  0  0  0
    5.2605   65.2154   62.3674 H   0  0  0  0  0  0  0  0  0  0  0  0
    4.6962   63.2787   63.8316 H   0  0  0  0  0  0  0  0  0  0  0  0
    2.9833   63.5402   65.6176 H   0  0  0  0  0  0  0  0  0  0  0  0
    1.8813   65.7355   65.9916 H   0  0  0  0  0  0  0  0  0  0  0  0
    0.3423   71.0718   62.0328 H   0  0  0  0  0  0  0  0  0  0  0  0
    1.4743   70.0418   61.0924 H   0  0  0  0  0  0  0  0  0  0  0  0
   -0.2842   69.6754   61.0924 H   0  0  0  0  0  0  0  0  0  0  0  0
   -0.4353   68.7293   64.5450 H   0  0  0  0  0  0  0  0  0  0  0  0
   -1.3424   69.3415   63.1206 H   0  0  0  0  0  0  0  0  0  0  0  0
   -0.6948   67.6661   63.1206 H   0  0  0  0  0  0  0  0  0  0  0  0
  2  1  1  0
  4  3  1  0
  5  4  1  0
  6  5  1  0
  6  2  1  0
  7  6  1  0
  8  7  1  0
  8  3  1  0
 10  9  1  0
 11 10  2  0
 12 11  1  0
 13 12  2  0
 13  3  1  0
 14 13  1  0
 15 14  2  0
 15 10  1  0
 16  3  1  0
 17  1  1  0
 18 17  1  0
 19 18  2  0
 20 19  1  0
 21 20  2  0
 22 21  1  0
 23 22  2  0
 23 18  1  0
 24 17  1  0
 25 24  2  0
 26 25  1  0
 27 26  2  0
 28 27  1  0
 29 28  2  0
 29 24  1  0
 30 17  1  0
 31 30  2  0
 32 30  1  0
 33 32  1  0
 34 32  1  0
  1 35  1  0
  1 36  1  0
  2 37  1  0
  2 38  1  0
  4 39  1  0
  4 40  1  0
  5 41  1  0
  5 42  1  0
  6 43  1  0
  7 44  1  0
  7 45  1  0
  8 46  1  0
  8 47  1  0
 11 48  1  0
 12 49  1  0
 14 50  1  0
 15 51  1  0
 16 52  1  0
 19 53  1  0
 20 54  1  0
 21 55  1  0
 22 56  1  0
 23 57  1  0
 25 58  1  0
 26 59  1  0
 27 60  1  0
 28 61  1  0
 29 62  1  0
 33 63  1  0
 33 64  1  0
 33 65  1  0
 34 66  1  0
 34 67  1  0
 34 68  1  0
M  CHG  1   6   1
M  END
>  <score>  (3) 
-10.426

$$$$
=
     RDKit          3D

 68 71  0  0  0  0  0  0  0  0999 V2000
    1.8830   66.9440   67.7850 C   0  0  0  0  0  0  0  0  0  0  0  0
    1.1670   66.7790   69.1470 C   0  0  0  0  0  0  0  0  0  0  0  0
    1.4760   63.5990   71.9950 C   0  0  0  0  0  0  0  0  0  0  0  0
    0.0800   63.9260   71.4330 C   0  0  0  0  0  0  0  0  0  0  0  0
    0.0590   65.3220   70.8420 C   0  0  0  0  0  0  0  0  0  0  0  0
    0.9600   65.3630   69.6170 N   0  0  0  0  0  4  0  0  0  0  0  0
    2.2180   64.5350   69.7600 C   0  0  0  0  0  0  0  0  0  0  0  0
    2.5800   64.3480   71.2220 C   0  0  0  0  0  0  0  0  0  0  0  0
    1.8930   57.5590   72.4400 Cl  0  0  0  0  0  0  0  0  0  0  0  0
    1.7900   59.2690   72.3140 C   0  0  0  0  0  0  0  0  0  0  0  0
    0.7340   59.9470   72.9100 C   0  0  0  0  0  0  0  0  0  0  0  0
    0.6540   61.3390   72.8010 C   0  0  0  0  0  0  0  0  0  0  0  0
    1.6300   62.0800   72.1000 C   0  0  0  0  0  0  0  0  0  0  0  0
    2.6830   61.3660   71.5020 C   0  0  0  0  0  0  0  0  0  0  0  0
    2.7630   59.9720   71.6110 C   0  0  0  0  0  0  0  0  0  0  0  0
    1.5300   64.1510   73.3210 O   0  0  0  0  0  0  0  0  0  0  0  0
    1.9310   68.3730   67.1090 C   0  0  0  0  0  0  0  0  0  0  0  0
    3.0310   69.3130   67.6650 C   0  0  0  0  0  0  0  0  0  0  0  0
    2.9710   69.8770   68.9530 C   0  0  0  0  0  0  0  0  0  0  0  0
    3.9970   70.6990   69.4260 C   0  0  0  0  0  0  0  0  0  0  0  0
    5.1090   70.9610   68.6330 C   0  0  0  0  0  0  0  0  0  0  0  0
    5.2060   70.3920   67.3670 C   0  0  0  0  0  0  0  0  0  0  0  0
    4.1820   69.5710   66.8900 C   0  0  0  0  0  0  0  0  0  0  0  0
    2.2840   68.2010   65.5840 C   0  0  0  0  0  0  0  0  0  0  0  0
    1.7270   69.0770   64.6240 C   0  0  0  0  0  0  0  0  0  0  0  0
    2.0040   68.9440   63.2600 C   0  0  0  0  0  0  0  0  0  0  0  0
    2.8230   67.9150   62.8130 C   0  0  0  0  0  0  0  0  0  0  0  0
    3.3360   67.0020   63.7250 C   0  0  0  0  0  0  0  0  0  0  0  0
    3.0540   67.1300   65.0910 C   0  0  0  0  0  0  0  0  0  0  0  0
    0.4710   68.9310   67.3470 C   0  0  0  0  0  0  0  0  0  0  0  0
    0.3560   70.1000   67.7630 O   0  0  0  0  0  0  0  0  0  0  0  0
   -0.6720   68.2580   66.9440 N   0  0  0  0  0  0  0  0  0  0  0  0
   -1.9680   68.7580   67.3910 C   0  0  0  0  0  0  0  0  0  0  0  0
   -0.7450   67.0510   66.1260 C   0  0  0  0  0  0  0  0  0  0  0  0
    2.9246   66.6204   67.9277 H   0  0  0  0  0  0  0  0  0  0  0  0
    1.2715   66.3465   67.0928 H   0  0  0  0  0  0  0  0  0  0  0  0
    1.7656   67.3019   69.9074 H   0  0  0  0  0  0  0  0  0  0  0  0
    0.1585   67.1944   69.0041 H   0  0  0  0  0  0  0  0  0  0  0  0
   -0.1745   63.1973   70.6493 H   0  0  0  0  0  0  0  0  0  0  0  0
   -0.6536   63.8750   72.2510 H   0  0  0  0  0  0  0  0  0  0  0  0
   -0.9693   65.5822   70.5507 H   0  0  0  0  0  0  0  0  0  0  0  0
    0.4200   66.0440   71.5893 H   0  0  0  0  0  0  0  0  0  0  0  0
    0.4677   64.8850   68.8489 H   0  0  0  0  0  0  0  0  0  0  0  0
    2.0544   63.5490   69.3005 H   0  0  0  0  0  0  0  0  0  0  0  0
    3.0436   65.0606   69.2579 H   0  0  0  0  0  0  0  0  0  0  0  0
    3.5139   63.7704   71.2863 H   0  0  0  0  0  0  0  0  0  0  0  0
    2.6983   65.3436   71.6745 H   0  0  0  0  0  0  0  0  0  0  0  0
   -0.0360   59.3913   73.4653 H   0  0  0  0  0  0  0  0  0  0  0  0
   -0.1878   61.8680   73.2717 H   0  0  0  0  0  0  0  0  0  0  0  0
    3.4560   61.9105   70.9398 H   0  0  0  0  0  0  0  0  0  0  0  0
    3.5972   59.4317   71.1396 H   0  0  0  0  0  0  0  0  0  0  0  0
    1.4586   63.4207   73.9856 H   0  0  0  0  0  0  0  0  0  0  0  0
    2.1038   69.6676   69.5966 H   0  0  0  0  0  0  0  0  0  0  0  0
    3.9249   71.1411   70.4306 H   0  0  0  0  0  0  0  0  0  0  0  0
    5.9099   71.6165   69.0057 H   0  0  0  0  0  0  0  0  0  0  0  0
    6.0894   70.5889   66.7418 H   0  0  0  0  0  0  0  0  0  0  0  0
    4.2741   69.1172   65.8922 H   0  0  0  0  0  0  0  0  0  0  0  0
    1.0586   69.8839   64.9589 H   0  0  0  0  0  0  0  0  0  0  0  0
    1.5728   69.6551   62.5400 H   0  0  0  0  0  0  0  0  0  0  0  0
    3.0637   67.8239   61.7435 H   0  0  0  0  0  0  0  0  0  0  0  0
    3.9676   66.1733   63.3725 H   0  0  0  0  0  0  0  0  0  0  0  0
    3.4423   66.3779   65.7936 H   0  0  0  0  0  0  0  0  0  0  0  0
   -1.9973   68.7693   68.4906 H   0  0  0  0  0  0  0  0  0  0  0  0
   -2.1186   69.7788   67.0097 H   0  0  0  0  0  0  0  0  0  0  0  0
   -2.7651   68.1029   67.0097 H   0  0  0  0  0  0  0  0  0  0  0  0
   -0.7984   66.1678   66.7796 H   0  0  0  0  0  0  0  0  0  0  0  0
   -1.6423   67.0921   65.4910 H   0  0  0  0  0  0  0  0  0  0  0  0
    0.1507   66.9836   65.4910 H   0  0  0  0  0  0  0  0  0  0  0  0
  2  1  1  0
  4  3  1  0
  5  4  1  0
  6  5  1  0
  6  2  1  0
  7  6  1  0
  8  7  1  0
  8  3  1  0
 10  9  1  0
 11 10  2  0
 12 11  1  0
 13 12  2  0
 13  3  1  0
 14 13  1  0
 15 14  2  0
 15 10  1  0
 16  3  1  0
 17  1  1  0
 18 17  1  0
 19 18  2  0
 20 19  1  0
 21 20  2  0
 22 21  1  0
 23 22  2  0
 23 18  1  0
 24 17  1  0
 25 24  2  0
 26 25  1  0
 27 26  2  0
 28 27  1  0
 29 28  2  0
 29 24  1  0
 30 17  1  0
 31 30  2  0
 32 30  1  0
 33 32  1  0
 34 32  1  0
  1 35  1  0
  1 36  1  0
  2 37  1  0
  2 38  1  0
  4 39  1  0
  4 40  1  0
  5 41  1  0
  5 42  1  0
  6 43  1  0
  7 44  1  0
  7 45  1  0
  8 46  1  0
  8 47  1  0
 11 48  1  0
 12 49  1  0
 14 50  1  0
 15 51  1  0
 16 52  1  0
 19 53  1  0
 20 54  1  0
 21 55  1  0
 22 56  1  0
 23 57  1  0
 25 58  1  0
 26 59  1  0
 27 60  1  0
 28 61  1  0
 29 62  1  0
 33 63  1  0
 33 64  1  0
 33 65  1  0
 34 66  1  0
 34 67  1  0
 34 68  1  0
M  CHG  1   6   1
M  END
>  <score>  (4) 
-10.338

$$$$
=
     RDKit          3D

 68 71  0  0  0  0  0  0  0  0999 V2000
    2.2700   68.6780   66.3820 C   0  0  0  0  0  0  0  0  0  0  0  0
    0.8170   68.1740   66.5510 C   0  0  0  0  0  0  0  0  0  0  0  0
    0.3950   66.0030   70.2160 C   0  0  0  0  0  0  0  0  0  0  0  0
   -0.6810   65.8000   69.1320 C   0  0  0  0  0  0  0  0  0  0  0  0
   -0.6620   66.9480   68.1420 C   0  0  0  0  0  0  0  0  0  0  0  0
    0.6440   66.9170   67.3630 N   0  0  0  0  0  4  0  0  0  0  0  0
    1.8390   66.5130   68.1970 C   0  0  0  0  0  0  0  0  0  0  0  0
    1.5970   66.7990   69.6670 C   0  0  0  0  0  0  0  0  0  0  0  0
    1.4830   60.6650   72.8950 Cl  0  0  0  0  0  0  0  0  0  0  0  0
    1.1880   62.1750   72.1310 C   0  0  0  0  0  0  0  0  0  0  0  0
    0.3540   63.1080   72.7340 C   0  0  0  0  0  0  0  0  0  0  0  0
    0.1160   64.3340   72.1050 C   0  0  0  0  0  0  0  0  0  0  0  0
    0.7120   64.6540   70.8660 C   0  0  0  0  0  0  0  0  0  0  0  0
    1.5450   63.6880   70.2760 C   0  0  0  0  0  0  0  0  0  0  0  0
    1.7840   62.4600   70.9060 C   0  0  0  0  0  0  0  0  0  0  0  0
   -0.1780   66.8630   71.2140 O   0  0  0  0  0  0  0  0  0  0  0  0
    3.0200   68.4190   65.0130 C   0  0  0  0  0  0  0  0  0  0  0  0
    3.3870   66.9370   64.7480 C   0  0  0  0  0  0  0  0  0  0  0  0
    2.4560   65.8890   64.8770 C   0  0  0  0  0  0  0  0  0  0  0  0
    2.8210   64.5680   64.6020 C   0  0  0  0  0  0  0  0  0  0  0  0
    4.1110   64.2690   64.1780 C   0  0  0  0  0  0  0  0  0  0  0  0
    5.0410   65.2910   64.0140 C   0  0  0  0  0  0  0  0  0  0  0  0
    4.6810   66.6120   64.2890 C   0  0  0  0  0  0  0  0  0  0  0  0
    2.0610   68.8130   63.8280 C   0  0  0  0  0  0  0  0  0  0  0  0
    0.7040   69.1180   64.0840 C   0  0  0  0  0  0  0  0  0  0  0  0
   -0.1800   69.4550   63.0550 C   0  0  0  0  0  0  0  0  0  0  0  0
    0.2580   69.4690   61.7370 C   0  0  0  0  0  0  0  0  0  0  0  0
    1.5700   69.1140   61.4470 C   0  0  0  0  0  0  0  0  0  0  0  0
    2.4540   68.7700   62.4770 C   0  0  0  0  0  0  0  0  0  0  0  0
    4.2910   69.3550   65.1190 C   0  0  0  0  0  0  0  0  0  0  0  0
    4.8020   69.7620   64.0580 O   0  0  0  0  0  0  0  0  0  0  0  0
    4.7420   69.8880   66.3160 N   0  0  0  0  0  0  0  0  0  0  0  0
    6.0330   70.5670   66.3340 C   0  0  0  0  0  0  0  0  0  0  0  0
    4.0800   69.8250   67.6160 C   0  0  0  0  0  0  0  0  0  0  0  0
    2.2534   69.7666   66.5389 H   0  0  0  0  0  0  0  0  0  0  0  0
    2.8407   68.0836   67.1107 H   0  0  0  0  0  0  0  0  0  0  0  0
    0.2386   68.9722   67.0392 H   0  0  0  0  0  0  0  0  0  0  0  0
    0.4708   67.9223   65.5377 H   0  0  0  0  0  0  0  0  0  0  0  0
   -0.4837   64.8586   68.5982 H   0  0  0  0  0  0  0  0  0  0  0  0
   -1.6689   65.7632   69.6144 H   0  0  0  0  0  0  0  0  0  0  0  0
   -1.5078   66.8472   67.4459 H   0  0  0  0  0  0  0  0  0  0  0  0
   -0.7468   67.9025   68.6822 H   0  0  0  0  0  0  0  0  0  0  0  0
    0.5834   66.1500   66.6782 H   0  0  0  0  0  0  0  0  0  0  0  0
    2.0223   65.4364   68.0653 H   0  0  0  0  0  0  0  0  0  0  0  0
    2.7112   67.0955   67.8653 H   0  0  0  0  0  0  0  0  0  0  0  0
    2.4968   66.5226   70.2362 H   0  0  0  0  0  0  0  0  0  0  0  0
    1.3746   67.8709   69.7743 H   0  0  0  0  0  0  0  0  0  0  0  0
   -0.1172   62.8833   73.7022 H   0  0  0  0  0  0  0  0  0  0  0  0
   -0.5503   65.0651   72.5862 H   0  0  0  0  0  0  0  0  0  0  0  0
    2.0164   63.8995   69.3049 H   0  0  0  0  0  0  0  0  0  0  0  0
    2.4443   61.7192   70.4315 H   0  0  0  0  0  0  0  0  0  0  0  0
    0.0499   66.5209   72.1146 H   0  0  0  0  0  0  0  0  0  0  0  0
    1.4280   66.1125   65.1984 H   0  0  0  0  0  0  0  0  0  0  0  0
    2.0836   63.7606   64.7217 H   0  0  0  0  0  0  0  0  0  0  0  0
    4.3958   63.2266   63.9726 H   0  0  0  0  0  0  0  0  0  0  0  0
    6.0590   65.0586   63.6680 H   0  0  0  0  0  0  0  0  0  0  0  0
    5.4200   67.4140   64.1451 H   0  0  0  0  0  0  0  0  0  0  0  0
    0.3346   69.0893   65.1197 H   0  0  0  0  0  0  0  0  0  0  0  0
   -1.2242   69.7095   63.2894 H   0  0  0  0  0  0  0  0  0  0  0  0
   -0.4289   69.7591   60.9283 H   0  0  0  0  0  0  0  0  0  0  0  0
    1.9158   69.1032   60.4028 H   0  0  0  0  0  0  0  0  0  0  0  0
    3.4786   68.4592   62.2247 H   0  0  0  0  0  0  0  0  0  0  0  0
    6.3462   70.7317   67.3755 H   0  0  0  0  0  0  0  0  0  0  0  0
    6.7812   69.9457   65.8200 H   0  0  0  0  0  0  0  0  0  0  0  0
    5.9451   71.5356   65.8200 H   0  0  0  0  0  0  0  0  0  0  0  0
    4.8329   69.8967   68.4147 H   0  0  0  0  0  0  0  0  0  0  0  0
    3.3691   70.6595   67.7063 H   0  0  0  0  0  0  0  0  0  0  0  0
    3.5393   68.8713   67.7063 H   0  0  0  0  0  0  0  0  0  0  0  0
  2  1  1  0
  4  3  1  0
  5  4  1  0
  6  5  1  0
  6  2  1  0
  7  6  1  0
  8  7  1  0
  8  3  1  0
 10  9  1  0
 11 10  2  0
 12 11  1  0
 13 12  2  0
 13  3  1  0
 14 13  1  0
 15 14  2  0
 15 10  1  0
 16  3  1  0
 17  1  1  0
 18 17  1  0
 19 18  2  0
 20 19  1  0
 21 20  2  0
 22 21  1  0
 23 22  2  0
 23 18  1  0
 24 17  1  0
 25 24  2  0
 26 25  1  0
 27 26  2  0
 28 27  1  0
 29 28  2  0
 29 24  1  0
 30 17  1  0
 31 30  2  0
 32 30  1  0
 33 32  1  0
 34 32  1  0
  1 35  1  0
  1 36  1  0
  2 37  1  0
  2 38  1  0
  4 39  1  0
  4 40  1  0
  5 41  1  0
  5 42  1  0
  6 43  1  0
  7 44  1  0
  7 45  1  0
  8 46  1  0
  8 47  1  0
 11 48  1  0
 12 49  1  0
 14 50  1  0
 15 51  1  0
 16 52  1  0
 19 53  1  0
 20 54  1  0
 21 55  1  0
 22 56  1  0
 23 57  1  0
 25 58  1  0
 26 59  1  0
 27 60  1  0
 28 61  1  0
 29 62  1  0
 33 63  1  0
 33 64  1  0
 33 65  1  0
 34 66  1  0
 34 67  1  0
 34 68  1  0
M  CHG  1   6   1
M  END
>  <score>  (5) 
-10.046

$$$$
=
     RDKit          3D

 68 71  0  0  0  0  0  0  0  0999 V2000
    0.9680   68.7130   66.1610 C   0  0  0  0  0  0  0  0  0  0  0  0
    0.0080   67.6490   66.7440 C   0  0  0  0  0  0  0  0  0  0  0  0
    0.8380   65.3060   70.2290 C   0  0  0  0  0  0  0  0  0  0  0  0
    1.5380   66.6720   70.0980 C   0  0  0  0  0  0  0  0  0  0  0  0
    1.5270   67.1380   68.6550 C   0  0  0  0  0  0  0  0  0  0  0  0
    0.0950   67.4260   68.2310 N   0  0  0  0  0  4  0  0  0  0  0  0
   -0.9140   66.4550   68.8030 C   0  0  0  0  0  0  0  0  0  0  0  0
   -0.2560   65.1340   69.1550 C   0  0  0  0  0  0  0  0  0  0  0  0
   -0.7410   64.3740   76.0160 Cl  0  0  0  0  0  0  0  0  0  0  0  0
   -0.3060   64.6460   74.3760 C   0  0  0  0  0  0  0  0  0  0  0  0
    0.3940   63.6740   73.6730 C   0  0  0  0  0  0  0  0  0  0  0  0
    0.7480   63.9040   72.3400 C   0  0  0  0  0  0  0  0  0  0  0  0
    0.4030   65.1040   71.6820 C   0  0  0  0  0  0  0  0  0  0  0  0
   -0.2990   66.0710   72.4210 C   0  0  0  0  0  0  0  0  0  0  0  0
   -0.6530   65.8430   73.7560 C   0  0  0  0  0  0  0  0  0  0  0  0
    1.8170   64.3050   69.9060 O   0  0  0  0  0  0  0  0  0  0  0  0
    1.9500   68.3030   64.9900 C   0  0  0  0  0  0  0  0  0  0  0  0
    1.5370   68.8210   63.5900 C   0  0  0  0  0  0  0  0  0  0  0  0
    2.3560   68.6770   62.4530 C   0  0  0  0  0  0  0  0  0  0  0  0
    1.9330   69.1350   61.2020 C   0  0  0  0  0  0  0  0  0  0  0  0
    0.6840   69.7280   61.0560 C   0  0  0  0  0  0  0  0  0  0  0  0
   -0.1550   69.8560   62.1580 C   0  0  0  0  0  0  0  0  0  0  0  0
    0.2630   69.4000   63.4100 C   0  0  0  0  0  0  0  0  0  0  0  0
    3.3590   68.9550   65.2590 C   0  0  0  0  0  0  0  0  0  0  0  0
    3.7290   69.3290   66.5710 C   0  0  0  0  0  0  0  0  0  0  0  0
    4.9640   69.9260   66.8440 C   0  0  0  0  0  0  0  0  0  0  0  0
    5.8520   70.1910   65.8100 C   0  0  0  0  0  0  0  0  0  0  0  0
    5.4920   69.8910   64.5030 C   0  0  0  0  0  0  0  0  0  0  0  0
    4.2540   69.2990   64.2280 C   0  0  0  0  0  0  0  0  0  0  0  0
    1.9720   66.7240   65.0770 C   0  0  0  0  0  0  0  0  0  0  0  0
    0.9070   66.1430   65.3600 O   0  0  0  0  0  0  0  0  0  0  0  0
    3.0560   65.9580   64.6780 N   0  0  0  0  0  0  0  0  0  0  0  0
    3.0540   64.5320   64.9880 C   0  0  0  0  0  0  0  0  0  0  0  0
    4.2580   66.4200   63.9890 C   0  0  0  0  0  0  0  0  0  0  0  0
    0.3446   69.5375   65.7847 H   0  0  0  0  0  0  0  0  0  0  0  0
    1.6411   68.9474   66.9989 H   0  0  0  0  0  0  0  0  0  0  0  0
   -1.0209   67.9595   66.5098 H   0  0  0  0  0  0  0  0  0  0  0  0
    0.3062   66.6958   66.2830 H   0  0  0  0  0  0  0  0  0  0  0  0
    1.0112   67.4100   70.7208 H   0  0  0  0  0  0  0  0  0  0  0  0
    2.5814   66.5706   70.4312 H   0  0  0  0  0  0  0  0  0  0  0  0
    2.1296   68.0533   68.5598 H   0  0  0  0  0  0  0  0  0  0  0  0
    1.9514   66.3536   68.0111 H   0  0  0  0  0  0  0  0  0  0  0  0
   -0.1878   68.3176   68.6622 H   0  0  0  0  0  0  0  0  0  0  0  0
   -1.3572   66.8897   69.7111 H   0  0  0  0  0  0  0  0  0  0  0  0
   -1.6909   66.2697   68.0466 H   0  0  0  0  0  0  0  0  0  0  0  0
   -1.0236   64.4445   69.5362 H   0  0  0  0  0  0  0  0  0  0  0  0
    0.2177   64.7355   68.2457 H   0  0  0  0  0  0  0  0  0  0  0  0
    0.6685   62.7279   74.1625 H   0  0  0  0  0  0  0  0  0  0  0  0
    1.3081   63.1322   71.7917 H   0  0  0  0  0  0  0  0  0  0  0  0
   -0.5748   67.0225   71.9429 H   0  0  0  0  0  0  0  0  0  0  0  0
   -1.2064   66.6111   74.3161 H   0  0  0  0  0  0  0  0  0  0  0  0
    2.1885   63.9251   70.7413 H   0  0  0  0  0  0  0  0  0  0  0  0
    3.3413   68.1979   62.5509 H   0  0  0  0  0  0  0  0  0  0  0  0
    2.5920   69.0256   60.3281 H   0  0  0  0  0  0  0  0  0  0  0  0
    0.3600   70.0952   60.0710 H   0  0  0  0  0  0  0  0  0  0  0  0
   -1.1475   70.3163   62.0433 H   0  0  0  0  0  0  0  0  0  0  0  0
   -0.4137   69.4940   64.2721 H   0  0  0  0  0  0  0  0  0  0  0  0
    3.0277   69.1458   67.3984 H   0  0  0  0  0  0  0  0  0  0  0  0
    5.2320   70.1858   67.8787 H   0  0  0  0  0  0  0  0  0  0  0  0
    6.8348   70.6359   66.0250 H   0  0  0  0  0  0  0  0  0  0  0  0
    6.1838   70.1199   63.6790 H   0  0  0  0  0  0  0  0  0  0  0  0
    3.9741   69.0980   63.1834 H   0  0  0  0  0  0  0  0  0  0  0  0
    3.0538   64.3940   66.0793 H   0  0  0  0  0  0  0  0  0  0  0  0
    2.1552   64.0648   64.5592 H   0  0  0  0  0  0  0  0  0  0  0  0
    3.9515   64.0623   64.5592 H   0  0  0  0  0  0  0  0  0  0  0  0
    5.0165   66.7115   64.7304 H   0  0  0  0  0  0  0  0  0  0  0  0
    4.6537   65.6099   63.3588 H   0  0  0  0  0  0  0  0  0  0  0  0
    4.0092   67.2866   63.3588 H   0  0  0  0  0  0  0  0  0  0  0  0
  2  1  1  0
  4  3  1  0
  5  4  1  0
  6  5  1  0
  6  2  1  0
  7  6  1  0
  8  7  1  0
  8  3  1  0
 10  9  1  0
 11 10  2  0
 12 11  1  0
 13 12  2  0
 13  3  1  0
 14 13  1  0
 15 14  2  0
 15 10  1  0
 16  3  1  0
 17  1  1  0
 18 17  1  0
 19 18  2  0
 20 19  1  0
 21 20  2  0
 22 21  1  0
 23 22  2  0
 23 18  1  0
 24 17  1  0
 25 24  2  0
 26 25  1  0
 27 26  2  0
 28 27  1  0
 29 28  2  0
 29 24  1  0
 30 17  1  0
 31 30  2  0
 32 30  1  0
 33 32  1  0
 34 32  1  0
  1 35  1  0
  1 36  1  0
  2 37  1  0
  2 38  1  0
  4 39  1  0
  4 40  1  0
  5 41  1  0
  5 42  1  0
  6 43  1  0
  7 44  1  0
  7 45  1  0
  8 46  1  0
  8 47  1  0
 11 48  1  0
 12 49  1  0
 14 50  1  0
 15 51  1  0
 16 52  1  0
 19 53  1  0
 20 54  1  0
 21 55  1  0
 22 56  1  0
 23 57  1  0
 25 58  1  0
 26 59  1  0
 27 60  1  0
 28 61  1  0
 29 62  1  0
 33 63  1  0
 33 64  1  0
 33 65  1  0
 34 66  1  0
 34 67  1  0
 34 68  1  0
M  CHG  1   6   1
M  END
>  <score>  (6) 
-9.945

$$$$
=
     RDKit          3D

 68 71  0  0  0  0  0  0  0  0999 V2000
    1.3140   60.2320   72.3450 C   0  0  0  0  0  0  0  0  0  0  0  0
    2.1150   58.9410   72.6340 C   0  0  0  0  0  0  0  0  0  0  0  0
    2.1070   55.4280   75.0810 C   0  0  0  0  0  0  0  0  0  0  0  0
    2.1350   56.7970   75.7880 C   0  0  0  0  0  0  0  0  0  0  0  0
    2.6080   57.8770   74.8360 C   0  0  0  0  0  0  0  0  0  0  0  0
    1.5770   58.0620   73.7340 N   0  0  0  0  0  4  0  0  0  0  0  0
    0.9360   56.7700   73.2780 C   0  0  0  0  0  0  0  0  0  0  0  0
    1.8380   55.5860   73.5700 C   0  0  0  0  0  0  0  0  0  0  0  0
   -1.7330   51.8500   78.1310 Cl  0  0  0  0  0  0  0  0  0  0  0  0
   -0.6360   52.8520   77.2680 C   0  0  0  0  0  0  0  0  0  0  0  0
   -0.6760   54.2300   77.4350 C   0  0  0  0  0  0  0  0  0  0  0  0
    0.2170   55.0400   76.7270 C   0  0  0  0  0  0  0  0  0  0  0  0
    1.1710   54.4890   75.8450 C   0  0  0  0  0  0  0  0  0  0  0  0
    1.1840   53.0920   75.6920 C   0  0  0  0  0  0  0  0  0  0  0  0
    0.2890   52.2800   76.4000 C   0  0  0  0  0  0  0  0  0  0  0  0
    3.4400   54.8960   75.1530 O   0  0  0  0  0  0  0  0  0  0  0  0
    1.9780   61.6350   72.6550 C   0  0  0  0  0  0  0  0  0  0  0  0
    1.5340   62.7810   71.7110 C   0  0  0  0  0  0  0  0  0  0  0  0
    0.1960   62.9660   71.3150 C   0  0  0  0  0  0  0  0  0  0  0  0
   -0.1660   64.0300   70.4840 C   0  0  0  0  0  0  0  0  0  0  0  0
    0.7920   64.9370   70.0470 C   0  0  0  0  0  0  0  0  0  0  0  0
    2.1170   64.7930   70.4480 C   0  0  0  0  0  0  0  0  0  0  0  0
    2.4830   63.7320   71.2770 C   0  0  0  0  0  0  0  0  0  0  0  0
    1.5300   62.1020   74.0910 C   0  0  0  0  0  0  0  0  0  0  0  0
    0.9850   61.1680   75.0020 C   0  0  0  0  0  0  0  0  0  0  0  0
    0.5610   61.5500   76.2790 C   0  0  0  0  0  0  0  0  0  0  0  0
    0.6430   62.8800   76.6710 C   0  0  0  0  0  0  0  0  0  0  0  0
    1.1160   63.8310   75.7750 C   0  0  0  0  0  0  0  0  0  0  0  0
    1.5350   63.4500   74.4950 C   0  0  0  0  0  0  0  0  0  0  0  0
    3.5260   61.3270   72.5590 C   0  0  0  0  0  0  0  0  0  0  0  0
    4.1640   61.2210   73.6230 O   0  0  0  0  0  0  0  0  0  0  0  0
    4.1590   60.9900   71.3730 N   0  0  0  0  0  0  0  0  0  0  0  0
    5.6170   60.9260   71.3550 C   0  0  0  0  0  0  0  0  0  0  0  0
    3.5310   60.7120   70.0840 C   0  0  0  0  0  0  0  0  0  0  0  0
    1.0650   60.2234   71.2736 H   0  0  0  0  0  0  0  0  0  0  0  0
    0.4692   60.1800   73.0475 H   0  0  0  0  0  0  0  0  0  0  0  0
    2.1394   58.3459   71.7092 H   0  0  0  0  0  0  0  0  0  0  0  0
    3.1040   59.2766   72.9794 H   0  0  0  0  0  0  0  0  0  0  0  0
    1.1224   57.0432   76.1402 H   0  0  0  0  0  0  0  0  0  0  0  0
    2.8302   56.7436   76.6388 H   0  0  0  0  0  0  0  0  0  0  0  0
    2.7326   58.8220   75.3850 H   0  0  0  0  0  0  0  0  0  0  0  0
    3.5712   57.5825   74.3939 H   0  0  0  0  0  0  0  0  0  0  0  0
    0.7785   58.5749   74.1343 H   0  0  0  0  0  0  0  0  0  0  0  0
   -0.0185   56.6349   73.8077 H   0  0  0  0  0  0  0  0  0  0  0  0
    0.7683   56.8248   72.1922 H   0  0  0  0  0  0  0  0  0  0  0  0
    1.3556   54.6706   73.1968 H   0  0  0  0  0  0  0  0  0  0  0  0
    2.8014   55.7588   73.0680 H   0  0  0  0  0  0  0  0  0  0  0  0
   -1.4070   54.6823   78.1213 H   0  0  0  0  0  0  0  0  0  0  0  0
    0.1750   56.1311   76.8604 H   0  0  0  0  0  0  0  0  0  0  0  0
    1.9083   52.6292   75.0056 H   0  0  0  0  0  0  0  0  0  0  0  0
    0.3174   51.1881   76.2696 H   0  0  0  0  0  0  0  0  0  0  0  0
    3.7027   54.7912   76.1017 H   0  0  0  0  0  0  0  0  0  0  0  0
   -0.5752   62.2637   71.6643 H   0  0  0  0  0  0  0  0  0  0  0  0
   -1.2146   64.1501   70.1743 H   0  0  0  0  0  0  0  0  0  0  0  0
    0.5036   65.7672   69.3854 H   0  0  0  0  0  0  0  0  0  0  0  0
    2.8753   65.5153   70.1115 H   0  0  0  0  0  0  0  0  0  0  0  0
    3.5305   63.6347   71.5984 H   0  0  0  0  0  0  0  0  0  0  0  0
    0.8921   60.1147   74.6989 H   0  0  0  0  0  0  0  0  0  0  0  0
    0.1621   60.7962   76.9737 H   0  0  0  0  0  0  0  0  0  0  0  0
    0.3355   63.1785   77.6841 H   0  0  0  0  0  0  0  0  0  0  0  0
    1.1614   64.8888   76.0732 H   0  0  0  0  0  0  0  0  0  0  0  0
    1.8759   64.2216   73.7890 H   0  0  0  0  0  0  0  0  0  0  0  0
    5.9961   60.9094   72.3875 H   0  0  0  0  0  0  0  0  0  0  0  0
    5.9375   60.0129   70.8320 H   0  0  0  0  0  0  0  0  0  0  0  0
    6.0163   61.8075   70.8320 H   0  0  0  0  0  0  0  0  0  0  0  0
    2.5364   60.2717   70.2481 H   0  0  0  0  0  0  0  0  0  0  0  0
    3.4283   61.6487   69.5166 H   0  0  0  0  0  0  0  0  0  0  0  0
    4.1554   60.0062   69.5166 H   0  0  0  0  0  0  0  0  0  0  0  0
  2  1  1  0
  4  3  1  0
  5  4  1  0
  6  5  1  0
  6  2  1  0
  7  6  1  0
  8  7  1  0
  8  3  1  0
 10  9  1  0
 11 10  2  0
 12 11  1  0
 13 12  2  0
 13  3  1  0
 14 13  1  0
 15 14  2  0
 15 10  1  0
 16  3  1  0
 17  1  1  0
 18 17  1  0
 19 18  2  0
 20 19  1  0
 21 20  2  0
 22 21  1  0
 23 22  2  0
 23 18  1  0
 24 17  1  0
 25 24  2  0
 26 25  1  0
 27 26  2  0
 28 27  1  0
 29 28  2  0
 29 24  1  0
 30 17  1  0
 31 30  2  0
 32 30  1  0
 33 32  1  0
 34 32  1  0
  1 35  1  0
  1 36  1  0
  2 37  1  0
  2 38  1  0
  4 39  1  0
  4 40  1  0
  5 41  1  0
  5 42  1  0
  6 43  1  0
  7 44  1  0
  7 45  1  0
  8 46  1  0
  8 47  1  0
 11 48  1  0
 12 49  1  0
 14 50  1  0
 15 51  1  0
 16 52  1  0
 19 53  1  0
 20 54  1  0
 21 55  1  0
 22 56  1  0
 23 57  1  0
 25 58  1  0
 26 59  1  0
 27 60  1  0
 28 61  1  0
 29 62  1  0
 33 63  1  0
 33 64  1  0
 33 65  1  0
 34 66  1  0
 34 67  1  0
 34 68  1  0
M  CHG  1   6   1
M  END
>  <score>  (7) 
-9.705

$$$$
=
     RDKit          3D

 68 71  0  0  0  0  0  0  0  0999 V2000
    0.2690   58.7020   75.2130 C   0  0  0  0  0  0  0  0  0  0  0  0
    0.4970   60.1580   75.6850 C   0  0  0  0  0  0  0  0  0  0  0  0
    1.3370   62.2000   72.0180 C   0  0  0  0  0  0  0  0  0  0  0  0
   -0.1020   61.7010   72.2490 C   0  0  0  0  0  0  0  0  0  0  0  0
   -0.1260   60.6220   73.3140 C   0  0  0  0  0  0  0  0  0  0  0  0
    0.2640   61.2310   74.6530 N   0  0  0  0  0  4  0  0  0  0  0  0
    1.3480   62.2800   74.5510 C   0  0  0  0  0  0  0  0  0  0  0  0
    2.1840   62.0770   73.3020 C   0  0  0  0  0  0  0  0  0  0  0  0
    1.2700   67.6240   69.2930 Cl  0  0  0  0  0  0  0  0  0  0  0  0
    1.2810   66.0950   70.0750 C   0  0  0  0  0  0  0  0  0  0  0  0
    2.3680   65.2430   69.9200 C   0  0  0  0  0  0  0  0  0  0  0  0
    2.3690   63.9980   70.5570 C   0  0  0  0  0  0  0  0  0  0  0  0
    1.2880   63.5830   71.3650 C   0  0  0  0  0  0  0  0  0  0  0  0
    0.2000   64.4630   71.4970 C   0  0  0  0  0  0  0  0  0  0  0  0
    0.1980   65.7090   70.8590 C   0  0  0  0  0  0  0  0  0  0  0  0
    1.9510   61.2850   71.0950 O   0  0  0  0  0  0  0  0  0  0  0  0
    1.5020   57.7130   75.1460 C   0  0  0  0  0  0  0  0  0  0  0  0
    1.1290   56.2340   74.8720 C   0  0  0  0  0  0  0  0  0  0  0  0
   -0.1480   55.8410   74.4320 C   0  0  0  0  0  0  0  0  0  0  0  0
   -0.4360   54.4980   74.1700 C   0  0  0  0  0  0  0  0  0  0  0  0
    0.5470   53.5270   74.3260 C   0  0  0  0  0  0  0  0  0  0  0  0
    1.8260   53.8940   74.7320 C   0  0  0  0  0  0  0  0  0  0  0  0
    2.1170   55.2340   74.9950 C   0  0  0  0  0  0  0  0  0  0  0  0
    2.4190   58.1270   73.9340 C   0  0  0  0  0  0  0  0  0  0  0  0
    3.5380   58.9640   74.1450 C   0  0  0  0  0  0  0  0  0  0  0  0
    4.3650   59.3650   73.0900 C   0  0  0  0  0  0  0  0  0  0  0  0
    4.0790   58.9650   71.7910 C   0  0  0  0  0  0  0  0  0  0  0  0
    2.9510   58.1930   71.5440 C   0  0  0  0  0  0  0  0  0  0  0  0
    2.1190   57.7960   72.5990 C   0  0  0  0  0  0  0  0  0  0  0  0
    2.2020   57.9190   76.5500 C   0  0  0  0  0  0  0  0  0  0  0  0
    3.2310   58.6190   76.5880 O   0  0  0  0  0  0  0  0  0  0  0  0
    1.6300   57.5180   77.7470 N   0  0  0  0  0  0  0  0  0  0  0  0
    2.4420   57.5680   78.9580 C   0  0  0  0  0  0  0  0  0  0  0  0
    0.2790   57.0040   77.9520 C   0  0  0  0  0  0  0  0  0  0  0  0
   -0.4666   58.2534   75.8968 H   0  0  0  0  0  0  0  0  0  0  0  0
   -0.0375   58.8114   74.1622 H   0  0  0  0  0  0  0  0  0  0  0  0
   -0.1830   60.3488   76.5283 H   0  0  0  0  0  0  0  0  0  0  0  0
    1.5642   60.2222   75.9439 H   0  0  0  0  0  0  0  0  0  0  0  0
   -0.7296   62.5440   72.5737 H   0  0  0  0  0  0  0  0  0  0  0  0
   -0.4878   61.2808   71.3085 H   0  0  0  0  0  0  0  0  0  0  0  0
   -1.1381   60.1969   73.3841 H   0  0  0  0  0  0  0  0  0  0  0  0
    0.5853   59.8258   73.0492 H   0  0  0  0  0  0  0  0  0  0  0  0
   -0.5392   61.7772   74.9956 H   0  0  0  0  0  0  0  0  0  0  0  0
    0.8826   63.2760   74.5146 H   0  0  0  0  0  0  0  0  0  0  0  0
    2.0038   62.1934   75.4299 H   0  0  0  0  0  0  0  0  0  0  0  0
    2.9787   62.8372   73.2783 H   0  0  0  0  0  0  0  0  0  0  0  0
    2.6076   61.0624   73.3358 H   0  0  0  0  0  0  0  0  0  0  0  0
    3.2237   65.5466   69.2991 H   0  0  0  0  0  0  0  0  0  0  0  0
    3.2309   63.3273   70.4257 H   0  0  0  0  0  0  0  0  0  0  0  0
   -0.6635   64.1680   72.1113 H   0  0  0  0  0  0  0  0  0  0  0  0
   -0.6618   66.3847   70.9777 H   0  0  0  0  0  0  0  0  0  0  0  0
    2.4259   60.5773   71.5986 H   0  0  0  0  0  0  0  0  0  0  0  0
   -0.9310   56.6008   74.2921 H   0  0  0  0  0  0  0  0  0  0  0  0
   -1.4443   54.2085   73.8391 H   0  0  0  0  0  0  0  0  0  0  0  0
    0.3137   52.4703   74.1287 H   0  0  0  0  0  0  0  0  0  0  0  0
    2.6079   53.1287   74.8458 H   0  0  0  0  0  0  0  0  0  0  0  0
    3.1347   55.5152   75.3036 H   0  0  0  0  0  0  0  0  0  0  0  0
    3.7646   59.3090   75.1646 H   0  0  0  0  0  0  0  0  0  0  0  0
    5.2425   59.9976   73.2895 H   0  0  0  0  0  0  0  0  0  0  0  0
    4.7416   59.2577   70.9631 H   0  0  0  0  0  0  0  0  0  0  0  0
    2.7095   57.8916   70.5140 H   0  0  0  0  0  0  0  0  0  0  0  0
    1.2122   57.2133   72.3795 H   0  0  0  0  0  0  0  0  0  0  0  0
    1.7868   57.5277   79.8407 H   0  0  0  0  0  0  0  0  0  0  0  0
    3.1309   56.7106   78.9732 H   0  0  0  0  0  0  0  0  0  0  0  0
    3.0205   58.5035   78.9732 H   0  0  0  0  0  0  0  0  0  0  0  0
    0.0758   56.9267   79.0303 H   0  0  0  0  0  0  0  0  0  0  0  0
   -0.4477   57.6885   77.4901 H   0  0  0  0  0  0  0  0  0  0  0  0
    0.1910   56.0096   77.4901 H   0  0  0  0  0  0  0  0  0  0  0  0
  2  1  1  0
  4  3  1  0
  5  4  1  0
  6  5  1  0
  6  2  1  0
  7  6  1  0
  8  7  1  0
  8  3  1  0
 10  9  1  0
 11 10  2  0
 12 11  1  0
 13 12  2  0
 13  3  1  0
 14 13  1  0
 15 14  2  0
 15 10  1  0
 16  3  1  0
 17  1  1  0
 18 17  1  0
 19 18  2  0
 20 19  1  0
 21 20  2  0
 22 21  1  0
 23 22  2  0
 23 18  1  0
 24 17  1  0
 25 24  2  0
 26 25  1  0
 27 26  2  0
 28 27  1  0
 29 28  2  0
 29 24  1  0
 30 17  1  0
 31 30  2  0
 32 30  1  0
 33 32  1  0
 34 32  1  0
  1 35  1  0
  1 36  1  0
  2 37  1  0
  2 38  1  0
  4 39  1  0
  4 40  1  0
  5 41  1  0
  5 42  1  0
  6 43  1  0
  7 44  1  0
  7 45  1  0
  8 46  1  0
  8 47  1  0
 11 48  1  0
 12 49  1  0
 14 50  1  0
 15 51  1  0
 16 52  1  0
 19 53  1  0
 20 54  1  0
 21 55  1  0
 22 56  1  0
 23 57  1  0
 25 58  1  0
 26 59  1  0
 27 60  1  0
 28 61  1  0
 29 62  1  0
 33 63  1  0
 33 64  1  0
 33 65  1  0
 34 66  1  0
 34 67  1  0
 34 68  1  0
M  CHG  1   6   1
M  END
>  <score>  (8) 
-9.618

$$$$
=
     RDKit          3D

 68 71  0  0  0  0  0  0  0  0999 V2000
    3.0080   58.2220   74.7540 C   0  0  0  0  0  0  0  0  0  0  0  0
    2.6510   58.2180   73.2490 C   0  0  0  0  0  0  0  0  0  0  0  0
    1.9800   62.4440   73.1120 C   0  0  0  0  0  0  0  0  0  0  0  0
    3.3760   61.9250   72.7160 C   0  0  0  0  0  0  0  0  0  0  0  0
    3.5960   60.5270   73.2600 C   0  0  0  0  0  0  0  0  0  0  0  0
    2.6440   59.5630   72.5690 N   0  0  0  0  0  4  0  0  0  0  0  0
    1.2760   60.1490   72.3010 C   0  0  0  0  0  0  0  0  0  0  0  0
    0.9740   61.2840   73.2610 C   0  0  0  0  0  0  0  0  0  0  0  0
    0.4960   66.8450   69.2020 Cl  0  0  0  0  0  0  0  0  0  0  0  0
    0.9100   65.6070   70.3190 C   0  0  0  0  0  0  0  0  0  0  0  0
    2.0790   64.8760   70.1460 C   0  0  0  0  0  0  0  0  0  0  0  0
    2.4070   63.8680   71.0570 C   0  0  0  0  0  0  0  0  0  0  0  0
    1.5790   63.5750   72.1620 C   0  0  0  0  0  0  0  0  0  0  0  0
    0.4000   64.3250   72.3070 C   0  0  0  0  0  0  0  0  0  0  0  0
    0.0700   65.3350   71.3950 C   0  0  0  0  0  0  0  0  0  0  0  0
    2.0990   62.9870   74.4370 O   0  0  0  0  0  0  0  0  0  0  0  0
    2.0710   57.4500   75.7690 C   0  0  0  0  0  0  0  0  0  0  0  0
    1.4820   56.1250   75.2230 C   0  0  0  0  0  0  0  0  0  0  0  0
    0.2460   56.0600   74.5530 C   0  0  0  0  0  0  0  0  0  0  0  0
   -0.2370   54.8480   74.0520 C   0  0  0  0  0  0  0  0  0  0  0  0
    0.5090   53.6820   74.1940 C   0  0  0  0  0  0  0  0  0  0  0  0
    1.7470   53.7250   74.8270 C   0  0  0  0  0  0  0  0  0  0  0  0
    2.2330   54.9340   75.3290 C   0  0  0  0  0  0  0  0  0  0  0  0
    2.9230   57.0240   77.0230 C   0  0  0  0  0  0  0  0  0  0  0  0
    2.2790   56.6670   78.2300 C   0  0  0  0  0  0  0  0  0  0  0  0
    3.0030   56.3000   79.3690 C   0  0  0  0  0  0  0  0  0  0  0  0
    4.3920   56.3060   79.3420 C   0  0  0  0  0  0  0  0  0  0  0  0
    5.0540   56.7110   78.1890 C   0  0  0  0  0  0  0  0  0  0  0  0
    4.3290   57.0850   77.0510 C   0  0  0  0  0  0  0  0  0  0  0  0
    0.9570   58.5190   76.1120 C   0  0  0  0  0  0  0  0  0  0  0  0
   -0.2250   58.1300   76.1680 O   0  0  0  0  0  0  0  0  0  0  0  0
    1.2480   59.8090   76.5300 N   0  0  0  0  0  0  0  0  0  0  0  0
    0.1570   60.7730   76.6230 C   0  0  0  0  0  0  0  0  0  0  0  0
    2.5590   60.3520   76.8710 C   0  0  0  0  0  0  0  0  0  0  0  0
    4.0131   57.7850   74.8476 H   0  0  0  0  0  0  0  0  0  0  0  0
    2.9001   59.2768   75.0469 H   0  0  0  0  0  0  0  0  0  0  0  0
    3.3841   57.5825   72.7307 H   0  0  0  0  0  0  0  0  0  0  0  0
    1.6160   57.8502   73.1903 H   0  0  0  0  0  0  0  0  0  0  0  0
    3.4567   61.9036   71.6192 H   0  0  0  0  0  0  0  0  0  0  0  0
    4.1384   62.5957   73.1390 H   0  0  0  0  0  0  0  0  0  0  0  0
    4.6343   60.2178   73.0695 H   0  0  0  0  0  0  0  0  0  0  0  0
    3.4061   60.5192   74.3435 H   0  0  0  0  0  0  0  0  0  0  0  0
    3.0019   59.3946   71.6180 H   0  0  0  0  0  0  0  0  0  0  0  0
    1.2440   60.5315   71.2701 H   0  0  0  0  0  0  0  0  0  0  0  0
    0.5226   59.3601   72.4425 H   0  0  0  0  0  0  0  0  0  0  0  0
   -0.0385   61.6626   73.0574 H   0  0  0  0  0  0  0  0  0  0  0  0
    1.0517   60.8939   74.2866 H   0  0  0  0  0  0  0  0  0  0  0  0
    2.7434   65.0897   69.2958 H   0  0  0  0  0  0  0  0  0  0  0  0
    3.3312   63.2900   70.9095 H   0  0  0  0  0  0  0  0  0  0  0  0
   -0.2746   64.1155   73.1503 H   0  0  0  0  0  0  0  0  0  0  0  0
   -0.8551   65.9147   71.5292 H   0  0  0  0  0  0  0  0  0  0  0  0
    1.9421   62.2710   75.1024 H   0  0  0  0  0  0  0  0  0  0  0  0
   -0.3484   56.9762   74.4218 H   0  0  0  0  0  0  0  0  0  0  0  0
   -1.2116   54.8157   73.5430 H   0  0  0  0  0  0  0  0  0  0  0  0
    0.1207   52.7285   73.8066 H   0  0  0  0  0  0  0  0  0  0  0  0
    2.3431   52.8065   74.9321 H   0  0  0  0  0  0  0  0  0  0  0  0
    3.2190   54.9590   75.8160 H   0  0  0  0  0  0  0  0  0  0  0  0
    1.1800   56.6782   78.2744 H   0  0  0  0  0  0  0  0  0  0  0  0
    2.4723   56.0064   80.2867 H   0  0  0  0  0  0  0  0  0  0  0  0
    4.9642   55.9922   80.2275 H   0  0  0  0  0  0  0  0  0  0  0  0
    6.1535   56.7379   78.1704 H   0  0  0  0  0  0  0  0  0  0  0  0
    4.8701   57.4342   76.1592 H   0  0  0  0  0  0  0  0  0  0  0  0
   -0.0677   60.9715   77.6814 H   0  0  0  0  0  0  0  0  0  0  0  0
    0.4527   61.7102   76.1289 H   0  0  0  0  0  0  0  0  0  0  0  0
   -0.7367   60.3641   76.1289 H   0  0  0  0  0  0  0  0  0  0  0  0
    2.6645   60.3957   77.9651 H   0  0  0  0  0  0  0  0  0  0  0  0
    3.3440   59.7050   76.4525 H   0  0  0  0  0  0  0  0  0  0  0  0
    2.6566   61.3646   76.4525 H   0  0  0  0  0  0  0  0  0  0  0  0
  2  1  1  0
  4  3  1  0
  5  4  1  0
  6  5  1  0
  6  2  1  0
  7  6  1  0
  8  7  1  0
  8  3  1  0
 10  9  1  0
 11 10  2  0
 12 11  1  0
 13 12  2  0
 13  3  1  0
 14 13  1  0
 15 14  2  0
 15 10  1  0
 16  3  1  0
 17  1  1  0
 18 17  1  0
 19 18  2  0
 20 19  1  0
 21 20  2  0
 22 21  1  0
 23 22  2  0
 23 18  1  0
 24 17  1  0
 25 24  2  0
 26 25  1  0
 27 26  2  0
 28 27  1  0
 29 28  2  0
 29 24  1  0
 30 17  1  0
 31 30  2  0
 32 30  1  0
 33 32  1  0
 34 32  1  0
  1 35  1  0
  1 36  1  0
  2 37  1  0
  2 38  1  0
  4 39  1  0
  4 40  1  0
  5 41  1  0
  5 42  1  0
  6 43  1  0
  7 44  1  0
  7 45  1  0
  8 46  1  0
  8 47  1  0
 11 48  1  0
 12 49  1  0
 14 50  1  0
 15 51  1  0
 16 52  1  0
 19 53  1  0
 20 54  1  0
 21 55  1  0
 22 56  1  0
 23 57  1  0
 25 58  1  0
 26 59  1  0
 27 60  1  0
 28 61  1  0
 29 62  1  0
 33 63  1  0
 33 64  1  0
 33 65  1  0
 34 66  1  0
 34 67  1  0
 34 68  1  0
M  CHG  1   6   1
M  END
>  <score>  (9) 
-9.406

$$$$
