=
     RDKit          3D

 40 43  0  0  0  0  0  0  0  0999 V2000
    2.2310   70.5230   69.3170 O   0  0  0  0  0  0  0  0  0  0  0  0
    3.2390   70.2450   68.6810 C   0  0  0  0  0  0  0  0  0  0  0  0
    3.1860   69.6790   67.2720 C   0  0  0  0  0  0  0  0  0  0  0  0
    1.9730   69.2180   66.6840 C   0  0  0  0  0  0  0  0  0  0  0  0
    0.6910   69.1810   67.4940 C   0  0  0  0  0  0  0  0  0  0  0  0
   -0.4280   68.3520   66.8790 C   0  0  0  0  0  0  0  0  0  0  0  0
   -0.5810   68.7040   65.4130 C   0  0  0  0  0  0  0  0  0  0  0  0
    0.6880   68.3510   64.6030 C   0  0  0  0  0  0  0  0  0  0  0  0
    1.9700   68.8120   65.3220 C   0  0  0  0  0  0  0  0  0  0  0  0
    3.1890   68.7970   64.6150 C   0  0  0  0  0  0  0  0  0  0  0  0
    4.3820   69.2030   65.2070 C   0  0  0  0  0  0  0  0  0  0  0  0
    4.3880   69.6490   66.5240 C   0  0  0  0  0  0  0  0  0  0  0  0
    5.6080   70.0720   67.1730 C   0  0  0  0  0  0  0  0  0  0  0  0
    5.7680   70.4800   68.4690 C   0  0  0  0  0  0  0  0  0  0  0  0
    4.6130   70.5330   69.3280 C   0  0  0  0  0  0  0  0  0  0  0  0
    4.6940   70.7960   70.5210 O   0  0  0  0  0  0  0  0  0  0  0  0
    7.1510   70.7580   68.6400 C   0  0  0  0  0  0  0  0  0  0  0  0
    7.8300   71.2260   69.8720 C   0  0  0  0  0  0  0  0  0  0  0  0
    7.7230   70.4970   67.4070 C   0  0  0  0  0  0  0  0  0  0  0  0
    6.7880   70.0770   66.5110 O   0  0  0  0  0  0  0  0  0  0  0  0
    0.5320   69.0350   63.2250 C   0  0  0  0  0  0  0  0  0  0  0  0
    0.7610   66.8240   64.3840 C   0  0  0  0  0  0  0  0  0  0  0  0
    0.9235   68.7615   68.4839 H   0  0  0  0  0  0  0  0  0  0  0  0
    0.3218   70.2163   67.5376 H   0  0  0  0  0  0  0  0  0  0  0  0
   -0.1857   67.2833   66.9747 H   0  0  0  0  0  0  0  0  0  0  0  0
   -1.3702   68.5668   67.4045 H   0  0  0  0  0  0  0  0  0  0  0  0
   -1.4341   68.1458   64.9998 H   0  0  0  0  0  0  0  0  0  0  0  0
   -0.7448   69.7891   65.3369 H   0  0  0  0  0  0  0  0  0  0  0  0
    3.1982   68.4560   63.5692 H   0  0  0  0  0  0  0  0  0  0  0  0
    5.3197   69.1709   64.6329 H   0  0  0  0  0  0  0  0  0  0  0  0
    7.2883   70.8526   70.7536 H   0  0  0  0  0  0  0  0  0  0  0  0
    8.8624   70.8468   69.8883 H   0  0  0  0  0  0  0  0  0  0  0  0
    7.8430   72.3258   69.8883 H   0  0  0  0  0  0  0  0  0  0  0  0
    8.7931   70.6137   67.1806 H   0  0  0  0  0  0  0  0  0  0  0  0
    0.2895   70.0983   63.3688 H   0  0  0  0  0  0  0  0  0  0  0  0
    1.4734   68.9464   62.6630 H   0  0  0  0  0  0  0  0  0  0  0  0
   -0.2779   68.5469   62.6630 H   0  0  0  0  0  0  0  0  0  0  0  0
    0.7854   66.3146   65.3586 H   0  0  0  0  0  0  0  0  0  0  0  0
   -0.1223   66.4920   63.8187 H   0  0  0  0  0  0  0  0  0  0  0  0
    1.6719   66.5778   63.8187 H   0  0  0  0  0  0  0  0  0  0  0  0
  2  1  2  0
  3  2  1  0
  4  3  2  0
  5  4  1  0
  6  5  1  0
  7  6  1  0
  8  7  1  0
  9  8  1  0
  9  4  1  0
 10  9  2  0
 11 10  1  0
 12 11  2  0
 12  3  1  0
 13 12  1  0
 14 13  2  0
 15  2  1  0
 15 14  1  0
 16 15  2  0
 17 14  1  0
 18 17  1  0
 19 17  2  0
 20 19  1  0
 20 13  1  0
 21  8  1  0
 22  8  1  0
  5 23  1  0
  5 24  1  0
  6 25  1  0
  6 26  1  0
  7 27  1  0
  7 28  1  0
 10 29  1  0
 11 30  1  0
 18 31  1  0
 18 32  1  0
 18 33  1  0
 19 34  1  0
 21 35  1  0
 21 36  1  0
 21 37  1  0
 22 38  1  0
 22 39  1  0
 22 40  1  0
M  END
>  <score>  (1) 
-10.1

$$$$
=
     RDKit          3D

 40 43  0  0  0  0  0  0  0  0999 V2000
   -0.6250   61.5080   73.4940 O   0  0  0  0  0  0  0  0  0  0  0  0
   -0.0150   60.4880   73.2010 C   0  0  0  0  0  0  0  0  0  0  0  0
    1.2500   60.5060   72.3590 C   0  0  0  0  0  0  0  0  0  0  0  0
    1.6820   61.6720   71.6630 C   0  0  0  0  0  0  0  0  0  0  0  0
    0.8280   62.9250   71.6570 C   0  0  0  0  0  0  0  0  0  0  0  0
    1.2170   63.9580   70.6080 C   0  0  0  0  0  0  0  0  0  0  0  0
    2.7160   64.1790   70.6370 C   0  0  0  0  0  0  0  0  0  0  0  0
    3.4930   62.8950   70.2630 C   0  0  0  0  0  0  0  0  0  0  0  0
    2.9350   61.6580   70.9920 C   0  0  0  0  0  0  0  0  0  0  0  0
    3.6760   60.4600   70.9630 C   0  0  0  0  0  0  0  0  0  0  0  0
    3.2280   59.3080   71.6030 C   0  0  0  0  0  0  0  0  0  0  0  0
    2.0270   59.3240   72.3040 C   0  0  0  0  0  0  0  0  0  0  0  0
    1.5270   58.1460   72.9760 C   0  0  0  0  0  0  0  0  0  0  0  0
    0.3470   58.0060   73.6530 C   0  0  0  0  0  0  0  0  0  0  0  0
   -0.5330   59.1420   73.7570 C   0  0  0  0  0  0  0  0  0  0  0  0
   -1.6450   59.0660   74.2620 O   0  0  0  0  0  0  0  0  0  0  0  0
    0.2930   56.6600   74.1030 C   0  0  0  0  0  0  0  0  0  0  0  0
   -0.7910   56.0110   74.8790 C   0  0  0  0  0  0  0  0  0  0  0  0
    1.4730   56.0870   73.6600 C   0  0  0  0  0  0  0  0  0  0  0  0
    2.2270   56.9870   72.9710 O   0  0  0  0  0  0  0  0  0  0  0  0
    4.9710   63.1550   70.6340 C   0  0  0  0  0  0  0  0  0  0  0  0
    3.4070   62.6560   68.7400 C   0  0  0  0  0  0  0  0  0  0  0  0
   -0.2150   62.6274   71.4738 H   0  0  0  0  0  0  0  0  0  0  0  0
    0.9768   63.4058   72.6351 H   0  0  0  0  0  0  0  0  0  0  0  0
    0.9202   63.5970   69.6122 H   0  0  0  0  0  0  0  0  0  0  0  0
    0.7055   64.9072   70.8255 H   0  0  0  0  0  0  0  0  0  0  0  0
    2.9729   64.9724   69.9197 H   0  0  0  0  0  0  0  0  0  0  0  0
    2.9999   64.4646   71.6606 H   0  0  0  0  0  0  0  0  0  0  0  0
    4.6328   60.4344   70.4209 H   0  0  0  0  0  0  0  0  0  0  0  0
    3.8240   58.3848   71.5543 H   0  0  0  0  0  0  0  0  0  0  0  0
   -0.5934   56.1293   75.9546 H   0  0  0  0  0  0  0  0  0  0  0  0
   -1.7533   56.4817   74.6290 H   0  0  0  0  0  0  0  0  0  0  0  0
   -0.8306   54.9405   74.6290 H   0  0  0  0  0  0  0  0  0  0  0  0
    1.7632   55.0415   73.8411 H   0  0  0  0  0  0  0  0  0  0  0  0
    5.0764   63.1735   71.7288 H   0  0  0  0  0  0  0  0  0  0  0  0
    5.5997   62.3537   70.2186 H   0  0  0  0  0  0  0  0  0  0  0  0
    5.2885   64.1228   70.2186 H   0  0  0  0  0  0  0  0  0  0  0  0
    3.0402   61.6367   68.5489 H   0  0  0  0  0  0  0  0  0  0  0  0
    2.7147   63.3846   68.2930 H   0  0  0  0  0  0  0  0  0  0  0  0
    4.4049   62.7764   68.2930 H   0  0  0  0  0  0  0  0  0  0  0  0
  2  1  2  0
  3  2  1  0
  4  3  2  0
  5  4  1  0
  6  5  1  0
  7  6  1  0
  8  7  1  0
  9  8  1  0
  9  4  1  0
 10  9  2  0
 11 10  1  0
 12 11  2  0
 12  3  1  0
 13 12  1  0
 14 13  2  0
 15  2  1  0
 15 14  1  0
 16 15  2  0
 17 14  1  0
 18 17  1  0
 19 17  2  0
 20 19  1  0
 20 13  1  0
 21  8  1  0
 22  8  1  0
  5 23  1  0
  5 24  1  0
  6 25  1  0
  6 26  1  0
  7 27  1  0
  7 28  1  0
 10 29  1  0
 11 30  1  0
 18 31  1  0
 18 32  1  0
 18 33  1  0
 19 34  1  0
 21 35  1  0
 21 36  1  0
 21 37  1  0
 22 38  1  0
 22 39  1  0
 22 40  1  0
M  END
>  <score>  (2) 
-9.931

$$$$
=
     RDKit          3D

 40 43  0  0  0  0  0  0  0  0999 V2000
   -0.4370   62.9990   72.8530 O   0  0  0  0  0  0  0  0  0  0  0  0
   -0.3630   61.7830   72.9730 C   0  0  0  0  0  0  0  0  0  0  0  0
    0.8530   60.9910   72.5220 C   0  0  0  0  0  0  0  0  0  0  0  0
    1.8810   61.5670   71.7220 C   0  0  0  0  0  0  0  0  0  0  0  0
    1.7470   62.9860   71.2020 C   0  0  0  0  0  0  0  0  0  0  0  0
    2.7200   63.3530   70.0900 C   0  0  0  0  0  0  0  0  0  0  0  0
    4.1210   62.9170   70.4700 C   0  0  0  0  0  0  0  0  0  0  0  0
    4.2230   61.3810   70.6210 C   0  0  0  0  0  0  0  0  0  0  0  0
    3.0480   60.8080   71.4340 C   0  0  0  0  0  0  0  0  0  0  0  0
    3.1150   59.4730   71.8790 C   0  0  0  0  0  0  0  0  0  0  0  0
    2.0870   58.8960   72.6190 C   0  0  0  0  0  0  0  0  0  0  0  0
    0.9630   59.6450   72.9480 C   0  0  0  0  0  0  0  0  0  0  0  0
   -0.1270   59.0790   73.7100 C   0  0  0  0  0  0  0  0  0  0  0  0
   -1.3060   59.6780   74.0580 C   0  0  0  0  0  0  0  0  0  0  0  0
   -1.5340   61.0440   73.6600 C   0  0  0  0  0  0  0  0  0  0  0  0
   -2.6000   61.6140   73.8510 O   0  0  0  0  0  0  0  0  0  0  0  0
   -2.0610   58.7090   74.7710 C   0  0  0  0  0  0  0  0  0  0  0  0
   -3.4150   58.8710   75.3530 C   0  0  0  0  0  0  0  0  0  0  0  0
   -1.2580   57.5830   74.8030 C   0  0  0  0  0  0  0  0  0  0  0  0
   -0.0790   57.8010   74.1570 O   0  0  0  0  0  0  0  0  0  0  0  0
    5.5800   61.0990   71.3070 C   0  0  0  0  0  0  0  0  0  0  0  0
    4.2350   60.7190   69.2260 C   0  0  0  0  0  0  0  0  0  0  0  0
    0.7242   63.1146   70.8180 H   0  0  0  0  0  0  0  0  0  0  0  0
    1.9795   63.6492   72.0483 H   0  0  0  0  0  0  0  0  0  0  0  0
    2.4197   62.8476   69.1603 H   0  0  0  0  0  0  0  0  0  0  0  0
    2.7065   64.4427   69.9402 H   0  0  0  0  0  0  0  0  0  0  0  0
    4.8207   63.2451   69.6872 H   0  0  0  0  0  0  0  0  0  0  0  0
    4.3702   63.3733   71.4394 H   0  0  0  0  0  0  0  0  0  0  0  0
    4.0028   58.8710   71.6353 H   0  0  0  0  0  0  0  0  0  0  0  0
    2.1639   57.8477   72.9434 H   0  0  0  0  0  0  0  0  0  0  0  0
   -3.3456   58.8627   76.4508 H   0  0  0  0  0  0  0  0  0  0  0  0
   -3.8453   59.8270   75.0200 H   0  0  0  0  0  0  0  0  0  0  0  0
   -4.0587   58.0435   75.0200 H   0  0  0  0  0  0  0  0  0  0  0  0
   -1.5356   56.6351   75.2871 H   0  0  0  0  0  0  0  0  0  0  0  0
    5.4513   61.1257   72.3991 H   0  0  0  0  0  0  0  0  0  0  0  0
    5.9442   60.1060   71.0049 H   0  0  0  0  0  0  0  0  0  0  0  0
    6.3097   61.8647   71.0049 H   0  0  0  0  0  0  0  0  0  0  0  0
    4.2548   59.6250   69.3394 H   0  0  0  0  0  0  0  0  0  0  0  0
    3.3314   61.0139   68.6724 H   0  0  0  0  0  0  0  0  0  0  0  0
    5.1274   61.0465   68.6724 H   0  0  0  0  0  0  0  0  0  0  0  0
  2  1  2  0
  3  2  1  0
  4  3  2  0
  5  4  1  0
  6  5  1  0
  7  6  1  0
  8  7  1  0
  9  8  1  0
  9  4  1  0
 10  9  2  0
 11 10  1  0
 12 11  2  0
 12  3  1  0
 13 12  1  0
 14 13  2  0
 15  2  1  0
 15 14  1  0
 16 15  2  0
 17 14  1  0
 18 17  1  0
 19 17  2  0
 20 19  1  0
 20 13  1  0
 21  8  1  0
 22  8  1  0
  5 23  1  0
  5 24  1  0
  6 25  1  0
  6 26  1  0
  7 27  1  0
  7 28  1  0
 10 29  1  0
 11 30  1  0
 18 31  1  0
 18 32  1  0
 18 33  1  0
 19 34  1  0
 21 35  1  0
 21 36  1  0
 21 37  1  0
 22 38  1  0
 22 39  1  0
 22 40  1  0
M  END
>  <score>  (3) 
-9.855

$$$$
=
     RDKit          3D

 40 43  0  0  0  0  0  0  0  0999 V2000
    2.1730   58.1280   73.1280 O   0  0  0  0  0  0  0  0  0  0  0  0
    1.3520   59.0310   73.2210 C   0  0  0  0  0  0  0  0  0  0  0  0
    1.4780   60.3330   72.4480 C   0  0  0  0  0  0  0  0  0  0  0  0
    2.6670   60.6880   71.7470 C   0  0  0  0  0  0  0  0  0  0  0  0
    3.9010   59.8110   71.8330 C   0  0  0  0  0  0  0  0  0  0  0  0
    5.1850   60.4670   71.3440 C   0  0  0  0  0  0  0  0  0  0  0  0
    4.9410   61.1370   70.0070 C   0  0  0  0  0  0  0  0  0  0  0  0
    3.9080   62.2820   70.1180 C   0  0  0  0  0  0  0  0  0  0  0  0
    2.6780   61.8620   70.9460 C   0  0  0  0  0  0  0  0  0  0  0  0
    1.5370   62.6880   70.9360 C   0  0  0  0  0  0  0  0  0  0  0  0
    0.3940   62.3640   71.6600 C   0  0  0  0  0  0  0  0  0  0  0  0
    0.3540   61.1920   72.4090 C   0  0  0  0  0  0  0  0  0  0  0  0
   -0.8130   60.8260   73.1780 C   0  0  0  0  0  0  0  0  0  0  0  0
   -0.9710   59.7400   73.9940 C   0  0  0  0  0  0  0  0  0  0  0  0
    0.1180   58.8050   74.1240 C   0  0  0  0  0  0  0  0  0  0  0  0
    0.0860   57.8650   74.9060 O   0  0  0  0  0  0  0  0  0  0  0  0
   -2.2740   59.8350   74.5520 C   0  0  0  0  0  0  0  0  0  0  0  0
   -2.9160   58.9000   75.5060 C   0  0  0  0  0  0  0  0  0  0  0  0
   -2.8110   60.9900   74.0120 C   0  0  0  0  0  0  0  0  0  0  0  0
   -1.9250   61.5990   73.1750 O   0  0  0  0  0  0  0  0  0  0  0  0
    3.5170   62.6610   68.6710 C   0  0  0  0  0  0  0  0  0  0  0  0
    4.5600   63.5130   70.7850 C   0  0  0  0  0  0  0  0  0  0  0  0
    4.0432   59.5223   72.8849 H   0  0  0  0  0  0  0  0  0  0  0  0
    3.7187   58.9534   71.1688 H   0  0  0  0  0  0  0  0  0  0  0  0
    5.5121   61.2203   72.0758 H   0  0  0  0  0  0  0  0  0  0  0  0
    5.9646   59.6995   71.2292 H   0  0  0  0  0  0  0  0  0  0  0  0
    5.8912   61.5495   69.6369 H   0  0  0  0  0  0  0  0  0  0  0  0
    4.5410   60.3819   69.3143 H   0  0  0  0  0  0  0  0  0  0  0  0
    1.5500   63.6128   70.3406 H   0  0  0  0  0  0  0  0  0  0  0  0
   -0.4780   63.0343   71.6403 H   0  0  0  0  0  0  0  0  0  0  0  0
   -2.6970   59.2190   76.5357 H   0  0  0  0  0  0  0  0  0  0  0  0
   -4.0042   58.9019   75.3452 H   0  0  0  0  0  0  0  0  0  0  0  0
   -2.5234   57.8851   75.3452 H   0  0  0  0  0  0  0  0  0  0  0  0
   -3.8210   61.3673   74.2299 H   0  0  0  0  0  0  0  0  0  0  0  0
    2.7273   63.4264   68.6931 H   0  0  0  0  0  0  0  0  0  0  0  0
    4.3979   63.0580   68.1452 H   0  0  0  0  0  0  0  0  0  0  0  0
    3.1476   61.7682   68.1452 H   0  0  0  0  0  0  0  0  0  0  0  0
    4.5052   63.4094   71.8787 H   0  0  0  0  0  0  0  0  0  0  0  0
    5.6133   63.5828   70.4757 H   0  0  0  0  0  0  0  0  0  0  0  0
    4.0259   64.4235   70.4757 H   0  0  0  0  0  0  0  0  0  0  0  0
  2  1  2  0
  3  2  1  0
  4  3  2  0
  5  4  1  0
  6  5  1  0
  7  6  1  0
  8  7  1  0
  9  8  1  0
  9  4  1  0
 10  9  2  0
 11 10  1  0
 12 11  2  0
 12  3  1  0
 13 12  1  0
 14 13  2  0
 15  2  1  0
 15 14  1  0
 16 15  2  0
 17 14  1  0
 18 17  1  0
 19 17  2  0
 20 19  1  0
 20 13  1  0
 21  8  1  0
 22  8  1  0
  5 23  1  0
  5 24  1  0
  6 25  1  0
  6 26  1  0
  7 27  1  0
  7 28  1  0
 10 29  1  0
 11 30  1  0
 18 31  1  0
 18 32  1  0
 18 33  1  0
 19 34  1  0
 21 35  1  0
 21 36  1  0
 21 37  1  0
 22 38  1  0
 22 39  1  0
 22 40  1  0
M  END
>  <score>  (4) 
-9.811

$$$$
=
     RDKit          3D

 40 43  0  0  0  0  0  0  0  0999 V2000
    1.8430   69.6940   67.2380 O   0  0  0  0  0  0  0  0  0  0  0  0
    3.0670   69.6870   67.1940 C   0  0  0  0  0  0  0  0  0  0  0  0
    3.8350   69.4790   65.9000 C   0  0  0  0  0  0  0  0  0  0  0  0
    3.2000   69.0490   64.7000 C   0  0  0  0  0  0  0  0  0  0  0  0
    1.7290   68.6810   64.6980 C   0  0  0  0  0  0  0  0  0  0  0  0
    1.2640   67.9130   63.4680 C   0  0  0  0  0  0  0  0  0  0  0  0
    1.7790   68.5920   62.2150 C   0  0  0  0  0  0  0  0  0  0  0  0
    3.3240   68.5840   62.1500 C   0  0  0  0  0  0  0  0  0  0  0  0
    3.9540   68.9890   63.4960 C   0  0  0  0  0  0  0  0  0  0  0  0
    5.3320   69.2760   63.5430 C   0  0  0  0  0  0  0  0  0  0  0  0
    5.9610   69.6490   64.7280 C   0  0  0  0  0  0  0  0  0  0  0  0
    5.2230   69.7580   65.9020 C   0  0  0  0  0  0  0  0  0  0  0  0
    5.8420   70.1380   67.1510 C   0  0  0  0  0  0  0  0  0  0  0  0
    5.2540   70.2330   68.3820 C   0  0  0  0  0  0  0  0  0  0  0  0
    3.8460   69.9530   68.5020 C   0  0  0  0  0  0  0  0  0  0  0  0
    3.2720   69.9240   69.5830 O   0  0  0  0  0  0  0  0  0  0  0  0
    6.2770   70.6050   69.2950 C   0  0  0  0  0  0  0  0  0  0  0  0
    6.1450   70.8280   70.7550 C   0  0  0  0  0  0  0  0  0  0  0  0
    7.4220   70.7140   68.5250 C   0  0  0  0  0  0  0  0  0  0  0  0
    7.1630   70.4280   67.2180 O   0  0  0  0  0  0  0  0  0  0  0  0
    3.7200   69.5620   61.0200 C   0  0  0  0  0  0  0  0  0  0  0  0
    3.8240   67.1730   61.7700 C   0  0  0  0  0  0  0  0  0  0  0  0
    1.5304   68.0603   65.5842 H   0  0  0  0  0  0  0  0  0  0  0  0
    1.1726   69.6299   64.6989 H   0  0  0  0  0  0  0  0  0  0  0  0
    1.6512   66.8843   63.5116 H   0  0  0  0  0  0  0  0  0  0  0  0
    0.1644   67.8940   63.4454 H   0  0  0  0  0  0  0  0  0  0  0  0
    1.3831   68.0633   61.3354 H   0  0  0  0  0  0  0  0  0  0  0  0
    1.4433   69.6394   62.2316 H   0  0  0  0  0  0  0  0  0  0  0  0
    5.9264   69.2037   62.6203 H   0  0  0  0  0  0  0  0  0  0  0  0
    7.0411   69.8574   64.7357 H   0  0  0  0  0  0  0  0  0  0  0  0
    6.6325   70.0044   71.2973 H   0  0  0  0  0  0  0  0  0  0  0  0
    6.6252   71.7800   71.0254 H   0  0  0  0  0  0  0  0  0  0  0  0
    5.0794   70.8650   71.0254 H   0  0  0  0  0  0  0  0  0  0  0  0
    8.4109   70.9946   68.9165 H   0  0  0  0  0  0  0  0  0  0  0  0
    4.0984   70.4966   61.4598 H   0  0  0  0  0  0  0  0  0  0  0  0
    4.5042   69.1056   60.3981 H   0  0  0  0  0  0  0  0  0  0  0  0
    2.8392   69.7797   60.3981 H   0  0  0  0  0  0  0  0  0  0  0  0
    4.0279   66.5975   62.6850 H   0  0  0  0  0  0  0  0  0  0  0  0
    3.0535   66.6583   61.1772 H   0  0  0  0  0  0  0  0  0  0  0  0
    4.7467   67.2583   61.1772 H   0  0  0  0  0  0  0  0  0  0  0  0
  2  1  2  0
  3  2  1  0
  4  3  2  0
  5  4  1  0
  6  5  1  0
  7  6  1  0
  8  7  1  0
  9  8  1  0
  9  4  1  0
 10  9  2  0
 11 10  1  0
 12 11  2  0
 12  3  1  0
 13 12  1  0
 14 13  2  0
 15  2  1  0
 15 14  1  0
 16 15  2  0
 17 14  1  0
 18 17  1  0
 19 17  2  0
 20 19  1  0
 20 13  1  0
 21  8  1  0
 22  8  1  0
  5 23  1  0
  5 24  1  0
  6 25  1  0
  6 26  1  0
  7 27  1  0
  7 28  1  0
 10 29  1  0
 11 30  1  0
 18 31  1  0
 18 32  1  0
 18 33  1  0
 19 34  1  0
 21 35  1  0
 21 36  1  0
 21 37  1  0
 22 38  1  0
 22 39  1  0
 22 40  1  0
M  END
>  <score>  (5) 
-9.732

$$$$
=
     RDKit          3D

 40 43  0  0  0  0  0  0  0  0999 V2000
    1.3080   68.8010   67.6540 O   0  0  0  0  0  0  0  0  0  0  0  0
    1.8210   69.0000   66.5610 C   0  0  0  0  0  0  0  0  0  0  0  0
    3.2530   69.4840   66.4070 C   0  0  0  0  0  0  0  0  0  0  0  0
    4.0170   69.9590   67.5120 C   0  0  0  0  0  0  0  0  0  0  0  0
    3.3840   70.0950   68.8840 C   0  0  0  0  0  0  0  0  0  0  0  0
    4.1810   70.9310   69.8750 C   0  0  0  0  0  0  0  0  0  0  0  0
    5.6340   70.5000   69.8570 C   0  0  0  0  0  0  0  0  0  0  0  0
    6.2900   70.7530   68.4790 C   0  0  0  0  0  0  0  0  0  0  0  0
    5.3880   70.2840   67.3220 C   0  0  0  0  0  0  0  0  0  0  0  0
    5.9300   70.2070   66.0240 C   0  0  0  0  0  0  0  0  0  0  0  0
    5.1680   69.7890   64.9380 C   0  0  0  0  0  0  0  0  0  0  0  0
    3.8390   69.4220   65.1200 C   0  0  0  0  0  0  0  0  0  0  0  0
    3.0160   68.9880   64.0150 C   0  0  0  0  0  0  0  0  0  0  0  0
    1.6910   68.6500   64.0400 C   0  0  0  0  0  0  0  0  0  0  0  0
    0.9870   68.6940   65.2960 C   0  0  0  0  0  0  0  0  0  0  0  0
   -0.2180   68.4990   65.3800 O   0  0  0  0  0  0  0  0  0  0  0  0
    1.3270   68.3270   62.7050 C   0  0  0  0  0  0  0  0  0  0  0  0
   -0.0060   67.9050   62.2110 C   0  0  0  0  0  0  0  0  0  0  0  0
    2.4870   68.4920   61.9690 C   0  0  0  0  0  0  0  0  0  0  0  0
    3.5190   68.8970   62.7610 O   0  0  0  0  0  0  0  0  0  0  0  0
    7.6390   69.9960   68.4910 C   0  0  0  0  0  0  0  0  0  0  0  0
    6.5790   72.2600   68.3060 C   0  0  0  0  0  0  0  0  0  0  0  0
    2.3956   70.5615   68.7600 H   0  0  0  0  0  0  0  0  0  0  0  0
    3.3353   69.0797   69.3044 H   0  0  0  0  0  0  0  0  0  0  0  0
    4.1114   71.9928   69.5963 H   0  0  0  0  0  0  0  0  0  0  0  0
    3.7712   70.7859   70.8854 H   0  0  0  0  0  0  0  0  0  0  0  0
    6.1834   71.0673   70.6227 H   0  0  0  0  0  0  0  0  0  0  0  0
    5.6734   69.4200   70.0619 H   0  0  0  0  0  0  0  0  0  0  0  0
    6.9825   70.4845   65.8653 H   0  0  0  0  0  0  0  0  0  0  0  0
    5.6169   69.7487   63.9346 H   0  0  0  0  0  0  0  0  0  0  0  0
   -0.6650   67.6964   63.0667 H   0  0  0  0  0  0  0  0  0  0  0  0
   -0.4420   68.7091   61.5999 H   0  0  0  0  0  0  0  0  0  0  0  0
    0.1002   66.9965   61.5999 H   0  0  0  0  0  0  0  0  0  0  0  0
    2.5657   68.3188   60.8856 H   0  0  0  0  0  0  0  0  0  0  0  0
    7.9517   69.8205   69.5309 H   0  0  0  0  0  0  0  0  0  0  0  0
    7.5227   69.0313   67.9753 H   0  0  0  0  0  0  0  0  0  0  0  0
    8.4018   70.5979   67.9753 H   0  0  0  0  0  0  0  0  0  0  0  0
    6.6695   72.7319   69.2955 H   0  0  0  0  0  0  0  0  0  0  0  0
    7.5188   72.3916   67.7496 H   0  0  0  0  0  0  0  0  0  0  0  0
    5.7546   72.7299   67.7496 H   0  0  0  0  0  0  0  0  0  0  0  0
  2  1  2  0
  3  2  1  0
  4  3  2  0
  5  4  1  0
  6  5  1  0
  7  6  1  0
  8  7  1  0
  9  8  1  0
  9  4  1  0
 10  9  2  0
 11 10  1  0
 12 11  2  0
 12  3  1  0
 13 12  1  0
 14 13  2  0
 15  2  1  0
 15 14  1  0
 16 15  2  0
 17 14  1  0
 18 17  1  0
 19 17  2  0
 20 19  1  0
 20 13  1  0
 21  8  1  0
 22  8  1  0
  5 23  1  0
  5 24  1  0
  6 25  1  0
  6 26  1  0
  7 27  1  0
  7 28  1  0
 10 29  1  0
 11 30  1  0
 18 31  1  0
 18 32  1  0
 18 33  1  0
 19 34  1  0
 21 35  1  0
 21 36  1  0
 21 37  1  0
 22 38  1  0
 22 39  1  0
 22 40  1  0
M  END
>  <score>  (6) 
-9.519

$$$$
=
     RDKit          3D

 40 43  0  0  0  0  0  0  0  0999 V2000
   -0.3750   69.6390   62.0840 O   0  0  0  0  0  0  0  0  0  0  0  0
   -0.3620   69.1470   63.2050 C   0  0  0  0  0  0  0  0  0  0  0  0
    0.9260   68.7770   63.9200 C   0  0  0  0  0  0  0  0  0  0  0  0
    2.1860   68.7570   63.2540 C   0  0  0  0  0  0  0  0  0  0  0  0
    2.2700   69.0120   61.7610 C   0  0  0  0  0  0  0  0  0  0  0  0
    3.5940   68.6190   61.1210 C   0  0  0  0  0  0  0  0  0  0  0  0
    4.7440   69.1550   61.9500 C   0  0  0  0  0  0  0  0  0  0  0  0
    4.7680   68.5350   63.3660 C   0  0  0  0  0  0  0  0  0  0  0  0
    3.3680   68.5190   64.0070 C   0  0  0  0  0  0  0  0  0  0  0  0
    3.2500   68.2240   65.3790 C   0  0  0  0  0  0  0  0  0  0  0  0
    2.0140   68.1960   66.0180 C   0  0  0  0  0  0  0  0  0  0  0  0
    0.8550   68.4760   65.3010 C   0  0  0  0  0  0  0  0  0  0  0  0
   -0.4470   68.4500   65.9290 C   0  0  0  0  0  0  0  0  0  0  0  0
   -1.6640   68.6520   65.3400 C   0  0  0  0  0  0  0  0  0  0  0  0
   -1.7130   68.9480   63.9310 C   0  0  0  0  0  0  0  0  0  0  0  0
   -2.7670   69.0460   63.3170 O   0  0  0  0  0  0  0  0  0  0  0  0
   -2.6410   68.4910   66.3580 C   0  0  0  0  0  0  0  0  0  0  0  0
   -4.1130   68.6040   66.2210 C   0  0  0  0  0  0  0  0  0  0  0  0
   -1.9200   68.2080   67.5050 C   0  0  0  0  0  0  0  0  0  0  0  0
   -0.5820   68.1790   67.2490 O   0  0  0  0  0  0  0  0  0  0  0  0
    5.7630   69.3790   64.1960 C   0  0  0  0  0  0  0  0  0  0  0  0
    5.2990   67.0870   63.2940 C   0  0  0  0  0  0  0  0  0  0  0  0
    1.4692   68.4395   61.2702 H   0  0  0  0  0  0  0  0  0  0  0  0
    2.1708   70.0992   61.6259 H   0  0  0  0  0  0  0  0  0  0  0  0
    3.6624   67.5224   61.0674 H   0  0  0  0  0  0  0  0  0  0  0  0
    3.6478   69.0437   60.1077 H   0  0  0  0  0  0  0  0  0  0  0  0
    5.6903   68.9184   61.4415 H   0  0  0  0  0  0  0  0  0  0  0  0
    4.6129   70.2421   62.0546 H   0  0  0  0  0  0  0  0  0  0  0  0
    4.1587   68.0101   65.9609 H   0  0  0  0  0  0  0  0  0  0  0  0
    1.9534   67.9527   67.0890 H   0  0  0  0  0  0  0  0  0  0  0  0
   -4.5726   68.6393   67.2198 H   0  0  0  0  0  0  0  0  0  0  0  0
   -4.3605   69.5238   65.6708 H   0  0  0  0  0  0  0  0  0  0  0  0
   -4.4980   67.7328   65.6708 H   0  0  0  0  0  0  0  0  0  0  0  0
   -2.3683   68.0299   68.4936 H   0  0  0  0  0  0  0  0  0  0  0  0
    5.5744   69.2190   65.2678 H   0  0  0  0  0  0  0  0  0  0  0  0
    6.7922   69.0742   63.9553 H   0  0  0  0  0  0  0  0  0  0  0  0
    5.6302   70.4441   63.9553 H   0  0  0  0  0  0  0  0  0  0  0  0
    5.4418   66.6977   64.3129 H   0  0  0  0  0  0  0  0  0  0  0  0
    4.5735   66.4566   62.7589 H   0  0  0  0  0  0  0  0  0  0  0  0
    6.2600   67.0751   62.7589 H   0  0  0  0  0  0  0  0  0  0  0  0
  2  1  2  0
  3  2  1  0
  4  3  2  0
  5  4  1  0
  6  5  1  0
  7  6  1  0
  8  7  1  0
  9  8  1  0
  9  4  1  0
 10  9  2  0
 11 10  1  0
 12 11  2  0
 12  3  1  0
 13 12  1  0
 14 13  2  0
 15  2  1  0
 15 14  1  0
 16 15  2  0
 17 14  1  0
 18 17  1  0
 19 17  2  0
 20 19  1  0
 20 13  1  0
 21  8  1  0
 22  8  1  0
  5 23  1  0
  5 24  1  0
  6 25  1  0
  6 26  1  0
  7 27  1  0
  7 28  1  0
 10 29  1  0
 11 30  1  0
 18 31  1  0
 18 32  1  0
 18 33  1  0
 19 34  1  0
 21 35  1  0
 21 36  1  0
 21 37  1  0
 22 38  1  0
 22 39  1  0
 22 40  1  0
M  END
>  <score>  (7) 
-9.271

$$$$
=
     RDKit          3D

 40 43  0  0  0  0  0  0  0  0999 V2000
   -1.5770   61.8800   73.1420 O   0  0  0  0  0  0  0  0  0  0  0  0
   -0.4120   61.7530   72.7880 C   0  0  0  0  0  0  0  0  0  0  0  0
    0.3450   60.4430   72.9230 C   0  0  0  0  0  0  0  0  0  0  0  0
   -0.1630   59.3460   73.6780 C   0  0  0  0  0  0  0  0  0  0  0  0
   -1.4510   59.4880   74.4680 C   0  0  0  0  0  0  0  0  0  0  0  0
   -1.6940   58.3900   75.4940 C   0  0  0  0  0  0  0  0  0  0  0  0
   -1.4500   57.0340   74.8630 C   0  0  0  0  0  0  0  0  0  0  0  0
    0.0210   56.8660   74.4160 C   0  0  0  0  0  0  0  0  0  0  0  0
    0.5360   58.1090   73.6670 C   0  0  0  0  0  0  0  0  0  0  0  0
    1.7610   58.0290   72.9760 C   0  0  0  0  0  0  0  0  0  0  0  0
    2.2800   59.1160   72.2790 C   0  0  0  0  0  0  0  0  0  0  0  0
    1.5800   60.3170   72.2430 C   0  0  0  0  0  0  0  0  0  0  0  0
    2.0900   61.4690   71.5340 C   0  0  0  0  0  0  0  0  0  0  0  0
    1.5370   62.7180   71.4590 C   0  0  0  0  0  0  0  0  0  0  0  0
    0.2870   62.9650   72.1300 C   0  0  0  0  0  0  0  0  0  0  0  0
   -0.2180   64.0780   72.1880 O   0  0  0  0  0  0  0  0  0  0  0  0
    2.4230   63.5090   70.6800 C   0  0  0  0  0  0  0  0  0  0  0  0
    2.2730   64.9380   70.3170 C   0  0  0  0  0  0  0  0  0  0  0  0
    3.4560   62.6540   70.3350 C   0  0  0  0  0  0  0  0  0  0  0  0
    3.2600   61.4110   70.8540 O   0  0  0  0  0  0  0  0  0  0  0  0
    0.0650   55.6050   73.5210 C   0  0  0  0  0  0  0  0  0  0  0  0
    0.9180   56.6190   75.6490 C   0  0  0  0  0  0  0  0  0  0  0  0
   -1.4232   60.4516   74.9978 H   0  0  0  0  0  0  0  0  0  0  0  0
   -2.2714   59.4178   73.7386 H   0  0  0  0  0  0  0  0  0  0  0  0
   -1.0086   58.5260   76.3436 H   0  0  0  0  0  0  0  0  0  0  0  0
   -2.7351   58.4450   75.8449 H   0  0  0  0  0  0  0  0  0  0  0  0
   -1.6909   56.2510   75.5970 H   0  0  0  0  0  0  0  0  0  0  0  0
   -2.0901   56.9507   73.9723 H   0  0  0  0  0  0  0  0  0  0  0  0
    2.3219   57.0828   72.9877 H   0  0  0  0  0  0  0  0  0  0  0  0
    3.2438   59.0252   71.7566 H   0  0  0  0  0  0  0  0  0  0  0  0
    2.2094   65.5442   71.2327 H   0  0  0  0  0  0  0  0  0  0  0  0
    3.1424   65.2590   69.7244 H   0  0  0  0  0  0  0  0  0  0  0  0
    1.3559   65.0715   69.7244 H   0  0  0  0  0  0  0  0  0  0  0  0
    4.3224   62.9418   69.7213 H   0  0  0  0  0  0  0  0  0  0  0  0
    0.0964   54.7065   74.1548 H   0  0  0  0  0  0  0  0  0  0  0  0
   -0.8326   55.5746   72.8859 H   0  0  0  0  0  0  0  0  0  0  0  0
    0.9626   55.6373   72.8859 H   0  0  0  0  0  0  0  0  0  0  0  0
    0.3328   56.7801   76.5664 H   0  0  0  0  0  0  0  0  0  0  0  0
    1.2916   55.5846   75.6294 H   0  0  0  0  0  0  0  0  0  0  0  0
    1.7684   57.3164   75.6294 H   0  0  0  0  0  0  0  0  0  0  0  0
  2  1  2  0
  3  2  1  0
  4  3  2  0
  5  4  1  0
  6  5  1  0
  7  6  1  0
  8  7  1  0
  9  8  1  0
  9  4  1  0
 10  9  2  0
 11 10  1  0
 12 11  2  0
 12  3  1  0
 13 12  1  0
 14 13  2  0
 15  2  1  0
 15 14  1  0
 16 15  2  0
 17 14  1  0
 18 17  1  0
 19 17  2  0
 20 19  1  0
 20 13  1  0
 21  8  1  0
 22  8  1  0
  5 23  1  0
  5 24  1  0
  6 25  1  0
  6 26  1  0
  7 27  1  0
  7 28  1  0
 10 29  1  0
 11 30  1  0
 18 31  1  0
 18 32  1  0
 18 33  1  0
 19 34  1  0
 21 35  1  0
 21 36  1  0
 21 37  1  0
 22 38  1  0
 22 39  1  0
 22 40  1  0
M  END
>  <score>  (8) 
-9.054

$$$$
=
     RDKit          3D

 40 43  0  0  0  0  0  0  0  0999 V2000
    3.6780   58.0930   71.2010 O   0  0  0  0  0  0  0  0  0  0  0  0
    3.0450   59.1410   71.1770 C   0  0  0  0  0  0  0  0  0  0  0  0
    1.9570   59.4610   72.1880 C   0  0  0  0  0  0  0  0  0  0  0  0
    1.4390   58.4800   73.0820 C   0  0  0  0  0  0  0  0  0  0  0  0
    1.8920   57.0360   72.9860 C   0  0  0  0  0  0  0  0  0  0  0  0
    1.0200   56.0420   73.7410 C   0  0  0  0  0  0  0  0  0  0  0  0
    0.7480   56.5590   75.1390 C   0  0  0  0  0  0  0  0  0  0  0  0
   -0.0550   57.8800   75.1170 C   0  0  0  0  0  0  0  0  0  0  0  0
    0.5090   58.8730   74.0820 C   0  0  0  0  0  0  0  0  0  0  0  0
    0.0600   60.2080   74.1060 C   0  0  0  0  0  0  0  0  0  0  0  0
    0.5320   61.1530   73.2000 C   0  0  0  0  0  0  0  0  0  0  0  0
    1.4790   60.7920   72.2480 C   0  0  0  0  0  0  0  0  0  0  0  0
    1.9880   61.7450   71.2870 C   0  0  0  0  0  0  0  0  0  0  0  0
    2.8740   61.5170   70.2710 C   0  0  0  0  0  0  0  0  0  0  0  0
    3.4130   60.1910   70.1040 C   0  0  0  0  0  0  0  0  0  0  0  0
    4.1350   59.8900   69.1630 O   0  0  0  0  0  0  0  0  0  0  0  0
    3.0340   62.7510   69.5850 C   0  0  0  0  0  0  0  0  0  0  0  0
    3.8870   63.0210   68.4040 C   0  0  0  0  0  0  0  0  0  0  0  0
    2.2200   63.6430   70.2620 C   0  0  0  0  0  0  0  0  0  0  0  0
    1.5790   63.0360   71.2980 O   0  0  0  0  0  0  0  0  0  0  0  0
    0.0100   58.4560   76.5510 C   0  0  0  0  0  0  0  0  0  0  0  0
   -1.5330   57.5890   74.7750 C   0  0  0  0  0  0  0  0  0  0  0  0
    1.8975   56.7489   71.9241 H   0  0  0  0  0  0  0  0  0  0  0  0
    2.8872   56.9919   73.4525 H   0  0  0  0  0  0  0  0  0  0  0  0
    0.0669   55.9128   73.2072 H   0  0  0  0  0  0  0  0  0  0  0  0
    1.5417   55.0757   73.8054 H   0  0  0  0  0  0  0  0  0  0  0  0
    0.1731   55.8022   75.6928 H   0  0  0  0  0  0  0  0  0  0  0  0
    1.7151   56.7550   75.6250 H   0  0  0  0  0  0  0  0  0  0  0  0
   -0.6820   60.5110   74.8594 H   0  0  0  0  0  0  0  0  0  0  0  0
    0.1558   62.1860   73.2370 H   0  0  0  0  0  0  0  0  0  0  0  0
    4.8862   63.3373   68.7380 H   0  0  0  0  0  0  0  0  0  0  0  0
    3.9751   62.1068   67.7986 H   0  0  0  0  0  0  0  0  0  0  0  0
    3.4330   63.8194   67.7986 H   0  0  0  0  0  0  0  0  0  0  0  0
    2.1060   64.7045   69.9971 H   0  0  0  0  0  0  0  0  0  0  0  0
   -0.0824   57.6371   77.2796 H   0  0  0  0  0  0  0  0  0  0  0  0
    0.9718   58.9696   76.6966 H   0  0  0  0  0  0  0  0  0  0  0  0
   -0.8132   59.1710   76.6966 H   0  0  0  0  0  0  0  0  0  0  0  0
   -2.1091   57.4756   75.7052 H   0  0  0  0  0  0  0  0  0  0  0  0
   -1.9447   58.4233   74.1881 H   0  0  0  0  0  0  0  0  0  0  0  0
   -1.5977   56.6609   74.1881 H   0  0  0  0  0  0  0  0  0  0  0  0
  2  1  2  0
  3  2  1  0
  4  3  2  0
  5  4  1  0
  6  5  1  0
  7  6  1  0
  8  7  1  0
  9  8  1  0
  9  4  1  0
 10  9  2  0
 11 10  1  0
 12 11  2  0
 12  3  1  0
 13 12  1  0
 14 13  2  0
 15  2  1  0
 15 14  1  0
 16 15  2  0
 17 14  1  0
 18 17  1  0
 19 17  2  0
 20 19  1  0
 20 13  1  0
 21  8  1  0
 22  8  1  0
  5 23  1  0
  5 24  1  0
  6 25  1  0
  6 26  1  0
  7 27  1  0
  7 28  1  0
 10 29  1  0
 11 30  1  0
 18 31  1  0
 18 32  1  0
 18 33  1  0
 19 34  1  0
 21 35  1  0
 21 36  1  0
 21 37  1  0
 22 38  1  0
 22 39  1  0
 22 40  1  0
M  END
>  <score>  (9) 
-8.912

$$$$
