=
     RDKit          3D

 47 50  0  0  0  0  0  0  0  0999 V2000
    1.7910   69.1930   61.6430 O   0  0  0  0  0  0  0  0  0  0  0  0
    1.9650   68.6320   62.7270 C   0  0  0  0  0  0  0  0  0  0  0  0
    0.9160   68.5010   63.6300 N   0  0  0  0  0  0  0  0  0  0  0  0
   -0.4090   68.8990   63.1470 C   0  0  0  0  0  0  0  0  0  0  0  0
   -1.6120   68.8180   64.1030 C   0  0  0  0  0  0  0  0  0  0  0  0
   -2.7400   69.1170   63.7090 O   0  0  0  0  0  0  0  0  0  0  0  0
   -1.3720   68.3650   65.3940 N   0  0  0  0  0  0  0  0  0  0  0  0
   -0.0050   68.3820   65.9300 C   0  0  2  0  0  0  0  0  0  0  0  0
    0.9560   67.7640   64.8940 C   0  0  0  0  0  0  0  0  0  0  0  0
    0.1300   67.7170   67.2960 C   0  0  0  0  0  0  0  0  0  0  0  0
    1.3660   67.7400   67.9700 C   0  0  0  0  0  0  0  0  0  0  0  0
    1.5160   67.1250   69.2130 C   0  0  0  0  0  0  0  0  0  0  0  0
    0.4330   66.4840   69.8090 C   0  0  0  0  0  0  0  0  0  0  0  0
   -0.8040   66.4740   69.1710 C   0  0  0  0  0  0  0  0  0  0  0  0
   -0.9680   67.1040   67.9290 C   0  0  0  0  0  0  0  0  0  0  0  0
   -2.3210   67.1010   67.2650 C   0  0  0  0  0  0  0  0  0  0  0  0
   -2.4710   68.3060   66.3450 C   0  0  0  0  0  0  0  0  0  0  0  0
    3.3370   68.0440   63.0960 C   0  0  0  0  0  0  0  0  0  0  0  0
    3.5960   68.1450   64.6160 C   0  0  0  0  0  0  0  0  0  0  0  0
    4.2870   69.4490   65.0000 C   0  0  0  0  0  0  0  0  0  0  0  0
    5.6480   69.5990   64.3210 C   0  0  0  0  0  0  0  0  0  0  0  0
    5.7700   68.8080   63.0220 C   0  0  0  0  0  0  0  0  0  0  0  0
    4.4450   68.7300   62.2730 C   0  0  0  0  0  0  0  0  0  0  0  0
   -0.3300   69.9456   62.8178 H   0  0  0  0  0  0  0  0  0  0  0  0
   -0.6399   68.1531   62.3722 H   0  0  0  0  0  0  0  0  0  0  0  0
    0.2669   69.4334   66.1049 H   0  0  0  0  0  0  0  0  0  0  0  0
    0.6624   66.7200   64.7102 H   0  0  0  0  0  0  0  0  0  0  0  0
    1.9793   67.8141   65.2944 H   0  0  0  0  0  0  0  0  0  0  0  0
    2.2252   68.2500   67.5100 H   0  0  0  0  0  0  0  0  0  0  0  0
    2.4905   67.1464   69.7228 H   0  0  0  0  0  0  0  0  0  0  0  0
    0.5549   65.9864   70.7824 H   0  0  0  0  0  0  0  0  0  0  0  0
   -1.6587   65.9685   69.6442 H   0  0  0  0  0  0  0  0  0  0  0  0
   -2.4315   66.1796   66.6744 H   0  0  0  0  0  0  0  0  0  0  0  0
   -3.0972   67.1506   68.0428 H   0  0  0  0  0  0  0  0  0  0  0  0
   -2.4748   69.2245   66.9503 H   0  0  0  0  0  0  0  0  0  0  0  0
   -3.4157   68.2120   65.7893 H   0  0  0  0  0  0  0  0  0  0  0  0
    3.3439   66.9732   62.8445 H   0  0  0  0  0  0  0  0  0  0  0  0
    2.6326   68.0865   65.1436 H   0  0  0  0  0  0  0  0  0  0  0  0
    4.2606   67.3157   64.8999 H   0  0  0  0  0  0  0  0  0  0  0  0
    3.6463   70.2916   64.7007 H   0  0  0  0  0  0  0  0  0  0  0  0
    4.4500   69.4389   66.0878 H   0  0  0  0  0  0  0  0  0  0  0  0
    5.8100   70.6637   64.0970 H   0  0  0  0  0  0  0  0  0  0  0  0
    6.4020   69.1996   65.0153 H   0  0  0  0  0  0  0  0  0  0  0  0
    6.5141   69.2978   62.3768 H   0  0  0  0  0  0  0  0  0  0  0  0
    6.0766   67.7827   63.2767 H   0  0  0  0  0  0  0  0  0  0  0  0
    4.5983   68.1599   61.3448 H   0  0  0  0  0  0  0  0  0  0  0  0
    4.1177   69.7600   62.0679 H   0  0  0  0  0  0  0  0  0  0  0  0
  2  1  2  0
  3  2  1  0
  4  3  1  0
  5  4  1  0
  6  5  2  0
  7  5  1  0
  8  7  1  0
  9  3  1  0
  9  8  1  0
 10  8  1  0
 11 10  2  0
 12 11  1  0
 13 12  2  0
 14 13  1  0
 15 14  2  0
 15 10  1  0
 16 15  1  0
 17  7  1  0
 17 16  1  0
 18  2  1  0
 19 18  1  0
 20 19  1  0
 21 20  1  0
 22 21  1  0
 23 18  1  0
 23 22  1  0
  4 24  1  0
  4 25  1  0
  8 26  1  1
  9 27  1  0
  9 28  1  0
 11 29  1  0
 12 30  1  0
 13 31  1  0
 14 32  1  0
 16 33  1  0
 16 34  1  0
 17 35  1  0
 17 36  1  0
 18 37  1  0
 19 38  1  0
 19 39  1  0
 20 40  1  0
 20 41  1  0
 21 42  1  0
 21 43  1  0
 22 44  1  0
 22 45  1  0
 23 46  1  0
 23 47  1  0
M  END
>  <score>  (1) 
-10.541

$$$$
=
     RDKit          3D

 47 50  0  0  0  0  0  0  0  0999 V2000
    2.6770   57.5660   73.5810 O   0  0  0  0  0  0  0  0  0  0  0  0
    1.9880   58.5410   73.2720 C   0  0  0  0  0  0  0  0  0  0  0  0
    2.5480   59.6120   72.5860 N   0  0  0  0  0  0  0  0  0  0  0  0
    3.9220   59.4310   72.1100 C   0  0  0  0  0  0  0  0  0  0  0  0
    4.6220   60.5880   71.3750 C   0  0  0  0  0  0  0  0  0  0  0  0
    5.7650   60.4470   70.9390 O   0  0  0  0  0  0  0  0  0  0  0  0
    3.9000   61.7610   71.2010 N   0  0  0  0  0  0  0  0  0  0  0  0
    2.7230   62.0250   72.0380 C   0  0  2  0  0  0  0  0  0  0  0  0
    1.8240   60.7720   72.0630 C   0  0  0  0  0  0  0  0  0  0  0  0
    1.9450   63.2730   71.6340 C   0  0  0  0  0  0  0  0  0  0  0  0
    0.8460   63.6970   72.4050 C   0  0  0  0  0  0  0  0  0  0  0  0
    0.1100   64.8270   72.0450 C   0  0  0  0  0  0  0  0  0  0  0  0
    0.4650   65.5570   70.9140 C   0  0  0  0  0  0  0  0  0  0  0  0
    1.5650   65.1700   70.1540 C   0  0  0  0  0  0  0  0  0  0  0  0
    2.3200   64.0460   70.5180 C   0  0  0  0  0  0  0  0  0  0  0  0
    3.5210   63.6560   69.6950 C   0  0  0  0  0  0  0  0  0  0  0  0
    4.5320   62.8970   70.5450 C   0  0  0  0  0  0  0  0  0  0  0  0
    0.4900   58.5840   73.6170 C   0  0  0  0  0  0  0  0  0  0  0  0
    0.2410   59.3810   74.9180 C   0  0  0  0  0  0  0  0  0  0  0  0
    0.2860   58.4930   76.1570 C   0  0  0  0  0  0  0  0  0  0  0  0
   -0.7760   57.3950   76.1150 C   0  0  0  0  0  0  0  0  0  0  0  0
   -1.2160   57.0280   74.7000 C   0  0  0  0  0  0  0  0  0  0  0  0
   -0.0760   57.1530   73.6970 C   0  0  0  0  0  0  0  0  0  0  0  0
    4.5374   59.1902   72.9894 H   0  0  0  0  0  0  0  0  0  0  0  0
    3.8309   58.6502   71.3406 H   0  0  0  0  0  0  0  0  0  0  0  0
    3.0846   62.2409   73.0542 H   0  0  0  0  0  0  0  0  0  0  0  0
    1.4858   60.5525   71.0396 H   0  0  0  0  0  0  0  0  0  0  0  0
    0.9651   60.9723   72.7204 H   0  0  0  0  0  0  0  0  0  0  0  0
    0.5633   63.1296   73.3040 H   0  0  0  0  0  0  0  0  0  0  0  0
   -0.7502   65.1406   72.6547 H   0  0  0  0  0  0  0  0  0  0  0  0
   -0.1234   66.4390   70.6212 H   0  0  0  0  0  0  0  0  0  0  0  0
    1.8439   65.7499   69.2618 H   0  0  0  0  0  0  0  0  0  0  0  0
    3.1956   63.0151   68.8624 H   0  0  0  0  0  0  0  0  0  0  0  0
    3.9976   64.5694   69.3095 H   0  0  0  0  0  0  0  0  0  0  0  0
    4.9421   63.5736   71.3093 H   0  0  0  0  0  0  0  0  0  0  0  0
    5.3369   62.5271   69.8928 H   0  0  0  0  0  0  0  0  0  0  0  0
   -0.0447   59.1130   72.8143 H   0  0  0  0  0  0  0  0  0  0  0  0
    1.0145   60.1576   75.0109 H   0  0  0  0  0  0  0  0  0  0  0  0
   -0.7648   59.8220   74.8558 H   0  0  0  0  0  0  0  0  0  0  0  0
    1.2789   58.0240   76.2216 H   0  0  0  0  0  0  0  0  0  0  0  0
    0.0858   59.1251   77.0347 H   0  0  0  0  0  0  0  0  0  0  0  0
   -0.3658   56.4951   76.5966 H   0  0  0  0  0  0  0  0  0  0  0  0
   -1.6622   57.7814   76.6397 H   0  0  0  0  0  0  0  0  0  0  0  0
   -1.5777   55.9892   74.6988 H   0  0  0  0  0  0  0  0  0  0  0  0
   -2.0108   57.7266   74.3996 H   0  0  0  0  0  0  0  0  0  0  0  0
   -0.4487   56.8657   72.7027 H   0  0  0  0  0  0  0  0  0  0  0  0
    0.7366   56.4921   74.0328 H   0  0  0  0  0  0  0  0  0  0  0  0
  2  1  2  0
  3  2  1  0
  4  3  1  0
  5  4  1  0
  6  5  2  0
  7  5  1  0
  8  7  1  0
  9  3  1  0
  9  8  1  0
 10  8  1  0
 11 10  2  0
 12 11  1  0
 13 12  2  0
 14 13  1  0
 15 14  2  0
 15 10  1  0
 16 15  1  0
 17  7  1  0
 17 16  1  0
 18  2  1  0
 19 18  1  0
 20 19  1  0
 21 20  1  0
 22 21  1  0
 23 18  1  0
 23 22  1  0
  4 24  1  0
  4 25  1  0
  8 26  1  1
  9 27  1  0
  9 28  1  0
 11 29  1  0
 12 30  1  0
 13 31  1  0
 14 32  1  0
 16 33  1  0
 16 34  1  0
 17 35  1  0
 17 36  1  0
 18 37  1  0
 19 38  1  0
 19 39  1  0
 20 40  1  0
 20 41  1  0
 21 42  1  0
 21 43  1  0
 22 44  1  0
 22 45  1  0
 23 46  1  0
 23 47  1  0
M  END
>  <score>  (2) 
-9.616

$$$$
=
     RDKit          3D

 47 50  0  0  0  0  0  0  0  0999 V2000
    4.1730   59.1930   70.8580 O   0  0  0  0  0  0  0  0  0  0  0  0
    3.2890   59.7990   71.4680 C   0  0  0  0  0  0  0  0  0  0  0  0
    2.3700   59.1080   72.2480 N   0  0  0  0  0  0  0  0  0  0  0  0
    2.6240   57.6770   72.4360 C   0  0  0  0  0  0  0  0  0  0  0  0
    1.6270   56.8390   73.2570 C   0  0  0  0  0  0  0  0  0  0  0  0
    1.8370   55.6410   73.4530 O   0  0  0  0  0  0  0  0  0  0  0  0
    0.5220   57.4960   73.7820 N   0  0  0  0  0  0  0  0  0  0  0  0
    0.1130   58.7920   73.2280 C   0  0  2  0  0  0  0  0  0  0  0  0
    1.3480   59.7080   73.1080 C   0  0  0  0  0  0  0  0  0  0  0  0
   -1.0180   59.4640   74.0000 C   0  0  0  0  0  0  0  0  0  0  0  0
   -1.5720   60.6690   73.5290 C   0  0  0  0  0  0  0  0  0  0  0  0
   -2.5970   61.3090   74.2270 C   0  0  0  0  0  0  0  0  0  0  0  0
   -3.0910   60.7520   75.4040 C   0  0  0  0  0  0  0  0  0  0  0  0
   -2.5750   59.5470   75.8720 C   0  0  0  0  0  0  0  0  0  0  0  0
   -1.5570   58.8880   75.1670 C   0  0  0  0  0  0  0  0  0  0  0  0
   -1.0270   57.5740   75.6780 C   0  0  0  0  0  0  0  0  0  0  0  0
   -0.4670   56.7380   74.5340 C   0  0  0  0  0  0  0  0  0  0  0  0
    3.1990   61.3320   71.4000 C   0  0  0  0  0  0  0  0  0  0  0  0
    2.2560   61.7840   70.2620 C   0  0  0  0  0  0  0  0  0  0  0  0
    2.9950   61.9800   68.9410 C   0  0  0  0  0  0  0  0  0  0  0  0
    4.0860   63.0450   69.0460 C   0  0  0  0  0  0  0  0  0  0  0  0
    4.6110   63.2400   70.4660 C   0  0  0  0  0  0  0  0  0  0  0  0
    4.6080   61.9390   71.2600 C   0  0  0  0  0  0  0  0  0  0  0  0
    2.6752   57.2253   71.4343 H   0  0  0  0  0  0  0  0  0  0  0  0
    3.5448   57.6514   73.0372 H   0  0  0  0  0  0  0  0  0  0  0  0
   -0.3062   58.6042   72.2285 H   0  0  0  0  0  0  0  0  0  0  0  0
    1.7724   59.8713   74.1096 H   0  0  0  0  0  0  0  0  0  0  0  0
    1.0322   60.6620   72.6607 H   0  0  0  0  0  0  0  0  0  0  0  0
   -1.1915   61.1128   72.5972 H   0  0  0  0  0  0  0  0  0  0  0  0
   -3.0147   62.2532   73.8476 H   0  0  0  0  0  0  0  0  0  0  0  0
   -3.8881   61.2638   75.9632 H   0  0  0  0  0  0  0  0  0  0  0  0
   -2.9682   59.1085   76.8010 H   0  0  0  0  0  0  0  0  0  0  0  0
   -0.2281   57.7666   76.4092 H   0  0  0  0  0  0  0  0  0  0  0  0
   -1.8513   57.0198   76.1506 H   0  0  0  0  0  0  0  0  0  0  0  0
   -1.2883   56.4487   73.8619 H   0  0  0  0  0  0  0  0  0  0  0  0
    0.0156   55.8425   74.9524 H   0  0  0  0  0  0  0  0  0  0  0  0
    2.7637   61.7047   72.3389 H   0  0  0  0  0  0  0  0  0  0  0  0
    1.4782   61.0188   70.1221 H   0  0  0  0  0  0  0  0  0  0  0  0
    1.8200   62.7518   70.5506 H   0  0  0  0  0  0  0  0  0  0  0  0
    3.4575   61.0259   68.6482 H   0  0  0  0  0  0  0  0  0  0  0  0
    2.2644   62.3159   68.1904 H   0  0  0  0  0  0  0  0  0  0  0  0
    4.9264   62.7474   68.4017 H   0  0  0  0  0  0  0  0  0  0  0  0
    3.6381   63.9995   68.7324 H   0  0  0  0  0  0  0  0  0  0  0  0
    5.6412   63.6220   70.4143 H   0  0  0  0  0  0  0  0  0  0  0  0
    3.9476   63.9521   70.9785 H   0  0  0  0  0  0  0  0  0  0  0  0
    5.0065   62.1393   72.2655 H   0  0  0  0  0  0  0  0  0  0  0  0
    5.2295   61.2144   70.7134 H   0  0  0  0  0  0  0  0  0  0  0  0
  2  1  2  0
  3  2  1  0
  4  3  1  0
  5  4  1  0
  6  5  2  0
  7  5  1  0
  8  7  1  0
  9  3  1  0
  9  8  1  0
 10  8  1  0
 11 10  2  0
 12 11  1  0
 13 12  2  0
 14 13  1  0
 15 14  2  0
 15 10  1  0
 16 15  1  0
 17  7  1  0
 17 16  1  0
 18  2  1  0
 19 18  1  0
 20 19  1  0
 21 20  1  0
 22 21  1  0
 23 18  1  0
 23 22  1  0
  4 24  1  0
  4 25  1  0
  8 26  1  6
  9 27  1  0
  9 28  1  0
 11 29  1  0
 12 30  1  0
 13 31  1  0
 14 32  1  0
 16 33  1  0
 16 34  1  0
 17 35  1  0
 17 36  1  0
 18 37  1  0
 19 38  1  0
 19 39  1  0
 20 40  1  0
 20 41  1  0
 21 42  1  0
 21 43  1  0
 22 44  1  0
 22 45  1  0
 23 46  1  0
 23 47  1  0
M  END
>  <score>  (3) 
-9.137

$$$$
=
     RDKit          3D

 47 50  0  0  0  0  0  0  0  0999 V2000
    1.4360   63.8390   71.9250 O   0  0  0  0  0  0  0  0  0  0  0  0
    1.4830   62.6080   71.8640 C   0  0  0  0  0  0  0  0  0  0  0  0
    0.7050   61.8300   72.7130 N   0  0  0  0  0  0  0  0  0  0  0  0
   -0.2750   62.5460   73.5340 C   0  0  0  0  0  0  0  0  0  0  0  0
   -1.1450   61.7540   74.5270 C   0  0  0  0  0  0  0  0  0  0  0  0
   -1.9970   62.3320   75.2040 O   0  0  0  0  0  0  0  0  0  0  0  0
   -0.9500   60.3810   74.5910 N   0  0  0  0  0  0  0  0  0  0  0  0
    0.2920   59.7960   74.0720 C   0  0  2  0  0  0  0  0  0  0  0  0
    0.5800   60.3720   72.6700 C   0  0  0  0  0  0  0  0  0  0  0  0
    0.3030   58.2710   74.0710 C   0  0  0  0  0  0  0  0  0  0  0  0
    1.4630   57.5760   73.6840 C   0  0  0  0  0  0  0  0  0  0  0  0
    1.4900   56.1800   73.6610 C   0  0  0  0  0  0  0  0  0  0  0  0
    0.3610   55.4560   74.0320 C   0  0  0  0  0  0  0  0  0  0  0  0
   -0.7890   56.1240   74.4440 C   0  0  0  0  0  0  0  0  0  0  0  0
   -0.8180   57.5260   74.4860 C   0  0  0  0  0  0  0  0  0  0  0  0
   -2.0650   58.2300   74.9560 C   0  0  0  0  0  0  0  0  0  0  0  0
   -1.7230   59.5950   75.5410 C   0  0  0  0  0  0  0  0  0  0  0  0
    2.3810   61.9070   70.8320 C   0  0  0  0  0  0  0  0  0  0  0  0
    3.8080   61.6990   71.3860 C   0  0  0  0  0  0  0  0  0  0  0  0
    4.7270   62.8760   71.0730 C   0  0  0  0  0  0  0  0  0  0  0  0
    4.8780   63.1030   69.5690 C   0  0  0  0  0  0  0  0  0  0  0  0
    3.7010   62.5750   68.7540 C   0  0  0  0  0  0  0  0  0  0  0  0
    2.3820   62.6960   69.5080 C   0  0  0  0  0  0  0  0  0  0  0  0
    0.2808   63.2936   74.1190 H   0  0  0  0  0  0  0  0  0  0  0  0
   -0.9992   62.9307   72.8008 H   0  0  0  0  0  0  0  0  0  0  0  0
    1.1012   60.0789   74.7614 H   0  0  0  0  0  0  0  0  0  0  0  0
   -0.2453   60.1022   71.9946 H   0  0  0  0  0  0  0  0  0  0  0  0
    1.5298   59.9511   72.3085 H   0  0  0  0  0  0  0  0  0  0  0  0
    2.3620   58.1403   73.3953 H   0  0  0  0  0  0  0  0  0  0  0  0
    2.4037   55.6526   73.3496 H   0  0  0  0  0  0  0  0  0  0  0  0
    0.3771   54.3566   73.9998 H   0  0  0  0  0  0  0  0  0  0  0  0
   -1.6797   55.5494   74.7382 H   0  0  0  0  0  0  0  0  0  0  0  0
   -2.7479   58.3628   74.1040 H   0  0  0  0  0  0  0  0  0  0  0  0
   -2.5436   57.6199   75.7362 H   0  0  0  0  0  0  0  0  0  0  0  0
   -1.1341   59.4572   76.4598 H   0  0  0  0  0  0  0  0  0  0  0  0
   -2.6583   60.1291   75.7647 H   0  0  0  0  0  0  0  0  0  0  0  0
    1.9726   60.9065   70.6267 H   0  0  0  0  0  0  0  0  0  0  0  0
    3.7495   61.5762   72.4776 H   0  0  0  0  0  0  0  0  0  0  0  0
    4.2296   60.8048   70.9036 H   0  0  0  0  0  0  0  0  0  0  0  0
    4.3071   63.7849   71.5286 H   0  0  0  0  0  0  0  0  0  0  0  0
    5.7219   62.6475   71.4828 H   0  0  0  0  0  0  0  0  0  0  0  0
    4.9706   64.1839   69.3873 H   0  0  0  0  0  0  0  0  0  0  0  0
    5.7711   62.5483   69.2455 H   0  0  0  0  0  0  0  0  0  0  0  0
    3.6297   63.1510   67.8196 H   0  0  0  0  0  0  0  0  0  0  0  0
    3.8796   61.5085   68.5524 H   0  0  0  0  0  0  0  0  0  0  0  0
    1.5740   62.3114   68.8682 H   0  0  0  0  0  0  0  0  0  0  0  0
    2.2350   63.7582   69.7533 H   0  0  0  0  0  0  0  0  0  0  0  0
  2  1  2  0
  3  2  1  0
  4  3  1  0
  5  4  1  0
  6  5  2  0
  7  5  1  0
  8  7  1  0
  9  3  1  0
  9  8  1  0
 10  8  1  0
 11 10  2  0
 12 11  1  0
 13 12  2  0
 14 13  1  0
 15 14  2  0
 15 10  1  0
 16 15  1  0
 17  7  1  0
 17 16  1  0
 18  2  1  0
 19 18  1  0
 20 19  1  0
 21 20  1  0
 22 21  1  0
 23 18  1  0
 23 22  1  0
  4 24  1  0
  4 25  1  0
  8 26  1  1
  9 27  1  0
  9 28  1  0
 11 29  1  0
 12 30  1  0
 13 31  1  0
 14 32  1  0
 16 33  1  0
 16 34  1  0
 17 35  1  0
 17 36  1  0
 18 37  1  0
 19 38  1  0
 19 39  1  0
 20 40  1  0
 20 41  1  0
 21 42  1  0
 21 43  1  0
 22 44  1  0
 22 45  1  0
 23 46  1  0
 23 47  1  0
M  END
>  <score>  (4) 
-8.608

$$$$
=
     RDKit          3D

 47 50  0  0  0  0  0  0  0  0999 V2000
    1.6030   61.8130   72.8120 O   0  0  0  0  0  0  0  0  0  0  0  0
    1.7350   60.5930   72.6880 C   0  0  0  0  0  0  0  0  0  0  0  0
    0.8920   59.7200   73.3660 N   0  0  0  0  0  0  0  0  0  0  0  0
   -0.2400   60.3280   74.0710 C   0  0  0  0  0  0  0  0  0  0  0  0
   -1.1950   59.4270   74.8770 C   0  0  0  0  0  0  0  0  0  0  0  0
   -2.1700   59.9130   75.4510 O   0  0  0  0  0  0  0  0  0  0  0  0
   -0.9250   58.0650   74.8910 N   0  0  0  0  0  0  0  0  0  0  0  0
    0.4130   57.5820   74.5290 C   0  0  2  0  0  0  0  0  0  0  0  0
    0.8650   58.2640   73.2220 C   0  0  0  0  0  0  0  0  0  0  0  0
    0.5190   56.0630   74.4430 C   0  0  0  0  0  0  0  0  0  0  0  0
    1.7650   55.4580   74.1940 C   0  0  0  0  0  0  0  0  0  0  0  0
    1.8820   54.0700   74.0960 C   0  0  0  0  0  0  0  0  0  0  0  0
    0.7580   53.2640   74.2520 C   0  0  0  0  0  0  0  0  0  0  0  0
   -0.4790   53.8420   74.5260 C   0  0  0  0  0  0  0  0  0  0  0  0
   -0.6020   55.2340   74.6430 C   0  0  0  0  0  0  0  0  0  0  0  0
   -1.9450   55.8390   74.9610 C   0  0  0  0  0  0  0  0  0  0  0  0
   -1.7780   57.1780   75.6680 C   0  0  0  0  0  0  0  0  0  0  0  0
    2.8160   60.0090   71.7630 C   0  0  0  0  0  0  0  0  0  0  0  0
    4.1270   59.7450   72.5370 C   0  0  0  0  0  0  0  0  0  0  0  0
    5.0620   60.9500   72.5210 C   0  0  0  0  0  0  0  0  0  0  0  0
    5.4710   61.3400   71.1010 C   0  0  0  0  0  0  0  0  0  0  0  0
    4.4670   60.9030   70.0370 C   0  0  0  0  0  0  0  0  0  0  0  0
    3.0340   60.9390   70.5540 C   0  0  0  0  0  0  0  0  0  0  0  0
    0.1771   61.0642   74.7739 H   0  0  0  0  0  0  0  0  0  0  0  0
   -0.8722   60.7209   73.2610 H   0  0  0  0  0  0  0  0  0  0  0  0
    1.0950   57.8611   75.3457 H   0  0  0  0  0  0  0  0  0  0  0  0
    0.1649   57.9961   72.4169 H   0  0  0  0  0  0  0  0  0  0  0  0
    1.8818   57.9190   72.9830 H   0  0  0  0  0  0  0  0  0  0  0  0
    2.6593   56.0873   74.0749 H   0  0  0  0  0  0  0  0  0  0  0  0
    2.8625   53.6135   73.8955 H   0  0  0  0  0  0  0  0  0  0  0  0
    0.8467   52.1715   74.1589 H   0  0  0  0  0  0  0  0  0  0  0  0
   -1.3652   53.2026   74.6514 H   0  0  0  0  0  0  0  0  0  0  0  0
   -2.5030   55.9917   74.0254 H   0  0  0  0  0  0  0  0  0  0  0  0
   -2.4933   55.1543   75.6247 H   0  0  0  0  0  0  0  0  0  0  0  0
   -1.3221   57.0112   76.6551 H   0  0  0  0  0  0  0  0  0  0  0  0
   -2.7673   57.6457   75.7798 H   0  0  0  0  0  0  0  0  0  0  0  0
    2.4722   59.0359   71.3824 H   0  0  0  0  0  0  0  0  0  0  0  0
    3.8788   59.5038   73.5811 H   0  0  0  0  0  0  0  0  0  0  0  0
    4.6462   58.9099   72.0440 H   0  0  0  0  0  0  0  0  0  0  0  0
    4.5496   61.8031   72.9897 H   0  0  0  0  0  0  0  0  0  0  0  0
    5.9734   60.6796   73.0744 H   0  0  0  0  0  0  0  0  0  0  0  0
    5.5722   62.4344   71.0558 H   0  0  0  0  0  0  0  0  0  0  0  0
    6.4181   60.8245   70.8837 H   0  0  0  0  0  0  0  0  0  0  0  0
    4.5495   61.5781   69.1725 H   0  0  0  0  0  0  0  0  0  0  0  0
    4.7004   59.8655   69.7559 H   0  0  0  0  0  0  0  0  0  0  0  0
    2.3592   60.6268   69.7433 H   0  0  0  0  0  0  0  0  0  0  0  0
    2.8246   61.9675   70.8832 H   0  0  0  0  0  0  0  0  0  0  0  0
  2  1  2  0
  3  2  1  0
  4  3  1  0
  5  4  1  0
  6  5  2  0
  7  5  1  0
  8  7  1  0
  9  3  1  0
  9  8  1  0
 10  8  1  0
 11 10  2  0
 12 11  1  0
 13 12  2  0
 14 13  1  0
 15 14  2  0
 15 10  1  0
 16 15  1  0
 17  7  1  0
 17 16  1  0
 18  2  1  0
 19 18  1  0
 20 19  1  0
 21 20  1  0
 22 21  1  0
 23 18  1  0
 23 22  1  0
  4 24  1  0
  4 25  1  0
  8 26  1  1
  9 27  1  0
  9 28  1  0
 11 29  1  0
 12 30  1  0
 13 31  1  0
 14 32  1  0
 16 33  1  0
 16 34  1  0
 17 35  1  0
 17 36  1  0
 18 37  1  0
 19 38  1  0
 19 39  1  0
 20 40  1  0
 20 41  1  0
 21 42  1  0
 21 43  1  0
 22 44  1  0
 22 45  1  0
 23 46  1  0
 23 47  1  0
M  END
>  <score>  (5) 
-8.406

$$$$
=
     RDKit          3D

 47 50  0  0  0  0  0  0  0  0999 V2000
    3.3700   58.3930   71.2020 O   0  0  0  0  0  0  0  0  0  0  0  0
    2.6160   59.1270   71.8450 C   0  0  0  0  0  0  0  0  0  0  0  0
    2.4330   60.4520   71.4700 N   0  0  0  0  0  0  0  0  0  0  0  0
    3.0350   60.8560   70.1960 C   0  0  0  0  0  0  0  0  0  0  0  0
    2.9060   62.3190   69.7350 C   0  0  0  0  0  0  0  0  0  0  0  0
    3.3770   62.6720   68.6530 O   0  0  0  0  0  0  0  0  0  0  0  0
    2.2150   63.1910   70.5650 N   0  0  0  0  0  0  0  0  0  0  0  0
    2.0060   62.8430   71.9760 C   0  0  2  0  0  0  0  0  0  0  0  0
    1.4880   61.3940   72.0730 C   0  0  0  0  0  0  0  0  0  0  0  0
    1.1050   63.8190   72.7260 C   0  0  0  0  0  0  0  0  0  0  0  0
    0.8910   63.6590   74.1080 C   0  0  0  0  0  0  0  0  0  0  0  0
    0.0590   64.5310   74.8110 C   0  0  0  0  0  0  0  0  0  0  0  0
   -0.5680   65.5820   74.1470 C   0  0  0  0  0  0  0  0  0  0  0  0
   -0.3480   65.7740   72.7850 C   0  0  0  0  0  0  0  0  0  0  0  0
    0.5010   64.9120   72.0750 C   0  0  0  0  0  0  0  0  0  0  0  0
    0.7440   65.1490   70.6070 C   0  0  0  0  0  0  0  0  0  0  0  0
    2.0990   64.5920   70.1890 C   0  0  0  0  0  0  0  0  0  0  0  0
    1.8430   58.5870   73.0600 C   0  0  0  0  0  0  0  0  0  0  0  0
    2.3410   59.2360   74.3700 C   0  0  0  0  0  0  0  0  0  0  0  0
    3.4800   58.4480   75.0100 C   0  0  0  0  0  0  0  0  0  0  0  0
    3.0610   57.0230   75.3690 C   0  0  0  0  0  0  0  0  0  0  0  0
    1.9020   56.5000   74.5250 C   0  0  0  0  0  0  0  0  0  0  0  0
    1.9350   57.0490   73.1040 C   0  0  0  0  0  0  0  0  0  0  0  0
    4.1102   60.6340   70.2639 H   0  0  0  0  0  0  0  0  0  0  0  0
    2.4606   60.2935   69.4452 H   0  0  0  0  0  0  0  0  0  0  0  0
    2.9802   62.9212   72.4809 H   0  0  0  0  0  0  0  0  0  0  0  0
    0.5245   61.3215   71.5473 H   0  0  0  0  0  0  0  0  0  0  0  0
    1.3704   61.1367   73.1360 H   0  0  0  0  0  0  0  0  0  0  0  0
    1.3868   62.8346   74.6415 H   0  0  0  0  0  0  0  0  0  0  0  0
   -0.1016   64.3881   75.8898 H   0  0  0  0  0  0  0  0  0  0  0  0
   -1.2366   66.2602   74.6975 H   0  0  0  0  0  0  0  0  0  0  0  0
   -0.8429   66.6063   72.2632 H   0  0  0  0  0  0  0  0  0  0  0  0
   -0.0460   64.6516   70.0252 H   0  0  0  0  0  0  0  0  0  0  0  0
    0.7329   66.2324   70.4170 H   0  0  0  0  0  0  0  0  0  0  0  0
    2.8948   65.1666   70.6855 H   0  0  0  0  0  0  0  0  0  0  0  0
    2.1947   64.6750   69.0963 H   0  0  0  0  0  0  0  0  0  0  0  0
    0.7821   58.8586   72.9560 H   0  0  0  0  0  0  0  0  0  0  0  0
    2.6956   60.2534   74.1482 H   0  0  0  0  0  0  0  0  0  0  0  0
    1.5006   59.2493   75.0797 H   0  0  0  0  0  0  0  0  0  0  0  0
    4.3215   58.4030   74.3030 H   0  0  0  0  0  0  0  0  0  0  0  0
    3.7673   58.9614   75.9394 H   0  0  0  0  0  0  0  0  0  0  0  0
    3.9255   56.3585   75.2237 H   0  0  0  0  0  0  0  0  0  0  0  0
    2.7193   57.0392   76.4145 H   0  0  0  0  0  0  0  0  0  0  0  0
    1.9609   55.4024   74.4827 H   0  0  0  0  0  0  0  0  0  0  0  0
    0.9641   56.8313   74.9947 H   0  0  0  0  0  0  0  0  0  0  0  0
    1.0861   56.6292   72.5444 H   0  0  0  0  0  0  0  0  0  0  0  0
    2.8980   56.7601   72.6577 H   0  0  0  0  0  0  0  0  0  0  0  0
  2  1  2  0
  3  2  1  0
  4  3  1  0
  5  4  1  0
  6  5  2  0
  7  5  1  0
  8  7  1  0
  9  3  1  0
  9  8  1  0
 10  8  1  0
 11 10  2  0
 12 11  1  0
 13 12  2  0
 14 13  1  0
 15 14  2  0
 15 10  1  0
 16 15  1  0
 17  7  1  0
 17 16  1  0
 18  2  1  0
 19 18  1  0
 20 19  1  0
 21 20  1  0
 22 21  1  0
 23 18  1  0
 23 22  1  0
  4 24  1  0
  4 25  1  0
  8 26  1  1
  9 27  1  0
  9 28  1  0
 11 29  1  0
 12 30  1  0
 13 31  1  0
 14 32  1  0
 16 33  1  0
 16 34  1  0
 17 35  1  0
 17 36  1  0
 18 37  1  0
 19 38  1  0
 19 39  1  0
 20 40  1  0
 20 41  1  0
 21 42  1  0
 21 43  1  0
 22 44  1  0
 22 45  1  0
 23 46  1  0
 23 47  1  0
M  END
>  <score>  (6) 
-8.359

$$$$
=
     RDKit          3D

 47 50  0  0  0  0  0  0  0  0999 V2000
    0.7860   67.6100   63.0480 O   0  0  0  0  0  0  0  0  0  0  0  0
    1.8970   67.8660   63.5170 C   0  0  0  0  0  0  0  0  0  0  0  0
    2.0180   68.3950   64.7960 N   0  0  0  0  0  0  0  0  0  0  0  0
    0.7890   68.4570   65.5920 C   0  0  0  0  0  0  0  0  0  0  0  0
    0.8380   69.0680   67.0040 C   0  0  0  0  0  0  0  0  0  0  0  0
   -0.1770   69.1010   67.7020 O   0  0  0  0  0  0  0  0  0  0  0  0
    2.0660   69.5340   67.4550 N   0  0  0  0  0  0  0  0  0  0  0  0
    3.1350   69.8220   66.4910 C   0  0  2  0  0  0  0  0  0  0  0  0
    3.2720   68.6370   65.5120 C   0  0  0  0  0  0  0  0  0  0  0  0
    4.4690   70.1800   67.1380 C   0  0  0  0  0  0  0  0  0  0  0  0
    5.5580   70.5670   66.3350 C   0  0  0  0  0  0  0  0  0  0  0  0
    6.7930   70.8840   66.9040 C   0  0  0  0  0  0  0  0  0  0  0  0
    6.9570   70.8270   68.2850 C   0  0  0  0  0  0  0  0  0  0  0  0
    5.8840   70.4730   69.0990 C   0  0  0  0  0  0  0  0  0  0  0  0
    4.6360   70.1700   68.5360 C   0  0  0  0  0  0  0  0  0  0  0  0
    3.4810   69.8100   69.4350 C   0  0  0  0  0  0  0  0  0  0  0  0
    2.1550   70.1520   68.7690 C   0  0  0  0  0  0  0  0  0  0  0  0
    3.1750   67.5830   62.7090 C   0  0  0  0  0  0  0  0  0  0  0  0
    4.0020   66.4490   63.3560 C   0  0  0  0  0  0  0  0  0  0  0  0
    5.0130   66.9770   64.3690 C   0  0  0  0  0  0  0  0  0  0  0  0
    6.0190   67.9340   63.7320 C   0  0  0  0  0  0  0  0  0  0  0  0
    5.4940   68.6170   62.4720 C   0  0  0  0  0  0  0  0  0  0  0  0
    3.9940   68.8770   62.5440 C   0  0  0  0  0  0  0  0  0  0  0  0
    0.0606   69.0438   65.0131 H   0  0  0  0  0  0  0  0  0  0  0  0
    0.5413   67.4006   65.7729 H   0  0  0  0  0  0  0  0  0  0  0  0
    2.8433   70.7266   65.9373 H   0  0  0  0  0  0  0  0  0  0  0  0
    3.5424   67.7333   66.0779 H   0  0  0  0  0  0  0  0  0  0  0  0
    4.0522   68.8812   64.7760 H   0  0  0  0  0  0  0  0  0  0  0  0
    5.4344   70.6205   65.2433 H   0  0  0  0  0  0  0  0  0  0  0  0
    7.6357   71.1786   66.2613 H   0  0  0  0  0  0  0  0  0  0  0  0
    7.9338   71.0615   68.7332 H   0  0  0  0  0  0  0  0  0  0  0  0
    6.0162   70.4308   70.1902 H   0  0  0  0  0  0  0  0  0  0  0  0
    3.5110   68.7311   69.6472 H   0  0  0  0  0  0  0  0  0  0  0  0
    3.5668   70.3847   70.3690 H   0  0  0  0  0  0  0  0  0  0  0  0
    2.0761   71.2438   68.6608 H   0  0  0  0  0  0  0  0  0  0  0  0
    1.3353   69.7708   69.3958 H   0  0  0  0  0  0  0  0  0  0  0  0
    2.8918   67.2346   61.7048 H   0  0  0  0  0  0  0  0  0  0  0  0
    3.3158   65.7582   63.8678 H   0  0  0  0  0  0  0  0  0  0  0  0
    4.5603   65.9405   62.5562 H   0  0  0  0  0  0  0  0  0  0  0  0
    4.4722   67.5094   65.1653 H   0  0  0  0  0  0  0  0  0  0  0  0
    5.5704   66.1178   64.7705 H   0  0  0  0  0  0  0  0  0  0  0  0
    6.2756   68.7103   64.4679 H   0  0  0  0  0  0  0  0  0  0  0  0
    6.8931   67.3355   63.4360 H   0  0  0  0  0  0  0  0  0  0  0  0
    6.0149   69.5776   62.3459 H   0  0  0  0  0  0  0  0  0  0  0  0
    5.6813   67.9468   61.6201 H   0  0  0  0  0  0  0  0  0  0  0  0
    3.6785   69.3776   61.6167 H   0  0  0  0  0  0  0  0  0  0  0  0
    3.8070   69.5042   63.4281 H   0  0  0  0  0  0  0  0  0  0  0  0
  2  1  2  0
  3  2  1  0
  4  3  1  0
  5  4  1  0
  6  5  2  0
  7  5  1  0
  8  7  1  0
  9  3  1  0
  9  8  1  0
 10  8  1  0
 11 10  2  0
 12 11  1  0
 13 12  2  0
 14 13  1  0
 15 14  2  0
 15 10  1  0
 16 15  1  0
 17  7  1  0
 17 16  1  0
 18  2  1  0
 19 18  1  0
 20 19  1  0
 21 20  1  0
 22 21  1  0
 23 18  1  0
 23 22  1  0
  4 24  1  0
  4 25  1  0
  8 26  1  6
  9 27  1  0
  9 28  1  0
 11 29  1  0
 12 30  1  0
 13 31  1  0
 14 32  1  0
 16 33  1  0
 16 34  1  0
 17 35  1  0
 17 36  1  0
 18 37  1  0
 19 38  1  0
 19 39  1  0
 20 40  1  0
 20 41  1  0
 21 42  1  0
 21 43  1  0
 22 44  1  0
 22 45  1  0
 23 46  1  0
 23 47  1  0
M  END
>  <score>  (7) 
-8.29

$$$$
=
     RDKit          3D

 47 50  0  0  0  0  0  0  0  0999 V2000
    3.3120   61.5650   69.4580 O   0  0  0  0  0  0  0  0  0  0  0  0
    2.8150   61.5670   70.5870 C   0  0  0  0  0  0  0  0  0  0  0  0
    2.6110   60.3750   71.2700 N   0  0  0  0  0  0  0  0  0  0  0  0
    3.1740   59.1690   70.6550 C   0  0  0  0  0  0  0  0  0  0  0  0
    2.9540   57.8060   71.3350 C   0  0  0  0  0  0  0  0  0  0  0  0
    3.4450   56.7850   70.8520 O   0  0  0  0  0  0  0  0  0  0  0  0
    2.2210   57.7930   72.5140 N   0  0  0  0  0  0  0  0  0  0  0  0
    1.3540   58.9300   72.8470 C   0  0  2  0  0  0  0  0  0  0  0  0
    2.1380   60.2430   72.6490 C   0  0  0  0  0  0  0  0  0  0  0  0
    0.7320   58.8450   74.2370 C   0  0  0  0  0  0  0  0  0  0  0  0
   -0.1920   59.8210   74.6550 C   0  0  0  0  0  0  0  0  0  0  0  0
   -0.7620   59.7720   75.9280 C   0  0  0  0  0  0  0  0  0  0  0  0
   -0.4260   58.7420   76.8020 C   0  0  0  0  0  0  0  0  0  0  0  0
    0.4650   57.7510   76.3980 C   0  0  0  0  0  0  0  0  0  0  0  0
    1.0300   57.7840   75.1140 C   0  0  0  0  0  0  0  0  0  0  0  0
    1.9750   56.6910   74.6880 C   0  0  0  0  0  0  0  0  0  0  0  0
    1.9560   56.5230   73.1740 C   0  0  0  0  0  0  0  0  0  0  0  0
    2.4330   62.8890   71.2730 C   0  0  0  0  0  0  0  0  0  0  0  0
    0.9290   62.9170   71.6290 C   0  0  0  0  0  0  0  0  0  0  0  0
    0.0790   63.5000   70.5050 C   0  0  0  0  0  0  0  0  0  0  0  0
    0.4700   64.9400   70.1760 C   0  0  0  0  0  0  0  0  0  0  0  0
    1.9110   65.2790   70.5500 C   0  0  0  0  0  0  0  0  0  0  0  0
    2.8410   64.0820   70.3880 C   0  0  0  0  0  0  0  0  0  0  0  0
    2.7484   59.0957   69.6433 H   0  0  0  0  0  0  0  0  0  0  0  0
    4.2609   59.3233   70.7245 H   0  0  0  0  0  0  0  0  0  0  0  0
    0.4972   58.9036   72.1576 H   0  0  0  0  0  0  0  0  0  0  0  0
    3.0039   60.2495   73.3274 H   0  0  0  0  0  0  0  0  0  0  0  0
    1.4663   61.0860   72.8688 H   0  0  0  0  0  0  0  0  0  0  0  0
   -0.4690   60.6344   73.9682 H   0  0  0  0  0  0  0  0  0  0  0  0
   -1.4768   60.5474   76.2407 H   0  0  0  0  0  0  0  0  0  0  0  0
   -0.8638   58.7109   77.8106 H   0  0  0  0  0  0  0  0  0  0  0  0
    0.7276   56.9371   77.0898 H   0  0  0  0  0  0  0  0  0  0  0  0
    2.9946   56.9493   75.0099 H   0  0  0  0  0  0  0  0  0  0  0  0
    1.6560   55.7464   75.1528 H   0  0  0  0  0  0  0  0  0  0  0  0
    0.9674   56.1537   72.8637 H   0  0  0  0  0  0  0  0  0  0  0  0
    2.7380   55.8045   72.8872 H   0  0  0  0  0  0  0  0  0  0  0  0
    2.9845   62.9696   72.2213 H   0  0  0  0  0  0  0  0  0  0  0  0
    0.5937   61.8887   71.8292 H   0  0  0  0  0  0  0  0  0  0  0  0
    0.8043   63.5595   72.5131 H   0  0  0  0  0  0  0  0  0  0  0  0
    0.2101   62.8823   69.6043 H   0  0  0  0  0  0  0  0  0  0  0  0
   -0.9691   63.5016   70.8390 H   0  0  0  0  0  0  0  0  0  0  0  0
    0.3447   65.0966   69.0944 H   0  0  0  0  0  0  0  0  0  0  0  0
   -0.1822   65.5968   70.7703 H   0  0  0  0  0  0  0  0  0  0  0  0
    2.2641   66.0933   69.9002 H   0  0  0  0  0  0  0  0  0  0  0  0
    1.9253   65.5789   71.6082 H   0  0  0  0  0  0  0  0  0  0  0  0
    3.8614   64.3896   70.6603 H   0  0  0  0  0  0  0  0  0  0  0  0
    2.7815   63.7541   69.3397 H   0  0  0  0  0  0  0  0  0  0  0  0
  2  1  2  0
  3  2  1  0
  4  3  1  0
  5  4  1  0
  6  5  2  0
  7  5  1  0
  8  7  1  0
  9  3  1  0
  9  8  1  0
 10  8  1  0
 11 10  2  0
 12 11  1  0
 13 12  2  0
 14 13  1  0
 15 14  2  0
 15 10  1  0
 16 15  1  0
 17  7  1  0
 17 16  1  0
 18  2  1  0
 19 18  1  0
 20 19  1  0
 21 20  1  0
 22 21  1  0
 23 18  1  0
 23 22  1  0
  4 24  1  0
  4 25  1  0
  8 26  1  6
  9 27  1  0
  9 28  1  0
 11 29  1  0
 12 30  1  0
 13 31  1  0
 14 32  1  0
 16 33  1  0
 16 34  1  0
 17 35  1  0
 17 36  1  0
 18 37  1  0
 19 38  1  0
 19 39  1  0
 20 40  1  0
 20 41  1  0
 21 42  1  0
 21 43  1  0
 22 44  1  0
 22 45  1  0
 23 46  1  0
 23 47  1  0
M  END
>  <score>  (8) 
-8.178

$$$$
=
     RDKit          3D

 47 50  0  0  0  0  0  0  0  0999 V2000
    0.8390   56.1790   74.4230 O   0  0  0  0  0  0  0  0  0  0  0  0
    0.5980   57.3550   74.1380 C   0  0  0  0  0  0  0  0  0  0  0  0
    1.3260   58.0030   73.1470 N   0  0  0  0  0  0  0  0  0  0  0  0
    2.2460   57.1710   72.3670 C   0  0  0  0  0  0  0  0  0  0  0  0
    3.1140   57.8280   71.2790 C   0  0  0  0  0  0  0  0  0  0  0  0
    3.8700   57.1420   70.5900 O   0  0  0  0  0  0  0  0  0  0  0  0
    2.9760   59.1970   71.0940 N   0  0  0  0  0  0  0  0  0  0  0  0
    2.3740   60.0190   72.1500 C   0  0  2  0  0  0  0  0  0  0  0  0
    1.0710   59.3510   72.6350 C   0  0  0  0  0  0  0  0  0  0  0  0
    2.1500   61.4730   71.7490 C   0  0  0  0  0  0  0  0  0  0  0  0
    1.6630   62.3960   72.6930 C   0  0  0  0  0  0  0  0  0  0  0  0
    1.4360   63.7280   72.3430 C   0  0  0  0  0  0  0  0  0  0  0  0
    1.6990   64.1620   71.0470 C   0  0  0  0  0  0  0  0  0  0  0  0
    2.2070   63.2710   70.1060 C   0  0  0  0  0  0  0  0  0  0  0  0
    2.4550   61.9350   70.4540 C   0  0  0  0  0  0  0  0  0  0  0  0
    3.0250   60.9920   69.4270 C   0  0  0  0  0  0  0  0  0  0  0  0
    3.8030   59.8690   70.1020 C   0  0  0  0  0  0  0  0  0  0  0  0
   -0.5280   58.1210   74.8520 C   0  0  0  0  0  0  0  0  0  0  0  0
   -0.0310   58.7260   76.1840 C   0  0  0  0  0  0  0  0  0  0  0  0
   -0.2220   57.7720   77.3590 C   0  0  0  0  0  0  0  0  0  0  0  0
   -1.6910   57.4100   77.5720 C   0  0  0  0  0  0  0  0  0  0  0  0
   -2.5390   57.5420   76.3100 C   0  0  0  0  0  0  0  0  0  0  0  0
   -1.7480   57.2020   75.0520 C   0  0  0  0  0  0  0  0  0  0  0  0
    2.9330   56.6945   73.0819 H   0  0  0  0  0  0  0  0  0  0  0  0
    1.5793   56.5032   71.8017 H   0  0  0  0  0  0  0  0  0  0  0  0
    3.0953   60.0682   72.9790 H   0  0  0  0  0  0  0  0  0  0  0  0
    0.3654   59.2877   71.7935 H   0  0  0  0  0  0  0  0  0  0  0  0
    0.6499   59.9591   73.4492 H   0  0  0  0  0  0  0  0  0  0  0  0
    1.4583   62.0631   73.7212 H   0  0  0  0  0  0  0  0  0  0  0  0
    1.0491   64.4349   73.0917 H   0  0  0  0  0  0  0  0  0  0  0  0
    1.5056   65.2080   70.7667 H   0  0  0  0  0  0  0  0  0  0  0  0
    2.4153   63.6168   69.0828 H   0  0  0  0  0  0  0  0  0  0  0  0
    2.2028   60.5589   68.8384 H   0  0  0  0  0  0  0  0  0  0  0  0
    3.7084   61.5525   68.7721 H   0  0  0  0  0  0  0  0  0  0  0  0
    4.6903   60.2906   70.5968 H   0  0  0  0  0  0  0  0  0  0  0  0
    4.1049   59.1376   69.3378 H   0  0  0  0  0  0  0  0  0  0  0  0
   -0.8421   58.9642   74.2193 H   0  0  0  0  0  0  0  0  0  0  0  0
    1.0395   58.9602   76.0887 H   0  0  0  0  0  0  0  0  0  0  0  0
   -0.6234   59.6308   76.3849 H   0  0  0  0  0  0  0  0  0  0  0  0
    0.3458   56.8503   77.1636 H   0  0  0  0  0  0  0  0  0  0  0  0
    0.1377   58.2771   78.2676 H   0  0  0  0  0  0  0  0  0  0  0  0
   -1.7459   56.3683   77.9212 H   0  0  0  0  0  0  0  0  0  0  0  0
   -2.0955   58.1188   78.3096 H   0  0  0  0  0  0  0  0  0  0  0  0
   -3.3971   56.8579   76.3856 H   0  0  0  0  0  0  0  0  0  0  0  0
   -2.8697   58.5881   76.2309 H   0  0  0  0  0  0  0  0  0  0  0  0
   -2.4117   57.3031   74.1806 H   0  0  0  0  0  0  0  0  0  0  0  0
   -1.3752   56.1729   75.1612 H   0  0  0  0  0  0  0  0  0  0  0  0
  2  1  2  0
  3  2  1  0
  4  3  1  0
  5  4  1  0
  6  5  2  0
  7  5  1  0
  8  7  1  0
  9  3  1  0
  9  8  1  0
 10  8  1  0
 11 10  2  0
 12 11  1  0
 13 12  2  0
 14 13  1  0
 15 14  2  0
 15 10  1  0
 16 15  1  0
 17  7  1  0
 17 16  1  0
 18  2  1  0
 19 18  1  0
 20 19  1  0
 21 20  1  0
 22 21  1  0
 23 18  1  0
 23 22  1  0
  4 24  1  0
  4 25  1  0
  8 26  1  1
  9 27  1  0
  9 28  1  0
 11 29  1  0
 12 30  1  0
 13 31  1  0
 14 32  1  0
 16 33  1  0
 16 34  1  0
 17 35  1  0
 17 36  1  0
 18 37  1  0
 19 38  1  0
 19 39  1  0
 20 40  1  0
 20 41  1  0
 21 42  1  0
 21 43  1  0
 22 44  1  0
 22 45  1  0
 23 46  1  0
 23 47  1  0
M  END
>  <score>  (9) 
-8.131

$$$$
