=
     RDKit          3D

 39 39  0  0  0  0  0  0  0  0999 V2000
    2.8810   68.8280   65.1670 C   0  0  0  0  0  0  0  0  0  0  0  0
    2.8270   69.1750   66.5280 C   0  0  0  0  0  0  0  0  0  0  0  0
    3.9610   69.6580   67.1830 C   0  0  0  0  0  0  0  0  0  0  0  0
    5.1490   69.8280   66.4800 C   0  0  0  0  0  0  0  0  0  0  0  0
    5.2090   69.5370   65.1180 C   0  0  0  0  0  0  0  0  0  0  0  0
    4.0790   69.0460   64.4640 C   0  0  0  0  0  0  0  0  0  0  0  0
    6.3460   70.1300   67.2000 N   0  0  0  0  0  0  0  0  0  0  0  0
    6.1020   71.1980   68.5130 S   0  0  0  0  0  6  0  0  0  0  0  0
    5.1530   70.5340   69.3800 O   0  0  0  0  0  0  0  0  0  0  0  0
    5.8600   72.5370   68.0140 O   0  0  0  0  0  0  0  0  0  0  0  0
    7.7110   71.1520   69.2680 C   0  0  0  0  0  0  0  0  0  0  0  0
    1.6870   68.1420   64.5320 C   0  0  1  0  0  0  0  0  0  0  0  0
    1.7280   66.7280   64.7660 O   0  0  0  0  0  0  0  0  0  0  0  0
    0.3630   68.6500   65.1570 C   0  0  0  0  0  0  0  0  0  0  0  0
   -0.2950   67.5030   65.8890 N   0  0  0  0  0  4  0  0  0  0  0  0
   -0.7930   67.7750   67.2700 C   0  0  0  0  0  0  0  0  0  0  0  0
   -2.1050   67.0190   67.4500 C   0  0  0  0  0  0  0  0  0  0  0  0
    0.2460   67.3270   68.2900 C   0  0  0  0  0  0  0  0  0  0  0  0
    1.8829   69.0650   67.0817 H   0  0  0  0  0  0  0  0  0  0  0  0
    3.9151   69.9040   68.2542 H   0  0  0  0  0  0  0  0  0  0  0  0
    6.1444   69.6941   64.5609 H   0  0  0  0  0  0  0  0  0  0  0  0
    4.1256   68.8271   63.3870 H   0  0  0  0  0  0  0  0  0  0  0  0
    7.2672   69.7417   66.9519 H   0  0  0  0  0  0  0  0  0  0  0  0
    7.6026   71.1551   70.3626 H   0  0  0  0  0  0  0  0  0  0  0  0
    8.2373   70.2384   68.9542 H   0  0  0  0  0  0  0  0  0  0  0  0
    8.2886   72.0340   68.9542 H   0  0  0  0  0  0  0  0  0  0  0  0
    1.7289   68.3670   63.4561 H   0  0  0  0  0  0  0  0  0  0  0  0
    1.7330   66.5548   65.7407 H   0  0  0  0  0  0  0  0  0  0  0  0
    0.5755   69.4668   65.8624 H   0  0  0  0  0  0  0  0  0  0  0  0
   -0.3054   69.0257   64.3683 H   0  0  0  0  0  0  0  0  0  0  0  0
   -1.0992   67.1947   65.3241 H   0  0  0  0  0  0  0  0  0  0  0  0
    0.4486   66.8001   66.0071 H   0  0  0  0  0  0  0  0  0  0  0  0
   -0.9648   68.8508   67.4220 H   0  0  0  0  0  0  0  0  0  0  0  0
   -2.3144   66.8983   68.5231 H   0  0  0  0  0  0  0  0  0  0  0  0
   -2.9219   67.5849   66.9784 H   0  0  0  0  0  0  0  0  0  0  0  0
   -2.0251   66.0285   66.9784 H   0  0  0  0  0  0  0  0  0  0  0  0
   -0.1416   67.4941   69.3058 H   0  0  0  0  0  0  0  0  0  0  0  0
    0.4593   66.2570   68.1504 H   0  0  0  0  0  0  0  0  0  0  0  0
    1.1705   67.9064   68.1504 H   0  0  0  0  0  0  0  0  0  0  0  0
  2  1  2  0
  3  2  1  0
  4  3  2  0
  5  4  1  0
  6  5  2  0
  6  1  1  0
  7  4  1  0
  8  7  1  0
  9  8  2  0
 10  8  2  0
 11  8  1  0
 12  1  1  0
 13 12  1  0
 14 12  1  0
 15 14  1  0
 16 15  1  0
 17 16  1  0
 18 16  1  0
  2 19  1  0
  3 20  1  0
  5 21  1  0
  6 22  1  0
  7 23  1  0
 11 24  1  0
 11 25  1  0
 11 26  1  0
 12 27  1  6
 13 28  1  0
 14 29  1  0
 14 30  1  0
 15 31  1  0
 15 32  1  0
 16 33  1  0
 17 34  1  0
 17 35  1  0
 17 36  1  0
 18 37  1  0
 18 38  1  0
 18 39  1  0
M  CHG  1  15   1
M  END
>  <score>  (1) 
-8.282

$$$$
=
     RDKit          3D

 39 39  0  0  0  0  0  0  0  0999 V2000
    3.0110   68.9230   64.9230 C   0  0  0  0  0  0  0  0  0  0  0  0
    2.8650   69.1540   66.3020 C   0  0  0  0  0  0  0  0  0  0  0  0
    3.9480   69.5890   67.0680 C   0  0  0  0  0  0  0  0  0  0  0  0
    5.1780   69.8240   66.4600 C   0  0  0  0  0  0  0  0  0  0  0  0
    5.3290   69.6490   65.0860 C   0  0  0  0  0  0  0  0  0  0  0  0
    4.2490   69.2070   64.3200 C   0  0  0  0  0  0  0  0  0  0  0  0
    6.3210   70.0720   67.2800 N   0  0  0  0  0  0  0  0  0  0  0  0
    6.0240   71.1730   68.5540 S   0  0  0  0  0  6  0  0  0  0  0  0
    4.9870   70.5620   69.3570 O   0  0  0  0  0  0  0  0  0  0  0  0
    5.8730   72.5110   68.0180 O   0  0  0  0  0  0  0  0  0  0  0  0
    7.5690   71.0790   69.4280 C   0  0  0  0  0  0  0  0  0  0  0  0
    1.8690   68.2850   64.1560 C   0  0  1  0  0  0  0  0  0  0  0  0
    2.2120   68.1250   62.7730 O   0  0  0  0  0  0  0  0  0  0  0  0
    1.5670   66.8650   64.6990 C   0  0  0  0  0  0  0  0  0  0  0  0
    2.8720   66.2110   65.0880 N   0  0  0  0  0  4  0  0  0  0  0  0
    3.3350   65.0670   64.2460 C   0  0  0  0  0  0  0  0  0  0  0  0
    4.4890   65.5610   63.3810 C   0  0  0  0  0  0  0  0  0  0  0  0
    3.7700   63.9130   65.1400 C   0  0  0  0  0  0  0  0  0  0  0  0
    1.8887   68.9905   66.7817 H   0  0  0  0  0  0  0  0  0  0  0  0
    3.8296   69.7458   68.1503 H   0  0  0  0  0  0  0  0  0  0  0  0
    6.2964   69.8585   64.6063 H   0  0  0  0  0  0  0  0  0  0  0  0
    4.3677   69.0796   63.2339 H   0  0  0  0  0  0  0  0  0  0  0  0
    7.2371   69.6296   67.1191 H   0  0  0  0  0  0  0  0  0  0  0  0
    7.3787   71.0906   70.5114 H   0  0  0  0  0  0  0  0  0  0  0  0
    8.0876   70.1476   69.1567 H   0  0  0  0  0  0  0  0  0  0  0  0
    8.1967   71.9406   69.1567 H   0  0  0  0  0  0  0  0  0  0  0  0
    0.9988   68.9474   64.2743 H   0  0  0  0  0  0  0  0  0  0  0  0
    3.1068   67.7076   62.7011 H   0  0  0  0  0  0  0  0  0  0  0  0
    0.9113   66.9364   65.5793 H   0  0  0  0  0  0  0  0  0  0  0  0
    1.0619   66.2665   63.9266 H   0  0  0  0  0  0  0  0  0  0  0  0
    3.6037   66.9353   65.0576 H   0  0  0  0  0  0  0  0  0  0  0  0
    2.7008   65.8055   66.0192 H   0  0  0  0  0  0  0  0  0  0  0  0
    2.5238   64.6992   63.6004 H   0  0  0  0  0  0  0  0  0  0  0  0
    5.3075   65.9114   64.0269 H   0  0  0  0  0  0  0  0  0  0  0  0
    4.8495   64.7384   62.7460 H   0  0  0  0  0  0  0  0  0  0  0  0
    4.1426   66.3897   62.7460 H   0  0  0  0  0  0  0  0  0  0  0  0
    3.6600   64.2048   66.1949 H   0  0  0  0  0  0  0  0  0  0  0  0
    3.1416   63.0336   64.9354 H   0  0  0  0  0  0  0  0  0  0  0  0
    4.8225   63.6672   64.9354 H   0  0  0  0  0  0  0  0  0  0  0  0
  2  1  2  0
  3  2  1  0
  4  3  2  0
  5  4  1  0
  6  5  2  0
  6  1  1  0
  7  4  1  0
  8  7  1  0
  9  8  2  0
 10  8  2  0
 11  8  1  0
 12  1  1  0
 13 12  1  0
 14 12  1  0
 15 14  1  0
 16 15  1  0
 17 16  1  0
 18 16  1  0
  2 19  1  0
  3 20  1  0
  5 21  1  0
  6 22  1  0
  7 23  1  0
 11 24  1  0
 11 25  1  0
 11 26  1  0
 12 27  1  6
 13 28  1  0
 14 29  1  0
 14 30  1  0
 15 31  1  0
 15 32  1  0
 16 33  1  0
 17 34  1  0
 17 35  1  0
 17 36  1  0
 18 37  1  0
 18 38  1  0
 18 39  1  0
M  CHG  1  15   1
M  END
>  <score>  (2) 
-8.252

$$$$
=
     RDKit          3D

 39 39  0  0  0  0  0  0  0  0999 V2000
    3.8650   69.0530   65.5920 C   0  0  0  0  0  0  0  0  0  0  0  0
    3.1390   68.5360   64.5050 C   0  0  0  0  0  0  0  0  0  0  0  0
    1.8320   68.0780   64.6770 C   0  0  0  0  0  0  0  0  0  0  0  0
    1.2270   68.1580   65.9280 C   0  0  0  0  0  0  0  0  0  0  0  0
    1.9120   68.7130   67.0060 C   0  0  0  0  0  0  0  0  0  0  0  0
    3.2220   69.1640   66.8380 C   0  0  0  0  0  0  0  0  0  0  0  0
   -0.0280   67.5060   66.1350 N   0  0  0  0  0  0  0  0  0  0  0  0
   -1.3560   68.5810   66.1850 S   0  0  0  0  0  6  0  0  0  0  0  0
   -1.8090   68.6990   64.8170 O   0  0  0  0  0  0  0  0  0  0  0  0
   -1.0080   69.7500   66.9680 O   0  0  0  0  0  0  0  0  0  0  0  0
   -2.5250   67.6060   67.1040 C   0  0  0  0  0  0  0  0  0  0  0  0
    5.3340   69.3760   65.4130 C   0  0  1  0  0  0  0  0  0  0  0  0
    5.6310   69.6500   64.0360 O   0  0  0  0  0  0  0  0  0  0  0  0
    5.7190   70.6530   66.2040 C   0  0  0  0  0  0  0  0  0  0  0  0
    6.5180   70.2430   67.4190 N   0  0  0  0  0  4  0  0  0  0  0  0
    6.4000   71.1060   68.6320 C   0  0  0  0  0  0  0  0  0  0  0  0
    5.1200   70.7120   69.3620 C   0  0  0  0  0  0  0  0  0  0  0  0
    7.6230   70.9150   69.5210 C   0  0  0  0  0  0  0  0  0  0  0  0
    3.6053   68.4920   63.5097 H   0  0  0  0  0  0  0  0  0  0  0  0
    1.2805   67.6542   63.8248 H   0  0  0  0  0  0  0  0  0  0  0  0
    1.4219   68.7957   67.9873 H   0  0  0  0  0  0  0  0  0  0  0  0
    3.7572   69.6109   67.6888 H   0  0  0  0  0  0  0  0  0  0  0  0
   -0.1230   66.4862   66.2436 H   0  0  0  0  0  0  0  0  0  0  0  0
   -2.3544   67.7483   68.1813 H   0  0  0  0  0  0  0  0  0  0  0  0
   -3.5471   67.9230   66.8496 H   0  0  0  0  0  0  0  0  0  0  0  0
   -2.3966   66.5436   66.8496 H   0  0  0  0  0  0  0  0  0  0  0  0
    5.8954   68.5018   65.7744 H   0  0  0  0  0  0  0  0  0  0  0  0
    6.3576   70.3203   63.9822 H   0  0  0  0  0  0  0  0  0  0  0  0
    6.3249   71.3148   65.5677 H   0  0  0  0  0  0  0  0  0  0  0  0
    4.8114   71.1914   66.5144 H   0  0  0  0  0  0  0  0  0  0  0  0
    6.2172   69.2939   67.6827 H   0  0  0  0  0  0  0  0  0  0  0  0
    7.5034   70.3221   67.1298 H   0  0  0  0  0  0  0  0  0  0  0  0
    6.3532   72.1697   68.3558 H   0  0  0  0  0  0  0  0  0  0  0  0
    5.2867   70.7633   70.4481 H   0  0  0  0  0  0  0  0  0  0  0  0
    4.3109   71.4027   69.0822 H   0  0  0  0  0  0  0  0  0  0  0  0
    4.8393   69.6859   69.0822 H   0  0  0  0  0  0  0  0  0  0  0  0
    7.3195   70.9624   70.5772 H   0  0  0  0  0  0  0  0  0  0  0  0
    8.0775   69.9350   69.3137 H   0  0  0  0  0  0  0  0  0  0  0  0
    8.3547   71.7098   69.3137 H   0  0  0  0  0  0  0  0  0  0  0  0
  2  1  2  0
  3  2  1  0
  4  3  2  0
  5  4  1  0
  6  5  2  0
  6  1  1  0
  7  4  1  0
  8  7  1  0
  9  8  2  0
 10  8  2  0
 11  8  1  0
 12  1  1  0
 13 12  1  0
 14 12  1  0
 15 14  1  0
 16 15  1  0
 17 16  1  0
 18 16  1  0
  2 19  1  0
  3 20  1  0
  5 21  1  0
  6 22  1  0
  7 23  1  0
 11 24  1  0
 11 25  1  0
 11 26  1  0
 12 27  1  1
 13 28  1  0
 14 29  1  0
 14 30  1  0
 15 31  1  0
 15 32  1  0
 16 33  1  0
 17 34  1  0
 17 35  1  0
 17 36  1  0
 18 37  1  0
 18 38  1  0
 18 39  1  0
M  CHG  1  15   1
M  END
>  <score>  (3) 
-8.119

$$$$
=
     RDKit          3D

 39 39  0  0  0  0  0  0  0  0999 V2000
    3.8140   68.0050   63.8630 C   0  0  0  0  0  0  0  0  0  0  0  0
    3.6910   66.7610   64.5050 C   0  0  0  0  0  0  0  0  0  0  0  0
    2.4860   66.3860   65.1030 C   0  0  0  0  0  0  0  0  0  0  0  0
    1.3860   67.2370   65.0400 C   0  0  0  0  0  0  0  0  0  0  0  0
    1.4740   68.4520   64.3650 C   0  0  0  0  0  0  0  0  0  0  0  0
    2.6800   68.8320   63.7740 C   0  0  0  0  0  0  0  0  0  0  0  0
    0.2290   66.9340   65.8220 N   0  0  0  0  0  0  0  0  0  0  0  0
   -0.0450   68.0420   67.0950 S   0  0  0  0  0  6  0  0  0  0  0  0
   -1.1860   68.8300   66.6830 O   0  0  0  0  0  0  0  0  0  0  0  0
    1.2060   68.6680   67.4740 O   0  0  0  0  0  0  0  0  0  0  0  0
   -0.5420   66.9290   68.3890 C   0  0  0  0  0  0  0  0  0  0  0  0
    5.1790   68.4550   63.3810 C   0  0  1  0  0  0  0  0  0  0  0  0
    5.1430   68.7800   61.9850 O   0  0  0  0  0  0  0  0  0  0  0  0
    5.6270   69.7430   64.1180 C   0  0  0  0  0  0  0  0  0  0  0  0
    6.0120   69.3780   65.5330 N   0  0  0  0  0  4  0  0  0  0  0  0
    5.6360   70.3420   66.6090 C   0  0  0  0  0  0  0  0  0  0  0  0
    4.3300   69.8590   67.2330 C   0  0  0  0  0  0  0  0  0  0  0  0
    6.7480   70.4170   67.6470 C   0  0  0  0  0  0  0  0  0  0  0  0
    4.5515   66.0765   64.5368 H   0  0  0  0  0  0  0  0  0  0  0  0
    2.4061   65.4199   65.6229 H   0  0  0  0  0  0  0  0  0  0  0  0
    0.5954   69.1104   64.2978 H   0  0  0  0  0  0  0  0  0  0  0  0
    2.7441   69.7878   63.2333 H   0  0  0  0  0  0  0  0  0  0  0  0
   -0.3815   66.1254   65.6365 H   0  0  0  0  0  0  0  0  0  0  0  0
   -0.3367   67.3887   69.3670 H   0  0  0  0  0  0  0  0  0  0  0  0
   -1.6185   66.7210   68.3003 H   0  0  0  0  0  0  0  0  0  0  0  0
    0.0217   65.9886   68.3003 H   0  0  0  0  0  0  0  0  0  0  0  0
    5.8735   67.6250   63.5777 H   0  0  0  0  0  0  0  0  0  0  0  0
    5.0347   69.7581   61.8766 H   0  0  0  0  0  0  0  0  0  0  0  0
    6.4915   70.1846   63.6007 H   0  0  0  0  0  0  0  0  0  0  0  0
    4.8064   70.4755   64.1283 H   0  0  0  0  0  0  0  0  0  0  0  0
    5.5651   68.4766   65.7537 H   0  0  0  0  0  0  0  0  0  0  0  0
    7.0419   69.3647   65.5344 H   0  0  0  0  0  0  0  0  0  0  0  0
    5.4963   71.3533   66.1995 H   0  0  0  0  0  0  0  0  0  0  0  0
    4.4140   69.8900   68.3294 H   0  0  0  0  0  0  0  0  0  0  0  0
    3.5057   70.5118   66.9097 H   0  0  0  0  0  0  0  0  0  0  0  0
    4.1288   68.8270   66.9097 H   0  0  0  0  0  0  0  0  0  0  0  0
    6.3105   70.3875   68.6558 H   0  0  0  0  0  0  0  0  0  0  0  0
    7.4288   69.5627   67.5174 H   0  0  0  0  0  0  0  0  0  0  0  0
    7.3079   71.3549   67.5174 H   0  0  0  0  0  0  0  0  0  0  0  0
  2  1  2  0
  3  2  1  0
  4  3  2  0
  5  4  1  0
  6  5  2  0
  6  1  1  0
  7  4  1  0
  8  7  1  0
  9  8  2  0
 10  8  2  0
 11  8  1  0
 12  1  1  0
 13 12  1  0
 14 12  1  0
 15 14  1  0
 16 15  1  0
 17 16  1  0
 18 16  1  0
  2 19  1  0
  3 20  1  0
  5 21  1  0
  6 22  1  0
  7 23  1  0
 11 24  1  0
 11 25  1  0
 11 26  1  0
 12 27  1  6
 13 28  1  0
 14 29  1  0
 14 30  1  0
 15 31  1  0
 15 32  1  0
 16 33  1  0
 17 34  1  0
 17 35  1  0
 17 36  1  0
 18 37  1  0
 18 38  1  0
 18 39  1  0
M  CHG  1  15   1
M  END
>  <score>  (4) 
-7.655

$$$$
=
     RDKit          3D

 39 39  0  0  0  0  0  0  0  0999 V2000
    3.7410   69.2890   65.8450 C   0  0  0  0  0  0  0  0  0  0  0  0
    3.5540   69.4730   67.2260 C   0  0  0  0  0  0  0  0  0  0  0  0
    2.2870   69.3360   67.7960 C   0  0  0  0  0  0  0  0  0  0  0  0
    1.2020   68.9840   66.9990 C   0  0  0  0  0  0  0  0  0  0  0  0
    1.3760   68.7480   65.6370 C   0  0  0  0  0  0  0  0  0  0  0  0
    2.6400   68.8930   65.0640 C   0  0  0  0  0  0  0  0  0  0  0  0
   -0.1140   69.0430   67.5530 N   0  0  0  0  0  0  0  0  0  0  0  0
   -1.1450   67.7950   67.0020 S   0  0  0  0  0  6  0  0  0  0  0  0
   -1.9750   67.4520   68.1350 O   0  0  0  0  0  0  0  0  0  0  0  0
   -0.3650   66.7910   66.3070 O   0  0  0  0  0  0  0  0  0  0  0  0
   -2.1210   68.6850   65.8120 C   0  0  0  0  0  0  0  0  0  0  0  0
    5.0870   69.6170   65.2320 C   0  0  1  0  0  0  0  0  0  0  0  0
    6.0430   69.9460   66.2490 O   0  0  0  0  0  0  0  0  0  0  0  0
    5.6600   68.3930   64.4730 C   0  0  0  0  0  0  0  0  0  0  0  0
    5.5630   68.6580   62.9890 N   0  0  0  0  0  4  0  0  0  0  0  0
    4.8080   67.6630   62.1700 C   0  0  0  0  0  0  0  0  0  0  0  0
    4.4800   66.4740   63.0660 C   0  0  0  0  0  0  0  0  0  0  0  0
    3.5410   68.3050   61.6190 C   0  0  0  0  0  0  0  0  0  0  0  0
    4.4138   69.7272   67.8633 H   0  0  0  0  0  0  0  0  0  0  0  0
    2.1466   69.5061   68.8737 H   0  0  0  0  0  0  0  0  0  0  0  0
    0.5195   68.4483   65.0152 H   0  0  0  0  0  0  0  0  0  0  0  0
    2.7769   68.6956   63.9906 H   0  0  0  0  0  0  0  0  0  0  0  0
   -0.4130   69.7682   68.2206 H   0  0  0  0  0  0  0  0  0  0  0  0
   -2.8352   69.3363   66.3371 H   0  0  0  0  0  0  0  0  0  0  0  0
   -1.4607   69.2983   65.1813 H   0  0  0  0  0  0  0  0  0  0  0  0
   -2.6710   67.9710   65.1813 H   0  0  0  0  0  0  0  0  0  0  0  0
    4.9256   70.4652   64.5504 H   0  0  0  0  0  0  0  0  0  0  0  0
    5.6371   69.8063   67.1411 H   0  0  0  0  0  0  0  0  0  0  0  0
    6.7126   68.2418   64.7545 H   0  0  0  0  0  0  0  0  0  0  0  0
    5.0889   67.4892   64.7316 H   0  0  0  0  0  0  0  0  0  0  0  0
    5.1056   69.5726   62.8660 H   0  0  0  0  0  0  0  0  0  0  0  0
    6.5324   68.6072   62.6445 H   0  0  0  0  0  0  0  0  0  0  0  0
    5.4072   67.3224   61.3127 H   0  0  0  0  0  0  0  0  0  0  0  0
    4.5632   66.7756   64.1206 H   0  0  0  0  0  0  0  0  0  0  0  0
    3.4543   66.1331   62.8620 H   0  0  0  0  0  0  0  0  0  0  0  0
    5.1859   65.6554   62.8620 H   0  0  0  0  0  0  0  0  0  0  0  0
    2.9015   68.6290   62.4533 H   0  0  0  0  0  0  0  0  0  0  0  0
    3.8093   69.1759   61.0029 H   0  0  0  0  0  0  0  0  0  0  0  0
    2.9974   67.5736   61.0029 H   0  0  0  0  0  0  0  0  0  0  0  0
  2  1  2  0
  3  2  1  0
  4  3  2  0
  5  4  1  0
  6  5  2  0
  6  1  1  0
  7  4  1  0
  8  7  1  0
  9  8  2  0
 10  8  2  0
 11  8  1  0
 12  1  1  0
 13 12  1  0
 14 12  1  0
 15 14  1  0
 16 15  1  0
 17 16  1  0
 18 16  1  0
  2 19  1  0
  3 20  1  0
  5 21  1  0
  6 22  1  0
  7 23  1  0
 11 24  1  0
 11 25  1  0
 11 26  1  0
 12 27  1  6
 13 28  1  0
 14 29  1  0
 14 30  1  0
 15 31  1  0
 15 32  1  0
 16 33  1  0
 17 34  1  0
 17 35  1  0
 17 36  1  0
 18 37  1  0
 18 38  1  0
 18 39  1  0
M  CHG  1  15   1
M  END
>  <score>  (5) 
-7.62

$$$$
=
     RDKit          3D

 39 39  0  0  0  0  0  0  0  0999 V2000
    2.2230   68.9750   66.1980 C   0  0  0  0  0  0  0  0  0  0  0  0
    3.5680   69.1920   65.8510 C   0  0  0  0  0  0  0  0  0  0  0  0
    4.4710   69.6930   66.7900 C   0  0  0  0  0  0  0  0  0  0  0  0
    4.0490   69.9540   68.0900 C   0  0  0  0  0  0  0  0  0  0  0  0
    2.7320   69.6980   68.4660 C   0  0  0  0  0  0  0  0  0  0  0  0
    1.8250   69.2050   67.5270 C   0  0  0  0  0  0  0  0  0  0  0  0
    4.9250   70.6500   68.9780 N   0  0  0  0  0  0  0  0  0  0  0  0
    6.3720   71.1790   68.2370 S   0  0  0  0  0  6  0  0  0  0  0  0
    6.1590   72.5760   67.9300 O   0  0  0  0  0  0  0  0  0  0  0  0
    6.7680   70.2330   67.2130 O   0  0  0  0  0  0  0  0  0  0  0  0
    7.5010   71.0470   69.6040 C   0  0  0  0  0  0  0  0  0  0  0  0
    1.2320   68.6000   65.1140 C   0  0  1  0  0  0  0  0  0  0  0  0
    1.5790   67.3420   64.5200 O   0  0  0  0  0  0  0  0  0  0  0  0
   -0.1910   68.4260   65.7040 C   0  0  0  0  0  0  0  0  0  0  0  0
   -0.3190   67.0200   66.2430 N   0  0  0  0  0  4  0  0  0  0  0  0
   -1.4050   66.7710   67.2380 C   0  0  0  0  0  0  0  0  0  0  0  0
   -0.7660   66.7120   68.6210 C   0  0  0  0  0  0  0  0  0  0  0  0
   -2.4430   67.8820   67.1560 C   0  0  0  0  0  0  0  0  0  0  0  0
    3.9116   68.9651   64.8310 H   0  0  0  0  0  0  0  0  0  0  0  0
    5.5159   69.8814   66.5024 H   0  0  0  0  0  0  0  0  0  0  0  0
    2.4080   69.8841   69.5006 H   0  0  0  0  0  0  0  0  0  0  0  0
    0.7886   68.9942   67.8294 H   0  0  0  0  0  0  0  0  0  0  0  0
    4.7057   70.8173   69.9704 H   0  0  0  0  0  0  0  0  0  0  0  0
    6.9418   71.1124   70.5490 H   0  0  0  0  0  0  0  0  0  0  0  0
    8.0256   70.0814   69.5544 H   0  0  0  0  0  0  0  0  0  0  0  0
    8.2342   71.8655   69.5544 H   0  0  0  0  0  0  0  0  0  0  0  0
    1.2562   69.4101   64.3703 H   0  0  0  0  0  0  0  0  0  0  0  0
    1.7617   66.6797   65.2328 H   0  0  0  0  0  0  0  0  0  0  0  0
   -0.3466   69.1505   66.5170 H   0  0  0  0  0  0  0  0  0  0  0  0
   -0.9461   68.6002   64.9233 H   0  0  0  0  0  0  0  0  0  0  0  0
   -0.4823   66.3938   65.4417 H   0  0  0  0  0  0  0  0  0  0  0  0
    0.5578   66.8495   66.7560 H   0  0  0  0  0  0  0  0  0  0  0  0
   -1.9194   65.8211   67.0307 H   0  0  0  0  0  0  0  0  0  0  0  0
   -1.5491   66.7843   69.3901 H   0  0  0  0  0  0  0  0  0  0  0  0
   -0.2265   65.7602   68.7354 H   0  0  0  0  0  0  0  0  0  0  0  0
   -0.0614   67.5489   68.7354 H   0  0  0  0  0  0  0  0  0  0  0  0
   -2.7311   68.1903   68.1718 H   0  0  0  0  0  0  0  0  0  0  0  0
   -2.0176   68.7423   66.6185 H   0  0  0  0  0  0  0  0  0  0  0  0
   -3.3302   67.5160   66.6185 H   0  0  0  0  0  0  0  0  0  0  0  0
  2  1  2  0
  3  2  1  0
  4  3  2  0
  5  4  1  0
  6  5  2  0
  6  1  1  0
  7  4  1  0
  8  7  1  0
  9  8  2  0
 10  8  2  0
 11  8  1  0
 12  1  1  0
 13 12  1  0
 14 12  1  0
 15 14  1  0
 16 15  1  0
 17 16  1  0
 18 16  1  0
  2 19  1  0
  3 20  1  0
  5 21  1  0
  6 22  1  0
  7 23  1  0
 11 24  1  0
 11 25  1  0
 11 26  1  0
 12 27  1  6
 13 28  1  0
 14 29  1  0
 14 30  1  0
 15 31  1  0
 15 32  1  0
 16 33  1  0
 17 34  1  0
 17 35  1  0
 17 36  1  0
 18 37  1  0
 18 38  1  0
 18 39  1  0
M  CHG  1  15   1
M  END
>  <score>  (6) 
-7.583

$$$$
=
     RDKit          3D

 39 39  0  0  0  0  0  0  0  0999 V2000
    1.9610   68.3800   66.3810 C   0  0  0  0  0  0  0  0  0  0  0  0
    3.1240   68.9730   65.8610 C   0  0  0  0  0  0  0  0  0  0  0  0
    3.9470   69.7540   66.6750 C   0  0  0  0  0  0  0  0  0  0  0  0
    3.6330   69.9260   68.0190 C   0  0  0  0  0  0  0  0  0  0  0  0
    2.5110   69.3050   68.5650 C   0  0  0  0  0  0  0  0  0  0  0  0
    1.6820   68.5310   67.7510 C   0  0  0  0  0  0  0  0  0  0  0  0
    4.3650   70.8830   68.7870 N   0  0  0  0  0  0  0  0  0  0  0  0
    5.9840   71.0770   68.2740 S   0  0  0  0  0  6  0  0  0  0  0  0
    6.1220   72.4800   67.9530 O   0  0  0  0  0  0  0  0  0  0  0  0
    6.3160   70.0470   67.3090 O   0  0  0  0  0  0  0  0  0  0  0  0
    6.8460   70.7370   69.7910 C   0  0  0  0  0  0  0  0  0  0  0  0
    0.9990   67.6880   65.4350 C   0  0  1  0  0  0  0  0  0  0  0  0
   -0.0320   67.0080   66.1650 O   0  0  0  0  0  0  0  0  0  0  0  0
    0.2830   68.7190   64.5250 C   0  0  0  0  0  0  0  0  0  0  0  0
    0.0020   68.0680   63.1910 N   0  0  0  0  0  4  0  0  0  0  0  0
    0.6130   68.7020   61.9840 C   0  0  0  0  0  0  0  0  0  0  0  0
   -0.0180   70.0790   61.8110 C   0  0  0  0  0  0  0  0  0  0  0  0
    2.1220   68.8050   62.1650 C   0  0  0  0  0  0  0  0  0  0  0  0
    3.3882   68.8207   64.8041 H   0  0  0  0  0  0  0  0  0  0  0  0
    4.8431   70.2329   66.2535 H   0  0  0  0  0  0  0  0  0  0  0  0
    2.2795   69.4244   69.6337 H   0  0  0  0  0  0  0  0  0  0  0  0
    0.8019   68.0344   68.1855 H   0  0  0  0  0  0  0  0  0  0  0  0
    3.9562   71.4060   69.5745 H   0  0  0  0  0  0  0  0  0  0  0  0
    6.2005   70.9916   70.6445 H   0  0  0  0  0  0  0  0  0  0  0  0
    7.1059   69.6690   69.8336 H   0  0  0  0  0  0  0  0  0  0  0  0
    7.7650   71.3400   69.8336 H   0  0  0  0  0  0  0  0  0  0  0  0
    1.5951   66.9812   64.8391 H   0  0  0  0  0  0  0  0  0  0  0  0
    0.1273   67.1131   67.1364 H   0  0  0  0  0  0  0  0  0  0  0  0
   -0.6627   69.0319   64.9916 H   0  0  0  0  0  0  0  0  0  0  0  0
    0.9203   69.6046   64.3852 H   0  0  0  0  0  0  0  0  0  0  0  0
    0.3457   67.0983   63.2401 H   0  0  0  0  0  0  0  0  0  0  0  0
   -1.0148   68.1624   63.0566 H   0  0  0  0  0  0  0  0  0  0  0  0
    0.4274   68.0973   61.0841 H   0  0  0  0  0  0  0  0  0  0  0  0
   -0.2188   70.5172   62.7998 H   0  0  0  0  0  0  0  0  0  0  0  0
    0.6713   70.7308   61.2542 H   0  0  0  0  0  0  0  0  0  0  0  0
   -0.9617   69.9825   61.2542 H   0  0  0  0  0  0  0  0  0  0  0  0
    2.3623   68.8214   63.2383 H   0  0  0  0  0  0  0  0  0  0  0  0
    2.6079   67.9379   61.6937 H   0  0  0  0  0  0  0  0  0  0  0  0
    2.4855   69.7300   61.6937 H   0  0  0  0  0  0  0  0  0  0  0  0
  2  1  2  0
  3  2  1  0
  4  3  2  0
  5  4  1  0
  6  5  2  0
  6  1  1  0
  7  4  1  0
  8  7  1  0
  9  8  2  0
 10  8  2  0
 11  8  1  0
 12  1  1  0
 13 12  1  0
 14 12  1  0
 15 14  1  0
 16 15  1  0
 17 16  1  0
 18 16  1  0
  2 19  1  0
  3 20  1  0
  5 21  1  0
  6 22  1  0
  7 23  1  0
 11 24  1  0
 11 25  1  0
 11 26  1  0
 12 27  1  6
 13 28  1  0
 14 29  1  0
 14 30  1  0
 15 31  1  0
 15 32  1  0
 16 33  1  0
 17 34  1  0
 17 35  1  0
 17 36  1  0
 18 37  1  0
 18 38  1  0
 18 39  1  0
M  CHG  1  15   1
M  END
>  <score>  (7) 
-7.393

$$$$
=
     RDKit          3D

 39 39  0  0  0  0  0  0  0  0999 V2000
    1.1380   64.8390   70.5550 C   0  0  0  0  0  0  0  0  0  0  0  0
    2.5250   64.6870   70.3850 C   0  0  0  0  0  0  0  0  0  0  0  0
    3.1580   63.4950   70.7440 C   0  0  0  0  0  0  0  0  0  0  0  0
    2.4090   62.4360   71.2470 C   0  0  0  0  0  0  0  0  0  0  0  0
    1.0260   62.5500   71.3760 C   0  0  0  0  0  0  0  0  0  0  0  0
    0.3930   63.7440   71.0260 C   0  0  0  0  0  0  0  0  0  0  0  0
    3.0880   61.3040   71.7950 N   0  0  0  0  0  0  0  0  0  0  0  0
    3.7740   60.2800   70.6110 S   0  0  0  0  0  6  0  0  0  0  0  0
    5.1990   60.5190   70.6730 O   0  0  0  0  0  0  0  0  0  0  0  0
    3.0410   60.4120   69.3680 O   0  0  0  0  0  0  0  0  0  0  0  0
    3.4190   58.6870   71.3170 C   0  0  0  0  0  0  0  0  0  0  0  0
    0.5110   66.2000   70.3230 C   0  0  1  0  0  0  0  0  0  0  0  0
    1.5030   67.1560   69.9240 O   0  0  0  0  0  0  0  0  0  0  0  0
   -0.5260   66.1390   69.1730 C   0  0  0  0  0  0  0  0  0  0  0  0
    0.0710   66.8020   67.9530 N   0  0  0  0  0  4  0  0  0  0  0  0
   -0.8730   67.5020   67.0300 C   0  0  0  0  0  0  0  0  0  0  0  0
   -2.2930   67.1260   67.4430 C   0  0  0  0  0  0  0  0  0  0  0  0
   -0.6550   69.0070   67.1140 C   0  0  0  0  0  0  0  0  0  0  0  0
    3.1169   65.5139   69.9656 H   0  0  0  0  0  0  0  0  0  0  0  0
    4.2473   63.3936   70.6292 H   0  0  0  0  0  0  0  0  0  0  0  0
    0.4351   61.7019   71.7524 H   0  0  0  0  0  0  0  0  0  0  0  0
   -0.6997   63.8288   71.1197 H   0  0  0  0  0  0  0  0  0  0  0  0
    3.1573   61.1227   72.8066 H   0  0  0  0  0  0  0  0  0  0  0  0
    3.4354   58.7604   72.4144 H   0  0  0  0  0  0  0  0  0  0  0  0
    2.4244   58.3529   70.9867 H   0  0  0  0  0  0  0  0  0  0  0  0
    4.1777   57.9622   70.9867 H   0  0  0  0  0  0  0  0  0  0  0  0
    0.0351   66.4952   71.2698 H   0  0  0  0  0  0  0  0  0  0  0  0
    1.9182   67.5561   70.7287 H   0  0  0  0  0  0  0  0  0  0  0  0
   -0.7660   65.0900   68.9451 H   0  0  0  0  0  0  0  0  0  0  0  0
   -1.4492   66.6581   69.4702 H   0  0  0  0  0  0  0  0  0  0  0  0
    0.7567   67.4968   68.2814 H   0  0  0  0  0  0  0  0  0  0  0  0
    0.4662   66.0307   67.3963 H   0  0  0  0  0  0  0  0  0  0  0  0
   -0.7007   67.1997   65.9865 H   0  0  0  0  0  0  0  0  0  0  0  0
   -2.3629   67.1075   68.5406 H   0  0  0  0  0  0  0  0  0  0  0  0
   -2.9998   67.8679   67.0431 H   0  0  0  0  0  0  0  0  0  0  0  0
   -2.5400   66.1315   67.0431 H   0  0  0  0  0  0  0  0  0  0  0  0
   -0.6107   69.3127   68.1697 H   0  0  0  0  0  0  0  0  0  0  0  0
    0.2905   69.2689   66.6165 H   0  0  0  0  0  0  0  0  0  0  0  0
   -1.4873   69.5264   66.6165 H   0  0  0  0  0  0  0  0  0  0  0  0
  2  1  2  0
  3  2  1  0
  4  3  2  0
  5  4  1  0
  6  5  2  0
  6  1  1  0
  7  4  1  0
  8  7  1  0
  9  8  2  0
 10  8  2  0
 11  8  1  0
 12  1  1  0
 13 12  1  0
 14 12  1  0
 15 14  1  0
 16 15  1  0
 17 16  1  0
 18 16  1  0
  2 19  1  0
  3 20  1  0
  5 21  1  0
  6 22  1  0
  7 23  1  0
 11 24  1  0
 11 25  1  0
 11 26  1  0
 12 27  1  1
 13 28  1  0
 14 29  1  0
 14 30  1  0
 15 31  1  0
 15 32  1  0
 16 33  1  0
 17 34  1  0
 17 35  1  0
 17 36  1  0
 18 37  1  0
 18 38  1  0
 18 39  1  0
M  CHG  1  15   1
M  END
>  <score>  (8) 
-7.356

$$$$
=
     RDKit          3D

 39 39  0  0  0  0  0  0  0  0999 V2000
    3.2640   68.6940   64.0360 C   0  0  0  0  0  0  0  0  0  0  0  0
    3.5040   68.7750   65.4190 C   0  0  0  0  0  0  0  0  0  0  0  0
    2.4410   68.8290   66.3220 C   0  0  0  0  0  0  0  0  0  0  0  0
    1.1300   68.7720   65.8550 C   0  0  0  0  0  0  0  0  0  0  0  0
    0.8740   68.6410   64.4920 C   0  0  0  0  0  0  0  0  0  0  0  0
    1.9350   68.5960   63.5880 C   0  0  0  0  0  0  0  0  0  0  0  0
    0.0580   69.0290   66.7640 N   0  0  0  0  0  0  0  0  0  0  0  0
   -0.7490   67.6150   67.2860 S   0  0  0  0  0  6  0  0  0  0  0  0
   -0.4810   66.6210   66.2710 O   0  0  0  0  0  0  0  0  0  0  0  0
   -2.1050   67.9450   67.6790 O   0  0  0  0  0  0  0  0  0  0  0  0
    0.1900   67.2280   68.7450 C   0  0  0  0  0  0  0  0  0  0  0  0
    4.4310   68.8150   63.0760 C   0  0  1  0  0  0  0  0  0  0  0  0
    5.5700   69.3920   63.7300 O   0  0  0  0  0  0  0  0  0  0  0  0
    4.8780   67.4190   62.5730 C   0  0  0  0  0  0  0  0  0  0  0  0
    4.8630   66.4590   63.7400 N   0  0  0  0  0  4  0  0  0  0  0  0
    4.0830   65.1970   63.5710 C   0  0  0  0  0  0  0  0  0  0  0  0
    5.0310   64.0270   63.8120 C   0  0  0  0  0  0  0  0  0  0  0  0
    2.9180   65.1750   64.5520 C   0  0  0  0  0  0  0  0  0  0  0  0
    4.5384   68.7960   65.7926 H   0  0  0  0  0  0  0  0  0  0  0  0
    2.6383   68.9164   67.4006 H   0  0  0  0  0  0  0  0  0  0  0  0
   -0.1624   68.5732   64.1296 H   0  0  0  0  0  0  0  0  0  0  0  0
    1.7299   68.4826   62.5133 H   0  0  0  0  0  0  0  0  0  0  0  0
   -0.2036   69.9754   67.0750 H   0  0  0  0  0  0  0  0  0  0  0  0
   -0.4033   67.4725   69.6384 H   0  0  0  0  0  0  0  0  0  0  0  0
    0.4349   66.1556   68.7497 H   0  0  0  0  0  0  0  0  0  0  0  0
    1.1194   67.8164   68.7497 H   0  0  0  0  0  0  0  0  0  0  0  0
    4.0900   69.4460   62.2420 H   0  0  0  0  0  0  0  0  0  0  0  0
    5.4524   69.3324   64.7112 H   0  0  0  0  0  0  0  0  0  0  0  0
    4.1858   67.0665   61.7942 H   0  0  0  0  0  0  0  0  0  0  0  0
    5.8910   67.4789   62.1485 H   0  0  0  0  0  0  0  0  0  0  0  0
    5.8390   66.1966   63.9388 H   0  0  0  0  0  0  0  0  0  0  0  0
    4.3865   66.9679   64.4983 H   0  0  0  0  0  0  0  0  0  0  0  0
    3.6629   65.1266   62.5568 H   0  0  0  0  0  0  0  0  0  0  0  0
    5.1558   63.8730   64.8940 H   0  0  0  0  0  0  0  0  0  0  0  0
    4.6127   63.1166   63.3579 H   0  0  0  0  0  0  0  0  0  0  0  0
    6.0083   64.2474   63.3579 H   0  0  0  0  0  0  0  0  0  0  0  0
    3.3054   65.1823   65.5815 H   0  0  0  0  0  0  0  0  0  0  0  0
    2.2867   66.0614   64.3915 H   0  0  0  0  0  0  0  0  0  0  0  0
    2.3206   64.2654   64.3915 H   0  0  0  0  0  0  0  0  0  0  0  0
  2  1  2  0
  3  2  1  0
  4  3  2  0
  5  4  1  0
  6  5  2  0
  6  1  1  0
  7  4  1  0
  8  7  1  0
  9  8  2  0
 10  8  2  0
 11  8  1  0
 12  1  1  0
 13 12  1  0
 14 12  1  0
 15 14  1  0
 16 15  1  0
 17 16  1  0
 18 16  1  0
  2 19  1  0
  3 20  1  0
  5 21  1  0
  6 22  1  0
  7 23  1  0
 11 24  1  0
 11 25  1  0
 11 26  1  0
 12 27  1  6
 13 28  1  0
 14 29  1  0
 14 30  1  0
 15 31  1  0
 15 32  1  0
 16 33  1  0
 17 34  1  0
 17 35  1  0
 17 36  1  0
 18 37  1  0
 18 38  1  0
 18 39  1  0
M  CHG  1  15   1
M  END
>  <score>  (9) 
-7.303

$$$$
