=
     RDKit          3D

 38 39  0  0  0  0  0  0  0  0999 V2000
    4.3780   70.2160   68.1430 C   0  0  0  0  0  0  0  0  0  0  0  0
    3.0060   70.0350   68.3030 C   0  0  0  0  0  0  0  0  0  0  0  0
    2.2500   69.4620   67.2760 C   0  0  0  0  0  0  0  0  0  0  0  0
    2.8530   69.0550   66.0780 C   0  0  0  0  0  0  0  0  0  0  0  0
    4.2330   69.2520   65.9040 C   0  0  0  0  0  0  0  0  0  0  0  0
    4.9800   69.8210   66.9460 C   0  0  0  0  0  0  0  0  0  0  0  0
    4.9480   68.8150   64.6490 C   0  0  0  0  0  0  0  0  0  0  0  0
    4.0100   68.4890   63.4870 C   0  0  0  0  0  0  0  0  0  0  0  0
    2.7930   67.6780   63.9340 C   0  0  2  0  0  0  0  0  0  0  0  0
    1.9910   68.4710   64.9820 C   0  0  0  0  0  0  0  0  0  0  0  0
    3.1910   66.3590   64.4270 N   0  0  0  0  0  0  0  0  0  0  0  0
    3.9360   65.5180   63.6370 C   0  0  0  0  0  0  0  0  0  0  0  0
    4.3320   65.8480   62.5220 O   0  0  0  0  0  0  0  0  0  0  0  0
    4.1950   64.2760   64.2010 N   0  0  0  0  0  0  0  0  0  0  0  0
    4.1850   64.0170   65.6350 C   0  0  0  0  0  0  0  0  0  0  0  0
    4.9620   63.3360   63.4020 C   0  0  0  0  0  0  0  0  0  0  0  0
    6.5700   70.9880   68.6390 C   0  0  0  0  0  0  0  0  0  0  0  0
    5.2330   70.7570   69.0630 O   0  0  0  0  0  0  0  0  0  0  0  0
    2.5168   70.3434   69.2387 H   0  0  0  0  0  0  0  0  0  0  0  0
    1.1664   69.3287   67.4101 H   0  0  0  0  0  0  0  0  0  0  0  0
    6.0637   69.9592   66.8177 H   0  0  0  0  0  0  0  0  0  0  0  0
    5.6222   69.6251   64.3339 H   0  0  0  0  0  0  0  0  0  0  0  0
    5.4888   67.8890   64.8940 H   0  0  0  0  0  0  0  0  0  0  0  0
    3.6620   69.4311   63.0382 H   0  0  0  0  0  0  0  0  0  0  0  0
    4.5712   67.8818   62.7615 H   0  0  0  0  0  0  0  0  0  0  0  0
    2.1389   67.5058   63.0665 H   0  0  0  0  0  0  0  0  0  0  0  0
    1.4688   69.2942   64.4724 H   0  0  0  0  0  0  0  0  0  0  0  0
    1.2914   67.7678   65.4575 H   0  0  0  0  0  0  0  0  0  0  0  0
    2.9109   66.0595   65.3719 H   0  0  0  0  0  0  0  0  0  0  0  0
    4.2219   64.9716   66.1803 H   0  0  0  0  0  0  0  0  0  0  0  0
    3.2653   63.4766   65.9036 H   0  0  0  0  0  0  0  0  0  0  0  0
    5.0603   63.4073   65.9036 H   0  0  0  0  0  0  0  0  0  0  0  0
    5.5162   62.6568   64.0665 H   0  0  0  0  0  0  0  0  0  0  0  0
    4.2794   62.7519   62.7673 H   0  0  0  0  0  0  0  0  0  0  0  0
    5.6712   63.8875   62.7673 H   0  0  0  0  0  0  0  0  0  0  0  0
    7.2197   71.1002   69.5195 H   0  0  0  0  0  0  0  0  0  0  0  0
    6.9154   70.1362   68.0347 H   0  0  0  0  0  0  0  0  0  0  0  0
    6.6095   71.9063   68.0347 H   0  0  0  0  0  0  0  0  0  0  0  0
  2  1  2  0
  3  2  1  0
  4  3  2  0
  5  4  1  0
  6  5  2  0
  6  1  1  0
  7  5  1  0
  8  7  1  0
  9  8  1  0
 10  9  1  0
 10  4  1  0
 11  9  1  0
 12 11  1  0
 13 12  2  0
 14 12  1  0
 15 14  1  0
 16 14  1  0
 18  1  1  0
 18 17  1  0
  2 19  1  0
  3 20  1  0
  6 21  1  0
  7 22  1  0
  7 23  1  0
  8 24  1  0
  8 25  1  0
  9 26  1  6
 10 27  1  0
 10 28  1  0
 11 29  1  0
 15 30  1  0
 15 31  1  0
 15 32  1  0
 16 33  1  0
 16 34  1  0
 16 35  1  0
 17 36  1  0
 17 37  1  0
 17 38  1  0
M  END
>  <score>  (1) 
-9.105

$$$$
=
     RDKit          3D

 38 39  0  0  0  0  0  0  0  0999 V2000
    4.7740   68.7200   64.9750 C   0  0  0  0  0  0  0  0  0  0  0  0
    4.9030   69.6790   65.9780 C   0  0  0  0  0  0  0  0  0  0  0  0
    3.8910   69.8370   66.9300 C   0  0  0  0  0  0  0  0  0  0  0  0
    2.7420   69.0360   66.8990 C   0  0  0  0  0  0  0  0  0  0  0  0
    2.5980   68.0810   65.8790 C   0  0  0  0  0  0  0  0  0  0  0  0
    3.6250   67.9280   64.9350 C   0  0  0  0  0  0  0  0  0  0  0  0
    1.3970   67.1710   65.8030 C   0  0  0  0  0  0  0  0  0  0  0  0
    0.2290   67.6170   66.6820 C   0  0  0  0  0  0  0  0  0  0  0  0
    0.6880   68.0770   68.0670 C   0  0  2  0  0  0  0  0  0  0  0  0
    1.6580   69.2650   67.9290 C   0  0  0  0  0  0  0  0  0  0  0  0
    1.2760   66.9700   68.8220 N   0  0  0  0  0  0  0  0  0  0  0  0
    0.5130   66.2510   69.7080 C   0  0  0  0  0  0  0  0  0  0  0  0
   -0.6840   66.4700   69.8690 O   0  0  0  0  0  0  0  0  0  0  0  0
    1.2070   65.2680   70.4010 N   0  0  0  0  0  0  0  0  0  0  0  0
    2.4400   64.6550   69.9240 C   0  0  0  0  0  0  0  0  0  0  0  0
    0.4550   64.4880   71.3690 C   0  0  0  0  0  0  0  0  0  0  0  0
    5.4640   69.0800   62.7300 C   0  0  0  0  0  0  0  0  0  0  0  0
    5.6850   68.4580   63.9890 O   0  0  0  0  0  0  0  0  0  0  0  0
    5.8015   70.3121   66.0208 H   0  0  0  0  0  0  0  0  0  0  0  0
    3.9986   70.6009   67.7142 H   0  0  0  0  0  0  0  0  0  0  0  0
    3.5225   67.1678   64.1466 H   0  0  0  0  0  0  0  0  0  0  0  0
    1.0524   67.1378   64.7589 H   0  0  0  0  0  0  0  0  0  0  0  0
    1.7177   66.1855   66.1718 H   0  0  0  0  0  0  0  0  0  0  0  0
   -0.2890   68.4510   66.1858 H   0  0  0  0  0  0  0  0  0  0  0  0
   -0.4389   66.7536   66.8181 H   0  0  0  0  0  0  0  0  0  0  0  0
   -0.1869   68.4186   68.6397 H   0  0  0  0  0  0  0  0  0  0  0  0
    1.0810   70.1547   67.6367 H   0  0  0  0  0  0  0  0  0  0  0  0
    2.1550   69.3944   68.9017 H   0  0  0  0  0  0  0  0  0  0  0  0
    2.2683   66.7289   68.6878 H   0  0  0  0  0  0  0  0  0  0  0  0
    3.0542   64.3496   70.7839 H   0  0  0  0  0  0  0  0  0  0  0  0
    2.1984   63.7721   69.3140 H   0  0  0  0  0  0  0  0  0  0  0  0
    2.9981   65.3806   69.3140 H   0  0  0  0  0  0  0  0  0  0  0  0
    0.7448   64.7886   72.3867 H   0  0  0  0  0  0  0  0  0  0  0  0
   -0.6212   64.6658   71.2266 H   0  0  0  0  0  0  0  0  0  0  0  0
    0.6720   63.4191   71.2266 H   0  0  0  0  0  0  0  0  0  0  0  0
    5.0995   70.1059   62.8868 H   0  0  0  0  0  0  0  0  0  0  0  0
    6.4071   69.1084   62.1645 H   0  0  0  0  0  0  0  0  0  0  0  0
    4.7144   68.5070   62.1645 H   0  0  0  0  0  0  0  0  0  0  0  0
  2  1  2  0
  3  2  1  0
  4  3  2  0
  5  4  1  0
  6  5  2  0
  6  1  1  0
  7  5  1  0
  8  7  1  0
  9  8  1  0
 10  9  1  0
 10  4  1  0
 11  9  1  0
 12 11  1  0
 13 12  2  0
 14 12  1  0
 15 14  1  0
 16 14  1  0
 18  1  1  0
 18 17  1  0
  2 19  1  0
  3 20  1  0
  6 21  1  0
  7 22  1  0
  7 23  1  0
  8 24  1  0
  8 25  1  0
  9 26  1  1
 10 27  1  0
 10 28  1  0
 11 29  1  0
 15 30  1  0
 15 31  1  0
 15 32  1  0
 16 33  1  0
 16 34  1  0
 16 35  1  0
 17 36  1  0
 17 37  1  0
 17 38  1  0
M  END
>  <score>  (2) 
-8.212

$$$$
=
     RDKit          3D

 38 39  0  0  0  0  0  0  0  0999 V2000
    2.6310   63.0270   70.0670 C   0  0  0  0  0  0  0  0  0  0  0  0
    2.7300   61.9920   69.1400 C   0  0  0  0  0  0  0  0  0  0  0  0
    3.0280   60.6950   69.5680 C   0  0  0  0  0  0  0  0  0  0  0  0
    3.2220   60.4110   70.9270 C   0  0  0  0  0  0  0  0  0  0  0  0
    3.1420   61.4550   71.8640 C   0  0  0  0  0  0  0  0  0  0  0  0
    2.8350   62.7500   71.4210 C   0  0  0  0  0  0  0  0  0  0  0  0
    3.3170   61.2130   73.3430 C   0  0  0  0  0  0  0  0  0  0  0  0
    3.9300   59.8540   73.6770 C   0  0  0  0  0  0  0  0  0  0  0  0
    3.3320   58.7250   72.8360 C   0  0  2  0  0  0  0  0  0  0  0  0
    3.5750   59.0000   71.3410 C   0  0  0  0  0  0  0  0  0  0  0  0
    1.9120   58.5390   73.1380 N   0  0  0  0  0  0  0  0  0  0  0  0
    1.4100   57.2830   73.3740 C   0  0  0  0  0  0  0  0  0  0  0  0
    2.1250   56.2840   73.3850 O   0  0  0  0  0  0  0  0  0  0  0  0
    0.0390   57.2400   73.5880 N   0  0  0  0  0  0  0  0  0  0  0  0
   -0.7450   58.3750   74.0580 C   0  0  0  0  0  0  0  0  0  0  0  0
   -0.5520   55.9340   73.8220 C   0  0  0  0  0  0  0  0  0  0  0  0
    1.2990   64.9370   70.5430 C   0  0  0  0  0  0  0  0  0  0  0  0
    2.3430   64.3350   69.7880 O   0  0  0  0  0  0  0  0  0  0  0  0
    2.5736   62.1954   68.0704 H   0  0  0  0  0  0  0  0  0  0  0  0
    3.1115   59.8856   68.8278 H   0  0  0  0  0  0  0  0  0  0  0  0
    2.7531   63.5648   72.1554 H   0  0  0  0  0  0  0  0  0  0  0  0
    3.9726   61.9981   73.7477 H   0  0  0  0  0  0  0  0  0  0  0  0
    2.3128   61.2305   73.7916 H   0  0  0  0  0  0  0  0  0  0  0  0
    5.0131   59.8989   73.4900 H   0  0  0  0  0  0  0  0  0  0  0  0
    3.7134   59.6376   74.7335 H   0  0  0  0  0  0  0  0  0  0  0  0
    3.8355   57.7814   73.0929 H   0  0  0  0  0  0  0  0  0  0  0  0
    4.6394   58.8282   71.1229 H   0  0  0  0  0  0  0  0  0  0  0  0
    2.9208   58.3210   70.7744 H   0  0  0  0  0  0  0  0  0  0  0  0
    1.2852   59.3556   73.1737 H   0  0  0  0  0  0  0  0  0  0  0  0
   -0.7522   58.3854   75.1579 H   0  0  0  0  0  0  0  0  0  0  0  0
   -0.2983   59.3086   73.6854 H   0  0  0  0  0  0  0  0  0  0  0  0
   -1.7763   58.2877   73.6854 H   0  0  0  0  0  0  0  0  0  0  0  0
   -0.6323   55.7565   74.9046 H   0  0  0  0  0  0  0  0  0  0  0  0
   -1.5539   55.8985   73.3693 H   0  0  0  0  0  0  0  0  0  0  0  0
    0.0826   55.1579   73.3693 H   0  0  0  0  0  0  0  0  0  0  0  0
    1.5068   64.8172   71.6165 H   0  0  0  0  0  0  0  0  0  0  0  0
    1.2400   66.0078   70.2982 H   0  0  0  0  0  0  0  0  0  0  0  0
    0.3427   64.4517   70.2982 H   0  0  0  0  0  0  0  0  0  0  0  0
  2  1  2  0
  3  2  1  0
  4  3  2  0
  5  4  1  0
  6  5  2  0
  6  1  1  0
  7  5  1  0
  8  7  1  0
  9  8  1  0
 10  9  1  0
 10  4  1  0
 11  9  1  0
 12 11  1  0
 13 12  2  0
 14 12  1  0
 15 14  1  0
 16 14  1  0
 18  1  1  0
 18 17  1  0
  2 19  1  0
  3 20  1  0
  6 21  1  0
  7 22  1  0
  7 23  1  0
  8 24  1  0
  8 25  1  0
  9 26  1  1
 10 27  1  0
 10 28  1  0
 11 29  1  0
 15 30  1  0
 15 31  1  0
 15 32  1  0
 16 33  1  0
 16 34  1  0
 16 35  1  0
 17 36  1  0
 17 37  1  0
 17 38  1  0
M  END
>  <score>  (3) 
-7.348

$$$$
=
     RDKit          3D

 38 39  0  0  0  0  0  0  0  0999 V2000
    4.9150   70.4650   67.0890 C   0  0  0  0  0  0  0  0  0  0  0  0
    5.6090   70.0950   65.9390 C   0  0  0  0  0  0  0  0  0  0  0  0
    5.1030   69.0900   65.1090 C   0  0  0  0  0  0  0  0  0  0  0  0
    3.8950   68.4460   65.4100 C   0  0  0  0  0  0  0  0  0  0  0  0
    3.2010   68.8010   66.5790 C   0  0  0  0  0  0  0  0  0  0  0  0
    3.7160   69.8170   67.3980 C   0  0  0  0  0  0  0  0  0  0  0  0
    1.8850   68.1650   66.9480 C   0  0  0  0  0  0  0  0  0  0  0  0
    1.5740   66.8910   66.1630 C   0  0  0  0  0  0  0  0  0  0  0  0
    1.9070   67.0300   64.6770 C   0  0  2  0  0  0  0  0  0  0  0  0
    3.4040   67.3420   64.5020 C   0  0  0  0  0  0  0  0  0  0  0  0
    1.0560   68.0360   64.0390 N   0  0  0  0  0  0  0  0  0  0  0  0
    1.3000   68.4360   62.7490 C   0  0  0  0  0  0  0  0  0  0  0  0
    2.1970   67.9430   62.0700 O   0  0  0  0  0  0  0  0  0  0  0  0
    0.4570   69.4370   62.2860 N   0  0  0  0  0  0  0  0  0  0  0  0
   -0.8690   69.6980   62.8300 C   0  0  0  0  0  0  0  0  0  0  0  0
    0.6820   69.9150   60.9330 C   0  0  0  0  0  0  0  0  0  0  0  0
    6.5960   71.3190   68.5360 C   0  0  0  0  0  0  0  0  0  0  0  0
    5.2910   71.4300   67.9820 O   0  0  0  0  0  0  0  0  0  0  0  0
    6.5556   70.5938   65.6839 H   0  0  0  0  0  0  0  0  0  0  0  0
    5.6612   68.8005   64.2065 H   0  0  0  0  0  0  0  0  0  0  0  0
    3.1639   70.1100   68.3032 H   0  0  0  0  0  0  0  0  0  0  0  0
    1.9087   67.9153   68.0190 H   0  0  0  0  0  0  0  0  0  0  0  0
    1.0975   68.8928   66.7027 H   0  0  0  0  0  0  0  0  0  0  0  0
    2.1654   66.0637   66.5823 H   0  0  0  0  0  0  0  0  0  0  0  0
    0.4947   66.6970   66.2496 H   0  0  0  0  0  0  0  0  0  0  0  0
    1.6995   66.0749   64.1722 H   0  0  0  0  0  0  0  0  0  0  0  0
    3.9785   66.4296   64.7196 H   0  0  0  0  0  0  0  0  0  0  0  0
    3.5464   67.6845   63.4664 H   0  0  0  0  0  0  0  0  0  0  0  0
    0.2690   68.4463   64.5617 H   0  0  0  0  0  0  0  0  0  0  0  0
   -0.8228   69.6889   63.9290 H   0  0  0  0  0  0  0  0  0  0  0  0
   -1.2193   70.6823   62.4859 H   0  0  0  0  0  0  0  0  0  0  0  0
   -1.5662   68.9199   62.4859 H   0  0  0  0  0  0  0  0  0  0  0  0
    1.1502   70.9097   60.9687 H   0  0  0  0  0  0  0  0  0  0  0  0
    1.3457   69.2161   60.4028 H   0  0  0  0  0  0  0  0  0  0  0  0
   -0.2795   69.9811   60.4028 H   0  0  0  0  0  0  0  0  0  0  0  0
    6.5299   71.3246   69.6340 H   0  0  0  0  0  0  0  0  0  0  0  0
    7.0577   70.3783   68.2013 H   0  0  0  0  0  0  0  0  0  0  0  0
    7.2099   72.1682   68.2013 H   0  0  0  0  0  0  0  0  0  0  0  0
  2  1  2  0
  3  2  1  0
  4  3  2  0
  5  4  1  0
  6  5  2  0
  6  1  1  0
  7  5  1  0
  8  7  1  0
  9  8  1  0
 10  9  1  0
 10  4  1  0
 11  9  1  0
 12 11  1  0
 13 12  2  0
 14 12  1  0
 15 14  1  0
 16 14  1  0
 18  1  1  0
 18 17  1  0
  2 19  1  0
  3 20  1  0
  6 21  1  0
  7 22  1  0
  7 23  1  0
  8 24  1  0
  8 25  1  0
  9 26  1  6
 10 27  1  0
 10 28  1  0
 11 29  1  0
 15 30  1  0
 15 31  1  0
 15 32  1  0
 16 33  1  0
 16 34  1  0
 16 35  1  0
 17 36  1  0
 17 37  1  0
 17 38  1  0
M  END
>  <score>  (4) 
-7.29

$$$$
=
     RDKit          3D

 38 39  0  0  0  0  0  0  0  0999 V2000
    5.0450   70.6240   67.7060 C   0  0  0  0  0  0  0  0  0  0  0  0
    4.2230   71.1860   68.6800 C   0  0  0  0  0  0  0  0  0  0  0  0
    2.9180   70.7150   68.8520 C   0  0  0  0  0  0  0  0  0  0  0  0
    2.4180   69.6720   68.0600 C   0  0  0  0  0  0  0  0  0  0  0  0
    3.2360   69.1140   67.0640 C   0  0  0  0  0  0  0  0  0  0  0  0
    4.5470   69.5910   66.9080 C   0  0  0  0  0  0  0  0  0  0  0  0
    2.7680   67.9730   66.1950 C   0  0  0  0  0  0  0  0  0  0  0  0
    1.2590   67.7390   66.2460 C   0  0  0  0  0  0  0  0  0  0  0  0
    0.7060   67.8240   67.6700 C   0  0  2  0  0  0  0  0  0  0  0  0
    0.9900   69.2180   68.2590 C   0  0  0  0  0  0  0  0  0  0  0  0
    1.2430   66.7510   68.5080 N   0  0  0  0  0  0  0  0  0  0  0  0
    0.4850   66.2120   69.5170 C   0  0  0  0  0  0  0  0  0  0  0  0
   -0.6730   66.5670   69.7270 O   0  0  0  0  0  0  0  0  0  0  0  0
    1.1340   65.2450   70.2730 N   0  0  0  0  0  0  0  0  0  0  0  0
    2.2660   64.4640   69.7930 C   0  0  0  0  0  0  0  0  0  0  0  0
    0.3860   64.6530   71.3690 C   0  0  0  0  0  0  0  0  0  0  0  0
    7.1860   71.2120   68.5530 C   0  0  0  0  0  0  0  0  0  0  0  0
    6.3370   70.9830   67.4360 O   0  0  0  0  0  0  0  0  0  0  0  0
    4.6010   72.0012   69.3145 H   0  0  0  0  0  0  0  0  0  0  0  0
    2.2744   71.1693   69.6197 H   0  0  0  0  0  0  0  0  0  0  0  0
    5.1957   69.1421   66.1415 H   0  0  0  0  0  0  0  0  0  0  0  0
    3.0504   68.1909   65.1544 H   0  0  0  0  0  0  0  0  0  0  0  0
    3.2473   67.0602   66.5785 H   0  0  0  0  0  0  0  0  0  0  0  0
    0.7618   68.5007   65.6274 H   0  0  0  0  0  0  0  0  0  0  0  0
    1.0629   66.7245   65.8689 H   0  0  0  0  0  0  0  0  0  0  0  0
   -0.3847   67.6846   67.6409 H   0  0  0  0  0  0  0  0  0  0  0  0
    0.3218   69.9447   67.7738 H   0  0  0  0  0  0  0  0  0  0  0  0
    0.8165   69.1548   69.3434 H   0  0  0  0  0  0  0  0  0  0  0  0
    2.1959   66.3982   68.3394 H   0  0  0  0  0  0  0  0  0  0  0  0
    2.8322   64.0733   70.6513 H   0  0  0  0  0  0  0  0  0  0  0  0
    1.9003   63.6252   69.1826 H   0  0  0  0  0  0  0  0  0  0  0  0
    2.9203   65.1037   69.1826 H   0  0  0  0  0  0  0  0  0  0  0  0
    0.8107   64.9891   72.3265 H   0  0  0  0  0  0  0  0  0  0  0  0
   -0.6669   64.9651   71.3051 H   0  0  0  0  0  0  0  0  0  0  0  0
    0.4479   63.5566   71.3051 H   0  0  0  0  0  0  0  0  0  0  0  0
    6.6182   71.0589   69.4826 H   0  0  0  0  0  0  0  0  0  0  0  0
    8.0323   70.5100   68.5204 H   0  0  0  0  0  0  0  0  0  0  0  0
    7.5645   72.2443   68.5204 H   0  0  0  0  0  0  0  0  0  0  0  0
  2  1  2  0
  3  2  1  0
  4  3  2  0
  5  4  1  0
  6  5  2  0
  6  1  1  0
  7  5  1  0
  8  7  1  0
  9  8  1  0
 10  9  1  0
 10  4  1  0
 11  9  1  0
 12 11  1  0
 13 12  2  0
 14 12  1  0
 15 14  1  0
 16 14  1  0
 18  1  1  0
 18 17  1  0
  2 19  1  0
  3 20  1  0
  6 21  1  0
  7 22  1  0
  7 23  1  0
  8 24  1  0
  8 25  1  0
  9 26  1  6
 10 27  1  0
 10 28  1  0
 11 29  1  0
 15 30  1  0
 15 31  1  0
 15 32  1  0
 16 33  1  0
 16 34  1  0
 16 35  1  0
 17 36  1  0
 17 37  1  0
 17 38  1  0
M  END
>  <score>  (5) 
-7.267

$$$$
=
     RDKit          3D

 38 39  0  0  0  0  0  0  0  0999 V2000
    2.0690   57.1480   73.5290 C   0  0  0  0  0  0  0  0  0  0  0  0
    2.6220   57.8280   74.6120 C   0  0  0  0  0  0  0  0  0  0  0  0
    3.3810   58.9830   74.4000 C   0  0  0  0  0  0  0  0  0  0  0  0
    3.5910   59.4800   73.1060 C   0  0  0  0  0  0  0  0  0  0  0  0
    3.0510   58.7880   72.0100 C   0  0  0  0  0  0  0  0  0  0  0  0
    2.2860   57.6340   72.2380 C   0  0  0  0  0  0  0  0  0  0  0  0
    3.2200   59.2810   70.5950 C   0  0  0  0  0  0  0  0  0  0  0  0
    4.2980   60.3540   70.4400 C   0  0  0  0  0  0  0  0  0  0  0  0
    4.2430   61.3970   71.5580 C   0  0  2  0  0  0  0  0  0  0  0  0
    4.4450   60.7140   72.9220 C   0  0  0  0  0  0  0  0  0  0  0  0
    2.9960   62.1610   71.5040 N   0  0  0  0  0  0  0  0  0  0  0  0
    2.9540   63.3790   70.8730 C   0  0  0  0  0  0  0  0  0  0  0  0
    3.9310   63.8520   70.2980 O   0  0  0  0  0  0  0  0  0  0  0  0
    1.7280   64.0250   70.9460 N   0  0  0  0  0  0  0  0  0  0  0  0
    0.4610   63.3400   71.1660 C   0  0  0  0  0  0  0  0  0  0  0  0
    1.6300   65.3300   70.3140 C   0  0  0  0  0  0  0  0  0  0  0  0
    1.9240   54.8560   74.1400 C   0  0  0  0  0  0  0  0  0  0  0  0
    1.3060   56.0140   73.5940 O   0  0  0  0  0  0  0  0  0  0  0  0
    2.4614   57.4559   75.6346 H   0  0  0  0  0  0  0  0  0  0  0  0
    3.8196   59.5092   75.2607 H   0  0  0  0  0  0  0  0  0  0  0  0
    1.8479   57.1008   71.3814 H   0  0  0  0  0  0  0  0  0  0  0  0
    3.4891   58.4246   69.9592 H   0  0  0  0  0  0  0  0  0  0  0  0
    2.2654   59.7410   70.2998 H   0  0  0  0  0  0  0  0  0  0  0  0
    5.2851   59.8689   70.4568 H   0  0  0  0  0  0  0  0  0  0  0  0
    4.1220   60.8730   69.4862 H   0  0  0  0  0  0  0  0  0  0  0  0
    5.0614   62.1182   71.4161 H   0  0  0  0  0  0  0  0  0  0  0  0
    5.5020   60.4238   73.0139 H   0  0  0  0  0  0  0  0  0  0  0  0
    4.1444   61.4362   73.6953 H   0  0  0  0  0  0  0  0  0  0  0  0
    2.1444   61.7822   71.9424 H   0  0  0  0  0  0  0  0  0  0  0  0
    0.2799   63.2421   72.2466 H   0  0  0  0  0  0  0  0  0  0  0  0
   -0.3539   63.9204   70.7088 H   0  0  0  0  0  0  0  0  0  0  0  0
    0.5004   62.3403   70.7088 H   0  0  0  0  0  0  0  0  0  0  0  0
    1.5715   66.1090   71.0884 H   0  0  0  0  0  0  0  0  0  0  0  0
    2.5178   65.5016   69.6876 H   0  0  0  0  0  0  0  0  0  0  0  0
    0.7265   65.3671   69.6876 H   0  0  0  0  0  0  0  0  0  0  0  0
    1.8959   54.9087   75.2384 H   0  0  0  0  0  0  0  0  0  0  0  0
    1.3848   53.9588   73.8021 H   0  0  0  0  0  0  0  0  0  0  0  0
    2.9695   54.8045   73.8021 H   0  0  0  0  0  0  0  0  0  0  0  0
  2  1  2  0
  3  2  1  0
  4  3  2  0
  5  4  1  0
  6  5  2  0
  6  1  1  0
  7  5  1  0
  8  7  1  0
  9  8  1  0
 10  9  1  0
 10  4  1  0
 11  9  1  0
 12 11  1  0
 13 12  2  0
 14 12  1  0
 15 14  1  0
 16 14  1  0
 18  1  1  0
 18 17  1  0
  2 19  1  0
  3 20  1  0
  6 21  1  0
  7 22  1  0
  7 23  1  0
  8 24  1  0
  8 25  1  0
  9 26  1  6
 10 27  1  0
 10 28  1  0
 11 29  1  0
 15 30  1  0
 15 31  1  0
 15 32  1  0
 16 33  1  0
 16 34  1  0
 16 35  1  0
 17 36  1  0
 17 37  1  0
 17 38  1  0
M  END
>  <score>  (6) 
-6.938

$$$$
=
     RDKit          3D

 38 39  0  0  0  0  0  0  0  0999 V2000
    3.8890   62.3030   71.0150 C   0  0  0  0  0  0  0  0  0  0  0  0
    3.1760   63.3930   70.5200 C   0  0  0  0  0  0  0  0  0  0  0  0
    1.8130   63.5250   70.8020 C   0  0  0  0  0  0  0  0  0  0  0  0
    1.1450   62.5760   71.5880 C   0  0  0  0  0  0  0  0  0  0  0  0
    1.8540   61.4650   72.0740 C   0  0  0  0  0  0  0  0  0  0  0  0
    3.2240   61.3500   71.7900 C   0  0  0  0  0  0  0  0  0  0  0  0
    1.2010   60.4210   72.9450 C   0  0  0  0  0  0  0  0  0  0  0  0
   -0.3260   60.4840   72.9430 C   0  0  0  0  0  0  0  0  0  0  0  0
   -0.8470   61.9190   73.0360 C   0  0  2  0  0  0  0  0  0  0  0  0
   -0.3370   62.7410   71.8390 C   0  0  0  0  0  0  0  0  0  0  0  0
   -0.4860   62.5280   74.3170 N   0  0  0  0  0  0  0  0  0  0  0  0
   -1.4220   62.6610   75.3120 C   0  0  0  0  0  0  0  0  0  0  0  0
   -2.5700   62.2420   75.1910 O   0  0  0  0  0  0  0  0  0  0  0  0
   -0.9650   63.3080   76.4520 N   0  0  0  0  0  0  0  0  0  0  0  0
    0.4390   63.3800   76.8370 C   0  0  0  0  0  0  0  0  0  0  0  0
   -1.9190   63.4970   77.5310 C   0  0  0  0  0  0  0  0  0  0  0  0
    5.7360   60.8520   71.3740 C   0  0  0  0  0  0  0  0  0  0  0  0
    5.2200   62.0560   70.8210 O   0  0  0  0  0  0  0  0  0  0  0  0
    3.6860   64.1504   69.9067 H   0  0  0  0  0  0  0  0  0  0  0  0
    1.2571   64.3856   70.4015 H   0  0  0  0  0  0  0  0  0  0  0  0
    3.7857   60.4912   72.1862 H   0  0  0  0  0  0  0  0  0  0  0  0
    1.5077   59.4278   72.5852 H   0  0  0  0  0  0  0  0  0  0  0  0
    1.5285   60.6142   73.9772 H   0  0  0  0  0  0  0  0  0  0  0  0
   -0.6976   60.0322   72.0114 H   0  0  0  0  0  0  0  0  0  0  0  0
   -0.6869   59.9366   73.8263 H   0  0  0  0  0  0  0  0  0  0  0  0
   -1.9460   61.9047   72.9921 H   0  0  0  0  0  0  0  0  0  0  0  0
   -0.8814   62.4209   70.9384 H   0  0  0  0  0  0  0  0  0  0  0  0
   -0.5115   63.8013   72.0739 H   0  0  0  0  0  0  0  0  0  0  0  0
    0.4769   62.8590   74.4728 H   0  0  0  0  0  0  0  0  0  0  0  0
    0.5186   63.3841   77.9341 H   0  0  0  0  0  0  0  0  0  0  0  0
    0.9750   62.5082   76.4337 H   0  0  0  0  0  0  0  0  0  0  0  0
    0.8830   64.3021   76.4337 H   0  0  0  0  0  0  0  0  0  0  0  0
   -1.4041   63.3950   78.4977 H   0  0  0  0  0  0  0  0  0  0  0  0
   -2.3631   64.5006   77.4562 H   0  0  0  0  0  0  0  0  0  0  0  0
   -2.7122   62.7385   77.4562 H   0  0  0  0  0  0  0  0  0  0  0  0
    5.7102   60.9123   72.4720 H   0  0  0  0  0  0  0  0  0  0  0  0
    5.1230   60.0023   71.0389 H   0  0  0  0  0  0  0  0  0  0  0  0
    6.7740   60.7099   71.0389 H   0  0  0  0  0  0  0  0  0  0  0  0
  2  1  2  0
  3  2  1  0
  4  3  2  0
  5  4  1  0
  6  5  2  0
  6  1  1  0
  7  5  1  0
  8  7  1  0
  9  8  1  0
 10  9  1  0
 10  4  1  0
 11  9  1  0
 12 11  1  0
 13 12  2  0
 14 12  1  0
 15 14  1  0
 16 14  1  0
 18  1  1  0
 18 17  1  0
  2 19  1  0
  3 20  1  0
  6 21  1  0
  7 22  1  0
  7 23  1  0
  8 24  1  0
  8 25  1  0
  9 26  1  6
 10 27  1  0
 10 28  1  0
 11 29  1  0
 15 30  1  0
 15 31  1  0
 15 32  1  0
 16 33  1  0
 16 34  1  0
 16 35  1  0
 17 36  1  0
 17 37  1  0
 17 38  1  0
M  END
>  <score>  (7) 
-6.817

$$$$
=
     RDKit          3D

 38 39  0  0  0  0  0  0  0  0999 V2000
    0.3020   63.1250   72.4830 C   0  0  0  0  0  0  0  0  0  0  0  0
   -0.5710   62.0390   72.4950 C   0  0  0  0  0  0  0  0  0  0  0  0
   -0.0830   60.7520   72.7410 C   0  0  0  0  0  0  0  0  0  0  0  0
    1.2790   60.5320   72.9850 C   0  0  0  0  0  0  0  0  0  0  0  0
    2.1660   61.6210   72.9560 C   0  0  0  0  0  0  0  0  0  0  0  0
    1.6620   62.9080   72.7160 C   0  0  0  0  0  0  0  0  0  0  0  0
    3.6400   61.4560   73.2340 C   0  0  0  0  0  0  0  0  0  0  0  0
    4.1180   60.0050   73.1870 C   0  0  0  0  0  0  0  0  0  0  0  0
    3.1490   59.0530   73.8890 C   0  0  2  0  0  0  0  0  0  0  0  0
    1.7670   59.1190   73.2130 C   0  0  0  0  0  0  0  0  0  0  0  0
    3.0750   59.3390   75.3220 N   0  0  0  0  0  0  0  0  0  0  0  0
    3.6980   58.5160   76.2280 C   0  0  0  0  0  0  0  0  0  0  0  0
    4.3700   57.5480   75.8790 O   0  0  0  0  0  0  0  0  0  0  0  0
    3.5000   58.8660   77.5560 N   0  0  0  0  0  0  0  0  0  0  0  0
    3.1530   60.2090   77.9990 C   0  0  0  0  0  0  0  0  0  0  0  0
    4.1190   58.0180   78.5610 C   0  0  0  0  0  0  0  0  0  0  0  0
    0.4340   65.0240   71.0600 C   0  0  0  0  0  0  0  0  0  0  0  0
   -0.0400   64.4310   72.2620 O   0  0  0  0  0  0  0  0  0  0  0  0
   -1.6443   62.1942   72.3109 H   0  0  0  0  0  0  0  0  0  0  0  0
   -0.7785   59.8998   72.7430 H   0  0  0  0  0  0  0  0  0  0  0  0
    2.3524   63.7643   72.7112 H   0  0  0  0  0  0  0  0  0  0  0  0
    4.2011   62.0305   72.4823 H   0  0  0  0  0  0  0  0  0  0  0  0
    3.8154   61.8181   74.2578 H   0  0  0  0  0  0  0  0  0  0  0  0
    4.2157   59.6984   72.1351 H   0  0  0  0  0  0  0  0  0  0  0  0
    5.0832   59.9510   73.7119 H   0  0  0  0  0  0  0  0  0  0  0  0
    3.5248   58.0238   73.7918 H   0  0  0  0  0  0  0  0  0  0  0  0
    1.8298   58.6101   72.2398 H   0  0  0  0  0  0  0  0  0  0  0  0
    1.0498   58.6321   73.8901 H   0  0  0  0  0  0  0  0  0  0  0  0
    2.5525   60.1625   75.6533 H   0  0  0  0  0  0  0  0  0  0  0  0
    3.1446   60.2417   79.0985 H   0  0  0  0  0  0  0  0  0  0  0  0
    3.8957   60.9246   77.6166 H   0  0  0  0  0  0  0  0  0  0  0  0
    2.1566   60.4752   77.6166 H   0  0  0  0  0  0  0  0  0  0  0  0
    3.8523   58.3833   79.5637 H   0  0  0  0  0  0  0  0  0  0  0  0
    3.7611   56.9849   78.4400 H   0  0  0  0  0  0  0  0  0  0  0  0
    5.2120   58.0440   78.4400 H   0  0  0  0  0  0  0  0  0  0  0  0
    1.1037   65.8619   71.3038 H   0  0  0  0  0  0  0  0  0  0  0  0
    0.9841   64.2737   70.4731 H   0  0  0  0  0  0  0  0  0  0  0  0
   -0.4191   65.3953   70.4731 H   0  0  0  0  0  0  0  0  0  0  0  0
  2  1  2  0
  3  2  1  0
  4  3  2  0
  5  4  1  0
  6  5  2  0
  6  1  1  0
  7  5  1  0
  8  7  1  0
  9  8  1  0
 10  9  1  0
 10  4  1  0
 11  9  1  0
 12 11  1  0
 13 12  2  0
 14 12  1  0
 15 14  1  0
 16 14  1  0
 18  1  1  0
 18 17  1  0
  2 19  1  0
  3 20  1  0
  6 21  1  0
  7 22  1  0
  7 23  1  0
  8 24  1  0
  8 25  1  0
  9 26  1  1
 10 27  1  0
 10 28  1  0
 11 29  1  0
 15 30  1  0
 15 31  1  0
 15 32  1  0
 16 33  1  0
 16 34  1  0
 16 35  1  0
 17 36  1  0
 17 37  1  0
 17 38  1  0
M  END
>  <score>  (8) 
-6.642

$$$$
=
     RDKit          3D

 38 39  0  0  0  0  0  0  0  0999 V2000
    2.7920   62.2330   71.4410 C   0  0  0  0  0  0  0  0  0  0  0  0
    1.6870   62.4010   72.2740 C   0  0  0  0  0  0  0  0  0  0  0  0
    1.0640   61.2870   72.8440 C   0  0  0  0  0  0  0  0  0  0  0  0
    1.5390   59.9910   72.5980 C   0  0  0  0  0  0  0  0  0  0  0  0
    2.6400   59.8140   71.7450 C   0  0  0  0  0  0  0  0  0  0  0  0
    3.2610   60.9420   71.1850 C   0  0  0  0  0  0  0  0  0  0  0  0
    3.2150   58.4500   71.4570 C   0  0  0  0  0  0  0  0  0  0  0  0
    2.3000   57.2960   71.8680 C   0  0  0  0  0  0  0  0  0  0  0  0
    1.6560   57.5260   73.2360 C   0  0  2  0  0  0  0  0  0  0  0  0
    0.8130   58.8140   73.2090 C   0  0  0  0  0  0  0  0  0  0  0  0
    2.6660   57.5500   74.2950 N   0  0  0  0  0  0  0  0  0  0  0  0
    2.3740   57.0610   75.5450 C   0  0  0  0  0  0  0  0  0  0  0  0
    1.2890   56.5510   75.8110 O   0  0  0  0  0  0  0  0  0  0  0  0
    3.3980   57.1980   76.4720 N   0  0  0  0  0  0  0  0  0  0  0  0
    4.8040   57.3300   76.1140 C   0  0  0  0  0  0  0  0  0  0  0  0
    3.1380   56.7180   77.8180 C   0  0  0  0  0  0  0  0  0  0  0  0
    4.8910   63.0170   70.6490 C   0  0  0  0  0  0  0  0  0  0  0  0
    3.4960   63.2300   70.8250 O   0  0  0  0  0  0  0  0  0  0  0  0
    1.3049   63.4111   72.4830 H   0  0  0  0  0  0  0  0  0  0  0  0
    0.1886   61.4292   73.4948 H   0  0  0  0  0  0  0  0  0  0  0  0
    4.1351   60.8064   70.5310 H   0  0  0  0  0  0  0  0  0  0  0  0
    3.4044   58.3745   70.3761 H   0  0  0  0  0  0  0  0  0  0  0  0
    4.1351   58.3575   72.0528 H   0  0  0  0  0  0  0  0  0  0  0  0
    1.5045   57.1899   71.1157 H   0  0  0  0  0  0  0  0  0  0  0  0
    2.9143   56.3859   71.9336 H   0  0  0  0  0  0  0  0  0  0  0  0
    0.9823   56.6861   73.4613 H   0  0  0  0  0  0  0  0  0  0  0  0
   -0.0979   58.6229   72.6226 H   0  0  0  0  0  0  0  0  0  0  0  0
    0.5863   59.0771   74.2528 H   0  0  0  0  0  0  0  0  0  0  0  0
    3.6013   57.9358   74.1018 H   0  0  0  0  0  0  0  0  0  0  0  0
    5.4116   57.3870   77.0292 H   0  0  0  0  0  0  0  0  0  0  0  0
    5.1150   56.4571   75.5213 H   0  0  0  0  0  0  0  0  0  0  0  0
    4.9471   58.2455   75.5213 H   0  0  0  0  0  0  0  0  0  0  0  0
    3.5301   57.4419   78.5476 H   0  0  0  0  0  0  0  0  0  0  0  0
    2.0538   56.6021   77.9629 H   0  0  0  0  0  0  0  0  0  0  0  0
    3.6332   55.7465   77.9629 H   0  0  0  0  0  0  0  0  0  0  0  0
    5.3776   62.9427   71.6327 H   0  0  0  0  0  0  0  0  0  0  0  0
    5.0517   62.0839   70.0891 H   0  0  0  0  0  0  0  0  0  0  0  0
    5.3228   63.8596   70.0891 H   0  0  0  0  0  0  0  0  0  0  0  0
  2  1  2  0
  3  2  1  0
  4  3  2  0
  5  4  1  0
  6  5  2  0
  6  1  1  0
  7  5  1  0
  8  7  1  0
  9  8  1  0
 10  9  1  0
 10  4  1  0
 11  9  1  0
 12 11  1  0
 13 12  2  0
 14 12  1  0
 15 14  1  0
 16 14  1  0
 18  1  1  0
 18 17  1  0
  2 19  1  0
  3 20  1  0
  6 21  1  0
  7 22  1  0
  7 23  1  0
  8 24  1  0
  8 25  1  0
  9 26  1  1
 10 27  1  0
 10 28  1  0
 11 29  1  0
 15 30  1  0
 15 31  1  0
 15 32  1  0
 16 33  1  0
 16 34  1  0
 16 35  1  0
 17 36  1  0
 17 37  1  0
 17 38  1  0
M  END
>  <score>  (9) 
-6.544

$$$$
