=
     RDKit          3D

 54 57  0  0  0  0  0  0  0  0999 V2000
    2.1800   64.3840   71.4320 C   0  0  1  0  0  0  0  0  0  0  0  0
    2.2340   65.3920   70.2820 C   0  0  0  0  0  0  0  0  0  0  0  0
    0.7690   65.6740   70.0990 C   0  0  0  0  0  0  0  0  0  0  0  0
   -0.0060   65.1770   71.0140 N   0  0  0  0  0  0  0  0  0  0  0  0
    0.7850   64.4710   71.8740 N   0  0  0  0  0  0  0  0  0  0  0  0
    0.2620   66.4880   68.9720 C   0  0  0  0  0  0  0  0  0  0  0  0
   -1.0610   66.3880   68.5350 C   0  0  0  0  0  0  0  0  0  0  0  0
   -1.4920   67.1750   67.4690 C   0  0  0  0  0  0  0  0  0  0  0  0
   -2.7610   67.0740   67.0530 F   0  0  0  0  0  0  0  0  0  0  0  0
   -0.6340   68.0590   66.8290 C   0  0  0  0  0  0  0  0  0  0  0  0
    0.6780   68.1510   67.2700 C   0  0  0  0  0  0  0  0  0  0  0  0
    1.1360   67.3760   68.3320 C   0  0  0  0  0  0  0  0  0  0  0  0
    1.5170   68.9990   66.6640 F   0  0  0  0  0  0  0  0  0  0  0  0
    3.4110   60.4180   70.1120 C   0  0  0  0  0  0  0  0  0  0  0  0
    2.6700   61.2480   69.2630 C   0  0  0  0  0  0  0  0  0  0  0  0
    2.2570   62.5190   69.6790 C   0  0  0  0  0  0  0  0  0  0  0  0
    2.5730   62.9940   70.9580 C   0  0  0  0  0  0  0  0  0  0  0  0
    3.3140   62.1600   71.8060 C   0  0  0  0  0  0  0  0  0  0  0  0
    3.7110   60.8770   71.4060 C   0  0  0  0  0  0  0  0  0  0  0  0
    3.4250   58.0550   70.4760 C   0  0  0  0  0  0  0  0  0  0  0  0
    3.8850   59.1860   69.7480 O   0  0  0  0  0  0  0  0  0  0  0  0
    4.4320   60.2080   72.3630 O   0  0  0  0  0  0  0  0  0  0  0  0
    3.8040   60.0770   73.6330 C   0  0  0  0  0  0  0  0  0  0  0  0
    0.2820   63.9990   73.0860 C   0  0  0  0  0  0  0  0  0  0  0  0
   -0.2220   62.6890   73.1920 C   0  0  0  0  0  0  0  0  0  0  0  0
   -0.7290   62.1820   74.3920 C   0  0  0  0  0  0  0  0  0  0  0  0
   -0.7290   62.9890   75.5260 C   0  0  0  0  0  0  0  0  0  0  0  0
   -0.2500   64.2960   75.4590 C   0  0  0  0  0  0  0  0  0  0  0  0
    0.2520   64.7880   74.2480 C   0  0  0  0  0  0  0  0  0  0  0  0
   -1.3590   62.3660   77.0590 S   0  0  0  0  0  6  0  0  0  0  0  0
   -2.7670   62.0910   76.9000 O   0  0  0  0  0  0  0  0  0  0  0  0
   -0.4290   61.3910   77.5800 O   0  0  0  0  0  0  0  0  0  0  0  0
   -1.2050   63.7170   78.0550 N   0  0  0  0  0  0  0  0  0  0  0  0
    2.8856   64.5945   72.2492 H   0  0  0  0  0  0  0  0  0  0  0  0
    2.7906   66.2986   70.5619 H   0  0  0  0  0  0  0  0  0  0  0  0
    2.7486   65.0315   69.3791 H   0  0  0  0  0  0  0  0  0  0  0  0
   -1.7569   65.6936   69.0284 H   0  0  0  0  0  0  0  0  0  0  0  0
   -0.9876   68.6744   65.9886 H   0  0  0  0  0  0  0  0  0  0  0  0
    2.1802   67.4607   68.6672 H   0  0  0  0  0  0  0  0  0  0  0  0
    2.4084   60.8963   68.2541 H   0  0  0  0  0  0  0  0  0  0  0  0
    1.6767   63.1530   68.9925 H   0  0  0  0  0  0  0  0  0  0  0  0
    3.5902   62.5205   72.8079 H   0  0  0  0  0  0  0  0  0  0  0  0
    3.5064   58.2553   71.5545 H   0  0  0  0  0  0  0  0  0  0  0  0
    2.3743   57.8557   70.2184 H   0  0  0  0  0  0  0  0  0  0  0  0
    4.0383   57.1789   70.2184 H   0  0  0  0  0  0  0  0  0  0  0  0
    4.5484   60.2323   74.4279 H   0  0  0  0  0  0  0  0  0  0  0  0
    3.0057   60.8279   73.7265 H   0  0  0  0  0  0  0  0  0  0  0  0
    3.3725   59.0695   73.7265 H   0  0  0  0  0  0  0  0  0  0  0  0
   -0.2167   62.0432   72.3015 H   0  0  0  0  0  0  0  0  0  0  0  0
   -1.1237   61.1563   74.4395 H   0  0  0  0  0  0  0  0  0  0  0  0
   -0.2662   64.9375   76.3524 H   0  0  0  0  0  0  0  0  0  0  0  0
    0.6328   65.8191   74.2054 H   0  0  0  0  0  0  0  0  0  0  0  0
   -1.2386   63.4220   79.0413 H   0  0  0  0  0  0  0  0  0  0  0  0
   -0.3056   64.1820   77.8662 H   0  0  0  0  0  0  0  0  0  0  0  0
  2  1  1  0
  3  2  1  0
  4  3  2  0
  5  4  1  0
  5  1  1  0
  6  3  1  0
  7  6  2  0
  8  7  1  0
  9  8  1  0
 10  8  2  0
 11 10  1  0
 12 11  2  0
 12  6  1  0
 13 11  1  0
 15 14  2  0
 16 15  1  0
 17 16  2  0
 17  1  1  0
 18 17  1  0
 19 14  1  0
 19 18  2  0
 21 20  1  0
 21 14  1  0
 22 19  1  0
 23 22  1  0
 24  5  1  0
 25 24  2  0
 26 25  1  0
 27 26  2  0
 28 27  1  0
 29 28  2  0
 29 24  1  0
 30 27  1  0
 31 30  2  0
 32 30  2  0
 33 30  1  0
  1 34  1  1
  2 35  1  0
  2 36  1  0
  7 37  1  0
 10 38  1  0
 12 39  1  0
 15 40  1  0
 16 41  1  0
 18 42  1  0
 20 43  1  0
 20 44  1  0
 20 45  1  0
 23 46  1  0
 23 47  1  0
 23 48  1  0
 25 49  1  0
 26 50  1  0
 28 51  1  0
 29 52  1  0
 33 53  1  0
 33 54  1  0
M  END
>  <score>  (1) 
-8.587

$$$$
=
     RDKit          3D

 54 57  0  0  0  0  0  0  0  0999 V2000
    0.8820   59.8940   74.5630 C   0  0  1  0  0  0  0  0  0  0  0  0
    1.9730   60.7380   73.9020 C   0  0  0  0  0  0  0  0  0  0  0  0
    1.2390   61.2250   72.6840 C   0  0  0  0  0  0  0  0  0  0  0  0
   -0.0330   60.9680   72.6680 N   0  0  0  0  0  0  0  0  0  0  0  0
   -0.3140   60.2520   73.7960 N   0  0  0  0  0  0  0  0  0  0  0  0
    1.9230   61.9710   71.6030 C   0  0  0  0  0  0  0  0  0  0  0  0
    1.7600   63.3500   71.4510 C   0  0  0  0  0  0  0  0  0  0  0  0
    2.4230   64.0080   70.4180 C   0  0  0  0  0  0  0  0  0  0  0  0
    2.2630   65.3300   70.2770 F   0  0  0  0  0  0  0  0  0  0  0  0
    3.2450   63.3230   69.5340 C   0  0  0  0  0  0  0  0  0  0  0  0
    3.4000   61.9540   69.6930 C   0  0  0  0  0  0  0  0  0  0  0  0
    2.7490   61.2700   70.7150 C   0  0  0  0  0  0  0  0  0  0  0  0
    4.1890   61.2800   68.8480 F   0  0  0  0  0  0  0  0  0  0  0  0
    1.9400   55.6690   74.4190 C   0  0  0  0  0  0  0  0  0  0  0  0
    1.5600   56.3430   73.2530 C   0  0  0  0  0  0  0  0  0  0  0  0
    1.2040   57.6970   73.2880 C   0  0  0  0  0  0  0  0  0  0  0  0
    1.2190   58.4130   74.4910 C   0  0  0  0  0  0  0  0  0  0  0  0
    1.5990   57.7350   75.6570 C   0  0  0  0  0  0  0  0  0  0  0  0
    1.9330   56.3730   75.6350 C   0  0  0  0  0  0  0  0  0  0  0  0
    1.3480   53.3590   74.6070 C   0  0  0  0  0  0  0  0  0  0  0  0
    2.3440   54.3600   74.4450 O   0  0  0  0  0  0  0  0  0  0  0  0
    2.2850   55.8800   76.8670 O   0  0  0  0  0  0  0  0  0  0  0  0
    2.8720   56.8160   77.7650 C   0  0  0  0  0  0  0  0  0  0  0  0
   -1.6330   60.0120   74.1800 C   0  0  0  0  0  0  0  0  0  0  0  0
   -2.6310   60.9820   73.9660 C   0  0  0  0  0  0  0  0  0  0  0  0
   -3.9630   60.7730   74.3350 C   0  0  0  0  0  0  0  0  0  0  0  0
   -4.3250   59.5640   74.9220 C   0  0  0  0  0  0  0  0  0  0  0  0
   -3.3650   58.5830   75.1620 C   0  0  0  0  0  0  0  0  0  0  0  0
   -2.0350   58.8100   74.7880 C   0  0  0  0  0  0  0  0  0  0  0  0
   -6.0080   59.2730   75.3900 S   0  0  0  0  0  6  0  0  0  0  0  0
   -6.0540   58.1100   76.2430 O   0  0  0  0  0  0  0  0  0  0  0  0
   -6.6100   60.5330   75.7590 O   0  0  0  0  0  0  0  0  0  0  0  0
   -6.6970   58.8570   73.9090 N   0  0  0  0  0  0  0  0  0  0  0  0
    0.7547   60.0848   75.6388 H   0  0  0  0  0  0  0  0  0  0  0  0
    2.2887   61.5715   74.5467 H   0  0  0  0  0  0  0  0  0  0  0  0
    2.9069   60.1969   73.6897 H   0  0  0  0  0  0  0  0  0  0  0  0
    1.1134   63.9115   72.1414 H   0  0  0  0  0  0  0  0  0  0  0  0
    3.7634   63.8555   68.7231 H   0  0  0  0  0  0  0  0  0  0  0  0
    2.8824   60.1837   70.8251 H   0  0  0  0  0  0  0  0  0  0  0  0
    1.5406   55.8017   72.2956 H   0  0  0  0  0  0  0  0  0  0  0  0
    0.9087   58.2047   72.3579 H   0  0  0  0  0  0  0  0  0  0  0  0
    1.6361   58.2828   76.6102 H   0  0  0  0  0  0  0  0  0  0  0  0
    1.1744   53.1846   75.6791 H   0  0  0  0  0  0  0  0  0  0  0  0
    0.4127   53.6924   74.1336 H   0  0  0  0  0  0  0  0  0  0  0  0
    1.6860   52.4254   74.1336 H   0  0  0  0  0  0  0  0  0  0  0  0
    2.6756   56.5029   78.8011 H   0  0  0  0  0  0  0  0  0  0  0  0
    3.9578   56.8570   77.5939 H   0  0  0  0  0  0  0  0  0  0  0  0
    2.4360   57.8113   77.5939 H   0  0  0  0  0  0  0  0  0  0  0  0
   -2.3534   61.9355   73.4929 H   0  0  0  0  0  0  0  0  0  0  0  0
   -4.7168   61.5555   74.1633 H   0  0  0  0  0  0  0  0  0  0  0  0
   -3.6504   57.6356   75.6426 H   0  0  0  0  0  0  0  0  0  0  0  0
   -1.2850   58.0273   74.9748 H   0  0  0  0  0  0  0  0  0  0  0  0
   -7.5678   58.3313   74.0710 H   0  0  0  0  0  0  0  0  0  0  0  0
   -6.9068   59.7127   73.3755 H   0  0  0  0  0  0  0  0  0  0  0  0
  2  1  1  0
  3  2  1  0
  4  3  2  0
  5  4  1  0
  5  1  1  0
  6  3  1  0
  7  6  2  0
  8  7  1  0
  9  8  1  0
 10  8  2  0
 11 10  1  0
 12 11  2  0
 12  6  1  0
 13 11  1  0
 15 14  2  0
 16 15  1  0
 17 16  2  0
 17  1  1  0
 18 17  1  0
 19 14  1  0
 19 18  2  0
 21 20  1  0
 21 14  1  0
 22 19  1  0
 23 22  1  0
 24  5  1  0
 25 24  2  0
 26 25  1  0
 27 26  2  0
 28 27  1  0
 29 28  2  0
 29 24  1  0
 30 27  1  0
 31 30  2  0
 32 30  2  0
 33 30  1  0
  1 34  1  1
  2 35  1  0
  2 36  1  0
  7 37  1  0
 10 38  1  0
 12 39  1  0
 15 40  1  0
 16 41  1  0
 18 42  1  0
 20 43  1  0
 20 44  1  0
 20 45  1  0
 23 46  1  0
 23 47  1  0
 23 48  1  0
 25 49  1  0
 26 50  1  0
 28 51  1  0
 29 52  1  0
 33 53  1  0
 33 54  1  0
M  END
>  <score>  (2) 
-8.411

$$$$
=
     RDKit          3D

 54 57  0  0  0  0  0  0  0  0999 V2000
    0.4040   60.2440   74.7820 C   0  0  1  0  0  0  0  0  0  0  0  0
    1.3660   61.3070   74.2470 C   0  0  0  0  0  0  0  0  0  0  0  0
    0.5660   61.8390   73.0900 C   0  0  0  0  0  0  0  0  0  0  0  0
   -0.6590   61.4140   73.0260 N   0  0  0  0  0  0  0  0  0  0  0  0
   -0.8330   60.5290   74.0510 N   0  0  0  0  0  0  0  0  0  0  0  0
    1.1350   62.8020   72.1210 C   0  0  0  0  0  0  0  0  0  0  0  0
    0.3550   63.8130   71.5530 C   0  0  0  0  0  0  0  0  0  0  0  0
    0.9360   64.6960   70.6440 C   0  0  0  0  0  0  0  0  0  0  0  0
    0.1840   65.6620   70.1020 F   0  0  0  0  0  0  0  0  0  0  0  0
    2.2740   64.5940   70.2900 C   0  0  0  0  0  0  0  0  0  0  0  0
    3.0390   63.5870   70.8600 C   0  0  0  0  0  0  0  0  0  0  0  0
    2.4860   62.6900   71.7690 C   0  0  0  0  0  0  0  0  0  0  0  0
    4.3310   63.4770   70.5290 F   0  0  0  0  0  0  0  0  0  0  0  0
    1.8850   56.2290   73.9570 C   0  0  0  0  0  0  0  0  0  0  0  0
    1.3980   56.5570   75.2280 C   0  0  0  0  0  0  0  0  0  0  0  0
    0.9320   57.8460   75.5100 C   0  0  0  0  0  0  0  0  0  0  0  0
    0.9420   58.8450   74.5280 C   0  0  0  0  0  0  0  0  0  0  0  0
    1.4300   58.5140   73.2570 C   0  0  0  0  0  0  0  0  0  0  0  0
    1.9210   57.2320   72.9730 C   0  0  0  0  0  0  0  0  0  0  0  0
    1.5830   53.8620   74.1040 C   0  0  0  0  0  0  0  0  0  0  0  0
    2.3100   54.9760   73.6040 O   0  0  0  0  0  0  0  0  0  0  0  0
    2.3530   57.0900   71.6780 O   0  0  0  0  0  0  0  0  0  0  0  0
    3.1720   58.1420   71.1780 C   0  0  0  0  0  0  0  0  0  0  0  0
   -2.1040   60.0630   74.3850 C   0  0  0  0  0  0  0  0  0  0  0  0
   -3.2430   60.8590   74.1560 C   0  0  0  0  0  0  0  0  0  0  0  0
   -4.5330   60.4220   74.4750 C   0  0  0  0  0  0  0  0  0  0  0  0
   -4.7050   59.1550   75.0250 C   0  0  0  0  0  0  0  0  0  0  0  0
   -3.6030   58.3410   75.2780 C   0  0  0  0  0  0  0  0  0  0  0  0
   -2.3180   58.7960   74.9550 C   0  0  0  0  0  0  0  0  0  0  0  0
   -6.3290   58.5760   75.4290 S   0  0  0  0  0  6  0  0  0  0  0  0
   -6.2550   57.8120   76.6510 O   0  0  0  0  0  0  0  0  0  0  0  0
   -7.2660   59.6610   75.2450 O   0  0  0  0  0  0  0  0  0  0  0  0
   -6.6240   57.5030   74.1630 N   0  0  0  0  0  0  0  0  0  0  0  0
    0.2559   60.2773   75.8715 H   0  0  0  0  0  0  0  0  0  0  0  0
    1.5666   62.0875   74.9957 H   0  0  0  0  0  0  0  0  0  0  0  0
    2.3647   60.9306   73.9807 H   0  0  0  0  0  0  0  0  0  0  0  0
   -0.7074   63.9111   71.8207 H   0  0  0  0  0  0  0  0  0  0  0  0
    2.7192   65.2979   69.5715 H   0  0  0  0  0  0  0  0  0  0  0  0
    3.1074   61.8963   72.2092 H   0  0  0  0  0  0  0  0  0  0  0  0
    1.3814   55.7902   76.0165 H   0  0  0  0  0  0  0  0  0  0  0  0
    0.5528   58.0779   76.5162 H   0  0  0  0  0  0  0  0  0  0  0  0
    1.4278   59.2769   72.4645 H   0  0  0  0  0  0  0  0  0  0  0  0
    1.5948   53.8801   75.2038 H   0  0  0  0  0  0  0  0  0  0  0  0
    0.5436   53.9126   73.7476 H   0  0  0  0  0  0  0  0  0  0  0  0
    2.0479   52.9309   73.7476 H   0  0  0  0  0  0  0  0  0  0  0  0
    3.6066   58.7003   72.0203 H   0  0  0  0  0  0  0  0  0  0  0  0
    3.9797   57.7175   70.5637 H   0  0  0  0  0  0  0  0  0  0  0  0
    2.5623   58.8210   70.5637 H   0  0  0  0  0  0  0  0  0  0  0  0
   -3.1140   61.8570   73.7118 H   0  0  0  0  0  0  0  0  0  0  0  0
   -5.4015   61.0722   74.2933 H   0  0  0  0  0  0  0  0  0  0  0  0
   -3.7411   57.3471   75.7286 H   0  0  0  0  0  0  0  0  0  0  0  0
   -1.4538   58.1447   75.1526 H   0  0  0  0  0  0  0  0  0  0  0  0
   -6.8774   56.5812   74.5463 H   0  0  0  0  0  0  0  0  0  0  0  0
   -7.3983   57.8590   73.5846 H   0  0  0  0  0  0  0  0  0  0  0  0
  2  1  1  0
  3  2  1  0
  4  3  2  0
  5  4  1  0
  5  1  1  0
  6  3  1  0
  7  6  2  0
  8  7  1  0
  9  8  1  0
 10  8  2  0
 11 10  1  0
 12 11  2  0
 12  6  1  0
 13 11  1  0
 15 14  2  0
 16 15  1  0
 17 16  2  0
 17  1  1  0
 18 17  1  0
 19 14  1  0
 19 18  2  0
 21 20  1  0
 21 14  1  0
 22 19  1  0
 23 22  1  0
 24  5  1  0
 25 24  2  0
 26 25  1  0
 27 26  2  0
 28 27  1  0
 29 28  2  0
 29 24  1  0
 30 27  1  0
 31 30  2  0
 32 30  2  0
 33 30  1  0
  1 34  1  1
  2 35  1  0
  2 36  1  0
  7 37  1  0
 10 38  1  0
 12 39  1  0
 15 40  1  0
 16 41  1  0
 18 42  1  0
 20 43  1  0
 20 44  1  0
 20 45  1  0
 23 46  1  0
 23 47  1  0
 23 48  1  0
 25 49  1  0
 26 50  1  0
 28 51  1  0
 29 52  1  0
 33 53  1  0
 33 54  1  0
M  END
>  <score>  (3) 
-8.375

$$$$
=
     RDKit          3D

 54 57  0  0  0  0  0  0  0  0999 V2000
   -1.2000   60.5310   73.6620 C   0  0  1  0  0  0  0  0  0  0  0  0
   -1.1190   61.8140   72.8330 C   0  0  0  0  0  0  0  0  0  0  0  0
    0.3060   61.7410   72.3590 C   0  0  0  0  0  0  0  0  0  0  0  0
    0.9130   60.6210   72.6090 N   0  0  0  0  0  0  0  0  0  0  0  0
    0.0410   59.8370   73.3090 N   0  0  0  0  0  0  0  0  0  0  0  0
    0.9480   62.8590   71.6320 C   0  0  0  0  0  0  0  0  0  0  0  0
    2.2980   62.8170   71.2720 C   0  0  0  0  0  0  0  0  0  0  0  0
    2.8580   63.8940   70.5880 C   0  0  0  0  0  0  0  0  0  0  0  0
    4.1520   63.8490   70.2470 F   0  0  0  0  0  0  0  0  0  0  0  0
    2.1040   65.0110   70.2560 C   0  0  0  0  0  0  0  0  0  0  0  0
    0.7660   65.0430   70.6180 C   0  0  0  0  0  0  0  0  0  0  0  0
    0.1800   63.9820   71.3020 C   0  0  0  0  0  0  0  0  0  0  0  0
    0.0260   66.1130   70.3030 F   0  0  0  0  0  0  0  0  0  0  0  0
   -1.3970   61.4430   77.9190 C   0  0  0  0  0  0  0  0  0  0  0  0
   -2.1350   60.3790   77.3880 C   0  0  0  0  0  0  0  0  0  0  0  0
   -2.0920   60.0840   76.0210 C   0  0  0  0  0  0  0  0  0  0  0  0
   -1.3090   60.8460   75.1460 C   0  0  0  0  0  0  0  0  0  0  0  0
   -0.5710   61.9110   75.6800 C   0  0  0  0  0  0  0  0  0  0  0  0
   -0.6270   62.2290   77.0440 C   0  0  0  0  0  0  0  0  0  0  0  0
   -2.4070   62.5560   79.7790 C   0  0  0  0  0  0  0  0  0  0  0  0
   -1.3590   61.7530   79.2530 O   0  0  0  0  0  0  0  0  0  0  0  0
    0.1630   63.2970   77.3870 O   0  0  0  0  0  0  0  0  0  0  0  0
    0.9140   63.8780   76.3270 C   0  0  0  0  0  0  0  0  0  0  0  0
    0.3160   58.4900   73.5370 C   0  0  0  0  0  0  0  0  0  0  0  0
    1.6100   57.9760   73.3260 C   0  0  0  0  0  0  0  0  0  0  0  0
    1.9230   56.6310   73.5490 C   0  0  0  0  0  0  0  0  0  0  0  0
    0.9300   55.7690   74.0050 C   0  0  0  0  0  0  0  0  0  0  0  0
   -0.3660   56.2360   74.2150 C   0  0  0  0  0  0  0  0  0  0  0  0
   -0.6610   57.5850   73.9840 C   0  0  0  0  0  0  0  0  0  0  0  0
    1.3040   54.0640   74.3030 S   0  0  0  0  0  6  0  0  0  0  0  0
    1.7860   53.9280   75.6570 O   0  0  0  0  0  0  0  0  0  0  0  0
    0.2290   53.2550   73.7750 O   0  0  0  0  0  0  0  0  0  0  0  0
    2.6070   53.8220   73.2620 N   0  0  0  0  0  0  0  0  0  0  0  0
   -2.0889   59.9170   73.4551 H   0  0  0  0  0  0  0  0  0  0  0  0
   -1.8283   61.8003   71.9924 H   0  0  0  0  0  0  0  0  0  0  0  0
   -1.3742   62.7325   73.3818 H   0  0  0  0  0  0  0  0  0  0  0  0
    2.9130   61.9412   71.5265 H   0  0  0  0  0  0  0  0  0  0  0  0
    2.5591   65.8545   69.7162 H   0  0  0  0  0  0  0  0  0  0  0  0
   -0.8828   64.0256   71.5823 H   0  0  0  0  0  0  0  0  0  0  0  0
   -2.7581   59.7655   78.0553 H   0  0  0  0  0  0  0  0  0  0  0  0
   -2.6813   59.2421   75.6287 H   0  0  0  0  0  0  0  0  0  0  0  0
    0.0665   62.5108   75.0138 H   0  0  0  0  0  0  0  0  0  0  0  0
   -2.3727   62.5297   80.8782 H   0  0  0  0  0  0  0  0  0  0  0  0
   -2.2835   63.5928   79.4330 H   0  0  0  0  0  0  0  0  0  0  0  0
   -3.3760   62.1670   79.4330 H   0  0  0  0  0  0  0  0  0  0  0  0
    1.7185   64.5004   76.7459 H   0  0  0  0  0  0  0  0  0  0  0  0
    1.3516   63.0810   75.7079 H   0  0  0  0  0  0  0  0  0  0  0  0
    0.2524   64.5017   75.7079 H   0  0  0  0  0  0  0  0  0  0  0  0
    2.4009   58.6547   72.9741 H   0  0  0  0  0  0  0  0  0  0  0  0
    2.9419   56.2590   73.3661 H   0  0  0  0  0  0  0  0  0  0  0  0
   -1.1526   55.5489   74.5602 H   0  0  0  0  0  0  0  0  0  0  0  0
   -1.6855   57.9460   74.1572 H   0  0  0  0  0  0  0  0  0  0  0  0
    3.4622   53.6632   73.8136 H   0  0  0  0  0  0  0  0  0  0  0  0
    2.4240   53.0006   72.6681 H   0  0  0  0  0  0  0  0  0  0  0  0
  2  1  1  0
  3  2  1  0
  4  3  2  0
  5  4  1  0
  5  1  1  0
  6  3  1  0
  7  6  2  0
  8  7  1  0
  9  8  1  0
 10  8  2  0
 11 10  1  0
 12 11  2  0
 12  6  1  0
 13 11  1  0
 15 14  2  0
 16 15  1  0
 17 16  2  0
 17  1  1  0
 18 17  1  0
 19 14  1  0
 19 18  2  0
 21 20  1  0
 21 14  1  0
 22 19  1  0
 23 22  1  0
 24  5  1  0
 25 24  2  0
 26 25  1  0
 27 26  2  0
 28 27  1  0
 29 28  2  0
 29 24  1  0
 30 27  1  0
 31 30  2  0
 32 30  2  0
 33 30  1  0
  1 34  1  6
  2 35  1  0
  2 36  1  0
  7 37  1  0
 10 38  1  0
 12 39  1  0
 15 40  1  0
 16 41  1  0
 18 42  1  0
 20 43  1  0
 20 44  1  0
 20 45  1  0
 23 46  1  0
 23 47  1  0
 23 48  1  0
 25 49  1  0
 26 50  1  0
 28 51  1  0
 29 52  1  0
 33 53  1  0
 33 54  1  0
M  END
>  <score>  (4) 
-8.197

$$$$
=
     RDKit          3D

 54 57  0  0  0  0  0  0  0  0999 V2000
    0.0200   60.7670   73.0960 C   0  0  1  0  0  0  0  0  0  0  0  0
    0.4840   61.8140   72.0810 C   0  0  0  0  0  0  0  0  0  0  0  0
    1.8000   61.2210   71.6610 C   0  0  0  0  0  0  0  0  0  0  0  0
    2.0270   60.0190   72.0970 N   0  0  0  0  0  0  0  0  0  0  0  0
    0.9690   59.6690   72.8860 N   0  0  0  0  0  0  0  0  0  0  0  0
    2.7450   61.9510   70.7870 C   0  0  0  0  0  0  0  0  0  0  0  0
    2.6310   61.9130   69.3950 C   0  0  0  0  0  0  0  0  0  0  0  0
    3.5460   62.6160   68.6140 C   0  0  0  0  0  0  0  0  0  0  0  0
    3.4330   62.5760   67.2800 F   0  0  0  0  0  0  0  0  0  0  0  0
    4.5700   63.3560   69.1890 C   0  0  0  0  0  0  0  0  0  0  0  0
    4.6750   63.3870   70.5710 C   0  0  0  0  0  0  0  0  0  0  0  0
    3.7760   62.6930   71.3760 C   0  0  0  0  0  0  0  0  0  0  0  0
    5.6570   64.0960   71.1400 F   0  0  0  0  0  0  0  0  0  0  0  0
    0.0850   62.4680   77.1070 C   0  0  0  0  0  0  0  0  0  0  0  0
    1.1500   61.6800   76.6560 C   0  0  0  0  0  0  0  0  0  0  0  0
    1.1350   61.1170   75.3750 C   0  0  0  0  0  0  0  0  0  0  0  0
    0.0540   61.3250   74.5100 C   0  0  0  0  0  0  0  0  0  0  0  0
   -1.0100   62.1150   74.9650 C   0  0  0  0  0  0  0  0  0  0  0  0
   -1.0160   62.6630   76.2550 C   0  0  0  0  0  0  0  0  0  0  0  0
    1.2330   63.7670   78.7550 C   0  0  0  0  0  0  0  0  0  0  0  0
    0.0600   63.0870   78.3290 O   0  0  0  0  0  0  0  0  0  0  0  0
   -2.1350   63.4100   76.5240 O   0  0  0  0  0  0  0  0  0  0  0  0
   -3.3810   62.7480   76.3390 C   0  0  0  0  0  0  0  0  0  0  0  0
    0.8080   58.3560   73.3260 C   0  0  0  0  0  0  0  0  0  0  0  0
    1.8310   57.4060   73.1380 C   0  0  0  0  0  0  0  0  0  0  0  0
    1.7060   56.0830   73.5710 C   0  0  0  0  0  0  0  0  0  0  0  0
    0.5400   55.6860   74.2200 C   0  0  0  0  0  0  0  0  0  0  0  0
   -0.5010   56.5930   74.4140 C   0  0  0  0  0  0  0  0  0  0  0  0
   -0.3580   57.9140   73.9730 C   0  0  0  0  0  0  0  0  0  0  0  0
    0.3610   54.0180   74.7850 S   0  0  0  0  0  6  0  0  0  0  0  0
   -0.0810   54.0420   76.1590 O   0  0  0  0  0  0  0  0  0  0  0  0
   -0.3150   53.2530   73.7630 O   0  0  0  0  0  0  0  0  0  0  0  0
    1.9610   53.4870   74.7650 N   0  0  0  0  0  0  0  0  0  0  0  0
   -1.0228   60.4428   72.9636 H   0  0  0  0  0  0  0  0  0  0  0  0
   -0.2134   61.8963   71.2343 H   0  0  0  0  0  0  0  0  0  0  0  0
    0.5471   62.8391   72.4750 H   0  0  0  0  0  0  0  0  0  0  0  0
    1.8260   61.3332   68.9198 H   0  0  0  0  0  0  0  0  0  0  0  0
    5.2845   63.9073   68.5601 H   0  0  0  0  0  0  0  0  0  0  0  0
    3.8752   62.7274   72.4710 H   0  0  0  0  0  0  0  0  0  0  0  0
    2.0105   61.5008   77.3174 H   0  0  0  0  0  0  0  0  0  0  0  0
    1.9846   60.5023   75.0429 H   0  0  0  0  0  0  0  0  0  0  0  0
   -1.8600   62.3096   74.2945 H   0  0  0  0  0  0  0  0  0  0  0  0
    1.2667   63.7865   79.8543 H   0  0  0  0  0  0  0  0  0  0  0  0
    2.1206   63.2434   78.3702 H   0  0  0  0  0  0  0  0  0  0  0  0
    1.2197   64.7974   78.3702 H   0  0  0  0  0  0  0  0  0  0  0  0
   -3.8211   62.5142   77.3196 H   0  0  0  0  0  0  0  0  0  0  0  0
   -4.0639   63.4022   75.7772 H   0  0  0  0  0  0  0  0  0  0  0  0
   -3.2211   61.8159   75.7772 H   0  0  0  0  0  0  0  0  0  0  0  0
    2.7585   57.7155   72.6340 H   0  0  0  0  0  0  0  0  0  0  0  0
    2.5201   55.3631   73.4008 H   0  0  0  0  0  0  0  0  0  0  0  0
   -1.4288   56.2726   74.9105 H   0  0  0  0  0  0  0  0  0  0  0  0
   -1.1809   58.6251   74.1376 H   0  0  0  0  0  0  0  0  0  0  0  0
    2.2978   53.3752   75.7320 H   0  0  0  0  0  0  0  0  0  0  0  0
    2.0165   52.5825   74.2754 H   0  0  0  0  0  0  0  0  0  0  0  0
  2  1  1  0
  3  2  1  0
  4  3  2  0
  5  4  1  0
  5  1  1  0
  6  3  1  0
  7  6  2  0
  8  7  1  0
  9  8  1  0
 10  8  2  0
 11 10  1  0
 12 11  2  0
 12  6  1  0
 13 11  1  0
 15 14  2  0
 16 15  1  0
 17 16  2  0
 17  1  1  0
 18 17  1  0
 19 14  1  0
 19 18  2  0
 21 20  1  0
 21 14  1  0
 22 19  1  0
 23 22  1  0
 24  5  1  0
 25 24  2  0
 26 25  1  0
 27 26  2  0
 28 27  1  0
 29 28  2  0
 29 24  1  0
 30 27  1  0
 31 30  2  0
 32 30  2  0
 33 30  1  0
  1 34  1  6
  2 35  1  0
  2 36  1  0
  7 37  1  0
 10 38  1  0
 12 39  1  0
 15 40  1  0
 16 41  1  0
 18 42  1  0
 20 43  1  0
 20 44  1  0
 20 45  1  0
 23 46  1  0
 23 47  1  0
 23 48  1  0
 25 49  1  0
 26 50  1  0
 28 51  1  0
 29 52  1  0
 33 53  1  0
 33 54  1  0
M  END
>  <score>  (5) 
-8.028

$$$$
=
     RDKit          3D

 54 57  0  0  0  0  0  0  0  0999 V2000
   -1.5580   59.4690   75.3780 C   0  0  1  0  0  0  0  0  0  0  0  0
   -1.6150   58.0710   75.9950 C   0  0  0  0  0  0  0  0  0  0  0  0
   -1.1840   57.2370   74.8200 C   0  0  0  0  0  0  0  0  0  0  0  0
   -0.7470   57.9090   73.7990 N   0  0  0  0  0  0  0  0  0  0  0  0
   -0.8710   59.2340   74.1050 N   0  0  0  0  0  0  0  0  0  0  0  0
   -1.2290   55.7580   74.8500 C   0  0  0  0  0  0  0  0  0  0  0  0
   -0.2220   54.9850   74.2660 C   0  0  0  0  0  0  0  0  0  0  0  0
   -0.3080   53.5950   74.3200 C   0  0  0  0  0  0  0  0  0  0  0  0
    0.6590   52.8590   73.7580 F   0  0  0  0  0  0  0  0  0  0  0  0
   -1.3750   52.9600   74.9400 C   0  0  0  0  0  0  0  0  0  0  0  0
   -2.3700   53.7360   75.5150 C   0  0  0  0  0  0  0  0  0  0  0  0
   -2.3100   55.1260   75.4770 C   0  0  0  0  0  0  0  0  0  0  0  0
   -3.4040   53.1380   76.1180 F   0  0  0  0  0  0  0  0  0  0  0  0
   -5.5490   61.1760   74.9870 C   0  0  0  0  0  0  0  0  0  0  0  0
   -5.3310   59.8190   74.7240 C   0  0  0  0  0  0  0  0  0  0  0  0
   -4.0520   59.2610   74.8330 C   0  0  0  0  0  0  0  0  0  0  0  0
   -2.9540   60.0460   75.2060 C   0  0  0  0  0  0  0  0  0  0  0  0
   -3.1760   61.4050   75.4690 C   0  0  0  0  0  0  0  0  0  0  0  0
   -4.4490   61.9770   75.3390 C   0  0  0  0  0  0  0  0  0  0  0  0
   -7.6660   61.3980   73.8980 C   0  0  0  0  0  0  0  0  0  0  0  0
   -6.7810   61.7720   74.9460 O   0  0  0  0  0  0  0  0  0  0  0  0
   -4.4760   63.3160   75.6410 O   0  0  0  0  0  0  0  0  0  0  0  0
   -3.6210   63.7300   76.7000 C   0  0  0  0  0  0  0  0  0  0  0  0
   -0.2850   60.2110   73.3010 C   0  0  0  0  0  0  0  0  0  0  0  0
    1.0390   60.0650   72.8430 C   0  0  0  0  0  0  0  0  0  0  0  0
    1.6550   61.0220   72.0320 C   0  0  0  0  0  0  0  0  0  0  0  0
    0.9400   62.1540   71.6510 C   0  0  0  0  0  0  0  0  0  0  0  0
   -0.3680   62.3420   72.0920 C   0  0  0  0  0  0  0  0  0  0  0  0
   -0.9690   61.3730   72.9060 C   0  0  0  0  0  0  0  0  0  0  0  0
    1.6970   63.3760   70.6170 S   0  0  0  0  0  6  0  0  0  0  0  0
    0.6750   64.2860   70.1570 O   0  0  0  0  0  0  0  0  0  0  0  0
    2.9150   63.8290   71.2500 O   0  0  0  0  0  0  0  0  0  0  0  0
    2.1890   62.4420   69.3030 N   0  0  0  0  0  0  0  0  0  0  0  0
   -1.0366   60.2136   75.9975 H   0  0  0  0  0  0  0  0  0  0  0  0
   -0.9191   57.9715   76.8411 H   0  0  0  0  0  0  0  0  0  0  0  0
   -2.5918   57.7960   76.4195 H   0  0  0  0  0  0  0  0  0  0  0  0
    0.6310   55.4693   73.7681 H   0  0  0  0  0  0  0  0  0  0  0  0
   -1.4303   51.8619   74.9746 H   0  0  0  0  0  0  0  0  0  0  0  0
   -3.1087   55.7259   75.9377 H   0  0  0  0  0  0  0  0  0  0  0  0
   -6.1770   59.1816   74.4273 H   0  0  0  0  0  0  0  0  0  0  0  0
   -3.9073   58.1910   74.6228 H   0  0  0  0  0  0  0  0  0  0  0  0
   -2.3324   62.0365   75.7844 H   0  0  0  0  0  0  0  0  0  0  0  0
   -8.5984   61.0040   74.3286 H   0  0  0  0  0  0  0  0  0  0  0  0
   -7.8918   62.2776   73.2773 H   0  0  0  0  0  0  0  0  0  0  0  0
   -7.1925   60.6230   73.2773 H   0  0  0  0  0  0  0  0  0  0  0  0
   -4.0955   63.5003   77.6655 H   0  0  0  0  0  0  0  0  0  0  0  0
   -2.6618   63.1966   76.6267 H   0  0  0  0  0  0  0  0  0  0  0  0
   -3.4446   64.8133   76.6267 H   0  0  0  0  0  0  0  0  0  0  0  0
    1.6066   59.1685   73.1331 H   0  0  0  0  0  0  0  0  0  0  0  0
    2.6938   60.8823   71.6983 H   0  0  0  0  0  0  0  0  0  0  0  0
   -0.9253   63.2453   71.8030 H   0  0  0  0  0  0  0  0  0  0  0  0
   -2.0042   61.5260   73.2450 H   0  0  0  0  0  0  0  0  0  0  0  0
    2.6420   61.5820   69.6436 H   0  0  0  0  0  0  0  0  0  0  0  0
    1.3687   62.1947   68.7312 H   0  0  0  0  0  0  0  0  0  0  0  0
  2  1  1  0
  3  2  1  0
  4  3  2  0
  5  4  1  0
  5  1  1  0
  6  3  1  0
  7  6  2  0
  8  7  1  0
  9  8  1  0
 10  8  2  0
 11 10  1  0
 12 11  2  0
 12  6  1  0
 13 11  1  0
 15 14  2  0
 16 15  1  0
 17 16  2  0
 17  1  1  0
 18 17  1  0
 19 14  1  0
 19 18  2  0
 21 20  1  0
 21 14  1  0
 22 19  1  0
 23 22  1  0
 24  5  1  0
 25 24  2  0
 26 25  1  0
 27 26  2  0
 28 27  1  0
 29 28  2  0
 29 24  1  0
 30 27  1  0
 31 30  2  0
 32 30  2  0
 33 30  1  0
  1 34  1  1
  2 35  1  0
  2 36  1  0
  7 37  1  0
 10 38  1  0
 12 39  1  0
 15 40  1  0
 16 41  1  0
 18 42  1  0
 20 43  1  0
 20 44  1  0
 20 45  1  0
 23 46  1  0
 23 47  1  0
 23 48  1  0
 25 49  1  0
 26 50  1  0
 28 51  1  0
 29 52  1  0
 33 53  1  0
 33 54  1  0
M  END
>  <score>  (6) 
-7.971

$$$$
=
     RDKit          3D

 54 57  0  0  0  0  0  0  0  0999 V2000
   -0.3150   59.8110   73.3940 C   0  0  1  0  0  0  0  0  0  0  0  0
    0.3540   60.8670   72.5130 C   0  0  0  0  0  0  0  0  0  0  0  0
    1.7760   60.3790   72.5370 C   0  0  0  0  0  0  0  0  0  0  0  0
    1.9490   59.2130   73.0800 N   0  0  0  0  0  0  0  0  0  0  0  0
    0.7320   58.7940   73.5330 N   0  0  0  0  0  0  0  0  0  0  0  0
    2.8850   61.1650   71.9500 C   0  0  0  0  0  0  0  0  0  0  0  0
    4.1570   60.6160   71.7750 C   0  0  0  0  0  0  0  0  0  0  0  0
    5.1690   61.3950   71.2180 C   0  0  0  0  0  0  0  0  0  0  0  0
    6.3870   60.8640   71.0540 F   0  0  0  0  0  0  0  0  0  0  0  0
    4.9410   62.7090   70.8330 C   0  0  0  0  0  0  0  0  0  0  0  0
    3.6750   63.2450   71.0110 C   0  0  0  0  0  0  0  0  0  0  0  0
    2.6450   62.4900   71.5650 C   0  0  0  0  0  0  0  0  0  0  0  0
    3.4390   64.5100   70.6430 F   0  0  0  0  0  0  0  0  0  0  0  0
   -1.5680   61.6200   77.1560 C   0  0  0  0  0  0  0  0  0  0  0  0
   -0.5200   60.6930   77.1310 C   0  0  0  0  0  0  0  0  0  0  0  0
   -0.1170   60.0940   75.9320 C   0  0  0  0  0  0  0  0  0  0  0  0
   -0.7520   60.4060   74.7230 C   0  0  0  0  0  0  0  0  0  0  0  0
   -1.8000   61.3350   74.7520 C   0  0  0  0  0  0  0  0  0  0  0  0
   -2.2270   61.9210   75.9510 C   0  0  0  0  0  0  0  0  0  0  0  0
   -1.4530   61.8420   79.5340 C   0  0  0  0  0  0  0  0  0  0  0  0
   -1.9780   62.2760   78.2860 O   0  0  0  0  0  0  0  0  0  0  0  0
   -3.2610   62.8080   75.7860 O   0  0  0  0  0  0  0  0  0  0  0  0
   -4.5620   62.2370   75.7070 C   0  0  0  0  0  0  0  0  0  0  0  0
    0.5430   57.4840   73.9710 C   0  0  0  0  0  0  0  0  0  0  0  0
   -0.7380   56.9000   73.9590 C   0  0  0  0  0  0  0  0  0  0  0  0
   -0.9620   55.5880   74.3860 C   0  0  0  0  0  0  0  0  0  0  0  0
    0.1140   54.8230   74.8270 C   0  0  0  0  0  0  0  0  0  0  0  0
    1.3960   55.3670   74.8650 C   0  0  0  0  0  0  0  0  0  0  0  0
    1.6010   56.6840   74.4360 C   0  0  0  0  0  0  0  0  0  0  0  0
   -0.1440   53.1550   75.3650 S   0  0  0  0  0  6  0  0  0  0  0  0
    1.1270   52.4710   75.3670 O   0  0  0  0  0  0  0  0  0  0  0  0
   -1.0220   53.1690   76.5120 O   0  0  0  0  0  0  0  0  0  0  0  0
   -1.0640   52.5360   74.0970 N   0  0  0  0  0  0  0  0  0  0  0  0
   -1.2418   59.3946   72.9726 H   0  0  0  0  0  0  0  0  0  0  0  0
   -0.0588   60.8667   71.4934 H   0  0  0  0  0  0  0  0  0  0  0  0
    0.2182   61.9037   72.8549 H   0  0  0  0  0  0  0  0  0  0  0  0
    4.3584   59.5769   72.0745 H   0  0  0  0  0  0  0  0  0  0  0  0
    5.7492   63.3132   70.3952 H   0  0  0  0  0  0  0  0  0  0  0  0
    1.6469   62.9322   71.6998 H   0  0  0  0  0  0  0  0  0  0  0  0
   -0.0054   60.4313   78.0673 H   0  0  0  0  0  0  0  0  0  0  0  0
    0.7096   59.3683   75.9391 H   0  0  0  0  0  0  0  0  0  0  0  0
   -2.2994   61.6109   73.8115 H   0  0  0  0  0  0  0  0  0  0  0  0
   -2.0192   62.3101   80.3527 H   0  0  0  0  0  0  0  0  0  0  0  0
   -1.5390   60.7478   79.6074 H   0  0  0  0  0  0  0  0  0  0  0  0
   -0.3945   62.1323   79.6074 H   0  0  0  0  0  0  0  0  0  0  0  0
   -4.9500   62.0667   76.7221 H   0  0  0  0  0  0  0  0  0  0  0  0
   -5.2318   62.9239   75.1689 H   0  0  0  0  0  0  0  0  0  0  0  0
   -4.5099   61.2790   75.1689 H   0  0  0  0  0  0  0  0  0  0  0  0
   -1.5908   57.4959   73.6018 H   0  0  0  0  0  0  0  0  0  0  0  0
   -1.9773   55.1648   74.3737 H   0  0  0  0  0  0  0  0  0  0  0  0
    2.2418   54.7657   75.2297 H   0  0  0  0  0  0  0  0  0  0  0  0
    2.6174   57.1038   74.4636 H   0  0  0  0  0  0  0  0  0  0  0  0
   -1.8580   52.0018   74.4778 H   0  0  0  0  0  0  0  0  0  0  0  0
   -1.4177   53.3116   73.5189 H   0  0  0  0  0  0  0  0  0  0  0  0
  2  1  1  0
  3  2  1  0
  4  3  2  0
  5  4  1  0
  5  1  1  0
  6  3  1  0
  7  6  2  0
  8  7  1  0
  9  8  1  0
 10  8  2  0
 11 10  1  0
 12 11  2  0
 12  6  1  0
 13 11  1  0
 15 14  2  0
 16 15  1  0
 17 16  2  0
 17  1  1  0
 18 17  1  0
 19 14  1  0
 19 18  2  0
 21 20  1  0
 21 14  1  0
 22 19  1  0
 23 22  1  0
 24  5  1  0
 25 24  2  0
 26 25  1  0
 27 26  2  0
 28 27  1  0
 29 28  2  0
 29 24  1  0
 30 27  1  0
 31 30  2  0
 32 30  2  0
 33 30  1  0
  1 34  1  6
  2 35  1  0
  2 36  1  0
  7 37  1  0
 10 38  1  0
 12 39  1  0
 15 40  1  0
 16 41  1  0
 18 42  1  0
 20 43  1  0
 20 44  1  0
 20 45  1  0
 23 46  1  0
 23 47  1  0
 23 48  1  0
 25 49  1  0
 26 50  1  0
 28 51  1  0
 29 52  1  0
 33 53  1  0
 33 54  1  0
M  END
>  <score>  (7) 
-7.814

$$$$
=
     RDKit          3D

 54 57  0  0  0  0  0  0  0  0999 V2000
   -0.7540   60.5850   75.1520 C   0  0  1  0  0  0  0  0  0  0  0  0
   -1.9350   61.5020   75.4750 C   0  0  0  0  0  0  0  0  0  0  0  0
   -3.0750   60.6640   74.9660 C   0  0  0  0  0  0  0  0  0  0  0  0
   -2.7590   59.4530   74.6240 N   0  0  0  0  0  0  0  0  0  0  0  0
   -1.4100   59.3250   74.7890 N   0  0  0  0  0  0  0  0  0  0  0  0
   -4.4600   61.1840   74.8980 C   0  0  0  0  0  0  0  0  0  0  0  0
   -5.4510   60.5260   74.1660 C   0  0  0  0  0  0  0  0  0  0  0  0
   -6.7410   61.0540   74.1310 C   0  0  0  0  0  0  0  0  0  0  0  0
   -7.6870   60.4200   73.4270 F   0  0  0  0  0  0  0  0  0  0  0  0
   -7.0620   62.2220   74.8080 C   0  0  0  0  0  0  0  0  0  0  0  0
   -6.0710   62.8680   75.5310 C   0  0  0  0  0  0  0  0  0  0  0  0
   -4.7740   62.3640   75.5830 C   0  0  0  0  0  0  0  0  0  0  0  0
   -6.3660   63.9950   76.1900 F   0  0  0  0  0  0  0  0  0  0  0  0
    1.7390   62.2960   72.0130 C   0  0  0  0  0  0  0  0  0  0  0  0
    0.3450   62.3100   71.8960 C   0  0  0  0  0  0  0  0  0  0  0  0
   -0.4670   61.7510   72.8900 C   0  0  0  0  0  0  0  0  0  0  0  0
    0.0940   61.1630   74.0300 C   0  0  0  0  0  0  0  0  0  0  0  0
    1.4910   61.1500   74.1440 C   0  0  0  0  0  0  0  0  0  0  0  0
    2.3120   61.6850   73.1420 C   0  0  0  0  0  0  0  0  0  0  0  0
    2.2550   64.1550   70.6010 C   0  0  0  0  0  0  0  0  0  0  0  0
    2.5860   62.8670   71.1010 O   0  0  0  0  0  0  0  0  0  0  0  0
    3.6510   61.5900   73.4280 O   0  0  0  0  0  0  0  0  0  0  0  0
    4.2650   60.3450   73.1120 C   0  0  0  0  0  0  0  0  0  0  0  0
   -0.7950   58.0760   74.7150 C   0  0  0  0  0  0  0  0  0  0  0  0
    0.0010   57.7340   73.6040 C   0  0  0  0  0  0  0  0  0  0  0  0
    0.6360   56.4920   73.4990 C   0  0  0  0  0  0  0  0  0  0  0  0
    0.4910   55.5640   74.5260 C   0  0  0  0  0  0  0  0  0  0  0  0
   -0.2980   55.8610   75.6360 C   0  0  0  0  0  0  0  0  0  0  0  0
   -0.9280   57.1080   75.7240 C   0  0  0  0  0  0  0  0  0  0  0  0
    1.2920   53.9890   74.4190 S   0  0  0  0  0  6  0  0  0  0  0  0
    1.8480   53.6670   75.7120 O   0  0  0  0  0  0  0  0  0  0  0  0
    0.4350   53.0820   73.6920 O   0  0  0  0  0  0  0  0  0  0  0  0
    2.5710   54.3370   73.3780 N   0  0  0  0  0  0  0  0  0  0  0  0
   -0.0443   60.4561   75.9824 H   0  0  0  0  0  0  0  0  0  0  0  0
   -2.0197   61.6908   76.5554 H   0  0  0  0  0  0  0  0  0  0  0  0
   -1.8706   62.5075   75.0336 H   0  0  0  0  0  0  0  0  0  0  0  0
   -5.2158   59.5994   73.6219 H   0  0  0  0  0  0  0  0  0  0  0  0
   -8.0838   62.6278   74.7717 H   0  0  0  0  0  0  0  0  0  0  0  0
   -3.9994   62.8907   76.1598 H   0  0  0  0  0  0  0  0  0  0  0  0
   -0.1199   62.7670   71.0100 H   0  0  0  0  0  0  0  0  0  0  0  0
   -1.5606   61.7741   72.7738 H   0  0  0  0  0  0  0  0  0  0  0  0
    1.9533   60.7100   75.0400 H   0  0  0  0  0  0  0  0  0  0  0  0
    2.0787   64.8409   71.4427 H   0  0  0  0  0  0  0  0  0  0  0  0
    3.0849   64.5342   69.9866 H   0  0  0  0  0  0  0  0  0  0  0  0
    1.3451   64.0871   69.9866 H   0  0  0  0  0  0  0  0  0  0  0  0
    4.5249   59.8179   74.0418 H   0  0  0  0  0  0  0  0  0  0  0  0
    3.5667   59.7303   72.5250 H   0  0  0  0  0  0  0  0  0  0  0  0
    5.1777   60.5248   72.5250 H   0  0  0  0  0  0  0  0  0  0  0  0
    0.1272   58.4669   72.7934 H   0  0  0  0  0  0  0  0  0  0  0  0
    1.2435   56.2514   72.6141 H   0  0  0  0  0  0  0  0  0  0  0  0
   -0.4249   55.1195   76.4385 H   0  0  0  0  0  0  0  0  0  0  0  0
   -1.5435   57.3358   76.6067 H   0  0  0  0  0  0  0  0  0  0  0  0
    3.4103   54.5654   73.9297 H   0  0  0  0  0  0  0  0  0  0  0  0
    2.7630   53.5177   72.7841 H   0  0  0  0  0  0  0  0  0  0  0  0
  2  1  1  0
  3  2  1  0
  4  3  2  0
  5  4  1  0
  5  1  1  0
  6  3  1  0
  7  6  2  0
  8  7  1  0
  9  8  1  0
 10  8  2  0
 11 10  1  0
 12 11  2  0
 12  6  1  0
 13 11  1  0
 15 14  2  0
 16 15  1  0
 17 16  2  0
 17  1  1  0
 18 17  1  0
 19 14  1  0
 19 18  2  0
 21 20  1  0
 21 14  1  0
 22 19  1  0
 23 22  1  0
 24  5  1  0
 25 24  2  0
 26 25  1  0
 27 26  2  0
 28 27  1  0
 29 28  2  0
 29 24  1  0
 30 27  1  0
 31 30  2  0
 32 30  2  0
 33 30  1  0
  1 34  1  1
  2 35  1  0
  2 36  1  0
  7 37  1  0
 10 38  1  0
 12 39  1  0
 15 40  1  0
 16 41  1  0
 18 42  1  0
 20 43  1  0
 20 44  1  0
 20 45  1  0
 23 46  1  0
 23 47  1  0
 23 48  1  0
 25 49  1  0
 26 50  1  0
 28 51  1  0
 29 52  1  0
 33 53  1  0
 33 54  1  0
M  END
>  <score>  (8) 
-7.736

$$$$
=
     RDKit          3D

 54 57  0  0  0  0  0  0  0  0999 V2000
    1.0310   61.0680   74.6630 C   0  0  1  0  0  0  0  0  0  0  0  0
    0.2860   62.2530   75.2790 C   0  0  0  0  0  0  0  0  0  0  0  0
   -1.0930   61.6680   75.4100 C   0  0  0  0  0  0  0  0  0  0  0  0
   -1.1770   60.3950   75.1690 N   0  0  0  0  0  0  0  0  0  0  0  0
    0.0670   59.9720   74.8000 N   0  0  0  0  0  0  0  0  0  0  0  0
   -2.2570   62.4880   75.8180 C   0  0  0  0  0  0  0  0  0  0  0  0
   -3.5630   62.1140   75.4930 C   0  0  0  0  0  0  0  0  0  0  0  0
   -4.6270   62.9190   75.8980 C   0  0  0  0  0  0  0  0  0  0  0  0
   -5.8770   62.5560   75.5830 F   0  0  0  0  0  0  0  0  0  0  0  0
   -4.4160   64.0860   76.6190 C   0  0  0  0  0  0  0  0  0  0  0  0
   -3.1160   64.4480   76.9360 C   0  0  0  0  0  0  0  0  0  0  0  0
   -2.0350   63.6640   76.5440 C   0  0  0  0  0  0  0  0  0  0  0  0
   -2.8980   65.5710   77.6310 F   0  0  0  0  0  0  0  0  0  0  0  0
    2.2300   61.8840   70.5540 C   0  0  0  0  0  0  0  0  0  0  0  0
    1.2140   62.6340   71.1560 C   0  0  0  0  0  0  0  0  0  0  0  0
    0.8090   62.3730   72.4710 C   0  0  0  0  0  0  0  0  0  0  0  0
    1.4110   61.3530   73.2190 C   0  0  0  0  0  0  0  0  0  0  0  0
    2.4280   60.6050   72.6120 C   0  0  0  0  0  0  0  0  0  0  0  0
    2.8230   60.8430   71.2880 C   0  0  0  0  0  0  0  0  0  0  0  0
    3.8060   63.0060   69.1480 C   0  0  0  0  0  0  0  0  0  0  0  0
    2.7040   62.1200   69.2910 O   0  0  0  0  0  0  0  0  0  0  0  0
    3.8340   60.0170   70.8660 O   0  0  0  0  0  0  0  0  0  0  0  0
    3.4680   58.6640   70.6180 C   0  0  0  0  0  0  0  0  0  0  0  0
    0.3550   58.6120   74.6870 C   0  0  0  0  0  0  0  0  0  0  0  0
    1.4530   58.0520   75.3700 C   0  0  0  0  0  0  0  0  0  0  0  0
    1.7680   56.6930   75.2830 C   0  0  0  0  0  0  0  0  0  0  0  0
    0.9680   55.8570   74.5080 C   0  0  0  0  0  0  0  0  0  0  0  0
   -0.1200   56.3750   73.8080 C   0  0  0  0  0  0  0  0  0  0  0  0
   -0.4190   57.7390   73.9050 C   0  0  0  0  0  0  0  0  0  0  0  0
    1.3430   54.1310   74.3900 S   0  0  0  0  0  6  0  0  0  0  0  0
    1.8640   53.6850   75.6610 O   0  0  0  0  0  0  0  0  0  0  0  0
    0.2500   53.4640   73.7200 O   0  0  0  0  0  0  0  0  0  0  0  0
    2.6140   54.1410   73.2840 N   0  0  0  0  0  0  0  0  0  0  0  0
    1.9903   60.8377   75.1494 H   0  0  0  0  0  0  0  0  0  0  0  0
    0.7040   62.5318   76.2575 H   0  0  0  0  0  0  0  0  0  0  0  0
    0.3370   63.1826   74.6931 H   0  0  0  0  0  0  0  0  0  0  0  0
   -3.7504   61.1924   74.9225 H   0  0  0  0  0  0  0  0  0  0  0  0
   -5.2644   64.7119   76.9330 H   0  0  0  0  0  0  0  0  0  0  0  0
   -1.0100   63.9673   76.8037 H   0  0  0  0  0  0  0  0  0  0  0  0
    0.7263   63.4402   70.5884 H   0  0  0  0  0  0  0  0  0  0  0  0
    0.0079   62.9767   72.9223 H   0  0  0  0  0  0  0  0  0  0  0  0
    2.9284   59.8124   73.1876 H   0  0  0  0  0  0  0  0  0  0  0  0
    4.1716   63.3000   70.1429 H   0  0  0  0  0  0  0  0  0  0  0  0
    4.6124   62.5019   68.5952 H   0  0  0  0  0  0  0  0  0  0  0  0
    3.4869   63.9019   68.5952 H   0  0  0  0  0  0  0  0  0  0  0  0
    3.3265   58.1410   71.5753 H   0  0  0  0  0  0  0  0  0  0  0  0
    2.5303   58.6372   70.0435 H   0  0  0  0  0  0  0  0  0  0  0  0
    4.2643   58.1682   70.0435 H   0  0  0  0  0  0  0  0  0  0  0  0
    2.0826   58.7055   75.9917 H   0  0  0  0  0  0  0  0  0  0  0  0
    2.6381   56.2883   75.8207 H   0  0  0  0  0  0  0  0  0  0  0  0
   -0.7402   55.7158   73.1829 H   0  0  0  0  0  0  0  0  0  0  0  0
   -1.2834   58.1379   73.3540 H   0  0  0  0  0  0  0  0  0  0  0  0
    3.5104   54.1481   73.7912 H   0  0  0  0  0  0  0  0  0  0  0  0
    2.5609   53.2996   72.6923 H   0  0  0  0  0  0  0  0  0  0  0  0
  2  1  1  0
  3  2  1  0
  4  3  2  0
  5  4  1  0
  5  1  1  0
  6  3  1  0
  7  6  2  0
  8  7  1  0
  9  8  1  0
 10  8  2  0
 11 10  1  0
 12 11  2  0
 12  6  1  0
 13 11  1  0
 15 14  2  0
 16 15  1  0
 17 16  2  0
 17  1  1  0
 18 17  1  0
 19 14  1  0
 19 18  2  0
 21 20  1  0
 21 14  1  0
 22 19  1  0
 23 22  1  0
 24  5  1  0
 25 24  2  0
 26 25  1  0
 27 26  2  0
 28 27  1  0
 29 28  2  0
 29 24  1  0
 30 27  1  0
 31 30  2  0
 32 30  2  0
 33 30  1  0
  1 34  1  1
  2 35  1  0
  2 36  1  0
  7 37  1  0
 10 38  1  0
 12 39  1  0
 15 40  1  0
 16 41  1  0
 18 42  1  0
 20 43  1  0
 20 44  1  0
 20 45  1  0
 23 46  1  0
 23 47  1  0
 23 48  1  0
 25 49  1  0
 26 50  1  0
 28 51  1  0
 29 52  1  0
 33 53  1  0
 33 54  1  0
M  END
>  <score>  (9) 
-7.724

$$$$
