=
     RDKit          3D

 56 61  0  0  0  0  0  0  0  0999 V2000
   -0.0720   66.5800   69.4030 C   0  0  0  0  0  0  0  0  0  0  0  0
   -1.3490   66.6270   68.8280 C   0  0  0  0  0  0  0  0  0  0  0  0
   -1.5260   67.1190   67.5330 C   0  0  0  0  0  0  0  0  0  0  0  0
   -0.4390   67.5930   66.7850 C   0  0  0  0  0  0  0  0  0  0  0  0
    0.8510   67.5780   67.3520 C   0  0  0  0  0  0  0  0  0  0  0  0
    1.0170   67.0710   68.6580 C   0  0  0  0  0  0  0  0  0  0  0  0
    1.9360   68.0720   66.5960 C   0  0  0  0  0  0  0  0  0  0  0  0
    1.7560   68.5790   65.2940 C   0  0  0  0  0  0  0  0  0  0  0  0
    0.4700   68.5600   64.7410 C   0  0  0  0  0  0  0  0  0  0  0  0
   -0.6140   68.0830   65.4830 C   0  0  0  0  0  0  0  0  0  0  0  0
    0.1380   66.0710   70.8110 C   0  0  0  0  0  0  0  0  0  0  0  0
    5.0620   62.3830   70.5200 C   0  0  0  0  0  0  0  0  0  0  0  0
    4.3820   61.1830   70.7080 C   0  0  0  0  0  0  0  0  0  0  0  0
    2.9980   61.1830   70.8810 C   0  0  0  0  0  0  0  0  0  0  0  0
    2.2780   62.3880   70.8660 C   0  0  0  0  0  0  0  0  0  0  0  0
    2.9660   63.6020   70.6770 C   0  0  0  0  0  0  0  0  0  0  0  0
    4.3610   63.5880   70.5040 C   0  0  0  0  0  0  0  0  0  0  0  0
    2.2330   64.7910   70.6660 C   0  0  0  0  0  0  0  0  0  0  0  0
    0.8890   64.7890   70.8420 N   0  0  0  0  0  4  0  0  0  0  0  0
    0.2190   63.6270   71.0150 C   0  0  0  0  0  0  0  0  0  0  0  0
    0.8930   62.4130   71.0340 C   0  0  0  0  0  0  0  0  0  0  0  0
    2.9450   69.0730   64.5000 C   0  0  0  0  0  0  0  0  0  0  0  0
    4.0810   69.4730   65.3700 N   0  0  0  0  0  4  0  0  0  0  0  0
    5.3350   69.5120   64.8650 C   0  0  0  0  0  0  0  0  0  0  0  0
    6.4110   69.8690   65.6650 C   0  0  0  0  0  0  0  0  0  0  0  0
    6.2020   70.1860   67.0090 C   0  0  0  0  0  0  0  0  0  0  0  0
    4.8940   70.1330   67.5270 C   0  0  0  0  0  0  0  0  0  0  0  0
    3.8520   69.7660   66.6730 C   0  0  0  0  0  0  0  0  0  0  0  0
    4.6720   70.4470   68.8790 C   0  0  0  0  0  0  0  0  0  0  0  0
    5.7380   70.8090   69.7040 C   0  0  0  0  0  0  0  0  0  0  0  0
    7.0300   70.8610   69.1910 C   0  0  0  0  0  0  0  0  0  0  0  0
    7.2640   70.5510   67.8500 C   0  0  0  0  0  0  0  0  0  0  0  0
   -2.2189   66.2736   69.4011 H   0  0  0  0  0  0  0  0  0  0  0  0
   -2.5340   67.1349   67.0930 H   0  0  0  0  0  0  0  0  0  0  0  0
    2.0219   67.0590   69.1052 H   0  0  0  0  0  0  0  0  0  0  0  0
    2.9452   68.0608   67.0336 H   0  0  0  0  0  0  0  0  0  0  0  0
    0.3116   68.9232   63.7149 H   0  0  0  0  0  0  0  0  0  0  0  0
   -1.6202   68.0921   65.0386 H   0  0  0  0  0  0  0  0  0  0  0  0
    0.7023   66.8252   71.3791 H   0  0  0  0  0  0  0  0  0  0  0  0
   -0.8524   65.8912   71.2547 H   0  0  0  0  0  0  0  0  0  0  0  0
    6.1535   62.3805   70.3839 H   0  0  0  0  0  0  0  0  0  0  0  0
    4.9370   60.2333   70.7201 H   0  0  0  0  0  0  0  0  0  0  0  0
    2.4666   60.2315   71.0303 H   0  0  0  0  0  0  0  0  0  0  0  0
    4.9028   64.5336   70.3551 H   0  0  0  0  0  0  0  0  0  0  0  0
    2.7560   65.7463   70.5117 H   0  0  0  0  0  0  0  0  0  0  0  0
   -0.8735   63.6437   71.1422 H   0  0  0  0  0  0  0  0  0  0  0  0
    0.3374   61.4750   71.1809 H   0  0  0  0  0  0  0  0  0  0  0  0
    3.2804   68.2686   63.8289 H   0  0  0  0  0  0  0  0  0  0  0  0
    2.6256   69.9618   63.9361 H   0  0  0  0  0  0  0  0  0  0  0  0
    5.5038   69.2578   63.8082 H   0  0  0  0  0  0  0  0  0  0  0  0
    7.4258   69.9023   65.2418 H   0  0  0  0  0  0  0  0  0  0  0  0
    2.8257   69.7137   67.0655 H   0  0  0  0  0  0  0  0  0  0  0  0
    3.6521   70.4072   69.2892 H   0  0  0  0  0  0  0  0  0  0  0  0
    5.5563   71.0534   70.7610 H   0  0  0  0  0  0  0  0  0  0  0  0
    7.8686   71.1468   69.8430 H   0  0  0  0  0  0  0  0  0  0  0  0
    8.2879   70.5932   67.4501 H   0  0  0  0  0  0  0  0  0  0  0  0
  2  1  2  0
  3  2  1  0
  4  3  2  0
  5  4  1  0
  6  5  2  0
  6  1  1  0
  7  5  1  0
  8  7  2  0
  9  8  1  0
 10  9  2  0
 10  4  1  0
 11  1  1  0
 13 12  2  0
 14 13  1  0
 15 14  2  0
 16 15  1  0
 17 16  2  0
 17 12  1  0
 18 16  1  0
 19 18  2  0
 19 11  1  0
 20 19  1  0
 21 20  2  0
 21 15  1  0
 22  8  1  0
 23 22  1  0
 24 23  2  0
 25 24  1  0
 26 25  2  0
 27 26  1  0
 28 23  1  0
 28 27  2  0
 29 27  1  0
 30 29  2  0
 31 30  1  0
 32 26  1  0
 32 31  2  0
  2 33  1  0
  3 34  1  0
  6 35  1  0
  7 36  1  0
  9 37  1  0
 10 38  1  0
 11 39  1  0
 11 40  1  0
 12 41  1  0
 13 42  1  0
 14 43  1  0
 17 44  1  0
 18 45  1  0
 20 46  1  0
 21 47  1  0
 22 48  1  0
 22 49  1  0
 24 50  1  0
 25 51  1  0
 28 52  1  0
 29 53  1  0
 30 54  1  0
 31 55  1  0
 32 56  1  0
M  CHG  2  19   1  23   1
M  END
>  <score>  (1) 
-13.62

$$$$
=
     RDKit          3D

 56 61  0  0  0  0  0  0  0  0999 V2000
    1.7190   68.5450   65.3950 C   0  0  0  0  0  0  0  0  0  0  0  0
    0.4290   68.4720   64.8530 C   0  0  0  0  0  0  0  0  0  0  0  0
   -0.6280   67.9540   65.6050 C   0  0  0  0  0  0  0  0  0  0  0  0
   -0.4230   67.4790   66.9080 C   0  0  0  0  0  0  0  0  0  0  0  0
    0.8710   67.5190   67.4640 C   0  0  0  0  0  0  0  0  0  0  0  0
    1.9280   68.0520   66.6970 C   0  0  0  0  0  0  0  0  0  0  0  0
    1.0690   67.0230   68.7710 C   0  0  0  0  0  0  0  0  0  0  0  0
    0.0060   66.4900   69.5250 C   0  0  0  0  0  0  0  0  0  0  0  0
   -1.2770   66.4840   68.9620 C   0  0  0  0  0  0  0  0  0  0  0  0
   -1.4840   66.9630   67.6660 C   0  0  0  0  0  0  0  0  0  0  0  0
    2.8810   69.0820   64.5890 C   0  0  0  0  0  0  0  0  0  0  0  0
    5.7900   70.8630   69.7180 C   0  0  0  0  0  0  0  0  0  0  0  0
    7.0730   70.8890   69.1800 C   0  0  0  0  0  0  0  0  0  0  0  0
    7.2780   70.5520   67.8420 C   0  0  0  0  0  0  0  0  0  0  0  0
    6.1960   70.1850   67.0260 C   0  0  0  0  0  0  0  0  0  0  0  0
    4.8970   70.1580   67.5710 C   0  0  0  0  0  0  0  0  0  0  0  0
    4.7050   70.5010   68.9200 C   0  0  0  0  0  0  0  0  0  0  0  0
    3.8330   69.7900   66.7430 C   0  0  0  0  0  0  0  0  0  0  0  0
    4.0360   69.4550   65.4460 N   0  0  0  0  0  4  0  0  0  0  0  0
    5.2790   69.4880   64.9120 C   0  0  0  0  0  0  0  0  0  0  0  0
    6.3760   69.8470   65.6850 C   0  0  0  0  0  0  0  0  0  0  0  0
    0.2460   65.9950   70.9350 C   0  0  0  0  0  0  0  0  0  0  0  0
    0.9490   64.6870   70.9630 N   0  0  0  0  0  4  0  0  0  0  0  0
    0.2690   63.5650   71.2920 C   0  0  0  0  0  0  0  0  0  0  0  0
    0.9110   62.3340   71.3380 C   0  0  0  0  0  0  0  0  0  0  0  0
    2.2740   62.2510   71.0490 C   0  0  0  0  0  0  0  0  0  0  0  0
    2.9750   63.4270   70.7160 C   0  0  0  0  0  0  0  0  0  0  0  0
    2.2740   64.6350   70.6870 C   0  0  0  0  0  0  0  0  0  0  0  0
    4.3480   63.3550   70.4260 C   0  0  0  0  0  0  0  0  0  0  0  0
    5.0150   62.1300   70.4650 C   0  0  0  0  0  0  0  0  0  0  0  0
    4.3220   60.9700   70.7940 C   0  0  0  0  0  0  0  0  0  0  0  0
    2.9590   61.0270   71.0850 C   0  0  0  0  0  0  0  0  0  0  0  0
    0.2472   68.8254   63.8273 H   0  0  0  0  0  0  0  0  0  0  0  0
   -1.6369   67.9182   65.1681 H   0  0  0  0  0  0  0  0  0  0  0  0
    2.9402   68.0832   67.1266 H   0  0  0  0  0  0  0  0  0  0  0  0
    2.0770   67.0537   69.2104 H   0  0  0  0  0  0  0  0  0  0  0  0
   -2.1272   66.0995   69.5444 H   0  0  0  0  0  0  0  0  0  0  0  0
   -2.4950   66.9349   67.2334 H   0  0  0  0  0  0  0  0  0  0  0  0
    3.2043   68.3092   63.8760 H   0  0  0  0  0  0  0  0  0  0  0  0
    2.5399   69.9897   64.0696 H   0  0  0  0  0  0  0  0  0  0  0  0
    5.6314   71.1282   70.7737 H   0  0  0  0  0  0  0  0  0  0  0  0
    7.9272   71.1758   69.8110 H   0  0  0  0  0  0  0  0  0  0  0  0
    8.2949   70.5739   67.4231 H   0  0  0  0  0  0  0  0  0  0  0  0
    3.6924   70.4839   69.3494 H   0  0  0  0  0  0  0  0  0  0  0  0
    2.8119   69.7720   67.1518 H   0  0  0  0  0  0  0  0  0  0  0  0
    5.4225   69.2274   63.8530 H   0  0  0  0  0  0  0  0  0  0  0  0
    7.3824   69.8646   65.2412 H   0  0  0  0  0  0  0  0  0  0  0  0
    0.8573   66.7363   71.4706 H   0  0  0  0  0  0  0  0  0  0  0  0
   -0.7346   65.8595   71.4147 H   0  0  0  0  0  0  0  0  0  0  0  0
   -0.8040   63.6280   71.5257 H   0  0  0  0  0  0  0  0  0  0  0  0
    0.3468   61.4272   71.6014 H   0  0  0  0  0  0  0  0  0  0  0  0
    2.8088   65.5626   70.4350 H   0  0  0  0  0  0  0  0  0  0  0  0
    4.9005   64.2701   70.1666 H   0  0  0  0  0  0  0  0  0  0  0  0
    6.0897   62.0818   70.2354 H   0  0  0  0  0  0  0  0  0  0  0  0
    4.8499   60.0054   70.8248 H   0  0  0  0  0  0  0  0  0  0  0  0
    2.4172   60.1056   71.3446 H   0  0  0  0  0  0  0  0  0  0  0  0
  2  1  2  0
  3  2  1  0
  4  3  2  0
  5  4  1  0
  6  5  2  0
  6  1  1  0
  7  5  1  0
  8  7  2  0
  9  8  1  0
 10  9  2  0
 10  4  1  0
 11  1  1  0
 13 12  2  0
 14 13  1  0
 15 14  2  0
 16 15  1  0
 17 16  2  0
 17 12  1  0
 18 16  1  0
 19 18  2  0
 19 11  1  0
 20 19  1  0
 21 20  2  0
 21 15  1  0
 22  8  1  0
 23 22  1  0
 24 23  2  0
 25 24  1  0
 26 25  2  0
 27 26  1  0
 28 23  1  0
 28 27  2  0
 29 27  1  0
 30 29  2  0
 31 30  1  0
 32 26  1  0
 32 31  2  0
  2 33  1  0
  3 34  1  0
  6 35  1  0
  7 36  1  0
  9 37  1  0
 10 38  1  0
 11 39  1  0
 11 40  1  0
 12 41  1  0
 13 42  1  0
 14 43  1  0
 17 44  1  0
 18 45  1  0
 20 46  1  0
 21 47  1  0
 22 48  1  0
 22 49  1  0
 24 50  1  0
 25 51  1  0
 28 52  1  0
 29 53  1  0
 30 54  1  0
 31 55  1  0
 32 56  1  0
M  CHG  2  19   1  23   1
M  END
>  <score>  (2) 
-13.537

$$$$
=
     RDKit          3D

 56 61  0  0  0  0  0  0  0  0999 V2000
    1.9620   64.1310   70.9040 C   0  0  0  0  0  0  0  0  0  0  0  0
    0.6710   63.5890   70.8530 C   0  0  0  0  0  0  0  0  0  0  0  0
   -0.3460   64.2450   70.1560 C   0  0  0  0  0  0  0  0  0  0  0  0
   -0.1080   65.4660   69.5090 C   0  0  0  0  0  0  0  0  0  0  0  0
    1.1770   66.0420   69.5680 C   0  0  0  0  0  0  0  0  0  0  0  0
    2.1970   65.3650   70.2680 C   0  0  0  0  0  0  0  0  0  0  0  0
    1.4010   67.2790   68.9250 C   0  0  0  0  0  0  0  0  0  0  0  0
    0.3730   67.9460   68.2320 C   0  0  0  0  0  0  0  0  0  0  0  0
   -0.8890   67.3430   68.1650 C   0  0  0  0  0  0  0  0  0  0  0  0
   -1.1270   66.1230   68.8040 C   0  0  0  0  0  0  0  0  0  0  0  0
    3.0720   63.4470   71.6710 C   0  0  0  0  0  0  0  0  0  0  0  0
    1.9570   57.4480   72.5110 C   0  0  0  0  0  0  0  0  0  0  0  0
    2.7050   56.9880   71.4310 C   0  0  0  0  0  0  0  0  0  0  0  0
    3.3760   57.8930   70.6090 C   0  0  0  0  0  0  0  0  0  0  0  0
    3.3080   59.2710   70.8620 C   0  0  0  0  0  0  0  0  0  0  0  0
    2.5510   59.7380   71.9540 C   0  0  0  0  0  0  0  0  0  0  0  0
    1.8790   58.8160   72.7740 C   0  0  0  0  0  0  0  0  0  0  0  0
    2.4940   61.1140   72.1890 C   0  0  0  0  0  0  0  0  0  0  0  0
    3.1410   61.9910   71.3850 N   0  0  0  0  0  4  0  0  0  0  0  0
    3.8780   61.5510   70.3390 C   0  0  0  0  0  0  0  0  0  0  0  0
    3.9740   60.1950   70.0550 C   0  0  0  0  0  0  0  0  0  0  0  0
    0.6550   69.2560   67.5290 C   0  0  0  0  0  0  0  0  0  0  0  0
    2.1060   69.4730   67.2980 N   0  0  0  0  0  4  0  0  0  0  0  0
    2.6610   69.1150   66.1180 C   0  0  0  0  0  0  0  0  0  0  0  0
    4.0180   69.2960   65.8870 C   0  0  0  0  0  0  0  0  0  0  0  0
    4.8240   69.8470   66.8840 C   0  0  0  0  0  0  0  0  0  0  0  0
    4.2390   70.2090   68.1140 C   0  0  0  0  0  0  0  0  0  0  0  0
    2.8680   70.0010   68.2860 C   0  0  0  0  0  0  0  0  0  0  0  0
    5.0410   70.7620   69.1260 C   0  0  0  0  0  0  0  0  0  0  0  0
    6.4080   70.9540   68.9180 C   0  0  0  0  0  0  0  0  0  0  0  0
    6.9840   70.5980   67.7040 C   0  0  0  0  0  0  0  0  0  0  0  0
    6.1990   70.0460   66.6910 C   0  0  0  0  0  0  0  0  0  0  0  0
    0.4569   62.6397   71.3658 H   0  0  0  0  0  0  0  0  0  0  0  0
   -1.3496   63.7967   70.1139 H   0  0  0  0  0  0  0  0  0  0  0  0
    3.2008   65.8120   70.3184 H   0  0  0  0  0  0  0  0  0  0  0  0
    2.4024   67.7322   68.9665 H   0  0  0  0  0  0  0  0  0  0  0  0
   -1.6992   67.8332   67.6052 H   0  0  0  0  0  0  0  0  0  0  0  0
   -2.1287   65.6713   68.7532 H   0  0  0  0  0  0  0  0  0  0  0  0
    4.0309   63.9081   71.3920 H   0  0  0  0  0  0  0  0  0  0  0  0
    2.8644   63.5695   72.7443 H   0  0  0  0  0  0  0  0  0  0  0  0
    1.4272   56.7328   73.1573 H   0  0  0  0  0  0  0  0  0  0  0  0
    2.7670   55.9091   71.2256 H   0  0  0  0  0  0  0  0  0  0  0  0
    3.9632   57.5233   69.7555 H   0  0  0  0  0  0  0  0  0  0  0  0
    1.2874   59.1751   73.6290 H   0  0  0  0  0  0  0  0  0  0  0  0
    1.9128   61.4921   73.0429 H   0  0  0  0  0  0  0  0  0  0  0  0
    4.4082   62.2771   69.7052 H   0  0  0  0  0  0  0  0  0  0  0  0
    4.5719   59.8507   69.1983 H   0  0  0  0  0  0  0  0  0  0  0  0
    0.1389   69.2540   66.5576 H   0  0  0  0  0  0  0  0  0  0  0  0
    0.2928   70.0688   68.1757 H   0  0  0  0  0  0  0  0  0  0  0  0
    2.0298   68.6751   65.3318 H   0  0  0  0  0  0  0  0  0  0  0  0
    4.4565   69.0059   64.9208 H   0  0  0  0  0  0  0  0  0  0  0  0
    2.3978   70.2714   69.2430 H   0  0  0  0  0  0  0  0  0  0  0  0
    4.5892   71.0454   70.0881 H   0  0  0  0  0  0  0  0  0  0  0  0
    7.0298   71.3873   69.7153 H   0  0  0  0  0  0  0  0  0  0  0  0
    8.0610   70.7518   67.5415 H   0  0  0  0  0  0  0  0  0  0  0  0
    6.6621   69.7647   65.7337 H   0  0  0  0  0  0  0  0  0  0  0  0
  2  1  2  0
  3  2  1  0
  4  3  2  0
  5  4  1  0
  6  5  2  0
  6  1  1  0
  7  5  1  0
  8  7  2  0
  9  8  1  0
 10  9  2  0
 10  4  1  0
 11  1  1  0
 13 12  2  0
 14 13  1  0
 15 14  2  0
 16 15  1  0
 17 16  2  0
 17 12  1  0
 18 16  1  0
 19 18  2  0
 19 11  1  0
 20 19  1  0
 21 20  2  0
 21 15  1  0
 22  8  1  0
 23 22  1  0
 24 23  2  0
 25 24  1  0
 26 25  2  0
 27 26  1  0
 28 23  1  0
 28 27  2  0
 29 27  1  0
 30 29  2  0
 31 30  1  0
 32 26  1  0
 32 31  2  0
  2 33  1  0
  3 34  1  0
  6 35  1  0
  7 36  1  0
  9 37  1  0
 10 38  1  0
 11 39  1  0
 11 40  1  0
 12 41  1  0
 13 42  1  0
 14 43  1  0
 17 44  1  0
 18 45  1  0
 20 46  1  0
 21 47  1  0
 22 48  1  0
 22 49  1  0
 24 50  1  0
 25 51  1  0
 28 52  1  0
 29 53  1  0
 30 54  1  0
 31 55  1  0
 32 56  1  0
M  CHG  2  19   1  23   1
M  END
>  <score>  (3) 
-13.435

$$$$
=
     RDKit          3D

 56 61  0  0  0  0  0  0  0  0999 V2000
    0.3840   67.8870   68.3000 C   0  0  0  0  0  0  0  0  0  0  0  0
   -0.8750   67.2760   68.2450 C   0  0  0  0  0  0  0  0  0  0  0  0
   -1.0990   66.0550   68.8840 C   0  0  0  0  0  0  0  0  0  0  0  0
   -0.0700   65.4030   69.5780 C   0  0  0  0  0  0  0  0  0  0  0  0
    1.2120   65.9860   69.6260 C   0  0  0  0  0  0  0  0  0  0  0  0
    1.4220   67.2240   68.9830 C   0  0  0  0  0  0  0  0  0  0  0  0
    2.2440   65.3130   70.3130 C   0  0  0  0  0  0  0  0  0  0  0  0
    2.0220   64.0760   70.9480 C   0  0  0  0  0  0  0  0  0  0  0  0
    0.7340   63.5270   70.9100 C   0  0  0  0  0  0  0  0  0  0  0  0
   -0.2940   64.1780   70.2240 C   0  0  0  0  0  0  0  0  0  0  0  0
    0.6530   69.1990   67.5970 C   0  0  0  0  0  0  0  0  0  0  0  0
    6.4350   70.9440   68.8070 C   0  0  0  0  0  0  0  0  0  0  0  0
    6.9730   70.6060   67.5680 C   0  0  0  0  0  0  0  0  0  0  0  0
    6.1580   70.0550   66.5790 C   0  0  0  0  0  0  0  0  0  0  0  0
    4.7930   69.8380   66.8190 C   0  0  0  0  0  0  0  0  0  0  0  0
    4.2490   70.1780   68.0730 C   0  0  0  0  0  0  0  0  0  0  0  0
    5.0800   70.7330   69.0610 C   0  0  0  0  0  0  0  0  0  0  0  0
    2.8880   69.9540   68.2940 C   0  0  0  0  0  0  0  0  0  0  0  0
    2.1000   69.4120   67.3340 N   0  0  0  0  0  4  0  0  0  0  0  0
    2.6130   69.0900   66.1240 C   0  0  0  0  0  0  0  0  0  0  0  0
    3.9580   69.2910   65.8440 C   0  0  0  0  0  0  0  0  0  0  0  0
    3.1430   63.3960   71.7030 C   0  0  0  0  0  0  0  0  0  0  0  0
    3.2100   61.9380   71.4260 N   0  0  0  0  0  4  0  0  0  0  0  0
    3.9210   61.4860   70.3680 C   0  0  0  0  0  0  0  0  0  0  0  0
    3.9850   60.1290   70.0830 C   0  0  0  0  0  0  0  0  0  0  0  0
    3.3020   59.2180   70.8910 C   0  0  0  0  0  0  0  0  0  0  0  0
    2.5560   59.6990   71.9850 C   0  0  0  0  0  0  0  0  0  0  0  0
    2.5300   61.0760   72.2200 C   0  0  0  0  0  0  0  0  0  0  0  0
    1.8630   58.7920   72.8030 C   0  0  0  0  0  0  0  0  0  0  0  0
    1.9110   57.4220   72.5380 C   0  0  0  0  0  0  0  0  0  0  0  0
    2.6480   56.9480   71.4580 C   0  0  0  0  0  0  0  0  0  0  0  0
    3.3400   57.8390   70.6370 C   0  0  0  0  0  0  0  0  0  0  0  0
   -1.6938   67.7619   67.6941 H   0  0  0  0  0  0  0  0  0  0  0  0
   -2.0984   65.5974   68.8423 H   0  0  0  0  0  0  0  0  0  0  0  0
    2.4212   67.6828   69.0159 H   0  0  0  0  0  0  0  0  0  0  0  0
    3.2459   65.7653   70.3536 H   0  0  0  0  0  0  0  0  0  0  0  0
    0.5305   62.5761   71.4242 H   0  0  0  0  0  0  0  0  0  0  0  0
   -1.2949   63.7230   70.1898 H   0  0  0  0  0  0  0  0  0  0  0  0
    0.1148   69.2030   66.6377 H   0  0  0  0  0  0  0  0  0  0  0  0
    0.3078   70.0101   68.2549 H   0  0  0  0  0  0  0  0  0  0  0  0
    7.0792   71.3778   69.5860 H   0  0  0  0  0  0  0  0  0  0  0  0
    8.0418   70.7736   67.3689 H   0  0  0  0  0  0  0  0  0  0  0  0
    6.5893   69.7884   65.6028 H   0  0  0  0  0  0  0  0  0  0  0  0
    4.6591   71.0027   70.0409 H   0  0  0  0  0  0  0  0  0  0  0  0
    2.4477   70.2226   69.2656 H   0  0  0  0  0  0  0  0  0  0  0  0
    1.9558   68.6634   65.3520 H   0  0  0  0  0  0  0  0  0  0  0  0
    4.3635   69.0202   64.8580 H   0  0  0  0  0  0  0  0  0  0  0  0
    4.0976   63.8559   71.4076 H   0  0  0  0  0  0  0  0  0  0  0  0
    2.9492   63.5244   72.7782 H   0  0  0  0  0  0  0  0  0  0  0  0
    4.4548   62.2021   69.7259 H   0  0  0  0  0  0  0  0  0  0  0  0
    4.5718   59.7726   69.2235 H   0  0  0  0  0  0  0  0  0  0  0  0
    1.9462   61.4679   73.0659 H   0  0  0  0  0  0  0  0  0  0  0  0
    1.2787   59.1632   73.6579 H   0  0  0  0  0  0  0  0  0  0  0  0
    1.3659   56.7175   73.1834 H   0  0  0  0  0  0  0  0  0  0  0  0
    2.6854   55.8684   71.2506 H   0  0  0  0  0  0  0  0  0  0  0  0
    3.9199   57.4570   69.7839 H   0  0  0  0  0  0  0  0  0  0  0  0
  2  1  2  0
  3  2  1  0
  4  3  2  0
  5  4  1  0
  6  5  2  0
  6  1  1  0
  7  5  1  0
  8  7  2  0
  9  8  1  0
 10  9  2  0
 10  4  1  0
 11  1  1  0
 13 12  2  0
 14 13  1  0
 15 14  2  0
 16 15  1  0
 17 16  2  0
 17 12  1  0
 18 16  1  0
 19 18  2  0
 19 11  1  0
 20 19  1  0
 21 20  2  0
 21 15  1  0
 22  8  1  0
 23 22  1  0
 24 23  2  0
 25 24  1  0
 26 25  2  0
 27 26  1  0
 28 23  1  0
 28 27  2  0
 29 27  1  0
 30 29  2  0
 31 30  1  0
 32 26  1  0
 32 31  2  0
  2 33  1  0
  3 34  1  0
  6 35  1  0
  7 36  1  0
  9 37  1  0
 10 38  1  0
 11 39  1  0
 11 40  1  0
 12 41  1  0
 13 42  1  0
 14 43  1  0
 17 44  1  0
 18 45  1  0
 20 46  1  0
 21 47  1  0
 22 48  1  0
 22 49  1  0
 24 50  1  0
 25 51  1  0
 28 52  1  0
 29 53  1  0
 30 54  1  0
 31 55  1  0
 32 56  1  0
M  CHG  2  19   1  23   1
M  END
>  <score>  (4) 
-13.389

$$$$
=
     RDKit          3D

 56 61  0  0  0  0  0  0  0  0999 V2000
    1.5940   64.2720   71.0180 C   0  0  0  0  0  0  0  0  0  0  0  0
    0.3340   63.7740   70.6660 C   0  0  0  0  0  0  0  0  0  0  0  0
   -0.4990   64.4970   69.8080 C   0  0  0  0  0  0  0  0  0  0  0  0
   -0.1050   65.7410   69.2970 C   0  0  0  0  0  0  0  0  0  0  0  0
    1.1490   66.2730   69.6580 C   0  0  0  0  0  0  0  0  0  0  0  0
    1.9840   65.5280   70.5180 C   0  0  0  0  0  0  0  0  0  0  0  0
    1.5290   67.5330   69.1490 C   0  0  0  0  0  0  0  0  0  0  0  0
    0.6850   68.2670   68.2940 C   0  0  0  0  0  0  0  0  0  0  0  0
   -0.5460   67.7080   67.9270 C   0  0  0  0  0  0  0  0  0  0  0  0
   -0.9380   66.4650   68.4320 C   0  0  0  0  0  0  0  0  0  0  0  0
    2.5020   63.5150   71.9620 C   0  0  0  0  0  0  0  0  0  0  0  0
    2.2480   57.3640   72.1560 C   0  0  0  0  0  0  0  0  0  0  0  0
    2.9930   57.1310   71.0030 C   0  0  0  0  0  0  0  0  0  0  0  0
    3.4920   58.2040   70.2650 C   0  0  0  0  0  0  0  0  0  0  0  0
    3.2530   59.5240   70.6750 C   0  0  0  0  0  0  0  0  0  0  0  0
    2.4990   59.7600   71.8410 C   0  0  0  0  0  0  0  0  0  0  0  0
    2.0020   58.6710   72.5760 C   0  0  0  0  0  0  0  0  0  0  0  0
    2.2710   61.0810   72.2330 C   0  0  0  0  0  0  0  0  0  0  0  0
    2.7510   62.1220   71.5100 N   0  0  0  0  0  4  0  0  0  0  0  0
    3.4840   61.9040   70.3940 C   0  0  0  0  0  0  0  0  0  0  0  0
    3.7450   60.6130   69.9540 C   0  0  0  0  0  0  0  0  0  0  0  0
    1.1360   69.6020   67.7420 C   0  0  0  0  0  0  0  0  0  0  0  0
    2.3350   69.4800   66.8740 N   0  0  0  0  0  4  0  0  0  0  0  0
    3.5560   69.7870   67.3650 C   0  0  0  0  0  0  0  0  0  0  0  0
    4.6870   69.6930   66.5660 C   0  0  0  0  0  0  0  0  0  0  0  0
    4.5660   69.2840   65.2370 C   0  0  0  0  0  0  0  0  0  0  0  0
    3.2880   68.9750   64.7310 C   0  0  0  0  0  0  0  0  0  0  0  0
    2.1880   69.0890   65.5840 C   0  0  0  0  0  0  0  0  0  0  0  0
    3.1540   68.5640   63.3940 C   0  0  0  0  0  0  0  0  0  0  0  0
    4.2760   68.4620   62.5700 C   0  0  0  0  0  0  0  0  0  0  0  0
    5.5370   68.7670   63.0710 C   0  0  0  0  0  0  0  0  0  0  0  0
    5.6840   69.1770   64.3960 C   0  0  0  0  0  0  0  0  0  0  0  0
   -0.0027   62.8069   71.0676 H   0  0  0  0  0  0  0  0  0  0  0  0
   -1.4794   64.0832   69.5293 H   0  0  0  0  0  0  0  0  0  0  0  0
    2.9633   65.9392   70.8043 H   0  0  0  0  0  0  0  0  0  0  0  0
    2.5076   67.9516   69.4267 H   0  0  0  0  0  0  0  0  0  0  0  0
   -1.2085   68.2509   67.2368 H   0  0  0  0  0  0  0  0  0  0  0  0
   -1.9151   66.0483   68.1464 H   0  0  0  0  0  0  0  0  0  0  0  0
    3.4647   64.0433   72.0264 H   0  0  0  0  0  0  0  0  0  0  0  0
    2.0036   63.4667   72.9414 H   0  0  0  0  0  0  0  0  0  0  0  0
    1.8532   56.5168   72.7360 H   0  0  0  0  0  0  0  0  0  0  0  0
    3.1882   56.0997   70.6739 H   0  0  0  0  0  0  0  0  0  0  0  0
    4.0779   58.0136   69.3537 H   0  0  0  0  0  0  0  0  0  0  0  0
    1.4149   58.8502   73.4888 H   0  0  0  0  0  0  0  0  0  0  0  0
    1.6907   61.2803   73.1460 H   0  0  0  0  0  0  0  0  0  0  0  0
    3.8784   62.7606   69.8277 H   0  0  0  0  0  0  0  0  0  0  0  0
    4.3368   60.4494   69.0413 H   0  0  0  0  0  0  0  0  0  0  0  0
    0.3153   70.0357   67.1518 H   0  0  0  0  0  0  0  0  0  0  0  0
    1.4029   70.2443   68.5942 H   0  0  0  0  0  0  0  0  0  0  0  0
    3.6547   70.1153   68.4102 H   0  0  0  0  0  0  0  0  0  0  0  0
    5.6761   69.9402   66.9790 H   0  0  0  0  0  0  0  0  0  0  0  0
    1.1829   68.8571   65.2019 H   0  0  0  0  0  0  0  0  0  0  0  0
    2.1585   68.3211   62.9941 H   0  0  0  0  0  0  0  0  0  0  0  0
    4.1628   68.1403   61.5242 H   0  0  0  0  0  0  0  0  0  0  0  0
    6.4204   68.6847   62.4208 H   0  0  0  0  0  0  0  0  0  0  0  0
    6.6843   69.4184   64.7847 H   0  0  0  0  0  0  0  0  0  0  0  0
  2  1  2  0
  3  2  1  0
  4  3  2  0
  5  4  1  0
  6  5  2  0
  6  1  1  0
  7  5  1  0
  8  7  2  0
  9  8  1  0
 10  9  2  0
 10  4  1  0
 11  1  1  0
 13 12  2  0
 14 13  1  0
 15 14  2  0
 16 15  1  0
 17 16  2  0
 17 12  1  0
 18 16  1  0
 19 18  2  0
 19 11  1  0
 20 19  1  0
 21 20  2  0
 21 15  1  0
 22  8  1  0
 23 22  1  0
 24 23  2  0
 25 24  1  0
 26 25  2  0
 27 26  1  0
 28 23  1  0
 28 27  2  0
 29 27  1  0
 30 29  2  0
 31 30  1  0
 32 26  1  0
 32 31  2  0
  2 33  1  0
  3 34  1  0
  6 35  1  0
  7 36  1  0
  9 37  1  0
 10 38  1  0
 11 39  1  0
 11 40  1  0
 12 41  1  0
 13 42  1  0
 14 43  1  0
 17 44  1  0
 18 45  1  0
 20 46  1  0
 21 47  1  0
 22 48  1  0
 22 49  1  0
 24 50  1  0
 25 51  1  0
 28 52  1  0
 29 53  1  0
 30 54  1  0
 31 55  1  0
 32 56  1  0
M  CHG  2  19   1  23   1
M  END
>  <score>  (5) 
-12.509

$$$$
=
     RDKit          3D

 56 61  0  0  0  0  0  0  0  0999 V2000
    2.6650   63.0120   71.2670 C   0  0  0  0  0  0  0  0  0  0  0  0
    1.5720   62.9850   72.1420 C   0  0  0  0  0  0  0  0  0  0  0  0
    0.5390   63.9170   72.0160 C   0  0  0  0  0  0  0  0  0  0  0  0
    0.5790   64.9100   71.0260 C   0  0  0  0  0  0  0  0  0  0  0  0
    1.6810   64.9710   70.1500 C   0  0  0  0  0  0  0  0  0  0  0  0
    2.7130   64.0190   70.2840 C   0  0  0  0  0  0  0  0  0  0  0  0
    1.7180   65.9840   69.1680 C   0  0  0  0  0  0  0  0  0  0  0  0
    0.6820   66.9310   69.0470 C   0  0  0  0  0  0  0  0  0  0  0  0
   -0.4150   66.8350   69.9120 C   0  0  0  0  0  0  0  0  0  0  0  0
   -0.4600   65.8430   70.8950 C   0  0  0  0  0  0  0  0  0  0  0  0
    3.8040   62.0250   71.4010 C   0  0  0  0  0  0  0  0  0  0  0  0
    1.8020   56.4080   72.9410 C   0  0  0  0  0  0  0  0  0  0  0  0
    1.9740   56.5420   74.3160 C   0  0  0  0  0  0  0  0  0  0  0  0
    2.4750   57.7310   74.8460 C   0  0  0  0  0  0  0  0  0  0  0  0
    2.8080   58.8020   74.0020 C   0  0  0  0  0  0  0  0  0  0  0  0
    2.6350   58.6660   72.6110 C   0  0  0  0  0  0  0  0  0  0  0  0
    2.1290   57.4630   72.0910 C   0  0  0  0  0  0  0  0  0  0  0  0
    2.9730   59.7430   71.7870 C   0  0  0  0  0  0  0  0  0  0  0  0
    3.4670   60.8940   72.3040 N   0  0  0  0  0  4  0  0  0  0  0  0
    3.6270   61.0370   73.6400 C   0  0  0  0  0  0  0  0  0  0  0  0
    3.3080   60.0020   74.5090 C   0  0  0  0  0  0  0  0  0  0  0  0
    0.7390   67.9860   67.9640 C   0  0  0  0  0  0  0  0  0  0  0  0
    2.0080   68.7570   67.9900 N   0  0  0  0  0  4  0  0  0  0  0  0
    2.3430   69.4660   69.0910 C   0  0  0  0  0  0  0  0  0  0  0  0
    3.5170   70.2050   69.1300 C   0  0  0  0  0  0  0  0  0  0  0  0
    4.3620   70.2240   68.0180 C   0  0  0  0  0  0  0  0  0  0  0  0
    4.0000   69.4890   66.8720 C   0  0  0  0  0  0  0  0  0  0  0  0
    2.8050   68.7660   66.8940 C   0  0  0  0  0  0  0  0  0  0  0  0
    4.8420   69.5030   65.7470 C   0  0  0  0  0  0  0  0  0  0  0  0
    6.0280   70.2380   65.7610 C   0  0  0  0  0  0  0  0  0  0  0  0
    6.3850   70.9630   66.8930 C   0  0  0  0  0  0  0  0  0  0  0  0
    5.5580   70.9580   68.0170 C   0  0  0  0  0  0  0  0  0  0  0  0
    1.5265   62.2239   72.9348 H   0  0  0  0  0  0  0  0  0  0  0  0
   -0.3186   63.8715   72.7034 H   0  0  0  0  0  0  0  0  0  0  0  0
    3.5764   64.0643   69.6040 H   0  0  0  0  0  0  0  0  0  0  0  0
    2.5757   66.0353   68.4811 H   0  0  0  0  0  0  0  0  0  0  0  0
   -1.2484   67.5466   69.8168 H   0  0  0  0  0  0  0  0  0  0  0  0
   -1.3226   65.7931   71.5758 H   0  0  0  0  0  0  0  0  0  0  0  0
    4.0431   61.6235   70.4052 H   0  0  0  0  0  0  0  0  0  0  0  0
    4.6621   62.5585   71.8357 H   0  0  0  0  0  0  0  0  0  0  0  0
    1.4078   55.4690   72.5252 H   0  0  0  0  0  0  0  0  0  0  0  0
    1.7144   55.7088   74.9856 H   0  0  0  0  0  0  0  0  0  0  0  0
    2.6101   57.8301   75.9332 H   0  0  0  0  0  0  0  0  0  0  0  0
    1.9899   57.3530   71.0054 H   0  0  0  0  0  0  0  0  0  0  0  0
    2.8355   59.6547   70.6992 H   0  0  0  0  0  0  0  0  0  0  0  0
    4.0144   61.9846   74.0425 H   0  0  0  0  0  0  0  0  0  0  0  0
    3.4489   60.1276   75.5927 H   0  0  0  0  0  0  0  0  0  0  0  0
    0.6455   67.4927   66.9852 H   0  0  0  0  0  0  0  0  0  0  0  0
   -0.0858   68.6921   68.1404 H   0  0  0  0  0  0  0  0  0  0  0  0
    1.6771   69.4571   69.9665 H   0  0  0  0  0  0  0  0  0  0  0  0
    3.7812   70.7739   70.0336 H   0  0  0  0  0  0  0  0  0  0  0  0
    2.5050   68.1928   66.0044 H   0  0  0  0  0  0  0  0  0  0  0  0
    4.5643   68.9308   64.8495 H   0  0  0  0  0  0  0  0  0  0  0  0
    6.6812   70.2440   64.8760 H   0  0  0  0  0  0  0  0  0  0  0  0
    7.3207   71.5412   66.9023 H   0  0  0  0  0  0  0  0  0  0  0  0
    5.8458   71.5338   68.9090 H   0  0  0  0  0  0  0  0  0  0  0  0
  2  1  2  0
  3  2  1  0
  4  3  2  0
  5  4  1  0
  6  5  2  0
  6  1  1  0
  7  5  1  0
  8  7  2  0
  9  8  1  0
 10  9  2  0
 10  4  1  0
 11  1  1  0
 13 12  2  0
 14 13  1  0
 15 14  2  0
 16 15  1  0
 17 16  2  0
 17 12  1  0
 18 16  1  0
 19 18  2  0
 19 11  1  0
 20 19  1  0
 21 20  2  0
 21 15  1  0
 22  8  1  0
 23 22  1  0
 24 23  2  0
 25 24  1  0
 26 25  2  0
 27 26  1  0
 28 23  1  0
 28 27  2  0
 29 27  1  0
 30 29  2  0
 31 30  1  0
 32 26  1  0
 32 31  2  0
  2 33  1  0
  3 34  1  0
  6 35  1  0
  7 36  1  0
  9 37  1  0
 10 38  1  0
 11 39  1  0
 11 40  1  0
 12 41  1  0
 13 42  1  0
 14 43  1  0
 17 44  1  0
 18 45  1  0
 20 46  1  0
 21 47  1  0
 22 48  1  0
 22 49  1  0
 24 50  1  0
 25 51  1  0
 28 52  1  0
 29 53  1  0
 30 54  1  0
 31 55  1  0
 32 56  1  0
M  CHG  2  19   1  23   1
M  END
>  <score>  (6) 
-11.649

$$$$
=
     RDKit          3D

 56 61  0  0  0  0  0  0  0  0999 V2000
    4.0250   60.3910   72.9050 C   0  0  0  0  0  0  0  0  0  0  0  0
    5.0190   60.6040   71.9420 C   0  0  0  0  0  0  0  0  0  0  0  0
    4.9170   61.6670   71.0410 C   0  0  0  0  0  0  0  0  0  0  0  0
    3.8150   62.5330   71.0670 C   0  0  0  0  0  0  0  0  0  0  0  0
    2.7910   62.3230   72.0120 C   0  0  0  0  0  0  0  0  0  0  0  0
    2.9100   61.2510   72.9200 C   0  0  0  0  0  0  0  0  0  0  0  0
    1.6790   63.1920   72.0180 C   0  0  0  0  0  0  0  0  0  0  0  0
    1.5700   64.2570   71.1030 C   0  0  0  0  0  0  0  0  0  0  0  0
    2.6120   64.4620   70.1900 C   0  0  0  0  0  0  0  0  0  0  0  0
    3.7140   63.6040   70.1670 C   0  0  0  0  0  0  0  0  0  0  0  0
    4.1050   59.2330   73.8750 C   0  0  0  0  0  0  0  0  0  0  0  0
   -0.7280   56.0260   75.9460 C   0  0  0  0  0  0  0  0  0  0  0  0
   -1.1120   55.4940   74.7180 C   0  0  0  0  0  0  0  0  0  0  0  0
   -0.3920   55.8060   73.5650 C   0  0  0  0  0  0  0  0  0  0  0  0
    0.7240   56.6540   73.6290 C   0  0  0  0  0  0  0  0  0  0  0  0
    1.1120   57.1930   74.8710 C   0  0  0  0  0  0  0  0  0  0  0  0
    0.3790   56.8710   76.0250 C   0  0  0  0  0  0  0  0  0  0  0  0
    2.2250   58.0370   74.9150 C   0  0  0  0  0  0  0  0  0  0  0  0
    2.9180   58.3440   73.7920 N   0  0  0  0  0  4  0  0  0  0  0  0
    2.5580   57.8230   72.5960 C   0  0  0  0  0  0  0  0  0  0  0  0
    1.4610   56.9780   72.4890 C   0  0  0  0  0  0  0  0  0  0  0  0
    0.3790   65.1880   71.1570 C   0  0  0  0  0  0  0  0  0  0  0  0
    0.3390   66.1240   70.0050 N   0  0  0  0  0  4  0  0  0  0  0  0
    1.4220   66.8790   69.7130 C   0  0  0  0  0  0  0  0  0  0  0  0
    1.4000   67.7710   68.6490 C   0  0  0  0  0  0  0  0  0  0  0  0
    0.2460   67.8970   67.8730 C   0  0  0  0  0  0  0  0  0  0  0  0
   -0.8800   67.1130   68.1910 C   0  0  0  0  0  0  0  0  0  0  0  0
   -0.7970   66.2350   69.2740 C   0  0  0  0  0  0  0  0  0  0  0  0
   -2.0480   67.2340   67.4190 C   0  0  0  0  0  0  0  0  0  0  0  0
   -2.0950   68.1230   66.3440 C   0  0  0  0  0  0  0  0  0  0  0  0
   -0.9830   68.8960   66.0310 C   0  0  0  0  0  0  0  0  0  0  0  0
    0.1830   68.7870   66.7900 C   0  0  0  0  0  0  0  0  0  0  0  0
    5.8866   59.9294   71.8945 H   0  0  0  0  0  0  0  0  0  0  0  0
    5.7138   61.8268   70.2997 H   0  0  0  0  0  0  0  0  0  0  0  0
    2.1122   61.0822   73.6583 H   0  0  0  0  0  0  0  0  0  0  0  0
    0.8781   63.0336   72.7552 H   0  0  0  0  0  0  0  0  0  0  0  0
    2.5622   65.3053   69.4855 H   0  0  0  0  0  0  0  0  0  0  0  0
    4.5150   63.7708   69.4317 H   0  0  0  0  0  0  0  0  0  0  0  0
    5.0052   58.6430   73.6478 H   0  0  0  0  0  0  0  0  0  0  0  0
    4.1429   59.6489   74.8926 H   0  0  0  0  0  0  0  0  0  0  0  0
   -1.2978   55.7799   76.8542 H   0  0  0  0  0  0  0  0  0  0  0  0
   -1.9844   54.8267   74.6571 H   0  0  0  0  0  0  0  0  0  0  0  0
   -0.7016   55.3838   72.5976 H   0  0  0  0  0  0  0  0  0  0  0  0
    0.6799   57.2879   76.9975 H   0  0  0  0  0  0  0  0  0  0  0  0
    2.5442   58.4598   75.8790 H   0  0  0  0  0  0  0  0  0  0  0  0
    3.1415   58.0719   71.6974 H   0  0  0  0  0  0  0  0  0  0  0  0
    1.1743   56.5660   71.5102 H   0  0  0  0  0  0  0  0  0  0  0  0
   -0.5410   64.5850   71.1543 H   0  0  0  0  0  0  0  0  0  0  0  0
    0.4646   65.7889   72.0744 H   0  0  0  0  0  0  0  0  0  0  0  0
    2.3310   66.7855   70.3254 H   0  0  0  0  0  0  0  0  0  0  0  0
    2.2889   68.3765   68.4182 H   0  0  0  0  0  0  0  0  0  0  0  0
   -1.6707   65.6215   69.5389 H   0  0  0  0  0  0  0  0  0  0  0  0
   -2.9305   66.6245   67.6634 H   0  0  0  0  0  0  0  0  0  0  0  0
   -3.0127   68.2119   65.7441 H   0  0  0  0  0  0  0  0  0  0  0  0
   -1.0222   69.5954   65.1829 H   0  0  0  0  0  0  0  0  0  0  0  0
    1.0587   69.4030   66.5375 H   0  0  0  0  0  0  0  0  0  0  0  0
  2  1  2  0
  3  2  1  0
  4  3  2  0
  5  4  1  0
  6  5  2  0
  6  1  1  0
  7  5  1  0
  8  7  2  0
  9  8  1  0
 10  9  2  0
 10  4  1  0
 11  1  1  0
 13 12  2  0
 14 13  1  0
 15 14  2  0
 16 15  1  0
 17 16  2  0
 17 12  1  0
 18 16  1  0
 19 18  2  0
 19 11  1  0
 20 19  1  0
 21 20  2  0
 21 15  1  0
 22  8  1  0
 23 22  1  0
 24 23  2  0
 25 24  1  0
 26 25  2  0
 27 26  1  0
 28 23  1  0
 28 27  2  0
 29 27  1  0
 30 29  2  0
 31 30  1  0
 32 26  1  0
 32 31  2  0
  2 33  1  0
  3 34  1  0
  6 35  1  0
  7 36  1  0
  9 37  1  0
 10 38  1  0
 11 39  1  0
 11 40  1  0
 12 41  1  0
 13 42  1  0
 14 43  1  0
 17 44  1  0
 18 45  1  0
 20 46  1  0
 21 47  1  0
 22 48  1  0
 22 49  1  0
 24 50  1  0
 25 51  1  0
 28 52  1  0
 29 53  1  0
 30 54  1  0
 31 55  1  0
 32 56  1  0
M  CHG  2  19   1  23   1
M  END
>  <score>  (7) 
-11.637

$$$$
=
     RDKit          3D

 56 61  0  0  0  0  0  0  0  0999 V2000
    1.5330   64.2410   71.0430 C   0  0  0  0  0  0  0  0  0  0  0  0
    2.5630   64.4620   70.1190 C   0  0  0  0  0  0  0  0  0  0  0  0
    3.6850   63.6300   70.0960 C   0  0  0  0  0  0  0  0  0  0  0  0
    3.8170   62.5700   71.0040 C   0  0  0  0  0  0  0  0  0  0  0  0
    2.8050   62.3440   71.9580 C   0  0  0  0  0  0  0  0  0  0  0  0
    1.6740   63.1860   71.9650 C   0  0  0  0  0  0  0  0  0  0  0  0
    2.9570   61.2830   72.8770 C   0  0  0  0  0  0  0  0  0  0  0  0
    4.0930   60.4510   72.8610 C   0  0  0  0  0  0  0  0  0  0  0  0
    5.0740   60.6780   71.8870 C   0  0  0  0  0  0  0  0  0  0  0  0
    4.9410   61.7310   70.9780 C   0  0  0  0  0  0  0  0  0  0  0  0
    0.3200   65.1420   71.0980 C   0  0  0  0  0  0  0  0  0  0  0  0
   -2.0230   68.1400   66.2550 C   0  0  0  0  0  0  0  0  0  0  0  0
   -0.9100   68.9370   65.9990 C   0  0  0  0  0  0  0  0  0  0  0  0
    0.2260   68.8290   66.8010 C   0  0  0  0  0  0  0  0  0  0  0  0
    0.2610   67.9200   67.8690 C   0  0  0  0  0  0  0  0  0  0  0  0
   -0.8650   67.1140   68.1290 C   0  0  0  0  0  0  0  0  0  0  0  0
   -2.0030   67.2320   67.3130 C   0  0  0  0  0  0  0  0  0  0  0  0
   -0.8120   66.2150   69.1970 C   0  0  0  0  0  0  0  0  0  0  0  0
    0.2910   66.1190   69.9790 N   0  0  0  0  0  4  0  0  0  0  0  0
    1.3800   66.8820   69.7310 C   0  0  0  0  0  0  0  0  0  0  0  0
    1.3870   67.7930   68.6830 C   0  0  0  0  0  0  0  0  0  0  0  0
    4.2100   59.3040   73.8410 C   0  0  0  0  0  0  0  0  0  0  0  0
    3.0470   58.3830   73.7740 N   0  0  0  0  0  4  0  0  0  0  0  0
    2.6850   57.8400   72.5900 C   0  0  0  0  0  0  0  0  0  0  0  0
    1.5920   56.9870   72.5050 C   0  0  0  0  0  0  0  0  0  0  0  0
    0.8530   56.6900   73.6510 C   0  0  0  0  0  0  0  0  0  0  0  0
    1.2320   57.2680   74.8780 C   0  0  0  0  0  0  0  0  0  0  0  0
    2.3400   58.1190   74.9000 C   0  0  0  0  0  0  0  0  0  0  0  0
    0.4930   56.9790   76.0370 C   0  0  0  0  0  0  0  0  0  0  0  0
   -0.6090   56.1250   75.9780 C   0  0  0  0  0  0  0  0  0  0  0  0
   -0.9830   55.5540   74.7660 C   0  0  0  0  0  0  0  0  0  0  0  0
   -0.2580   55.8340   73.6070 C   0  0  0  0  0  0  0  0  0  0  0  0
    2.4876   65.2967   69.4066 H   0  0  0  0  0  0  0  0  0  0  0  0
    4.4771   63.8093   69.3541 H   0  0  0  0  0  0  0  0  0  0  0  0
    0.8822   63.0145   72.7091 H   0  0  0  0  0  0  0  0  0  0  0  0
    2.1693   61.1020   73.6232 H   0  0  0  0  0  0  0  0  0  0  0  0
    5.9558   60.0223   71.8374 H   0  0  0  0  0  0  0  0  0  0  0  0
    5.7295   61.9046   70.2309 H   0  0  0  0  0  0  0  0  0  0  0  0
   -0.5855   64.5194   71.0474 H   0  0  0  0  0  0  0  0  0  0  0  0
    0.3655   65.7099   72.0390 H   0  0  0  0  0  0  0  0  0  0  0  0
   -2.9185   68.2269   65.6221 H   0  0  0  0  0  0  0  0  0  0  0  0
   -0.9268   69.6523   65.1635 H   0  0  0  0  0  0  0  0  0  0  0  0
    1.1017   69.4618   66.5944 H   0  0  0  0  0  0  0  0  0  0  0  0
   -2.8841   66.6037   67.5103 H   0  0  0  0  0  0  0  0  0  0  0  0
   -1.6807   65.5737   69.4070 H   0  0  0  0  0  0  0  0  0  0  0  0
    2.2713   66.7796   70.3675 H   0  0  0  0  0  0  0  0  0  0  0  0
    2.2767   68.4120   68.4953 H   0  0  0  0  0  0  0  0  0  0  0  0
    5.1242   58.7362   73.6131 H   0  0  0  0  0  0  0  0  0  0  0  0
    4.2431   59.7301   74.8546 H   0  0  0  0  0  0  0  0  0  0  0  0
    3.2624   58.0763   71.6840 H   0  0  0  0  0  0  0  0  0  0  0  0
    1.3097   56.5469   71.5372 H   0  0  0  0  0  0  0  0  0  0  0  0
    2.6444   58.5837   75.8494 H   0  0  0  0  0  0  0  0  0  0  0  0
    0.7849   57.4288   76.9975 H   0  0  0  0  0  0  0  0  0  0  0  0
   -1.1822   55.9033   76.8903 H   0  0  0  0  0  0  0  0  0  0  0  0
   -1.8517   54.8806   74.7211 H   0  0  0  0  0  0  0  0  0  0  0  0
   -0.5598   55.3802   72.6515 H   0  0  0  0  0  0  0  0  0  0  0  0
  2  1  2  0
  3  2  1  0
  4  3  2  0
  5  4  1  0
  6  5  2  0
  6  1  1  0
  7  5  1  0
  8  7  2  0
  9  8  1  0
 10  9  2  0
 10  4  1  0
 11  1  1  0
 13 12  2  0
 14 13  1  0
 15 14  2  0
 16 15  1  0
 17 16  2  0
 17 12  1  0
 18 16  1  0
 19 18  2  0
 19 11  1  0
 20 19  1  0
 21 20  2  0
 21 15  1  0
 22  8  1  0
 23 22  1  0
 24 23  2  0
 25 24  1  0
 26 25  2  0
 27 26  1  0
 28 23  1  0
 28 27  2  0
 29 27  1  0
 30 29  2  0
 31 30  1  0
 32 26  1  0
 32 31  2  0
  2 33  1  0
  3 34  1  0
  6 35  1  0
  7 36  1  0
  9 37  1  0
 10 38  1  0
 11 39  1  0
 11 40  1  0
 12 41  1  0
 13 42  1  0
 14 43  1  0
 17 44  1  0
 18 45  1  0
 20 46  1  0
 21 47  1  0
 22 48  1  0
 22 49  1  0
 24 50  1  0
 25 51  1  0
 28 52  1  0
 29 53  1  0
 30 54  1  0
 31 55  1  0
 32 56  1  0
M  CHG  2  19   1  23   1
M  END
>  <score>  (8) 
-11.555

$$$$
=
     RDKit          3D

 56 61  0  0  0  0  0  0  0  0999 V2000
    0.8730   65.2250   70.6540 C   0  0  0  0  0  0  0  0  0  0  0  0
    2.0630   64.7640   70.0780 C   0  0  0  0  0  0  0  0  0  0  0  0
    2.5040   63.4590   70.3100 C   0  0  0  0  0  0  0  0  0  0  0  0
    1.7800   62.5880   71.1380 C   0  0  0  0  0  0  0  0  0  0  0  0
    0.5930   63.0390   71.7480 C   0  0  0  0  0  0  0  0  0  0  0  0
    0.1550   64.3560   71.4980 C   0  0  0  0  0  0  0  0  0  0  0  0
   -0.1190   62.1590   72.5910 C   0  0  0  0  0  0  0  0  0  0  0  0
    0.3310   60.8470   72.8350 C   0  0  0  0  0  0  0  0  0  0  0  0
    1.5000   60.4120   72.1980 C   0  0  0  0  0  0  0  0  0  0  0  0
    2.2190   61.2760   71.3680 C   0  0  0  0  0  0  0  0  0  0  0  0
    0.3890   66.6410   70.4320 C   0  0  0  0  0  0  0  0  0  0  0  0
    2.7370   69.0570   65.2760 C   0  0  0  0  0  0  0  0  0  0  0  0
    1.6390   68.8040   64.4590 C   0  0  0  0  0  0  0  0  0  0  0  0
    0.5100   68.1720   64.9810 C   0  0  0  0  0  0  0  0  0  0  0  0
    0.4690   67.7880   66.3290 C   0  0  0  0  0  0  0  0  0  0  0  0
    1.5800   68.0430   67.1560 C   0  0  0  0  0  0  0  0  0  0  0  0
    2.7110   68.6800   66.6180 C   0  0  0  0  0  0  0  0  0  0  0  0
    1.5210   67.6510   68.4960 C   0  0  0  0  0  0  0  0  0  0  0  0
    0.4260   67.0310   68.9980 N   0  0  0  0  0  4  0  0  0  0  0  0
   -0.6500   66.7910   68.2140 C   0  0  0  0  0  0  0  0  0  0  0  0
   -0.6510   67.1570   66.8750 C   0  0  0  0  0  0  0  0  0  0  0  0
   -0.4720   59.9200   73.7210 C   0  0  0  0  0  0  0  0  0  0  0  0
    0.2710   58.6810   74.0650 N   0  0  0  0  0  4  0  0  0  0  0  0
    1.5050   58.7650   74.6100 C   0  0  0  0  0  0  0  0  0  0  0  0
    2.2220   57.6190   74.9260 C   0  0  0  0  0  0  0  0  0  0  0  0
    1.6690   56.3630   74.6730 C   0  0  0  0  0  0  0  0  0  0  0  0
    0.3860   56.2850   74.0950 C   0  0  0  0  0  0  0  0  0  0  0  0
   -0.2850   57.4740   73.7990 C   0  0  0  0  0  0  0  0  0  0  0  0
   -0.1800   55.0260   73.8330 C   0  0  0  0  0  0  0  0  0  0  0  0
    0.5210   53.8580   74.1410 C   0  0  0  0  0  0  0  0  0  0  0  0
    1.7870   53.9360   74.7120 C   0  0  0  0  0  0  0  0  0  0  0  0
    2.3610   55.1810   74.9760 C   0  0  0  0  0  0  0  0  0  0  0  0
    2.6551   65.4346   69.4379 H   0  0  0  0  0  0  0  0  0  0  0  0
    3.4330   63.1089   69.8363 H   0  0  0  0  0  0  0  0  0  0  0  0
   -0.7701   64.7132   71.9739 H   0  0  0  0  0  0  0  0  0  0  0  0
   -1.0471   62.5060   73.0686 H   0  0  0  0  0  0  0  0  0  0  0  0
    1.8548   59.3823   72.3523 H   0  0  0  0  0  0  0  0  0  0  0  0
    3.1431   60.9219   70.8878 H   0  0  0  0  0  0  0  0  0  0  0  0
   -0.6466   66.7218   70.7941 H   0  0  0  0  0  0  0  0  0  0  0  0
    1.0605   67.3166   70.9821 H   0  0  0  0  0  0  0  0  0  0  0  0
    3.6264   69.5550   64.8624 H   0  0  0  0  0  0  0  0  0  0  0  0
    1.6614   69.1027   63.4006 H   0  0  0  0  0  0  0  0  0  0  0  0
   -0.3544   67.9735   64.3303 H   0  0  0  0  0  0  0  0  0  0  0  0
    3.5813   68.8825   67.2596 H   0  0  0  0  0  0  0  0  0  0  0  0
    2.3791   67.8494   69.1551 H   0  0  0  0  0  0  0  0  0  0  0  0
   -1.5356   66.2995   68.6431 H   0  0  0  0  0  0  0  0  0  0  0  0
   -1.5301   66.9510   66.2467 H   0  0  0  0  0  0  0  0  0  0  0  0
   -0.7239   60.4506   74.6511 H   0  0  0  0  0  0  0  0  0  0  0  0
   -1.3758   59.6262   73.1671 H   0  0  0  0  0  0  0  0  0  0  0  0
    1.9465   59.7534   74.8055 H   0  0  0  0  0  0  0  0  0  0  0  0
    3.2231   57.7008   75.3745 H   0  0  0  0  0  0  0  0  0  0  0  0
   -1.2842   57.4297   73.3411 H   0  0  0  0  0  0  0  0  0  0  0  0
   -1.1814   54.9599   73.3825 H   0  0  0  0  0  0  0  0  0  0  0  0
    0.0718   52.8759   73.9319 H   0  0  0  0  0  0  0  0  0  0  0  0
    2.3369   53.0151   74.9560 H   0  0  0  0  0  0  0  0  0  0  0  0
    3.3637   55.2355   75.4251 H   0  0  0  0  0  0  0  0  0  0  0  0
  2  1  2  0
  3  2  1  0
  4  3  2  0
  5  4  1  0
  6  5  2  0
  6  1  1  0
  7  5  1  0
  8  7  2  0
  9  8  1  0
 10  9  2  0
 10  4  1  0
 11  1  1  0
 13 12  2  0
 14 13  1  0
 15 14  2  0
 16 15  1  0
 17 16  2  0
 17 12  1  0
 18 16  1  0
 19 18  2  0
 19 11  1  0
 20 19  1  0
 21 20  2  0
 21 15  1  0
 22  8  1  0
 23 22  1  0
 24 23  2  0
 25 24  1  0
 26 25  2  0
 27 26  1  0
 28 23  1  0
 28 27  2  0
 29 27  1  0
 30 29  2  0
 31 30  1  0
 32 26  1  0
 32 31  2  0
  2 33  1  0
  3 34  1  0
  6 35  1  0
  7 36  1  0
  9 37  1  0
 10 38  1  0
 11 39  1  0
 11 40  1  0
 12 41  1  0
 13 42  1  0
 14 43  1  0
 17 44  1  0
 18 45  1  0
 20 46  1  0
 21 47  1  0
 22 48  1  0
 22 49  1  0
 24 50  1  0
 25 51  1  0
 28 52  1  0
 29 53  1  0
 30 54  1  0
 31 55  1  0
 32 56  1  0
M  CHG  2  19   1  23   1
M  END
>  <score>  (9) 
-11.439

$$$$
