=
     RDKit          3D

 44 46  0  0  0  0  0  0  0  0999 V2000
    5.3100   69.4440   66.2760 N   0  0  0  0  0  0  0  0  0  0  0  0
    6.1740   70.0300   67.1910 C   0  0  0  0  0  0  0  0  0  0  0  0
    5.8400   70.5610   68.3730 C   0  0  0  0  0  0  0  0  0  0  0  0
    4.4280   70.5470   68.7660 C   0  0  0  0  0  0  0  0  0  0  0  0
    3.9750   71.1110   69.7550 O   0  0  0  0  0  0  0  0  0  0  0  0
    3.4920   69.8430   67.8540 C   0  0  0  0  0  0  0  0  0  0  0  0
    3.9460   69.3270   66.6190 C   0  0  0  0  0  0  0  0  0  0  0  0
    2.9790   68.7370   65.7810 C   0  0  0  0  0  0  0  0  0  0  0  0
    1.6150   68.6550   66.1290 C   0  0  0  0  0  0  0  0  0  0  0  0
    1.2380   69.1630   67.3830 C   0  0  0  0  0  0  0  0  0  0  0  0
    2.1520   69.7490   68.2400 C   0  0  0  0  0  0  0  0  0  0  0  0
   -0.0590   69.1870   67.7330 F   0  0  0  0  0  0  0  0  0  0  0  0
    0.7150   68.1160   65.1890 N   0  0  0  0  0  0  0  0  0  0  0  0
   -0.0190   69.0380   64.2910 C   0  0  0  0  0  0  0  0  0  0  0  0
    0.5120   69.0100   62.8350 C   0  0  0  0  0  0  0  0  0  0  0  0
    1.9770   68.6180   62.8010 N   0  0  0  0  0  4  0  0  0  0  0  0
    2.2260   67.2320   63.3890 C   0  0  0  0  0  0  0  0  0  0  0  0
    1.2260   66.8970   64.5240 C   0  0  0  0  0  0  0  0  0  0  0  0
    2.6360   68.8290   61.4830 C   0  0  0  0  0  0  0  0  0  0  0  0
    6.9270   71.1370   69.2480 C   0  0  0  0  0  0  0  0  0  0  0  0
    7.6130   72.0540   68.7070 O   0  0  0  0  0  0  0  0  0  0  0  0
    7.0800   70.5740   70.3680 O   0  0  0  0  0  1  0  0  0  0  0  0
    5.4380   69.6720   63.8220 C   0  0  0  0  0  0  0  0  0  0  0  0
    5.8440   68.8550   65.0380 C   0  0  0  0  0  0  0  0  0  0  0  0
    7.2389   70.0609   66.9172 H   0  0  0  0  0  0  0  0  0  0  0  0
    3.3018   68.3228   64.8144 H   0  0  0  0  0  0  0  0  0  0  0  0
    1.8272   70.1375   69.2165 H   0  0  0  0  0  0  0  0  0  0  0  0
   -1.0805   68.7498   64.2833 H   0  0  0  0  0  0  0  0  0  0  0  0
    0.1247   70.0584   64.6758 H   0  0  0  0  0  0  0  0  0  0  0  0
   -0.0699   68.2799   62.2533 H   0  0  0  0  0  0  0  0  0  0  0  0
    0.4071   70.0162   62.4031 H   0  0  0  0  0  0  0  0  0  0  0  0
    2.4494   69.2849   63.4279 H   0  0  0  0  0  0  0  0  0  0  0  0
    2.1212   66.4829   62.5903 H   0  0  0  0  0  0  0  0  0  0  0  0
    3.2404   67.2196   63.8142 H   0  0  0  0  0  0  0  0  0  0  0  0
    0.3771   66.3426   64.0974 H   0  0  0  0  0  0  0  0  0  0  0  0
    1.7555   66.2952   65.2773 H   0  0  0  0  0  0  0  0  0  0  0  0
    3.6728   69.1610   61.6404 H   0  0  0  0  0  0  0  0  0  0  0  0
    2.6349   67.8856   60.9173 H   0  0  0  0  0  0  0  0  0  0  0  0
    2.0872   69.5963   60.9173 H   0  0  0  0  0  0  0  0  0  0  0  0
    4.9709   70.6120   64.1511 H   0  0  0  0  0  0  0  0  0  0  0  0
    6.3290   69.8973   63.2175 H   0  0  0  0  0  0  0  0  0  0  0  0
    4.7204   69.0979   63.2175 H   0  0  0  0  0  0  0  0  0  0  0  0
    5.4540   67.8322   64.9298 H   0  0  0  0  0  0  0  0  0  0  0  0
    6.9421   68.8462   65.1014 H   0  0  0  0  0  0  0  0  0  0  0  0
  2  1  1  0
  3  2  2  0
  4  3  1  0
  5  4  2  0
  6  4  1  0
  7  6  2  0
  7  1  1  0
  8  7  1  0
  9  8  2  0
 10  9  1  0
 11 10  2  0
 11  6  1  0
 12 10  1  0
 13  9  1  0
 14 13  1  0
 15 14  1  0
 16 15  1  0
 17 16  1  0
 18 17  1  0
 18 13  1  0
 19 16  1  0
 20  3  1  0
 21 20  2  0
 22 20  1  0
 24 23  1  0
 24  1  1  0
  2 25  1  0
  8 26  1  0
 11 27  1  0
 14 28  1  0
 14 29  1  0
 15 30  1  0
 15 31  1  0
 16 32  1  0
 17 33  1  0
 17 34  1  0
 18 35  1  0
 18 36  1  0
 19 37  1  0
 19 38  1  0
 19 39  1  0
 23 40  1  0
 23 41  1  0
 23 42  1  0
 24 43  1  0
 24 44  1  0
M  CHG  2  16   1  22  -1
M  END
>  <score>  (1) 
-9.876

$$$$
=
     RDKit          3D

 44 46  0  0  0  0  0  0  0  0999 V2000
    2.8470   60.1100   71.6180 N   0  0  0  0  0  0  0  0  0  0  0  0
    3.4810   61.0050   70.7670 C   0  0  0  0  0  0  0  0  0  0  0  0
    2.9880   62.1690   70.3270 C   0  0  0  0  0  0  0  0  0  0  0  0
    1.6460   62.5630   70.7610 C   0  0  0  0  0  0  0  0  0  0  0  0
    1.0320   63.5330   70.3330 O   0  0  0  0  0  0  0  0  0  0  0  0
    0.9800   61.6750   71.7470 C   0  0  0  0  0  0  0  0  0  0  0  0
    1.5820   60.4570   72.1370 C   0  0  0  0  0  0  0  0  0  0  0  0
    0.8510   59.6400   73.0210 C   0  0  0  0  0  0  0  0  0  0  0  0
   -0.4250   59.9910   73.5070 C   0  0  0  0  0  0  0  0  0  0  0  0
   -0.9520   61.2270   73.1010 C   0  0  0  0  0  0  0  0  0  0  0  0
   -0.2710   62.0650   72.2350 C   0  0  0  0  0  0  0  0  0  0  0  0
   -2.1970   61.5770   73.4650 F   0  0  0  0  0  0  0  0  0  0  0  0
   -1.1070   59.0690   74.3260 N   0  0  0  0  0  0  0  0  0  0  0  0
   -0.7220   57.6400   74.2700 C   0  0  0  0  0  0  0  0  0  0  0  0
    0.0710   57.1810   75.5200 C   0  0  0  0  0  0  0  0  0  0  0  0
    0.8230   58.3430   76.1410 N   0  0  0  0  0  4  0  0  0  0  0  0
   -0.1060   59.4660   76.5930 C   0  0  0  0  0  0  0  0  0  0  0  0
   -1.3610   59.5780   75.6920 C   0  0  0  0  0  0  0  0  0  0  0  0
    1.8190   57.9460   77.1730 C   0  0  0  0  0  0  0  0  0  0  0  0
    3.8380   63.0250   69.4170 C   0  0  0  0  0  0  0  0  0  0  0  0
    3.4620   63.0480   68.2080 O   0  0  0  0  0  0  0  0  0  0  0  0
    4.8650   63.5310   69.9490 O   0  0  0  0  0  1  0  0  0  0  0  0
    3.3800   57.7700   71.0400 C   0  0  0  0  0  0  0  0  0  0  0  0
    3.5480   58.8930   72.0530 C   0  0  0  0  0  0  0  0  0  0  0  0
    4.4881   60.7304   70.4200 H   0  0  0  0  0  0  0  0  0  0  0  0
    1.2945   58.6873   73.3462 H   0  0  0  0  0  0  0  0  0  0  0  0
   -0.7094   63.0278   71.9338 H   0  0  0  0  0  0  0  0  0  0  0  0
   -1.6359   57.0328   74.1913 H   0  0  0  0  0  0  0  0  0  0  0  0
   -0.0672   57.5080   73.3961 H   0  0  0  0  0  0  0  0  0  0  0  0
   -0.6306   56.7692   76.2604 H   0  0  0  0  0  0  0  0  0  0  0  0
    0.7987   56.4154   75.2129 H   0  0  0  0  0  0  0  0  0  0  0  0
    1.3950   58.7330   75.3784 H   0  0  0  0  0  0  0  0  0  0  0  0
   -0.4270   59.2673   77.6262 H   0  0  0  0  0  0  0  0  0  0  0  0
    0.4478   60.4139   76.5241 H   0  0  0  0  0  0  0  0  0  0  0  0
   -2.1762   58.9934   76.1434 H   0  0  0  0  0  0  0  0  0  0  0  0
   -1.6312   60.6415   75.6147 H   0  0  0  0  0  0  0  0  0  0  0  0
    1.3963   58.1145   78.1745 H   0  0  0  0  0  0  0  0  0  0  0  0
    2.0659   56.8807   77.0537 H   0  0  0  0  0  0  0  0  0  0  0  0
    2.7310   58.5493   77.0537 H   0  0  0  0  0  0  0  0  0  0  0  0
    3.2374   56.8166   71.5698 H   0  0  0  0  0  0  0  0  0  0  0  0
    2.5023   57.9737   70.4090 H   0  0  0  0  0  0  0  0  0  0  0  0
    4.2789   57.7079   70.4090 H   0  0  0  0  0  0  0  0  0  0  0  0
    3.1369   58.5683   73.0202 H   0  0  0  0  0  0  0  0  0  0  0  0
    4.6199   59.1222   72.1448 H   0  0  0  0  0  0  0  0  0  0  0  0
  2  1  1  0
  3  2  2  0
  4  3  1  0
  5  4  2  0
  6  4  1  0
  7  6  2  0
  7  1  1  0
  8  7  1  0
  9  8  2  0
 10  9  1  0
 11 10  2  0
 11  6  1  0
 12 10  1  0
 13  9  1  0
 14 13  1  0
 15 14  1  0
 16 15  1  0
 17 16  1  0
 18 17  1  0
 18 13  1  0
 19 16  1  0
 20  3  1  0
 21 20  2  0
 22 20  1  0
 24 23  1  0
 24  1  1  0
  2 25  1  0
  8 26  1  0
 11 27  1  0
 14 28  1  0
 14 29  1  0
 15 30  1  0
 15 31  1  0
 16 32  1  0
 17 33  1  0
 17 34  1  0
 18 35  1  0
 18 36  1  0
 19 37  1  0
 19 38  1  0
 19 39  1  0
 23 40  1  0
 23 41  1  0
 23 42  1  0
 24 43  1  0
 24 44  1  0
M  CHG  2  16   1  22  -1
M  END
>  <score>  (2) 
-8.274

$$$$
=
     RDKit          3D

 44 46  0  0  0  0  0  0  0  0999 V2000
    1.9250   61.4260   72.1390 N   0  0  0  0  0  0  0  0  0  0  0  0
    2.5620   62.2920   71.2600 C   0  0  0  0  0  0  0  0  0  0  0  0
    3.4210   61.9520   70.2930 C   0  0  0  0  0  0  0  0  0  0  0  0
    3.7500   60.5340   70.1230 C   0  0  0  0  0  0  0  0  0  0  0  0
    4.6120   60.1050   69.3650 O   0  0  0  0  0  0  0  0  0  0  0  0
    3.0120   59.5740   70.9820 C   0  0  0  0  0  0  0  0  0  0  0  0
    2.1350   60.0390   71.9870 C   0  0  0  0  0  0  0  0  0  0  0  0
    1.5300   59.0650   72.8060 C   0  0  0  0  0  0  0  0  0  0  0  0
    1.7750   57.6840   72.6570 C   0  0  0  0  0  0  0  0  0  0  0  0
    2.6360   57.2910   71.6210 C   0  0  0  0  0  0  0  0  0  0  0  0
    3.2520   58.2100   70.7900 C   0  0  0  0  0  0  0  0  0  0  0  0
    2.9710   55.9960   71.4830 F   0  0  0  0  0  0  0  0  0  0  0  0
    1.1820   56.7960   73.5760 N   0  0  0  0  0  0  0  0  0  0  0  0
    1.8160   55.4770   73.8070 C   0  0  0  0  0  0  0  0  0  0  0  0
    2.5400   55.3890   75.1750 C   0  0  0  0  0  0  0  0  0  0  0  0
    3.0060   56.7590   75.6290 N   0  0  0  0  0  4  0  0  0  0  0  0
    1.8510   57.7420   75.8020 C   0  0  0  0  0  0  0  0  0  0  0  0
    0.6990   57.4630   74.8050 C   0  0  0  0  0  0  0  0  0  0  0  0
    3.9410   56.7340   76.7870 C   0  0  0  0  0  0  0  0  0  0  0  0
    4.0010   63.0370   69.4160 C   0  0  0  0  0  0  0  0  0  0  0  0
    3.4660   63.1360   68.2720 O   0  0  0  0  0  0  0  0  0  0  0  0
    5.0020   63.6430   69.8900 O   0  0  0  0  0  1  0  0  0  0  0  0
   -0.3730   62.2690   72.4600 C   0  0  0  0  0  0  0  0  0  0  0  0
    0.9620   61.9550   73.1180 C   0  0  0  0  0  0  0  0  0  0  0  0
    2.3380   63.3633   71.3699 H   0  0  0  0  0  0  0  0  0  0  0  0
    0.8378   59.3954   73.5944 H   0  0  0  0  0  0  0  0  0  0  0  0
    3.9232   57.8712   69.9871 H   0  0  0  0  0  0  0  0  0  0  0  0
    1.0366   54.7015   73.7714 H   0  0  0  0  0  0  0  0  0  0  0  0
    2.5729   55.3317   73.0221 H   0  0  0  0  0  0  0  0  0  0  0  0
    1.8469   54.9778   75.9237 H   0  0  0  0  0  0  0  0  0  0  0  0
    3.4190   54.7366   75.0665 H   0  0  0  0  0  0  0  0  0  0  0  0
    3.5776   57.1213   74.8525 H   0  0  0  0  0  0  0  0  0  0  0  0
    1.4621   57.6564   76.8274 H   0  0  0  0  0  0  0  0  0  0  0  0
    2.2335   58.7545   75.6054 H   0  0  0  0  0  0  0  0  0  0  0  0
   -0.0441   56.8150   75.2926 H   0  0  0  0  0  0  0  0  0  0  0  0
    0.2561   58.4279   74.5174 H   0  0  0  0  0  0  0  0  0  0  0  0
    3.3648   56.7494   77.7239 H   0  0  0  0  0  0  0  0  0  0  0  0
    4.5506   55.8192   76.7464 H   0  0  0  0  0  0  0  0  0  0  0  0
    4.5986   57.6149   76.7464 H   0  0  0  0  0  0  0  0  0  0  0  0
   -1.1315   62.4474   73.2364 H   0  0  0  0  0  0  0  0  0  0  0  0
   -0.2708   63.1676   71.8339 H   0  0  0  0  0  0  0  0  0  0  0  0
   -0.6821   61.4190   71.8339 H   0  0  0  0  0  0  0  0  0  0  0  0
    1.3694   62.8758   73.5609 H   0  0  0  0  0  0  0  0  0  0  0  0
    0.7980   61.1921   73.8933 H   0  0  0  0  0  0  0  0  0  0  0  0
  2  1  1  0
  3  2  2  0
  4  3  1  0
  5  4  2  0
  6  4  1  0
  7  6  2  0
  7  1  1  0
  8  7  1  0
  9  8  2  0
 10  9  1  0
 11 10  2  0
 11  6  1  0
 12 10  1  0
 13  9  1  0
 14 13  1  0
 15 14  1  0
 16 15  1  0
 17 16  1  0
 18 17  1  0
 18 13  1  0
 19 16  1  0
 20  3  1  0
 21 20  2  0
 22 20  1  0
 24 23  1  0
 24  1  1  0
  2 25  1  0
  8 26  1  0
 11 27  1  0
 14 28  1  0
 14 29  1  0
 15 30  1  0
 15 31  1  0
 16 32  1  0
 17 33  1  0
 17 34  1  0
 18 35  1  0
 18 36  1  0
 19 37  1  0
 19 38  1  0
 19 39  1  0
 23 40  1  0
 23 41  1  0
 23 42  1  0
 24 43  1  0
 24 44  1  0
M  CHG  2  16   1  22  -1
M  END
>  <score>  (3) 
-8.193

$$$$
=
     RDKit          3D

 44 46  0  0  0  0  0  0  0  0999 V2000
    0.7350   63.4600   72.8090 N   0  0  0  0  0  0  0  0  0  0  0  0
    0.5280   64.5400   71.9600 C   0  0  0  0  0  0  0  0  0  0  0  0
    1.0640   64.7110   70.7460 C   0  0  0  0  0  0  0  0  0  0  0  0
    1.9710   63.6790   70.2360 C   0  0  0  0  0  0  0  0  0  0  0  0
    2.6230   63.7740   69.2020 O   0  0  0  0  0  0  0  0  0  0  0  0
    2.1370   62.4670   71.0770 C   0  0  0  0  0  0  0  0  0  0  0  0
    1.5370   62.3920   72.3540 C   0  0  0  0  0  0  0  0  0  0  0  0
    1.8040   61.2390   73.1170 C   0  0  0  0  0  0  0  0  0  0  0  0
    2.6320   60.1940   72.6570 C   0  0  0  0  0  0  0  0  0  0  0  0
    3.1740   60.3210   71.3670 C   0  0  0  0  0  0  0  0  0  0  0  0
    2.9380   61.4340   70.5810 C   0  0  0  0  0  0  0  0  0  0  0  0
    4.0350   59.3970   70.9080 F   0  0  0  0  0  0  0  0  0  0  0  0
    2.8990   59.1180   73.5260 N   0  0  0  0  0  0  0  0  0  0  0  0
    2.6460   59.2890   74.9750 C   0  0  0  0  0  0  0  0  0  0  0  0
    1.3870   58.5270   75.4610 C   0  0  0  0  0  0  0  0  0  0  0  0
    0.3830   58.3670   74.3350 N   0  0  0  0  0  4  0  0  0  0  0  0
    0.9490   57.5820   73.1550 C   0  0  0  0  0  0  0  0  0  0  0  0
    2.4720   57.8090   72.9840 C   0  0  0  0  0  0  0  0  0  0  0  0
   -0.9580   57.8940   74.7730 C   0  0  0  0  0  0  0  0  0  0  0  0
    0.7030   65.9470   69.9560 C   0  0  0  0  0  0  0  0  0  0  0  0
   -0.3390   65.8350   69.2440 O   0  0  0  0  0  0  0  0  0  0  0  0
    1.5290   66.8990   70.0270 O   0  0  0  0  0  1  0  0  0  0  0  0
    0.0900   64.7290   74.8250 C   0  0  0  0  0  0  0  0  0  0  0  0
    0.0270   63.3950   74.0960 C   0  0  0  0  0  0  0  0  0  0  0  0
   -0.1430   65.3331   72.3216 H   0  0  0  0  0  0  0  0  0  0  0  0
    1.3476   61.1496   74.1138 H   0  0  0  0  0  0  0  0  0  0  0  0
    3.3765   61.5059   69.5747 H   0  0  0  0  0  0  0  0  0  0  0  0
    3.5188   58.9151   75.5303 H   0  0  0  0  0  0  0  0  0  0  0  0
    2.4741   60.3603   75.1561 H   0  0  0  0  0  0  0  0  0  0  0  0
    1.6853   57.5316   75.8217 H   0  0  0  0  0  0  0  0  0  0  0  0
    0.9176   59.1043   76.2711 H   0  0  0  0  0  0  0  0  0  0  0  0
    0.2104   59.3217   73.9890 H   0  0  0  0  0  0  0  0  0  0  0  0
    0.7661   56.5101   73.3211 H   0  0  0  0  0  0  0  0  0  0  0  0
    0.4482   57.9341   72.2411 H   0  0  0  0  0  0  0  0  0  0  0  0
    3.0123   57.0111   73.5145 H   0  0  0  0  0  0  0  0  0  0  0  0
    2.7001   57.7947   71.9080 H   0  0  0  0  0  0  0  0  0  0  0  0
   -1.0006   57.8790   75.8721 H   0  0  0  0  0  0  0  0  0  0  0  0
   -1.7312   58.5737   74.3854 H   0  0  0  0  0  0  0  0  0  0  0  0
   -1.1337   56.8797   74.3854 H   0  0  0  0  0  0  0  0  0  0  0  0
    0.0817   64.5541   75.9110 H   0  0  0  0  0  0  0  0  0  0  0  0
    1.0140   65.2563   74.5455 H   0  0  0  0  0  0  0  0  0  0  0  0
   -0.7802   65.3410   74.5455 H   0  0  0  0  0  0  0  0  0  0  0  0
    0.4927   62.6207   74.7233 H   0  0  0  0  0  0  0  0  0  0  0  0
   -1.0283   63.1530   73.9019 H   0  0  0  0  0  0  0  0  0  0  0  0
  2  1  1  0
  3  2  2  0
  4  3  1  0
  5  4  2  0
  6  4  1  0
  7  6  2  0
  7  1  1  0
  8  7  1  0
  9  8  2  0
 10  9  1  0
 11 10  2  0
 11  6  1  0
 12 10  1  0
 13  9  1  0
 14 13  1  0
 15 14  1  0
 16 15  1  0
 17 16  1  0
 18 17  1  0
 18 13  1  0
 19 16  1  0
 20  3  1  0
 21 20  2  0
 22 20  1  0
 24 23  1  0
 24  1  1  0
  2 25  1  0
  8 26  1  0
 11 27  1  0
 14 28  1  0
 14 29  1  0
 15 30  1  0
 15 31  1  0
 16 32  1  0
 17 33  1  0
 17 34  1  0
 18 35  1  0
 18 36  1  0
 19 37  1  0
 19 38  1  0
 19 39  1  0
 23 40  1  0
 23 41  1  0
 23 42  1  0
 24 43  1  0
 24 44  1  0
M  CHG  2  16   1  22  -1
M  END
>  <score>  (4) 
-8.115

$$$$
=
     RDKit          3D

 44 46  0  0  0  0  0  0  0  0999 V2000
    2.8410   63.1360   70.6440 N   0  0  0  0  0  0  0  0  0  0  0  0
    2.2230   64.2440   70.0780 C   0  0  0  0  0  0  0  0  0  0  0  0
    1.2340   64.9650   70.6190 C   0  0  0  0  0  0  0  0  0  0  0  0
    0.7250   64.5680   71.9340 C   0  0  0  0  0  0  0  0  0  0  0  0
   -0.2550   65.0610   72.4800 O   0  0  0  0  0  0  0  0  0  0  0  0
    1.4290   63.4480   72.6080 C   0  0  0  0  0  0  0  0  0  0  0  0
    2.4550   62.7400   71.9420 C   0  0  0  0  0  0  0  0  0  0  0  0
    3.0220   61.6460   72.6240 C   0  0  0  0  0  0  0  0  0  0  0  0
    2.6020   61.2480   73.9100 C   0  0  0  0  0  0  0  0  0  0  0  0
    1.5980   62.0120   74.5250 C   0  0  0  0  0  0  0  0  0  0  0  0
    1.0130   63.0960   73.8960 C   0  0  0  0  0  0  0  0  0  0  0  0
    1.1010   61.6310   75.7140 F   0  0  0  0  0  0  0  0  0  0  0  0
    3.1780   60.0930   74.4750 N   0  0  0  0  0  0  0  0  0  0  0  0
    2.6800   59.6130   75.7850 C   0  0  0  0  0  0  0  0  0  0  0  0
    1.8080   58.3360   75.6670 C   0  0  0  0  0  0  0  0  0  0  0  0
    1.1310   58.2670   74.3110 N   0  0  0  0  0  4  0  0  0  0  0  0
    2.1320   58.2280   73.1590 C   0  0  0  0  0  0  0  0  0  0  0  0
    3.4230   59.0190   73.4870 C   0  0  0  0  0  0  0  0  0  0  0  0
    0.0710   57.2280   74.2090 C   0  0  0  0  0  0  0  0  0  0  0  0
    0.6990   66.1560   69.8600 C   0  0  0  0  0  0  0  0  0  0  0  0
   -0.4010   65.9550   69.2660 O   0  0  0  0  0  0  0  0  0  0  0  0
    1.4540   67.1680   69.8320 O   0  0  0  0  0  1  0  0  0  0  0  0
    3.7940   62.5940   68.4320 C   0  0  0  0  0  0  0  0  0  0  0  0
    3.9550   62.4820   69.9410 C   0  0  0  0  0  0  0  0  0  0  0  0
    2.5821   64.5598   69.0874 H   0  0  0  0  0  0  0  0  0  0  0  0
    3.8261   61.0782   72.1330 H   0  0  0  0  0  0  0  0  0  0  0  0
    0.2281   63.6757   74.4039 H   0  0  0  0  0  0  0  0  0  0  0  0
    3.5437   59.3902   76.4288 H   0  0  0  0  0  0  0  0  0  0  0  0
    2.0477   60.4069   76.2093 H   0  0  0  0  0  0  0  0  0  0  0  0
    2.4472   57.4501   75.7961 H   0  0  0  0  0  0  0  0  0  0  0  0
    1.0323   58.3665   76.4463 H   0  0  0  0  0  0  0  0  0  0  0  0
    0.6203   59.1567   74.2184 H   0  0  0  0  0  0  0  0  0  0  0  0
    2.3990   57.1805   72.9555 H   0  0  0  0  0  0  0  0  0  0  0  0
    1.6601   58.6951   72.2820 H   0  0  0  0  0  0  0  0  0  0  0  0
    4.1713   58.3241   73.8958 H   0  0  0  0  0  0  0  0  0  0  0  0
    3.7807   59.4867   72.5579 H   0  0  0  0  0  0  0  0  0  0  0  0
   -0.2410   56.9222   75.2185 H   0  0  0  0  0  0  0  0  0  0  0  0
   -0.7935   57.6382   73.6665 H   0  0  0  0  0  0  0  0  0  0  0  0
    0.4638   56.3554   73.6665 H   0  0  0  0  0  0  0  0  0  0  0  0
    2.9110   63.2083   68.2021 H   0  0  0  0  0  0  0  0  0  0  0  0
    4.6902   63.0646   68.0016 H   0  0  0  0  0  0  0  0  0  0  0  0
    3.6644   61.5900   68.0016 H   0  0  0  0  0  0  0  0  0  0  0  0
    3.9814   61.4186   70.2212 H   0  0  0  0  0  0  0  0  0  0  0  0
    4.8912   62.9822   70.2298 H   0  0  0  0  0  0  0  0  0  0  0  0
  2  1  1  0
  3  2  2  0
  4  3  1  0
  5  4  2  0
  6  4  1  0
  7  6  2  0
  7  1  1  0
  8  7  1  0
  9  8  2  0
 10  9  1  0
 11 10  2  0
 11  6  1  0
 12 10  1  0
 13  9  1  0
 14 13  1  0
 15 14  1  0
 16 15  1  0
 17 16  1  0
 18 17  1  0
 18 13  1  0
 19 16  1  0
 20  3  1  0
 21 20  2  0
 22 20  1  0
 24 23  1  0
 24  1  1  0
  2 25  1  0
  8 26  1  0
 11 27  1  0
 14 28  1  0
 14 29  1  0
 15 30  1  0
 15 31  1  0
 16 32  1  0
 17 33  1  0
 17 34  1  0
 18 35  1  0
 18 36  1  0
 19 37  1  0
 19 38  1  0
 19 39  1  0
 23 40  1  0
 23 41  1  0
 23 42  1  0
 24 43  1  0
 24 44  1  0
M  CHG  2  16   1  22  -1
M  END
>  <score>  (5) 
-7.977

$$$$
=
     RDKit          3D

 44 46  0  0  0  0  0  0  0  0999 V2000
    2.6560   61.4520   72.7810 N   0  0  0  0  0  0  0  0  0  0  0  0
    3.1100   62.3000   71.7800 C   0  0  0  0  0  0  0  0  0  0  0  0
    3.5990   61.9340   70.5890 C   0  0  0  0  0  0  0  0  0  0  0  0
    3.6840   60.5040   70.2840 C   0  0  0  0  0  0  0  0  0  0  0  0
    4.2260   60.0350   69.2890 O   0  0  0  0  0  0  0  0  0  0  0  0
    3.1180   59.5750   71.2940 C   0  0  0  0  0  0  0  0  0  0  0  0
    2.6380   60.0640   72.5290 C   0  0  0  0  0  0  0  0  0  0  0  0
    2.1840   59.1090   73.4600 C   0  0  0  0  0  0  0  0  0  0  0  0
    2.2010   57.7230   73.2010 C   0  0  0  0  0  0  0  0  0  0  0  0
    2.6650   57.3080   71.9420 C   0  0  0  0  0  0  0  0  0  0  0  0
    3.1190   58.2090   70.9960 C   0  0  0  0  0  0  0  0  0  0  0  0
    2.7810   55.9970   71.6700 F   0  0  0  0  0  0  0  0  0  0  0  0
    1.7980   56.8450   74.2260 N   0  0  0  0  0  0  0  0  0  0  0  0
    1.6850   57.3630   75.6090 C   0  0  0  0  0  0  0  0  0  0  0  0
    0.2150   57.5420   76.0680 C   0  0  0  0  0  0  0  0  0  0  0  0
   -0.6940   57.7990   74.8810 N   0  0  0  0  0  4  0  0  0  0  0  0
   -0.6810   56.6520   73.8750 C   0  0  0  0  0  0  0  0  0  0  0  0
    0.6960   55.9430   73.8230 C   0  0  0  0  0  0  0  0  0  0  0  0
   -2.0640   58.2500   75.2480 C   0  0  0  0  0  0  0  0  0  0  0  0
    4.0260   63.0060   69.6140 C   0  0  0  0  0  0  0  0  0  0  0  0
    3.2660   63.1420   68.6100 O   0  0  0  0  0  0  0  0  0  0  0  0
    5.1290   63.5650   69.8690 O   0  0  0  0  0  1  0  0  0  0  0  0
    1.1440   63.1640   73.7180 C   0  0  0  0  0  0  0  0  0  0  0  0
    2.0960   62.0160   74.0190 C   0  0  0  0  0  0  0  0  0  0  0  0
    3.0632   63.3795   71.9860 H   0  0  0  0  0  0  0  0  0  0  0  0
    1.8002   59.4592   74.4295 H   0  0  0  0  0  0  0  0  0  0  0  0
    3.4775   57.8542   70.0184 H   0  0  0  0  0  0  0  0  0  0  0  0
    2.1818   56.6564   76.2901 H   0  0  0  0  0  0  0  0  0  0  0  0
    2.1604   58.3547   75.6299 H   0  0  0  0  0  0  0  0  0  0  0  0
   -0.1153   56.6282   76.5837 H   0  0  0  0  0  0  0  0  0  0  0  0
    0.1609   58.4062   76.7464 H   0  0  0  0  0  0  0  0  0  0  0  0
   -0.2837   58.6098   74.3961 H   0  0  0  0  0  0  0  0  0  0  0  0
   -1.4480   55.9180   74.1629 H   0  0  0  0  0  0  0  0  0  0  0  0
   -0.8861   57.0707   72.8787 H   0  0  0  0  0  0  0  0  0  0  0  0
    0.6769   55.0791   74.5037 H   0  0  0  0  0  0  0  0  0  0  0  0
    0.8771   55.6269   72.7851 H   0  0  0  0  0  0  0  0  0  0  0  0
   -2.1586   58.2811   76.3435 H   0  0  0  0  0  0  0  0  0  0  0  0
   -2.2421   59.2542   74.8359 H   0  0  0  0  0  0  0  0  0  0  0  0
   -2.8038   57.5480   74.8359 H   0  0  0  0  0  0  0  0  0  0  0  0
    0.7836   63.5986   74.6621 H   0  0  0  0  0  0  0  0  0  0  0  0
    1.6714   63.9350   73.1372 H   0  0  0  0  0  0  0  0  0  0  0  0
    0.2887   62.7884   73.1372 H   0  0  0  0  0  0  0  0  0  0  0  0
    2.9182   62.3871   74.6485 H   0  0  0  0  0  0  0  0  0  0  0  0
    1.5356   61.2257   74.5400 H   0  0  0  0  0  0  0  0  0  0  0  0
  2  1  1  0
  3  2  2  0
  4  3  1  0
  5  4  2  0
  6  4  1  0
  7  6  2  0
  7  1  1  0
  8  7  1  0
  9  8  2  0
 10  9  1  0
 11 10  2  0
 11  6  1  0
 12 10  1  0
 13  9  1  0
 14 13  1  0
 15 14  1  0
 16 15  1  0
 17 16  1  0
 18 17  1  0
 18 13  1  0
 19 16  1  0
 20  3  1  0
 21 20  2  0
 22 20  1  0
 24 23  1  0
 24  1  1  0
  2 25  1  0
  8 26  1  0
 11 27  1  0
 14 28  1  0
 14 29  1  0
 15 30  1  0
 15 31  1  0
 16 32  1  0
 17 33  1  0
 17 34  1  0
 18 35  1  0
 18 36  1  0
 19 37  1  0
 19 38  1  0
 19 39  1  0
 23 40  1  0
 23 41  1  0
 23 42  1  0
 24 43  1  0
 24 44  1  0
M  CHG  2  16   1  22  -1
M  END
>  <score>  (6) 
-7.918

$$$$
=
     RDKit          3D

 44 46  0  0  0  0  0  0  0  0999 V2000
    2.6460   60.4020   71.7060 N   0  0  0  0  0  0  0  0  0  0  0  0
    2.5710   61.6670   71.1370 C   0  0  0  0  0  0  0  0  0  0  0  0
    1.5370   62.5130   71.2130 C   0  0  0  0  0  0  0  0  0  0  0  0
    0.3470   62.0890   71.9560 C   0  0  0  0  0  0  0  0  0  0  0  0
   -0.7090   62.7110   71.9940 O   0  0  0  0  0  0  0  0  0  0  0  0
    0.4310   60.7830   72.6560 C   0  0  0  0  0  0  0  0  0  0  0  0
    1.5670   59.9570   72.4980 C   0  0  0  0  0  0  0  0  0  0  0  0
    1.5360   58.7030   73.1390 C   0  0  0  0  0  0  0  0  0  0  0  0
    0.4360   58.2630   73.9040 C   0  0  0  0  0  0  0  0  0  0  0  0
   -0.6470   59.1460   74.0420 C   0  0  0  0  0  0  0  0  0  0  0  0
   -0.6620   60.3880   73.4330 C   0  0  0  0  0  0  0  0  0  0  0  0
   -1.7560   58.7490   74.6900 F   0  0  0  0  0  0  0  0  0  0  0  0
    0.4710   56.9610   74.4400 N   0  0  0  0  0  0  0  0  0  0  0  0
    1.5270   56.0270   73.9860 C   0  0  0  0  0  0  0  0  0  0  0  0
    2.6300   55.8000   75.0520 C   0  0  0  0  0  0  0  0  0  0  0  0
    2.7570   57.0050   75.9640 N   0  0  0  0  0  4  0  0  0  0  0  0
    1.4650   57.3050   76.7200 C   0  0  0  0  0  0  0  0  0  0  0  0
    0.2100   56.9220   75.8960 C   0  0  0  0  0  0  0  0  0  0  0  0
    3.9630   56.9880   76.8360 C   0  0  0  0  0  0  0  0  0  0  0  0
    1.6470   63.8630   70.5450 C   0  0  0  0  0  0  0  0  0  0  0  0
    2.7190   64.4910   70.7920 O   0  0  0  0  0  0  0  0  0  0  0  0
    0.6260   64.2380   69.9040 O   0  0  0  0  0  1  0  0  0  0  0  0
    5.0950   60.5160   71.4220 C   0  0  0  0  0  0  0  0  0  0  0  0
    3.8800   59.6130   71.5750 C   0  0  0  0  0  0  0  0  0  0  0  0
    3.4486   62.0070   70.5675 H   0  0  0  0  0  0  0  0  0  0  0  0
    2.4069   58.0386   73.0386 H   0  0  0  0  0  0  0  0  0  0  0  0
   -1.5252   61.0580   73.5588 H   0  0  0  0  0  0  0  0  0  0  0  0
    1.0616   55.0585   73.7506 H   0  0  0  0  0  0  0  0  0  0  0  0
    2.0074   56.4752   73.1038 H   0  0  0  0  0  0  0  0  0  0  0  0
    2.3716   54.9173   75.6553 H   0  0  0  0  0  0  0  0  0  0  0  0
    3.5899   55.6459   74.5374 H   0  0  0  0  0  0  0  0  0  0  0  0
    2.9141   57.8049   75.3344 H   0  0  0  0  0  0  0  0  0  0  0  0
    1.4617   56.7326   77.6594 H   0  0  0  0  0  0  0  0  0  0  0  0
    1.4276   58.3871   76.9142 H   0  0  0  0  0  0  0  0  0  0  0  0
   -0.1007   55.9041   76.1742 H   0  0  0  0  0  0  0  0  0  0  0  0
   -0.5803   57.6537   76.1197 H   0  0  0  0  0  0  0  0  0  0  0  0
    3.6525   56.9924   77.8913 H   0  0  0  0  0  0  0  0  0  0  0  0
    4.5512   56.0815   76.6306 H   0  0  0  0  0  0  0  0  0  0  0  0
    4.5766   57.8776   76.6306 H   0  0  0  0  0  0  0  0  0  0  0  0
    5.4715   60.7958   72.4170 H   0  0  0  0  0  0  0  0  0  0  0  0
    5.8817   59.9816   70.8692 H   0  0  0  0  0  0  0  0  0  0  0  0
    4.8102   61.4234   70.8692 H   0  0  0  0  0  0  0  0  0  0  0  0
    3.7999   58.9656   70.6893 H   0  0  0  0  0  0  0  0  0  0  0  0
    4.0065   59.0092   72.4857 H   0  0  0  0  0  0  0  0  0  0  0  0
  2  1  1  0
  3  2  2  0
  4  3  1  0
  5  4  2  0
  6  4  1  0
  7  6  2  0
  7  1  1  0
  8  7  1  0
  9  8  2  0
 10  9  1  0
 11 10  2  0
 11  6  1  0
 12 10  1  0
 13  9  1  0
 14 13  1  0
 15 14  1  0
 16 15  1  0
 17 16  1  0
 18 17  1  0
 18 13  1  0
 19 16  1  0
 20  3  1  0
 21 20  2  0
 22 20  1  0
 24 23  1  0
 24  1  1  0
  2 25  1  0
  8 26  1  0
 11 27  1  0
 14 28  1  0
 14 29  1  0
 15 30  1  0
 15 31  1  0
 16 32  1  0
 17 33  1  0
 17 34  1  0
 18 35  1  0
 18 36  1  0
 19 37  1  0
 19 38  1  0
 19 39  1  0
 23 40  1  0
 23 41  1  0
 23 42  1  0
 24 43  1  0
 24 44  1  0
M  CHG  2  16   1  22  -1
M  END
>  <score>  (7) 
-7.887

$$$$
=
     RDKit          3D

 44 46  0  0  0  0  0  0  0  0999 V2000
    0.4860   68.4990   66.5160 N   0  0  0  0  0  0  0  0  0  0  0  0
   -0.8570   68.4440   66.8670 C   0  0  0  0  0  0  0  0  0  0  0  0
   -1.9000   68.5490   66.0350 C   0  0  0  0  0  0  0  0  0  0  0  0
   -1.6340   68.7520   64.6090 C   0  0  0  0  0  0  0  0  0  0  0  0
   -2.4920   68.9890   63.7670 O   0  0  0  0  0  0  0  0  0  0  0  0
   -0.2100   68.7190   64.1890 C   0  0  0  0  0  0  0  0  0  0  0  0
    0.8200   68.6180   65.1500 C   0  0  0  0  0  0  0  0  0  0  0  0
    2.1440   68.6660   64.6730 C   0  0  0  0  0  0  0  0  0  0  0  0
    2.4580   68.8140   63.3070 C   0  0  0  0  0  0  0  0  0  0  0  0
    1.3860   68.8810   62.4030 C   0  0  0  0  0  0  0  0  0  0  0  0
    0.0690   68.8360   62.8240 C   0  0  0  0  0  0  0  0  0  0  0  0
    1.6220   69.1040   61.0990 F   0  0  0  0  0  0  0  0  0  0  0  0
    3.8130   68.9290   62.9390 N   0  0  0  0  0  0  0  0  0  0  0  0
    4.8340   69.0690   64.0030 C   0  0  0  0  0  0  0  0  0  0  0  0
    5.6690   67.7790   64.2100 C   0  0  0  0  0  0  0  0  0  0  0  0
    4.8720   66.5500   63.8140 N   0  0  0  0  0  4  0  0  0  0  0  0
    4.4500   66.5740   62.3480 C   0  0  0  0  0  0  0  0  0  0  0  0
    4.2000   68.0170   61.8410 C   0  0  0  0  0  0  0  0  0  0  0  0
    5.4870   65.2610   64.2320 C   0  0  0  0  0  0  0  0  0  0  0  0
   -3.2970   68.4420   66.6000 C   0  0  0  0  0  0  0  0  0  0  0  0
   -3.3880   67.7630   67.6650 O   0  0  0  0  0  0  0  0  0  0  0  0
   -4.2100   68.9590   65.8970 O   0  0  0  0  0  1  0  0  0  0  0  0
    1.0420   67.3650   68.6360 C   0  0  0  0  0  0  0  0  0  0  0  0
    1.5190   68.3130   67.5460 C   0  0  0  0  0  0  0  0  0  0  0  0
   -1.0856   68.3000   67.9333 H   0  0  0  0  0  0  0  0  0  0  0  0
    2.9680   68.5845   65.3971 H   0  0  0  0  0  0  0  0  0  0  0  0
   -0.7504   68.8917   62.0922 H   0  0  0  0  0  0  0  0  0  0  0  0
    5.5154   69.8884   63.7303 H   0  0  0  0  0  0  0  0  0  0  0  0
    4.3040   69.2744   64.9448 H   0  0  0  0  0  0  0  0  0  0  0  0
    6.5770   67.8344   63.5915 H   0  0  0  0  0  0  0  0  0  0  0  0
    5.9342   67.6985   65.2745 H   0  0  0  0  0  0  0  0  0  0  0  0
    4.0029   66.6032   64.3642 H   0  0  0  0  0  0  0  0  0  0  0  0
    5.2459   66.1171   61.7415 H   0  0  0  0  0  0  0  0  0  0  0  0
    3.5085   66.0128   62.2555 H   0  0  0  0  0  0  0  0  0  0  0  0
    5.1216   68.3942   61.3737 H   0  0  0  0  0  0  0  0  0  0  0  0
    3.3723   67.9850   61.1172 H   0  0  0  0  0  0  0  0  0  0  0  0
    5.5131   65.2063   65.3303 H   0  0  0  0  0  0  0  0  0  0  0  0
    4.8906   64.4252   63.8373 H   0  0  0  0  0  0  0  0  0  0  0  0
    6.5119   65.1987   63.8373 H   0  0  0  0  0  0  0  0  0  0  0  0
    1.2610   67.8003   69.6222 H   0  0  0  0  0  0  0  0  0  0  0  0
   -0.0423   67.2083   68.5370 H   0  0  0  0  0  0  0  0  0  0  0  0
    1.5623   66.4009   68.5370 H   0  0  0  0  0  0  0  0  0  0  0  0
    1.7565   69.2879   67.9966 H   0  0  0  0  0  0  0  0  0  0  0  0
    2.4111   67.8785   67.0713 H   0  0  0  0  0  0  0  0  0  0  0  0
  2  1  1  0
  3  2  2  0
  4  3  1  0
  5  4  2  0
  6  4  1  0
  7  6  2  0
  7  1  1  0
  8  7  1  0
  9  8  2  0
 10  9  1  0
 11 10  2  0
 11  6  1  0
 12 10  1  0
 13  9  1  0
 14 13  1  0
 15 14  1  0
 16 15  1  0
 17 16  1  0
 18 17  1  0
 18 13  1  0
 19 16  1  0
 20  3  1  0
 21 20  2  0
 22 20  1  0
 24 23  1  0
 24  1  1  0
  2 25  1  0
  8 26  1  0
 11 27  1  0
 14 28  1  0
 14 29  1  0
 15 30  1  0
 15 31  1  0
 16 32  1  0
 17 33  1  0
 17 34  1  0
 18 35  1  0
 18 36  1  0
 19 37  1  0
 19 38  1  0
 19 39  1  0
 23 40  1  0
 23 41  1  0
 23 42  1  0
 24 43  1  0
 24 44  1  0
M  CHG  2  16   1  22  -1
M  END
>  <score>  (8) 
-7.838

$$$$
=
     RDKit          3D

 44 46  0  0  0  0  0  0  0  0999 V2000
    1.7230   59.6250   72.8410 N   0  0  0  0  0  0  0  0  0  0  0  0
    2.6460   59.4020   71.8280 C   0  0  0  0  0  0  0  0  0  0  0  0
    3.1390   60.3180   70.9870 C   0  0  0  0  0  0  0  0  0  0  0  0
    2.6730   61.7010   71.1150 C   0  0  0  0  0  0  0  0  0  0  0  0
    2.9470   62.6050   70.3330 O   0  0  0  0  0  0  0  0  0  0  0  0
    1.7600   61.9910   72.2490 C   0  0  0  0  0  0  0  0  0  0  0  0
    1.2850   60.9460   73.0730 C   0  0  0  0  0  0  0  0  0  0  0  0
    0.3660   61.2970   74.0820 C   0  0  0  0  0  0  0  0  0  0  0  0
   -0.0820   62.6190   74.2800 C   0  0  0  0  0  0  0  0  0  0  0  0
    0.4520   63.6120   73.4430 C   0  0  0  0  0  0  0  0  0  0  0  0
    1.3580   63.3170   72.4410 C   0  0  0  0  0  0  0  0  0  0  0  0
    0.0010   64.8750   73.5310 F   0  0  0  0  0  0  0  0  0  0  0  0
   -1.0610   62.8540   75.2650 N   0  0  0  0  0  0  0  0  0  0  0  0
   -1.8050   61.7020   75.8250 C   0  0  0  0  0  0  0  0  0  0  0  0
   -1.3640   61.3440   77.2670 C   0  0  0  0  0  0  0  0  0  0  0  0
    0.0770   61.7510   77.5090 N   0  0  0  0  0  4  0  0  0  0  0  0
    0.2960   63.2520   77.3390 C   0  0  0  0  0  0  0  0  0  0  0  0
   -0.6480   63.8580   76.2710 C   0  0  0  0  0  0  0  0  0  0  0  0
    0.6640   61.2050   78.7630 C   0  0  0  0  0  0  0  0  0  0  0  0
    4.1580   59.8910   69.9560 C   0  0  0  0  0  0  0  0  0  0  0  0
    3.7750   58.9590   69.1880 O   0  0  0  0  0  0  0  0  0  0  0  0
    5.2890   60.4430   70.0470 O   0  0  0  0  0  1  0  0  0  0  0  0
    2.4400   58.1350   74.6730 C   0  0  0  0  0  0  0  0  0  0  0  0
    1.3180   58.5160   73.7190 C   0  0  0  0  0  0  0  0  0  0  0  0
    3.0075   58.3704   71.7049 H   0  0  0  0  0  0  0  0  0  0  0  0
   -0.0180   60.5061   74.7430 H   0  0  0  0  0  0  0  0  0  0  0  0
    1.7587   64.1171   71.8012 H   0  0  0  0  0  0  0  0  0  0  0  0
   -2.8770   61.9484   75.8366 H   0  0  0  0  0  0  0  0  0  0  0  0
   -1.5927   60.8304   75.1884 H   0  0  0  0  0  0  0  0  0  0  0  0
   -2.0121   61.8706   77.9830 H   0  0  0  0  0  0  0  0  0  0  0  0
   -1.4489   60.2554   77.4005 H   0  0  0  0  0  0  0  0  0  0  0  0
    0.6171   61.2947   76.7600 H   0  0  0  0  0  0  0  0  0  0  0  0
    0.1089   63.7497   78.3020 H   0  0  0  0  0  0  0  0  0  0  0  0
    1.3323   63.4089   77.0052 H   0  0  0  0  0  0  0  0  0  0  0  0
   -1.5458   64.2500   76.7714 H   0  0  0  0  0  0  0  0  0  0  0  0
   -0.1029   64.6585   75.7494 H   0  0  0  0  0  0  0  0  0  0  0  0
    0.1688   61.6656   79.6305 H   0  0  0  0  0  0  0  0  0  0  0  0
    0.5168   60.1153   78.7926 H   0  0  0  0  0  0  0  0  0  0  0  0
    1.7402   61.4306   78.7926 H   0  0  0  0  0  0  0  0  0  0  0  0
    2.0946   58.2523   75.7108 H   0  0  0  0  0  0  0  0  0  0  0  0
    2.7296   57.0882   74.4990 H   0  0  0  0  0  0  0  0  0  0  0  0
    3.3072   58.7891   74.4990 H   0  0  0  0  0  0  0  0  0  0  0  0
    1.0606   57.6436   73.1004 H   0  0  0  0  0  0  0  0  0  0  0  0
    0.4497   58.8391   74.3121 H   0  0  0  0  0  0  0  0  0  0  0  0
  2  1  1  0
  3  2  2  0
  4  3  1  0
  5  4  2  0
  6  4  1  0
  7  6  2  0
  7  1  1  0
  8  7  1  0
  9  8  2  0
 10  9  1  0
 11 10  2  0
 11  6  1  0
 12 10  1  0
 13  9  1  0
 14 13  1  0
 15 14  1  0
 16 15  1  0
 17 16  1  0
 18 17  1  0
 18 13  1  0
 19 16  1  0
 20  3  1  0
 21 20  2  0
 22 20  1  0
 24 23  1  0
 24  1  1  0
  2 25  1  0
  8 26  1  0
 11 27  1  0
 14 28  1  0
 14 29  1  0
 15 30  1  0
 15 31  1  0
 16 32  1  0
 17 33  1  0
 17 34  1  0
 18 35  1  0
 18 36  1  0
 19 37  1  0
 19 38  1  0
 19 39  1  0
 23 40  1  0
 23 41  1  0
 23 42  1  0
 24 43  1  0
 24 44  1  0
M  CHG  2  16   1  22  -1
M  END
>  <score>  (9) 
-7.103

$$$$
