=
     RDKit          3D

 50 51  0  0  0  0  0  0  0  0999 V2000
    0.3840   68.0980   66.8350 C   0  0  1  0  0  0  0  0  0  0  0  0
   -0.7840   68.7440   66.0950 C   0  0  0  0  0  0  0  0  0  0  0  0
    1.4640   69.0440   67.1180 N   0  0  0  0  0  0  0  0  0  0  0  0
    2.6860   69.1710   66.4320 C   0  0  0  0  0  0  0  0  0  0  0  0
    2.8460   68.8600   65.0840 C   0  0  0  0  0  0  0  0  0  0  0  0
    4.0800   69.0450   64.4890 C   0  0  0  0  0  0  0  0  0  0  0  0
    5.1580   69.5320   65.1270 N   0  0  0  0  0  0  0  0  0  0  0  0
    5.0300   69.8550   66.4190 C   0  0  0  0  0  0  0  0  0  0  0  0
    3.8140   69.7050   67.1290 C   0  0  0  0  0  0  0  0  0  0  0  0
    3.7830   70.1040   68.4890 C   0  0  0  0  0  0  0  0  0  0  0  0
    4.9160   70.6170   69.1220 C   0  0  0  0  0  0  0  0  0  0  0  0
    6.0950   70.7430   68.4030 C   0  0  0  0  0  0  0  0  0  0  0  0
    6.1460   70.3660   67.0650 C   0  0  0  0  0  0  0  0  0  0  0  0
    7.4970   71.3770   69.1710 Cl  0  0  0  0  0  0  0  0  0  0  0  0
   -0.0520   67.2480   68.0430 C   0  0  0  0  0  0  0  0  0  0  0  0
    1.0240   66.9450   69.0990 C   0  0  0  0  0  0  0  0  0  0  0  0
    0.6120   66.0510   70.2680 C   0  0  0  0  0  0  0  0  0  0  0  0
    1.0640   64.6070   70.0800 N   0  0  1  0  0  4  0  0  0  0  0  0
    2.4880   64.3970   70.5600 C   0  0  0  0  0  0  0  0  0  0  0  0
    3.2700   63.4320   69.6880 C   0  0  0  0  0  0  0  0  0  0  0  0
    0.0500   63.6150   70.6330 C   0  0  0  0  0  0  0  0  0  0  0  0
    0.3950   63.1330   72.0480 C   0  0  0  0  0  0  0  0  0  0  0  0
   -0.2100   64.0060   72.9880 O   0  0  0  0  0  0  0  0  0  0  0  0
    0.8221   67.3671   66.1393 H   0  0  0  0  0  0  0  0  0  0  0  0
   -1.5047   69.1426   66.8242 H   0  0  0  0  0  0  0  0  0  0  0  0
   -0.4099   69.5635   65.4637 H   0  0  0  0  0  0  0  0  0  0  0  0
   -1.2793   67.9916   65.4637 H   0  0  0  0  0  0  0  0  0  0  0  0
    1.3129   69.6886   67.9071 H   0  0  0  0  0  0  0  0  0  0  0  0
    1.9995   68.4713   64.4989 H   0  0  0  0  0  0  0  0  0  0  0  0
    4.1862   68.7770   63.4275 H   0  0  0  0  0  0  0  0  0  0  0  0
    2.8462   70.0072   69.0573 H   0  0  0  0  0  0  0  0  0  0  0  0
    4.8743   70.9180   70.1792 H   0  0  0  0  0  0  0  0  0  0  0  0
    7.0888   70.4751   66.5090 H   0  0  0  0  0  0  0  0  0  0  0  0
   -0.8724   67.7805   68.5464 H   0  0  0  0  0  0  0  0  0  0  0  0
   -0.3284   66.2696   67.6231 H   0  0  0  0  0  0  0  0  0  0  0  0
    1.8647   66.4550   68.5860 H   0  0  0  0  0  0  0  0  0  0  0  0
    1.2635   67.9182   69.5523 H   0  0  0  0  0  0  0  0  0  0  0  0
    1.0626   66.4453   71.1907 H   0  0  0  0  0  0  0  0  0  0  0  0
   -0.4866   66.0550   70.3236 H   0  0  0  0  0  0  0  0  0  0  0  0
    1.0941   64.4093   69.0696 H   0  0  0  0  0  0  0  0  0  0  0  0
    3.0050   65.3679   70.5597 H   0  0  0  0  0  0  0  0  0  0  0  0
    2.4350   63.9611   71.5686 H   0  0  0  0  0  0  0  0  0  0  0  0
    3.8341   62.7359   70.3261 H   0  0  0  0  0  0  0  0  0  0  0  0
    2.5736   62.8649   69.0529 H   0  0  0  0  0  0  0  0  0  0  0  0
    3.9691   63.9958   69.0529 H   0  0  0  0  0  0  0  0  0  0  0  0
   -0.9371   64.0998   70.6585 H   0  0  0  0  0  0  0  0  0  0  0  0
    0.0573   62.7343   69.9739 H   0  0  0  0  0  0  0  0  0  0  0  0
    0.0142   62.1114   72.1938 H   0  0  0  0  0  0  0  0  0  0  0  0
    1.4862   63.1320   72.1870 H   0  0  0  0  0  0  0  0  0  0  0  0
    0.0016   63.7007   73.9057 H   0  0  0  0  0  0  0  0  0  0  0  0
  2  1  1  0
  3  1  1  0
  4  3  1  0
  5  4  2  0
  6  5  1  0
  7  6  2  0
  8  7  1  0
  9  8  2  0
  9  4  1  0
 10  9  1  0
 11 10  2  0
 12 11  1  0
 13  8  1  0
 13 12  2  0
 14 12  1  0
 15  1  1  0
 16 15  1  0
 17 16  1  0
 18 17  1  0
 19 18  1  0
 20 19  1  0
 21 18  1  0
 22 21  1  0
 23 22  1  0
  1 24  1  6
  2 25  1  0
  2 26  1  0
  2 27  1  0
  3 28  1  0
  5 29  1  0
  6 30  1  0
 10 31  1  0
 11 32  1  0
 13 33  1  0
 15 34  1  0
 15 35  1  0
 16 36  1  0
 16 37  1  0
 17 38  1  0
 17 39  1  0
 18 40  1  6
 19 41  1  0
 19 42  1  0
 20 43  1  0
 20 44  1  0
 20 45  1  0
 21 46  1  0
 21 47  1  0
 22 48  1  0
 22 49  1  0
 23 50  1  0
M  CHG  1  18   1
M  END
>  <score>  (1) 
-8.688

$$$$
=
     RDKit          3D

 50 51  0  0  0  0  0  0  0  0999 V2000
    3.1460   67.9470   64.2850 C   0  0  1  0  0  0  0  0  0  0  0  0
    4.1330   66.8200   63.9950 C   0  0  0  0  0  0  0  0  0  0  0  0
    3.7680   69.0740   64.9830 N   0  0  0  0  0  0  0  0  0  0  0  0
    3.5650   69.4650   66.3180 C   0  0  0  0  0  0  0  0  0  0  0  0
    2.3350   69.3740   66.9660 C   0  0  0  0  0  0  0  0  0  0  0  0
    2.2380   69.7570   68.2920 C   0  0  0  0  0  0  0  0  0  0  0  0
    3.2730   70.2040   69.0220 N   0  0  0  0  0  0  0  0  0  0  0  0
    4.4700   70.2880   68.4320 C   0  0  0  0  0  0  0  0  0  0  0  0
    4.6840   69.9250   67.0790 C   0  0  0  0  0  0  0  0  0  0  0  0
    6.0000   70.0270   66.5610 C   0  0  0  0  0  0  0  0  0  0  0  0
    7.0570   70.4850   67.3490 C   0  0  0  0  0  0  0  0  0  0  0  0
    6.8150   70.8430   68.6670 C   0  0  0  0  0  0  0  0  0  0  0  0
    5.5330   70.7410   69.1980 C   0  0  0  0  0  0  0  0  0  0  0  0
    8.1100   71.4050   69.6480 Cl  0  0  0  0  0  0  0  0  0  0  0  0
    2.2940   68.3440   63.0660 C   0  0  0  0  0  0  0  0  0  0  0  0
    0.7670   68.2970   63.2450 C   0  0  0  0  0  0  0  0  0  0  0  0
    0.1840   69.0880   64.4150 C   0  0  0  0  0  0  0  0  0  0  0  0
   -0.7580   68.2480   65.2690 N   0  0  1  0  0  4  0  0  0  0  0  0
   -0.0030   67.2250   66.0990 C   0  0  0  0  0  0  0  0  0  0  0  0
   -0.4620   67.1800   67.5440 C   0  0  0  0  0  0  0  0  0  0  0  0
   -1.7380   69.1090   66.0550 C   0  0  0  0  0  0  0  0  0  0  0  0
   -3.2040   68.7560   65.7730 C   0  0  0  0  0  0  0  0  0  0  0  0
   -3.8290   68.3910   66.9920 O   0  0  0  0  0  0  0  0  0  0  0  0
    2.4147   67.5391   64.9983 H   0  0  0  0  0  0  0  0  0  0  0  0
    4.5000   66.4009   64.9435 H   0  0  0  0  0  0  0  0  0  0  0  0
    3.6296   66.0316   63.4162 H   0  0  0  0  0  0  0  0  0  0  0  0
    4.9809   67.2151   63.4162 H   0  0  0  0  0  0  0  0  0  0  0  0
    4.4279   69.6439   64.4347 H   0  0  0  0  0  0  0  0  0  0  0  0
    1.4502   69.0015   66.4290 H   0  0  0  0  0  0  0  0  0  0  0  0
    1.2533   69.6914   68.7779 H   0  0  0  0  0  0  0  0  0  0  0  0
    6.1918   69.7393   65.5168 H   0  0  0  0  0  0  0  0  0  0  0  0
    8.0710   70.5612   66.9294 H   0  0  0  0  0  0  0  0  0  0  0  0
    5.3595   71.0254   70.2463 H   0  0  0  0  0  0  0  0  0  0  0  0
    2.5657   69.3738   62.7907 H   0  0  0  0  0  0  0  0  0  0  0  0
    2.5182   67.5886   62.2985 H   0  0  0  0  0  0  0  0  0  0  0  0
    0.3120   68.6851   62.3218 H   0  0  0  0  0  0  0  0  0  0  0  0
    0.5363   67.2446   63.4668 H   0  0  0  0  0  0  0  0  0  0  0  0
    1.0103   69.4455   65.0470 H   0  0  0  0  0  0  0  0  0  0  0  0
   -0.3954   69.9256   63.9994 H   0  0  0  0  0  0  0  0  0  0  0  0
   -1.3514   67.6913   64.6374 H   0  0  0  0  0  0  0  0  0  0  0  0
   -0.1533   66.2311   65.6522 H   0  0  0  0  0  0  0  0  0  0  0  0
    1.0571   67.5187   66.0992 H   0  0  0  0  0  0  0  0  0  0  0  0
    0.4103   67.2655   68.2086 H   0  0  0  0  0  0  0  0  0  0  0  0
   -1.1522   68.0148   67.7356 H   0  0  0  0  0  0  0  0  0  0  0  0
   -0.9770   66.2271   67.7356 H   0  0  0  0  0  0  0  0  0  0  0  0
   -1.5440   68.9699   67.1288 H   0  0  0  0  0  0  0  0  0  0  0  0
   -1.5842   70.1524   65.7423 H   0  0  0  0  0  0  0  0  0  0  0  0
   -3.7175   69.6275   65.3408 H   0  0  0  0  0  0  0  0  0  0  0  0
   -3.2565   67.9191   65.0610 H   0  0  0  0  0  0  0  0  0  0  0  0
   -3.2814   68.7108   67.7523 H   0  0  0  0  0  0  0  0  0  0  0  0
  2  1  1  0
  3  1  1  0
  4  3  1  0
  5  4  2  0
  6  5  1  0
  7  6  2  0
  8  7  1  0
  9  8  2  0
  9  4  1  0
 10  9  1  0
 11 10  2  0
 12 11  1  0
 13  8  1  0
 13 12  2  0
 14 12  1  0
 15  1  1  0
 16 15  1  0
 17 16  1  0
 18 17  1  0
 19 18  1  0
 20 19  1  0
 21 18  1  0
 22 21  1  0
 23 22  1  0
  1 24  1  1
  2 25  1  0
  2 26  1  0
  2 27  1  0
  3 28  1  0
  5 29  1  0
  6 30  1  0
 10 31  1  0
 11 32  1  0
 13 33  1  0
 15 34  1  0
 15 35  1  0
 16 36  1  0
 16 37  1  0
 17 38  1  0
 17 39  1  0
 18 40  1  6
 19 41  1  0
 19 42  1  0
 20 43  1  0
 20 44  1  0
 20 45  1  0
 21 46  1  0
 21 47  1  0
 22 48  1  0
 22 49  1  0
 23 50  1  0
M  CHG  1  18   1
M  END
>  <score>  (2) 
-8.605

$$$$
=
     RDKit          3D

 50 51  0  0  0  0  0  0  0  0999 V2000
    1.8130   68.5530   64.8860 C   0  0  1  0  0  0  0  0  0  0  0  0
    1.5830   67.0470   64.9620 C   0  0  0  0  0  0  0  0  0  0  0  0
    3.0070   68.9770   65.6190 N   0  0  0  0  0  0  0  0  0  0  0  0
    3.0600   69.5360   66.9080 C   0  0  0  0  0  0  0  0  0  0  0  0
    1.9520   69.6400   67.7470 C   0  0  0  0  0  0  0  0  0  0  0  0
    2.1080   70.1780   69.0110 C   0  0  0  0  0  0  0  0  0  0  0  0
    3.2820   70.6020   69.5080 N   0  0  0  0  0  0  0  0  0  0  0  0
    4.3670   70.5010   68.7320 C   0  0  0  0  0  0  0  0  0  0  0  0
    4.3230   69.9670   67.4210 C   0  0  0  0  0  0  0  0  0  0  0  0
    5.5380   69.8800   66.6950 C   0  0  0  0  0  0  0  0  0  0  0  0
    6.7440   70.3190   67.2430 C   0  0  0  0  0  0  0  0  0  0  0  0
    6.7550   70.8460   68.5260 C   0  0  0  0  0  0  0  0  0  0  0  0
    5.5750   70.9320   69.2590 C   0  0  0  0  0  0  0  0  0  0  0  0
    8.2350   71.3860   69.2130 Cl  0  0  0  0  0  0  0  0  0  0  0  0
    1.7080   69.1170   63.4570 C   0  0  0  0  0  0  0  0  0  0  0  0
    2.2070   68.2130   62.3180 C   0  0  0  0  0  0  0  0  0  0  0  0
    3.5480   68.5780   61.6830 C   0  0  0  0  0  0  0  0  0  0  0  0
    4.6290   67.5450   61.9800 N   0  0  1  0  0  4  0  0  0  0  0  0
    5.7490   68.1290   62.8220 C   0  0  0  0  0  0  0  0  0  0  0  0
    5.5190   69.5840   63.1840 C   0  0  0  0  0  0  0  0  0  0  0  0
    4.0440   66.2420   62.5090 C   0  0  0  0  0  0  0  0  0  0  0  0
    4.7700   65.7240   63.7570 C   0  0  0  0  0  0  0  0  0  0  0  0
    5.1740   64.3840   63.5270 O   0  0  0  0  0  0  0  0  0  0  0  0
    0.9714   69.0204   65.4183 H   0  0  0  0  0  0  0  0  0  0  0  0
    1.5355   66.7361   66.0161 H   0  0  0  0  0  0  0  0  0  0  0  0
    0.6360   66.7950   64.4624 H   0  0  0  0  0  0  0  0  0  0  0  0
    2.4117   66.5238   64.4624 H   0  0  0  0  0  0  0  0  0  0  0  0
    3.9086   68.8519   65.1369 H   0  0  0  0  0  0  0  0  0  0  0  0
    0.9635   69.2975   67.4070 H   0  0  0  0  0  0  0  0  0  0  0  0
    1.2161   70.2642   69.6490 H   0  0  0  0  0  0  0  0  0  0  0  0
    5.5297   69.4579   65.6792 H   0  0  0  0  0  0  0  0  0  0  0  0
    7.6762   70.2478   66.6635 H   0  0  0  0  0  0  0  0  0  0  0  0
    5.6012   71.3500   70.2761 H   0  0  0  0  0  0  0  0  0  0  0  0
    0.6484   69.3411   63.2644 H   0  0  0  0  0  0  0  0  0  0  0  0
    2.3736   69.9927   63.4429 H   0  0  0  0  0  0  0  0  0  0  0  0
    2.2957   67.1923   62.7184 H   0  0  0  0  0  0  0  0  0  0  0  0
    1.4668   68.3310   61.5129 H   0  0  0  0  0  0  0  0  0  0  0  0
    3.4159   68.6484   60.5932 H   0  0  0  0  0  0  0  0  0  0  0  0
    3.8729   69.5377   62.1111 H   0  0  0  0  0  0  0  0  0  0  0  0
    5.0765   67.2845   61.0896 H   0  0  0  0  0  0  0  0  0  0  0  0
    5.8309   67.5451   63.7506 H   0  0  0  0  0  0  0  0  0  0  0  0
    6.6712   68.0796   62.2243 H   0  0  0  0  0  0  0  0  0  0  0  0
    5.5020   69.6912   64.2786 H   0  0  0  0  0  0  0  0  0  0  0  0
    6.3312   70.1982   62.7679 H   0  0  0  0  0  0  0  0  0  0  0  0
    4.5570   69.9177   62.7679 H   0  0  0  0  0  0  0  0  0  0  0  0
    2.9867   66.4094   62.7623 H   0  0  0  0  0  0  0  0  0  0  0  0
    4.1614   65.4838   61.7207 H   0  0  0  0  0  0  0  0  0  0  0  0
    5.6539   66.3477   63.9562 H   0  0  0  0  0  0  0  0  0  0  0  0
    4.0972   65.7678   64.6262 H   0  0  0  0  0  0  0  0  0  0  0  0
    5.3117   63.9273   64.3945 H   0  0  0  0  0  0  0  0  0  0  0  0
  2  1  1  0
  3  1  1  0
  4  3  1  0
  5  4  2  0
  6  5  1  0
  7  6  2  0
  8  7  1  0
  9  8  2  0
  9  4  1  0
 10  9  1  0
 11 10  2  0
 12 11  1  0
 13  8  1  0
 13 12  2  0
 14 12  1  0
 15  1  1  0
 16 15  1  0
 17 16  1  0
 18 17  1  0
 19 18  1  0
 20 19  1  0
 21 18  1  0
 22 21  1  0
 23 22  1  0
  1 24  1  1
  2 25  1  0
  2 26  1  0
  2 27  1  0
  3 28  1  0
  5 29  1  0
  6 30  1  0
 10 31  1  0
 11 32  1  0
 13 33  1  0
 15 34  1  0
 15 35  1  0
 16 36  1  0
 16 37  1  0
 17 38  1  0
 17 39  1  0
 18 40  1  6
 19 41  1  0
 19 42  1  0
 20 43  1  0
 20 44  1  0
 20 45  1  0
 21 46  1  0
 21 47  1  0
 22 48  1  0
 22 49  1  0
 23 50  1  0
M  CHG  1  18   1
M  END
>  <score>  (3) 
-8.441

$$$$
=
     RDKit          3D

 50 51  0  0  0  0  0  0  0  0999 V2000
    0.9210   67.4990   68.2880 C   0  0  1  0  0  0  0  0  0  0  0  0
   -0.5240   67.1810   67.9150 C   0  0  0  0  0  0  0  0  0  0  0  0
    1.2520   68.9130   68.1020 N   0  0  0  0  0  0  0  0  0  0  0  0
    2.5350   69.4780   67.9870 C   0  0  0  0  0  0  0  0  0  0  0  0
    3.2040   70.0850   69.0480 C   0  0  0  0  0  0  0  0  0  0  0  0
    4.4770   70.5880   68.8460 C   0  0  0  0  0  0  0  0  0  0  0  0
    5.1370   70.5170   67.6780 N   0  0  0  0  0  0  0  0  0  0  0  0
    4.5260   69.9260   66.6460 C   0  0  0  0  0  0  0  0  0  0  0  0
    3.2230   69.3780   66.7380 C   0  0  0  0  0  0  0  0  0  0  0  0
    2.6810   68.7490   65.5890 C   0  0  0  0  0  0  0  0  0  0  0  0
    3.3960   68.6810   64.3930 C   0  0  0  0  0  0  0  0  0  0  0  0
    4.6660   69.2350   64.3290 C   0  0  0  0  0  0  0  0  0  0  0  0
    5.2210   69.8480   65.4480 C   0  0  0  0  0  0  0  0  0  0  0  0
    5.5590   69.1540   62.8620 Cl  0  0  0  0  0  0  0  0  0  0  0  0
    1.3440   66.9190   69.6500 C   0  0  0  0  0  0  0  0  0  0  0  0
    0.3440   65.9790   70.3430 C   0  0  0  0  0  0  0  0  0  0  0  0
    0.6820   64.4880   70.3430 C   0  0  0  0  0  0  0  0  0  0  0  0
    1.8630   64.1630   71.2500 N   0  0  1  0  0  4  0  0  0  0  0  0
    1.4860   63.1590   72.3250 C   0  0  0  0  0  0  0  0  0  0  0  0
    0.4690   63.7030   73.3110 C   0  0  0  0  0  0  0  0  0  0  0  0
    3.1130   63.8090   70.4560 C   0  0  0  0  0  0  0  0  0  0  0  0
    2.8920   62.6470   69.4780 C   0  0  0  0  0  0  0  0  0  0  0  0
    3.3050   63.0550   68.1840 O   0  0  0  0  0  0  0  0  0  0  0  0
    1.5508   66.9617   67.5637 H   0  0  0  0  0  0  0  0  0  0  0  0
   -1.1188   67.0501   68.8310 H   0  0  0  0  0  0  0  0  0  0  0  0
   -0.9405   68.0090   67.3226 H   0  0  0  0  0  0  0  0  0  0  0  0
   -0.5544   66.2547   67.3226 H   0  0  0  0  0  0  0  0  0  0  0  0
    0.4575   69.5663   68.0496 H   0  0  0  0  0  0  0  0  0  0  0  0
    2.7253   70.1634   70.0353 H   0  0  0  0  0  0  0  0  0  0  0  0
    4.9796   71.0761   69.6940 H   0  0  0  0  0  0  0  0  0  0  0  0
    1.6758   68.3053   65.6415 H   0  0  0  0  0  0  0  0  0  0  0  0
    2.9572   68.1932   63.5101 H   0  0  0  0  0  0  0  0  0  0  0  0
    6.2307   70.2793   65.3814 H   0  0  0  0  0  0  0  0  0  0  0  0
    2.2777   66.3578   69.4974 H   0  0  0  0  0  0  0  0  0  0  0  0
    1.4331   67.7882   70.3182 H   0  0  0  0  0  0  0  0  0  0  0  0
    0.2578   66.3002   71.3915 H   0  0  0  0  0  0  0  0  0  0  0  0
   -0.5825   66.0630   69.7560 H   0  0  0  0  0  0  0  0  0  0  0  0
   -0.1970   63.9260   70.6916 H   0  0  0  0  0  0  0  0  0  0  0  0
    0.9581   64.2054   69.3164 H   0  0  0  0  0  0  0  0  0  0  0  0
    2.1172   65.0187   71.7639 H   0  0  0  0  0  0  0  0  0  0  0  0
    1.0621   62.2676   71.8395 H   0  0  0  0  0  0  0  0  0  0  0  0
    2.3995   62.9221   72.8902 H   0  0  0  0  0  0  0  0  0  0  0  0
    0.8175   63.5166   74.3376 H   0  0  0  0  0  0  0  0  0  0  0  0
    0.3498   64.7853   73.1551 H   0  0  0  0  0  0  0  0  0  0  0  0
   -0.4975   63.2014   73.1551 H   0  0  0  0  0  0  0  0  0  0  0  0
    3.4273   64.6942   69.8836 H   0  0  0  0  0  0  0  0  0  0  0  0
    3.8818   63.4919   71.1760 H   0  0  0  0  0  0  0  0  0  0  0  0
    3.4838   61.7767   69.7979 H   0  0  0  0  0  0  0  0  0  0  0  0
    1.8277   62.3697   69.4609 H   0  0  0  0  0  0  0  0  0  0  0  0
    4.0069   63.7484   68.2650 H   0  0  0  0  0  0  0  0  0  0  0  0
  2  1  1  0
  3  1  1  0
  4  3  1  0
  5  4  2  0
  6  5  1  0
  7  6  2  0
  8  7  1  0
  9  8  2  0
  9  4  1  0
 10  9  1  0
 11 10  2  0
 12 11  1  0
 13  8  1  0
 13 12  2  0
 14 12  1  0
 15  1  1  0
 16 15  1  0
 17 16  1  0
 18 17  1  0
 19 18  1  0
 20 19  1  0
 21 18  1  0
 22 21  1  0
 23 22  1  0
  1 24  1  6
  2 25  1  0
  2 26  1  0
  2 27  1  0
  3 28  1  0
  5 29  1  0
  6 30  1  0
 10 31  1  0
 11 32  1  0
 13 33  1  0
 15 34  1  0
 15 35  1  0
 16 36  1  0
 16 37  1  0
 17 38  1  0
 17 39  1  0
 18 40  1  1
 19 41  1  0
 19 42  1  0
 20 43  1  0
 20 44  1  0
 20 45  1  0
 21 46  1  0
 21 47  1  0
 22 48  1  0
 22 49  1  0
 23 50  1  0
M  CHG  1  18   1
M  END
>  <score>  (4) 
-8.353

$$$$
=
     RDKit          3D

 50 51  0  0  0  0  0  0  0  0999 V2000
    1.0400   67.6010   68.3820 C   0  0  1  0  0  0  0  0  0  0  0  0
   -0.3490   67.2810   67.8380 C   0  0  0  0  0  0  0  0  0  0  0  0
    1.3920   69.0140   68.2290 N   0  0  0  0  0  0  0  0  0  0  0  0
    2.6760   69.5560   68.0390 C   0  0  0  0  0  0  0  0  0  0  0  0
    3.4080   70.1700   69.0530 C   0  0  0  0  0  0  0  0  0  0  0  0
    4.6760   70.6470   68.7780 C   0  0  0  0  0  0  0  0  0  0  0  0
    5.2760   70.5430   67.5800 N   0  0  0  0  0  0  0  0  0  0  0  0
    4.6040   69.9440   66.5910 C   0  0  0  0  0  0  0  0  0  0  0  0
    3.2990   69.4200   66.7590 C   0  0  0  0  0  0  0  0  0  0  0  0
    2.6890   68.7800   65.6510 C   0  0  0  0  0  0  0  0  0  0  0  0
    3.3410   68.6780   64.4220 C   0  0  0  0  0  0  0  0  0  0  0  0
    4.6150   69.2090   64.2840 C   0  0  0  0  0  0  0  0  0  0  0  0
    5.2360   69.8330   65.3620 C   0  0  0  0  0  0  0  0  0  0  0  0
    5.4310   69.0860   62.7760 Cl  0  0  0  0  0  0  0  0  0  0  0  0
    1.2930   67.0300   69.7890 C   0  0  0  0  0  0  0  0  0  0  0  0
    0.8940   65.5640   70.0230 C   0  0  0  0  0  0  0  0  0  0  0  0
    1.9970   64.6140   70.4900 C   0  0  0  0  0  0  0  0  0  0  0  0
    1.6670   63.1550   70.1940 N   0  0  1  0  0  4  0  0  0  0  0  0
    2.7850   62.4710   69.4280 C   0  0  0  0  0  0  0  0  0  0  0  0
    4.1600   63.0070   69.7830 C   0  0  0  0  0  0  0  0  0  0  0  0
    1.1970   62.4120   71.4370 C   0  0  0  0  0  0  0  0  0  0  0  0
   -0.2520   62.7420   71.8190 C   0  0  0  0  0  0  0  0  0  0  0  0
   -0.2760   63.2060   73.1590 O   0  0  0  0  0  0  0  0  0  0  0  0
    1.7530   67.0590   67.7433 H   0  0  0  0  0  0  0  0  0  0  0  0
   -1.0432   67.1211   68.6762 H   0  0  0  0  0  0  0  0  0  0  0  0
   -0.7043   68.1208   67.2228 H   0  0  0  0  0  0  0  0  0  0  0  0
   -0.3010   66.3704   67.2228 H   0  0  0  0  0  0  0  0  0  0  0  0
    0.6123   69.6861   68.2645 H   0  0  0  0  0  0  0  0  0  0  0  0
    2.9815   70.2741   70.0616 H   0  0  0  0  0  0  0  0  0  0  0  0
    5.2282   71.1425   69.5902 H   0  0  0  0  0  0  0  0  0  0  0  0
    1.6806   68.3550   65.7626 H   0  0  0  0  0  0  0  0  0  0  0  0
    2.8502   68.1819   63.5717 H   0  0  0  0  0  0  0  0  0  0  0  0
    6.2477   70.2461   65.2365 H   0  0  0  0  0  0  0  0  0  0  0  0
    2.3697   67.1191   69.9959 H   0  0  0  0  0  0  0  0  0  0  0  0
    0.6455   67.6154   70.4584 H   0  0  0  0  0  0  0  0  0  0  0  0
    0.1009   65.5529   70.7851 H   0  0  0  0  0  0  0  0  0  0  0  0
    0.5903   65.1878   69.0349 H   0  0  0  0  0  0  0  0  0  0  0  0
    2.9323   64.8769   69.9742 H   0  0  0  0  0  0  0  0  0  0  0  0
    2.0956   64.7225   71.5802 H   0  0  0  0  0  0  0  0  0  0  0  0
    0.8572   63.1321   69.5579 H   0  0  0  0  0  0  0  0  0  0  0  0
    2.7586   61.3950   69.6552 H   0  0  0  0  0  0  0  0  0  0  0  0
    2.6204   62.6684   68.3585 H   0  0  0  0  0  0  0  0  0  0  0  0
    4.2662   63.0484   70.8771 H   0  0  0  0  0  0  0  0  0  0  0  0
    4.9314   62.3437   69.3646 H   0  0  0  0  0  0  0  0  0  0  0  0
    4.2789   64.0173   69.3646 H   0  0  0  0  0  0  0  0  0  0  0  0
    1.2727   61.3308   71.2490 H   0  0  0  0  0  0  0  0  0  0  0  0
    1.8385   62.7287   72.2726 H   0  0  0  0  0  0  0  0  0  0  0  0
   -0.6422   63.5232   71.1500 H   0  0  0  0  0  0  0  0  0  0  0  0
   -0.8783   61.8428   71.7231 H   0  0  0  0  0  0  0  0  0  0  0  0
   -0.2360   62.4333   73.7766 H   0  0  0  0  0  0  0  0  0  0  0  0
  2  1  1  0
  3  1  1  0
  4  3  1  0
  5  4  2  0
  6  5  1  0
  7  6  2  0
  8  7  1  0
  9  8  2  0
  9  4  1  0
 10  9  1  0
 11 10  2  0
 12 11  1  0
 13  8  1  0
 13 12  2  0
 14 12  1  0
 15  1  1  0
 16 15  1  0
 17 16  1  0
 18 17  1  0
 19 18  1  0
 20 19  1  0
 21 18  1  0
 22 21  1  0
 23 22  1  0
  1 24  1  6
  2 25  1  0
  2 26  1  0
  2 27  1  0
  3 28  1  0
  5 29  1  0
  6 30  1  0
 10 31  1  0
 11 32  1  0
 13 33  1  0
 15 34  1  0
 15 35  1  0
 16 36  1  0
 16 37  1  0
 17 38  1  0
 17 39  1  0
 18 40  1  6
 19 41  1  0
 19 42  1  0
 20 43  1  0
 20 44  1  0
 20 45  1  0
 21 46  1  0
 21 47  1  0
 22 48  1  0
 22 49  1  0
 23 50  1  0
M  CHG  1  18   1
M  END
>  <score>  (5) 
-8.352

$$$$
=
     RDKit          3D

 50 51  0  0  0  0  0  0  0  0999 V2000
    0.5580   67.5350   67.9310 C   0  0  1  0  0  0  0  0  0  0  0  0
   -0.9640   67.5080   68.0180 C   0  0  0  0  0  0  0  0  0  0  0  0
    1.0690   68.8020   67.4040 N   0  0  0  0  0  0  0  0  0  0  0  0
    2.2250   68.9970   66.6270 C   0  0  0  0  0  0  0  0  0  0  0  0
    2.2890   68.7210   65.2630 C   0  0  0  0  0  0  0  0  0  0  0  0
    3.4630   68.9730   64.5760 C   0  0  0  0  0  0  0  0  0  0  0  0
    4.5660   69.4940   65.1380 N   0  0  0  0  0  0  0  0  0  0  0  0
    4.5290   69.7850   66.4430 C   0  0  0  0  0  0  0  0  0  0  0  0
    3.3820   69.5660   67.2440 C   0  0  0  0  0  0  0  0  0  0  0  0
    3.4430   69.9360   68.6110 C   0  0  0  0  0  0  0  0  0  0  0  0
    4.6000   70.4860   69.1640 C   0  0  0  0  0  0  0  0  0  0  0  0
    5.7110   70.6790   68.3580 C   0  0  0  0  0  0  0  0  0  0  0  0
    5.6700   70.3320   67.0110 C   0  0  0  0  0  0  0  0  0  0  0  0
    7.1420   71.3590   69.0260 Cl  0  0  0  0  0  0  0  0  0  0  0  0
    1.2550   67.0540   69.2170 C   0  0  0  0  0  0  0  0  0  0  0  0
    0.3940   66.2600   70.2140 C   0  0  0  0  0  0  0  0  0  0  0  0
    0.4310   64.7370   70.0990 C   0  0  0  0  0  0  0  0  0  0  0  0
    1.4440   64.1090   71.0500 N   0  0  1  0  0  4  0  0  0  0  0  0
    1.0530   62.6930   71.4320 C   0  0  0  0  0  0  0  0  0  0  0  0
   -0.2870   62.6200   72.1410 C   0  0  0  0  0  0  0  0  0  0  0  0
    2.8720   64.2630   70.5440 C   0  0  0  0  0  0  0  0  0  0  0  0
    3.4180   62.9860   69.8930 C   0  0  0  0  0  0  0  0  0  0  0  0
    3.2620   63.0880   68.4860 O   0  0  0  0  0  0  0  0  0  0  0  0
    0.8352   66.7803   67.1803 H   0  0  0  0  0  0  0  0  0  0  0  0
   -1.2708   67.5026   69.0743 H   0  0  0  0  0  0  0  0  0  0  0  0
   -1.3755   68.3990   67.5212 H   0  0  0  0  0  0  0  0  0  0  0  0
   -1.3437   66.6030   67.5212 H   0  0  0  0  0  0  0  0  0  0  0  0
    0.5205   69.6447   67.6273 H   0  0  0  0  0  0  0  0  0  0  0  0
    1.4155   68.3072   64.7379 H   0  0  0  0  0  0  0  0  0  0  0  0
    3.4951   68.7318   63.5033 H   0  0  0  0  0  0  0  0  0  0  0  0
    2.5597   69.7864   69.2493 H   0  0  0  0  0  0  0  0  0  0  0  0
    4.6301   70.7634   70.2280 H   0  0  0  0  0  0  0  0  0  0  0  0
    6.5596   70.4946   66.3847 H   0  0  0  0  0  0  0  0  0  0  0  0
    2.0975   66.4124   68.9194 H   0  0  0  0  0  0  0  0  0  0  0  0
    1.5425   67.9720   69.7505 H   0  0  0  0  0  0  0  0  0  0  0  0
    0.7295   66.5250   71.2275 H   0  0  0  0  0  0  0  0  0  0  0  0
   -0.6443   66.5400   69.9828 H   0  0  0  0  0  0  0  0  0  0  0  0
   -0.5677   64.3402   70.3337 H   0  0  0  0  0  0  0  0  0  0  0  0
    0.7325   64.4845   69.0717 H   0  0  0  0  0  0  0  0  0  0  0  0
    1.4242   64.6364   71.9345 H   0  0  0  0  0  0  0  0  0  0  0  0
    0.9993   62.0850   70.5169 H   0  0  0  0  0  0  0  0  0  0  0  0
    1.8159   62.3172   72.1296 H   0  0  0  0  0  0  0  0  0  0  0  0
   -0.1270   62.6287   73.2293 H   0  0  0  0  0  0  0  0  0  0  0  0
   -0.9015   63.4860   71.8538 H   0  0  0  0  0  0  0  0  0  0  0  0
   -0.8037   61.6924   71.8538 H   0  0  0  0  0  0  0  0  0  0  0  0
    2.8949   65.0730   69.8002 H   0  0  0  0  0  0  0  0  0  0  0  0
    3.5071   64.4864   71.4139 H   0  0  0  0  0  0  0  0  0  0  0  0
    4.4839   62.8718   70.1396 H   0  0  0  0  0  0  0  0  0  0  0  0
    2.8677   62.1104   70.2678 H   0  0  0  0  0  0  0  0  0  0  0  0
    2.4513   63.6181   68.2814 H   0  0  0  0  0  0  0  0  0  0  0  0
  2  1  1  0
  3  1  1  0
  4  3  1  0
  5  4  2  0
  6  5  1  0
  7  6  2  0
  8  7  1  0
  9  8  2  0
  9  4  1  0
 10  9  1  0
 11 10  2  0
 12 11  1  0
 13  8  1  0
 13 12  2  0
 14 12  1  0
 15  1  1  0
 16 15  1  0
 17 16  1  0
 18 17  1  0
 19 18  1  0
 20 19  1  0
 21 18  1  0
 22 21  1  0
 23 22  1  0
  1 24  1  6
  2 25  1  0
  2 26  1  0
  2 27  1  0
  3 28  1  0
  5 29  1  0
  6 30  1  0
 10 31  1  0
 11 32  1  0
 13 33  1  0
 15 34  1  0
 15 35  1  0
 16 36  1  0
 16 37  1  0
 17 38  1  0
 17 39  1  0
 18 40  1  1
 19 41  1  0
 19 42  1  0
 20 43  1  0
 20 44  1  0
 20 45  1  0
 21 46  1  0
 21 47  1  0
 22 48  1  0
 22 49  1  0
 23 50  1  0
M  CHG  1  18   1
M  END
>  <score>  (6) 
-8.189

$$$$
=
     RDKit          3D

 50 51  0  0  0  0  0  0  0  0999 V2000
    1.3930   68.0730   66.9760 C   0  0  1  0  0  0  0  0  0  0  0  0
    1.0650   67.6540   68.4050 C   0  0  0  0  0  0  0  0  0  0  0  0
    2.1640   69.3160   66.9160 N   0  0  0  0  0  0  0  0  0  0  0  0
    3.4510   69.4940   66.3790 C   0  0  0  0  0  0  0  0  0  0  0  0
    3.7500   69.3240   65.0290 C   0  0  0  0  0  0  0  0  0  0  0  0
    5.0410   69.5510   64.5880 C   0  0  0  0  0  0  0  0  0  0  0  0
    6.0480   69.9510   65.3820 N   0  0  0  0  0  0  0  0  0  0  0  0
    5.7870   70.1390   66.6800 C   0  0  0  0  0  0  0  0  0  0  0  0
    4.5030   69.9340   67.2410 C   0  0  0  0  0  0  0  0  0  0  0  0
    4.3300   70.1900   68.6250 C   0  0  0  0  0  0  0  0  0  0  0  0
    5.3930   70.6160   69.4230 C   0  0  0  0  0  0  0  0  0  0  0  0
    6.6420   70.7980   68.8480 C   0  0  0  0  0  0  0  0  0  0  0  0
    6.8310   70.5620   67.4890 C   0  0  0  0  0  0  0  0  0  0  0  0
    7.9590   71.3260   69.8190 Cl  0  0  0  0  0  0  0  0  0  0  0  0
    1.9610   66.9280   66.1170 C   0  0  0  0  0  0  0  0  0  0  0  0
    1.3240   66.7180   64.7340 C   0  0  0  0  0  0  0  0  0  0  0  0
    2.0070   67.4000   63.5480 C   0  0  0  0  0  0  0  0  0  0  0  0
    1.0480   68.2860   62.7600 N   0  0  1  0  0  4  0  0  0  0  0  0
    0.2300   69.1810   63.6730 C   0  0  0  0  0  0  0  0  0  0  0  0
   -1.2660   69.0160   63.4770 C   0  0  0  0  0  0  0  0  0  0  0  0
    1.7490   69.0090   61.6170 C   0  0  0  0  0  0  0  0  0  0  0  0
    3.2000   68.5520   61.4200 C   0  0  0  0  0  0  0  0  0  0  0  0
    3.7010   69.1260   60.2230 O   0  0  0  0  0  0  0  0  0  0  0  0
    0.4316   68.3121   66.4979 H   0  0  0  0  0  0  0  0  0  0  0  0
    1.5852   68.3185   69.1105 H   0  0  0  0  0  0  0  0  0  0  0  0
   -0.0206   67.7242   68.5677 H   0  0  0  0  0  0  0  0  0  0  0  0
    1.3938   66.6170   68.5677 H   0  0  0  0  0  0  0  0  0  0  0  0
    1.7133   70.1535   67.3113 H   0  0  0  0  0  0  0  0  0  0  0  0
    2.9676   69.0125   64.3213 H   0  0  0  0  0  0  0  0  0  0  0  0
    5.2566   69.3943   63.5208 H   0  0  0  0  0  0  0  0  0  0  0  0
    3.3379   70.0500   69.0789 H   0  0  0  0  0  0  0  0  0  0  0  0
    5.2418   70.8053   70.4960 H   0  0  0  0  0  0  0  0  0  0  0  0
    7.8274   70.7139   67.0485 H   0  0  0  0  0  0  0  0  0  0  0  0
    3.0319   67.1268   65.9635 H   0  0  0  0  0  0  0  0  0  0  0  0
    1.7389   66.0088   66.6790 H   0  0  0  0  0  0  0  0  0  0  0  0
    1.3124   65.6364   64.5340 H   0  0  0  0  0  0  0  0  0  0  0  0
    0.3307   67.1859   64.8013 H   0  0  0  0  0  0  0  0  0  0  0  0
    2.8336   68.0205   63.9245 H   0  0  0  0  0  0  0  0  0  0  0  0
    2.3718   66.6132   62.8713 H   0  0  0  0  0  0  0  0  0  0  0  0
    0.3566   67.6785   62.2976 H   0  0  0  0  0  0  0  0  0  0  0  0
    0.4762   68.9364   64.7168 H   0  0  0  0  0  0  0  0  0  0  0  0
    0.4822   70.2228   63.4261 H   0  0  0  0  0  0  0  0  0  0  0  0
   -1.7605   68.9615   64.4581 H   0  0  0  0  0  0  0  0  0  0  0  0
   -1.6593   69.8762   62.9154 H   0  0  0  0  0  0  0  0  0  0  0  0
   -1.4624   68.0907   62.9154 H   0  0  0  0  0  0  0  0  0  0  0  0
    1.1921   68.8186   60.6877 H   0  0  0  0  0  0  0  0  0  0  0  0
    1.7722   70.0794   61.8694 H   0  0  0  0  0  0  0  0  0  0  0  0
    3.8110   68.8829   62.2728 H   0  0  0  0  0  0  0  0  0  0  0  0
    3.2409   67.4547   61.3543 H   0  0  0  0  0  0  0  0  0  0  0  0
    4.3353   69.8527   60.4458 H   0  0  0  0  0  0  0  0  0  0  0  0
  2  1  1  0
  3  1  1  0
  4  3  1  0
  5  4  2  0
  6  5  1  0
  7  6  2  0
  8  7  1  0
  9  8  2  0
  9  4  1  0
 10  9  1  0
 11 10  2  0
 12 11  1  0
 13  8  1  0
 13 12  2  0
 14 12  1  0
 15  1  1  0
 16 15  1  0
 17 16  1  0
 18 17  1  0
 19 18  1  0
 20 19  1  0
 21 18  1  0
 22 21  1  0
 23 22  1  0
  1 24  1  6
  2 25  1  0
  2 26  1  0
  2 27  1  0
  3 28  1  0
  5 29  1  0
  6 30  1  0
 10 31  1  0
 11 32  1  0
 13 33  1  0
 15 34  1  0
 15 35  1  0
 16 36  1  0
 16 37  1  0
 17 38  1  0
 17 39  1  0
 18 40  1  6
 19 41  1  0
 19 42  1  0
 20 43  1  0
 20 44  1  0
 20 45  1  0
 21 46  1  0
 21 47  1  0
 22 48  1  0
 22 49  1  0
 23 50  1  0
M  CHG  1  18   1
M  END
>  <score>  (7) 
-7.606

$$$$
=
     RDKit          3D

 50 51  0  0  0  0  0  0  0  0999 V2000
    1.4100   64.0550   71.1790 C   0  0  1  0  0  0  0  0  0  0  0  0
    0.1310   63.2900   70.8530 C   0  0  0  0  0  0  0  0  0  0  0  0
    2.4970   63.1750   71.6120 N   0  0  0  0  0  0  0  0  0  0  0  0
    2.9790   62.0300   70.9530 C   0  0  0  0  0  0  0  0  0  0  0  0
    3.7970   62.0800   69.8260 C   0  0  0  0  0  0  0  0  0  0  0  0
    4.2470   60.9000   69.2630 C   0  0  0  0  0  0  0  0  0  0  0  0
    3.9610   59.6800   69.7470 N   0  0  0  0  0  0  0  0  0  0  0  0
    3.1910   59.6000   70.8380 C   0  0  0  0  0  0  0  0  0  0  0  0
    2.6740   60.7430   71.4950 C   0  0  0  0  0  0  0  0  0  0  0  0
    1.8910   60.5450   72.6600 C   0  0  0  0  0  0  0  0  0  0  0  0
    1.6200   59.2650   73.1440 C   0  0  0  0  0  0  0  0  0  0  0  0
    2.1320   58.1640   72.4740 C   0  0  0  0  0  0  0  0  0  0  0  0
    2.9110   58.3360   71.3340 C   0  0  0  0  0  0  0  0  0  0  0  0
    1.8090   56.5820   73.0630 Cl  0  0  0  0  0  0  0  0  0  0  0  0
    1.8080   65.0730   70.0950 C   0  0  0  0  0  0  0  0  0  0  0  0
    1.0740   66.4240   70.1130 C   0  0  0  0  0  0  0  0  0  0  0  0
    1.1310   67.2580   68.8330 C   0  0  0  0  0  0  0  0  0  0  0  0
    0.1330   66.7780   67.7850 N   0  0  1  0  0  4  0  0  0  0  0  0
   -1.2830   66.7430   68.3310 C   0  0  0  0  0  0  0  0  0  0  0  0
   -2.3310   67.0520   67.2790 C   0  0  0  0  0  0  0  0  0  0  0  0
    0.2900   67.5200   66.4650 C   0  0  0  0  0  0  0  0  0  0  0  0
    1.6250   67.2260   65.7680 C   0  0  0  0  0  0  0  0  0  0  0  0
    1.4570   66.1060   64.9130 O   0  0  0  0  0  0  0  0  0  0  0  0
    1.1806   64.6774   72.0565 H   0  0  0  0  0  0  0  0  0  0  0  0
   -0.3666   62.9924   71.7878 H   0  0  0  0  0  0  0  0  0  0  0  0
   -0.5423   63.9338   70.2681 H   0  0  0  0  0  0  0  0  0  0  0  0
    0.3797   62.3922   70.2681 H   0  0  0  0  0  0  0  0  0  0  0  0
    2.9604   63.4221   72.4981 H   0  0  0  0  0  0  0  0  0  0  0  0
    4.0818   63.0483   69.3887 H   0  0  0  0  0  0  0  0  0  0  0  0
    4.8776   60.9642   68.3640 H   0  0  0  0  0  0  0  0  0  0  0  0
    1.4887   61.4188   73.1935 H   0  0  0  0  0  0  0  0  0  0  0  0
    1.0068   59.1305   74.0473 H   0  0  0  0  0  0  0  0  0  0  0  0
    3.3123   57.4522   70.8164 H   0  0  0  0  0  0  0  0  0  0  0  0
    2.8832   65.2764   70.2075 H   0  0  0  0  0  0  0  0  0  0  0  0
    1.5263   64.6039   69.1408 H   0  0  0  0  0  0  0  0  0  0  0  0
    0.0149   66.2241   70.3327 H   0  0  0  0  0  0  0  0  0  0  0  0
    1.5974   67.0252   70.8711 H   0  0  0  0  0  0  0  0  0  0  0  0
    0.9055   68.3053   69.0828 H   0  0  0  0  0  0  0  0  0  0  0  0
    2.1406   67.1547   68.4086 H   0  0  0  0  0  0  0  0  0  0  0  0
    0.3533   65.7976   67.5586 H   0  0  0  0  0  0  0  0  0  0  0  0
   -1.4780   65.7390   68.7359 H   0  0  0  0  0  0  0  0  0  0  0  0
   -1.3561   67.5195   69.1067 H   0  0  0  0  0  0  0  0  0  0  0  0
   -3.2743   67.3301   67.7718 H   0  0  0  0  0  0  0  0  0  0  0  0
   -1.9854   67.8865   66.6511 H   0  0  0  0  0  0  0  0  0  0  0  0
   -2.4934   66.1635   66.6511 H   0  0  0  0  0  0  0  0  0  0  0  0
   -0.5290   67.2203   65.7947 H   0  0  0  0  0  0  0  0  0  0  0  0
    0.2647   68.5970   66.6875 H   0  0  0  0  0  0  0  0  0  0  0  0
    1.9334   68.1002   65.1759 H   0  0  0  0  0  0  0  0  0  0  0  0
    2.3994   67.0104   66.5189 H   0  0  0  0  0  0  0  0  0  0  0  0
    1.3345   65.2894   65.4591 H   0  0  0  0  0  0  0  0  0  0  0  0
  2  1  1  0
  3  1  1  0
  4  3  1  0
  5  4  2  0
  6  5  1  0
  7  6  2  0
  8  7  1  0
  9  8  2  0
  9  4  1  0
 10  9  1  0
 11 10  2  0
 12 11  1  0
 13  8  1  0
 13 12  2  0
 14 12  1  0
 15  1  1  0
 16 15  1  0
 17 16  1  0
 18 17  1  0
 19 18  1  0
 20 19  1  0
 21 18  1  0
 22 21  1  0
 23 22  1  0
  1 24  1  1
  2 25  1  0
  2 26  1  0
  2 27  1  0
  3 28  1  0
  5 29  1  0
  6 30  1  0
 10 31  1  0
 11 32  1  0
 13 33  1  0
 15 34  1  0
 15 35  1  0
 16 36  1  0
 16 37  1  0
 17 38  1  0
 17 39  1  0
 18 40  1  6
 19 41  1  0
 19 42  1  0
 20 43  1  0
 20 44  1  0
 20 45  1  0
 21 46  1  0
 21 47  1  0
 22 48  1  0
 22 49  1  0
 23 50  1  0
M  CHG  1  18   1
M  END
>  <score>  (8) 
-7.433

$$$$
=
     RDKit          3D

 50 51  0  0  0  0  0  0  0  0999 V2000
    3.6210   69.7580   68.0790 C   0  0  1  0  0  0  0  0  0  0  0  0
    3.9490   70.8120   69.1310 C   0  0  0  0  0  0  0  0  0  0  0  0
    2.1820   69.6320   67.8390 N   0  0  0  0  0  0  0  0  0  0  0  0
    1.3540   68.5460   68.1770 C   0  0  0  0  0  0  0  0  0  0  0  0
    1.7140   67.5630   69.0960 C   0  0  0  0  0  0  0  0  0  0  0  0
    0.8210   66.5480   69.3870 C   0  0  0  0  0  0  0  0  0  0  0  0
   -0.4060   66.4490   68.8480 N   0  0  0  0  0  0  0  0  0  0  0  0
   -0.7860   67.3880   67.9740 C   0  0  0  0  0  0  0  0  0  0  0  0
    0.0480   68.4700   67.6010 C   0  0  0  0  0  0  0  0  0  0  0  0
   -0.4660   69.4240   66.6870 C   0  0  0  0  0  0  0  0  0  0  0  0
   -1.7490   69.3000   66.1530 C   0  0  0  0  0  0  0  0  0  0  0  0
   -2.5390   68.2240   66.5280 C   0  0  0  0  0  0  0  0  0  0  0  0
   -2.0580   67.2810   67.4320 C   0  0  0  0  0  0  0  0  0  0  0  0
   -4.1230   68.0620   65.8800 Cl  0  0  0  0  0  0  0  0  0  0  0  0
    4.4710   69.8820   66.8010 C   0  0  0  0  0  0  0  0  0  0  0  0
    4.2240   68.8360   65.7020 C   0  0  0  0  0  0  0  0  0  0  0  0
    3.1040   69.1320   64.7050 C   0  0  0  0  0  0  0  0  0  0  0  0
    2.9110   68.0040   63.6980 N   0  0  1  0  0  4  0  0  0  0  0  0
    2.2890   68.5030   62.4070 C   0  0  0  0  0  0  0  0  0  0  0  0
    0.8080   68.8070   62.5430 C   0  0  0  0  0  0  0  0  0  0  0  0
    4.1760   67.1760   63.5200 C   0  0  0  0  0  0  0  0  0  0  0  0
    3.9590   65.6830   63.7980 C   0  0  0  0  0  0  0  0  0  0  0  0
    4.1710   64.9590   62.5970 O   0  0  0  0  0  0  0  0  0  0  0  0
    3.9249   68.7915   68.5074 H   0  0  0  0  0  0  0  0  0  0  0  0
    3.8153   70.3823   70.1347 H   0  0  0  0  0  0  0  0  0  0  0  0
    4.9918   71.1402   69.0086 H   0  0  0  0  0  0  0  0  0  0  0  0
    3.2766   71.6739   69.0086 H   0  0  0  0  0  0  0  0  0  0  0  0
    1.7250   70.4273   67.3704 H   0  0  0  0  0  0  0  0  0  0  0  0
    2.6987   67.5938   69.5853 H   0  0  0  0  0  0  0  0  0  0  0  0
    1.1342   65.7743   70.1035 H   0  0  0  0  0  0  0  0  0  0  0  0
    0.1596   70.2796   66.3927 H   0  0  0  0  0  0  0  0  0  0  0  0
   -2.1298   70.0480   65.4420 H   0  0  0  0  0  0  0  0  0  0  0  0
   -2.6988   66.4352   67.7218 H   0  0  0  0  0  0  0  0  0  0  0  0
    4.2767   70.8737   66.3666 H   0  0  0  0  0  0  0  0  0  0  0  0
    5.5085   69.7180   67.1275 H   0  0  0  0  0  0  0  0  0  0  0  0
    5.1576   68.7276   65.1305 H   0  0  0  0  0  0  0  0  0  0  0  0
    3.9009   67.9301   66.2357 H   0  0  0  0  0  0  0  0  0  0  0  0
    2.1652   69.2747   65.2601 H   0  0  0  0  0  0  0  0  0  0  0  0
    3.3826   70.0374   64.1459 H   0  0  0  0  0  0  0  0  0  0  0  0
    2.2217   67.3434   64.0845 H   0  0  0  0  0  0  0  0  0  0  0  0
    2.8091   69.4222   62.0993 H   0  0  0  0  0  0  0  0  0  0  0  0
    2.3942   67.7030   61.6594 H   0  0  0  0  0  0  0  0  0  0  0  0
    0.5413   68.8617   63.6088 H   0  0  0  0  0  0  0  0  0  0  0  0
    0.5853   69.7696   62.0594 H   0  0  0  0  0  0  0  0  0  0  0  0
    0.2242   68.0100   62.0594 H   0  0  0  0  0  0  0  0  0  0  0  0
    4.5282   67.2922   62.4844 H   0  0  0  0  0  0  0  0  0  0  0  0
    4.9144   67.5425   64.2483 H   0  0  0  0  0  0  0  0  0  0  0  0
    4.6699   65.3426   64.5653 H   0  0  0  0  0  0  0  0  0  0  0  0
    2.9337   65.5153   64.1595 H   0  0  0  0  0  0  0  0  0  0  0  0
    4.4424   64.0320   62.8140 H   0  0  0  0  0  0  0  0  0  0  0  0
  2  1  1  0
  3  1  1  0
  4  3  1  0
  5  4  2  0
  6  5  1  0
  7  6  2  0
  8  7  1  0
  9  8  2  0
  9  4  1  0
 10  9  1  0
 11 10  2  0
 12 11  1  0
 13  8  1  0
 13 12  2  0
 14 12  1  0
 15  1  1  0
 16 15  1  0
 17 16  1  0
 18 17  1  0
 19 18  1  0
 20 19  1  0
 21 18  1  0
 22 21  1  0
 23 22  1  0
  1 24  1  1
  2 25  1  0
  2 26  1  0
  2 27  1  0
  3 28  1  0
  5 29  1  0
  6 30  1  0
 10 31  1  0
 11 32  1  0
 13 33  1  0
 15 34  1  0
 15 35  1  0
 16 36  1  0
 16 37  1  0
 17 38  1  0
 17 39  1  0
 18 40  1  1
 19 41  1  0
 19 42  1  0
 20 43  1  0
 20 44  1  0
 20 45  1  0
 21 46  1  0
 21 47  1  0
 22 48  1  0
 22 49  1  0
 23 50  1  0
M  CHG  1  18   1
M  END
>  <score>  (9) 
-7.385

$$$$
