=
     RDKit          3D

 56 59  0  0  0  0  0  0  0  0999 V2000
    2.8820   61.7440   73.2950 C   0  0  0  0  0  0  0  0  0  0  0  0
    1.7990   62.6260   73.3660 C   0  0  0  0  0  0  0  0  0  0  0  0
    1.5860   63.4650   72.2880 C   0  0  0  0  0  0  0  0  0  0  0  0
    2.3940   63.4640   71.1530 C   0  0  0  0  0  0  0  0  0  0  0  0
    3.4700   62.5960   71.0690 C   0  0  0  0  0  0  0  0  0  0  0  0
    3.7200   61.7270   72.1440 C   0  0  0  0  0  0  0  0  0  0  0  0
    1.9320   64.4690   70.1400 C   0  0  0  0  0  0  0  0  0  0  0  0
    0.7350   65.1110   70.7970 C   0  0  0  0  0  0  0  0  0  0  0  0
   -0.0640   66.1050   70.3890 C   0  0  0  0  0  0  0  0  0  0  0  0
    0.5290   64.4670   72.1320 C   0  0  0  0  0  0  0  0  0  0  0  0
   -0.3430   64.7240   72.9370 O   0  0  0  0  0  0  0  0  0  0  0  0
    0.0770   66.8070   69.1130 C   0  0  0  0  0  0  0  0  0  0  0  0
   -0.9390   66.7030   68.1600 C   0  0  0  0  0  0  0  0  0  0  0  0
   -0.8150   67.3370   66.9200 C   0  0  0  0  0  0  0  0  0  0  0  0
    0.3360   68.0790   66.6130 C   0  0  0  0  0  0  0  0  0  0  0  0
    1.3520   68.1820   67.5750 C   0  0  0  0  0  0  0  0  0  0  0  0
    1.2230   67.5480   68.8140 C   0  0  0  0  0  0  0  0  0  0  0  0
    0.4910   68.7220   65.2600 C   0  0  0  0  0  0  0  0  0  0  0  0
    0.7020   67.7170   64.1450 N   0  0  0  0  0  4  0  0  0  0  0  0
    0.2530   68.2200   62.7950 C   0  0  0  0  0  0  0  0  0  0  0  0
    1.2480   69.2310   62.2400 C   0  0  0  0  0  0  0  0  0  0  0  0
    2.6610   68.6600   62.1870 C   0  0  0  0  0  0  0  0  0  0  0  0
    3.0950   68.0990   63.5380 C   0  0  0  0  0  0  0  0  0  0  0  0
    2.0820   67.1050   64.0860 C   0  0  0  0  0  0  0  0  0  0  0  0
    2.2580   60.6160   75.3120 C   0  0  0  0  0  0  0  0  0  0  0  0
    3.2160   60.8530   74.2870 O   0  0  0  0  0  0  0  0  0  0  0  0
    4.7540   60.8220   72.1780 O   0  0  0  0  0  0  0  0  0  0  0  0
    5.6830   60.8320   71.1040 C   0  0  0  0  0  0  0  0  0  0  0  0
    1.1409   62.6513   74.2471 H   0  0  0  0  0  0  0  0  0  0  0  0
    4.1157   62.5873   70.1785 H   0  0  0  0  0  0  0  0  0  0  0  0
    2.7164   65.2137   69.9396 H   0  0  0  0  0  0  0  0  0  0  0  0
    1.6932   64.0157   69.1666 H   0  0  0  0  0  0  0  0  0  0  0  0
   -0.8808   66.4144   71.0576 H   0  0  0  0  0  0  0  0  0  0  0  0
   -1.8428   66.1183   68.3866 H   0  0  0  0  0  0  0  0  0  0  0  0
   -1.6249   67.2537   66.1803 H   0  0  0  0  0  0  0  0  0  0  0  0
    2.2571   68.7662   67.3525 H   0  0  0  0  0  0  0  0  0  0  0  0
    2.0286   67.6330   69.5581 H   0  0  0  0  0  0  0  0  0  0  0  0
   -0.4180   69.3016   65.0416 H   0  0  0  0  0  0  0  0  0  0  0  0
    1.3862   69.3599   65.3005 H   0  0  0  0  0  0  0  0  0  0  0  0
    0.0764   66.9411   64.4050 H   0  0  0  0  0  0  0  0  0  0  0  0
    0.1756   67.3705   62.1004 H   0  0  0  0  0  0  0  0  0  0  0  0
   -0.7250   68.7108   62.9074 H   0  0  0  0  0  0  0  0  0  0  0  0
    0.9392   69.5137   61.2228 H   0  0  0  0  0  0  0  0  0  0  0  0
    1.2562   70.1060   62.9066 H   0  0  0  0  0  0  0  0  0  0  0  0
    2.6915   67.8533   61.4398 H   0  0  0  0  0  0  0  0  0  0  0  0
    3.3496   69.4743   61.9171 H   0  0  0  0  0  0  0  0  0  0  0  0
    4.0637   67.5917   63.4188 H   0  0  0  0  0  0  0  0  0  0  0  0
    3.1730   68.9357   64.2478 H   0  0  0  0  0  0  0  0  0  0  0  0
    2.0558   66.2205   63.4325 H   0  0  0  0  0  0  0  0  0  0  0  0
    2.3842   66.8218   65.1051 H   0  0  0  0  0  0  0  0  0  0  0  0
    2.7364   60.7343   76.2954 H   0  0  0  0  0  0  0  0  0  0  0  0
    1.4328   61.3371   75.2165 H   0  0  0  0  0  0  0  0  0  0  0  0
    1.8642   59.5934   75.2165 H   0  0  0  0  0  0  0  0  0  0  0  0
    6.7072   60.8430   71.5052 H   0  0  0  0  0  0  0  0  0  0  0  0
    5.5404   59.9323   70.4874 H   0  0  0  0  0  0  0  0  0  0  0  0
    5.5211   61.7285   70.4874 H   0  0  0  0  0  0  0  0  0  0  0  0
  2  1  2  0
  3  2  1  0
  4  3  2  0
  5  4  1  0
  6  5  2  0
  6  1  1  0
  7  4  1  0
  8  7  1  0
  9  8  2  0
 10  8  1  0
 10  3  1  0
 11 10  2  0
 12  9  1  0
 13 12  2  0
 14 13  1  0
 15 14  2  0
 16 15  1  0
 17 16  2  0
 17 12  1  0
 18 15  1  0
 19 18  1  0
 20 19  1  0
 21 20  1  0
 22 21  1  0
 23 22  1  0
 24 23  1  0
 24 19  1  0
 26 25  1  0
 26  1  1  0
 27  6  1  0
 28 27  1  0
  2 29  1  0
  5 30  1  0
  7 31  1  0
  7 32  1  0
  9 33  1  0
 13 34  1  0
 14 35  1  0
 16 36  1  0
 17 37  1  0
 18 38  1  0
 18 39  1  0
 19 40  1  0
 20 41  1  0
 20 42  1  0
 21 43  1  0
 21 44  1  0
 22 45  1  0
 22 46  1  0
 23 47  1  0
 23 48  1  0
 24 49  1  0
 24 50  1  0
 25 51  1  0
 25 52  1  0
 25 53  1  0
 28 54  1  0
 28 55  1  0
 28 56  1  0
M  CHG  1  19   1
M  END
>  <score>  (1) 
-10.378

$$$$
=
     RDKit          3D

 56 59  0  0  0  0  0  0  0  0999 V2000
    1.2690   68.9770   62.6220 C   0  0  0  0  0  0  0  0  0  0  0  0
    0.3440   69.1630   63.6540 C   0  0  0  0  0  0  0  0  0  0  0  0
    0.5160   68.4240   64.8100 C   0  0  0  0  0  0  0  0  0  0  0  0
    1.5590   67.5170   64.9830 C   0  0  0  0  0  0  0  0  0  0  0  0
    2.4830   67.3220   63.9690 C   0  0  0  0  0  0  0  0  0  0  0  0
    2.3420   68.0540   62.7790 C   0  0  0  0  0  0  0  0  0  0  0  0
    1.5070   66.8600   66.3300 C   0  0  0  0  0  0  0  0  0  0  0  0
    0.2840   67.4660   66.9730 C   0  0  0  0  0  0  0  0  0  0  0  0
   -0.2890   67.2350   68.1610 C   0  0  0  0  0  0  0  0  0  0  0  0
   -0.3160   68.4440   66.0150 C   0  0  0  0  0  0  0  0  0  0  0  0
   -1.3060   69.1240   66.1940 O   0  0  0  0  0  0  0  0  0  0  0  0
    0.2140   66.2810   69.1490 C   0  0  0  0  0  0  0  0  0  0  0  0
    1.4840   66.4730   69.7010 C   0  0  0  0  0  0  0  0  0  0  0  0
    2.0020   65.5590   70.6230 C   0  0  0  0  0  0  0  0  0  0  0  0
    1.2580   64.4300   71.0000 C   0  0  0  0  0  0  0  0  0  0  0  0
   -0.0170   64.2440   70.4460 C   0  0  0  0  0  0  0  0  0  0  0  0
   -0.5320   65.1610   69.5250 C   0  0  0  0  0  0  0  0  0  0  0  0
    1.8350   63.4200   71.9560 C   0  0  0  0  0  0  0  0  0  0  0  0
    2.2500   62.1300   71.2780 N   0  0  0  0  0  4  0  0  0  0  0  0
    3.0880   62.3480   70.0420 C   0  0  0  0  0  0  0  0  0  0  0  0
    4.5080   62.7520   70.4190 C   0  0  0  0  0  0  0  0  0  0  0  0
    5.1490   61.7420   71.3640 C   0  0  0  0  0  0  0  0  0  0  0  0
    4.2770   61.4770   72.5870 C   0  0  0  0  0  0  0  0  0  0  0  0
    2.8580   61.0920   72.1930 C   0  0  0  0  0  0  0  0  0  0  0  0
   -0.0540   69.9370   60.8750 C   0  0  0  0  0  0  0  0  0  0  0  0
    1.2250   69.6400   61.4200 O   0  0  0  0  0  0  0  0  0  0  0  0
    3.1930   67.9480   61.7050 O   0  0  0  0  0  0  0  0  0  0  0  0
    4.4290   67.2760   61.8980 C   0  0  0  0  0  0  0  0  0  0  0  0
   -0.4907   69.8719   63.5500 H   0  0  0  0  0  0  0  0  0  0  0  0
    3.3105   66.6080   64.0937 H   0  0  0  0  0  0  0  0  0  0  0  0
    1.3995   65.7697   66.2314 H   0  0  0  0  0  0  0  0  0  0  0  0
    2.4226   67.0187   66.9187 H   0  0  0  0  0  0  0  0  0  0  0  0
   -1.1989   67.8006   68.4106 H   0  0  0  0  0  0  0  0  0  0  0  0
    2.0800   67.3498   69.4076 H   0  0  0  0  0  0  0  0  0  0  0  0
    2.9994   65.7256   71.0560 H   0  0  0  0  0  0  0  0  0  0  0  0
   -0.6166   63.3694   70.7386 H   0  0  0  0  0  0  0  0  0  0  0  0
   -1.5309   64.9998   69.0936 H   0  0  0  0  0  0  0  0  0  0  0  0
    2.7187   63.8611   72.4402 H   0  0  0  0  0  0  0  0  0  0  0  0
    1.0487   63.1702   72.6836 H   0  0  0  0  0  0  0  0  0  0  0  0
    1.3539   61.7250   70.9715 H   0  0  0  0  0  0  0  0  0  0  0  0
    3.1205   61.4160   69.4586 H   0  0  0  0  0  0  0  0  0  0  0  0
    2.6368   63.1552   69.4464 H   0  0  0  0  0  0  0  0  0  0  0  0
    5.1146   62.8188   69.5038 H   0  0  0  0  0  0  0  0  0  0  0  0
    4.4632   63.7231   70.9338 H   0  0  0  0  0  0  0  0  0  0  0  0
    5.3014   60.7960   70.8238 H   0  0  0  0  0  0  0  0  0  0  0  0
    6.1063   62.1583   71.7107 H   0  0  0  0  0  0  0  0  0  0  0  0
    4.7203   60.6563   73.1700 H   0  0  0  0  0  0  0  0  0  0  0  0
    4.2294   62.4014   73.1814 H   0  0  0  0  0  0  0  0  0  0  0  0
    2.8793   60.1226   71.6735 H   0  0  0  0  0  0  0  0  0  0  0  0
    2.2463   61.0269   73.1049 H   0  0  0  0  0  0  0  0  0  0  0  0
   -0.7711   70.1035   61.6923 H   0  0  0  0  0  0  0  0  0  0  0  0
    0.0129   70.8435   60.2555 H   0  0  0  0  0  0  0  0  0  0  0  0
   -0.3934   69.0938   60.2555 H   0  0  0  0  0  0  0  0  0  0  0  0
    4.6243   67.1698   62.9753 H   0  0  0  0  0  0  0  0  0  0  0  0
    4.3811   66.2798   61.4341 H   0  0  0  0  0  0  0  0  0  0  0  0
    5.2391   67.8579   61.4341 H   0  0  0  0  0  0  0  0  0  0  0  0
  2  1  2  0
  3  2  1  0
  4  3  2  0
  5  4  1  0
  6  5  2  0
  6  1  1  0
  7  4  1  0
  8  7  1  0
  9  8  2  0
 10  8  1  0
 10  3  1  0
 11 10  2  0
 12  9  1  0
 13 12  2  0
 14 13  1  0
 15 14  2  0
 16 15  1  0
 17 16  2  0
 17 12  1  0
 18 15  1  0
 19 18  1  0
 20 19  1  0
 21 20  1  0
 22 21  1  0
 23 22  1  0
 24 23  1  0
 24 19  1  0
 26 25  1  0
 26  1  1  0
 27  6  1  0
 28 27  1  0
  2 29  1  0
  5 30  1  0
  7 31  1  0
  7 32  1  0
  9 33  1  0
 13 34  1  0
 14 35  1  0
 16 36  1  0
 17 37  1  0
 18 38  1  0
 18 39  1  0
 19 40  1  0
 20 41  1  0
 20 42  1  0
 21 43  1  0
 21 44  1  0
 22 45  1  0
 22 46  1  0
 23 47  1  0
 23 48  1  0
 24 49  1  0
 24 50  1  0
 25 51  1  0
 25 52  1  0
 25 53  1  0
 28 54  1  0
 28 55  1  0
 28 56  1  0
M  CHG  1  19   1
M  END
>  <score>  (2) 
-9.18

$$$$
=
     RDKit          3D

 56 59  0  0  0  0  0  0  0  0999 V2000
    1.6280   62.0050   72.9850 C   0  0  0  0  0  0  0  0  0  0  0  0
    0.8740   63.1810   72.9130 C   0  0  0  0  0  0  0  0  0  0  0  0
    1.0520   63.9890   71.8050 C   0  0  0  0  0  0  0  0  0  0  0  0
    1.9380   63.6800   70.7750 C   0  0  0  0  0  0  0  0  0  0  0  0
    2.6910   62.5190   70.8320 C   0  0  0  0  0  0  0  0  0  0  0  0
    2.5390   61.6720   71.9430 C   0  0  0  0  0  0  0  0  0  0  0  0
    1.9250   64.7240   69.6990 C   0  0  0  0  0  0  0  0  0  0  0  0
    0.9240   65.7370   70.1990 C   0  0  0  0  0  0  0  0  0  0  0  0
    0.5250   66.9060   69.6830 C   0  0  0  0  0  0  0  0  0  0  0  0
    0.3850   65.2580   71.5090 C   0  0  0  0  0  0  0  0  0  0  0  0
   -0.4450   65.8120   72.2000 O   0  0  0  0  0  0  0  0  0  0  0  0
    1.0160   67.4640   68.4220 C   0  0  0  0  0  0  0  0  0  0  0  0
    0.6010   66.8940   67.2160 C   0  0  0  0  0  0  0  0  0  0  0  0
    1.0810   67.3860   65.9980 C   0  0  0  0  0  0  0  0  0  0  0  0
    1.9920   68.4530   65.9720 C   0  0  0  0  0  0  0  0  0  0  0  0
    2.4010   69.0240   67.1860 C   0  0  0  0  0  0  0  0  0  0  0  0
    1.9190   68.5290   68.4010 C   0  0  0  0  0  0  0  0  0  0  0  0
    2.5450   68.9520   64.6630 C   0  0  0  0  0  0  0  0  0  0  0  0
    3.1470   67.8500   63.8140 N   0  0  0  0  0  4  0  0  0  0  0  0
    3.1330   68.1600   62.3370 C   0  0  0  0  0  0  0  0  0  0  0  0
    4.2070   69.1830   61.9920 C   0  0  0  0  0  0  0  0  0  0  0  0
    5.5870   68.7320   62.4610 C   0  0  0  0  0  0  0  0  0  0  0  0
    5.5890   68.3640   63.9410 C   0  0  0  0  0  0  0  0  0  0  0  0
    4.4990   67.3550   64.2720 C   0  0  0  0  0  0  0  0  0  0  0  0
    0.4120   61.1590   74.8640 C   0  0  0  0  0  0  0  0  0  0  0  0
    1.5580   61.1080   74.0240 O   0  0  0  0  0  0  0  0  0  0  0  0
    3.2290   60.4960   72.1130 O   0  0  0  0  0  0  0  0  0  0  0  0
    3.4580   59.6860   70.9700 C   0  0  0  0  0  0  0  0  0  0  0  0
    0.1652   63.4532   73.7089 H   0  0  0  0  0  0  0  0  0  0  0  0
    3.3934   62.2652   70.0244 H   0  0  0  0  0  0  0  0  0  0  0  0
    2.9194   65.1794   69.5817 H   0  0  0  0  0  0  0  0  0  0  0  0
    1.6635   64.3164   68.7113 H   0  0  0  0  0  0  0  0  0  0  0  0
   -0.2221   67.4863   70.2444 H   0  0  0  0  0  0  0  0  0  0  0  0
   -0.1078   66.0529   67.2244 H   0  0  0  0  0  0  0  0  0  0  0  0
    0.7422   66.9336   65.0543 H   0  0  0  0  0  0  0  0  0  0  0  0
    3.1066   69.8679   67.1819 H   0  0  0  0  0  0  0  0  0  0  0  0
    2.2530   68.9811   69.3465 H   0  0  0  0  0  0  0  0  0  0  0  0
    1.7298   69.4252   64.0960 H   0  0  0  0  0  0  0  0  0  0  0  0
    3.3506   69.6636   64.8968 H   0  0  0  0  0  0  0  0  0  0  0  0
    2.5069   67.0574   63.9652 H   0  0  0  0  0  0  0  0  0  0  0  0
    3.3205   67.2350   61.7720 H   0  0  0  0  0  0  0  0  0  0  0  0
    2.1498   68.5761   62.0721 H   0  0  0  0  0  0  0  0  0  0  0  0
    4.2292   69.3225   60.9011 H   0  0  0  0  0  0  0  0  0  0  0  0
    3.9612   70.1246   62.5048 H   0  0  0  0  0  0  0  0  0  0  0  0
    5.8927   67.8528   61.8749 H   0  0  0  0  0  0  0  0  0  0  0  0
    6.2879   69.5671   62.3150 H   0  0  0  0  0  0  0  0  0  0  0  0
    6.5664   67.9303   64.1991 H   0  0  0  0  0  0  0  0  0  0  0  0
    5.3974   69.2783   64.5218 H   0  0  0  0  0  0  0  0  0  0  0  0
    4.7239   66.4038   63.7674 H   0  0  0  0  0  0  0  0  0  0  0  0
    4.4702   67.2147   65.3626 H   0  0  0  0  0  0  0  0  0  0  0  0
    0.7286   61.1449   75.9174 H   0  0  0  0  0  0  0  0  0  0  0  0
   -0.1497   62.0830   74.6623 H   0  0  0  0  0  0  0  0  0  0  0  0
   -0.2295   60.2885   74.6623 H   0  0  0  0  0  0  0  0  0  0  0  0
    3.7443   58.6732   71.2897 H   0  0  0  0  0  0  0  0  0  0  0  0
    2.5393   59.6342   70.3673 H   0  0  0  0  0  0  0  0  0  0  0  0
    4.2678   60.1229   70.3673 H   0  0  0  0  0  0  0  0  0  0  0  0
  2  1  2  0
  3  2  1  0
  4  3  2  0
  5  4  1  0
  6  5  2  0
  6  1  1  0
  7  4  1  0
  8  7  1  0
  9  8  2  0
 10  8  1  0
 10  3  1  0
 11 10  2  0
 12  9  1  0
 13 12  2  0
 14 13  1  0
 15 14  2  0
 16 15  1  0
 17 16  2  0
 17 12  1  0
 18 15  1  0
 19 18  1  0
 20 19  1  0
 21 20  1  0
 22 21  1  0
 23 22  1  0
 24 23  1  0
 24 19  1  0
 26 25  1  0
 26  1  1  0
 27  6  1  0
 28 27  1  0
  2 29  1  0
  5 30  1  0
  7 31  1  0
  7 32  1  0
  9 33  1  0
 13 34  1  0
 14 35  1  0
 16 36  1  0
 17 37  1  0
 18 38  1  0
 18 39  1  0
 19 40  1  0
 20 41  1  0
 20 42  1  0
 21 43  1  0
 21 44  1  0
 22 45  1  0
 22 46  1  0
 23 47  1  0
 23 48  1  0
 24 49  1  0
 24 50  1  0
 25 51  1  0
 25 52  1  0
 25 53  1  0
 28 54  1  0
 28 55  1  0
 28 56  1  0
M  CHG  1  19   1
M  END
>  <score>  (3) 
-9.085

$$$$
=
     RDKit          3D

 56 59  0  0  0  0  0  0  0  0999 V2000
    0.7780   56.9380   74.4070 C   0  0  0  0  0  0  0  0  0  0  0  0
    1.8430   57.5170   73.7110 C   0  0  0  0  0  0  0  0  0  0  0  0
    1.6440   58.7710   73.1630 C   0  0  0  0  0  0  0  0  0  0  0  0
    0.4440   59.4680   73.2770 C   0  0  0  0  0  0  0  0  0  0  0  0
   -0.6210   58.9070   73.9640 C   0  0  0  0  0  0  0  0  0  0  0  0
   -0.4580   57.6330   74.5350 C   0  0  0  0  0  0  0  0  0  0  0  0
    0.5070   60.8020   72.5950 C   0  0  0  0  0  0  0  0  0  0  0  0
    1.9040   60.8430   72.0250 C   0  0  0  0  0  0  0  0  0  0  0  0
    2.5210   61.7670   71.2780 C   0  0  0  0  0  0  0  0  0  0  0  0
    2.6000   59.5720   72.3950 C   0  0  0  0  0  0  0  0  0  0  0  0
    3.7390   59.2580   72.1140 O   0  0  0  0  0  0  0  0  0  0  0  0
    1.9100   63.0250   70.8490 C   0  0  0  0  0  0  0  0  0  0  0  0
    0.5310   63.0730   70.6230 C   0  0  0  0  0  0  0  0  0  0  0  0
   -0.0730   64.2540   70.1820 C   0  0  0  0  0  0  0  0  0  0  0  0
    0.6970   65.4040   69.9500 C   0  0  0  0  0  0  0  0  0  0  0  0
    2.0790   65.3510   70.1820 C   0  0  0  0  0  0  0  0  0  0  0  0
    2.6800   64.1690   70.6250 C   0  0  0  0  0  0  0  0  0  0  0  0
    0.0530   66.6610   69.4290 C   0  0  0  0  0  0  0  0  0  0  0  0
    0.1430   66.7930   67.9220 N   0  0  0  0  0  4  0  0  0  0  0  0
   -1.2040   66.7910   67.2410 C   0  0  0  0  0  0  0  0  0  0  0  0
   -1.9110   68.1250   67.4410 C   0  0  0  0  0  0  0  0  0  0  0  0
   -1.0470   69.2940   66.9770 C   0  0  0  0  0  0  0  0  0  0  0  0
    0.3350   69.2670   67.6220 C   0  0  0  0  0  0  0  0  0  0  0  0
    1.0190   67.9210   67.4290 C   0  0  0  0  0  0  0  0  0  0  0  0
    1.9140   55.4360   75.8830 C   0  0  0  0  0  0  0  0  0  0  0  0
    0.8290   55.7010   75.0030 O   0  0  0  0  0  0  0  0  0  0  0  0
   -1.4380   56.9750   75.2380 O   0  0  0  0  0  0  0  0  0  0  0  0
   -2.4220   57.7550   75.8990 C   0  0  0  0  0  0  0  0  0  0  0  0
    2.8047   56.9940   73.6031 H   0  0  0  0  0  0  0  0  0  0  0  0
   -1.5741   59.4476   74.0604 H   0  0  0  0  0  0  0  0  0  0  0  0
   -0.2456   60.8705   71.7957 H   0  0  0  0  0  0  0  0  0  0  0  0
    0.2981   61.6405   73.2756 H   0  0  0  0  0  0  0  0  0  0  0  0
    3.5566   61.5668   70.9660 H   0  0  0  0  0  0  0  0  0  0  0  0
   -0.0824   62.1759   70.7933 H   0  0  0  0  0  0  0  0  0  0  0  0
   -1.1600   64.2821   70.0156 H   0  0  0  0  0  0  0  0  0  0  0  0
    2.6951   66.2466   70.0141 H   0  0  0  0  0  0  0  0  0  0  0  0
    3.7659   64.1396   70.7983 H   0  0  0  0  0  0  0  0  0  0  0  0
   -1.0085   66.6563   69.7175 H   0  0  0  0  0  0  0  0  0  0  0  0
    0.5942   67.5130   69.8663 H   0  0  0  0  0  0  0  0  0  0  0  0
    0.6302   65.9311   67.6379 H   0  0  0  0  0  0  0  0  0  0  0  0
   -1.0639   66.6146   66.1643 H   0  0  0  0  0  0  0  0  0  0  0  0
   -1.8215   65.9943   67.6814 H   0  0  0  0  0  0  0  0  0  0  0  0
   -2.8477   68.1225   66.8643 H   0  0  0  0  0  0  0  0  0  0  0  0
   -2.1113   68.2505   68.5153 H   0  0  0  0  0  0  0  0  0  0  0  0
   -0.9313   69.2398   65.8844 H   0  0  0  0  0  0  0  0  0  0  0  0
   -1.5458   70.2279   67.2755 H   0  0  0  0  0  0  0  0  0  0  0  0
    0.9567   70.0516   67.1662 H   0  0  0  0  0  0  0  0  0  0  0  0
    0.2134   69.4387   68.7017 H   0  0  0  0  0  0  0  0  0  0  0  0
    1.2273   67.7735   66.3590 H   0  0  0  0  0  0  0  0  0  0  0  0
    1.9544   67.9170   68.0078 H   0  0  0  0  0  0  0  0  0  0  0  0
    1.5703   55.5200   76.9245 H   0  0  0  0  0  0  0  0  0  0  0  0
    2.2924   54.4190   75.7026 H   0  0  0  0  0  0  0  0  0  0  0  0
    2.7186   56.1640   75.7026 H   0  0  0  0  0  0  0  0  0  0  0  0
   -2.2977   57.6565   76.9875 H   0  0  0  0  0  0  0  0  0  0  0  0
   -2.3076   58.8104   75.6110 H   0  0  0  0  0  0  0  0  0  0  0  0
   -3.4235   57.4028   75.6110 H   0  0  0  0  0  0  0  0  0  0  0  0
  2  1  2  0
  3  2  1  0
  4  3  2  0
  5  4  1  0
  6  5  2  0
  6  1  1  0
  7  4  1  0
  8  7  1  0
  9  8  2  0
 10  8  1  0
 10  3  1  0
 11 10  2  0
 12  9  1  0
 13 12  2  0
 14 13  1  0
 15 14  2  0
 16 15  1  0
 17 16  2  0
 17 12  1  0
 18 15  1  0
 19 18  1  0
 20 19  1  0
 21 20  1  0
 22 21  1  0
 23 22  1  0
 24 23  1  0
 24 19  1  0
 26 25  1  0
 26  1  1  0
 27  6  1  0
 28 27  1  0
  2 29  1  0
  5 30  1  0
  7 31  1  0
  7 32  1  0
  9 33  1  0
 13 34  1  0
 14 35  1  0
 16 36  1  0
 17 37  1  0
 18 38  1  0
 18 39  1  0
 19 40  1  0
 20 41  1  0
 20 42  1  0
 21 43  1  0
 21 44  1  0
 22 45  1  0
 22 46  1  0
 23 47  1  0
 23 48  1  0
 24 49  1  0
 24 50  1  0
 25 51  1  0
 25 52  1  0
 25 53  1  0
 28 54  1  0
 28 55  1  0
 28 56  1  0
M  CHG  1  19   1
M  END
>  <score>  (4) 
-8.38

$$$$
=
     RDKit          3D

 56 59  0  0  0  0  0  0  0  0999 V2000
    3.6040   62.1450   70.0800 C   0  0  0  0  0  0  0  0  0  0  0  0
    3.8100   60.7640   70.0020 C   0  0  0  0  0  0  0  0  0  0  0  0
    3.1330   59.9640   70.9040 C   0  0  0  0  0  0  0  0  0  0  0  0
    2.2680   60.4720   71.8700 C   0  0  0  0  0  0  0  0  0  0  0  0
    2.0530   61.8380   71.9590 C   0  0  0  0  0  0  0  0  0  0  0  0
    2.7230   62.6850   71.0600 C   0  0  0  0  0  0  0  0  0  0  0  0
    1.6670   59.3830   72.7080 C   0  0  0  0  0  0  0  0  0  0  0  0
    2.2830   58.1240   72.1480 C   0  0  0  0  0  0  0  0  0  0  0  0
    2.1570   56.8440   72.5200 C   0  0  0  0  0  0  0  0  0  0  0  0
    3.1880   58.5050   71.0200 C   0  0  0  0  0  0  0  0  0  0  0  0
    3.8470   57.7530   70.3300 O   0  0  0  0  0  0  0  0  0  0  0  0
    1.3160   56.3840   73.6250 C   0  0  0  0  0  0  0  0  0  0  0  0
    1.9200   55.9420   74.8060 C   0  0  0  0  0  0  0  0  0  0  0  0
    1.1410   55.4660   75.8650 C   0  0  0  0  0  0  0  0  0  0  0  0
   -0.2570   55.4180   75.7540 C   0  0  0  0  0  0  0  0  0  0  0  0
   -0.8570   55.8670   74.5680 C   0  0  0  0  0  0  0  0  0  0  0  0
   -0.0750   56.3420   73.5120 C   0  0  0  0  0  0  0  0  0  0  0  0
   -1.0930   54.8620   76.8760 C   0  0  0  0  0  0  0  0  0  0  0  0
   -0.9390   53.3630   77.0440 N   0  0  0  0  0  4  0  0  0  0  0  0
   -1.7610   52.8030   78.1780 C   0  0  0  0  0  0  0  0  0  0  0  0
   -3.2330   52.7340   77.7940 C   0  0  0  0  0  0  0  0  0  0  0  0
   -3.4420   51.9470   76.5040 C   0  0  0  0  0  0  0  0  0  0  0  0
   -2.5700   52.4770   75.3710 C   0  0  0  0  0  0  0  0  0  0  0  0
   -1.1060   52.5560   75.7770 C   0  0  0  0  0  0  0  0  0  0  0  0
    3.7990   63.0890   67.8900 C   0  0  0  0  0  0  0  0  0  0  0  0
    4.2060   63.0610   69.2520 O   0  0  0  0  0  0  0  0  0  0  0  0
    2.5920   64.0520   71.0490 O   0  0  0  0  0  0  0  0  0  0  0  0
    1.3400   64.5990   70.6640 C   0  0  0  0  0  0  0  0  0  0  0  0
    4.4859   60.3300   69.2505 H   0  0  0  0  0  0  0  0  0  0  0  0
    1.3719   62.2508   72.7177 H   0  0  0  0  0  0  0  0  0  0  0  0
    1.9313   59.5118   73.7680 H   0  0  0  0  0  0  0  0  0  0  0  0
    0.5676   59.3735   72.6725 H   0  0  0  0  0  0  0  0  0  0  0  0
    2.7238   56.0878   71.9571 H   0  0  0  0  0  0  0  0  0  0  0  0
    3.0154   55.9689   74.9026 H   0  0  0  0  0  0  0  0  0  0  0  0
    1.6274   55.1268   76.7915 H   0  0  0  0  0  0  0  0  0  0  0  0
   -1.9523   55.8449   74.4686 H   0  0  0  0  0  0  0  0  0  0  0  0
   -0.5585   56.6851   72.5854 H   0  0  0  0  0  0  0  0  0  0  0  0
   -0.7920   55.3524   77.8135 H   0  0  0  0  0  0  0  0  0  0  0  0
   -2.1468   55.0585   76.6293 H   0  0  0  0  0  0  0  0  0  0  0  0
    0.0521   53.2537   77.3023 H   0  0  0  0  0  0  0  0  0  0  0  0
   -1.4028   51.7910   78.4180 H   0  0  0  0  0  0  0  0  0  0  0  0
   -1.6543   53.4632   79.0513 H   0  0  0  0  0  0  0  0  0  0  0  0
   -3.7907   52.2435   78.6054 H   0  0  0  0  0  0  0  0  0  0  0  0
   -3.5943   53.7604   77.6325 H   0  0  0  0  0  0  0  0  0  0  0  0
   -3.1883   50.8921   76.6852 H   0  0  0  0  0  0  0  0  0  0  0  0
   -4.4950   52.0541   76.2044 H   0  0  0  0  0  0  0  0  0  0  0  0
   -2.6639   51.8054   74.5049 H   0  0  0  0  0  0  0  0  0  0  0  0
   -2.9118   53.4924   75.1216 H   0  0  0  0  0  0  0  0  0  0  0  0
   -0.7238   51.5384   75.9455 H   0  0  0  0  0  0  0  0  0  0  0  0
   -0.5443   53.0494   74.9701 H   0  0  0  0  0  0  0  0  0  0  0  0
    2.7029   63.1644   67.8363 H   0  0  0  0  0  0  0  0  0  0  0  0
    4.2513   63.9582   67.3900 H   0  0  0  0  0  0  0  0  0  0  0  0
    4.1280   62.1661   67.3900 H   0  0  0  0  0  0  0  0  0  0  0  0
    0.7588   64.8529   71.5628 H   0  0  0  0  0  0  0  0  0  0  0  0
    1.5051   65.5070   70.0654 H   0  0  0  0  0  0  0  0  0  0  0  0
    0.7859   63.8610   70.0654 H   0  0  0  0  0  0  0  0  0  0  0  0
  2  1  2  0
  3  2  1  0
  4  3  2  0
  5  4  1  0
  6  5  2  0
  6  1  1  0
  7  4  1  0
  8  7  1  0
  9  8  2  0
 10  8  1  0
 10  3  1  0
 11 10  2  0
 12  9  1  0
 13 12  2  0
 14 13  1  0
 15 14  2  0
 16 15  1  0
 17 16  2  0
 17 12  1  0
 18 15  1  0
 19 18  1  0
 20 19  1  0
 21 20  1  0
 22 21  1  0
 23 22  1  0
 24 23  1  0
 24 19  1  0
 26 25  1  0
 26  1  1  0
 27  6  1  0
 28 27  1  0
  2 29  1  0
  5 30  1  0
  7 31  1  0
  7 32  1  0
  9 33  1  0
 13 34  1  0
 14 35  1  0
 16 36  1  0
 17 37  1  0
 18 38  1  0
 18 39  1  0
 19 40  1  0
 20 41  1  0
 20 42  1  0
 21 43  1  0
 21 44  1  0
 22 45  1  0
 22 46  1  0
 23 47  1  0
 23 48  1  0
 24 49  1  0
 24 50  1  0
 25 51  1  0
 25 52  1  0
 25 53  1  0
 28 54  1  0
 28 55  1  0
 28 56  1  0
M  CHG  1  19   1
M  END
>  <score>  (5) 
-7.85

$$$$
=
     RDKit          3D

 56 59  0  0  0  0  0  0  0  0999 V2000
    2.5650   61.9060   71.0700 C   0  0  0  0  0  0  0  0  0  0  0  0
    2.2220   60.8230   71.8850 C   0  0  0  0  0  0  0  0  0  0  0  0
    0.9450   60.8000   72.4160 C   0  0  0  0  0  0  0  0  0  0  0  0
    0.0040   61.7970   72.1740 C   0  0  0  0  0  0  0  0  0  0  0  0
    0.3290   62.8770   71.3680 C   0  0  0  0  0  0  0  0  0  0  0  0
    1.6170   62.9370   70.8100 C   0  0  0  0  0  0  0  0  0  0  0  0
   -1.2960   61.5170   72.8680 C   0  0  0  0  0  0  0  0  0  0  0  0
   -1.0380   60.2170   73.5900 C   0  0  0  0  0  0  0  0  0  0  0  0
   -1.8170   59.4980   74.4080 C   0  0  0  0  0  0  0  0  0  0  0  0
    0.3600   59.7810   73.2910 C   0  0  0  0  0  0  0  0  0  0  0  0
    0.9120   58.7780   73.6950 O   0  0  0  0  0  0  0  0  0  0  0  0
   -3.1860   59.8600   74.7750 C   0  0  0  0  0  0  0  0  0  0  0  0
   -3.5050   61.2040   74.9850 C   0  0  0  0  0  0  0  0  0  0  0  0
   -4.7970   61.5750   75.3690 C   0  0  0  0  0  0  0  0  0  0  0  0
   -5.7890   60.6010   75.5570 C   0  0  0  0  0  0  0  0  0  0  0  0
   -5.4650   59.2540   75.3410 C   0  0  0  0  0  0  0  0  0  0  0  0
   -4.1730   58.8870   74.9560 C   0  0  0  0  0  0  0  0  0  0  0  0
   -7.1680   60.9960   76.0160 C   0  0  0  0  0  0  0  0  0  0  0  0
   -8.2310   60.7820   74.9560 N   0  0  0  0  0  4  0  0  0  0  0  0
   -9.6170   61.1590   75.4170 C   0  0  0  0  0  0  0  0  0  0  0  0
   -9.7800   62.6730   75.4500 C   0  0  0  0  0  0  0  0  0  0  0  0
   -9.4410   63.3060   74.1050 C   0  0  0  0  0  0  0  0  0  0  0  0
   -8.0620   62.8810   73.6100 C   0  0  0  0  0  0  0  0  0  0  0  0
   -7.9100   61.3660   73.6000 C   0  0  0  0  0  0  0  0  0  0  0  0
    4.8980   61.3750   71.0470 C   0  0  0  0  0  0  0  0  0  0  0  0
    3.7930   62.0640   70.4750 O   0  0  0  0  0  0  0  0  0  0  0  0
    2.0560   63.9540   69.9970 O   0  0  0  0  0  0  0  0  0  0  0  0
    1.6070   65.2710   70.2760 C   0  0  0  0  0  0  0  0  0  0  0  0
    2.9416   60.0183   72.0963 H   0  0  0  0  0  0  0  0  0  0  0  0
   -0.4063   63.6706   71.1694 H   0  0  0  0  0  0  0  0  0  0  0  0
   -1.5427   62.3192   73.5790 H   0  0  0  0  0  0  0  0  0  0  0  0
   -2.1479   61.4598   72.1745 H   0  0  0  0  0  0  0  0  0  0  0  0
   -1.3995   58.5731   74.8325 H   0  0  0  0  0  0  0  0  0  0  0  0
   -2.7337   61.9760   74.8471 H   0  0  0  0  0  0  0  0  0  0  0  0
   -5.0372   62.6371   75.5247 H   0  0  0  0  0  0  0  0  0  0  0  0
   -6.2345   58.4796   75.4758 H   0  0  0  0  0  0  0  0  0  0  0  0
   -3.9312   57.8261   74.7944 H   0  0  0  0  0  0  0  0  0  0  0  0
   -7.4286   60.3949   76.8996 H   0  0  0  0  0  0  0  0  0  0  0  0
   -7.1428   62.0720   76.2431 H   0  0  0  0  0  0  0  0  0  0  0  0
   -8.2240   59.7617   74.8154 H   0  0  0  0  0  0  0  0  0  0  0  0
  -10.3568   60.7312   74.7244 H   0  0  0  0  0  0  0  0  0  0  0  0
   -9.7717   60.7644   76.4321 H   0  0  0  0  0  0  0  0  0  0  0  0
  -10.8227   62.9138   75.7047 H   0  0  0  0  0  0  0  0  0  0  0  0
   -9.0871   63.0762   76.2032 H   0  0  0  0  0  0  0  0  0  0  0  0
  -10.1952   62.9974   73.3661 H   0  0  0  0  0  0  0  0  0  0  0  0
   -9.4365   64.3985   74.2329 H   0  0  0  0  0  0  0  0  0  0  0  0
   -7.9175   63.2606   72.5877 H   0  0  0  0  0  0  0  0  0  0  0  0
   -7.3084   63.2969   74.2949 H   0  0  0  0  0  0  0  0  0  0  0  0
   -8.5963   60.9403   72.8531 H   0  0  0  0  0  0  0  0  0  0  0  0
   -6.8677   61.1194   73.3494 H   0  0  0  0  0  0  0  0  0  0  0  0
    4.8289   61.4181   72.1440 H   0  0  0  0  0  0  0  0  0  0  0  0
    4.8846   60.3249   70.7197 H   0  0  0  0  0  0  0  0  0  0  0  0
    5.8350   61.8492   70.7197 H   0  0  0  0  0  0  0  0  0  0  0  0
    1.5568   65.4183   71.3649 H   0  0  0  0  0  0  0  0  0  0  0  0
    2.3082   65.9976   69.8397 H   0  0  0  0  0  0  0  0  0  0  0  0
    0.6080   65.4180   69.8397 H   0  0  0  0  0  0  0  0  0  0  0  0
  2  1  2  0
  3  2  1  0
  4  3  2  0
  5  4  1  0
  6  5  2  0
  6  1  1  0
  7  4  1  0
  8  7  1  0
  9  8  2  0
 10  8  1  0
 10  3  1  0
 11 10  2  0
 12  9  1  0
 13 12  2  0
 14 13  1  0
 15 14  2  0
 16 15  1  0
 17 16  2  0
 17 12  1  0
 18 15  1  0
 19 18  1  0
 20 19  1  0
 21 20  1  0
 22 21  1  0
 23 22  1  0
 24 23  1  0
 24 19  1  0
 26 25  1  0
 26  1  1  0
 27  6  1  0
 28 27  1  0
  2 29  1  0
  5 30  1  0
  7 31  1  0
  7 32  1  0
  9 33  1  0
 13 34  1  0
 14 35  1  0
 16 36  1  0
 17 37  1  0
 18 38  1  0
 18 39  1  0
 19 40  1  0
 20 41  1  0
 20 42  1  0
 21 43  1  0
 21 44  1  0
 22 45  1  0
 22 46  1  0
 23 47  1  0
 23 48  1  0
 24 49  1  0
 24 50  1  0
 25 51  1  0
 25 52  1  0
 25 53  1  0
 28 54  1  0
 28 55  1  0
 28 56  1  0
M  CHG  1  19   1
M  END
>  <score>  (6) 
-7.767

$$$$
=
     RDKit          3D

 56 59  0  0  0  0  0  0  0  0999 V2000
    2.2590   60.1610   72.2450 C   0  0  0  0  0  0  0  0  0  0  0  0
    1.4210   59.3350   73.0010 C   0  0  0  0  0  0  0  0  0  0  0  0
    0.1500   59.7990   73.2840 C   0  0  0  0  0  0  0  0  0  0  0  0
   -0.3210   61.0370   72.8500 C   0  0  0  0  0  0  0  0  0  0  0  0
    0.4980   61.8660   72.1010 C   0  0  0  0  0  0  0  0  0  0  0  0
    1.7980   61.4300   71.7930 C   0  0  0  0  0  0  0  0  0  0  0  0
   -1.7320   61.2820   73.2940 C   0  0  0  0  0  0  0  0  0  0  0  0
   -2.0800   60.0390   74.0760 C   0  0  0  0  0  0  0  0  0  0  0  0
   -3.1900   59.7050   74.7460 C   0  0  0  0  0  0  0  0  0  0  0  0
   -0.8980   59.1230   74.0520 C   0  0  0  0  0  0  0  0  0  0  0  0
   -0.8150   58.0290   74.5710 O   0  0  0  0  0  0  0  0  0  0  0  0
   -4.3810   60.5470   74.8430 C   0  0  0  0  0  0  0  0  0  0  0  0
   -5.5610   60.1370   74.2160 C   0  0  0  0  0  0  0  0  0  0  0  0
   -6.7050   60.9390   74.2660 C   0  0  0  0  0  0  0  0  0  0  0  0
   -6.6820   62.1700   74.9380 C   0  0  0  0  0  0  0  0  0  0  0  0
   -5.4960   62.5750   75.5680 C   0  0  0  0  0  0  0  0  0  0  0  0
   -4.3550   61.7700   75.5170 C   0  0  0  0  0  0  0  0  0  0  0  0
   -7.9000   63.0550   74.9510 C   0  0  0  0  0  0  0  0  0  0  0  0
   -7.9790   63.9740   73.7470 N   0  0  0  0  0  4  0  0  0  0  0  0
   -9.3480   64.0110   73.1140 C   0  0  0  0  0  0  0  0  0  0  0  0
  -10.3110   64.8330   73.9610 C   0  0  0  0  0  0  0  0  0  0  0  0
   -9.7740   66.2360   74.2240 C   0  0  0  0  0  0  0  0  0  0  0  0
   -8.3670   66.2020   74.8120 C   0  0  0  0  0  0  0  0  0  0  0  0
   -7.4220   65.3620   73.9640 C   0  0  0  0  0  0  0  0  0  0  0  0
    3.7210   58.7910   70.9370 C   0  0  0  0  0  0  0  0  0  0  0  0
    3.5450   59.8330   71.8880 O   0  0  0  0  0  0  0  0  0  0  0  0
    2.7000   62.1600   71.0580 O   0  0  0  0  0  0  0  0  0  0  0  0
    2.4440   62.3360   69.6730 C   0  0  0  0  0  0  0  0  0  0  0  0
    1.7611   58.3515   73.3576 H   0  0  0  0  0  0  0  0  0  0  0  0
    0.1380   62.8459   71.7543 H   0  0  0  0  0  0  0  0  0  0  0  0
   -1.7933   62.1766   73.9311 H   0  0  0  0  0  0  0  0  0  0  0  0
   -2.4184   61.4641   72.4540 H   0  0  0  0  0  0  0  0  0  0  0  0
   -3.2069   58.7315   75.2579 H   0  0  0  0  0  0  0  0  0  0  0  0
   -5.5897   59.1770   73.6797 H   0  0  0  0  0  0  0  0  0  0  0  0
   -7.6298   60.6022   73.7748 H   0  0  0  0  0  0  0  0  0  0  0  0
   -5.4639   63.5337   76.1064 H   0  0  0  0  0  0  0  0  0  0  0  0
   -3.4299   62.1018   76.0111 H   0  0  0  0  0  0  0  0  0  0  0  0
   -8.7962   62.4174   74.9644 H   0  0  0  0  0  0  0  0  0  0  0  0
   -7.8345   63.6910   75.8461 H   0  0  0  0  0  0  0  0  0  0  0  0
   -7.3416   63.5326   73.0689 H   0  0  0  0  0  0  0  0  0  0  0  0
   -9.2712   64.4624   72.1138 H   0  0  0  0  0  0  0  0  0  0  0  0
   -9.7314   62.9826   73.0403 H   0  0  0  0  0  0  0  0  0  0  0  0
  -11.2722   64.9125   73.4322 H   0  0  0  0  0  0  0  0  0  0  0  0
  -10.4347   64.3260   74.9293 H   0  0  0  0  0  0  0  0  0  0  0  0
   -9.7502   66.7920   73.2752 H   0  0  0  0  0  0  0  0  0  0  0  0
  -10.4375   66.7256   74.9521 H   0  0  0  0  0  0  0  0  0  0  0  0
   -7.9786   67.2297   74.8666 H   0  0  0  0  0  0  0  0  0  0  0  0
   -8.4245   65.7484   75.8125 H   0  0  0  0  0  0  0  0  0  0  0  0
   -7.2834   65.8507   72.9883 H   0  0  0  0  0  0  0  0  0  0  0  0
   -6.4605   65.2756   74.4914 H   0  0  0  0  0  0  0  0  0  0  0  0
    3.8819   57.8382   71.4626 H   0  0  0  0  0  0  0  0  0  0  0  0
    2.8230   58.7147   70.3063 H   0  0  0  0  0  0  0  0  0  0  0  0
    4.5942   59.0139   70.3063 H   0  0  0  0  0  0  0  0  0  0  0  0
    1.5440   62.9548   69.5422 H   0  0  0  0  0  0  0  0  0  0  0  0
    3.3036   62.8349   69.2017 H   0  0  0  0  0  0  0  0  0  0  0  0
    2.2860   61.3547   69.2017 H   0  0  0  0  0  0  0  0  0  0  0  0
  2  1  2  0
  3  2  1  0
  4  3  2  0
  5  4  1  0
  6  5  2  0
  6  1  1  0
  7  4  1  0
  8  7  1  0
  9  8  2  0
 10  8  1  0
 10  3  1  0
 11 10  2  0
 12  9  1  0
 13 12  2  0
 14 13  1  0
 15 14  2  0
 16 15  1  0
 17 16  2  0
 17 12  1  0
 18 15  1  0
 19 18  1  0
 20 19  1  0
 21 20  1  0
 22 21  1  0
 23 22  1  0
 24 23  1  0
 24 19  1  0
 26 25  1  0
 26  1  1  0
 27  6  1  0
 28 27  1  0
  2 29  1  0
  5 30  1  0
  7 31  1  0
  7 32  1  0
  9 33  1  0
 13 34  1  0
 14 35  1  0
 16 36  1  0
 17 37  1  0
 18 38  1  0
 18 39  1  0
 19 40  1  0
 20 41  1  0
 20 42  1  0
 21 43  1  0
 21 44  1  0
 22 45  1  0
 22 46  1  0
 23 47  1  0
 23 48  1  0
 24 49  1  0
 24 50  1  0
 25 51  1  0
 25 52  1  0
 25 53  1  0
 28 54  1  0
 28 55  1  0
 28 56  1  0
M  CHG  1  19   1
M  END
>  <score>  (7) 
-7.704

$$$$
=
     RDKit          3D

 56 59  0  0  0  0  0  0  0  0999 V2000
   -7.0590   58.9060   75.8970 C   0  0  0  0  0  0  0  0  0  0  0  0
   -5.9110   58.1130   75.9850 C   0  0  0  0  0  0  0  0  0  0  0  0
   -4.7290   58.6390   75.4960 C   0  0  0  0  0  0  0  0  0  0  0  0
   -4.6410   59.9090   74.9300 C   0  0  0  0  0  0  0  0  0  0  0  0
   -5.7700   60.7070   74.8360 C   0  0  0  0  0  0  0  0  0  0  0  0
   -6.9900   60.2070   75.3220 C   0  0  0  0  0  0  0  0  0  0  0  0
   -3.2430   60.2250   74.4890 C   0  0  0  0  0  0  0  0  0  0  0  0
   -2.4690   58.9780   74.8410 C   0  0  0  0  0  0  0  0  0  0  0  0
   -1.1830   58.6580   74.6460 C   0  0  0  0  0  0  0  0  0  0  0  0
   -3.4100   58.0040   75.4750 C   0  0  0  0  0  0  0  0  0  0  0  0
   -3.1390   56.8960   75.8910 O   0  0  0  0  0  0  0  0  0  0  0  0
   -0.2000   59.5370   74.0140 C   0  0  0  0  0  0  0  0  0  0  0  0
    1.1570   59.3600   74.2980 C   0  0  0  0  0  0  0  0  0  0  0  0
    2.1150   60.2060   73.7330 C   0  0  0  0  0  0  0  0  0  0  0  0
    1.7270   61.2510   72.8810 C   0  0  0  0  0  0  0  0  0  0  0  0
    0.3640   61.4210   72.5960 C   0  0  0  0  0  0  0  0  0  0  0  0
   -0.5910   60.5720   73.1620 C   0  0  0  0  0  0  0  0  0  0  0  0
    2.7550   62.1920   72.3100 C   0  0  0  0  0  0  0  0  0  0  0  0
    3.7450   61.5040   71.3910 N   0  0  0  0  0  4  0  0  0  0  0  0
    3.0990   60.8730   70.1820 C   0  0  0  0  0  0  0  0  0  0  0  0
    2.7060   61.9370   69.1660 C   0  0  0  0  0  0  0  0  0  0  0  0
    3.8930   62.8120   68.7780 C   0  0  0  0  0  0  0  0  0  0  0  0
    4.5830   63.4050   70.0030 C   0  0  0  0  0  0  0  0  0  0  0  0
    4.9530   62.3310   71.0160 C   0  0  0  0  0  0  0  0  0  0  0  0
   -8.3760   57.3520   77.1520 C   0  0  0  0  0  0  0  0  0  0  0  0
   -8.3000   58.5170   76.3410 O   0  0  0  0  0  0  0  0  0  0  0  0
   -8.1740   60.9020   75.2850 O   0  0  0  0  0  0  0  0  0  0  0  0
   -8.4960   61.6090   74.0980 C   0  0  0  0  0  0  0  0  0  0  0  0
   -5.9465   57.1065   76.4274 H   0  0  0  0  0  0  0  0  0  0  0  0
   -5.7124   61.7110   74.3902 H   0  0  0  0  0  0  0  0  0  0  0  0
   -3.2067   60.4172   73.4065 H   0  0  0  0  0  0  0  0  0  0  0  0
   -2.8379   61.1287   74.9678 H   0  0  0  0  0  0  0  0  0  0  0  0
   -0.8437   57.6677   74.9839 H   0  0  0  0  0  0  0  0  0  0  0  0
    1.4730   58.5492   74.9709 H   0  0  0  0  0  0  0  0  0  0  0  0
    3.1807   60.0516   73.9578 H   0  0  0  0  0  0  0  0  0  0  0  0
    0.0443   62.2291   71.9216 H   0  0  0  0  0  0  0  0  0  0  0  0
   -1.6571   60.7200   72.9350 H   0  0  0  0  0  0  0  0  0  0  0  0
    2.2342   62.9755   71.7400 H   0  0  0  0  0  0  0  0  0  0  0  0
    3.3248   62.6071   73.1544 H   0  0  0  0  0  0  0  0  0  0  0  0
    4.1150   60.7387   71.9727 H   0  0  0  0  0  0  0  0  0  0  0  0
    3.8093   60.1738   69.7165 H   0  0  0  0  0  0  0  0  0  0  0  0
    2.1929   60.3384   70.5033 H   0  0  0  0  0  0  0  0  0  0  0  0
    2.3179   61.4421   68.2635 H   0  0  0  0  0  0  0  0  0  0  0  0
    1.9400   62.5810   69.6227 H   0  0  0  0  0  0  0  0  0  0  0  0
    4.6188   62.2012   68.2211 H   0  0  0  0  0  0  0  0  0  0  0  0
    3.5191   63.6419   68.1604 H   0  0  0  0  0  0  0  0  0  0  0  0
    5.4990   63.9218   69.6808 H   0  0  0  0  0  0  0  0  0  0  0  0
    3.8842   64.1046   70.4849 H   0  0  0  0  0  0  0  0  0  0  0  0
    5.7186   61.6728   70.5795 H   0  0  0  0  0  0  0  0  0  0  0  0
    5.3386   62.8208   71.9223 H   0  0  0  0  0  0  0  0  0  0  0  0
   -8.3571   57.6419   78.2129 H   0  0  0  0  0  0  0  0  0  0  0  0
   -9.3111   56.8148   76.9353 H   0  0  0  0  0  0  0  0  0  0  0  0
   -7.5186   56.6978   76.9353 H   0  0  0  0  0  0  0  0  0  0  0  0
   -8.9389   62.5814   74.3591 H   0  0  0  0  0  0  0  0  0  0  0  0
   -7.5820   61.7691   73.5072 H   0  0  0  0  0  0  0  0  0  0  0  0
   -9.2168   61.0246   73.5072 H   0  0  0  0  0  0  0  0  0  0  0  0
  2  1  2  0
  3  2  1  0
  4  3  2  0
  5  4  1  0
  6  5  2  0
  6  1  1  0
  7  4  1  0
  8  7  1  0
  9  8  2  0
 10  8  1  0
 10  3  1  0
 11 10  2  0
 12  9  1  0
 13 12  2  0
 14 13  1  0
 15 14  2  0
 16 15  1  0
 17 16  2  0
 17 12  1  0
 18 15  1  0
 19 18  1  0
 20 19  1  0
 21 20  1  0
 22 21  1  0
 23 22  1  0
 24 23  1  0
 24 19  1  0
 26 25  1  0
 26  1  1  0
 27  6  1  0
 28 27  1  0
  2 29  1  0
  5 30  1  0
  7 31  1  0
  7 32  1  0
  9 33  1  0
 13 34  1  0
 14 35  1  0
 16 36  1  0
 17 37  1  0
 18 38  1  0
 18 39  1  0
 19 40  1  0
 20 41  1  0
 20 42  1  0
 21 43  1  0
 21 44  1  0
 22 45  1  0
 22 46  1  0
 23 47  1  0
 23 48  1  0
 24 49  1  0
 24 50  1  0
 25 51  1  0
 25 52  1  0
 25 53  1  0
 28 54  1  0
 28 55  1  0
 28 56  1  0
M  CHG  1  19   1
M  END
>  <score>  (8) 
-7.526

$$$$
=
     RDKit          3D

 56 59  0  0  0  0  0  0  0  0999 V2000
   -3.9870   57.4990   75.9210 C   0  0  0  0  0  0  0  0  0  0  0  0
   -2.8860   56.6550   75.7490 C   0  0  0  0  0  0  0  0  0  0  0  0
   -1.7610   57.1860   75.1450 C   0  0  0  0  0  0  0  0  0  0  0  0
   -1.6840   58.5080   74.7120 C   0  0  0  0  0  0  0  0  0  0  0  0
   -2.7680   59.3560   74.8760 C   0  0  0  0  0  0  0  0  0  0  0  0
   -3.9300   58.8530   75.4840 C   0  0  0  0  0  0  0  0  0  0  0  0
   -0.3500   58.8170   74.1010 C   0  0  0  0  0  0  0  0  0  0  0  0
    0.3960   57.5080   74.1960 C   0  0  0  0  0  0  0  0  0  0  0  0
    1.6190   57.1610   73.7760 C   0  0  0  0  0  0  0  0  0  0  0  0
   -0.4970   56.5060   74.8570 C   0  0  0  0  0  0  0  0  0  0  0  0
   -0.2310   55.3480   75.1060 O   0  0  0  0  0  0  0  0  0  0  0  0
    2.5480   58.0660   73.1000 C   0  0  0  0  0  0  0  0  0  0  0  0
    3.2990   58.9670   73.8600 C   0  0  0  0  0  0  0  0  0  0  0  0
    4.1700   59.8650   73.2370 C   0  0  0  0  0  0  0  0  0  0  0  0
    4.2950   59.8820   71.8400 C   0  0  0  0  0  0  0  0  0  0  0  0
    3.5410   58.9730   71.0820 C   0  0  0  0  0  0  0  0  0  0  0  0
    2.6720   58.0750   71.7090 C   0  0  0  0  0  0  0  0  0  0  0  0
    5.1970   60.8810   71.1660 C   0  0  0  0  0  0  0  0  0  0  0  0
    4.7120   62.3100   71.3090 N   0  0  0  0  0  4  0  0  0  0  0  0
    4.8750   63.1250   70.0500 C   0  0  0  0  0  0  0  0  0  0  0  0
    3.8220   62.7400   69.0190 C   0  0  0  0  0  0  0  0  0  0  0  0
    2.4110   62.8550   69.5870 C   0  0  0  0  0  0  0  0  0  0  0  0
    2.2600   62.0780   70.8900 C   0  0  0  0  0  0  0  0  0  0  0  0
    3.3300   62.4620   71.9020 C   0  0  0  0  0  0  0  0  0  0  0  0
   -5.1080   56.5070   77.7880 C   0  0  0  0  0  0  0  0  0  0  0  0
   -5.1710   57.1110   76.5030 O   0  0  0  0  0  0  0  0  0  0  0  0
   -5.0660   59.5940   75.7020 O   0  0  0  0  0  0  0  0  0  0  0  0
   -5.5810   60.3580   74.6220 C   0  0  0  0  0  0  0  0  0  0  0  0
   -2.9135   55.6069   76.0819 H   0  0  0  0  0  0  0  0  0  0  0  0
   -2.7193   60.4013   74.5370 H   0  0  0  0  0  0  0  0  0  0  0  0
   -0.4614   59.1303   73.0525 H   0  0  0  0  0  0  0  0  0  0  0  0
    0.1707   59.6433   74.6070 H   0  0  0  0  0  0  0  0  0  0  0  0
    1.9471   56.1258   73.9511 H   0  0  0  0  0  0  0  0  0  0  0  0
    3.2039   58.9693   74.9559 H   0  0  0  0  0  0  0  0  0  0  0  0
    4.7619   60.5636   73.8467 H   0  0  0  0  0  0  0  0  0  0  0  0
    3.6344   58.9670   69.9860 H   0  0  0  0  0  0  0  0  0  0  0  0
    2.0824   57.3713   71.1030 H   0  0  0  0  0  0  0  0  0  0  0  0
    6.1994   60.8050   71.6126 H   0  0  0  0  0  0  0  0  0  0  0  0
    5.2060   60.6432   70.0921 H   0  0  0  0  0  0  0  0  0  0  0  0
    5.3504   62.7064   72.0134 H   0  0  0  0  0  0  0  0  0  0  0  0
    4.7678   64.1922   70.2943 H   0  0  0  0  0  0  0  0  0  0  0  0
    5.8716   62.9282   69.6280 H   0  0  0  0  0  0  0  0  0  0  0  0
    3.9124   63.4082   68.1499 H   0  0  0  0  0  0  0  0  0  0  0  0
    3.9916   61.6926   68.7289 H   0  0  0  0  0  0  0  0  0  0  0  0
    2.1891   63.9155   69.7771 H   0  0  0  0  0  0  0  0  0  0  0  0
    1.7111   62.4300   68.8525 H   0  0  0  0  0  0  0  0  0  0  0  0
    1.2701   62.2914   71.3196 H   0  0  0  0  0  0  0  0  0  0  0  0
    2.3696   61.0068   70.6650 H   0  0  0  0  0  0  0  0  0  0  0  0
    3.1808   63.5091   72.2042 H   0  0  0  0  0  0  0  0  0  0  0  0
    3.2458   61.7953   72.7729 H   0  0  0  0  0  0  0  0  0  0  0  0
   -5.1890   57.2838   78.5626 H   0  0  0  0  0  0  0  0  0  0  0  0
   -5.9364   55.7917   77.8979 H   0  0  0  0  0  0  0  0  0  0  0  0
   -4.1498   55.9781   77.8979 H   0  0  0  0  0  0  0  0  0  0  0  0
   -6.1550   61.2096   75.0162 H   0  0  0  0  0  0  0  0  0  0  0  0
   -4.7488   60.7302   74.0065 H   0  0  0  0  0  0  0  0  0  0  0  0
   -6.2383   59.7262   74.0065 H   0  0  0  0  0  0  0  0  0  0  0  0
  2  1  2  0
  3  2  1  0
  4  3  2  0
  5  4  1  0
  6  5  2  0
  6  1  1  0
  7  4  1  0
  8  7  1  0
  9  8  2  0
 10  8  1  0
 10  3  1  0
 11 10  2  0
 12  9  1  0
 13 12  2  0
 14 13  1  0
 15 14  2  0
 16 15  1  0
 17 16  2  0
 17 12  1  0
 18 15  1  0
 19 18  1  0
 20 19  1  0
 21 20  1  0
 22 21  1  0
 23 22  1  0
 24 23  1  0
 24 19  1  0
 26 25  1  0
 26  1  1  0
 27  6  1  0
 28 27  1  0
  2 29  1  0
  5 30  1  0
  7 31  1  0
  7 32  1  0
  9 33  1  0
 13 34  1  0
 14 35  1  0
 16 36  1  0
 17 37  1  0
 18 38  1  0
 18 39  1  0
 19 40  1  0
 20 41  1  0
 20 42  1  0
 21 43  1  0
 21 44  1  0
 22 45  1  0
 22 46  1  0
 23 47  1  0
 23 48  1  0
 24 49  1  0
 24 50  1  0
 25 51  1  0
 25 52  1  0
 25 53  1  0
 28 54  1  0
 28 55  1  0
 28 56  1  0
M  CHG  1  19   1
M  END
>  <score>  (9) 
-7.472

$$$$
