=
     RDKit          3D

 22 22  0  0  0  0  0  0  0  0999 V2000
    4.7760   70.5660   68.3960 C   0  0  0  0  0  0  0  0  0  0  0  0
    4.1980   70.3720   69.4610 O   0  0  0  0  0  0  0  0  0  0  0  0
    4.3310   69.9060   67.1400 C   0  0  0  0  0  0  0  0  0  0  0  0
    5.2320   69.8540   66.0670 C   0  0  0  0  0  0  0  0  0  0  0  0
    4.8600   69.2610   64.8580 C   0  0  0  0  0  0  0  0  0  0  0  0
    3.5850   68.7200   64.7130 C   0  0  0  0  0  0  0  0  0  0  0  0
    2.6820   68.7710   65.7740 C   0  0  0  0  0  0  0  0  0  0  0  0
    3.0500   69.3640   66.9840 C   0  0  0  0  0  0  0  0  0  0  0  0
    5.9940   71.4680   68.4140 C   0  0  0  0  0  0  0  0  0  0  0  0
    5.8870   72.6420   68.0860 O   0  0  0  0  0  0  0  0  0  0  0  0
    7.2870   70.5680   70.3720 C   0  0  0  0  0  0  0  0  0  0  0  0
    7.2750   70.8100   68.8730 C   0  0  0  0  0  0  0  0  0  0  0  0
    6.2388   70.2831   66.1779 H   0  0  0  0  0  0  0  0  0  0  0  0
    5.5733   69.2215   64.0216 H   0  0  0  0  0  0  0  0  0  0  0  0
    3.2905   68.2526   63.7618 H   0  0  0  0  0  0  0  0  0  0  0  0
    1.6756   68.3425   65.6578 H   0  0  0  0  0  0  0  0  0  0  0  0
    2.3316   69.4051   67.8160 H   0  0  0  0  0  0  0  0  0  0  0  0
    7.2392   71.5321   70.8995 H   0  0  0  0  0  0  0  0  0  0  0  0
    6.4182   69.9538   70.6512 H   0  0  0  0  0  0  0  0  0  0  0  0
    8.2123   70.0428   70.6512 H   0  0  0  0  0  0  0  0  0  0  0  0
    8.1219   71.4617   68.6120 H   0  0  0  0  0  0  0  0  0  0  0  0
    7.3533   69.8341   68.3715 H   0  0  0  0  0  0  0  0  0  0  0  0
  2  1  2  0
  3  1  1  0
  4  3  2  0
  5  4  1  0
  6  5  2  0
  7  6  1  0
  8  7  2  0
  8  3  1  0
  9  1  1  0
 10  9  2  0
 12 11  1  0
 12  9  1  0
  4 13  1  0
  5 14  1  0
  6 15  1  0
  7 16  1  0
  8 17  1  0
 11 18  1  0
 11 19  1  0
 11 20  1  0
 12 21  1  0
 12 22  1  0
M  END
>  <score>  (1) 
-7.892

$$$$
=
     RDKit          3D

 22 22  0  0  0  0  0  0  0  0999 V2000
    6.1230   70.2560   67.2200 C   0  0  0  0  0  0  0  0  0  0  0  0
    7.0520   69.7210   66.6230 O   0  0  0  0  0  0  0  0  0  0  0  0
    4.7120   69.8610   66.9720 C   0  0  0  0  0  0  0  0  0  0  0  0
    4.3520   69.4780   65.6720 C   0  0  0  0  0  0  0  0  0  0  0  0
    3.0350   69.1150   65.3800 C   0  0  0  0  0  0  0  0  0  0  0  0
    2.0700   69.1350   66.3830 C   0  0  0  0  0  0  0  0  0  0  0  0
    2.4180   69.5190   67.6770 C   0  0  0  0  0  0  0  0  0  0  0  0
    3.7340   69.8840   67.9730 C   0  0  0  0  0  0  0  0  0  0  0  0
    6.4630   71.3720   68.1880 C   0  0  0  0  0  0  0  0  0  0  0  0
    5.8740   72.4420   68.1150 O   0  0  0  0  0  0  0  0  0  0  0  0
    6.9370   70.4490   70.4770 C   0  0  0  0  0  0  0  0  0  0  0  0
    7.5270   71.0370   69.2080 C   0  0  0  0  0  0  0  0  0  0  0  0
    5.1118   69.4633   64.8767 H   0  0  0  0  0  0  0  0  0  0  0  0
    2.7608   68.8136   64.3583 H   0  0  0  0  0  0  0  0  0  0  0  0
    1.0330   68.8478   66.1545 H   0  0  0  0  0  0  0  0  0  0  0  0
    1.6538   69.5348   68.4681 H   0  0  0  0  0  0  0  0  0  0  0  0
    4.0019   70.1901   68.9950 H   0  0  0  0  0  0  0  0  0  0  0  0
    7.4086   70.9190   71.3526 H   0  0  0  0  0  0  0  0  0  0  0  0
    5.8534   70.6371   70.4990 H   0  0  0  0  0  0  0  0  0  0  0  0
    7.1214   69.3648   70.4990 H   0  0  0  0  0  0  0  0  0  0  0  0
    8.0745   71.9560   69.4642 H   0  0  0  0  0  0  0  0  0  0  0  0
    8.1956   70.2842   68.7650 H   0  0  0  0  0  0  0  0  0  0  0  0
  2  1  2  0
  3  1  1  0
  4  3  2  0
  5  4  1  0
  6  5  2  0
  7  6  1  0
  8  7  2  0
  8  3  1  0
  9  1  1  0
 10  9  2  0
 12 11  1  0
 12  9  1  0
  4 13  1  0
  5 14  1  0
  6 15  1  0
  7 16  1  0
  8 17  1  0
 11 18  1  0
 11 19  1  0
 11 20  1  0
 12 21  1  0
 12 22  1  0
M  END
>  <score>  (2) 
-7.557

$$$$
=
     RDKit          3D

 22 22  0  0  0  0  0  0  0  0999 V2000
    2.7920   68.4660   65.1560 C   0  0  0  0  0  0  0  0  0  0  0  0
    2.2460   69.0440   64.2230 O   0  0  0  0  0  0  0  0  0  0  0  0
    3.6710   69.1910   66.1110 C   0  0  0  0  0  0  0  0  0  0  0  0
    4.9900   69.4610   65.7190 C   0  0  0  0  0  0  0  0  0  0  0  0
    5.8640   70.1240   66.5840 C   0  0  0  0  0  0  0  0  0  0  0  0
    5.4270   70.5170   67.8460 C   0  0  0  0  0  0  0  0  0  0  0  0
    4.1190   70.2490   68.2460 C   0  0  0  0  0  0  0  0  0  0  0  0
    3.2420   69.5850   67.3830 C   0  0  0  0  0  0  0  0  0  0  0  0
    2.5780   66.9700   65.2750 C   0  0  0  0  0  0  0  0  0  0  0  0
    1.7910   66.5310   66.1050 O   0  0  0  0  0  0  0  0  0  0  0  0
    3.3740   64.6580   64.6910 C   0  0  0  0  0  0  0  0  0  0  0  0
    3.3720   66.1270   64.3040 C   0  0  0  0  0  0  0  0  0  0  0  0
    5.3389   69.1486   64.7237 H   0  0  0  0  0  0  0  0  0  0  0  0
    6.8963   70.3353   66.2683 H   0  0  0  0  0  0  0  0  0  0  0  0
    6.1143   71.0393   68.5278 H   0  0  0  0  0  0  0  0  0  0  0  0
    3.7757   70.5608   69.2435 H   0  0  0  0  0  0  0  0  0  0  0  0
    2.2120   69.3718   67.7050 H   0  0  0  0  0  0  0  0  0  0  0  0
    3.3741   64.5676   65.7873 H   0  0  0  0  0  0  0  0  0  0  0  0
    2.4765   64.1701   64.2830 H   0  0  0  0  0  0  0  0  0  0  0  0
    4.2728   64.1726   64.2830 H   0  0  0  0  0  0  0  0  0  0  0  0
    4.4101   66.4903   64.2856 H   0  0  0  0  0  0  0  0  0  0  0  0
    2.9003   66.2157   63.3143 H   0  0  0  0  0  0  0  0  0  0  0  0
  2  1  2  0
  3  1  1  0
  4  3  2  0
  5  4  1  0
  6  5  2  0
  7  6  1  0
  8  7  2  0
  8  3  1  0
  9  1  1  0
 10  9  2  0
 12 11  1  0
 12  9  1  0
  4 13  1  0
  5 14  1  0
  6 15  1  0
  7 16  1  0
  8 17  1  0
 11 18  1  0
 11 19  1  0
 11 20  1  0
 12 21  1  0
 12 22  1  0
M  END
>  <score>  (3) 
-7.163

$$$$
=
     RDKit          3D

 22 22  0  0  0  0  0  0  0  0999 V2000
    3.5510   69.0300   65.7990 C   0  0  0  0  0  0  0  0  0  0  0  0
    2.3420   69.1110   65.9910 O   0  0  0  0  0  0  0  0  0  0  0  0
    4.5270   69.6710   66.7180 C   0  0  0  0  0  0  0  0  0  0  0  0
    4.0590   70.1440   67.9530 C   0  0  0  0  0  0  0  0  0  0  0  0
    4.9300   70.7700   68.8470 C   0  0  0  0  0  0  0  0  0  0  0  0
    6.2720   70.9310   68.5130 C   0  0  0  0  0  0  0  0  0  0  0  0
    6.7450   70.4680   67.2860 C   0  0  0  0  0  0  0  0  0  0  0  0
    5.8760   69.8420   66.3880 C   0  0  0  0  0  0  0  0  0  0  0  0
    4.0150   68.2920   64.5590 C   0  0  0  0  0  0  0  0  0  0  0  0
    4.1880   67.0810   64.6000 O   0  0  0  0  0  0  0  0  0  0  0  0
    5.6010   69.0020   62.7430 C   0  0  0  0  0  0  0  0  0  0  0  0
    4.2100   69.1540   63.3320 C   0  0  0  0  0  0  0  0  0  0  0  0
    2.9987   70.0209   68.2189 H   0  0  0  0  0  0  0  0  0  0  0  0
    4.5561   71.1358   69.8147 H   0  0  0  0  0  0  0  0  0  0  0  0
    6.9589   71.4234   69.2171 H   0  0  0  0  0  0  0  0  0  0  0  0
    7.8056   70.5958   67.0238 H   0  0  0  0  0  0  0  0  0  0  0  0
    6.2535   69.4828   65.4193 H   0  0  0  0  0  0  0  0  0  0  0  0
    6.3369   68.9216   63.5566 H   0  0  0  0  0  0  0  0  0  0  0  0
    5.6394   68.0943   62.1228 H   0  0  0  0  0  0  0  0  0  0  0  0
    5.8345   69.8800   62.1228 H   0  0  0  0  0  0  0  0  0  0  0  0
    4.0556   70.2070   63.6100 H   0  0  0  0  0  0  0  0  0  0  0  0
    3.4831   68.8313   62.5721 H   0  0  0  0  0  0  0  0  0  0  0  0
  2  1  2  0
  3  1  1  0
  4  3  2  0
  5  4  1  0
  6  5  2  0
  7  6  1  0
  8  7  2  0
  8  3  1  0
  9  1  1  0
 10  9  2  0
 12 11  1  0
 12  9  1  0
  4 13  1  0
  5 14  1  0
  6 15  1  0
  7 16  1  0
  8 17  1  0
 11 18  1  0
 11 19  1  0
 11 20  1  0
 12 21  1  0
 12 22  1  0
M  END
>  <score>  (4) 
-7.13

$$$$
=
     RDKit          3D

 22 22  0  0  0  0  0  0  0  0999 V2000
    2.6400   68.8520   65.6010 C   0  0  0  0  0  0  0  0  0  0  0  0
    2.5360   69.0550   64.3960 O   0  0  0  0  0  0  0  0  0  0  0  0
    3.7280   69.4730   66.4020 C   0  0  0  0  0  0  0  0  0  0  0  0
    4.9830   69.6340   65.7970 C   0  0  0  0  0  0  0  0  0  0  0  0
    6.0460   70.1950   66.5090 C   0  0  0  0  0  0  0  0  0  0  0  0
    5.8620   70.5950   67.8300 C   0  0  0  0  0  0  0  0  0  0  0  0
    4.6190   70.4340   68.4410 C   0  0  0  0  0  0  0  0  0  0  0  0
    3.5540   69.8730   67.7320 C   0  0  0  0  0  0  0  0  0  0  0  0
    1.6450   67.9040   66.2400 C   0  0  0  0  0  0  0  0  0  0  0  0
    1.8800   66.7030   66.2690 O   0  0  0  0  0  0  0  0  0  0  0  0
   -0.7160   68.6520   65.8160 C   0  0  0  0  0  0  0  0  0  0  0  0
    0.4150   68.5600   66.8240 C   0  0  0  0  0  0  0  0  0  0  0  0
    5.1314   69.3163   64.7544 H   0  0  0  0  0  0  0  0  0  0  0  0
    7.0267   70.3205   66.0269 H   0  0  0  0  0  0  0  0  0  0  0  0
    6.6975   71.0381   68.3917 H   0  0  0  0  0  0  0  0  0  0  0  0
    4.4765   70.7498   69.4850 H   0  0  0  0  0  0  0  0  0  0  0  0
    2.5765   69.7453   68.2200 H   0  0  0  0  0  0  0  0  0  0  0  0
   -1.6757   68.7301   66.3478 H   0  0  0  0  0  0  0  0  0  0  0  0
   -0.5732   69.5415   65.1848 H   0  0  0  0  0  0  0  0  0  0  0  0
   -0.7188   67.7511   65.1848 H   0  0  0  0  0  0  0  0  0  0  0  0
    0.6781   69.5753   67.1556 H   0  0  0  0  0  0  0  0  0  0  0  0
    0.0690   67.9423   67.6659 H   0  0  0  0  0  0  0  0  0  0  0  0
  2  1  2  0
  3  1  1  0
  4  3  2  0
  5  4  1  0
  6  5  2  0
  7  6  1  0
  8  7  2  0
  8  3  1  0
  9  1  1  0
 10  9  2  0
 12 11  1  0
 12  9  1  0
  4 13  1  0
  5 14  1  0
  6 15  1  0
  7 16  1  0
  8 17  1  0
 11 18  1  0
 11 19  1  0
 11 20  1  0
 12 21  1  0
 12 22  1  0
M  END
>  <score>  (5) 
-7.04

$$$$
=
     RDKit          3D

 22 22  0  0  0  0  0  0  0  0999 V2000
    4.5510   69.2290   64.7220 C   0  0  0  0  0  0  0  0  0  0  0  0
    5.2390   69.6160   63.7830 O   0  0  0  0  0  0  0  0  0  0  0  0
    4.7810   69.7200   66.1070 C   0  0  0  0  0  0  0  0  0  0  0  0
    6.0680   70.1660   66.4430 C   0  0  0  0  0  0  0  0  0  0  0  0
    6.3440   70.6210   67.7350 C   0  0  0  0  0  0  0  0  0  0  0  0
    5.3380   70.6300   68.6980 C   0  0  0  0  0  0  0  0  0  0  0  0
    4.0580   70.1840   68.3730 C   0  0  0  0  0  0  0  0  0  0  0  0
    3.7780   69.7270   67.0820 C   0  0  0  0  0  0  0  0  0  0  0  0
    3.4840   68.1930   64.4290 C   0  0  0  0  0  0  0  0  0  0  0  0
    3.7040   67.0110   64.6610 O   0  0  0  0  0  0  0  0  0  0  0  0
    2.1090   68.5990   62.3660 C   0  0  0  0  0  0  0  0  0  0  0  0
    2.1900   68.7410   63.8750 C   0  0  0  0  0  0  0  0  0  0  0  0
    6.8648   70.1575   65.6847 H   0  0  0  0  0  0  0  0  0  0  0  0
    7.3547   70.9717   67.9912 H   0  0  0  0  0  0  0  0  0  0  0  0
    5.5535   70.9891   69.7152 H   0  0  0  0  0  0  0  0  0  0  0  0
    3.2651   70.1917   69.1354 H   0  0  0  0  0  0  0  0  0  0  0  0
    2.7671   69.3723   66.8324 H   0  0  0  0  0  0  0  0  0  0  0  0
    1.5786   67.6691   62.1132 H   0  0  0  0  0  0  0  0  0  0  0  0
    1.5647   69.4575   61.9456 H   0  0  0  0  0  0  0  0  0  0  0  0
    3.1250   68.5675   61.9456 H   0  0  0  0  0  0  0  0  0  0  0  0
    2.1161   69.8072   64.1353 H   0  0  0  0  0  0  0  0  0  0  0  0
    1.3626   68.1644   64.3142 H   0  0  0  0  0  0  0  0  0  0  0  0
  2  1  2  0
  3  1  1  0
  4  3  2  0
  5  4  1  0
  6  5  2  0
  7  6  1  0
  8  7  2  0
  8  3  1  0
  9  1  1  0
 10  9  2  0
 12 11  1  0
 12  9  1  0
  4 13  1  0
  5 14  1  0
  6 15  1  0
  7 16  1  0
  8 17  1  0
 11 18  1  0
 11 19  1  0
 11 20  1  0
 12 21  1  0
 12 22  1  0
M  END
>  <score>  (6) 
-7.017

$$$$
=
     RDKit          3D

 22 22  0  0  0  0  0  0  0  0999 V2000
    4.4490   69.4190   65.1030 C   0  0  0  0  0  0  0  0  0  0  0  0
    5.2820   69.7260   64.2570 O   0  0  0  0  0  0  0  0  0  0  0  0
    4.5980   69.8290   66.5240 C   0  0  0  0  0  0  0  0  0  0  0  0
    3.4750   69.7380   67.3590 C   0  0  0  0  0  0  0  0  0  0  0  0
    3.5550   70.1270   68.6980 C   0  0  0  0  0  0  0  0  0  0  0  0
    4.7550   70.6120   69.2110 C   0  0  0  0  0  0  0  0  0  0  0  0
    5.8750   70.7100   68.3870 C   0  0  0  0  0  0  0  0  0  0  0  0
    5.7990   70.3230   67.0460 C   0  0  0  0  0  0  0  0  0  0  0  0
    3.2810   68.5610   64.6580 C   0  0  0  0  0  0  0  0  0  0  0  0
    2.2040   69.0850   64.4020 O   0  0  0  0  0  0  0  0  0  0  0  0
    2.4050   66.2330   65.0130 C   0  0  0  0  0  0  0  0  0  0  0  0
    3.5730   67.0830   64.5470 C   0  0  0  0  0  0  0  0  0  0  0  0
    2.5245   69.3576   66.9566 H   0  0  0  0  0  0  0  0  0  0  0  0
    2.6702   70.0502   69.3471 H   0  0  0  0  0  0  0  0  0  0  0  0
    4.8192   70.9176   70.2657 H   0  0  0  0  0  0  0  0  0  0  0  0
    6.8224   71.0934   68.7937 H   0  0  0  0  0  0  0  0  0  0  0  0
    6.6850   70.4069   66.3995 H   0  0  0  0  0  0  0  0  0  0  0  0
    2.3803   66.2150   66.1126 H   0  0  0  0  0  0  0  0  0  0  0  0
    1.4656   66.6602   64.6321 H   0  0  0  0  0  0  0  0  0  0  0  0
    2.5226   65.2078   64.6321 H   0  0  0  0  0  0  0  0  0  0  0  0
    4.4517   66.8478   65.1655 H   0  0  0  0  0  0  0  0  0  0  0  0
    3.7573   66.8531   63.4872 H   0  0  0  0  0  0  0  0  0  0  0  0
  2  1  2  0
  3  1  1  0
  4  3  2  0
  5  4  1  0
  6  5  2  0
  7  6  1  0
  8  7  2  0
  8  3  1  0
  9  1  1  0
 10  9  2  0
 12 11  1  0
 12  9  1  0
  4 13  1  0
  5 14  1  0
  6 15  1  0
  7 16  1  0
  8 17  1  0
 11 18  1  0
 11 19  1  0
 11 20  1  0
 12 21  1  0
 12 22  1  0
M  END
>  <score>  (7) 
-6.833

$$$$
=
     RDKit          3D

 22 22  0  0  0  0  0  0  0  0999 V2000
    4.6310   69.9690   67.1780 C   0  0  0  0  0  0  0  0  0  0  0  0
    3.8770   70.0190   68.1440 O   0  0  0  0  0  0  0  0  0  0  0  0
    4.1450   69.5560   65.8350 C   0  0  0  0  0  0  0  0  0  0  0  0
    2.8260   69.0930   65.7240 C   0  0  0  0  0  0  0  0  0  0  0  0
    2.3240   68.6760   64.4890 C   0  0  0  0  0  0  0  0  0  0  0  0
    3.1370   68.7160   63.3590 C   0  0  0  0  0  0  0  0  0  0  0  0
    4.4500   69.1700   63.4620 C   0  0  0  0  0  0  0  0  0  0  0  0
    4.9570   69.5870   64.6960 C   0  0  0  0  0  0  0  0  0  0  0  0
    6.0930   70.2980   67.4120 C   0  0  0  0  0  0  0  0  0  0  0  0
    6.9590   69.7050   66.7820 O   0  0  0  0  0  0  0  0  0  0  0  0
    7.4730   71.0180   69.3850 C   0  0  0  0  0  0  0  0  0  0  0  0
    6.3520   71.3850   68.4290 C   0  0  0  0  0  0  0  0  0  0  0  0
    2.1824   69.0580   66.6154 H   0  0  0  0  0  0  0  0  0  0  0  0
    1.2875   68.3164   64.4091 H   0  0  0  0  0  0  0  0  0  0  0  0
    2.7426   68.3892   62.3855 H   0  0  0  0  0  0  0  0  0  0  0  0
    5.0906   69.2004   62.5683 H   0  0  0  0  0  0  0  0  0  0  0  0
    5.9960   69.9401   64.7718 H   0  0  0  0  0  0  0  0  0  0  0  0
    7.1231   71.1325   70.4216 H   0  0  0  0  0  0  0  0  0  0  0  0
    7.7746   69.9742   69.2130 H   0  0  0  0  0  0  0  0  0  0  0  0
    8.3335   71.6813   69.2130 H   0  0  0  0  0  0  0  0  0  0  0  0
    5.4327   71.5545   69.0088 H   0  0  0  0  0  0  0  0  0  0  0  0
    6.6542   72.2922   67.8853 H   0  0  0  0  0  0  0  0  0  0  0  0
  2  1  2  0
  3  1  1  0
  4  3  2  0
  5  4  1  0
  6  5  2  0
  7  6  1  0
  8  7  2  0
  8  3  1  0
  9  1  1  0
 10  9  2  0
 12 11  1  0
 12  9  1  0
  4 13  1  0
  5 14  1  0
  6 15  1  0
  7 16  1  0
  8 17  1  0
 11 18  1  0
 11 19  1  0
 11 20  1  0
 12 21  1  0
 12 22  1  0
M  END
>  <score>  (8) 
-6.776

$$$$
=
     RDKit          3D

 22 22  0  0  0  0  0  0  0  0999 V2000
    1.3290   68.0220   65.5420 C   0  0  0  0  0  0  0  0  0  0  0  0
    0.8720   67.7320   64.4410 O   0  0  0  0  0  0  0  0  0  0  0  0
    2.6710   68.6460   65.6850 C   0  0  0  0  0  0  0  0  0  0  0  0
    3.0000   69.2280   66.9180 C   0  0  0  0  0  0  0  0  0  0  0  0
    4.2400   69.8430   67.1020 C   0  0  0  0  0  0  0  0  0  0  0  0
    5.1570   69.8830   66.0560 C   0  0  0  0  0  0  0  0  0  0  0  0
    4.8370   69.3120   64.8250 C   0  0  0  0  0  0  0  0  0  0  0  0
    3.5960   68.6960   64.6370 C   0  0  0  0  0  0  0  0  0  0  0  0
    0.4940   67.6780   66.7600 C   0  0  0  0  0  0  0  0  0  0  0  0
    0.8820   66.8180   67.5400 O   0  0  0  0  0  0  0  0  0  0  0  0
   -1.9670   67.5940   67.2630 C   0  0  0  0  0  0  0  0  0  0  0  0
   -0.7810   68.4750   66.9130 C   0  0  0  0  0  0  0  0  0  0  0  0
    2.2761   69.1998   67.7458 H   0  0  0  0  0  0  0  0  0  0  0  0
    4.4917   70.2953   68.0726 H   0  0  0  0  0  0  0  0  0  0  0  0
    6.1349   70.3654   66.2005 H   0  0  0  0  0  0  0  0  0  0  0  0
    5.5630   69.3462   63.9993 H   0  0  0  0  0  0  0  0  0  0  0  0
    3.3466   68.2498   63.6630 H   0  0  0  0  0  0  0  0  0  0  0  0
   -2.0615   67.5238   68.3567 H   0  0  0  0  0  0  0  0  0  0  0  0
   -2.8849   68.0309   66.8429 H   0  0  0  0  0  0  0  0  0  0  0  0
   -1.8138   66.5890   66.8429 H   0  0  0  0  0  0  0  0  0  0  0  0
   -0.9913   68.9930   65.9656 H   0  0  0  0  0  0  0  0  0  0  0  0
   -0.6363   69.1907   67.7357 H   0  0  0  0  0  0  0  0  0  0  0  0
  2  1  2  0
  3  1  1  0
  4  3  2  0
  5  4  1  0
  6  5  2  0
  7  6  1  0
  8  7  2  0
  8  3  1  0
  9  1  1  0
 10  9  2  0
 12 11  1  0
 12  9  1  0
  4 13  1  0
  5 14  1  0
  6 15  1  0
  7 16  1  0
  8 17  1  0
 11 18  1  0
 11 19  1  0
 11 20  1  0
 12 21  1  0
 12 22  1  0
M  END
>  <score>  (9) 
-6.677

$$$$
