=
     RDKit          3D

 74 78  0  0  0  0  0  0  0  0999 V2000
   -0.4360   63.2790   71.2600 O   0  0  0  0  0  0  0  0  0  0  0  0
    0.5730   63.9640   71.0980 C   0  0  0  0  0  0  0  0  0  0  0  0
    0.5540   65.1120   70.3090 N   0  0  0  0  0  0  0  0  0  0  0  0
   -0.6870   65.3620   69.5520 C   0  0  0  0  0  0  0  0  0  0  0  0
   -0.9110   66.8410   69.1950 C   0  0  0  0  0  0  0  0  0  0  0  0
    0.3270   67.4490   68.5740 N   0  0  0  0  0  4  0  0  0  0  0  0
    1.5390   67.2600   69.4530 C   0  0  0  0  0  0  0  0  0  0  0  0
    1.7630   65.7740   69.7930 C   0  0  0  0  0  0  0  0  0  0  0  0
    0.5220   67.1240   67.0950 C   0  0  0  0  0  0  0  0  0  0  0  0
    1.9710   67.5000   66.7120 C   0  0  0  0  0  0  0  0  0  0  0  0
    2.0050   68.9680   66.4610 N   0  0  0  0  0  0  0  0  0  0  0  0
    3.3350   69.3530   66.0420 C   0  0  0  0  0  0  0  0  0  0  0  0
    3.7120   69.1270   64.7030 C   0  0  0  0  0  0  0  0  0  0  0  0
    2.7470   68.5780   63.6840 C   0  0  0  0  0  0  0  0  0  0  0  0
    3.1940   68.7620   62.2350 C   0  0  0  0  0  0  0  0  0  0  0  0
    4.6490   68.3480   62.0770 C   0  0  0  0  0  0  0  0  0  0  0  0
    5.5370   69.2390   62.9370 C   0  0  0  0  0  0  0  0  0  0  0  0
    5.0340   69.3990   64.3490 C   0  0  0  0  0  0  0  0  0  0  0  0
    5.9420   69.8780   65.2260 N   0  0  0  0  0  0  0  0  0  0  0  0
    5.5860   70.1120   66.4930 C   0  0  0  0  0  0  0  0  0  0  0  0
    4.2850   69.8680   66.9780 C   0  0  0  0  0  0  0  0  0  0  0  0
    4.0210   70.1550   68.3460 C   0  0  0  0  0  0  0  0  0  0  0  0
    5.0110   70.6560   69.1920 C   0  0  0  0  0  0  0  0  0  0  0  0
    6.2830   70.8840   68.6930 C   0  0  0  0  0  0  0  0  0  0  0  0
    6.5550   70.6100   67.3530 C   0  0  0  0  0  0  0  0  0  0  0  0
    1.8680   63.5760   71.7900 C   0  0  0  0  0  0  0  0  0  0  0  0
    1.6450   62.2710   72.5620 C   0  0  0  0  0  0  0  0  0  0  0  0
    2.5030   61.1260   72.0300 N   0  0  0  0  0  4  0  0  0  0  0  0
    2.8990   61.3030   70.5720 C   0  0  0  0  0  0  0  0  0  0  0  0
    4.1350   60.4820   70.2520 C   0  0  0  0  0  0  0  0  0  0  0  0
    5.3420   60.9540   71.0620 C   0  0  0  0  0  0  0  0  0  0  0  0
    4.9490   61.5100   72.4290 C   0  0  0  0  0  0  0  0  0  0  0  0
    3.6910   60.8460   72.9570 C   0  0  0  0  0  0  0  0  0  0  0  0
   -0.6458   64.7825   68.6179 H   0  0  0  0  0  0  0  0  0  0  0  0
   -1.5230   65.0594   70.1997 H   0  0  0  0  0  0  0  0  0  0  0  0
   -1.7439   66.9151   68.4803 H   0  0  0  0  0  0  0  0  0  0  0  0
   -1.1420   67.3906   70.1194 H   0  0  0  0  0  0  0  0  0  0  0  0
    0.1724   68.4668   68.5405 H   0  0  0  0  0  0  0  0  0  0  0  0
    2.4255   67.6440   68.9271 H   0  0  0  0  0  0  0  0  0  0  0  0
    1.3733   67.8080   70.3923 H   0  0  0  0  0  0  0  0  0  0  0  0
    2.5529   65.7044   70.5554 H   0  0  0  0  0  0  0  0  0  0  0  0
    2.0448   65.2627   68.8607 H   0  0  0  0  0  0  0  0  0  0  0  0
    0.3570   66.0500   66.9236 H   0  0  0  0  0  0  0  0  0  0  0  0
   -0.1950   67.6890   66.4812 H   0  0  0  0  0  0  0  0  0  0  0  0
    2.6547   67.2444   67.5350 H   0  0  0  0  0  0  0  0  0  0  0  0
    2.2889   66.9477   65.8154 H   0  0  0  0  0  0  0  0  0  0  0  0
    1.2060   69.6090   66.5690 H   0  0  0  0  0  0  0  0  0  0  0  0
    2.6220   67.5015   63.8723 H   0  0  0  0  0  0  0  0  0  0  0  0
    1.8101   69.1427   63.7997 H   0  0  0  0  0  0  0  0  0  0  0  0
    2.5663   68.1405   61.5795 H   0  0  0  0  0  0  0  0  0  0  0  0
    3.0907   69.8219   61.9596 H   0  0  0  0  0  0  0  0  0  0  0  0
    4.7669   67.3011   62.3933 H   0  0  0  0  0  0  0  0  0  0  0  0
    4.9433   68.4527   61.0223 H   0  0  0  0  0  0  0  0  0  0  0  0
    6.5438   68.7974   62.9732 H   0  0  0  0  0  0  0  0  0  0  0  0
    5.5383   70.2382   62.4769 H   0  0  0  0  0  0  0  0  0  0  0  0
    3.0120   69.9777   68.7466 H   0  0  0  0  0  0  0  0  0  0  0  0
    4.7832   70.8683   70.2470 H   0  0  0  0  0  0  0  0  0  0  0  0
    7.0729   71.2784   69.3491 H   0  0  0  0  0  0  0  0  0  0  0  0
    7.5680   70.7941   66.9659 H   0  0  0  0  0  0  0  0  0  0  0  0
    2.6589   63.4308   71.0394 H   0  0  0  0  0  0  0  0  0  0  0  0
    2.1736   64.3728   72.4841 H   0  0  0  0  0  0  0  0  0  0  0  0
    1.8964   62.4389   73.6196 H   0  0  0  0  0  0  0  0  0  0  0  0
    0.5901   61.9847   72.4389 H   0  0  0  0  0  0  0  0  0  0  0  0
    1.9167   60.2792   72.0364 H   0  0  0  0  0  0  0  0  0  0  0  0
    2.0694   60.9734   69.9292 H   0  0  0  0  0  0  0  0  0  0  0  0
    3.1212   62.3650   70.3907 H   0  0  0  0  0  0  0  0  0  0  0  0
    3.9351   59.4266   70.4892 H   0  0  0  0  0  0  0  0  0  0  0  0
    4.3654   60.6046   69.1834 H   0  0  0  0  0  0  0  0  0  0  0  0
    6.0221   60.1022   71.2101 H   0  0  0  0  0  0  0  0  0  0  0  0
    5.8258   61.7653   70.4982 H   0  0  0  0  0  0  0  0  0  0  0  0
    5.7716   61.3323   73.1374 H   0  0  0  0  0  0  0  0  0  0  0  0
    4.7522   62.5868   72.3207 H   0  0  0  0  0  0  0  0  0  0  0  0
    3.8539   59.7598   73.0178 H   0  0  0  0  0  0  0  0  0  0  0  0
    3.4666   61.2537   73.9537 H   0  0  0  0  0  0  0  0  0  0  0  0
  2  1  2  0
  3  2  1  0
  4  3  1  0
  5  4  1  0
  6  5  1  0
  7  6  1  0
  8  3  1  0
  8  7  1  0
  9  6  1  0
 10  9  1  0
 11 10  1  0
 12 11  1  0
 13 12  1  0
 14 13  1  0
 15 14  1  0
 16 15  1  0
 17 16  1  0
 18 13  2  0
 18 17  1  0
 19 18  1  0
 20 19  2  0
 21 12  2  0
 21 20  1  0
 22 21  1  0
 23 22  2  0
 24 23  1  0
 25 20  1  0
 25 24  2  0
 26  2  1  0
 27 26  1  0
 28 27  1  0
 29 28  1  0
 30 29  1  0
 31 30  1  0
 32 31  1  0
 33 32  1  0
 33 28  1  0
  4 34  1  0
  4 35  1  0
  5 36  1  0
  5 37  1  0
  6 38  1  0
  7 39  1  0
  7 40  1  0
  8 41  1  0
  8 42  1  0
  9 43  1  0
  9 44  1  0
 10 45  1  0
 10 46  1  0
 11 47  1  0
 14 48  1  0
 14 49  1  0
 15 50  1  0
 15 51  1  0
 16 52  1  0
 16 53  1  0
 17 54  1  0
 17 55  1  0
 22 56  1  0
 23 57  1  0
 24 58  1  0
 25 59  1  0
 26 60  1  0
 26 61  1  0
 27 62  1  0
 27 63  1  0
 28 64  1  0
 29 65  1  0
 29 66  1  0
 30 67  1  0
 30 68  1  0
 31 69  1  0
 31 70  1  0
 32 71  1  0
 32 72  1  0
 33 73  1  0
 33 74  1  0
M  CHG  2   6   1  28   1
M  END
>  <score>  (1) 
-10.567

$$$$
=
     RDKit          3D

 74 78  0  0  0  0  0  0  0  0999 V2000
    0.3980   62.8100   71.0430 O   0  0  0  0  0  0  0  0  0  0  0  0
    1.2590   63.6780   70.9060 C   0  0  0  0  0  0  0  0  0  0  0  0
    0.9740   64.8950   70.2900 N   0  0  0  0  0  0  0  0  0  0  0  0
   -0.3590   65.0140   69.6680 C   0  0  0  0  0  0  0  0  0  0  0  0
   -0.8580   66.4620   69.5400 C   0  0  0  0  0  0  0  0  0  0  0  0
    0.1960   67.3550   68.9220 N   0  0  0  0  0  4  0  0  0  0  0  0
    1.5010   67.2750   69.6750 C   0  0  0  0  0  0  0  0  0  0  0  0
    2.0010   65.8210   69.7850 C   0  0  0  0  0  0  0  0  0  0  0  0
    0.2990   67.2590   67.4020 C   0  0  0  0  0  0  0  0  0  0  0  0
    1.7650   67.5430   67.0060 C   0  0  0  0  0  0  0  0  0  0  0  0
    1.8430   68.9590   66.5510 N   0  0  0  0  0  0  0  0  0  0  0  0
    3.1720   69.2290   66.0450 C   0  0  0  0  0  0  0  0  0  0  0  0
    4.1140   69.8240   66.9090 C   0  0  0  0  0  0  0  0  0  0  0  0
    3.8030   70.1050   68.3560 C   0  0  0  0  0  0  0  0  0  0  0  0
    5.0340   70.3810   69.2190 C   0  0  0  0  0  0  0  0  0  0  0  0
    5.9540   71.3700   68.5220 C   0  0  0  0  0  0  0  0  0  0  0  0
    6.4500   70.7790   67.2080 C   0  0  0  0  0  0  0  0  0  0  0  0
    5.3500   70.1790   66.3690 C   0  0  0  0  0  0  0  0  0  0  0  0
    5.6740   69.9630   65.0760 N   0  0  0  0  0  0  0  0  0  0  0  0
    4.7910   69.3830   64.2560 C   0  0  0  0  0  0  0  0  0  0  0  0
    3.5050   68.9860   64.6760 C   0  0  0  0  0  0  0  0  0  0  0  0
    2.6510   68.3790   63.7160 C   0  0  0  0  0  0  0  0  0  0  0  0
    3.0580   68.1800   62.3960 C   0  0  0  0  0  0  0  0  0  0  0  0
    4.3260   68.5820   62.0060 C   0  0  0  0  0  0  0  0  0  0  0  0
    5.1750   69.1770   62.9390 C   0  0  0  0  0  0  0  0  0  0  0  0
    2.6620   63.4420   71.4400 C   0  0  0  0  0  0  0  0  0  0  0  0
    3.4360   62.5840   70.4340 C   0  0  0  0  0  0  0  0  0  0  0  0
    4.0780   61.3610   71.0850 N   0  0  0  0  0  4  0  0  0  0  0  0
    3.2270   60.7570   72.1910 C   0  0  0  0  0  0  0  0  0  0  0  0
    3.6090   59.3060   72.4260 C   0  0  0  0  0  0  0  0  0  0  0  0
    3.3360   58.4520   71.1890 C   0  0  0  0  0  0  0  0  0  0  0  0
    3.4970   59.2350   69.8880 C   0  0  0  0  0  0  0  0  0  0  0  0
    4.5250   60.3430   70.0310 C   0  0  0  0  0  0  0  0  0  0  0  0
   -0.3123   64.5732   68.6613 H   0  0  0  0  0  0  0  0  0  0  0  0
   -1.0670   64.4887   70.3258 H   0  0  0  0  0  0  0  0  0  0  0  0
   -1.7565   66.4765   68.9056 H   0  0  0  0  0  0  0  0  0  0  0  0
   -1.0862   66.8406   70.5473 H   0  0  0  0  0  0  0  0  0  0  0  0
   -0.1282   68.3251   69.0433 H   0  0  0  0  0  0  0  0  0  0  0  0
    2.2566   67.8738   69.1454 H   0  0  0  0  0  0  0  0  0  0  0  0
    1.3373   67.6617   70.6917 H   0  0  0  0  0  0  0  0  0  0  0  0
    2.8614   65.7973   70.4700 H   0  0  0  0  0  0  0  0  0  0  0  0
    2.2727   65.4895   68.7719 H   0  0  0  0  0  0  0  0  0  0  0  0
    0.0113   66.2502   67.0710 H   0  0  0  0  0  0  0  0  0  0  0  0
   -0.3742   67.9870   66.9258 H   0  0  0  0  0  0  0  0  0  0  0  0
    2.4239   67.3911   67.8736 H   0  0  0  0  0  0  0  0  0  0  0  0
    2.0874   66.8617   66.2048 H   0  0  0  0  0  0  0  0  0  0  0  0
    1.0714   69.6401   66.5903 H   0  0  0  0  0  0  0  0  0  0  0  0
    3.1445   70.9849   68.4028 H   0  0  0  0  0  0  0  0  0  0  0  0
    3.3307   69.1974   68.7599 H   0  0  0  0  0  0  0  0  0  0  0  0
    4.7142   70.8006   70.1842 H   0  0  0  0  0  0  0  0  0  0  0  0
    5.5774   69.4383   69.3803 H   0  0  0  0  0  0  0  0  0  0  0  0
    5.4029   72.3000   68.3187 H   0  0  0  0  0  0  0  0  0  0  0  0
    6.8157   71.5831   69.1716 H   0  0  0  0  0  0  0  0  0  0  0  0
    6.9354   71.5775   66.6276 H   0  0  0  0  0  0  0  0  0  0  0  0
    7.1470   69.9661   67.4598 H   0  0  0  0  0  0  0  0  0  0  0  0
    1.6440   68.0580   64.0209 H   0  0  0  0  0  0  0  0  0  0  0  0
    2.3783   67.7081   61.6712 H   0  0  0  0  0  0  0  0  0  0  0  0
    4.6601   68.4329   60.9686 H   0  0  0  0  0  0  0  0  0  0  0  0
    6.1796   69.4925   62.6208 H   0  0  0  0  0  0  0  0  0  0  0  0
    3.1736   64.4065   71.5739 H   0  0  0  0  0  0  0  0  0  0  0  0
    2.6105   62.9254   72.4098 H   0  0  0  0  0  0  0  0  0  0  0  0
    2.7416   62.2441   69.6515 H   0  0  0  0  0  0  0  0  0  0  0  0
    4.2428   63.2036   70.0153 H   0  0  0  0  0  0  0  0  0  0  0  0
    4.9305   61.6840   71.5643 H   0  0  0  0  0  0  0  0  0  0  0  0
    3.3824   61.3268   73.1190 H   0  0  0  0  0  0  0  0  0  0  0  0
    2.1699   60.8016   71.8902 H   0  0  0  0  0  0  0  0  0  0  0  0
    4.6805   59.2525   72.6688 H   0  0  0  0  0  0  0  0  0  0  0  0
    3.0015   58.9175   73.2567 H   0  0  0  0  0  0  0  0  0  0  0  0
    4.0407   57.6074   71.1814 H   0  0  0  0  0  0  0  0  0  0  0  0
    2.2923   58.1090   71.2445 H   0  0  0  0  0  0  0  0  0  0  0  0
    3.8213   58.5464   69.0938 H   0  0  0  0  0  0  0  0  0  0  0  0
    2.5284   59.6921   69.6373 H   0  0  0  0  0  0  0  0  0  0  0  0
    5.4874   59.9060   70.3358 H   0  0  0  0  0  0  0  0  0  0  0  0
    4.6294   60.8567   69.0639 H   0  0  0  0  0  0  0  0  0  0  0  0
  2  1  2  0
  3  2  1  0
  4  3  1  0
  5  4  1  0
  6  5  1  0
  7  6  1  0
  8  3  1  0
  8  7  1  0
  9  6  1  0
 10  9  1  0
 11 10  1  0
 12 11  1  0
 13 12  1  0
 14 13  1  0
 15 14  1  0
 16 15  1  0
 17 16  1  0
 18 13  2  0
 18 17  1  0
 19 18  1  0
 20 19  2  0
 21 12  2  0
 21 20  1  0
 22 21  1  0
 23 22  2  0
 24 23  1  0
 25 20  1  0
 25 24  2  0
 26  2  1  0
 27 26  1  0
 28 27  1  0
 29 28  1  0
 30 29  1  0
 31 30  1  0
 32 31  1  0
 33 32  1  0
 33 28  1  0
  4 34  1  0
  4 35  1  0
  5 36  1  0
  5 37  1  0
  6 38  1  0
  7 39  1  0
  7 40  1  0
  8 41  1  0
  8 42  1  0
  9 43  1  0
  9 44  1  0
 10 45  1  0
 10 46  1  0
 11 47  1  0
 14 48  1  0
 14 49  1  0
 15 50  1  0
 15 51  1  0
 16 52  1  0
 16 53  1  0
 17 54  1  0
 17 55  1  0
 22 56  1  0
 23 57  1  0
 24 58  1  0
 25 59  1  0
 26 60  1  0
 26 61  1  0
 27 62  1  0
 27 63  1  0
 28 64  1  0
 29 65  1  0
 29 66  1  0
 30 67  1  0
 30 68  1  0
 31 69  1  0
 31 70  1  0
 32 71  1  0
 32 72  1  0
 33 73  1  0
 33 74  1  0
M  CHG  2   6   1  28   1
M  END
>  <score>  (2) 
-9.93

$$$$
=
     RDKit          3D

 74 78  0  0  0  0  0  0  0  0999 V2000
    3.4140   62.3130   72.8190 O   0  0  0  0  0  0  0  0  0  0  0  0
    2.2740   62.7750   72.8130 C   0  0  0  0  0  0  0  0  0  0  0  0
    1.8300   63.6050   71.7850 N   0  0  0  0  0  0  0  0  0  0  0  0
    2.8470   64.0290   70.8050 C   0  0  0  0  0  0  0  0  0  0  0  0
    2.2680   64.4100   69.4330 C   0  0  0  0  0  0  0  0  0  0  0  0
    1.1060   65.3690   69.5750 N   0  0  0  0  0  4  0  0  0  0  0  0
    0.0470   64.8240   70.5000 C   0  0  0  0  0  0  0  0  0  0  0  0
    0.6340   64.4590   71.8770 C   0  0  0  0  0  0  0  0  0  0  0  0
    1.5070   66.8240   69.8070 C   0  0  0  0  0  0  0  0  0  0  0  0
    1.1720   67.6200   68.5250 C   0  0  0  0  0  0  0  0  0  0  0  0
    1.6690   69.0120   68.7160 N   0  0  0  0  0  0  0  0  0  0  0  0
    2.6530   69.3140   67.6990 C   0  0  0  0  0  0  0  0  0  0  0  0
    2.3700   68.9680   66.3630 C   0  0  0  0  0  0  0  0  0  0  0  0
    1.0460   68.3730   65.9560 C   0  0  0  0  0  0  0  0  0  0  0  0
    0.7720   68.4240   64.4540 C   0  0  0  0  0  0  0  0  0  0  0  0
    1.9910   67.9470   63.6800 C   0  0  0  0  0  0  0  0  0  0  0  0
    3.1710   68.8720   63.9530 C   0  0  0  0  0  0  0  0  0  0  0  0
    3.3760   69.1640   65.4170 C   0  0  0  0  0  0  0  0  0  0  0  0
    4.5850   69.6790   65.7310 N   0  0  0  0  0  0  0  0  0  0  0  0
    4.8540   70.0260   66.9940 C   0  0  0  0  0  0  0  0  0  0  0  0
    3.9250   69.8690   68.0430 C   0  0  0  0  0  0  0  0  0  0  0  0
    4.3220   70.2740   69.3480 C   0  0  0  0  0  0  0  0  0  0  0  0
    5.5870   70.8050   69.5950 C   0  0  0  0  0  0  0  0  0  0  0  0
    6.4840   70.9470   68.5480 C   0  0  0  0  0  0  0  0  0  0  0  0
    6.1070   70.5570   67.2630 C   0  0  0  0  0  0  0  0  0  0  0  0
    1.3090   62.4190   73.9310 C   0  0  0  0  0  0  0  0  0  0  0  0
    1.5980   60.9870   74.3950 C   0  0  0  0  0  0  0  0  0  0  0  0
    1.3640   59.9590   73.2910 N   0  0  0  0  0  4  0  0  0  0  0  0
    2.5320   59.0030   73.1080 C   0  0  0  0  0  0  0  0  0  0  0  0
    2.0740   57.7250   72.4280 C   0  0  0  0  0  0  0  0  0  0  0  0
    1.0610   56.9700   73.2870 C   0  0  0  0  0  0  0  0  0  0  0  0
    0.2040   57.9040   74.1390 C   0  0  0  0  0  0  0  0  0  0  0  0
    0.0160   59.2520   73.4680 C   0  0  0  0  0  0  0  0  0  0  0  0
    3.3774   64.9026   71.2120 H   0  0  0  0  0  0  0  0  0  0  0  0
    3.5131   63.1687   70.6431 H   0  0  0  0  0  0  0  0  0  0  0  0
    3.0555   64.8875   68.8316 H   0  0  0  0  0  0  0  0  0  0  0  0
    1.9055   63.4947   68.9423 H   0  0  0  0  0  0  0  0  0  0  0  0
    0.6544   65.4271   68.6511 H   0  0  0  0  0  0  0  0  0  0  0  0
   -0.7356   65.5851   70.6353 H   0  0  0  0  0  0  0  0  0  0  0  0
   -0.3688   63.9110   70.0489 H   0  0  0  0  0  0  0  0  0  0  0  0
   -0.1344   63.9248   72.4551 H   0  0  0  0  0  0  0  0  0  0  0  0
    0.9367   65.3974   72.3647 H   0  0  0  0  0  0  0  0  0  0  0  0
    0.9459   67.2349   70.6592 H   0  0  0  0  0  0  0  0  0  0  0  0
    2.5816   66.8939   70.0313 H   0  0  0  0  0  0  0  0  0  0  0  0
    1.6683   67.1603   67.6576 H   0  0  0  0  0  0  0  0  0  0  0  0
    0.0873   67.6188   68.3419 H   0  0  0  0  0  0  0  0  0  0  0  0
    1.3603   69.6581   69.4563 H   0  0  0  0  0  0  0  0  0  0  0  0
    1.0284   67.3202   66.2743 H   0  0  0  0  0  0  0  0  0  0  0  0
    0.2653   68.9778   66.4405 H   0  0  0  0  0  0  0  0  0  0  0  0
   -0.0843   67.7748   64.2189 H   0  0  0  0  0  0  0  0  0  0  0  0
    0.5478   69.4616   64.1656 H   0  0  0  0  0  0  0  0  0  0  0  0
    2.2474   66.9251   63.9963 H   0  0  0  0  0  0  0  0  0  0  0  0
    1.7640   67.9562   62.6037 H   0  0  0  0  0  0  0  0  0  0  0  0
    4.0832   68.3987   63.5608 H   0  0  0  0  0  0  0  0  0  0  0  0
    2.9540   69.8301   63.4580 H   0  0  0  0  0  0  0  0  0  0  0  0
    3.6134   70.1654   70.1823 H   0  0  0  0  0  0  0  0  0  0  0  0
    5.8712   71.1090   70.6132 H   0  0  0  0  0  0  0  0  0  0  0  0
    7.4856   71.3641   68.7291 H   0  0  0  0  0  0  0  0  0  0  0  0
    6.8250   70.6740   66.4379 H   0  0  0  0  0  0  0  0  0  0  0  0
    1.4447   63.1147   74.7721 H   0  0  0  0  0  0  0  0  0  0  0  0
    0.2731   62.4927   73.5685 H   0  0  0  0  0  0  0  0  0  0  0  0
    2.6476   60.9255   74.7182 H   0  0  0  0  0  0  0  0  0  0  0  0
    0.9079   60.7561   75.2199 H   0  0  0  0  0  0  0  0  0  0  0  0
    1.3122   60.4752   72.4012 H   0  0  0  0  0  0  0  0  0  0  0  0
    3.3015   59.4866   72.4884 H   0  0  0  0  0  0  0  0  0  0  0  0
    2.9430   58.7513   74.0968 H   0  0  0  0  0  0  0  0  0  0  0  0
    1.6077   57.9792   71.4647 H   0  0  0  0  0  0  0  0  0  0  0  0
    2.9513   57.0786   72.2779 H   0  0  0  0  0  0  0  0  0  0  0  0
    0.4002   56.3905   72.6255 H   0  0  0  0  0  0  0  0  0  0  0  0
    1.6237   56.3170   73.9703 H   0  0  0  0  0  0  0  0  0  0  0  0
   -0.7819   57.4417   74.2951 H   0  0  0  0  0  0  0  0  0  0  0  0
    0.7173   58.0644   75.0986 H   0  0  0  0  0  0  0  0  0  0  0  0
   -0.4465   59.1032   72.4811 H   0  0  0  0  0  0  0  0  0  0  0  0
   -0.6314   59.8762   74.1014 H   0  0  0  0  0  0  0  0  0  0  0  0
  2  1  2  0
  3  2  1  0
  4  3  1  0
  5  4  1  0
  6  5  1  0
  7  6  1  0
  8  3  1  0
  8  7  1  0
  9  6  1  0
 10  9  1  0
 11 10  1  0
 12 11  1  0
 13 12  1  0
 14 13  1  0
 15 14  1  0
 16 15  1  0
 17 16  1  0
 18 13  2  0
 18 17  1  0
 19 18  1  0
 20 19  2  0
 21 12  2  0
 21 20  1  0
 22 21  1  0
 23 22  2  0
 24 23  1  0
 25 20  1  0
 25 24  2  0
 26  2  1  0
 27 26  1  0
 28 27  1  0
 29 28  1  0
 30 29  1  0
 31 30  1  0
 32 31  1  0
 33 32  1  0
 33 28  1  0
  4 34  1  0
  4 35  1  0
  5 36  1  0
  5 37  1  0
  6 38  1  0
  7 39  1  0
  7 40  1  0
  8 41  1  0
  8 42  1  0
  9 43  1  0
  9 44  1  0
 10 45  1  0
 10 46  1  0
 11 47  1  0
 14 48  1  0
 14 49  1  0
 15 50  1  0
 15 51  1  0
 16 52  1  0
 16 53  1  0
 17 54  1  0
 17 55  1  0
 22 56  1  0
 23 57  1  0
 24 58  1  0
 25 59  1  0
 26 60  1  0
 26 61  1  0
 27 62  1  0
 27 63  1  0
 28 64  1  0
 29 65  1  0
 29 66  1  0
 30 67  1  0
 30 68  1  0
 31 69  1  0
 31 70  1  0
 32 71  1  0
 32 72  1  0
 33 73  1  0
 33 74  1  0
M  CHG  2   6   1  28   1
M  END
>  <score>  (3) 
-9.84

$$$$
=
     RDKit          3D

 74 78  0  0  0  0  0  0  0  0999 V2000
    2.8780   62.6540   72.6330 O   0  0  0  0  0  0  0  0  0  0  0  0
    1.8080   63.2600   72.6300 C   0  0  0  0  0  0  0  0  0  0  0  0
    1.4590   64.1150   71.5870 N   0  0  0  0  0  0  0  0  0  0  0  0
    2.5070   64.3790   70.5820 C   0  0  0  0  0  0  0  0  0  0  0  0
    1.9600   64.7990   69.2080 C   0  0  0  0  0  0  0  0  0  0  0  0
    0.9340   65.9040   69.3390 N   0  0  0  0  0  4  0  0  0  0  0  0
   -0.1710   65.5240   70.2930 C   0  0  0  0  0  0  0  0  0  0  0  0
    0.3860   65.1190   71.6720 C   0  0  0  0  0  0  0  0  0  0  0  0
    1.5250   67.2990   69.5280 C   0  0  0  0  0  0  0  0  0  0  0  0
    1.1740   68.1380   68.2780 C   0  0  0  0  0  0  0  0  0  0  0  0
    1.8890   69.4390   68.3930 N   0  0  0  0  0  0  0  0  0  0  0  0
    2.9790   69.4750   67.4410 C   0  0  0  0  0  0  0  0  0  0  0  0
    4.2250   69.9820   67.8610 C   0  0  0  0  0  0  0  0  0  0  0  0
    4.4740   70.4060   69.2860 C   0  0  0  0  0  0  0  0  0  0  0  0
    5.9520   70.5550   69.6450 C   0  0  0  0  0  0  0  0  0  0  0  0
    6.6770   71.3480   68.5690 C   0  0  0  0  0  0  0  0  0  0  0  0
    6.6110   70.6000   67.2430 C   0  0  0  0  0  0  0  0  0  0  0  0
    5.2270   70.1130   66.8990 C   0  0  0  0  0  0  0  0  0  0  0  0
    5.0510   69.7620   65.6070 N   0  0  0  0  0  0  0  0  0  0  0  0
    3.8770   69.2640   65.2060 C   0  0  0  0  0  0  0  0  0  0  0  0
    2.7820   69.0910   66.0770 C   0  0  0  0  0  0  0  0  0  0  0  0
    1.5820   68.5510   65.5390 C   0  0  0  0  0  0  0  0  0  0  0  0
    1.4770   68.2040   64.1910 C   0  0  0  0  0  0  0  0  0  0  0  0
    2.5650   68.3860   63.3530 C   0  0  0  0  0  0  0  0  0  0  0  0
    3.7490   68.9120   63.8690 C   0  0  0  0  0  0  0  0  0  0  0  0
    0.8230   63.0600   73.7690 C   0  0  0  0  0  0  0  0  0  0  0  0
    1.1080   61.7110   74.4370 C   0  0  0  0  0  0  0  0  0  0  0  0
    1.0440   60.5480   73.4510 N   0  0  0  0  0  4  0  0  0  0  0  0
    1.9870   59.4090   73.8070 C   0  0  0  0  0  0  0  0  0  0  0  0
    1.5260   58.1130   73.1630 C   0  0  0  0  0  0  0  0  0  0  0  0
    0.1560   57.6880   73.6890 C   0  0  0  0  0  0  0  0  0  0  0  0
   -0.7230   58.8780   74.0660 C   0  0  0  0  0  0  0  0  0  0  0  0
   -0.4020   60.0960   73.2200 C   0  0  0  0  0  0  0  0  0  0  0  0
    3.1532   65.1855   70.9589 H   0  0  0  0  0  0  0  0  0  0  0  0
    3.0526   63.4354   70.4339 H   0  0  0  0  0  0  0  0  0  0  0  0
    2.7931   65.1556   68.5844 H   0  0  0  0  0  0  0  0  0  0  0  0
    1.4740   63.9268   68.7464 H   0  0  0  0  0  0  0  0  0  0  0  0
    0.4779   65.9977   68.4203 H   0  0  0  0  0  0  0  0  0  0  0  0
   -0.8457   66.3836   70.4187 H   0  0  0  0  0  0  0  0  0  0  0  0
   -0.7086   64.6617   69.8717 H   0  0  0  0  0  0  0  0  0  0  0  0
   -0.4358   64.7035   72.2737 H   0  0  0  0  0  0  0  0  0  0  0  0
    0.8157   66.0215   72.1311 H   0  0  0  0  0  0  0  0  0  0  0  0
    1.0956   67.7682   70.4255 H   0  0  0  0  0  0  0  0  0  0  0  0
    2.6160   67.2386   69.6545 H   0  0  0  0  0  0  0  0  0  0  0  0
    1.4990   67.6106   67.3690 H   0  0  0  0  0  0  0  0  0  0  0  0
    0.0877   68.2988   68.2135 H   0  0  0  0  0  0  0  0  0  0  0  0
    1.6459   70.1957   69.0481 H   0  0  0  0  0  0  0  0  0  0  0  0
    3.9798   71.3751   69.4492 H   0  0  0  0  0  0  0  0  0  0  0  0
    4.0710   69.6092   69.9284 H   0  0  0  0  0  0  0  0  0  0  0  0
    6.0409   71.0818   70.6065 H   0  0  0  0  0  0  0  0  0  0  0  0
    6.4052   69.5556   69.7207 H   0  0  0  0  0  0  0  0  0  0  0  0
    6.1995   72.3326   68.4569 H   0  0  0  0  0  0  0  0  0  0  0  0
    7.7297   71.4774   68.8607 H   0  0  0  0  0  0  0  0  0  0  0  0
    6.9516   71.2754   66.4443 H   0  0  0  0  0  0  0  0  0  0  0  0
    7.2533   69.7121   67.3386 H   0  0  0  0  0  0  0  0  0  0  0  0
    0.7157   68.4031   66.2006 H   0  0  0  0  0  0  0  0  0  0  0  0
    0.5374   67.7892   63.7971 H   0  0  0  0  0  0  0  0  0  0  0  0
    2.4955   68.1176   62.2885 H   0  0  0  0  0  0  0  0  0  0  0  0
    4.6078   69.0523   63.1962 H   0  0  0  0  0  0  0  0  0  0  0  0
    0.9397   63.8690   74.5051 H   0  0  0  0  0  0  0  0  0  0  0  0
   -0.2059   63.0746   73.3802 H   0  0  0  0  0  0  0  0  0  0  0  0
    2.1138   61.7424   74.8813 H   0  0  0  0  0  0  0  0  0  0  0  0
    0.3345   61.5454   75.2013 H   0  0  0  0  0  0  0  0  0  0  0  0
    1.3930   60.8971   72.5470 H   0  0  0  0  0  0  0  0  0  0  0  0
    2.9983   59.6513   73.4484 H   0  0  0  0  0  0  0  0  0  0  0  0
    1.9916   59.2804   74.8994 H   0  0  0  0  0  0  0  0  0  0  0  0
    1.4630   58.2566   72.0742 H   0  0  0  0  0  0  0  0  0  0  0  0
    2.2525   57.3249   73.4104 H   0  0  0  0  0  0  0  0  0  0  0  0
   -0.3556   57.1052   72.9089 H   0  0  0  0  0  0  0  0  0  0  0  0
    0.3187   57.0923   74.5993 H   0  0  0  0  0  0  0  0  0  0  0  0
   -1.7779   58.6055   73.9146 H   0  0  0  0  0  0  0  0  0  0  0  0
   -0.5310   59.1290   75.1196 H   0  0  0  0  0  0  0  0  0  0  0  0
   -0.5365   59.8439   72.1578 H   0  0  0  0  0  0  0  0  0  0  0  0
   -1.0791   60.9145   73.5058 H   0  0  0  0  0  0  0  0  0  0  0  0
  2  1  2  0
  3  2  1  0
  4  3  1  0
  5  4  1  0
  6  5  1  0
  7  6  1  0
  8  3  1  0
  8  7  1  0
  9  6  1  0
 10  9  1  0
 11 10  1  0
 12 11  1  0
 13 12  1  0
 14 13  1  0
 15 14  1  0
 16 15  1  0
 17 16  1  0
 18 13  2  0
 18 17  1  0
 19 18  1  0
 20 19  2  0
 21 12  2  0
 21 20  1  0
 22 21  1  0
 23 22  2  0
 24 23  1  0
 25 20  1  0
 25 24  2  0
 26  2  1  0
 27 26  1  0
 28 27  1  0
 29 28  1  0
 30 29  1  0
 31 30  1  0
 32 31  1  0
 33 32  1  0
 33 28  1  0
  4 34  1  0
  4 35  1  0
  5 36  1  0
  5 37  1  0
  6 38  1  0
  7 39  1  0
  7 40  1  0
  8 41  1  0
  8 42  1  0
  9 43  1  0
  9 44  1  0
 10 45  1  0
 10 46  1  0
 11 47  1  0
 14 48  1  0
 14 49  1  0
 15 50  1  0
 15 51  1  0
 16 52  1  0
 16 53  1  0
 17 54  1  0
 17 55  1  0
 22 56  1  0
 23 57  1  0
 24 58  1  0
 25 59  1  0
 26 60  1  0
 26 61  1  0
 27 62  1  0
 27 63  1  0
 28 64  1  0
 29 65  1  0
 29 66  1  0
 30 67  1  0
 30 68  1  0
 31 69  1  0
 31 70  1  0
 32 71  1  0
 32 72  1  0
 33 73  1  0
 33 74  1  0
M  CHG  2   6   1  28   1
M  END
>  <score>  (4) 
-9.738

$$$$
=
     RDKit          3D

 74 78  0  0  0  0  0  0  0  0999 V2000
    0.1780   63.7110   70.1710 O   0  0  0  0  0  0  0  0  0  0  0  0
    1.3250   64.1460   70.2680 C   0  0  0  0  0  0  0  0  0  0  0  0
    2.4230   63.2920   70.3400 N   0  0  0  0  0  0  0  0  0  0  0  0
    2.1230   61.8530   70.4640 C   0  0  0  0  0  0  0  0  0  0  0  0
    3.2500   60.9370   69.9590 C   0  0  0  0  0  0  0  0  0  0  0  0
    4.5880   61.3430   70.5380 N   0  0  0  0  0  4  0  0  0  0  0  0
    4.8870   62.7980   70.2760 C   0  0  0  0  0  0  0  0  0  0  0  0
    3.7590   63.7090   70.7980 C   0  0  0  0  0  0  0  0  0  0  0  0
    4.8370   60.8590   71.9640 C   0  0  0  0  0  0  0  0  0  0  0  0
    3.9620   59.6070   72.2010 C   0  0  0  0  0  0  0  0  0  0  0  0
    3.6310   59.5560   73.6520 N   0  0  0  0  0  0  0  0  0  0  0  0
    2.1980   59.6660   73.8210 C   0  0  0  0  0  0  0  0  0  0  0  0
    1.4280   58.4860   73.8390 C   0  0  0  0  0  0  0  0  0  0  0  0
    2.0610   57.1200   73.7730 C   0  0  0  0  0  0  0  0  0  0  0  0
    1.1340   55.9790   74.1900 C   0  0  0  0  0  0  0  0  0  0  0  0
   -0.2200   56.1280   73.5130 C   0  0  0  0  0  0  0  0  0  0  0  0
   -0.8800   57.4280   73.9570 C   0  0  0  0  0  0  0  0  0  0  0  0
    0.0400   58.6190   73.8880 C   0  0  0  0  0  0  0  0  0  0  0  0
   -0.5780   59.8190   73.9330 N   0  0  0  0  0  0  0  0  0  0  0  0
    0.1470   60.9430   73.9340 C   0  0  0  0  0  0  0  0  0  0  0  0
    1.5560   60.9430   73.8770 C   0  0  0  0  0  0  0  0  0  0  0  0
    2.2210   62.2000   73.8850 C   0  0  0  0  0  0  0  0  0  0  0  0
    1.5140   63.4010   73.9400 C   0  0  0  0  0  0  0  0  0  0  0  0
    0.1290   63.3760   73.9920 C   0  0  0  0  0  0  0  0  0  0  0  0
   -0.5360   62.1500   73.9880 C   0  0  0  0  0  0  0  0  0  0  0  0
    1.5650   65.6460   70.2810 C   0  0  0  0  0  0  0  0  0  0  0  0
    0.2460   66.3610   69.9670 C   0  0  0  0  0  0  0  0  0  0  0  0
    0.0300   66.5500   68.4680 N   0  0  0  0  0  4  0  0  0  0  0  0
   -1.4060   66.9010   68.1110 C   0  0  0  0  0  0  0  0  0  0  0  0
   -1.4670   67.5870   66.7580 C   0  0  0  0  0  0  0  0  0  0  0  0
   -0.7150   68.9170   66.7740 C   0  0  0  0  0  0  0  0  0  0  0  0
    0.4710   68.9080   67.7360 C   0  0  0  0  0  0  0  0  0  0  0  0
    1.0620   67.5170   67.8770 C   0  0  0  0  0  0  0  0  0  0  0  0
    1.9419   61.6269   71.5252 H   0  0  0  0  0  0  0  0  0  0  0  0
    1.2431   61.6544   69.8344 H   0  0  0  0  0  0  0  0  0  0  0  0
    3.0302   59.9009   70.2562 H   0  0  0  0  0  0  0  0  0  0  0  0
    3.3043   61.0239   68.8638 H   0  0  0  0  0  0  0  0  0  0  0  0
    5.3075   60.8210   70.0178 H   0  0  0  0  0  0  0  0  0  0  0  0
    5.8263   63.0666   70.7816 H   0  0  0  0  0  0  0  0  0  0  0  0
    4.9724   62.9426   69.1889 H   0  0  0  0  0  0  0  0  0  0  0  0
    3.9457   64.7344   70.4463 H   0  0  0  0  0  0  0  0  0  0  0  0
    3.7653   63.6435   71.8960 H   0  0  0  0  0  0  0  0  0  0  0  0
    5.8990   60.6022   72.0913 H   0  0  0  0  0  0  0  0  0  0  0  0
    4.5804   61.6478   72.6864 H   0  0  0  0  0  0  0  0  0  0  0  0
    3.0382   59.6775   71.6080 H   0  0  0  0  0  0  0  0  0  0  0  0
    4.4994   58.6971   71.8955 H   0  0  0  0  0  0  0  0  0  0  0  0
    4.3150   59.4578   74.4158 H   0  0  0  0  0  0  0  0  0  0  0  0
    2.3855   56.9399   72.7375 H   0  0  0  0  0  0  0  0  0  0  0  0
    2.8976   57.1246   74.4872 H   0  0  0  0  0  0  0  0  0  0  0  0
    1.5838   55.0193   73.8955 H   0  0  0  0  0  0  0  0  0  0  0  0
    0.9952   56.0098   75.2808 H   0  0  0  0  0  0  0  0  0  0  0  0
   -0.0828   56.1425   72.4217 H   0  0  0  0  0  0  0  0  0  0  0  0
   -0.8619   55.2804   73.7951 H   0  0  0  0  0  0  0  0  0  0  0  0
   -1.7469   57.6187   73.3073 H   0  0  0  0  0  0  0  0  0  0  0  0
   -1.1703   57.3020   75.0105 H   0  0  0  0  0  0  0  0  0  0  0  0
    3.3200   62.2257   73.8469 H   0  0  0  0  0  0  0  0  0  0  0  0
    2.0514   64.3608   73.9421 H   0  0  0  0  0  0  0  0  0  0  0  0
   -0.4411   64.3157   74.0361 H   0  0  0  0  0  0  0  0  0  0  0  0
   -1.6352   62.1394   74.0289 H   0  0  0  0  0  0  0  0  0  0  0  0
    1.9251   65.9540   71.2737 H   0  0  0  0  0  0  0  0  0  0  0  0
    2.3213   65.9096   69.5270 H   0  0  0  0  0  0  0  0  0  0  0  0
   -0.5846   65.7638   70.3712 H   0  0  0  0  0  0  0  0  0  0  0  0
    0.2867   67.3586   70.4287 H   0  0  0  0  0  0  0  0  0  0  0  0
    0.1903   65.6365   68.0200 H   0  0  0  0  0  0  0  0  0  0  0  0
   -2.0057   65.9795   68.0766 H   0  0  0  0  0  0  0  0  0  0  0  0
   -1.8044   67.5855   68.8743 H   0  0  0  0  0  0  0  0  0  0  0  0
   -1.0142   66.9287   66.0020 H   0  0  0  0  0  0  0  0  0  0  0  0
   -2.5216   67.7880   66.5185 H   0  0  0  0  0  0  0  0  0  0  0  0
   -0.3444   69.1247   65.7594 H   0  0  0  0  0  0  0  0  0  0  0  0
   -1.4161   69.6927   67.1158 H   0  0  0  0  0  0  0  0  0  0  0  0
    1.2461   69.5887   67.3542 H   0  0  0  0  0  0  0  0  0  0  0  0
    0.1160   69.2342   68.7247 H   0  0  0  0  0  0  0  0  0  0  0  0
    1.3719   67.1537   66.8861 H   0  0  0  0  0  0  0  0  0  0  0  0
    1.9290   67.5667   68.5522 H   0  0  0  0  0  0  0  0  0  0  0  0
  2  1  2  0
  3  2  1  0
  4  3  1  0
  5  4  1  0
  6  5  1  0
  7  6  1  0
  8  3  1  0
  8  7  1  0
  9  6  1  0
 10  9  1  0
 11 10  1  0
 12 11  1  0
 13 12  1  0
 14 13  1  0
 15 14  1  0
 16 15  1  0
 17 16  1  0
 18 13  2  0
 18 17  1  0
 19 18  1  0
 20 19  2  0
 21 12  2  0
 21 20  1  0
 22 21  1  0
 23 22  2  0
 24 23  1  0
 25 20  1  0
 25 24  2  0
 26  2  1  0
 27 26  1  0
 28 27  1  0
 29 28  1  0
 30 29  1  0
 31 30  1  0
 32 31  1  0
 33 32  1  0
 33 28  1  0
  4 34  1  0
  4 35  1  0
  5 36  1  0
  5 37  1  0
  6 38  1  0
  7 39  1  0
  7 40  1  0
  8 41  1  0
  8 42  1  0
  9 43  1  0
  9 44  1  0
 10 45  1  0
 10 46  1  0
 11 47  1  0
 14 48  1  0
 14 49  1  0
 15 50  1  0
 15 51  1  0
 16 52  1  0
 16 53  1  0
 17 54  1  0
 17 55  1  0
 22 56  1  0
 23 57  1  0
 24 58  1  0
 25 59  1  0
 26 60  1  0
 26 61  1  0
 27 62  1  0
 27 63  1  0
 28 64  1  0
 29 65  1  0
 29 66  1  0
 30 67  1  0
 30 68  1  0
 31 69  1  0
 31 70  1  0
 32 71  1  0
 32 72  1  0
 33 73  1  0
 33 74  1  0
M  CHG  2   6   1  28   1
M  END
>  <score>  (5) 
-9.606

$$$$
=
     RDKit          3D

 74 78  0  0  0  0  0  0  0  0999 V2000
    0.2020   63.7110   69.9750 O   0  0  0  0  0  0  0  0  0  0  0  0
    1.3340   64.1650   70.1280 C   0  0  0  0  0  0  0  0  0  0  0  0
    2.4490   63.3320   70.2030 N   0  0  0  0  0  0  0  0  0  0  0  0
    2.1770   61.8830   70.2560 C   0  0  0  0  0  0  0  0  0  0  0  0
    3.3400   61.0130   69.7530 C   0  0  0  0  0  0  0  0  0  0  0  0
    4.6490   61.4220   70.3920 N   0  0  0  0  0  4  0  0  0  0  0  0
    4.9240   62.8930   70.2010 C   0  0  0  0  0  0  0  0  0  0  0  0
    3.7590   63.7580   70.7220 C   0  0  0  0  0  0  0  0  0  0  0  0
    4.8610   60.8840   71.8050 C   0  0  0  0  0  0  0  0  0  0  0  0
    3.8630   59.7260   72.0280 C   0  0  0  0  0  0  0  0  0  0  0  0
    3.5270   59.6920   73.4790 N   0  0  0  0  0  0  0  0  0  0  0  0
    2.0890   59.6690   73.6390 C   0  0  0  0  0  0  0  0  0  0  0  0
    1.4150   60.8880   73.8500 C   0  0  0  0  0  0  0  0  0  0  0  0
    2.1340   62.2120   73.8290 C   0  0  0  0  0  0  0  0  0  0  0  0
    1.2140   63.4230   73.6880 C   0  0  0  0  0  0  0  0  0  0  0  0
    0.0410   63.3080   74.6500 C   0  0  0  0  0  0  0  0  0  0  0  0
   -0.7860   62.0740   74.3120 C   0  0  0  0  0  0  0  0  0  0  0  0
    0.0470   60.8320   74.1160 C   0  0  0  0  0  0  0  0  0  0  0  0
   -0.6430   59.6720   74.1600 N   0  0  0  0  0  0  0  0  0  0  0  0
   -0.0130   58.5130   73.9430 C   0  0  0  0  0  0  0  0  0  0  0  0
    1.3690   58.4340   73.6750 C   0  0  0  0  0  0  0  0  0  0  0  0
    1.9320   57.1460   73.4590 C   0  0  0  0  0  0  0  0  0  0  0  0
    1.1540   55.9900   73.5140 C   0  0  0  0  0  0  0  0  0  0  0  0
   -0.2020   56.0920   73.7830 C   0  0  0  0  0  0  0  0  0  0  0  0
   -0.7670   57.3490   73.9940 C   0  0  0  0  0  0  0  0  0  0  0  0
    1.5400   65.6680   70.2130 C   0  0  0  0  0  0  0  0  0  0  0  0
    0.2100   66.3670   69.9120 C   0  0  0  0  0  0  0  0  0  0  0  0
   -0.0190   66.5640   68.4150 N   0  0  0  0  0  4  0  0  0  0  0  0
   -1.4530   66.9350   68.0730 C   0  0  0  0  0  0  0  0  0  0  0  0
   -1.5180   67.6260   66.7230 C   0  0  0  0  0  0  0  0  0  0  0  0
   -0.7470   68.9450   66.7360 C   0  0  0  0  0  0  0  0  0  0  0  0
    0.4480   68.9170   67.6860 C   0  0  0  0  0  0  0  0  0  0  0  0
    1.0200   67.5180   67.8170 C   0  0  0  0  0  0  0  0  0  0  0  0
    1.9650   61.6082   71.2998 H   0  0  0  0  0  0  0  0  0  0  0  0
    1.3238   61.6933   69.5881 H   0  0  0  0  0  0  0  0  0  0  0  0
    3.1337   59.9612   70.0004 H   0  0  0  0  0  0  0  0  0  0  0  0
    3.4282   61.1468   68.6647 H   0  0  0  0  0  0  0  0  0  0  0  0
    5.3965   60.9379   69.8746 H   0  0  0  0  0  0  0  0  0  0  0  0
    5.8399   63.1595   70.7489 H   0  0  0  0  0  0  0  0  0  0  0  0
    5.0418   63.0851   69.1243 H   0  0  0  0  0  0  0  0  0  0  0  0
    3.9339   64.8008   70.4187 H   0  0  0  0  0  0  0  0  0  0  0  0
    3.7310   63.6475   71.8161 H   0  0  0  0  0  0  0  0  0  0  0  0
    5.8916   60.5151   71.9135 H   0  0  0  0  0  0  0  0  0  0  0  0
    4.6958   61.6797   72.5463 H   0  0  0  0  0  0  0  0  0  0  0  0
    2.9517   59.8973   71.4362 H   0  0  0  0  0  0  0  0  0  0  0  0
    4.3051   58.7696   71.7120 H   0  0  0  0  0  0  0  0  0  0  0  0
    4.2117   59.6858   74.2485 H   0  0  0  0  0  0  0  0  0  0  0  0
    2.6964   62.3139   74.7688 H   0  0  0  0  0  0  0  0  0  0  0  0
    2.7839   62.2042   72.9415 H   0  0  0  0  0  0  0  0  0  0  0  0
    1.7809   64.3381   73.9144 H   0  0  0  0  0  0  0  0  0  0  0  0
    0.8301   63.4635   72.6579 H   0  0  0  0  0  0  0  0  0  0  0  0
    0.4200   63.2227   75.6791 H   0  0  0  0  0  0  0  0  0  0  0  0
   -0.5909   64.2039   74.5602 H   0  0  0  0  0  0  0  0  0  0  0  0
   -1.4946   61.8929   75.1337 H   0  0  0  0  0  0  0  0  0  0  0  0
   -1.2980   62.2762   73.3596 H   0  0  0  0  0  0  0  0  0  0  0  0
    3.0072   57.0595   73.2433 H   0  0  0  0  0  0  0  0  0  0  0  0
    1.6129   55.0046   73.3452 H   0  0  0  0  0  0  0  0  0  0  0  0
   -0.8274   55.1883   73.8296 H   0  0  0  0  0  0  0  0  0  0  0  0
   -1.8437   57.4204   74.2075 H   0  0  0  0  0  0  0  0  0  0  0  0
    1.8790   65.9380   71.2240 H   0  0  0  0  0  0  0  0  0  0  0  0
    2.3008   65.9826   69.4835 H   0  0  0  0  0  0  0  0  0  0  0  0
   -0.6099   65.7558   70.3173 H   0  0  0  0  0  0  0  0  0  0  0  0
    0.2408   67.3619   70.3801 H   0  0  0  0  0  0  0  0  0  0  0  0
    0.1238   65.6497   67.9627 H   0  0  0  0  0  0  0  0  0  0  0  0
   -2.0652   66.0216   68.0416 H   0  0  0  0  0  0  0  0  0  0  0  0
   -1.8348   67.6224   68.8422 H   0  0  0  0  0  0  0  0  0  0  0  0
   -1.0822   66.9639   65.9603 H   0  0  0  0  0  0  0  0  0  0  0  0
   -2.5720   67.8425   66.4945 H   0  0  0  0  0  0  0  0  0  0  0  0
   -0.3834   69.1506   65.7184 H   0  0  0  0  0  0  0  0  0  0  0  0
   -1.4338   69.7290   67.0875 H   0  0  0  0  0  0  0  0  0  0  0  0
    1.2289   69.5878   67.2983 H   0  0  0  0  0  0  0  0  0  0  0  0
    0.1078   69.2457   68.6791 H   0  0  0  0  0  0  0  0  0  0  0  0
    1.3150   67.1535   66.8219 H   0  0  0  0  0  0  0  0  0  0  0  0
    1.8940   67.5534   68.4840 H   0  0  0  0  0  0  0  0  0  0  0  0
  2  1  2  0
  3  2  1  0
  4  3  1  0
  5  4  1  0
  6  5  1  0
  7  6  1  0
  8  3  1  0
  8  7  1  0
  9  6  1  0
 10  9  1  0
 11 10  1  0
 12 11  1  0
 13 12  1  0
 14 13  1  0
 15 14  1  0
 16 15  1  0
 17 16  1  0
 18 13  2  0
 18 17  1  0
 19 18  1  0
 20 19  2  0
 21 12  2  0
 21 20  1  0
 22 21  1  0
 23 22  2  0
 24 23  1  0
 25 20  1  0
 25 24  2  0
 26  2  1  0
 27 26  1  0
 28 27  1  0
 29 28  1  0
 30 29  1  0
 31 30  1  0
 32 31  1  0
 33 32  1  0
 33 28  1  0
  4 34  1  0
  4 35  1  0
  5 36  1  0
  5 37  1  0
  6 38  1  0
  7 39  1  0
  7 40  1  0
  8 41  1  0
  8 42  1  0
  9 43  1  0
  9 44  1  0
 10 45  1  0
 10 46  1  0
 11 47  1  0
 14 48  1  0
 14 49  1  0
 15 50  1  0
 15 51  1  0
 16 52  1  0
 16 53  1  0
 17 54  1  0
 17 55  1  0
 22 56  1  0
 23 57  1  0
 24 58  1  0
 25 59  1  0
 26 60  1  0
 26 61  1  0
 27 62  1  0
 27 63  1  0
 28 64  1  0
 29 65  1  0
 29 66  1  0
 30 67  1  0
 30 68  1  0
 31 69  1  0
 31 70  1  0
 32 71  1  0
 32 72  1  0
 33 73  1  0
 33 74  1  0
M  CHG  2   6   1  28   1
M  END
>  <score>  (6) 
-9.495

$$$$
=
     RDKit          3D

 74 78  0  0  0  0  0  0  0  0999 V2000
    2.7410   64.4070   69.1920 O   0  0  0  0  0  0  0  0  0  0  0  0
    2.1980   64.0750   70.2440 C   0  0  0  0  0  0  0  0  0  0  0  0
    2.7880   63.1550   71.1090 N   0  0  0  0  0  0  0  0  0  0  0  0
    4.0040   62.4820   70.6140 C   0  0  0  0  0  0  0  0  0  0  0  0
    4.9280   61.9670   71.7300 C   0  0  0  0  0  0  0  0  0  0  0  0
    4.1540   61.1710   72.7590 N   0  0  0  0  0  4  0  0  0  0  0  0
    2.9920   61.9590   73.3100 C   0  0  0  0  0  0  0  0  0  0  0  0
    2.0640   62.4590   72.1850 C   0  0  0  0  0  0  0  0  0  0  0  0
    3.8480   59.7320   72.3500 C   0  0  0  0  0  0  0  0  0  0  0  0
    2.8180   59.1620   73.3520 C   0  0  0  0  0  0  0  0  0  0  0  0
    1.8360   58.3530   72.5780 N   0  0  0  0  0  0  0  0  0  0  0  0
    0.7330   57.9840   73.4390 C   0  0  0  0  0  0  0  0  0  0  0  0
    0.6960   56.6760   73.9640 C   0  0  0  0  0  0  0  0  0  0  0  0
    1.8080   55.6880   73.7240 C   0  0  0  0  0  0  0  0  0  0  0  0
    1.7920   54.4850   74.6660 C   0  0  0  0  0  0  0  0  0  0  0  0
    0.3870   53.9100   74.7600 C   0  0  0  0  0  0  0  0  0  0  0  0
   -0.5610   54.9510   75.3440 C   0  0  0  0  0  0  0  0  0  0  0  0
   -0.4320   56.3060   74.6970 C   0  0  0  0  0  0  0  0  0  0  0  0
   -1.4620   57.1480   74.9290 N   0  0  0  0  0  0  0  0  0  0  0  0
   -1.4250   58.3950   74.4480 C   0  0  0  0  0  0  0  0  0  0  0  0
   -0.3470   58.8870   73.6840 C   0  0  0  0  0  0  0  0  0  0  0  0
   -0.4170   60.2320   73.2260 C   0  0  0  0  0  0  0  0  0  0  0  0
   -1.5130   61.0460   73.5110 C   0  0  0  0  0  0  0  0  0  0  0  0
   -2.5620   60.5380   74.2610 C   0  0  0  0  0  0  0  0  0  0  0  0
   -2.5060   59.2230   74.7190 C   0  0  0  0  0  0  0  0  0  0  0  0
    0.8680   64.6950   70.6360 C   0  0  0  0  0  0  0  0  0  0  0  0
    0.8610   66.1650   70.2020 C   0  0  0  0  0  0  0  0  0  0  0  0
    0.4490   66.3390   68.7430 N   0  0  0  0  0  4  0  0  0  0  0  0
   -1.0410   66.5880   68.5680 C   0  0  0  0  0  0  0  0  0  0  0  0
   -1.3150   67.2690   67.2380 C   0  0  0  0  0  0  0  0  0  0  0  0
   -0.6600   68.6480   67.1730 C   0  0  0  0  0  0  0  0  0  0  0  0
    0.6330   68.7210   67.9820 C   0  0  0  0  0  0  0  0  0  0  0  0
    1.3310   67.3750   68.0370 C   0  0  0  0  0  0  0  0  0  0  0  0
    3.6985   61.6259   69.9945 H   0  0  0  0  0  0  0  0  0  0  0  0
    4.5753   63.2311   70.0461 H   0  0  0  0  0  0  0  0  0  0  0  0
    5.7018   61.3232   71.2864 H   0  0  0  0  0  0  0  0  0  0  0  0
    5.3842   62.8333   72.2314 H   0  0  0  0  0  0  0  0  0  0  0  0
    4.7857   61.0254   73.5594 H   0  0  0  0  0  0  0  0  0  0  0  0
    2.4145   61.3158   73.9903 H   0  0  0  0  0  0  0  0  0  0  0  0
    3.3908   62.8347   73.8431 H   0  0  0  0  0  0  0  0  0  0  0  0
    1.3293   63.1531   72.6191 H   0  0  0  0  0  0  0  0  0  0  0  0
    1.5817   61.5764   71.7396 H   0  0  0  0  0  0  0  0  0  0  0  0
    3.4297   59.7135   71.3328 H   0  0  0  0  0  0  0  0  0  0  0  0
    4.7669   59.1273   72.3594 H   0  0  0  0  0  0  0  0  0  0  0  0
    3.3267   58.5268   74.0921 H   0  0  0  0  0  0  0  0  0  0  0  0
    2.3095   59.9767   73.8884 H   0  0  0  0  0  0  0  0  0  0  0  0
    1.9276   58.0962   71.5847 H   0  0  0  0  0  0  0  0  0  0  0  0
    1.7241   55.3185   72.6913 H   0  0  0  0  0  0  0  0  0  0  0  0
    2.7511   56.2226   73.9104 H   0  0  0  0  0  0  0  0  0  0  0  0
    2.4754   53.7135   74.2817 H   0  0  0  0  0  0  0  0  0  0  0  0
    2.1151   54.8083   75.6665 H   0  0  0  0  0  0  0  0  0  0  0  0
    0.0415   53.6248   73.7553 H   0  0  0  0  0  0  0  0  0  0  0  0
    0.4005   53.0252   75.4134 H   0  0  0  0  0  0  0  0  0  0  0  0
   -1.5937   54.5970   75.2094 H   0  0  0  0  0  0  0  0  0  0  0  0
   -0.2984   55.0710   76.4054 H   0  0  0  0  0  0  0  0  0  0  0  0
    0.4141   60.6402   72.6322 H   0  0  0  0  0  0  0  0  0  0  0  0
   -1.5446   62.0824   73.1437 H   0  0  0  0  0  0  0  0  0  0  0  0
   -3.4329   61.1686   74.4932 H   0  0  0  0  0  0  0  0  0  0  0  0
   -3.3437   58.8291   75.3133 H   0  0  0  0  0  0  0  0  0  0  0  0
    0.0483   64.1581   70.1362 H   0  0  0  0  0  0  0  0  0  0  0  0
    0.7303   64.6263   71.7252 H   0  0  0  0  0  0  0  0  0  0  0  0
    0.1530   66.7175   70.8373 H   0  0  0  0  0  0  0  0  0  0  0  0
    1.8853   66.5513   70.3095 H   0  0  0  0  0  0  0  0  0  0  0  0
    0.6157   65.4388   68.2710 H   0  0  0  0  0  0  0  0  0  0  0  0
   -1.5746   65.6266   68.5989 H   0  0  0  0  0  0  0  0  0  0  0  0
   -1.3898   67.2421   69.3807 H   0  0  0  0  0  0  0  0  0  0  0  0
   -0.9144   66.6438   66.4264 H   0  0  0  0  0  0  0  0  0  0  0  0
   -2.4024   67.3966   67.1316 H   0  0  0  0  0  0  0  0  0  0  0  0
   -0.4322   68.8809   66.1224 H   0  0  0  0  0  0  0  0  0  0  0  0
   -1.3653   69.3733   67.6048 H   0  0  0  0  0  0  0  0  0  0  0  0
    1.3065   69.4541   67.5141 H   0  0  0  0  0  0  0  0  0  0  0  0
    0.3807   69.0213   69.0097 H   0  0  0  0  0  0  0  0  0  0  0  0
    1.5399   67.0339   67.0123 H   0  0  0  0  0  0  0  0  0  0  0  0
    2.2696   67.4847   68.6000 H   0  0  0  0  0  0  0  0  0  0  0  0
  2  1  2  0
  3  2  1  0
  4  3  1  0
  5  4  1  0
  6  5  1  0
  7  6  1  0
  8  3  1  0
  8  7  1  0
  9  6  1  0
 10  9  1  0
 11 10  1  0
 12 11  1  0
 13 12  1  0
 14 13  1  0
 15 14  1  0
 16 15  1  0
 17 16  1  0
 18 13  2  0
 18 17  1  0
 19 18  1  0
 20 19  2  0
 21 12  2  0
 21 20  1  0
 22 21  1  0
 23 22  2  0
 24 23  1  0
 25 20  1  0
 25 24  2  0
 26  2  1  0
 27 26  1  0
 28 27  1  0
 29 28  1  0
 30 29  1  0
 31 30  1  0
 32 31  1  0
 33 32  1  0
 33 28  1  0
  4 34  1  0
  4 35  1  0
  5 36  1  0
  5 37  1  0
  6 38  1  0
  7 39  1  0
  7 40  1  0
  8 41  1  0
  8 42  1  0
  9 43  1  0
  9 44  1  0
 10 45  1  0
 10 46  1  0
 11 47  1  0
 14 48  1  0
 14 49  1  0
 15 50  1  0
 15 51  1  0
 16 52  1  0
 16 53  1  0
 17 54  1  0
 17 55  1  0
 22 56  1  0
 23 57  1  0
 24 58  1  0
 25 59  1  0
 26 60  1  0
 26 61  1  0
 27 62  1  0
 27 63  1  0
 28 64  1  0
 29 65  1  0
 29 66  1  0
 30 67  1  0
 30 68  1  0
 31 69  1  0
 31 70  1  0
 32 71  1  0
 32 72  1  0
 33 73  1  0
 33 74  1  0
M  CHG  2   6   1  28   1
M  END
>  <score>  (7) 
-9.286

$$$$
=
     RDKit          3D

 74 78  0  0  0  0  0  0  0  0999 V2000
   -0.7910   68.9400   67.0940 O   0  0  0  0  0  0  0  0  0  0  0  0
    0.2920   68.5940   67.5630 C   0  0  0  0  0  0  0  0  0  0  0  0
    0.4080   67.4680   68.3760 N   0  0  0  0  0  0  0  0  0  0  0  0
   -0.8560   66.8210   68.7760 C   0  0  0  0  0  0  0  0  0  0  0  0
   -0.7070   65.3330   69.1350 C   0  0  0  0  0  0  0  0  0  0  0  0
    0.4350   65.1140   70.1040 N   0  0  0  0  0  4  0  0  0  0  0  0
    1.7240   65.6990   69.5830 C   0  0  0  0  0  0  0  0  0  0  0  0
    1.5680   67.1940   69.2390 C   0  0  0  0  0  0  0  0  0  0  0  0
    0.1030   65.4310   71.5600 C   0  0  0  0  0  0  0  0  0  0  0  0
    0.2700   64.1300   72.3790 C   0  0  0  0  0  0  0  0  0  0  0  0
    0.1410   62.9840   71.4370 N   0  0  0  0  0  0  0  0  0  0  0  0
    0.8130   61.8290   71.9910 C   0  0  0  0  0  0  0  0  0  0  0  0
    2.1620   61.6050   71.6470 C   0  0  0  0  0  0  0  0  0  0  0  0
    2.9390   62.5730   70.7930 C   0  0  0  0  0  0  0  0  0  0  0  0
    4.4540   62.3780   70.8450 C   0  0  0  0  0  0  0  0  0  0  0  0
    4.8000   60.9060   70.6820 C   0  0  0  0  0  0  0  0  0  0  0  0
    4.2040   60.1030   71.8320 C   0  0  0  0  0  0  0  0  0  0  0  0
    2.7560   60.4260   72.0990 C   0  0  0  0  0  0  0  0  0  0  0  0
    2.1010   59.5180   72.8540 N   0  0  0  0  0  0  0  0  0  0  0  0
    0.8270   59.7340   73.1990 C   0  0  0  0  0  0  0  0  0  0  0  0
    0.1100   60.8800   72.7970 C   0  0  0  0  0  0  0  0  0  0  0  0
   -1.2400   61.0030   73.2240 C   0  0  0  0  0  0  0  0  0  0  0  0
   -1.8500   60.0250   74.0110 C   0  0  0  0  0  0  0  0  0  0  0  0
   -1.1270   58.9060   74.3900 C   0  0  0  0  0  0  0  0  0  0  0  0
    0.2000   58.7740   73.9810 C   0  0  0  0  0  0  0  0  0  0  0  0
    1.5460   69.3870   67.2340 C   0  0  0  0  0  0  0  0  0  0  0  0
    1.9330   69.1160   65.7760 C   0  0  0  0  0  0  0  0  0  0  0  0
    2.9250   67.9630   65.6420 N   0  0  0  0  0  4  0  0  0  0  0  0
    2.3080   66.7120   65.0350 C   0  0  0  0  0  0  0  0  0  0  0  0
    3.3840   65.8240   64.4370 C   0  0  0  0  0  0  0  0  0  0  0  0
    4.1070   66.5220   63.2860 C   0  0  0  0  0  0  0  0  0  0  0  0
    4.1780   68.0360   63.4720 C   0  0  0  0  0  0  0  0  0  0  0  0
    4.2100   68.4150   64.9410 C   0  0  0  0  0  0  0  0  0  0  0  0
   -1.2539   67.3511   69.6539 H   0  0  0  0  0  0  0  0  0  0  0  0
   -1.5309   66.8747   67.9091 H   0  0  0  0  0  0  0  0  0  0  0  0
   -1.6412   64.9801   69.5962 H   0  0  0  0  0  0  0  0  0  0  0  0
   -0.4930   64.7726   68.2130 H   0  0  0  0  0  0  0  0  0  0  0  0
    0.5962   64.0976   70.1478 H   0  0  0  0  0  0  0  0  0  0  0  0
    2.5030   65.5885   70.3517 H   0  0  0  0  0  0  0  0  0  0  0  0
    2.0008   65.1607   68.6645 H   0  0  0  0  0  0  0  0  0  0  0  0
    2.4778   67.5311   68.7207 H   0  0  0  0  0  0  0  0  0  0  0  0
    1.4095   67.7340   70.1841 H   0  0  0  0  0  0  0  0  0  0  0  0
    0.7884   66.2027   71.9403 H   0  0  0  0  0  0  0  0  0  0  0  0
   -0.9268   65.8081   71.6451 H   0  0  0  0  0  0  0  0  0  0  0  0
    1.2605   64.1126   72.8572 H   0  0  0  0  0  0  0  0  0  0  0  0
   -0.4948   64.0695   73.1673 H   0  0  0  0  0  0  0  0  0  0  0  0
   -0.3502   63.0097   70.5320 H   0  0  0  0  0  0  0  0  0  0  0  0
    2.6113   62.4527   69.7499 H   0  0  0  0  0  0  0  0  0  0  0  0
    2.7359   63.5785   71.1903 H   0  0  0  0  0  0  0  0  0  0  0  0
    4.9225   62.9535   70.0330 H   0  0  0  0  0  0  0  0  0  0  0  0
    4.8279   62.7290   71.8182 H   0  0  0  0  0  0  0  0  0  0  0  0
    4.3905   60.5383   69.7296 H   0  0  0  0  0  0  0  0  0  0  0  0
    5.8937   60.7883   70.6865 H   0  0  0  0  0  0  0  0  0  0  0  0
    4.2837   59.0332   71.5887 H   0  0  0  0  0  0  0  0  0  0  0  0
    4.7684   60.3657   72.7389 H   0  0  0  0  0  0  0  0  0  0  0  0
   -1.8181   61.8905   72.9270 H   0  0  0  0  0  0  0  0  0  0  0  0
   -2.8969   60.1420   74.3278 H   0  0  0  0  0  0  0  0  0  0  0  0
   -1.5959   58.1270   75.0091 H   0  0  0  0  0  0  0  0  0  0  0  0
    0.7665   57.8823   74.2874 H   0  0  0  0  0  0  0  0  0  0  0  0
    1.3511   70.4608   67.3714 H   0  0  0  0  0  0  0  0  0  0  0  0
    2.3662   69.0834   67.9012 H   0  0  0  0  0  0  0  0  0  0  0  0
    1.0235   68.8672   65.2094 H   0  0  0  0  0  0  0  0  0  0  0  0
    2.4170   70.0224   65.3833 H   0  0  0  0  0  0  0  0  0  0  0  0
    3.1935   67.6805   66.5954 H   0  0  0  0  0  0  0  0  0  0  0  0
    1.7737   66.1552   65.8189 H   0  0  0  0  0  0  0  0  0  0  0  0
    1.6103   67.0104   64.2386 H   0  0  0  0  0  0  0  0  0  0  0  0
    4.1156   65.5722   65.2189 H   0  0  0  0  0  0  0  0  0  0  0  0
    2.9042   64.9155   64.0441 H   0  0  0  0  0  0  0  0  0  0  0  0
    5.1313   66.1262   63.2212 H   0  0  0  0  0  0  0  0  0  0  0  0
    3.5380   66.3248   62.3655 H   0  0  0  0  0  0  0  0  0  0  0  0
    5.0895   68.4135   62.9855 H   0  0  0  0  0  0  0  0  0  0  0  0
    3.2796   68.4817   63.0201 H   0  0  0  0  0  0  0  0  0  0  0  0
    5.0732   67.9305   65.4207 H   0  0  0  0  0  0  0  0  0  0  0  0
    4.2934   69.5087   65.0236 H   0  0  0  0  0  0  0  0  0  0  0  0
  2  1  2  0
  3  2  1  0
  4  3  1  0
  5  4  1  0
  6  5  1  0
  7  6  1  0
  8  3  1  0
  8  7  1  0
  9  6  1  0
 10  9  1  0
 11 10  1  0
 12 11  1  0
 13 12  1  0
 14 13  1  0
 15 14  1  0
 16 15  1  0
 17 16  1  0
 18 13  2  0
 18 17  1  0
 19 18  1  0
 20 19  2  0
 21 12  2  0
 21 20  1  0
 22 21  1  0
 23 22  2  0
 24 23  1  0
 25 20  1  0
 25 24  2  0
 26  2  1  0
 27 26  1  0
 28 27  1  0
 29 28  1  0
 30 29  1  0
 31 30  1  0
 32 31  1  0
 33 32  1  0
 33 28  1  0
  4 34  1  0
  4 35  1  0
  5 36  1  0
  5 37  1  0
  6 38  1  0
  7 39  1  0
  7 40  1  0
  8 41  1  0
  8 42  1  0
  9 43  1  0
  9 44  1  0
 10 45  1  0
 10 46  1  0
 11 47  1  0
 14 48  1  0
 14 49  1  0
 15 50  1  0
 15 51  1  0
 16 52  1  0
 16 53  1  0
 17 54  1  0
 17 55  1  0
 22 56  1  0
 23 57  1  0
 24 58  1  0
 25 59  1  0
 26 60  1  0
 26 61  1  0
 27 62  1  0
 27 63  1  0
 28 64  1  0
 29 65  1  0
 29 66  1  0
 30 67  1  0
 30 68  1  0
 31 69  1  0
 31 70  1  0
 32 71  1  0
 32 72  1  0
 33 73  1  0
 33 74  1  0
M  CHG  2   6   1  28   1
M  END
>  <score>  (8) 
-8.64

$$$$
=
     RDKit          3D

 74 78  0  0  0  0  0  0  0  0999 V2000
   -0.4330   66.0920   71.0860 O   0  0  0  0  0  0  0  0  0  0  0  0
    0.6100   65.8240   70.4930 C   0  0  0  0  0  0  0  0  0  0  0  0
    1.2590   64.6050   70.6770 N   0  0  0  0  0  0  0  0  0  0  0  0
    0.7210   63.7340   71.7390 C   0  0  0  0  0  0  0  0  0  0  0  0
    1.0320   62.2420   71.5380 C   0  0  0  0  0  0  0  0  0  0  0  0
    2.4990   62.0210   71.2390 N   0  0  0  0  0  4  0  0  0  0  0  0
    2.9580   62.8540   70.0680 C   0  0  0  0  0  0  0  0  0  0  0  0
    2.6550   64.3500   70.2860 C   0  0  0  0  0  0  0  0  0  0  0  0
    3.4070   62.0420   72.4660 C   0  0  0  0  0  0  0  0  0  0  0  0
    3.3830   60.6320   73.1000 C   0  0  0  0  0  0  0  0  0  0  0  0
    2.9700   60.7840   74.5230 N   0  0  0  0  0  0  0  0  0  0  0  0
    1.5390   60.5930   74.6310 C   0  0  0  0  0  0  0  0  0  0  0  0
    0.7480   61.6660   75.0860 C   0  0  0  0  0  0  0  0  0  0  0  0
    1.3360   63.0220   75.3790 C   0  0  0  0  0  0  0  0  0  0  0  0
    0.3030   64.1440   75.4810 C   0  0  0  0  0  0  0  0  0  0  0  0
   -0.8610   63.7100   76.3580 C   0  0  0  0  0  0  0  0  0  0  0  0
   -1.5610   62.5100   75.7320 C   0  0  0  0  0  0  0  0  0  0  0  0
   -0.6110   61.4260   75.2910 C   0  0  0  0  0  0  0  0  0  0  0  0
   -1.1850   60.2260   75.0580 N   0  0  0  0  0  0  0  0  0  0  0  0
   -0.4430   59.2080   74.6090 C   0  0  0  0  0  0  0  0  0  0  0  0
    0.9420   59.3200   74.3710 C   0  0  0  0  0  0  0  0  0  0  0  0
    1.6290   58.1700   73.8930 C   0  0  0  0  0  0  0  0  0  0  0  0
    0.9660   56.9630   73.6680 C   0  0  0  0  0  0  0  0  0  0  0  0
   -0.3950   56.8770   73.9120 C   0  0  0  0  0  0  0  0  0  0  0  0
   -1.0820   57.9980   74.3780 C   0  0  0  0  0  0  0  0  0  0  0  0
    1.2010   66.8230   69.5130 C   0  0  0  0  0  0  0  0  0  0  0  0
    0.1310   67.1930   68.4800 C   0  0  0  0  0  0  0  0  0  0  0  0
    0.6420   68.1920   67.4450 N   0  0  0  0  0  4  0  0  0  0  0  0
    1.9840   68.8050   67.8170 C   0  0  0  0  0  0  0  0  0  0  0  0
    2.6870   69.3390   66.5820 C   0  0  0  0  0  0  0  0  0  0  0  0
    3.0110   68.2170   65.5970 C   0  0  0  0  0  0  0  0  0  0  0  0
    1.9870   67.0850   65.6410 C   0  0  0  0  0  0  0  0  0  0  0  0
    0.6130   67.5930   66.0350 C   0  0  0  0  0  0  0  0  0  0  0  0
    1.1531   64.0515   72.6994 H   0  0  0  0  0  0  0  0  0  0  0  0
   -0.3738   63.8383   71.7134 H   0  0  0  0  0  0  0  0  0  0  0  0
    0.7667   61.6942   72.4542 H   0  0  0  0  0  0  0  0  0  0  0  0
    0.4447   61.8774   70.6823 H   0  0  0  0  0  0  0  0  0  0  0  0
    2.5955   61.0432   70.9299 H   0  0  0  0  0  0  0  0  0  0  0  0
    4.0428   62.7239   69.9401 H   0  0  0  0  0  0  0  0  0  0  0  0
    2.4152   62.5187   69.1719 H   0  0  0  0  0  0  0  0  0  0  0  0
    2.8603   64.8890   69.3493 H   0  0  0  0  0  0  0  0  0  0  0  0
    3.2954   64.6979   71.1100 H   0  0  0  0  0  0  0  0  0  0  0  0
    4.4337   62.2996   72.1667 H   0  0  0  0  0  0  0  0  0  0  0  0
    3.0562   62.7930   73.1891 H   0  0  0  0  0  0  0  0  0  0  0  0
    2.6633   59.9934   72.5669 H   0  0  0  0  0  0  0  0  0  0  0  0
    4.3755   60.1624   73.0343 H   0  0  0  0  0  0  0  0  0  0  0  0
    3.6037   60.9925   75.3078 H   0  0  0  0  0  0  0  0  0  0  0  0
    1.8778   62.9639   76.3346 H   0  0  0  0  0  0  0  0  0  0  0  0
    1.9917   63.2720   74.5319 H   0  0  0  0  0  0  0  0  0  0  0  0
    0.7763   65.0345   75.9203 H   0  0  0  0  0  0  0  0  0  0  0  0
   -0.0742   64.3764   74.4742 H   0  0  0  0  0  0  0  0  0  0  0  0
   -0.4845   63.4342   77.3541 H   0  0  0  0  0  0  0  0  0  0  0  0
   -1.5764   64.5407   76.4485 H   0  0  0  0  0  0  0  0  0  0  0  0
   -2.2548   62.0856   76.4726 H   0  0  0  0  0  0  0  0  0  0  0  0
   -2.0822   62.8706   74.8330 H   0  0  0  0  0  0  0  0  0  0  0  0
    2.7093   58.2337   73.6959 H   0  0  0  0  0  0  0  0  0  0  0  0
    1.5196   56.0867   73.2998 H   0  0  0  0  0  0  0  0  0  0  0  0
   -0.9301   55.9315   73.7395 H   0  0  0  0  0  0  0  0  0  0  0  0
   -2.1627   57.9206   74.5681 H   0  0  0  0  0  0  0  0  0  0  0  0
    1.5212   67.7260   70.0534 H   0  0  0  0  0  0  0  0  0  0  0  0
    2.0718   66.3803   69.0073 H   0  0  0  0  0  0  0  0  0  0  0  0
   -0.1892   66.2781   67.9599 H   0  0  0  0  0  0  0  0  0  0  0  0
   -0.7049   67.6648   69.0173 H   0  0  0  0  0  0  0  0  0  0  0  0
   -0.0122   68.9876   67.4422 H   0  0  0  0  0  0  0  0  0  0  0  0
    1.8207   69.6304   68.5255 H   0  0  0  0  0  0  0  0  0  0  0  0
    2.6138   68.0289   68.2764 H   0  0  0  0  0  0  0  0  0  0  0  0
    2.0334   70.0724   66.0870 H   0  0  0  0  0  0  0  0  0  0  0  0
    3.6313   69.8077   66.8962 H   0  0  0  0  0  0  0  0  0  0  0  0
    3.0305   68.6355   64.5799 H   0  0  0  0  0  0  0  0  0  0  0  0
    3.9868   67.7956   65.8803 H   0  0  0  0  0  0  0  0  0  0  0  0
    1.9245   66.6207   64.6458 H   0  0  0  0  0  0  0  0  0  0  0  0
    2.3136   66.3534   66.3947 H   0  0  0  0  0  0  0  0  0  0  0  0
    0.2952   68.3665   65.3203 H   0  0  0  0  0  0  0  0  0  0  0  0
   -0.0932   66.7497   66.0230 H   0  0  0  0  0  0  0  0  0  0  0  0
  2  1  2  0
  3  2  1  0
  4  3  1  0
  5  4  1  0
  6  5  1  0
  7  6  1  0
  8  3  1  0
  8  7  1  0
  9  6  1  0
 10  9  1  0
 11 10  1  0
 12 11  1  0
 13 12  1  0
 14 13  1  0
 15 14  1  0
 16 15  1  0
 17 16  1  0
 18 13  2  0
 18 17  1  0
 19 18  1  0
 20 19  2  0
 21 12  2  0
 21 20  1  0
 22 21  1  0
 23 22  2  0
 24 23  1  0
 25 20  1  0
 25 24  2  0
 26  2  1  0
 27 26  1  0
 28 27  1  0
 29 28  1  0
 30 29  1  0
 31 30  1  0
 32 31  1  0
 33 32  1  0
 33 28  1  0
  4 34  1  0
  4 35  1  0
  5 36  1  0
  5 37  1  0
  6 38  1  0
  7 39  1  0
  7 40  1  0
  8 41  1  0
  8 42  1  0
  9 43  1  0
  9 44  1  0
 10 45  1  0
 10 46  1  0
 11 47  1  0
 14 48  1  0
 14 49  1  0
 15 50  1  0
 15 51  1  0
 16 52  1  0
 16 53  1  0
 17 54  1  0
 17 55  1  0
 22 56  1  0
 23 57  1  0
 24 58  1  0
 25 59  1  0
 26 60  1  0
 26 61  1  0
 27 62  1  0
 27 63  1  0
 28 64  1  0
 29 65  1  0
 29 66  1  0
 30 67  1  0
 30 68  1  0
 31 69  1  0
 31 70  1  0
 32 71  1  0
 32 72  1  0
 33 73  1  0
 33 74  1  0
M  CHG  2   6   1  28   1
M  END
>  <score>  (9) 
-8.47

$$$$
