=
     RDKit          3D

 56 59  0  0  0  0  0  0  0  0999 V2000
    0.9090   66.1070   70.4890 O   0  0  0  0  0  0  0  0  0  0  0  0
    2.9070   61.6930   73.2520 C   0  0  0  0  0  0  0  0  0  0  0  0
    1.8820   62.6330   73.3840 C   0  0  0  0  0  0  0  0  0  0  0  0
    1.4490   63.2740   72.2360 C   0  0  0  0  0  0  0  0  0  0  0  0
    1.9810   63.0240   70.9810 C   0  0  0  0  0  0  0  0  0  0  0  0
    2.9950   62.0900   70.8330 C   0  0  0  0  0  0  0  0  0  0  0  0
    3.4680   61.4210   71.9730 C   0  0  0  0  0  0  0  0  0  0  0  0
    1.3050   63.8120   69.9010 C   0  0  0  0  0  0  0  0  0  0  0  0
    0.3770   64.7980   70.6590 C   0  0  1  0  0  0  0  0  0  0  0  0
    0.4120   64.2890   72.1060 C   0  0  0  0  0  0  0  0  0  0  0  0
   -0.2910   64.6590   73.0350 O   0  0  0  0  0  0  0  0  0  0  0  0
    2.5930   60.0650   74.9790 C   0  0  0  0  0  0  0  0  0  0  0  0
    3.4380   60.9810   74.2990 O   0  0  0  0  0  0  0  0  0  0  0  0
    4.4670   60.4780   71.9530 O   0  0  0  0  0  0  0  0  0  0  0  0
    5.7110   60.8390   71.3700 C   0  0  0  0  0  0  0  0  0  0  0  0
    0.5940   66.8140   69.3660 C   0  0  0  0  0  0  0  0  0  0  0  0
   -0.6650   66.5320   68.8350 C   0  0  0  0  0  0  0  0  0  0  0  0
   -1.0890   67.1400   67.6560 C   0  0  0  0  0  0  0  0  0  0  0  0
   -0.2490   68.0290   66.9870 C   0  0  0  0  0  0  0  0  0  0  0  0
    1.0150   68.3460   67.5120 C   0  0  0  0  0  0  0  0  0  0  0  0
    1.4100   67.7450   68.7240 C   0  0  0  0  0  0  0  0  0  0  0  0
    2.0000   69.2370   66.7720 C   0  0  2  0  0  0  0  0  0  0  0  0
    2.3560   68.6830   65.3880 C   0  0  0  0  0  0  0  0  0  0  0  0
    3.2600   69.4300   67.5990 N   0  0  0  0  0  4  0  0  0  0  0  0
    4.5130   69.8070   66.8580 C   0  0  0  0  0  0  0  0  0  0  0  0
    5.4180   70.2900   67.9700 C   0  0  0  0  0  0  0  0  0  0  0  0
    4.4900   71.1110   68.8410 C   0  0  0  0  0  0  0  0  0  0  0  0
    3.1190   70.4590   68.7180 C   0  0  0  0  0  0  0  0  0  0  0  0
    1.4354   62.8556   74.3643 H   0  0  0  0  0  0  0  0  0  0  0  0
    3.4207   61.8773   69.8413 H   0  0  0  0  0  0  0  0  0  0  0  0
    2.0448   64.3599   69.2989 H   0  0  0  0  0  0  0  0  0  0  0  0
    0.7495   63.1701   69.2015 H   0  0  0  0  0  0  0  0  0  0  0  0
   -0.6644   64.8476   70.3081 H   0  0  0  0  0  0  0  0  0  0  0  0
    2.7116   60.1935   76.0650 H   0  0  0  0  0  0  0  0  0  0  0  0
    1.5462   60.2548   74.6994 H   0  0  0  0  0  0  0  0  0  0  0  0
    2.8665   59.0369   74.6994 H   0  0  0  0  0  0  0  0  0  0  0  0
    6.4409   61.0508   72.1652 H   0  0  0  0  0  0  0  0  0  0  0  0
    6.0780   60.0103   70.7467 H   0  0  0  0  0  0  0  0  0  0  0  0
    5.5774   61.7354   70.7467 H   0  0  0  0  0  0  0  0  0  0  0  0
   -1.3285   65.8232   69.3521 H   0  0  0  0  0  0  0  0  0  0  0  0
   -2.0879   66.9185   67.2521 H   0  0  0  0  0  0  0  0  0  0  0  0
   -0.5781   68.4853   66.0418 H   0  0  0  0  0  0  0  0  0  0  0  0
    2.3782   68.0148   69.1711 H   0  0  0  0  0  0  0  0  0  0  0  0
    1.5095   70.2098   66.6203 H   0  0  0  0  0  0  0  0  0  0  0  0
    2.9474   67.7626   65.5025 H   0  0  0  0  0  0  0  0  0  0  0  0
    1.4324   68.4588   64.8341 H   0  0  0  0  0  0  0  0  0  0  0  0
    2.9436   69.4299   64.8341 H   0  0  0  0  0  0  0  0  0  0  0  0
    3.3660   68.4727   67.9640 H   0  0  0  0  0  0  0  0  0  0  0  0
    4.9465   68.9377   66.3419 H   0  0  0  0  0  0  0  0  0  0  0  0
    4.3479   70.5566   66.0701 H   0  0  0  0  0  0  0  0  0  0  0  0
    5.8392   69.4430   68.5315 H   0  0  0  0  0  0  0  0  0  0  0  0
    6.2834   70.8618   67.6037 H   0  0  0  0  0  0  0  0  0  0  0  0
    4.8303   71.0925   69.8869 H   0  0  0  0  0  0  0  0  0  0  0  0
    4.4665   72.1647   68.5261 H   0  0  0  0  0  0  0  0  0  0  0  0
    2.3578   71.2092   68.4577 H   0  0  0  0  0  0  0  0  0  0  0  0
    2.7996   69.9954   69.6630 H   0  0  0  0  0  0  0  0  0  0  0  0
  3  2  2  0
  4  3  1  0
  5  4  2  0
  6  5  1  0
  7  6  2  0
  7  2  1  0
  8  5  1  0
  9  8  1  0
  9  1  1  0
 10  9  1  0
 10  4  1  0
 11 10  2  0
 13 12  1  0
 13  2  1  0
 14  7  1  0
 15 14  1  0
 16  1  1  0
 17 16  2  0
 18 17  1  0
 19 18  2  0
 20 19  1  0
 21 20  2  0
 21 16  1  0
 22 20  1  0
 23 22  1  0
 24 22  1  0
 25 24  1  0
 26 25  1  0
 27 26  1  0
 28 24  1  0
 28 27  1  0
  3 29  1  0
  6 30  1  0
  8 31  1  0
  8 32  1  0
  9 33  1  6
 12 34  1  0
 12 35  1  0
 12 36  1  0
 15 37  1  0
 15 38  1  0
 15 39  1  0
 17 40  1  0
 18 41  1  0
 19 42  1  0
 21 43  1  0
 22 44  1  6
 23 45  1  0
 23 46  1  0
 23 47  1  0
 24 48  1  0
 25 49  1  0
 25 50  1  0
 26 51  1  0
 26 52  1  0
 27 53  1  0
 27 54  1  0
 28 55  1  0
 28 56  1  0
M  CHG  1  24   1
M  END
>  <score>  (1) 
-9.826

$$$$
=
     RDKit          3D

 56 59  0  0  0  0  0  0  0  0999 V2000
   -0.1250   64.9920   69.5070 O   0  0  0  0  0  0  0  0  0  0  0  0
    0.6690   68.6550   65.3760 C   0  0  0  0  0  0  0  0  0  0  0  0
   -0.3950   68.0970   66.0890 C   0  0  0  0  0  0  0  0  0  0  0  0
   -0.1240   67.5780   67.3440 C   0  0  0  0  0  0  0  0  0  0  0  0
    1.1400   67.5900   67.9120 C   0  0  0  0  0  0  0  0  0  0  0  0
    2.2050   68.1450   67.2200 C   0  0  0  0  0  0  0  0  0  0  0  0
    1.9750   68.6780   65.9410 C   0  0  0  0  0  0  0  0  0  0  0  0
    1.1550   67.0130   69.2950 C   0  0  0  0  0  0  0  0  0  0  0  0
   -0.2610   66.4080   69.4810 C   0  0  1  0  0  0  0  0  0  0  0  0
   -1.0450   66.9420   68.2750 C   0  0  0  0  0  0  0  0  0  0  0  0
   -2.2490   66.8560   68.0810 O   0  0  0  0  0  0  0  0  0  0  0  0
   -0.5550   68.8160   63.3250 C   0  0  0  0  0  0  0  0  0  0  0  0
    0.5530   69.2050   64.1240 O   0  0  0  0  0  0  0  0  0  0  0  0
    2.9480   69.2510   65.1600 O   0  0  0  0  0  0  0  0  0  0  0  0
    4.2300   69.4560   65.7370 C   0  0  0  0  0  0  0  0  0  0  0  0
    0.4680   64.3990   70.5830 C   0  0  0  0  0  0  0  0  0  0  0  0
   -0.0550   64.7790   71.8180 C   0  0  0  0  0  0  0  0  0  0  0  0
    0.4970   64.2940   73.0010 C   0  0  0  0  0  0  0  0  0  0  0  0
    1.5910   63.4300   72.9590 C   0  0  0  0  0  0  0  0  0  0  0  0
    2.1220   63.0150   71.7270 C   0  0  0  0  0  0  0  0  0  0  0  0
    1.5260   63.4910   70.5410 C   0  0  0  0  0  0  0  0  0  0  0  0
    3.3680   62.1490   71.6320 C   0  0  2  0  0  0  0  0  0  0  0  0
    4.4290   62.7570   70.7080 C   0  0  0  0  0  0  0  0  0  0  0  0
    3.0040   60.7500   71.1620 N   0  0  0  0  0  4  0  0  0  0  0  0
    4.1290   59.8730   70.6880 C   0  0  0  0  0  0  0  0  0  0  0  0
    3.4950   58.5000   70.6850 C   0  0  0  0  0  0  0  0  0  0  0  0
    2.6920   58.4850   71.9690 C   0  0  0  0  0  0  0  0  0  0  0  0
    2.2450   59.9230   72.1970 C   0  0  0  0  0  0  0  0  0  0  0  0
   -1.4112   68.0708   65.6687 H   0  0  0  0  0  0  0  0  0  0  0  0
    3.2112   68.1676   67.6640 H   0  0  0  0  0  0  0  0  0  0  0  0
    1.9254   66.2326   69.3820 H   0  0  0  0  0  0  0  0  0  0  0  0
    1.3902   67.7679   70.0598 H   0  0  0  0  0  0  0  0  0  0  0  0
   -0.7825   66.6775   70.4113 H   0  0  0  0  0  0  0  0  0  0  0  0
   -1.3915   68.5223   63.9762 H   0  0  0  0  0  0  0  0  0  0  0  0
   -0.8633   69.6596   62.6900 H   0  0  0  0  0  0  0  0  0  0  0  0
   -0.2683   67.9648   62.6900 H   0  0  0  0  0  0  0  0  0  0  0  0
    4.1449   69.4424   66.8336 H   0  0  0  0  0  0  0  0  0  0  0  0
    4.9106   68.6553   65.4121 H   0  0  0  0  0  0  0  0  0  0  0  0
    4.6270   70.4290   65.4121 H   0  0  0  0  0  0  0  0  0  0  0  0
   -0.9114   65.4681   71.8585 H   0  0  0  0  0  0  0  0  0  0  0  0
    0.0697   64.5927   73.9696 H   0  0  0  0  0  0  0  0  0  0  0  0
    2.0407   63.0714   73.8967 H   0  0  0  0  0  0  0  0  0  0  0  0
    1.9011   63.1410   69.5680 H   0  0  0  0  0  0  0  0  0  0  0  0
    3.8034   62.0945   72.6407 H   0  0  0  0  0  0  0  0  0  0  0  0
    5.2253   63.2133   71.3144 H   0  0  0  0  0  0  0  0  0  0  0  0
    4.8581   61.9678   70.0732 H   0  0  0  0  0  0  0  0  0  0  0  0
    3.9650   63.5263   70.0732 H   0  0  0  0  0  0  0  0  0  0  0  0
    2.4140   60.9961   70.3544 H   0  0  0  0  0  0  0  0  0  0  0  0
    4.4591   60.1606   69.6789 H   0  0  0  0  0  0  0  0  0  0  0  0
    5.0302   59.9384   71.3154 H   0  0  0  0  0  0  0  0  0  0  0  0
    2.8415   58.3695   69.8098 H   0  0  0  0  0  0  0  0  0  0  0  0
    4.2320   57.6854   70.6283 H   0  0  0  0  0  0  0  0  0  0  0  0
    1.8186   57.8242   71.8666 H   0  0  0  0  0  0  0  0  0  0  0  0
    3.2870   58.1077   72.8137 H   0  0  0  0  0  0  0  0  0  0  0  0
    2.5026   60.2497   73.2153 H   0  0  0  0  0  0  0  0  0  0  0  0
    1.1557   60.0352   72.0927 H   0  0  0  0  0  0  0  0  0  0  0  0
  3  2  2  0
  4  3  1  0
  5  4  2  0
  6  5  1  0
  7  6  2  0
  7  2  1  0
  8  5  1  0
  9  8  1  0
  9  1  1  0
 10  9  1  0
 10  4  1  0
 11 10  2  0
 13 12  1  0
 13  2  1  0
 14  7  1  0
 15 14  1  0
 16  1  1  0
 17 16  2  0
 18 17  1  0
 19 18  2  0
 20 19  1  0
 21 20  2  0
 21 16  1  0
 22 20  1  0
 23 22  1  0
 24 22  1  0
 25 24  1  0
 26 25  1  0
 27 26  1  0
 28 24  1  0
 28 27  1  0
  3 29  1  0
  6 30  1  0
  8 31  1  0
  8 32  1  0
  9 33  1  1
 12 34  1  0
 12 35  1  0
 12 36  1  0
 15 37  1  0
 15 38  1  0
 15 39  1  0
 17 40  1  0
 18 41  1  0
 19 42  1  0
 21 43  1  0
 22 44  1  1
 23 45  1  0
 23 46  1  0
 23 47  1  0
 24 48  1  0
 25 49  1  0
 25 50  1  0
 26 51  1  0
 26 52  1  0
 27 53  1  0
 27 54  1  0
 28 55  1  0
 28 56  1  0
M  CHG  1  24   1
M  END
>  <score>  (2) 
-9.728

$$$$
=
     RDKit          3D

 56 59  0  0  0  0  0  0  0  0999 V2000
   -0.2350   65.7590   69.2970 O   0  0  0  0  0  0  0  0  0  0  0  0
    1.6450   61.3070   72.0820 C   0  0  0  0  0  0  0  0  0  0  0  0
    2.0810   62.1720   71.0750 C   0  0  0  0  0  0  0  0  0  0  0  0
    1.4950   63.4240   71.0070 C   0  0  0  0  0  0  0  0  0  0  0  0
    0.5090   63.8480   71.8830 C   0  0  0  0  0  0  0  0  0  0  0  0
    0.0700   63.0040   72.8920 C   0  0  0  0  0  0  0  0  0  0  0  0
    0.6340   61.7220   72.9930 C   0  0  0  0  0  0  0  0  0  0  0  0
    0.0780   65.2590   71.6260 C   0  0  0  0  0  0  0  0  0  0  0  0
    0.7740   65.6440   70.2940 C   0  0  1  0  0  0  0  0  0  0  0  0
    1.7630   64.4950   70.0570 C   0  0  0  0  0  0  0  0  0  0  0  0
    2.6410   64.4410   69.2090 O   0  0  0  0  0  0  0  0  0  0  0  0
    3.1280   59.5650   71.3770 C   0  0  0  0  0  0  0  0  0  0  0  0
    2.1320   60.0380   72.2710 O   0  0  0  0  0  0  0  0  0  0  0  0
    0.2810   60.7990   73.9460 O   0  0  0  0  0  0  0  0  0  0  0  0
   -0.9900   60.1740   73.8290 C   0  0  0  0  0  0  0  0  0  0  0  0
   -0.2000   66.8150   68.4340 C   0  0  0  0  0  0  0  0  0  0  0  0
   -1.4440   67.1960   67.9300 C   0  0  0  0  0  0  0  0  0  0  0  0
   -1.5440   68.2220   66.9940 C   0  0  0  0  0  0  0  0  0  0  0  0
   -0.3960   68.8700   66.5400 C   0  0  0  0  0  0  0  0  0  0  0  0
    0.8660   68.5190   67.0480 C   0  0  0  0  0  0  0  0  0  0  0  0
    0.9420   67.5010   68.0200 C   0  0  0  0  0  0  0  0  0  0  0  0
    2.1520   69.1320   66.5170 C   0  0  2  0  0  0  0  0  0  0  0  0
    2.8300   68.2420   65.4700 C   0  0  0  0  0  0  0  0  0  0  0  0
    3.1110   69.4190   67.6610 N   0  0  0  0  0  4  0  0  0  0  0  0
    4.4820   69.9160   67.2960 C   0  0  0  0  0  0  0  0  0  0  0  0
    4.9960   70.4550   68.6120 C   0  0  0  0  0  0  0  0  0  0  0  0
    3.7940   71.1770   69.1860 C   0  0  0  0  0  0  0  0  0  0  0  0
    2.5740   70.4110   68.6900 C   0  0  0  0  0  0  0  0  0  0  0  0
    2.8618   61.8688   70.3620 H   0  0  0  0  0  0  0  0  0  0  0  0
   -0.7053   63.3326   73.5998 H   0  0  0  0  0  0  0  0  0  0  0  0
   -1.0156   65.3186   71.5241 H   0  0  0  0  0  0  0  0  0  0  0  0
    0.3504   65.9351   72.4498 H   0  0  0  0  0  0  0  0  0  0  0  0
    1.3115   66.6037   70.2903 H   0  0  0  0  0  0  0  0  0  0  0  0
    3.9753   59.1626   71.9516 H   0  0  0  0  0  0  0  0  0  0  0  0
    2.7050   58.7716   70.7433 H   0  0  0  0  0  0  0  0  0  0  0  0
    3.4756   60.3942   70.7433 H   0  0  0  0  0  0  0  0  0  0  0  0
   -1.3945   59.9751   74.8324 H   0  0  0  0  0  0  0  0  0  0  0  0
   -1.6759   60.8376   73.2820 H   0  0  0  0  0  0  0  0  0  0  0  0
   -0.8833   59.2256   73.2820 H   0  0  0  0  0  0  0  0  0  0  0  0
   -2.3531   66.6817   68.2749 H   0  0  0  0  0  0  0  0  0  0  0  0
   -2.5309   68.5220   66.6119 H   0  0  0  0  0  0  0  0  0  0  0  0
   -0.4788   69.6606   65.7797 H   0  0  0  0  0  0  0  0  0  0  0  0
    1.9172   67.2434   68.4590 H   0  0  0  0  0  0  0  0  0  0  0  0
    1.8821   70.0756   66.0203 H   0  0  0  0  0  0  0  0  0  0  0  0
    3.4217   67.4653   65.9767 H   0  0  0  0  0  0  0  0  0  0  0  0
    2.0631   67.7666   64.8408 H   0  0  0  0  0  0  0  0  0  0  0  0
    3.4920   68.8551   64.8408 H   0  0  0  0  0  0  0  0  0  0  0  0
    3.1958   68.4679   68.0472 H   0  0  0  0  0  0  0  0  0  0  0  0
    5.1166   69.0968   66.9270 H   0  0  0  0  0  0  0  0  0  0  0  0
    4.4770   70.6627   66.4883 H   0  0  0  0  0  0  0  0  0  0  0  0
    5.3178   69.6375   69.2739 H   0  0  0  0  0  0  0  0  0  0  0  0
    5.8749   71.1064   68.4967 H   0  0  0  0  0  0  0  0  0  0  0  0
    3.8309   71.1683   70.2853 H   0  0  0  0  0  0  0  0  0  0  0  0
    3.7661   72.2306   68.8712 H   0  0  0  0  0  0  0  0  0  0  0  0
    1.8520   71.0972   68.2232 H   0  0  0  0  0  0  0  0  0  0  0  0
    2.0466   69.9041   69.5115 H   0  0  0  0  0  0  0  0  0  0  0  0
  3  2  2  0
  4  3  1  0
  5  4  2  0
  6  5  1  0
  7  6  2  0
  7  2  1  0
  8  5  1  0
  9  8  1  0
  9  1  1  0
 10  9  1  0
 10  4  1  0
 11 10  2  0
 13 12  1  0
 13  2  1  0
 14  7  1  0
 15 14  1  0
 16  1  1  0
 17 16  2  0
 18 17  1  0
 19 18  2  0
 20 19  1  0
 21 20  2  0
 21 16  1  0
 22 20  1  0
 23 22  1  0
 24 22  1  0
 25 24  1  0
 26 25  1  0
 27 26  1  0
 28 24  1  0
 28 27  1  0
  3 29  1  0
  6 30  1  0
  8 31  1  0
  8 32  1  0
  9 33  1  1
 12 34  1  0
 12 35  1  0
 12 36  1  0
 15 37  1  0
 15 38  1  0
 15 39  1  0
 17 40  1  0
 18 41  1  0
 19 42  1  0
 21 43  1  0
 22 44  1  6
 23 45  1  0
 23 46  1  0
 23 47  1  0
 24 48  1  0
 25 49  1  0
 25 50  1  0
 26 51  1  0
 26 52  1  0
 27 53  1  0
 27 54  1  0
 28 55  1  0
 28 56  1  0
M  CHG  1  24   1
M  END
>  <score>  (3) 
-9.51

$$$$
=
     RDKit          3D

 56 59  0  0  0  0  0  0  0  0999 V2000
    0.9210   65.8470   70.2050 O   0  0  0  0  0  0  0  0  0  0  0  0
    2.7820   61.5860   73.2860 C   0  0  0  0  0  0  0  0  0  0  0  0
    1.9020   62.6640   73.4140 C   0  0  0  0  0  0  0  0  0  0  0  0
    1.3820   63.2080   72.2530 C   0  0  0  0  0  0  0  0  0  0  0  0
    1.6930   62.7340   70.9880 C   0  0  0  0  0  0  0  0  0  0  0  0
    2.5600   61.6620   70.8450 C   0  0  0  0  0  0  0  0  0  0  0  0
    3.1160   61.0840   71.9980 C   0  0  0  0  0  0  0  0  0  0  0  0
    0.9610   63.4640   69.9040 C   0  0  0  0  0  0  0  0  0  0  0  0
    0.2730   64.6520   70.6270 C   0  0  1  0  0  0  0  0  0  0  0  0
    0.4600   64.3270   72.1150 C   0  0  0  0  0  0  0  0  0  0  0  0
   -0.0510   64.9010   73.0650 O   0  0  0  0  0  0  0  0  0  0  0  0
    2.5340   60.3340   75.3120 C   0  0  0  0  0  0  0  0  0  0  0  0
    3.3760   60.9460   74.3460 O   0  0  0  0  0  0  0  0  0  0  0  0
    3.9850   60.0210   71.9830 O   0  0  0  0  0  0  0  0  0  0  0  0
    3.5110   58.7790   71.4810 C   0  0  0  0  0  0  0  0  0  0  0  0
    0.4560   66.5020   69.1030 C   0  0  0  0  0  0  0  0  0  0  0  0
   -0.9270   66.4500   68.9340 C   0  0  0  0  0  0  0  0  0  0  0  0
   -1.5270   67.0280   67.8180 C   0  0  0  0  0  0  0  0  0  0  0  0
   -0.7440   67.6550   66.8500 C   0  0  0  0  0  0  0  0  0  0  0  0
    0.6490   67.7400   67.0070 C   0  0  0  0  0  0  0  0  0  0  0  0
    1.2320   67.1780   68.1610 C   0  0  0  0  0  0  0  0  0  0  0  0
    1.5510   68.3320   65.9350 C   0  0  2  0  0  0  0  0  0  0  0  0
    0.7710   68.7360   64.6800 C   0  0  0  0  0  0  0  0  0  0  0  0
    2.6540   67.3500   65.5730 N   0  0  0  0  0  4  0  0  0  0  0  0
    2.2570   66.1380   64.7770 C   0  0  0  0  0  0  0  0  0  0  0  0
    3.5880   65.6260   64.2750 C   0  0  0  0  0  0  0  0  0  0  0  0
    4.3180   66.8900   63.8700 C   0  0  0  0  0  0  0  0  0  0  0  0
    3.8210   67.9770   64.8150 C   0  0  0  0  0  0  0  0  0  0  0  0
    1.6325   63.0655   74.4020 H   0  0  0  0  0  0  0  0  0  0  0  0
    2.8080   61.2712   69.8471 H   0  0  0  0  0  0  0  0  0  0  0  0
    1.6626   63.8287   69.1393 H   0  0  0  0  0  0  0  0  0  0  0  0
    0.2390   62.8194   69.3813 H   0  0  0  0  0  0  0  0  0  0  0  0
   -0.7957   64.7964   70.4100 H   0  0  0  0  0  0  0  0  0  0  0  0
    2.8873   60.5908   76.3216 H   0  0  0  0  0  0  0  0  0  0  0  0
    1.5032   60.6951   75.1813 H   0  0  0  0  0  0  0  0  0  0  0  0
    2.5593   59.2421   75.1813 H   0  0  0  0  0  0  0  0  0  0  0  0
    3.2581   58.1162   72.3217 H   0  0  0  0  0  0  0  0  0  0  0  0
    2.6149   58.9499   70.8664 H   0  0  0  0  0  0  0  0  0  0  0  0
    4.2931   58.3094   70.8664 H   0  0  0  0  0  0  0  0  0  0  0  0
   -1.5498   65.9479   69.6890 H   0  0  0  0  0  0  0  0  0  0  0  0
   -2.6200   66.9897   67.7002 H   0  0  0  0  0  0  0  0  0  0  0  0
   -1.2204   68.0861   65.9572 H   0  0  0  0  0  0  0  0  0  0  0  0
    2.3160   67.2740   68.3213 H   0  0  0  0  0  0  0  0  0  0  0  0
    1.9977   69.2463   66.3528 H   0  0  0  0  0  0  0  0  0  0  0  0
   -0.1701   69.2235   64.9743 H   0  0  0  0  0  0  0  0  0  0  0  0
    1.3746   69.4348   64.0823 H   0  0  0  0  0  0  0  0  0  0  0  0
    0.5485   67.8398   64.0823 H   0  0  0  0  0  0  0  0  0  0  0  0
    2.9243   67.0490   66.5202 H   0  0  0  0  0  0  0  0  0  0  0  0
    1.7577   65.3914   65.4120 H   0  0  0  0  0  0  0  0  0  0  0  0
    1.5398   66.3574   63.9724 H   0  0  0  0  0  0  0  0  0  0  0  0
    4.1313   65.0950   65.0706 H   0  0  0  0  0  0  0  0  0  0  0  0
    3.4882   64.9041   63.4511 H   0  0  0  0  0  0  0  0  0  0  0  0
    5.4045   66.7561   63.9777 H   0  0  0  0  0  0  0  0  0  0  0  0
    4.1263   67.1490   62.8183 H   0  0  0  0  0  0  0  0  0  0  0  0
    3.4833   68.8564   64.2469 H   0  0  0  0  0  0  0  0  0  0  0  0
    4.6134   68.3223   65.4954 H   0  0  0  0  0  0  0  0  0  0  0  0
  3  2  2  0
  4  3  1  0
  5  4  2  0
  6  5  1  0
  7  6  2  0
  7  2  1  0
  8  5  1  0
  9  8  1  0
  9  1  1  0
 10  9  1  0
 10  4  1  0
 11 10  2  0
 13 12  1  0
 13  2  1  0
 14  7  1  0
 15 14  1  0
 16  1  1  0
 17 16  2  0
 18 17  1  0
 19 18  2  0
 20 19  1  0
 21 20  2  0
 21 16  1  0
 22 20  1  0
 23 22  1  0
 24 22  1  0
 25 24  1  0
 26 25  1  0
 27 26  1  0
 28 24  1  0
 28 27  1  0
  3 29  1  0
  6 30  1  0
  8 31  1  0
  8 32  1  0
  9 33  1  6
 12 34  1  0
 12 35  1  0
 12 36  1  0
 15 37  1  0
 15 38  1  0
 15 39  1  0
 17 40  1  0
 18 41  1  0
 19 42  1  0
 21 43  1  0
 22 44  1  1
 23 45  1  0
 23 46  1  0
 23 47  1  0
 24 48  1  0
 25 49  1  0
 25 50  1  0
 26 51  1  0
 26 52  1  0
 27 53  1  0
 27 54  1  0
 28 55  1  0
 28 56  1  0
M  CHG  1  24   1
M  END
>  <score>  (4) 
-9.004

$$$$
=
     RDKit          3D

 56 59  0  0  0  0  0  0  0  0999 V2000
    1.5520   68.0970   69.4130 O   0  0  0  0  0  0  0  0  0  0  0  0
    3.5350   66.9980   64.3170 C   0  0  0  0  0  0  0  0  0  0  0  0
    2.3980   66.7190   65.0800 C   0  0  0  0  0  0  0  0  0  0  0  0
    2.1050   67.5730   66.1290 C   0  0  0  0  0  0  0  0  0  0  0  0
    2.8790   68.6770   66.4470 C   0  0  0  0  0  0  0  0  0  0  0  0
    4.0070   68.9710   65.6960 C   0  0  0  0  0  0  0  0  0  0  0  0
    4.3450   68.1260   64.6270 C   0  0  0  0  0  0  0  0  0  0  0  0
    2.3170   69.4630   67.5920 C   0  0  0  0  0  0  0  0  0  0  0  0
    1.1590   68.5880   68.1370 C   0  0  1  0  0  0  0  0  0  0  0  0
    0.9940   67.4990   67.0680 C   0  0  0  0  0  0  0  0  0  0  0  0
    0.0970   66.6720   66.9900 O   0  0  0  0  0  0  0  0  0  0  0  0
    4.3160   64.8900   63.4920 C   0  0  0  0  0  0  0  0  0  0  0  0
    3.9520   66.2410   63.2500 O   0  0  0  0  0  0  0  0  0  0  0  0
    5.4360   68.3130   63.8140 O   0  0  0  0  0  0  0  0  0  0  0  0
    5.3400   69.2880   62.7840 C   0  0  0  0  0  0  0  0  0  0  0  0
    1.3130   66.7910   69.7270 C   0  0  0  0  0  0  0  0  0  0  0  0
   -0.0230   66.4910   69.9920 C   0  0  0  0  0  0  0  0  0  0  0  0
   -0.3960   65.2070   70.3820 C   0  0  0  0  0  0  0  0  0  0  0  0
    0.5690   64.2110   70.5230 C   0  0  0  0  0  0  0  0  0  0  0  0
    1.9180   64.4820   70.2400 C   0  0  0  0  0  0  0  0  0  0  0  0
    2.2690   65.7790   69.8150 C   0  0  0  0  0  0  0  0  0  0  0  0
    3.0160   63.4550   70.4680 C   0  0  2  0  0  0  0  0  0  0  0  0
    3.6830   63.0190   69.1590 C   0  0  0  0  0  0  0  0  0  0  0  0
    2.4610   62.2450   71.2020 N   0  0  0  0  0  4  0  0  0  0  0  0
    2.8830   60.8900   70.7040 C   0  0  0  0  0  0  0  0  0  0  0  0
    2.4960   59.9850   71.8520 C   0  0  0  0  0  0  0  0  0  0  0  0
    2.9170   60.7730   73.0750 C   0  0  0  0  0  0  0  0  0  0  0  0
    2.7490   62.2400   72.7020 C   0  0  0  0  0  0  0  0  0  0  0  0
    1.7591   65.8522   64.8551 H   0  0  0  0  0  0  0  0  0  0  0  0
    4.6251   69.8494   65.9333 H   0  0  0  0  0  0  0  0  0  0  0  0
    3.0817   69.6213   68.3667 H   0  0  0  0  0  0  0  0  0  0  0  0
    1.9751   70.4621   67.2838 H   0  0  0  0  0  0  0  0  0  0  0  0
    0.1993   69.1018   68.2953 H   0  0  0  0  0  0  0  0  0  0  0  0
    4.3640   64.7118   64.5764 H   0  0  0  0  0  0  0  0  0  0  0  0
    3.5658   64.2221   63.0435 H   0  0  0  0  0  0  0  0  0  0  0  0
    5.3002   64.6895   63.0435 H   0  0  0  0  0  0  0  0  0  0  0  0
    5.2416   70.2873   63.2331 H   0  0  0  0  0  0  0  0  0  0  0  0
    6.2459   69.2536   62.1609 H   0  0  0  0  0  0  0  0  0  0  0  0
    4.4582   69.0776   62.1609 H   0  0  0  0  0  0  0  0  0  0  0  0
   -0.7883   67.2748   69.8922 H   0  0  0  0  0  0  0  0  0  0  0  0
   -1.4538   64.9785   70.5791 H   0  0  0  0  0  0  0  0  0  0  0  0
    0.2722   63.2062   70.8581 H   0  0  0  0  0  0  0  0  0  0  0  0
    3.3137   65.9969   69.5484 H   0  0  0  0  0  0  0  0  0  0  0  0
    3.7889   63.9353   71.0860 H   0  0  0  0  0  0  0  0  0  0  0  0
    4.5841   62.4300   69.3851 H   0  0  0  0  0  0  0  0  0  0  0  0
    2.9804   62.4052   68.5762 H   0  0  0  0  0  0  0  0  0  0  0  0
    3.9633   63.9088   68.5762 H   0  0  0  0  0  0  0  0  0  0  0  0
    1.4594   62.3749   71.0002 H   0  0  0  0  0  0  0  0  0  0  0  0
    2.3437   60.6186   69.7845 H   0  0  0  0  0  0  0  0  0  0  0  0
    3.9492   60.8321   70.4399 H   0  0  0  0  0  0  0  0  0  0  0  0
    1.4121   59.7978   71.8579 H   0  0  0  0  0  0  0  0  0  0  0  0
    2.9682   58.9931   71.7958 H   0  0  0  0  0  0  0  0  0  0  0  0
    2.2764   60.5201   73.9327 H   0  0  0  0  0  0  0  0  0  0  0  0
    3.9531   60.5455   73.3661 H   0  0  0  0  0  0  0  0  0  0  0  0
    3.6702   62.8005   72.9192 H   0  0  0  0  0  0  0  0  0  0  0  0
    1.9418   62.7188   73.2758 H   0  0  0  0  0  0  0  0  0  0  0  0
  3  2  2  0
  4  3  1  0
  5  4  2  0
  6  5  1  0
  7  6  2  0
  7  2  1  0
  8  5  1  0
  9  8  1  0
  9  1  1  0
 10  9  1  0
 10  4  1  0
 11 10  2  0
 13 12  1  0
 13  2  1  0
 14  7  1  0
 15 14  1  0
 16  1  1  0
 17 16  2  0
 18 17  1  0
 19 18  2  0
 20 19  1  0
 21 20  2  0
 21 16  1  0
 22 20  1  0
 23 22  1  0
 24 22  1  0
 25 24  1  0
 26 25  1  0
 27 26  1  0
 28 24  1  0
 28 27  1  0
  3 29  1  0
  6 30  1  0
  8 31  1  0
  8 32  1  0
  9 33  1  1
 12 34  1  0
 12 35  1  0
 12 36  1  0
 15 37  1  0
 15 38  1  0
 15 39  1  0
 17 40  1  0
 18 41  1  0
 19 42  1  0
 21 43  1  0
 22 44  1  1
 23 45  1  0
 23 46  1  0
 23 47  1  0
 24 48  1  0
 25 49  1  0
 25 50  1  0
 26 51  1  0
 26 52  1  0
 27 53  1  0
 27 54  1  0
 28 55  1  0
 28 56  1  0
M  CHG  1  24   1
M  END
>  <score>  (5) 
-8.543

$$$$
=
     RDKit          3D

 56 59  0  0  0  0  0  0  0  0999 V2000
    3.4470   60.2060   69.9670 O   0  0  0  0  0  0  0  0  0  0  0  0
    0.8700   56.8730   73.6230 C   0  0  0  0  0  0  0  0  0  0  0  0
    1.7360   56.7580   72.5320 C   0  0  0  0  0  0  0  0  0  0  0  0
    2.4990   57.8640   72.2010 C   0  0  0  0  0  0  0  0  0  0  0  0
    2.4400   59.0620   72.8950 C   0  0  0  0  0  0  0  0  0  0  0  0
    1.5900   59.1900   73.9830 C   0  0  0  0  0  0  0  0  0  0  0  0
    0.7930   58.0930   74.3500 C   0  0  0  0  0  0  0  0  0  0  0  0
    3.4010   60.0820   72.3660 C   0  0  0  0  0  0  0  0  0  0  0  0
    3.9590   59.4550   71.0620 C   0  0  1  0  0  0  0  0  0  0  0  0
    3.4610   58.0040   71.1160 C   0  0  0  0  0  0  0  0  0  0  0  0
    3.7840   57.0850   70.3770 O   0  0  0  0  0  0  0  0  0  0  0  0
    0.5970   54.5550   74.1550 C   0  0  0  0  0  0  0  0  0  0  0  0
    0.0530   55.8630   74.0670 O   0  0  0  0  0  0  0  0  0  0  0  0
   -0.0850   58.1000   75.4050 O   0  0  0  0  0  0  0  0  0  0  0  0
    0.4490   57.9950   76.7180 C   0  0  0  0  0  0  0  0  0  0  0  0
    3.1900   61.5350   70.1340 C   0  0  0  0  0  0  0  0  0  0  0  0
    4.3240   62.3350   70.2690 C   0  0  0  0  0  0  0  0  0  0  0  0
    4.2030   63.7030   70.5040 C   0  0  0  0  0  0  0  0  0  0  0  0
    2.9400   64.2820   70.6200 C   0  0  0  0  0  0  0  0  0  0  0  0
    1.7830   63.5020   70.4660 C   0  0  0  0  0  0  0  0  0  0  0  0
    1.9280   62.1270   70.1950 C   0  0  0  0  0  0  0  0  0  0  0  0
    0.3880   64.0720   70.6750 C   0  0  2  0  0  0  0  0  0  0  0  0
    0.3650   65.6010   70.5750 C   0  0  0  0  0  0  0  0  0  0  0  0
   -0.1680   63.6270   72.0180 N   0  0  0  0  0  4  0  0  0  0  0  0
   -0.4170   62.1560   72.2020 C   0  0  0  0  0  0  0  0  0  0  0  0
   -0.5690   62.0340   73.7010 C   0  0  0  0  0  0  0  0  0  0  0  0
    0.5250   62.9350   74.2370 C   0  0  0  0  0  0  0  0  0  0  0  0
    0.6790   64.0540   73.2150 C   0  0  0  0  0  0  0  0  0  0  0  0
    1.8084   55.8227   71.9576 H   0  0  0  0  0  0  0  0  0  0  0  0
    1.5407   60.1326   74.5479 H   0  0  0  0  0  0  0  0  0  0  0  0
    2.8833   61.0285   72.1511 H   0  0  0  0  0  0  0  0  0  0  0  0
    4.1962   60.3196   73.0879 H   0  0  0  0  0  0  0  0  0  0  0  0
    5.0532   59.4689   70.9503 H   0  0  0  0  0  0  0  0  0  0  0  0
    0.7128   54.2765   75.2128 H   0  0  0  0  0  0  0  0  0  0  0  0
   -0.0794   53.8425   73.6602 H   0  0  0  0  0  0  0  0  0  0  0  0
    1.5792   54.5323   73.6602 H   0  0  0  0  0  0  0  0  0  0  0  0
   -0.3533   58.1528   77.4538 H   0  0  0  0  0  0  0  0  0  0  0  0
    0.8835   56.9942   76.8582 H   0  0  0  0  0  0  0  0  0  0  0  0
    1.2301   58.7568   76.8582 H   0  0  0  0  0  0  0  0  0  0  0  0
    5.3232   61.8820   70.1892 H   0  0  0  0  0  0  0  0  0  0  0  0
    5.1043   64.3265   70.5981 H   0  0  0  0  0  0  0  0  0  0  0  0
    2.8495   65.3573   70.8336 H   0  0  0  0  0  0  0  0  0  0  0  0
    1.0322   61.5105   70.0289 H   0  0  0  0  0  0  0  0  0  0  0  0
   -0.2479   63.6802   69.8675 H   0  0  0  0  0  0  0  0  0  0  0  0
    0.3585   66.0345   71.5860 H   0  0  0  0  0  0  0  0  0  0  0  0
    1.2580   65.9465   70.0336 H   0  0  0  0  0  0  0  0  0  0  0  0
   -0.5380   65.9195   70.0336 H   0  0  0  0  0  0  0  0  0  0  0  0
   -1.0746   64.1150   71.9908 H   0  0  0  0  0  0  0  0  0  0  0  0
   -1.3338   61.8401   71.6826 H   0  0  0  0  0  0  0  0  0  0  0  0
    0.3813   61.5215   71.7895 H   0  0  0  0  0  0  0  0  0  0  0  0
   -1.5606   62.3820   74.0261 H   0  0  0  0  0  0  0  0  0  0  0  0
   -0.4865   60.9971   74.0590 H   0  0  0  0  0  0  0  0  0  0  0  0
    0.2369   63.3469   75.2155 H   0  0  0  0  0  0  0  0  0  0  0  0
    1.4672   62.3860   74.3813 H   0  0  0  0  0  0  0  0  0  0  0  0
    1.7332   64.1647   72.9210 H   0  0  0  0  0  0  0  0  0  0  0  0
    0.3572   65.0252   73.6191 H   0  0  0  0  0  0  0  0  0  0  0  0
  3  2  2  0
  4  3  1  0
  5  4  2  0
  6  5  1  0
  7  6  2  0
  7  2  1  0
  8  5  1  0
  9  8  1  0
  9  1  1  0
 10  9  1  0
 10  4  1  0
 11 10  2  0
 13 12  1  0
 13  2  1  0
 14  7  1  0
 15 14  1  0
 16  1  1  0
 17 16  2  0
 18 17  1  0
 19 18  2  0
 20 19  1  0
 21 20  2  0
 21 16  1  0
 22 20  1  0
 23 22  1  0
 24 22  1  0
 25 24  1  0
 26 25  1  0
 27 26  1  0
 28 24  1  0
 28 27  1  0
  3 29  1  0
  6 30  1  0
  8 31  1  0
  8 32  1  0
  9 33  1  1
 12 34  1  0
 12 35  1  0
 12 36  1  0
 15 37  1  0
 15 38  1  0
 15 39  1  0
 17 40  1  0
 18 41  1  0
 19 42  1  0
 21 43  1  0
 22 44  1  6
 23 45  1  0
 23 46  1  0
 23 47  1  0
 24 48  1  0
 25 49  1  0
 25 50  1  0
 26 51  1  0
 26 52  1  0
 27 53  1  0
 27 54  1  0
 28 55  1  0
 28 56  1  0
M  CHG  1  24   1
M  END
>  <score>  (6) 
-8.315

$$$$
=
     RDKit          3D

 56 59  0  0  0  0  0  0  0  0999 V2000
    3.6790   58.5490   72.5850 O   0  0  0  0  0  0  0  0  0  0  0  0
   -1.1100   61.1240   73.8300 C   0  0  0  0  0  0  0  0  0  0  0  0
   -0.6580   59.8300   73.5580 C   0  0  0  0  0  0  0  0  0  0  0  0
    0.6860   59.5660   73.7590 C   0  0  0  0  0  0  0  0  0  0  0  0
    1.5860   60.5160   74.2130 C   0  0  0  0  0  0  0  0  0  0  0  0
    1.1520   61.8030   74.4920 C   0  0  0  0  0  0  0  0  0  0  0  0
   -0.2020   62.1160   74.2960 C   0  0  0  0  0  0  0  0  0  0  0  0
    2.9670   59.9620   74.3920 C   0  0  0  0  0  0  0  0  0  0  0  0
    2.9010   58.5400   73.7760 C   0  0  1  0  0  0  0  0  0  0  0  0
    1.4000   58.3140   73.5450 C   0  0  0  0  0  0  0  0  0  0  0  0
    0.8530   57.2720   73.2190 O   0  0  0  0  0  0  0  0  0  0  0  0
   -3.4160   60.8520   74.4140 C   0  0  0  0  0  0  0  0  0  0  0  0
   -2.4120   61.5330   73.6770 O   0  0  0  0  0  0  0  0  0  0  0  0
   -0.7490   63.3530   74.5370 O   0  0  0  0  0  0  0  0  0  0  0  0
    0.1090   64.3760   75.0230 C   0  0  0  0  0  0  0  0  0  0  0  0
    3.9590   59.7400   71.9820 C   0  0  0  0  0  0  0  0  0  0  0  0
    4.9310   60.5040   72.6270 C   0  0  0  0  0  0  0  0  0  0  0  0
    5.2710   61.7680   72.1500 C   0  0  0  0  0  0  0  0  0  0  0  0
    4.6290   62.2860   71.0260 C   0  0  0  0  0  0  0  0  0  0  0  0
    3.6630   61.5270   70.3460 C   0  0  0  0  0  0  0  0  0  0  0  0
    3.3580   60.2380   70.8260 C   0  0  0  0  0  0  0  0  0  0  0  0
    2.8720   62.0870   69.1730 C   0  0  2  0  0  0  0  0  0  0  0  0
    3.7600   62.8580   68.1900 C   0  0  0  0  0  0  0  0  0  0  0  0
    1.7470   62.9780   69.6730 N   0  0  0  0  0  4  0  0  0  0  0  0
    1.0190   62.5330   70.9110 C   0  0  0  0  0  0  0  0  0  0  0  0
    0.2860   63.7870   71.3280 C   0  0  0  0  0  0  0  0  0  0  0  0
    1.3140   64.8790   71.1140 C   0  0  0  0  0  0  0  0  0  0  0  0
    2.1670   64.4210   69.9390 C   0  0  0  0  0  0  0  0  0  0  0  0
   -1.3448   59.0500   73.1975 H   0  0  0  0  0  0  0  0  0  0  0  0
    1.8556   62.5643   74.8600 H   0  0  0  0  0  0  0  0  0  0  0  0
    3.7055   60.5811   73.8616 H   0  0  0  0  0  0  0  0  0  0  0  0
    3.2763   59.9454   75.4475 H   0  0  0  0  0  0  0  0  0  0  0  0
    3.3079   57.7267   74.3949 H   0  0  0  0  0  0  0  0  0  0  0  0
   -3.2297   60.9784   75.4907 H   0  0  0  0  0  0  0  0  0  0  0  0
   -4.4023   61.2683   74.1612 H   0  0  0  0  0  0  0  0  0  0  0  0
   -3.3940   59.7817   74.1612 H   0  0  0  0  0  0  0  0  0  0  0  0
    0.1025   64.3682   76.1230 H   0  0  0  0  0  0  0  0  0  0  0  0
    1.1325   64.1987   74.6611 H   0  0  0  0  0  0  0  0  0  0  0  0
   -0.2438   65.3530   74.6611 H   0  0  0  0  0  0  0  0  0  0  0  0
    5.4338   60.1051   73.5204 H   0  0  0  0  0  0  0  0  0  0  0  0
    6.0466   62.3578   72.6605 H   0  0  0  0  0  0  0  0  0  0  0  0
    4.8808   63.2957   70.6696 H   0  0  0  0  0  0  0  0  0  0  0  0
    2.6344   59.6144   70.2805 H   0  0  0  0  0  0  0  0  0  0  0  0
    2.4461   61.2311   68.6289 H   0  0  0  0  0  0  0  0  0  0  0  0
    4.4747   63.4785   68.7506 H   0  0  0  0  0  0  0  0  0  0  0  0
    4.3101   62.1462   67.5570 H   0  0  0  0  0  0  0  0  0  0  0  0
    3.1325   63.5026   67.5570 H   0  0  0  0  0  0  0  0  0  0  0  0
    1.1080   62.9020   68.8688 H   0  0  0  0  0  0  0  0  0  0  0  0
    0.3157   61.7174   70.6870 H   0  0  0  0  0  0  0  0  0  0  0  0
    1.6839   62.1339   71.6911 H   0  0  0  0  0  0  0  0  0  0  0  0
   -0.6013   63.9524   70.6992 H   0  0  0  0  0  0  0  0  0  0  0  0
   -0.0873   63.7438   72.3618 H   0  0  0  0  0  0  0  0  0  0  0  0
    0.8174   65.8318   70.8784 H   0  0  0  0  0  0  0  0  0  0  0  0
    1.9221   65.0449   72.0155 H   0  0  0  0  0  0  0  0  0  0  0  0
    3.2353   64.4699   70.1966 H   0  0  0  0  0  0  0  0  0  0  0  0
    2.0227   65.0592   69.0548 H   0  0  0  0  0  0  0  0  0  0  0  0
  3  2  2  0
  4  3  1  0
  5  4  2  0
  6  5  1  0
  7  6  2  0
  7  2  1  0
  8  5  1  0
  9  8  1  0
  9  1  1  0
 10  9  1  0
 10  4  1  0
 11 10  2  0
 13 12  1  0
 13  2  1  0
 14  7  1  0
 15 14  1  0
 16  1  1  0
 17 16  2  0
 18 17  1  0
 19 18  2  0
 20 19  1  0
 21 20  2  0
 21 16  1  0
 22 20  1  0
 23 22  1  0
 24 22  1  0
 25 24  1  0
 26 25  1  0
 27 26  1  0
 28 24  1  0
 28 27  1  0
  3 29  1  0
  6 30  1  0
  8 31  1  0
  8 32  1  0
  9 33  1  1
 12 34  1  0
 12 35  1  0
 12 36  1  0
 15 37  1  0
 15 38  1  0
 15 39  1  0
 17 40  1  0
 18 41  1  0
 19 42  1  0
 21 43  1  0
 22 44  1  6
 23 45  1  0
 23 46  1  0
 23 47  1  0
 24 48  1  0
 25 49  1  0
 25 50  1  0
 26 51  1  0
 26 52  1  0
 27 53  1  0
 27 54  1  0
 28 55  1  0
 28 56  1  0
M  CHG  1  24   1
M  END
>  <score>  (7) 
-8.257

$$$$
=
     RDKit          3D

 56 59  0  0  0  0  0  0  0  0999 V2000
    0.7960   61.1610   71.7590 O   0  0  0  0  0  0  0  0  0  0  0  0
    0.5040   55.9850   73.8160 C   0  0  0  0  0  0  0  0  0  0  0  0
    1.4740   56.8610   73.3210 C   0  0  0  0  0  0  0  0  0  0  0  0
    1.1890   58.2150   73.3500 C   0  0  0  0  0  0  0  0  0  0  0  0
    0.0020   58.7300   73.8450 C   0  0  0  0  0  0  0  0  0  0  0  0
   -0.9680   57.8740   74.3450 C   0  0  0  0  0  0  0  0  0  0  0  0
   -0.7220   56.4910   74.3280 C   0  0  0  0  0  0  0  0  0  0  0  0
   -0.0360   60.2270   73.8090 C   0  0  0  0  0  0  0  0  0  0  0  0
    1.2280   60.6310   73.0070 C   0  0  1  0  0  0  0  0  0  0  0  0
    2.0190   59.3210   72.8930 C   0  0  0  0  0  0  0  0  0  0  0  0
    3.1600   59.1820   72.4770 O   0  0  0  0  0  0  0  0  0  0  0  0
    1.8060   54.0840   74.4680 C   0  0  0  0  0  0  0  0  0  0  0  0
    0.6450   54.6200   73.8500 O   0  0  0  0  0  0  0  0  0  0  0  0
   -1.6050   55.5480   74.7930 O   0  0  0  0  0  0  0  0  0  0  0  0
   -2.4470   55.9030   75.8820 C   0  0  0  0  0  0  0  0  0  0  0  0
    1.4120   62.2710   71.2580 C   0  0  0  0  0  0  0  0  0  0  0  0
    2.7650   62.1030   70.9640 C   0  0  0  0  0  0  0  0  0  0  0  0
    3.5270   63.1720   70.5010 C   0  0  0  0  0  0  0  0  0  0  0  0
    2.9440   64.4280   70.3400 C   0  0  0  0  0  0  0  0  0  0  0  0
    1.5790   64.6180   70.6090 C   0  0  0  0  0  0  0  0  0  0  0  0
    0.8180   63.5140   71.0440 C   0  0  0  0  0  0  0  0  0  0  0  0
    0.9220   65.9880   70.5360 C   0  0  2  0  0  0  0  0  0  0  0  0
   -0.3310   66.0770   71.4150 C   0  0  0  0  0  0  0  0  0  0  0  0
    0.5770   66.3310   69.0960 N   0  0  0  0  0  4  0  0  0  0  0  0
   -0.8800   66.4870   68.7600 C   0  0  0  0  0  0  0  0  0  0  0  0
   -0.8340   67.1890   67.4210 C   0  0  0  0  0  0  0  0  0  0  0  0
    0.2630   68.2190   67.6060 C   0  0  0  0  0  0  0  0  0  0  0  0
    1.2570   67.5960   68.5780 C   0  0  0  0  0  0  0  0  0  0  0  0
    2.4291   56.4879   72.9229 H   0  0  0  0  0  0  0  0  0  0  0  0
   -1.9120   58.2705   74.7472 H   0  0  0  0  0  0  0  0  0  0  0  0
   -0.9465   60.5803   73.3028 H   0  0  0  0  0  0  0  0  0  0  0  0
   -0.0496   60.6683   74.8165 H   0  0  0  0  0  0  0  0  0  0  0  0
    1.8600   61.4081   73.4617 H   0  0  0  0  0  0  0  0  0  0  0  0
    1.6960   54.1348   75.5613 H   0  0  0  0  0  0  0  0  0  0  0  0
    1.9341   53.0356   74.1607 H   0  0  0  0  0  0  0  0  0  0  0  0
    2.6871   54.6665   74.1607 H   0  0  0  0  0  0  0  0  0  0  0  0
   -1.9321   55.6859   76.8295 H   0  0  0  0  0  0  0  0  0  0  0  0
   -2.6813   56.9765   75.8296 H   0  0  0  0  0  0  0  0  0  0  0  0
   -3.3791   55.3213   75.8296 H   0  0  0  0  0  0  0  0  0  0  0  0
    3.2340   61.1172   71.0992 H   0  0  0  0  0  0  0  0  0  0  0  0
    4.5906   63.0255   70.2618 H   0  0  0  0  0  0  0  0  0  0  0  0
    3.5572   65.2756   70.0001 H   0  0  0  0  0  0  0  0  0  0  0  0
   -0.2615   63.6352   71.2173 H   0  0  0  0  0  0  0  0  0  0  0  0
    1.6475   66.7190   70.9224 H   0  0  0  0  0  0  0  0  0  0  0  0
   -0.0376   66.0562   72.4749 H   0  0  0  0  0  0  0  0  0  0  0  0
   -0.8636   67.0152   71.2004 H   0  0  0  0  0  0  0  0  0  0  0  0
   -0.9908   65.2235   71.2004 H   0  0  0  0  0  0  0  0  0  0  0  0
    0.9335   65.4822   68.6340 H   0  0  0  0  0  0  0  0  0  0  0  0
   -1.3762   65.5086   68.6790 H   0  0  0  0  0  0  0  0  0  0  0  0
   -1.4497   67.0366   69.5238 H   0  0  0  0  0  0  0  0  0  0  0  0
   -0.5814   66.4844   66.6149 H   0  0  0  0  0  0  0  0  0  0  0  0
   -1.7985   67.6335   67.1341 H   0  0  0  0  0  0  0  0  0  0  0  0
    0.7516   68.4353   66.6445 H   0  0  0  0  0  0  0  0  0  0  0  0
   -0.1351   69.1706   67.9882 H   0  0  0  0  0  0  0  0  0  0  0  0
    1.4688   68.2866   69.4076 H   0  0  0  0  0  0  0  0  0  0  0  0
    2.2196   67.3746   68.0938 H   0  0  0  0  0  0  0  0  0  0  0  0
  3  2  2  0
  4  3  1  0
  5  4  2  0
  6  5  1  0
  7  6  2  0
  7  2  1  0
  8  5  1  0
  9  8  1  0
  9  1  1  0
 10  9  1  0
 10  4  1  0
 11 10  2  0
 13 12  1  0
 13  2  1  0
 14  7  1  0
 15 14  1  0
 16  1  1  0
 17 16  2  0
 18 17  1  0
 19 18  2  0
 20 19  1  0
 21 20  2  0
 21 16  1  0
 22 20  1  0
 23 22  1  0
 24 22  1  0
 25 24  1  0
 26 25  1  0
 27 26  1  0
 28 24  1  0
 28 27  1  0
  3 29  1  0
  6 30  1  0
  8 31  1  0
  8 32  1  0
  9 33  1  1
 12 34  1  0
 12 35  1  0
 12 36  1  0
 15 37  1  0
 15 38  1  0
 15 39  1  0
 17 40  1  0
 18 41  1  0
 19 42  1  0
 21 43  1  0
 22 44  1  1
 23 45  1  0
 23 46  1  0
 23 47  1  0
 24 48  1  0
 25 49  1  0
 25 50  1  0
 26 51  1  0
 26 52  1  0
 27 53  1  0
 27 54  1  0
 28 55  1  0
 28 56  1  0
M  CHG  1  24   1
M  END
>  <score>  (8) 
-8.206

$$$$
=
     RDKit          3D

 56 59  0  0  0  0  0  0  0  0999 V2000
    4.2920   62.5280   71.0150 O   0  0  0  0  0  0  0  0  0  0  0  0
    2.2260   57.8560   73.2540 C   0  0  0  0  0  0  0  0  0  0  0  0
    2.4040   58.4190   71.9880 C   0  0  0  0  0  0  0  0  0  0  0  0
    3.3800   59.3910   71.8500 C   0  0  0  0  0  0  0  0  0  0  0  0
    4.1760   59.8210   72.9000 C   0  0  0  0  0  0  0  0  0  0  0  0
    4.0150   59.2680   74.1610 C   0  0  0  0  0  0  0  0  0  0  0  0
    3.0320   58.2820   74.3460 C   0  0  0  0  0  0  0  0  0  0  0  0
    5.1850   60.8440   72.4760 C   0  0  0  0  0  0  0  0  0  0  0  0
    4.7950   61.1970   71.0170 C   0  0  1  0  0  0  0  0  0  0  0  0
    3.7540   60.1310   70.6520 C   0  0  0  0  0  0  0  0  0  0  0  0
    3.2760   59.9130   69.5480 O   0  0  0  0  0  0  0  0  0  0  0  0
   -0.0480   57.2860   73.7410 C   0  0  0  0  0  0  0  0  0  0  0  0
    1.3000   56.8840   73.5420 O   0  0  0  0  0  0  0  0  0  0  0  0
    2.7800   57.6630   75.5460 O   0  0  0  0  0  0  0  0  0  0  0  0
    3.8910   57.2320   76.3190 C   0  0  0  0  0  0  0  0  0  0  0  0
    2.9730   62.7410   71.2890 C   0  0  0  0  0  0  0  0  0  0  0  0
    2.2060   63.1330   70.1930 C   0  0  0  0  0  0  0  0  0  0  0  0
    0.8560   63.4410   70.3450 C   0  0  0  0  0  0  0  0  0  0  0  0
    0.2620   63.3710   71.6050 C   0  0  0  0  0  0  0  0  0  0  0  0
    1.0070   62.9580   72.7210 C   0  0  0  0  0  0  0  0  0  0  0  0
    2.3630   62.6190   72.5380 C   0  0  0  0  0  0  0  0  0  0  0  0
    0.4270   62.9550   74.1260 C   0  0  2  0  0  0  0  0  0  0  0  0
    1.2830   62.1460   75.1060 C   0  0  0  0  0  0  0  0  0  0  0  0
   -0.9960   62.4200   74.1080 N   0  0  0  0  0  4  0  0  0  0  0  0
   -1.2090   61.0660   73.4920 C   0  0  0  0  0  0  0  0  0  0  0  0
   -2.5890   60.6950   73.9870 C   0  0  0  0  0  0  0  0  0  0  0  0
   -2.5710   61.1400   75.4350 C   0  0  0  0  0  0  0  0  0  0  0  0
   -1.6540   62.3550   75.4840 C   0  0  0  0  0  0  0  0  0  0  0  0
    1.7908   58.1015   71.1317 H   0  0  0  0  0  0  0  0  0  0  0  0
    4.6453   59.5953   75.0010 H   0  0  0  0  0  0  0  0  0  0  0  0
    5.1289   61.7346   73.1192 H   0  0  0  0  0  0  0  0  0  0  0  0
    6.2164   60.4695   72.5531 H   0  0  0  0  0  0  0  0  0  0  0  0
    5.6132   61.1835   70.2819 H   0  0  0  0  0  0  0  0  0  0  0  0
   -0.2567   57.3482   74.8192 H   0  0  0  0  0  0  0  0  0  0  0  0
   -0.2088   58.2712   73.2789 H   0  0  0  0  0  0  0  0  0  0  0  0
   -0.7222   56.5498   73.2789 H   0  0  0  0  0  0  0  0  0  0  0  0
    3.6516   57.3249   77.3886 H   0  0  0  0  0  0  0  0  0  0  0  0
    4.1160   56.1813   76.0835 H   0  0  0  0  0  0  0  0  0  0  0  0
    4.7657   57.8560   76.0835 H   0  0  0  0  0  0  0  0  0  0  0  0
    2.6713   63.1998   69.1985 H   0  0  0  0  0  0  0  0  0  0  0  0
    0.2583   63.7395   69.4711 H   0  0  0  0  0  0  0  0  0  0  0  0
   -0.7975   63.6412   71.7252 H   0  0  0  0  0  0  0  0  0  0  0  0
    2.9495   62.2525   73.3934 H   0  0  0  0  0  0  0  0  0  0  0  0
    0.4219   63.9971   74.4780 H   0  0  0  0  0  0  0  0  0  0  0  0
    1.0058   62.4080   76.1377 H   0  0  0  0  0  0  0  0  0  0  0  0
    1.1120   61.0718   74.9419 H   0  0  0  0  0  0  0  0  0  0  0  0
    2.3458   62.3773   74.9419 H   0  0  0  0  0  0  0  0  0  0  0  0
   -1.4323   63.1308   73.5035 H   0  0  0  0  0  0  0  0  0  0  0  0
   -1.1818   61.1202   72.3937 H   0  0  0  0  0  0  0  0  0  0  0  0
   -0.4342   60.3339   73.7633 H   0  0  0  0  0  0  0  0  0  0  0  0
   -3.3672   61.2276   73.4207 H   0  0  0  0  0  0  0  0  0  0  0  0
   -2.8158   59.6252   73.8682 H   0  0  0  0  0  0  0  0  0  0  0  0
   -3.5846   61.4115   75.7650 H   0  0  0  0  0  0  0  0  0  0  0  0
   -2.2175   60.3387   76.1006 H   0  0  0  0  0  0  0  0  0  0  0  0
   -0.8935   62.2321   76.2692 H   0  0  0  0  0  0  0  0  0  0  0  0
   -2.2072   63.2767   75.7176 H   0  0  0  0  0  0  0  0  0  0  0  0
  3  2  2  0
  4  3  1  0
  5  4  2  0
  6  5  1  0
  7  6  2  0
  7  2  1  0
  8  5  1  0
  9  8  1  0
  9  1  1  0
 10  9  1  0
 10  4  1  0
 11 10  2  0
 13 12  1  0
 13  2  1  0
 14  7  1  0
 15 14  1  0
 16  1  1  0
 17 16  2  0
 18 17  1  0
 19 18  2  0
 20 19  1  0
 21 20  2  0
 21 16  1  0
 22 20  1  0
 23 22  1  0
 24 22  1  0
 25 24  1  0
 26 25  1  0
 27 26  1  0
 28 24  1  0
 28 27  1  0
  3 29  1  0
  6 30  1  0
  8 31  1  0
  8 32  1  0
  9 33  1  6
 12 34  1  0
 12 35  1  0
 12 36  1  0
 15 37  1  0
 15 38  1  0
 15 39  1  0
 17 40  1  0
 18 41  1  0
 19 42  1  0
 21 43  1  0
 22 44  1  1
 23 45  1  0
 23 46  1  0
 23 47  1  0
 24 48  1  0
 25 49  1  0
 25 50  1  0
 26 51  1  0
 26 52  1  0
 27 53  1  0
 27 54  1  0
 28 55  1  0
 28 56  1  0
M  CHG  1  24   1
M  END
>  <score>  (9) 
-8.119

$$$$
