=
     RDKit          3D

105107  0  0  0  0  0  0  0  0999 V2000
    1.2650   63.3890   71.3340 N   0  0  0  0  0  0  0  0  0  0  0  0
    1.3420   63.3750   72.7230 C   0  0  0  0  0  0  0  0  0  0  0  0
    0.3460   64.1420   73.5490 C   0  0  0  0  0  0  0  0  0  0  0  0
    2.3100   62.6840   73.3360 C   0  0  0  0  0  0  0  0  0  0  0  0
    3.3030   61.9330   72.5580 C   0  0  0  0  0  0  0  0  0  0  0  0
    4.2340   61.3810   73.1430 O   0  0  0  0  0  0  0  0  0  0  0  0
    3.1140   61.9080   71.1930 N   0  0  0  0  0  0  0  0  0  0  0  0
    2.1460   62.6490   70.5280 C   0  0  0  0  0  0  0  0  0  0  0  0
    2.0650   62.6580   69.2980 O   0  0  0  0  0  0  0  0  0  0  0  0
    4.0710   61.1460   70.4000 C   0  0  0  0  0  0  0  0  0  0  0  0
    3.4420   59.8660   69.8360 C   0  0  0  0  0  0  0  0  0  0  0  0
    3.4880   58.6870   70.8130 C   0  0  0  0  0  0  0  0  0  0  0  0
    2.4310   58.8000   71.9220 C   0  0  0  0  0  0  0  0  0  0  0  0
    2.1100   57.4220   72.5090 C   0  0  0  0  0  0  0  0  0  0  0  0
    1.2800   57.4760   73.8270 N   0  0  0  0  0  4  0  0  0  0  0  0
    1.9290   56.5980   74.9370 C   0  0  0  0  0  0  0  0  0  0  0  0
    2.6250   57.3870   76.0350 C   0  0  0  0  0  0  0  0  0  0  0  0
   -0.1530   56.9170   73.6100 C   0  0  0  0  0  0  0  0  0  0  0  0
   -0.2650   55.4060   73.7590 C   0  0  0  0  0  0  0  0  0  0  0  0
    1.2390   58.9920   74.2710 C   0  0  0  0  0  0  0  0  0  0  0  0
   -0.0990   59.7080   74.3320 C   0  0  0  0  0  0  0  0  0  0  0  0
   -0.5420   60.4460   73.2180 C   0  0  0  0  0  0  0  0  0  0  0  0
   -1.7780   61.1060   73.2200 C   0  0  0  0  0  0  0  0  0  0  0  0
   -2.6030   61.0620   74.3400 C   0  0  0  0  0  0  0  0  0  0  0  0
   -2.1860   60.3760   75.4750 C   0  0  0  0  0  0  0  0  0  0  0  0
   -0.9420   59.7270   75.4640 C   0  0  0  0  0  0  0  0  0  0  0  0
   -0.5450   59.0850   76.7000 N   0  0  0  0  0  4  0  0  0  0  0  0
    0.1990   59.7270   77.4500 O   0  0  0  0  0  0  0  0  0  0  0  0
   -0.9120   57.9170   76.8650 O   0  0  0  0  0  1  0  0  0  0  0  0
    0.2310   64.1530   70.6250 C   0  0  0  0  0  0  0  0  0  0  0  0
    0.4000   65.6670   70.8130 C   0  0  0  0  0  0  0  0  0  0  0  0
    1.2810   66.3190   69.7410 C   0  0  0  0  0  0  0  0  0  0  0  0
    0.5490   67.1940   68.7120 C   0  0  0  0  0  0  0  0  0  0  0  0
    1.5020   68.1430   67.9730 C   0  0  0  0  0  0  0  0  0  0  0  0
    1.5470   67.9470   66.4260 N   0  0  0  0  0  4  0  0  0  0  0  0
    0.1230   68.0170   65.7980 C   0  0  0  0  0  0  0  0  0  0  0  0
    0.0390   68.8880   64.5530 C   0  0  0  0  0  0  0  0  0  0  0  0
    2.4070   66.2380   64.6580 C   0  0  0  0  0  0  0  0  0  0  0  0
    2.1420   66.5320   66.1300 C   0  0  0  0  0  0  0  0  0  0  0  0
    2.4450   69.0600   65.7490 C   0  0  0  0  0  0  0  0  0  0  0  0
    3.7010   69.5230   66.4590 C   0  0  0  0  0  0  0  0  0  0  0  0
    3.5920   70.0150   67.7740 C   0  0  0  0  0  0  0  0  0  0  0  0
    4.7200   70.4460   68.4820 C   0  0  0  0  0  0  0  0  0  0  0  0
    5.9830   70.3970   67.8970 C   0  0  0  0  0  0  0  0  0  0  0  0
    6.1280   69.9200   66.5980 C   0  0  0  0  0  0  0  0  0  0  0  0
    4.9920   69.5000   65.8930 C   0  0  0  0  0  0  0  0  0  0  0  0
    5.2050   68.9760   64.5570 N   0  0  0  0  0  4  0  0  0  0  0  0
    5.4410   67.7690   64.4520 O   0  0  0  0  0  0  0  0  0  0  0  0
    5.2340   69.8010   63.6360 O   0  0  0  0  0  1  0  0  0  0  0  0
    0.5544   63.9815   74.6171 H   0  0  0  0  0  0  0  0  0  0  0  0
    0.4256   65.2143   73.3170 H   0  0  0  0  0  0  0  0  0  0  0  0
   -0.6704   63.7911   73.3170 H   0  0  0  0  0  0  0  0  0  0  0  0
    2.3624   62.6786   74.4347 H   0  0  0  0  0  0  0  0  0  0  0  0
    4.4203   61.7705   69.5646 H   0  0  0  0  0  0  0  0  0  0  0  0
    4.9090   60.8598   71.0526 H   0  0  0  0  0  0  0  0  0  0  0  0
    2.3905   60.0735   69.5884 H   0  0  0  0  0  0  0  0  0  0  0  0
    4.0274   59.5782   68.9503 H   0  0  0  0  0  0  0  0  0  0  0  0
    3.3127   57.7571   70.2521 H   0  0  0  0  0  0  0  0  0  0  0  0
    4.4776   58.6894   71.2932 H   0  0  0  0  0  0  0  0  0  0  0  0
    2.8144   59.4520   72.7207 H   0  0  0  0  0  0  0  0  0  0  0  0
    1.5115   59.2230   71.4913 H   0  0  0  0  0  0  0  0  0  0  0  0
    1.5378   56.8520   71.7622 H   0  0  0  0  0  0  0  0  0  0  0  0
    3.0713   56.9477   72.7557 H   0  0  0  0  0  0  0  0  0  0  0  0
    1.1388   55.9884   75.3995 H   0  0  0  0  0  0  0  0  0  0  0  0
    2.7048   55.9928   74.4452 H   0  0  0  0  0  0  0  0  0  0  0  0
    2.2975   57.0157   77.0173 H   0  0  0  0  0  0  0  0  0  0  0  0
    3.7140   57.2639   75.9410 H   0  0  0  0  0  0  0  0  0  0  0  0
    2.3670   58.4522   75.9410 H   0  0  0  0  0  0  0  0  0  0  0  0
   -0.8212   57.3864   74.3470 H   0  0  0  0  0  0  0  0  0  0  0  0
   -0.4293   57.1526   72.5716 H   0  0  0  0  0  0  0  0  0  0  0  0
   -0.2845   55.1433   74.8270 H   0  0  0  0  0  0  0  0  0  0  0  0
   -1.1914   55.0579   73.2788 H   0  0  0  0  0  0  0  0  0  0  0  0
    0.6000   54.9251   73.2788 H   0  0  0  0  0  0  0  0  0  0  0  0
    1.6782   59.0444   75.2781 H   0  0  0  0  0  0  0  0  0  0  0  0
    1.7805   59.5152   73.4692 H   0  0  0  0  0  0  0  0  0  0  0  0
    0.0973   60.5059   72.3249 H   0  0  0  0  0  0  0  0  0  0  0  0
   -2.0992   61.6640   72.3281 H   0  0  0  0  0  0  0  0  0  0  0  0
   -3.5799   61.5674   74.3272 H   0  0  0  0  0  0  0  0  0  0  0  0
   -2.8235   60.3424   76.3708 H   0  0  0  0  0  0  0  0  0  0  0  0
    0.2914   63.9201   69.5516 H   0  0  0  0  0  0  0  0  0  0  0  0
   -0.7462   63.8672   71.0414 H   0  0  0  0  0  0  0  0  0  0  0  0
   -0.5946   66.1357   70.7794 H   0  0  0  0  0  0  0  0  0  0  0  0
    0.8993   65.8203   71.7811 H   0  0  0  0  0  0  0  0  0  0  0  0
    2.0232   66.9496   70.2524 H   0  0  0  0  0  0  0  0  0  0  0  0
    1.7172   65.4875   69.1680 H   0  0  0  0  0  0  0  0  0  0  0  0
    0.0595   66.5398   67.9755 H   0  0  0  0  0  0  0  0  0  0  0  0
   -0.1853   67.8083   69.2537 H   0  0  0  0  0  0  0  0  0  0  0  0
    1.1845   69.1759   68.1784 H   0  0  0  0  0  0  0  0  0  0  0  0
    2.5130   67.9192   68.3441 H   0  0  0  0  0  0  0  0  0  0  0  0
   -0.1868   66.9966   65.5281 H   0  0  0  0  0  0  0  0  0  0  0  0
   -0.5356   68.4736   66.5515 H   0  0  0  0  0  0  0  0  0  0  0  0
   -0.0627   69.9424   64.8494 H   0  0  0  0  0  0  0  0  0  0  0  0
    0.9535   68.7618   63.9548 H   0  0  0  0  0  0  0  0  0  0  0  0
   -0.8345   68.5894   63.9548 H   0  0  0  0  0  0  0  0  0  0  0  0
    3.1413   65.4234   64.5732 H   0  0  0  0  0  0  0  0  0  0  0  0
    1.4683   65.9379   64.1693 H   0  0  0  0  0  0  0  0  0  0  0  0
    2.8026   67.1406   64.1693 H   0  0  0  0  0  0  0  0  0  0  0  0
    1.4338   65.7789   66.5060 H   0  0  0  0  0  0  0  0  0  0  0  0
    3.1211   66.5002   66.6303 H   0  0  0  0  0  0  0  0  0  0  0  0
    2.7542   68.6716   64.7674 H   0  0  0  0  0  0  0  0  0  0  0  0
    1.8009   69.9517   65.7442 H   0  0  0  0  0  0  0  0  0  0  0  0
    2.6030   70.0614   68.2533 H   0  0  0  0  0  0  0  0  0  0  0  0
    4.6081   70.8262   69.5081 H   0  0  0  0  0  0  0  0  0  0  0  0
    6.8647   70.7350   68.4612 H   0  0  0  0  0  0  0  0  0  0  0  0
    7.1224   69.8731   66.1300 H   0  0  0  0  0  0  0  0  0  0  0  0
  2  1  1  0
  3  2  1  0
  4  2  2  0
  5  4  1  0
  6  5  2  0
  7  5  1  0
  8  7  1  0
  8  1  1  0
  9  8  2  0
 10  7  1  0
 11 10  1  0
 12 11  1  0
 13 12  1  0
 14 13  1  0
 15 14  1  0
 16 15  1  0
 17 16  1  0
 18 15  1  0
 19 18  1  0
 20 15  1  0
 21 20  1  0
 22 21  2  0
 23 22  1  0
 24 23  2  0
 25 24  1  0
 26 21  1  0
 26 25  2  0
 27 26  1  0
 28 27  2  0
 29 27  1  0
 30  1  1  0
 31 30  1  0
 32 31  1  0
 33 32  1  0
 34 33  1  0
 35 34  1  0
 36 35  1  0
 37 36  1  0
 39 38  1  0
 39 35  1  0
 40 35  1  0
 41 40  1  0
 42 41  2  0
 43 42  1  0
 44 43  2  0
 45 44  1  0
 46 41  1  0
 46 45  2  0
 47 46  1  0
 48 47  2  0
 49 47  1  0
  3 50  1  0
  3 51  1  0
  3 52  1  0
  4 53  1  0
 10 54  1  0
 10 55  1  0
 11 56  1  0
 11 57  1  0
 12 58  1  0
 12 59  1  0
 13 60  1  0
 13 61  1  0
 14 62  1  0
 14 63  1  0
 16 64  1  0
 16 65  1  0
 17 66  1  0
 17 67  1  0
 17 68  1  0
 18 69  1  0
 18 70  1  0
 19 71  1  0
 19 72  1  0
 19 73  1  0
 20 74  1  0
 20 75  1  0
 22 76  1  0
 23 77  1  0
 24 78  1  0
 25 79  1  0
 30 80  1  0
 30 81  1  0
 31 82  1  0
 31 83  1  0
 32 84  1  0
 32 85  1  0
 33 86  1  0
 33 87  1  0
 34 88  1  0
 34 89  1  0
 36 90  1  0
 36 91  1  0
 37 92  1  0
 37 93  1  0
 37 94  1  0
 38 95  1  0
 38 96  1  0
 38 97  1  0
 39 98  1  0
 39 99  1  0
 40100  1  0
 40101  1  0
 42102  1  0
 43103  1  0
 44104  1  0
 45105  1  0
M  CHG  6  15   1  27   1  29  -1  35   1  47   1  49  -1
M  END
>  <score>  (1) 
-9.117

$$$$
=
     RDKit          3D

105107  0  0  0  0  0  0  0  0999 V2000
    1.2700   63.1570   71.3730 N   0  0  0  0  0  0  0  0  0  0  0  0
    1.3570   63.1760   72.7610 C   0  0  0  0  0  0  0  0  0  0  0  0
    0.3860   63.9880   73.5740 C   0  0  0  0  0  0  0  0  0  0  0  0
    2.3130   62.4770   73.3850 C   0  0  0  0  0  0  0  0  0  0  0  0
    3.2810   61.6830   72.6190 C   0  0  0  0  0  0  0  0  0  0  0  0
    4.2020   61.1220   73.2120 O   0  0  0  0  0  0  0  0  0  0  0  0
    3.0810   61.6290   71.2570 N   0  0  0  0  0  0  0  0  0  0  0  0
    2.1270   62.3770   70.5790 C   0  0  0  0  0  0  0  0  0  0  0  0
    2.0370   62.3570   69.3500 O   0  0  0  0  0  0  0  0  0  0  0  0
    4.0140   60.8240   70.4770 C   0  0  0  0  0  0  0  0  0  0  0  0
    3.4100   59.4620   70.1080 C   0  0  0  0  0  0  0  0  0  0  0  0
    3.6300   58.3920   71.1820 C   0  0  0  0  0  0  0  0  0  0  0  0
    2.3560   58.0940   71.9860 C   0  0  0  0  0  0  0  0  0  0  0  0
    2.6020   58.2870   73.4860 C   0  0  0  0  0  0  0  0  0  0  0  0
    1.6340   57.4700   74.3940 N   0  0  0  0  0  4  0  0  0  0  0  0
    1.5100   58.1140   75.8060 C   0  0  0  0  0  0  0  0  0  0  0  0
    2.0220   57.2410   76.9410 C   0  0  0  0  0  0  0  0  0  0  0  0
    2.1600   56.0260   74.6170 C   0  0  0  0  0  0  0  0  0  0  0  0
    1.2030   54.9330   74.1620 C   0  0  0  0  0  0  0  0  0  0  0  0
    0.2330   57.4600   73.6630 C   0  0  0  0  0  0  0  0  0  0  0  0
   -0.7680   58.5600   73.9710 C   0  0  0  0  0  0  0  0  0  0  0  0
   -0.6250   59.8200   73.3600 C   0  0  0  0  0  0  0  0  0  0  0  0
   -1.5350   60.8580   73.5980 C   0  0  0  0  0  0  0  0  0  0  0  0
   -2.6080   60.6750   74.4660 C   0  0  0  0  0  0  0  0  0  0  0  0
   -2.7640   59.4590   75.1190 C   0  0  0  0  0  0  0  0  0  0  0  0
   -1.8410   58.4300   74.8800 C   0  0  0  0  0  0  0  0  0  0  0  0
   -2.0280   57.2120   75.6420 N   0  0  0  0  0  4  0  0  0  0  0  0
   -2.5920   56.2740   75.0680 O   0  0  0  0  0  0  0  0  0  0  0  0
   -1.6860   57.2390   76.8290 O   0  0  0  0  0  1  0  0  0  0  0  0
    0.2500   63.9290   70.6510 C   0  0  0  0  0  0  0  0  0  0  0  0
    0.4080   65.4400   70.8680 C   0  0  0  0  0  0  0  0  0  0  0  0
    1.4430   66.0840   69.9370 C   0  0  0  0  0  0  0  0  0  0  0  0
    0.8850   67.0330   68.8670 C   0  0  0  0  0  0  0  0  0  0  0  0
    1.7200   67.0140   67.5790 C   0  0  0  0  0  0  0  0  0  0  0  0
    1.1540   67.8930   66.4230 N   0  0  0  0  0  4  0  0  0  0  0  0
   -0.3990   67.9960   66.4880 C   0  0  0  0  0  0  0  0  0  0  0  0
   -1.0170   68.7660   65.3290 C   0  0  0  0  0  0  0  0  0  0  0  0
    2.5030   66.0460   65.1770 C   0  0  0  0  0  0  0  0  0  0  0  0
    1.5410   67.2230   65.0650 C   0  0  0  0  0  0  0  0  0  0  0  0
    1.7530   69.3560   66.4900 C   0  0  0  0  0  0  0  0  0  0  0  0
    3.2560   69.5320   66.5470 C   0  0  0  0  0  0  0  0  0  0  0  0
    4.0200   69.2000   65.4120 C   0  0  0  0  0  0  0  0  0  0  0  0
    5.4110   69.3520   65.4050 C   0  0  0  0  0  0  0  0  0  0  0  0
    6.0750   69.8370   66.5290 C   0  0  0  0  0  0  0  0  0  0  0  0
    5.3530   70.1720   67.6710 C   0  0  0  0  0  0  0  0  0  0  0  0
    3.9610   70.0070   67.6720 C   0  0  0  0  0  0  0  0  0  0  0  0
    3.2550   70.4070   68.8750 N   0  0  0  0  0  4  0  0  0  0  0  0
    2.1200   70.8760   68.7370 O   0  0  0  0  0  0  0  0  0  0  0  0
    3.8840   70.3400   69.9370 O   0  0  0  0  0  1  0  0  0  0  0  0
    0.5793   63.8264   74.6448 H   0  0  0  0  0  0  0  0  0  0  0  0
    0.5105   65.0547   73.3359 H   0  0  0  0  0  0  0  0  0  0  0  0
   -0.6418   63.6767   73.3359 H   0  0  0  0  0  0  0  0  0  0  0  0
    2.3737   62.4979   74.4831 H   0  0  0  0  0  0  0  0  0  0  0  0
    4.2670   61.3649   69.5532 H   0  0  0  0  0  0  0  0  0  0  0  0
    4.9125   60.6491   71.0871 H   0  0  0  0  0  0  0  0  0  0  0  0
    2.3277   59.5889   69.9578 H   0  0  0  0  0  0  0  0  0  0  0  0
    3.9169   59.1168   69.1948 H   0  0  0  0  0  0  0  0  0  0  0  0
    3.9633   57.4648   70.6929 H   0  0  0  0  0  0  0  0  0  0  0  0
    4.3861   58.7739   71.8838 H   0  0  0  0  0  0  0  0  0  0  0  0
    1.5565   58.7760   71.6609 H   0  0  0  0  0  0  0  0  0  0  0  0
    2.0631   57.0487   71.8082 H   0  0  0  0  0  0  0  0  0  0  0  0
    3.6330   57.9764   73.7108 H   0  0  0  0  0  0  0  0  0  0  0  0
    2.4246   59.3503   73.7049 H   0  0  0  0  0  0  0  0  0  0  0  0
    2.0838   59.0525   75.8079 H   0  0  0  0  0  0  0  0  0  0  0  0
    0.4361   58.2681   75.9879 H   0  0  0  0  0  0  0  0  0  0  0  0
    1.7539   57.6982   77.9049 H   0  0  0  0  0  0  0  0  0  0  0  0
    1.5665   56.2423   76.8696 H   0  0  0  0  0  0  0  0  0  0  0  0
    3.1160   57.1510   76.8696 H   0  0  0  0  0  0  0  0  0  0  0  0
    3.1019   55.9127   74.0603 H   0  0  0  0  0  0  0  0  0  0  0  0
    2.2871   55.9014   75.7025 H   0  0  0  0  0  0  0  0  0  0  0  0
    0.7683   54.4365   75.0421 H   0  0  0  0  0  0  0  0  0  0  0  0
    0.3989   55.3780   73.5576 H   0  0  0  0  0  0  0  0  0  0  0  0
    1.7503   54.1947   73.5576 H   0  0  0  0  0  0  0  0  0  0  0  0
    0.4335   57.5005   72.5822 H   0  0  0  0  0  0  0  0  0  0  0  0
   -0.2538   56.5484   74.0398 H   0  0  0  0  0  0  0  0  0  0  0  0
    0.2215   59.9937   72.6794 H   0  0  0  0  0  0  0  0  0  0  0  0
   -1.4006   61.8267   73.0944 H   0  0  0  0  0  0  0  0  0  0  0  0
   -3.3285   61.4891   74.6338 H   0  0  0  0  0  0  0  0  0  0  0  0
   -3.6014   59.3047   75.8153 H   0  0  0  0  0  0  0  0  0  0  0  0
    0.3378   63.7141   69.5758 H   0  0  0  0  0  0  0  0  0  0  0  0
   -0.7360   63.6326   71.0383 H   0  0  0  0  0  0  0  0  0  0  0  0
   -0.5656   65.9211   70.6930 H   0  0  0  0  0  0  0  0  0  0  0  0
    0.7638   65.5846   71.8988 H   0  0  0  0  0  0  0  0  0  0  0  0
    2.1470   66.6553   70.5599 H   0  0  0  0  0  0  0  0  0  0  0  0
    1.9046   65.2521   69.3849 H   0  0  0  0  0  0  0  0  0  0  0  0
   -0.1441   66.7284   68.6260 H   0  0  0  0  0  0  0  0  0  0  0  0
    0.9167   68.0546   69.2736 H   0  0  0  0  0  0  0  0  0  0  0  0
    2.7307   67.3748   67.8205 H   0  0  0  0  0  0  0  0  0  0  0  0
    1.7065   65.9760   67.2152 H   0  0  0  0  0  0  0  0  0  0  0  0
   -0.8137   66.9772   66.4868 H   0  0  0  0  0  0  0  0  0  0  0  0
   -0.6433   68.5513   67.4056 H   0  0  0  0  0  0  0  0  0  0  0  0
   -1.6600   69.5671   65.7224 H   0  0  0  0  0  0  0  0  0  0  0  0
   -0.2183   69.2058   64.7136 H   0  0  0  0  0  0  0  0  0  0  0  0
   -1.6192   68.0814   64.7136 H   0  0  0  0  0  0  0  0  0  0  0  0
    2.6862   65.8219   66.2382 H   0  0  0  0  0  0  0  0  0  0  0  0
    2.0631   65.1650   64.6868 H   0  0  0  0  0  0  0  0  0  0  0  0
    3.4539   66.3017   64.6868 H   0  0  0  0  0  0  0  0  0  0  0  0
    2.0106   67.9879   64.4290 H   0  0  0  0  0  0  0  0  0  0  0  0
    0.6081   66.8180   64.6458 H   0  0  0  0  0  0  0  0  0  0  0  0
    1.3996   69.8903   65.5958 H   0  0  0  0  0  0  0  0  0  0  0  0
    1.4055   69.7391   67.4608 H   0  0  0  0  0  0  0  0  0  0  0  0
    3.5143   68.8142   64.5145 H   0  0  0  0  0  0  0  0  0  0  0  0
    5.9845   69.0863   64.5047 H   0  0  0  0  0  0  0  0  0  0  0  0
    7.1685   69.9552   66.5144 H   0  0  0  0  0  0  0  0  0  0  0  0
    5.8683   70.5613   68.5614 H   0  0  0  0  0  0  0  0  0  0  0  0
  2  1  1  0
  3  2  1  0
  4  2  2  0
  5  4  1  0
  6  5  2  0
  7  5  1  0
  8  7  1  0
  8  1  1  0
  9  8  2  0
 10  7  1  0
 11 10  1  0
 12 11  1  0
 13 12  1  0
 14 13  1  0
 15 14  1  0
 16 15  1  0
 17 16  1  0
 18 15  1  0
 19 18  1  0
 20 15  1  0
 21 20  1  0
 22 21  2  0
 23 22  1  0
 24 23  2  0
 25 24  1  0
 26 21  1  0
 26 25  2  0
 27 26  1  0
 28 27  2  0
 29 27  1  0
 30  1  1  0
 31 30  1  0
 32 31  1  0
 33 32  1  0
 34 33  1  0
 35 34  1  0
 36 35  1  0
 37 36  1  0
 39 38  1  0
 39 35  1  0
 40 35  1  0
 41 40  1  0
 42 41  2  0
 43 42  1  0
 44 43  2  0
 45 44  1  0
 46 41  1  0
 46 45  2  0
 47 46  1  0
 48 47  2  0
 49 47  1  0
  3 50  1  0
  3 51  1  0
  3 52  1  0
  4 53  1  0
 10 54  1  0
 10 55  1  0
 11 56  1  0
 11 57  1  0
 12 58  1  0
 12 59  1  0
 13 60  1  0
 13 61  1  0
 14 62  1  0
 14 63  1  0
 16 64  1  0
 16 65  1  0
 17 66  1  0
 17 67  1  0
 17 68  1  0
 18 69  1  0
 18 70  1  0
 19 71  1  0
 19 72  1  0
 19 73  1  0
 20 74  1  0
 20 75  1  0
 22 76  1  0
 23 77  1  0
 24 78  1  0
 25 79  1  0
 30 80  1  0
 30 81  1  0
 31 82  1  0
 31 83  1  0
 32 84  1  0
 32 85  1  0
 33 86  1  0
 33 87  1  0
 34 88  1  0
 34 89  1  0
 36 90  1  0
 36 91  1  0
 37 92  1  0
 37 93  1  0
 37 94  1  0
 38 95  1  0
 38 96  1  0
 38 97  1  0
 39 98  1  0
 39 99  1  0
 40100  1  0
 40101  1  0
 42102  1  0
 43103  1  0
 44104  1  0
 45105  1  0
M  CHG  6  15   1  27   1  29  -1  35   1  47   1  49  -1
M  END
>  <score>  (2) 
-8.958

$$$$
=
     RDKit          3D

105107  0  0  0  0  0  0  0  0999 V2000
    3.0050   60.8460   71.5040 N   0  0  0  0  0  0  0  0  0  0  0  0
    3.3670   60.3240   70.2660 C   0  0  0  0  0  0  0  0  0  0  0  0
    3.6560   58.8550   70.1140 C   0  0  0  0  0  0  0  0  0  0  0  0
    3.4700   61.1280   69.2010 C   0  0  0  0  0  0  0  0  0  0  0  0
    3.2040   62.5660   69.3190 C   0  0  0  0  0  0  0  0  0  0  0  0
    3.3920   63.2950   68.3460 O   0  0  0  0  0  0  0  0  0  0  0  0
    2.7550   63.0030   70.5470 N   0  0  0  0  0  0  0  0  0  0  0  0
    2.6810   62.2010   71.6790 C   0  0  0  0  0  0  0  0  0  0  0  0
    2.3500   62.6540   72.7760 O   0  0  0  0  0  0  0  0  0  0  0  0
    2.4580   64.4240   70.6820 C   0  0  0  0  0  0  0  0  0  0  0  0
    0.9550   64.6990   70.5430 C   0  0  0  0  0  0  0  0  0  0  0  0
    0.6200   66.1910   70.4440 C   0  0  0  0  0  0  0  0  0  0  0  0
    0.2490   66.6180   69.0170 C   0  0  0  0  0  0  0  0  0  0  0  0
    1.2470   67.6490   68.4820 C   0  0  0  0  0  0  0  0  0  0  0  0
    1.2180   67.8090   66.9320 N   0  0  0  0  0  4  0  0  0  0  0  0
   -0.2260   67.6420   66.3750 C   0  0  0  0  0  0  0  0  0  0  0  0
   -0.9350   68.9520   66.0650 C   0  0  0  0  0  0  0  0  0  0  0  0
    2.0820   66.7190   66.2390 C   0  0  0  0  0  0  0  0  0  0  0  0
    1.7580   66.5040   64.7680 C   0  0  0  0  0  0  0  0  0  0  0  0
    1.7700   69.2570   66.6180 C   0  0  0  0  0  0  0  0  0  0  0  0
    3.2710   69.4840   66.5890 C   0  0  0  0  0  0  0  0  0  0  0  0
    4.0160   69.0590   65.4720 C   0  0  0  0  0  0  0  0  0  0  0  0
    5.3990   69.2650   65.3910 C   0  0  0  0  0  0  0  0  0  0  0  0
    6.0840   69.8900   66.4300 C   0  0  0  0  0  0  0  0  0  0  0  0
    5.3930   70.2910   67.5670 C   0  0  0  0  0  0  0  0  0  0  0  0
    4.0090   70.0710   67.6400 C   0  0  0  0  0  0  0  0  0  0  0  0
    3.3640   70.4570   68.8780 N   0  0  0  0  0  4  0  0  0  0  0  0
    2.2530   70.9900   68.7880 O   0  0  0  0  0  0  0  0  0  0  0  0
    4.0140   70.2990   69.9180 O   0  0  0  0  0  1  0  0  0  0  0  0
    2.9030   60.0000   72.7000 C   0  0  0  0  0  0  0  0  0  0  0  0
    1.5700   59.2440   72.7620 C   0  0  0  0  0  0  0  0  0  0  0  0
    1.7360   57.7220   72.8340 C   0  0  0  0  0  0  0  0  0  0  0  0
    1.1280   57.0370   74.0670 C   0  0  0  0  0  0  0  0  0  0  0  0
   -0.4060   57.0710   74.0550 C   0  0  0  0  0  0  0  0  0  0  0  0
   -1.0740   56.8080   75.4400 N   0  0  0  0  0  4  0  0  0  0  0  0
   -0.0720   56.1680   76.4470 C   0  0  0  0  0  0  0  0  0  0  0  0
   -0.1420   56.7590   77.8480 C   0  0  0  0  0  0  0  0  0  0  0  0
   -1.9250   54.3470   75.5000 C   0  0  0  0  0  0  0  0  0  0  0  0
   -2.2580   55.8100   75.2290 C   0  0  0  0  0  0  0  0  0  0  0  0
   -1.6130   58.1580   76.0640 C   0  0  0  0  0  0  0  0  0  0  0  0
   -1.3490   59.4600   75.3360 C   0  0  0  0  0  0  0  0  0  0  0  0
   -2.2110   59.8370   74.2890 C   0  0  0  0  0  0  0  0  0  0  0  0
   -2.0200   61.0350   73.5890 C   0  0  0  0  0  0  0  0  0  0  0  0
   -0.9660   61.8840   73.9150 C   0  0  0  0  0  0  0  0  0  0  0  0
   -0.0910   61.5420   74.9430 C   0  0  0  0  0  0  0  0  0  0  0  0
   -0.2840   60.3360   75.6320 C   0  0  0  0  0  0  0  0  0  0  0  0
    0.6340   60.0480   76.7180 N   0  0  0  0  0  4  0  0  0  0  0  0
    0.3280   60.4560   77.8420 O   0  0  0  0  0  0  0  0  0  0  0  0
    1.7000   59.5010   76.4130 O   0  0  0  0  0  1  0  0  0  0  0  0
    3.7466   58.3943   71.1088 H   0  0  0  0  0  0  0  0  0  0  0  0
    2.8351   58.3751   69.5611 H   0  0  0  0  0  0  0  0  0  0  0  0
    4.5976   58.7218   69.5611 H   0  0  0  0  0  0  0  0  0  0  0  0
    3.7572   60.7061   68.2266 H   0  0  0  0  0  0  0  0  0  0  0  0
    2.7943   64.7672   71.6715 H   0  0  0  0  0  0  0  0  0  0  0  0
    2.9837   64.9645   69.8811 H   0  0  0  0  0  0  0  0  0  0  0  0
    0.5907   64.1980   69.6340 H   0  0  0  0  0  0  0  0  0  0  0  0
    0.4674   64.3145   71.4510 H   0  0  0  0  0  0  0  0  0  0  0  0
   -0.2297   66.4064   71.1086 H   0  0  0  0  0  0  0  0  0  0  0  0
    1.5175   66.7548   70.7383 H   0  0  0  0  0  0  0  0  0  0  0  0
    0.2575   65.7341   68.3622 H   0  0  0  0  0  0  0  0  0  0  0  0
   -0.7528   67.0721   69.0336 H   0  0  0  0  0  0  0  0  0  0  0  0
    1.0147   68.6239   68.9354 H   0  0  0  0  0  0  0  0  0  0  0  0
    2.2519   67.2891   68.7476 H   0  0  0  0  0  0  0  0  0  0  0  0
   -0.1712   67.0526   65.4479 H   0  0  0  0  0  0  0  0  0  0  0  0
   -0.8116   67.1469   67.1636 H   0  0  0  0  0  0  0  0  0  0  0  0
   -1.2064   69.4535   67.0056 H   0  0  0  0  0  0  0  0  0  0  0  0
   -0.2657   69.6023   65.4826 H   0  0  0  0  0  0  0  0  0  0  0  0
   -1.8455   68.7473   65.4826 H   0  0  0  0  0  0  0  0  0  0  0  0
    3.1385   67.0144   66.3193 H   0  0  0  0  0  0  0  0  0  0  0  0
    1.8628   65.7707   66.7515 H   0  0  0  0  0  0  0  0  0  0  0  0
    0.8445   65.8978   64.6786 H   0  0  0  0  0  0  0  0  0  0  0  0
    1.6010   67.4777   64.2810 H   0  0  0  0  0  0  0  0  0  0  0  0
    2.5942   65.9810   64.2810 H   0  0  0  0  0  0  0  0  0  0  0  0
    1.3821   69.5420   65.6289 H   0  0  0  0  0  0  0  0  0  0  0  0
    1.4293   69.8595   67.4729 H   0  0  0  0  0  0  0  0  0  0  0  0
    3.4993   68.5530   64.6432 H   0  0  0  0  0  0  0  0  0  0  0  0
    5.9488   68.9302   64.4990 H   0  0  0  0  0  0  0  0  0  0  0  0
    7.1670   70.0654   66.3510 H   0  0  0  0  0  0  0  0  0  0  0  0
    5.9244   70.7750   68.3997 H   0  0  0  0  0  0  0  0  0  0  0  0
    3.7248   59.2689   72.6881 H   0  0  0  0  0  0  0  0  0  0  0  0
    2.9621   60.6539   73.5826 H   0  0  0  0  0  0  0  0  0  0  0  0
    1.0212   59.5775   73.6551 H   0  0  0  0  0  0  0  0  0  0  0  0
    1.0264   59.4677   71.8323 H   0  0  0  0  0  0  0  0  0  0  0  0
    1.2626   57.2890   71.9405 H   0  0  0  0  0  0  0  0  0  0  0  0
    2.8196   57.5442   72.8995 H   0  0  0  0  0  0  0  0  0  0  0  0
    1.4584   55.9880   74.0878 H   0  0  0  0  0  0  0  0  0  0  0  0
    1.4697   57.5836   74.9583 H   0  0  0  0  0  0  0  0  0  0  0  0
   -0.7241   58.0638   73.7040 H   0  0  0  0  0  0  0  0  0  0  0  0
   -0.7300   56.2542   73.3933 H   0  0  0  0  0  0  0  0  0  0  0  0
   -0.2887   55.0916   76.5141 H   0  0  0  0  0  0  0  0  0  0  0  0
    0.9389   56.3728   76.0647 H   0  0  0  0  0  0  0  0  0  0  0  0
   -0.0466   55.9534   78.5910 H   0  0  0  0  0  0  0  0  0  0  0  0
    0.6769   57.4810   77.9827 H   0  0  0  0  0  0  0  0  0  0  0  0
   -1.1069   57.2697   77.9827 H   0  0  0  0  0  0  0  0  0  0  0  0
   -1.8858   54.1749   76.5857 H   0  0  0  0  0  0  0  0  0  0  0  0
   -2.7002   53.7060   75.0549 H   0  0  0  0  0  0  0  0  0  0  0  0
   -0.9487   54.1046   75.0549 H   0  0  0  0  0  0  0  0  0  0  0  0
   -2.5942   55.8955   74.1851 H   0  0  0  0  0  0  0  0  0  0  0  0
   -3.0296   56.0899   75.9613 H   0  0  0  0  0  0  0  0  0  0  0  0
   -2.7043   58.0567   76.1579 H   0  0  0  0  0  0  0  0  0  0  0  0
   -1.0466   58.2602   77.0014 H   0  0  0  0  0  0  0  0  0  0  0  0
   -3.0493   59.1792   74.0158 H   0  0  0  0  0  0  0  0  0  0  0  0
   -2.7083   61.3072   72.7752 H   0  0  0  0  0  0  0  0  0  0  0  0
   -0.8245   62.8239   73.3613 H   0  0  0  0  0  0  0  0  0  0  0  0
    0.7411   62.2095   75.2112 H   0  0  0  0  0  0  0  0  0  0  0  0
  2  1  1  0
  3  2  1  0
  4  2  2  0
  5  4  1  0
  6  5  2  0
  7  5  1  0
  8  7  1  0
  8  1  1  0
  9  8  2  0
 10  7  1  0
 11 10  1  0
 12 11  1  0
 13 12  1  0
 14 13  1  0
 15 14  1  0
 16 15  1  0
 17 16  1  0
 18 15  1  0
 19 18  1  0
 20 15  1  0
 21 20  1  0
 22 21  2  0
 23 22  1  0
 24 23  2  0
 25 24  1  0
 26 21  1  0
 26 25  2  0
 27 26  1  0
 28 27  2  0
 29 27  1  0
 30  1  1  0
 31 30  1  0
 32 31  1  0
 33 32  1  0
 34 33  1  0
 35 34  1  0
 36 35  1  0
 37 36  1  0
 39 38  1  0
 39 35  1  0
 40 35  1  0
 41 40  1  0
 42 41  2  0
 43 42  1  0
 44 43  2  0
 45 44  1  0
 46 41  1  0
 46 45  2  0
 47 46  1  0
 48 47  2  0
 49 47  1  0
  3 50  1  0
  3 51  1  0
  3 52  1  0
  4 53  1  0
 10 54  1  0
 10 55  1  0
 11 56  1  0
 11 57  1  0
 12 58  1  0
 12 59  1  0
 13 60  1  0
 13 61  1  0
 14 62  1  0
 14 63  1  0
 16 64  1  0
 16 65  1  0
 17 66  1  0
 17 67  1  0
 17 68  1  0
 18 69  1  0
 18 70  1  0
 19 71  1  0
 19 72  1  0
 19 73  1  0
 20 74  1  0
 20 75  1  0
 22 76  1  0
 23 77  1  0
 24 78  1  0
 25 79  1  0
 30 80  1  0
 30 81  1  0
 31 82  1  0
 31 83  1  0
 32 84  1  0
 32 85  1  0
 33 86  1  0
 33 87  1  0
 34 88  1  0
 34 89  1  0
 36 90  1  0
 36 91  1  0
 37 92  1  0
 37 93  1  0
 37 94  1  0
 38 95  1  0
 38 96  1  0
 38 97  1  0
 39 98  1  0
 39 99  1  0
 40100  1  0
 40101  1  0
 42102  1  0
 43103  1  0
 44104  1  0
 45105  1  0
M  CHG  6  15   1  27   1  29  -1  35   1  47   1  49  -1
M  END
>  <score>  (3) 
-8.901

$$$$
=
     RDKit          3D

105107  0  0  0  0  0  0  0  0999 V2000
    2.9500   62.6900   70.5490 N   0  0  0  0  0  0  0  0  0  0  0  0
    3.4900   62.1800   69.3730 C   0  0  0  0  0  0  0  0  0  0  0  0
    3.8210   63.0980   68.2280 C   0  0  0  0  0  0  0  0  0  0  0  0
    3.7120   60.8670   69.2480 C   0  0  0  0  0  0  0  0  0  0  0  0
    3.3900   59.9450   70.3440 C   0  0  0  0  0  0  0  0  0  0  0  0
    3.5200   58.7340   70.1690 O   0  0  0  0  0  0  0  0  0  0  0  0
    2.9500   60.5220   71.5150 N   0  0  0  0  0  0  0  0  0  0  0  0
    2.6710   61.8750   71.6590 C   0  0  0  0  0  0  0  0  0  0  0  0
    2.2020   62.3350   72.7020 O   0  0  0  0  0  0  0  0  0  0  0  0
    2.6500   59.6300   72.6280 C   0  0  0  0  0  0  0  0  0  0  0  0
    3.8530   59.4800   73.5690 C   0  0  0  0  0  0  0  0  0  0  0  0
    3.4600   59.0800   74.9950 C   0  0  0  0  0  0  0  0  0  0  0  0
    2.2150   59.8280   75.4940 C   0  0  0  0  0  0  0  0  0  0  0  0
    1.0800   58.8470   75.8040 C   0  0  0  0  0  0  0  0  0  0  0  0
   -0.2940   59.2590   75.1920 N   0  0  0  0  0  4  0  0  0  0  0  0
   -0.2180   60.6690   74.5370 C   0  0  0  0  0  0  0  0  0  0  0  0
   -0.9950   60.8010   73.2370 C   0  0  0  0  0  0  0  0  0  0  0  0
   -1.3920   59.3440   76.2870 C   0  0  0  0  0  0  0  0  0  0  0  0
   -2.8030   59.0770   75.7800 C   0  0  0  0  0  0  0  0  0  0  0  0
   -0.6500   58.1630   74.1100 C   0  0  0  0  0  0  0  0  0  0  0  0
    0.0730   56.8280   74.1450 C   0  0  0  0  0  0  0  0  0  0  0  0
    1.2220   56.6410   73.3520 C   0  0  0  0  0  0  0  0  0  0  0  0
    1.9330   55.4340   73.3660 C   0  0  0  0  0  0  0  0  0  0  0  0
    1.5110   54.3720   74.1610 C   0  0  0  0  0  0  0  0  0  0  0  0
    0.3610   54.5030   74.9290 C   0  0  0  0  0  0  0  0  0  0  0  0
   -0.3490   55.7120   74.9000 C   0  0  0  0  0  0  0  0  0  0  0  0
   -1.5710   55.7570   75.6750 N   0  0  0  0  0  4  0  0  0  0  0  0
   -1.4560   55.9430   76.8910 O   0  0  0  0  0  0  0  0  0  0  0  0
   -2.6230   55.5200   75.0720 O   0  0  0  0  0  1  0  0  0  0  0  0
    2.6710   64.1220   70.7160 C   0  0  0  0  0  0  0  0  0  0  0  0
    1.2410   64.4850   70.2960 C   0  0  0  0  0  0  0  0  0  0  0  0
    0.9580   65.9910   70.3390 C   0  0  0  0  0  0  0  0  0  0  0  0
    0.4200   66.6110   69.0410 C   0  0  0  0  0  0  0  0  0  0  0  0
    1.4120   67.6010   68.4140 C   0  0  0  0  0  0  0  0  0  0  0  0
    1.3100   67.7310   66.8640 N   0  0  0  0  0  4  0  0  0  0  0  0
   -0.1680   67.6420   66.3770 C   0  0  0  0  0  0  0  0  0  0  0  0
   -0.9310   68.9550   66.4760 C   0  0  0  0  0  0  0  0  0  0  0  0
    1.9560   66.4160   64.7100 C   0  0  0  0  0  0  0  0  0  0  0  0
    2.1060   66.5500   66.2210 C   0  0  0  0  0  0  0  0  0  0  0  0
    1.9110   69.1120   66.3790 C   0  0  0  0  0  0  0  0  0  0  0  0
    3.2550   69.5570   66.9180 C   0  0  0  0  0  0  0  0  0  0  0  0
    3.3190   70.0830   68.2230 C   0  0  0  0  0  0  0  0  0  0  0  0
    4.5360   70.5000   68.7770 C   0  0  0  0  0  0  0  0  0  0  0  0
    5.7160   70.4030   68.0440 C   0  0  0  0  0  0  0  0  0  0  0  0
    5.6890   69.8910   66.7490 C   0  0  0  0  0  0  0  0  0  0  0  0
    4.4660   69.4860   66.2000 C   0  0  0  0  0  0  0  0  0  0  0  0
    4.5010   68.9250   64.8620 N   0  0  0  0  0  4  0  0  0  0  0  0
    3.8350   69.4920   63.9910 O   0  0  0  0  0  0  0  0  0  0  0  0
    5.1190   67.8630   64.7220 O   0  0  0  0  0  1  0  0  0  0  0  0
    4.1694   64.0643   68.6216 H   0  0  0  0  0  0  0  0  0  0  0  0
    4.6127   62.6458   67.6126 H   0  0  0  0  0  0  0  0  0  0  0  0
    2.9229   63.2551   67.6126 H   0  0  0  0  0  0  0  0  0  0  0  0
    4.1403   60.4739   68.3142 H   0  0  0  0  0  0  0  0  0  0  0  0
    1.8013   60.0395   73.1954 H   0  0  0  0  0  0  0  0  0  0  0  0
    2.4060   58.6383   72.2193 H   0  0  0  0  0  0  0  0  0  0  0  0
    4.5213   58.7073   73.1611 H   0  0  0  0  0  0  0  0  0  0  0  0
    4.3442   60.4624   73.6295 H   0  0  0  0  0  0  0  0  0  0  0  0
    3.2537   57.9997   75.0141 H   0  0  0  0  0  0  0  0  0  0  0  0
    4.2966   59.3439   75.6586 H   0  0  0  0  0  0  0  0  0  0  0  0
    2.4705   60.3845   76.4078 H   0  0  0  0  0  0  0  0  0  0  0  0
    1.8792   60.5190   74.7067 H   0  0  0  0  0  0  0  0  0  0  0  0
    1.3558   57.8602   75.4038 H   0  0  0  0  0  0  0  0  0  0  0  0
    0.9539   58.8385   76.8967 H   0  0  0  0  0  0  0  0  0  0  0  0
   -0.6177   61.4026   75.2526 H   0  0  0  0  0  0  0  0  0  0  0  0
    0.8395   60.8432   74.2894 H   0  0  0  0  0  0  0  0  0  0  0  0
   -2.0567   60.9814   73.4611 H   0  0  0  0  0  0  0  0  0  0  0  0
   -0.5948   61.6440   72.6546 H   0  0  0  0  0  0  0  0  0  0  0  0
   -0.8957   59.8731   72.6546 H   0  0  0  0  0  0  0  0  0  0  0  0
   -1.1598   58.6032   77.0663 H   0  0  0  0  0  0  0  0  0  0  0  0
   -1.3824   60.3774   76.6639 H   0  0  0  0  0  0  0  0  0  0  0  0
   -3.4820   58.9485   76.6359 H   0  0  0  0  0  0  0  0  0  0  0  0
   -3.1401   59.9273   75.1690 H   0  0  0  0  0  0  0  0  0  0  0  0
   -2.8061   58.1623   75.1690 H   0  0  0  0  0  0  0  0  0  0  0  0
   -1.7245   57.9497   74.2095 H   0  0  0  0  0  0  0  0  0  0  0  0
   -0.3226   58.6141   73.1617 H   0  0  0  0  0  0  0  0  0  0  0  0
    1.5690   57.4616   72.7069 H   0  0  0  0  0  0  0  0  0  0  0  0
    2.8330   55.3244   72.7431 H   0  0  0  0  0  0  0  0  0  0  0  0
    2.0852   53.4340   74.1809 H   0  0  0  0  0  0  0  0  0  0  0  0
    0.0110   53.6675   75.5531 H   0  0  0  0  0  0  0  0  0  0  0  0
    2.8082   64.3889   71.7743 H   0  0  0  0  0  0  0  0  0  0  0  0
    3.3652   64.6795   70.0701 H   0  0  0  0  0  0  0  0  0  0  0  0
    1.0784   64.1288   69.2681 H   0  0  0  0  0  0  0  0  0  0  0  0
    0.5598   64.0058   71.0145 H   0  0  0  0  0  0  0  0  0  0  0  0
    0.2166   66.1719   71.1312 H   0  0  0  0  0  0  0  0  0  0  0  0
    1.9316   66.4713   70.5164 H   0  0  0  0  0  0  0  0  0  0  0  0
    0.2211   65.8047   68.3197 H   0  0  0  0  0  0  0  0  0  0  0  0
   -0.4980   67.1647   69.2875 H   0  0  0  0  0  0  0  0  0  0  0  0
    1.2306   68.5928   68.8538 H   0  0  0  0  0  0  0  0  0  0  0  0
    2.4179   67.2105   68.6277 H   0  0  0  0  0  0  0  0  0  0  0  0
   -0.1671   67.3206   65.3250 H   0  0  0  0  0  0  0  0  0  0  0  0
   -0.6788   66.9258   67.0374 H   0  0  0  0  0  0  0  0  0  0  0  0
   -1.0809   69.2130   67.5347 H   0  0  0  0  0  0  0  0  0  0  0  0
   -0.3552   69.7518   65.9824 H   0  0  0  0  0  0  0  0  0  0  0  0
   -1.9083   68.8493   65.9824 H   0  0  0  0  0  0  0  0  0  0  0  0
    1.1533   65.6989   64.4834 H   0  0  0  0  0  0  0  0  0  0  0  0
    1.7049   67.3960   64.2781 H   0  0  0  0  0  0  0  0  0  0  0  0
    2.9016   66.0564   64.2781 H   0  0  0  0  0  0  0  0  0  0  0  0
    1.7586   65.6138   66.6823 H   0  0  0  0  0  0  0  0  0  0  0  0
    3.1696   66.7610   66.4057 H   0  0  0  0  0  0  0  0  0  0  0  0
    2.0049   69.0562   65.2844 H   0  0  0  0  0  0  0  0  0  0  0  0
    1.2073   69.8596   66.7740 H   0  0  0  0  0  0  0  0  0  0  0  0
    2.3973   70.1678   68.8174 H   0  0  0  0  0  0  0  0  0  0  0  0
    4.5598   70.9071   69.7986 H   0  0  0  0  0  0  0  0  0  0  0  0
    6.6681   70.7303   68.4871 H   0  0  0  0  0  0  0  0  0  0  0  0
    6.6170   69.8058   66.1646 H   0  0  0  0  0  0  0  0  0  0  0  0
  2  1  1  0
  3  2  1  0
  4  2  2  0
  5  4  1  0
  6  5  2  0
  7  5  1  0
  8  7  1  0
  8  1  1  0
  9  8  2  0
 10  7  1  0
 11 10  1  0
 12 11  1  0
 13 12  1  0
 14 13  1  0
 15 14  1  0
 16 15  1  0
 17 16  1  0
 18 15  1  0
 19 18  1  0
 20 15  1  0
 21 20  1  0
 22 21  2  0
 23 22  1  0
 24 23  2  0
 25 24  1  0
 26 21  1  0
 26 25  2  0
 27 26  1  0
 28 27  2  0
 29 27  1  0
 30  1  1  0
 31 30  1  0
 32 31  1  0
 33 32  1  0
 34 33  1  0
 35 34  1  0
 36 35  1  0
 37 36  1  0
 39 38  1  0
 39 35  1  0
 40 35  1  0
 41 40  1  0
 42 41  2  0
 43 42  1  0
 44 43  2  0
 45 44  1  0
 46 41  1  0
 46 45  2  0
 47 46  1  0
 48 47  2  0
 49 47  1  0
  3 50  1  0
  3 51  1  0
  3 52  1  0
  4 53  1  0
 10 54  1  0
 10 55  1  0
 11 56  1  0
 11 57  1  0
 12 58  1  0
 12 59  1  0
 13 60  1  0
 13 61  1  0
 14 62  1  0
 14 63  1  0
 16 64  1  0
 16 65  1  0
 17 66  1  0
 17 67  1  0
 17 68  1  0
 18 69  1  0
 18 70  1  0
 19 71  1  0
 19 72  1  0
 19 73  1  0
 20 74  1  0
 20 75  1  0
 22 76  1  0
 23 77  1  0
 24 78  1  0
 25 79  1  0
 30 80  1  0
 30 81  1  0
 31 82  1  0
 31 83  1  0
 32 84  1  0
 32 85  1  0
 33 86  1  0
 33 87  1  0
 34 88  1  0
 34 89  1  0
 36 90  1  0
 36 91  1  0
 37 92  1  0
 37 93  1  0
 37 94  1  0
 38 95  1  0
 38 96  1  0
 38 97  1  0
 39 98  1  0
 39 99  1  0
 40100  1  0
 40101  1  0
 42102  1  0
 43103  1  0
 44104  1  0
 45105  1  0
M  CHG  6  15   1  27   1  29  -1  35   1  47   1  49  -1
M  END
>  <score>  (4) 
-8.87

$$$$
=
     RDKit          3D

105107  0  0  0  0  0  0  0  0999 V2000
    1.2430   63.0870   71.4120 N   0  0  0  0  0  0  0  0  0  0  0  0
    1.3150   63.1000   72.8010 C   0  0  0  0  0  0  0  0  0  0  0  0
    0.2470   63.7840   73.6110 C   0  0  0  0  0  0  0  0  0  0  0  0
    2.3390   62.5110   73.4270 C   0  0  0  0  0  0  0  0  0  0  0  0
    3.4010   61.8440   72.6650 C   0  0  0  0  0  0  0  0  0  0  0  0
    4.3760   61.3890   73.2620 O   0  0  0  0  0  0  0  0  0  0  0  0
    3.2220   61.7820   71.3000 N   0  0  0  0  0  0  0  0  0  0  0  0
    2.1930   62.4200   70.6200 C   0  0  0  0  0  0  0  0  0  0  0  0
    2.1170   62.4030   69.3900 O   0  0  0  0  0  0  0  0  0  0  0  0
    4.2490   61.1000   70.5220 C   0  0  0  0  0  0  0  0  0  0  0  0
    3.7670   59.7280   70.0330 C   0  0  0  0  0  0  0  0  0  0  0  0
    3.7720   58.6590   71.1300 C   0  0  0  0  0  0  0  0  0  0  0  0
    2.4310   58.5720   71.8730 C   0  0  0  0  0  0  0  0  0  0  0  0
    2.6400   58.1090   73.3180 C   0  0  0  0  0  0  0  0  0  0  0  0
    1.3200   57.9830   74.1370 N   0  0  0  0  0  4  0  0  0  0  0  0
    0.5580   59.3400   74.1900 C   0  0  0  0  0  0  0  0  0  0  0  0
   -0.9180   59.2460   73.8340 C   0  0  0  0  0  0  0  0  0  0  0  0
    1.6100   57.5870   75.6110 C   0  0  0  0  0  0  0  0  0  0  0  0
    2.5590   58.5300   76.3370 C   0  0  0  0  0  0  0  0  0  0  0  0
    0.4450   56.8830   73.4130 C   0  0  0  0  0  0  0  0  0  0  0  0
   -0.0240   55.6750   74.2050 C   0  0  0  0  0  0  0  0  0  0  0  0
   -1.3320   55.6520   74.7260 C   0  0  0  0  0  0  0  0  0  0  0  0
   -1.8160   54.5510   75.4450 C   0  0  0  0  0  0  0  0  0  0  0  0
   -1.0040   53.4450   75.6780 C   0  0  0  0  0  0  0  0  0  0  0  0
    0.3060   53.4430   75.2140 C   0  0  0  0  0  0  0  0  0  0  0  0
    0.7820   54.5550   74.5040 C   0  0  0  0  0  0  0  0  0  0  0  0
    2.1730   54.5110   74.1040 N   0  0  0  0  0  4  0  0  0  0  0  0
    2.4160   54.1030   72.9630 O   0  0  0  0  0  0  0  0  0  0  0  0
    3.0100   54.8040   74.9650 O   0  0  0  0  0  1  0  0  0  0  0  0
    0.1460   63.7410   70.6870 C   0  0  0  0  0  0  0  0  0  0  0  0
    0.2400   65.2710   70.7570 C   0  0  0  0  0  0  0  0  0  0  0  0
    1.5110   65.8340   70.1090 C   0  0  0  0  0  0  0  0  0  0  0  0
    1.3580   67.1810   69.3880 C   0  0  0  0  0  0  0  0  0  0  0  0
    1.3920   67.0320   67.8610 C   0  0  0  0  0  0  0  0  0  0  0  0
    0.6410   68.1540   67.0800 N   0  0  0  0  0  4  0  0  0  0  0  0
   -0.7880   68.3920   67.6530 C   0  0  0  0  0  0  0  0  0  0  0  0
   -1.7160   67.1930   67.5190 C   0  0  0  0  0  0  0  0  0  0  0  0
   -0.1450   68.7250   64.6630 C   0  0  0  0  0  0  0  0  0  0  0  0
    0.5000   67.7010   65.5910 C   0  0  0  0  0  0  0  0  0  0  0  0
    1.4410   69.5170   67.1550 C   0  0  0  0  0  0  0  0  0  0  0  0
    2.9050   69.5300   66.7650 C   0  0  0  0  0  0  0  0  0  0  0  0
    3.2670   69.0800   65.4800 C   0  0  0  0  0  0  0  0  0  0  0  0
    4.6030   69.0810   65.0630 C   0  0  0  0  0  0  0  0  0  0  0  0
    5.6100   69.5290   65.9140 C   0  0  0  0  0  0  0  0  0  0  0  0
    5.2900   69.9770   67.1920 C   0  0  0  0  0  0  0  0  0  0  0  0
    3.9500   69.9640   67.6050 C   0  0  0  0  0  0  0  0  0  0  0  0
    3.6690   70.4780   68.9330 N   0  0  0  0  0  4  0  0  0  0  0  0
    3.7750   71.6970   69.1040 O   0  0  0  0  0  0  0  0  0  0  0  0
    3.4410   69.6420   69.8150 O   0  0  0  0  0  1  0  0  0  0  0  0
    0.4569   63.6496   74.6824 H   0  0  0  0  0  0  0  0  0  0  0  0
    0.2361   64.8575   73.3713 H   0  0  0  0  0  0  0  0  0  0  0  0
   -0.7327   63.3449   73.3713 H   0  0  0  0  0  0  0  0  0  0  0  0
    2.3860   62.5265   74.5259 H   0  0  0  0  0  0  0  0  0  0  0  0
    4.5072   61.7194   69.6504 H   0  0  0  0  0  0  0  0  0  0  0  0
    5.1261   60.9471   71.1680 H   0  0  0  0  0  0  0  0  0  0  0  0
    2.7402   59.8336   69.6528 H   0  0  0  0  0  0  0  0  0  0  0  0
    4.4659   59.3963   69.2510 H   0  0  0  0  0  0  0  0  0  0  0  0
    3.9843   57.6826   70.6700 H   0  0  0  0  0  0  0  0  0  0  0  0
    4.5430   58.9369   71.8637 H   0  0  0  0  0  0  0  0  0  0  0  0
    1.9558   59.5640   71.8771 H   0  0  0  0  0  0  0  0  0  0  0  0
    1.7887   57.8425   71.3580 H   0  0  0  0  0  0  0  0  0  0  0  0
    3.1312   57.1250   73.2989 H   0  0  0  0  0  0  0  0  0  0  0  0
    3.2521   58.8765   73.8143 H   0  0  0  0  0  0  0  0  0  0  0  0
    0.6408   59.7415   75.2108 H   0  0  0  0  0  0  0  0  0  0  0  0
    1.0224   59.9906   73.4344 H   0  0  0  0  0  0  0  0  0  0  0  0
   -1.5160   59.2079   74.7565 H   0  0  0  0  0  0  0  0  0  0  0  0
   -1.2097   60.1274   73.2440 H   0  0  0  0  0  0  0  0  0  0  0  0
   -1.0956   58.3347   73.2440 H   0  0  0  0  0  0  0  0  0  0  0  0
    0.6555   57.5704   76.1576 H   0  0  0  0  0  0  0  0  0  0  0  0
    2.1029   56.6040   75.5823 H   0  0  0  0  0  0  0  0  0  0  0  0
    2.4367   58.4085   77.4234 H   0  0  0  0  0  0  0  0  0  0  0  0
    3.5961   58.2944   76.0561 H   0  0  0  0  0  0  0  0  0  0  0  0
    2.3300   59.5686   76.0561 H   0  0  0  0  0  0  0  0  0  0  0  0
   -0.4551   57.3872   73.0313 H   0  0  0  0  0  0  0  0  0  0  0  0
    1.1263   56.4570   72.6618 H   0  0  0  0  0  0  0  0  0  0  0  0
   -1.9895   56.5190   74.5647 H   0  0  0  0  0  0  0  0  0  0  0  0
   -2.8469   54.5609   75.8287 H   0  0  0  0  0  0  0  0  0  0  0  0
   -1.3972   52.5766   76.2268 H   0  0  0  0  0  0  0  0  0  0  0  0
    0.9616   52.5798   75.4013 H   0  0  0  0  0  0  0  0  0  0  0  0
    0.1834   63.4311   69.6322 H   0  0  0  0  0  0  0  0  0  0  0  0
   -0.8004   63.4376   71.1585 H   0  0  0  0  0  0  0  0  0  0  0  0
   -0.6327   65.6978   70.2411 H   0  0  0  0  0  0  0  0  0  0  0  0
    0.2695   65.5459   71.8217 H   0  0  0  0  0  0  0  0  0  0  0  0
    2.2651   65.9592   70.9000 H   0  0  0  0  0  0  0  0  0  0  0  0
    1.7925   65.1104   69.3298 H   0  0  0  0  0  0  0  0  0  0  0  0
    0.3968   67.6303   69.6782 H   0  0  0  0  0  0  0  0  0  0  0  0
    2.2048   67.8182   69.6826 H   0  0  0  0  0  0  0  0  0  0  0  0
    2.4440   67.0361   67.5396 H   0  0  0  0  0  0  0  0  0  0  0  0
    0.8724   66.0907   67.6290 H   0  0  0  0  0  0  0  0  0  0  0  0
   -0.6957   68.6404   68.7206 H   0  0  0  0  0  0  0  0  0  0  0  0
   -1.2348   69.2077   67.0656 H   0  0  0  0  0  0  0  0  0  0  0  0
   -1.9954   66.8320   68.5198 H   0  0  0  0  0  0  0  0  0  0  0  0
   -2.6219   67.4900   66.9702 H   0  0  0  0  0  0  0  0  0  0  0  0
   -1.2014   66.3905   66.9702 H   0  0  0  0  0  0  0  0  0  0  0  0
   -0.6364   69.5052   65.2629 H   0  0  0  0  0  0  0  0  0  0  0  0
    0.6280   69.1829   64.0284 H   0  0  0  0  0  0  0  0  0  0  0  0
   -0.8919   68.2255   64.0284 H   0  0  0  0  0  0  0  0  0  0  0  0
   -0.1123   66.7875   65.5690 H   0  0  0  0  0  0  0  0  0  0  0  0
    1.5237   67.5504   65.2177 H   0  0  0  0  0  0  0  0  0  0  0  0
    0.9251   70.2306   66.4958 H   0  0  0  0  0  0  0  0  0  0  0  0
    1.4509   69.7592   68.2280 H   0  0  0  0  0  0  0  0  0  0  0  0
    2.4864   68.7218   64.7928 H   0  0  0  0  0  0  0  0  0  0  0  0
    4.8597   68.7249   64.0544 H   0  0  0  0  0  0  0  0  0  0  0  0
    6.6569   69.5288   65.5765 H   0  0  0  0  0  0  0  0  0  0  0  0
    6.0782   70.3368   67.8697 H   0  0  0  0  0  0  0  0  0  0  0  0
  2  1  1  0
  3  2  1  0
  4  2  2  0
  5  4  1  0
  6  5  2  0
  7  5  1  0
  8  7  1  0
  8  1  1  0
  9  8  2  0
 10  7  1  0
 11 10  1  0
 12 11  1  0
 13 12  1  0
 14 13  1  0
 15 14  1  0
 16 15  1  0
 17 16  1  0
 18 15  1  0
 19 18  1  0
 20 15  1  0
 21 20  1  0
 22 21  2  0
 23 22  1  0
 24 23  2  0
 25 24  1  0
 26 21  1  0
 26 25  2  0
 27 26  1  0
 28 27  2  0
 29 27  1  0
 30  1  1  0
 31 30  1  0
 32 31  1  0
 33 32  1  0
 34 33  1  0
 35 34  1  0
 36 35  1  0
 37 36  1  0
 39 38  1  0
 39 35  1  0
 40 35  1  0
 41 40  1  0
 42 41  2  0
 43 42  1  0
 44 43  2  0
 45 44  1  0
 46 41  1  0
 46 45  2  0
 47 46  1  0
 48 47  2  0
 49 47  1  0
  3 50  1  0
  3 51  1  0
  3 52  1  0
  4 53  1  0
 10 54  1  0
 10 55  1  0
 11 56  1  0
 11 57  1  0
 12 58  1  0
 12 59  1  0
 13 60  1  0
 13 61  1  0
 14 62  1  0
 14 63  1  0
 16 64  1  0
 16 65  1  0
 17 66  1  0
 17 67  1  0
 17 68  1  0
 18 69  1  0
 18 70  1  0
 19 71  1  0
 19 72  1  0
 19 73  1  0
 20 74  1  0
 20 75  1  0
 22 76  1  0
 23 77  1  0
 24 78  1  0
 25 79  1  0
 30 80  1  0
 30 81  1  0
 31 82  1  0
 31 83  1  0
 32 84  1  0
 32 85  1  0
 33 86  1  0
 33 87  1  0
 34 88  1  0
 34 89  1  0
 36 90  1  0
 36 91  1  0
 37 92  1  0
 37 93  1  0
 37 94  1  0
 38 95  1  0
 38 96  1  0
 38 97  1  0
 39 98  1  0
 39 99  1  0
 40100  1  0
 40101  1  0
 42102  1  0
 43103  1  0
 44104  1  0
 45105  1  0
M  CHG  6  15   1  27   1  29  -1  35   1  47   1  49  -1
M  END
>  <score>  (5) 
-8.867

$$$$
=
     RDKit          3D

105107  0  0  0  0  0  0  0  0999 V2000
    3.1960   62.7070   70.4630 N   0  0  0  0  0  0  0  0  0  0  0  0
    3.5960   62.1950   69.2330 C   0  0  0  0  0  0  0  0  0  0  0  0
    3.7690   63.1060   68.0480 C   0  0  0  0  0  0  0  0  0  0  0  0
    3.8230   60.8840   69.0920 C   0  0  0  0  0  0  0  0  0  0  0  0
    3.6540   59.9680   70.2270 C   0  0  0  0  0  0  0  0  0  0  0  0
    3.7820   58.7580   70.0470 O   0  0  0  0  0  0  0  0  0  0  0  0
    3.3510   60.5500   71.4380 N   0  0  0  0  0  0  0  0  0  0  0  0
    3.0690   61.9000   71.6050 C   0  0  0  0  0  0  0  0  0  0  0  0
    2.7240   62.3630   72.6940 O   0  0  0  0  0  0  0  0  0  0  0  0
    3.2060   59.6640   72.5870 C   0  0  0  0  0  0  0  0  0  0  0  0
    1.8180   59.0100   72.6200 C   0  0  0  0  0  0  0  0  0  0  0  0
    1.8700   57.4790   72.5810 C   0  0  0  0  0  0  0  0  0  0  0  0
    0.7780   56.8310   73.4450 C   0  0  0  0  0  0  0  0  0  0  0  0
    1.3960   56.0940   74.6380 C   0  0  0  0  0  0  0  0  0  0  0  0
    0.4280   55.9340   75.8490 N   0  0  0  0  0  4  0  0  0  0  0  0
    0.5130   54.5010   76.4510 C   0  0  0  0  0  0  0  0  0  0  0  0
    1.4820   53.5740   75.7330 C   0  0  0  0  0  0  0  0  0  0  0  0
   -1.0500   56.1400   75.4170 C   0  0  0  0  0  0  0  0  0  0  0  0
   -1.9010   54.8790   75.4770 C   0  0  0  0  0  0  0  0  0  0  0  0
    0.8640   57.0120   76.9190 C   0  0  0  0  0  0  0  0  0  0  0  0
    1.0230   58.4590   76.4870 C   0  0  0  0  0  0  0  0  0  0  0  0
   -0.1180   59.2100   76.1430 C   0  0  0  0  0  0  0  0  0  0  0  0
   -0.0220   60.5540   75.7580 C   0  0  0  0  0  0  0  0  0  0  0  0
    1.2170   61.1850   75.6900 C   0  0  0  0  0  0  0  0  0  0  0  0
    2.3700   60.4690   75.9830 C   0  0  0  0  0  0  0  0  0  0  0  0
    2.2640   59.1220   76.3590 C   0  0  0  0  0  0  0  0  0  0  0  0
    3.5090   58.4200   76.5900 N   0  0  0  0  0  4  0  0  0  0  0  0
    3.8790   58.3080   77.7640 O   0  0  0  0  0  0  0  0  0  0  0  0
    4.1440   58.0670   75.5900 O   0  0  0  0  0  1  0  0  0  0  0  0
    2.9160   64.1370   70.6510 C   0  0  0  0  0  0  0  0  0  0  0  0
    1.4660   64.4930   70.2980 C   0  0  0  0  0  0  0  0  0  0  0  0
    1.1800   65.9980   70.3420 C   0  0  0  0  0  0  0  0  0  0  0  0
    0.5980   66.6110   69.0600 C   0  0  0  0  0  0  0  0  0  0  0  0
    1.5170   67.6820   68.4580 C   0  0  0  0  0  0  0  0  0  0  0  0
    0.9940   68.3200   67.1340 N   0  0  0  0  0  4  0  0  0  0  0  0
   -0.2160   69.2670   67.3940 C   0  0  0  0  0  0  0  0  0  0  0  0
   -1.4010   69.0230   66.4710 C   0  0  0  0  0  0  0  0  0  0  0  0
    1.5070   66.7700   65.1040 C   0  0  0  0  0  0  0  0  0  0  0  0
    0.5160   67.1680   66.1920 C   0  0  0  0  0  0  0  0  0  0  0  0
    2.1370   69.1550   66.4270 C   0  0  0  0  0  0  0  0  0  0  0  0
    3.2870   69.6780   67.2620 C   0  0  0  0  0  0  0  0  0  0  0  0
    3.0220   70.1350   68.5670 C   0  0  0  0  0  0  0  0  0  0  0  0
    4.0470   70.6190   69.3870 C   0  0  0  0  0  0  0  0  0  0  0  0
    5.3610   70.6610   68.9270 C   0  0  0  0  0  0  0  0  0  0  0  0
    5.6600   70.2220   67.6400 C   0  0  0  0  0  0  0  0  0  0  0  0
    4.6250   69.7470   66.8220 C   0  0  0  0  0  0  0  0  0  0  0  0
    4.9980   69.2660   65.5050 N   0  0  0  0  0  4  0  0  0  0  0  0
    5.4800   70.0860   64.7180 O   0  0  0  0  0  0  0  0  0  0  0  0
    4.7100   68.0930   65.2410 O   0  0  0  0  0  1  0  0  0  0  0  0
    3.9635   64.1304   68.3984 H   0  0  0  0  0  0  0  0  0  0  0  0
    4.6173   62.7592   67.4397 H   0  0  0  0  0  0  0  0  0  0  0  0
    2.8526   63.0944   67.4397 H   0  0  0  0  0  0  0  0  0  0  0  0
    4.1395   60.4883   68.1157 H   0  0  0  0  0  0  0  0  0  0  0  0
    3.9714   58.8760   72.5298 H   0  0  0  0  0  0  0  0  0  0  0  0
    3.3281   60.2620   73.5021 H   0  0  0  0  0  0  0  0  0  0  0  0
    1.3081   59.3189   73.5444 H   0  0  0  0  0  0  0  0  0  0  0  0
    1.2794   59.3414   71.7199 H   0  0  0  0  0  0  0  0  0  0  0  0
    1.7390   57.1480   71.5402 H   0  0  0  0  0  0  0  0  0  0  0  0
    2.8445   57.1674   72.9850 H   0  0  0  0  0  0  0  0  0  0  0  0
    0.0997   57.6134   73.8161 H   0  0  0  0  0  0  0  0  0  0  0  0
    0.2248   56.1060   72.8299 H   0  0  0  0  0  0  0  0  0  0  0  0
    1.7034   55.0917   74.3050 H   0  0  0  0  0  0  0  0  0  0  0  0
    2.2450   56.7014   74.9848 H   0  0  0  0  0  0  0  0  0  0  0  0
    0.8326   54.5870   77.5000 H   0  0  0  0  0  0  0  0  0  0  0  0
   -0.4867   54.0551   76.3423 H   0  0  0  0  0  0  0  0  0  0  0  0
    2.0693   53.0122   76.4742 H   0  0  0  0  0  0  0  0  0  0  0  0
    0.9179   52.8708   75.1028 H   0  0  0  0  0  0  0  0  0  0  0  0
    2.1596   54.1687   75.1028 H   0  0  0  0  0  0  0  0  0  0  0  0
   -1.5014   56.8923   76.0806 H   0  0  0  0  0  0  0  0  0  0  0  0
   -1.0295   56.4568   74.3638 H   0  0  0  0  0  0  0  0  0  0  0  0
   -2.0831   54.6092   76.5277 H   0  0  0  0  0  0  0  0  0  0  0  0
   -2.8619   55.0608   74.9733 H   0  0  0  0  0  0  0  0  0  0  0  0
   -1.3729   54.0559   74.9733 H   0  0  0  0  0  0  0  0  0  0  0  0
    0.1085   56.9959   77.7184 H   0  0  0  0  0  0  0  0  0  0  0  0
    1.8835   56.7076   77.1981 H   0  0  0  0  0  0  0  0  0  0  0  0
   -1.1073   58.7303   76.1774 H   0  0  0  0  0  0  0  0  0  0  0  0
   -0.9340   61.1155   75.5072 H   0  0  0  0  0  0  0  0  0  0  0  0
    1.2823   62.2456   75.4056 H   0  0  0  0  0  0  0  0  0  0  0  0
    3.3559   60.9530   75.9209 H   0  0  0  0  0  0  0  0  0  0  0  0
    3.0992   64.3988   71.7036 H   0  0  0  0  0  0  0  0  0  0  0  0
    3.5769   64.7027   69.9778 H   0  0  0  0  0  0  0  0  0  0  0  0
    1.2548   64.1276   69.2822 H   0  0  0  0  0  0  0  0  0  0  0  0
    0.8223   64.0183   71.0532 H   0  0  0  0  0  0  0  0  0  0  0  0
    0.4644   66.1808   71.1572 H   0  0  0  0  0  0  0  0  0  0  0  0
    2.1578   66.4814   70.4841 H   0  0  0  0  0  0  0  0  0  0  0  0
    0.4542   65.8109   68.3189 H   0  0  0  0  0  0  0  0  0  0  0  0
   -0.3557   67.0933   69.3203 H   0  0  0  0  0  0  0  0  0  0  0  0
    1.6398   68.4847   69.2001 H   0  0  0  0  0  0  0  0  0  0  0  0
    2.4612   67.1763   68.2075 H   0  0  0  0  0  0  0  0  0  0  0  0
   -0.5506   69.1240   68.4321 H   0  0  0  0  0  0  0  0  0  0  0  0
    0.1337   70.2917   67.1997 H   0  0  0  0  0  0  0  0  0  0  0  0
   -2.3026   68.8373   67.0731 H   0  0  0  0  0  0  0  0  0  0  0  0
   -1.5596   69.9073   65.8363 H   0  0  0  0  0  0  0  0  0  0  0  0
   -1.1973   68.1479   65.8363 H   0  0  0  0  0  0  0  0  0  0  0  0
    2.4322   66.3984   65.5688 H   0  0  0  0  0  0  0  0  0  0  0  0
    1.0672   65.9788   64.4791 H   0  0  0  0  0  0  0  0  0  0  0  0
    1.7367   67.6456   64.4791 H   0  0  0  0  0  0  0  0  0  0  0  0
   -0.4150   67.4913   65.7034 H   0  0  0  0  0  0  0  0  0  0  0  0
    0.3899   66.2816   66.8311 H   0  0  0  0  0  0  0  0  0  0  0  0
    2.5710   68.5117   65.6474 H   0  0  0  0  0  0  0  0  0  0  0  0
    1.6246   70.0657   66.0834 H   0  0  0  0  0  0  0  0  0  0  0  0
    1.9906   70.1111   68.9487 H   0  0  0  0  0  0  0  0  0  0  0  0
    3.8133   70.9692   70.4032 H   0  0  0  0  0  0  0  0  0  0  0  0
    6.1612   71.0404   69.5795 H   0  0  0  0  0  0  0  0  0  0  0  0
    6.6954   70.2475   67.2695 H   0  0  0  0  0  0  0  0  0  0  0  0
  2  1  1  0
  3  2  1  0
  4  2  2  0
  5  4  1  0
  6  5  2  0
  7  5  1  0
  8  7  1  0
  8  1  1  0
  9  8  2  0
 10  7  1  0
 11 10  1  0
 12 11  1  0
 13 12  1  0
 14 13  1  0
 15 14  1  0
 16 15  1  0
 17 16  1  0
 18 15  1  0
 19 18  1  0
 20 15  1  0
 21 20  1  0
 22 21  2  0
 23 22  1  0
 24 23  2  0
 25 24  1  0
 26 21  1  0
 26 25  2  0
 27 26  1  0
 28 27  2  0
 29 27  1  0
 30  1  1  0
 31 30  1  0
 32 31  1  0
 33 32  1  0
 34 33  1  0
 35 34  1  0
 36 35  1  0
 37 36  1  0
 39 38  1  0
 39 35  1  0
 40 35  1  0
 41 40  1  0
 42 41  2  0
 43 42  1  0
 44 43  2  0
 45 44  1  0
 46 41  1  0
 46 45  2  0
 47 46  1  0
 48 47  2  0
 49 47  1  0
  3 50  1  0
  3 51  1  0
  3 52  1  0
  4 53  1  0
 10 54  1  0
 10 55  1  0
 11 56  1  0
 11 57  1  0
 12 58  1  0
 12 59  1  0
 13 60  1  0
 13 61  1  0
 14 62  1  0
 14 63  1  0
 16 64  1  0
 16 65  1  0
 17 66  1  0
 17 67  1  0
 17 68  1  0
 18 69  1  0
 18 70  1  0
 19 71  1  0
 19 72  1  0
 19 73  1  0
 20 74  1  0
 20 75  1  0
 22 76  1  0
 23 77  1  0
 24 78  1  0
 25 79  1  0
 30 80  1  0
 30 81  1  0
 31 82  1  0
 31 83  1  0
 32 84  1  0
 32 85  1  0
 33 86  1  0
 33 87  1  0
 34 88  1  0
 34 89  1  0
 36 90  1  0
 36 91  1  0
 37 92  1  0
 37 93  1  0
 37 94  1  0
 38 95  1  0
 38 96  1  0
 38 97  1  0
 39 98  1  0
 39 99  1  0
 40100  1  0
 40101  1  0
 42102  1  0
 43103  1  0
 44104  1  0
 45105  1  0
M  CHG  6  15   1  27   1  29  -1  35   1  47   1  49  -1
M  END
>  <score>  (6) 
-8.688

$$$$
=
     RDKit          3D

105107  0  0  0  0  0  0  0  0999 V2000
    2.7980   61.6000   71.7610 N   0  0  0  0  0  0  0  0  0  0  0  0
    2.6010   61.6070   73.1380 C   0  0  0  0  0  0  0  0  0  0  0  0
    3.4470   60.7410   74.0320 C   0  0  0  0  0  0  0  0  0  0  0  0
    1.6510   62.3790   73.6780 C   0  0  0  0  0  0  0  0  0  0  0  0
    0.8040   63.2270   72.8310 C   0  0  0  0  0  0  0  0  0  0  0  0
   -0.1200   63.8580   73.3440 O   0  0  0  0  0  0  0  0  0  0  0  0
    1.1140   63.2490   71.4890 N   0  0  0  0  0  0  0  0  0  0  0  0
    2.0640   62.4280   70.8960 C   0  0  0  0  0  0  0  0  0  0  0  0
    2.2510   62.4240   69.6770 O   0  0  0  0  0  0  0  0  0  0  0  0
    0.3040   64.1050   70.6310 C   0  0  0  0  0  0  0  0  0  0  0  0
    0.9600   65.4760   70.4230 C   0  0  0  0  0  0  0  0  0  0  0  0
    0.0960   66.4440   69.6090 C   0  0  0  0  0  0  0  0  0  0  0  0
    0.9320   67.3580   68.7000 C   0  0  0  0  0  0  0  0  0  0  0  0
    0.5680   67.1410   67.2280 C   0  0  0  0  0  0  0  0  0  0  0  0
    0.4180   68.4610   66.4150 N   0  0  0  0  0  4  0  0  0  0  0  0
   -1.0500   68.9790   66.4480 C   0  0  0  0  0  0  0  0  0  0  0  0
   -2.0690   67.9480   66.9090 C   0  0  0  0  0  0  0  0  0  0  0  0
    0.7690   68.2400   64.9180 C   0  0  0  0  0  0  0  0  0  0  0  0
   -0.0760   69.0560   63.9490 C   0  0  0  0  0  0  0  0  0  0  0  0
    1.3930   69.5130   67.0790 C   0  0  0  0  0  0  0  0  0  0  0  0
    2.8600   69.5080   66.6880 C   0  0  0  0  0  0  0  0  0  0  0  0
    3.2410   69.0180   65.4250 C   0  0  0  0  0  0  0  0  0  0  0  0
    4.5800   69.0130   65.0130 C   0  0  0  0  0  0  0  0  0  0  0  0
    5.5830   69.4830   65.8560 C   0  0  0  0  0  0  0  0  0  0  0  0
    5.2540   69.9400   67.1270 C   0  0  0  0  0  0  0  0  0  0  0  0
    3.9110   69.9320   67.5310 C   0  0  0  0  0  0  0  0  0  0  0  0
    3.6490   70.3630   68.8890 N   0  0  0  0  0  4  0  0  0  0  0  0
    4.0830   71.4730   69.2170 O   0  0  0  0  0  0  0  0  0  0  0  0
    3.0870   69.5520   69.6330 O   0  0  0  0  0  1  0  0  0  0  0  0
    3.8160   60.7500   71.1290 C   0  0  0  0  0  0  0  0  0  0  0  0
    3.1960   59.5400   70.4180 C   0  0  0  0  0  0  0  0  0  0  0  0
    3.3950   58.2220   71.1760 C   0  0  0  0  0  0  0  0  0  0  0  0
    2.2040   57.7460   72.0210 C   0  0  0  0  0  0  0  0  0  0  0  0
    2.6150   57.3830   73.4540 C   0  0  0  0  0  0  0  0  0  0  0  0
    1.5820   56.5060   74.2260 N   0  0  0  0  0  4  0  0  0  0  0  0
    1.5660   56.8450   75.7470 C   0  0  0  0  0  0  0  0  0  0  0  0
    2.5560   57.9290   76.1490 C   0  0  0  0  0  0  0  0  0  0  0  0
    0.9470   53.9960   74.5130 C   0  0  0  0  0  0  0  0  0  0  0  0
    1.9950   55.0080   74.0650 C   0  0  0  0  0  0  0  0  0  0  0  0
    0.1240   56.7270   73.6520 C   0  0  0  0  0  0  0  0  0  0  0  0
   -0.7420   57.8170   74.2490 C   0  0  0  0  0  0  0  0  0  0  0  0
   -0.5390   59.1470   73.8320 C   0  0  0  0  0  0  0  0  0  0  0  0
   -1.3170   60.1930   74.3420 C   0  0  0  0  0  0  0  0  0  0  0  0
   -2.3160   59.9390   75.2790 C   0  0  0  0  0  0  0  0  0  0  0  0
   -2.5430   58.6370   75.7170 C   0  0  0  0  0  0  0  0  0  0  0  0
   -1.7520   57.5980   75.2080 C   0  0  0  0  0  0  0  0  0  0  0  0
   -2.0570   56.2560   75.6690 N   0  0  0  0  0  4  0  0  0  0  0  0
   -2.9270   55.6300   75.0570 O   0  0  0  0  0  0  0  0  0  0  0  0
   -1.4900   55.8830   76.7030 O   0  0  0  0  0  1  0  0  0  0  0  0
    3.2226   60.9707   75.0841 H   0  0  0  0  0  0  0  0  0  0  0  0
    3.2259   59.6820   73.8327 H   0  0  0  0  0  0  0  0  0  0  0  0
    4.5108   60.9373   73.8327 H   0  0  0  0  0  0  0  0  0  0  0  0
    1.5033   62.3781   74.7680 H   0  0  0  0  0  0  0  0  0  0  0  0
    0.1800   63.6162   69.6534 H   0  0  0  0  0  0  0  0  0  0  0  0
   -0.6699   64.2592   71.1185 H   0  0  0  0  0  0  0  0  0  0  0  0
    1.1522   65.9242   71.4090 H   0  0  0  0  0  0  0  0  0  0  0  0
    1.8873   65.3106   69.8549 H   0  0  0  0  0  0  0  0  0  0  0  0
   -0.5940   65.8595   68.9827 H   0  0  0  0  0  0  0  0  0  0  0  0
   -0.4466   67.0853   70.3192 H   0  0  0  0  0  0  0  0  0  0  0  0
    0.7394   68.4073   68.9683 H   0  0  0  0  0  0  0  0  0  0  0  0
    1.9960   67.1164   68.8395 H   0  0  0  0  0  0  0  0  0  0  0  0
    1.3582   66.5345   66.7614 H   0  0  0  0  0  0  0  0  0  0  0  0
   -0.4121   66.6419   67.2111 H   0  0  0  0  0  0  0  0  0  0  0  0
   -1.0963   69.8387   67.1326 H   0  0  0  0  0  0  0  0  0  0  0  0
   -1.3142   69.2410   65.4128 H   0  0  0  0  0  0  0  0  0  0  0  0
   -2.0937   67.9230   68.0084 H   0  0  0  0  0  0  0  0  0  0  0  0
   -3.0639   68.2191   66.5260 H   0  0  0  0  0  0  0  0  0  0  0  0
   -1.7863   66.9563   66.5260 H   0  0  0  0  0  0  0  0  0  0  0  0
    1.8243   68.5117   64.7679 H   0  0  0  0  0  0  0  0  0  0  0  0
    0.5648   67.1814   64.6996 H   0  0  0  0  0  0  0  0  0  0  0  0
   -0.7542   69.7109   64.5157 H   0  0  0  0  0  0  0  0  0  0  0  0
    0.5818   69.6693   63.3157 H   0  0  0  0  0  0  0  0  0  0  0  0
   -0.6660   68.3772   63.3157 H   0  0  0  0  0  0  0  0  0  0  0  0
    0.9995   70.5121   66.8405 H   0  0  0  0  0  0  0  0  0  0  0  0
    1.4029   69.2286   68.1416 H   0  0  0  0  0  0  0  0  0  0  0  0
    2.4687   68.6295   64.7448 H   0  0  0  0  0  0  0  0  0  0  0  0
    4.8412   68.6341   64.0139 H   0  0  0  0  0  0  0  0  0  0  0  0
    6.6299   69.4927   65.5184 H   0  0  0  0  0  0  0  0  0  0  0  0
    6.0378   70.3036   67.8078 H   0  0  0  0  0  0  0  0  0  0  0  0
    4.3705   61.3491   70.3917 H   0  0  0  0  0  0  0  0  0  0  0  0
    4.4822   60.3741   71.9195 H   0  0  0  0  0  0  0  0  0  0  0  0
    2.1164   59.7176   70.3043 H   0  0  0  0  0  0  0  0  0  0  0  0
    3.7042   59.4372   69.4479 H   0  0  0  0  0  0  0  0  0  0  0  0
    3.6178   57.4386   70.4366 H   0  0  0  0  0  0  0  0  0  0  0  0
    4.2097   58.4105   71.8906 H   0  0  0  0  0  0  0  0  0  0  0  0
    1.4546   58.5503   72.0609 H   0  0  0  0  0  0  0  0  0  0  0  0
    1.7964   56.8403   71.5481 H   0  0  0  0  0  0  0  0  0  0  0  0
    3.5660   56.8321   73.4085 H   0  0  0  0  0  0  0  0  0  0  0  0
    2.6904   58.3319   74.0053 H   0  0  0  0  0  0  0  0  0  0  0  0
    0.5544   57.1833   76.0156 H   0  0  0  0  0  0  0  0  0  0  0  0
    1.8615   55.9297   76.2807 H   0  0  0  0  0  0  0  0  0  0  0  0
    2.6098   57.9879   77.2461 H   0  0  0  0  0  0  0  0  0  0  0  0
    3.5500   57.6856   75.7457 H   0  0  0  0  0  0  0  0  0  0  0  0
    2.2237   58.8969   75.7457 H   0  0  0  0  0  0  0  0  0  0  0  0
    0.9142   53.9643   75.6121 H   0  0  0  0  0  0  0  0  0  0  0  0
   -0.0386   54.2928   74.1251 H   0  0  0  0  0  0  0  0  0  0  0  0
    1.2091   53.0006   74.1251 H   0  0  0  0  0  0  0  0  0  0  0  0
    2.9060   54.8402   74.6582 H   0  0  0  0  0  0  0  0  0  0  0  0
    2.1375   54.8440   72.9867 H   0  0  0  0  0  0  0  0  0  0  0  0
    0.2298   56.9500   72.5801 H   0  0  0  0  0  0  0  0  0  0  0  0
   -0.4052   55.7979   73.9103 H   0  0  0  0  0  0  0  0  0  0  0  0
    0.2448   59.3676   73.0924 H   0  0  0  0  0  0  0  0  0  0  0  0
   -1.1382   61.2232   74.0003 H   0  0  0  0  0  0  0  0  0  0  0  0
   -2.9249   60.7663   75.6725 H   0  0  0  0  0  0  0  0  0  0  0  0
   -3.3329   58.4266   76.4530 H   0  0  0  0  0  0  0  0  0  0  0  0
  2  1  1  0
  3  2  1  0
  4  2  2  0
  5  4  1  0
  6  5  2  0
  7  5  1  0
  8  7  1  0
  8  1  1  0
  9  8  2  0
 10  7  1  0
 11 10  1  0
 12 11  1  0
 13 12  1  0
 14 13  1  0
 15 14  1  0
 16 15  1  0
 17 16  1  0
 18 15  1  0
 19 18  1  0
 20 15  1  0
 21 20  1  0
 22 21  2  0
 23 22  1  0
 24 23  2  0
 25 24  1  0
 26 21  1  0
 26 25  2  0
 27 26  1  0
 28 27  2  0
 29 27  1  0
 30  1  1  0
 31 30  1  0
 32 31  1  0
 33 32  1  0
 34 33  1  0
 35 34  1  0
 36 35  1  0
 37 36  1  0
 39 38  1  0
 39 35  1  0
 40 35  1  0
 41 40  1  0
 42 41  2  0
 43 42  1  0
 44 43  2  0
 45 44  1  0
 46 41  1  0
 46 45  2  0
 47 46  1  0
 48 47  2  0
 49 47  1  0
  3 50  1  0
  3 51  1  0
  3 52  1  0
  4 53  1  0
 10 54  1  0
 10 55  1  0
 11 56  1  0
 11 57  1  0
 12 58  1  0
 12 59  1  0
 13 60  1  0
 13 61  1  0
 14 62  1  0
 14 63  1  0
 16 64  1  0
 16 65  1  0
 17 66  1  0
 17 67  1  0
 17 68  1  0
 18 69  1  0
 18 70  1  0
 19 71  1  0
 19 72  1  0
 19 73  1  0
 20 74  1  0
 20 75  1  0
 22 76  1  0
 23 77  1  0
 24 78  1  0
 25 79  1  0
 30 80  1  0
 30 81  1  0
 31 82  1  0
 31 83  1  0
 32 84  1  0
 32 85  1  0
 33 86  1  0
 33 87  1  0
 34 88  1  0
 34 89  1  0
 36 90  1  0
 36 91  1  0
 37 92  1  0
 37 93  1  0
 37 94  1  0
 38 95  1  0
 38 96  1  0
 38 97  1  0
 39 98  1  0
 39 99  1  0
 40100  1  0
 40101  1  0
 42102  1  0
 43103  1  0
 44104  1  0
 45105  1  0
M  CHG  6  15   1  27   1  29  -1  35   1  47   1  49  -1
M  END
>  <score>  (7) 
-8.666

$$$$
=
     RDKit          3D

105107  0  0  0  0  0  0  0  0999 V2000
    2.6490   60.9730   71.7530 N   0  0  0  0  0  0  0  0  0  0  0  0
    3.1260   60.3280   70.6170 C   0  0  0  0  0  0  0  0  0  0  0  0
    3.4060   58.8500   70.6410 C   0  0  0  0  0  0  0  0  0  0  0  0
    3.3490   61.0210   69.4940 C   0  0  0  0  0  0  0  0  0  0  0  0
    3.0950   62.4650   69.4410 C   0  0  0  0  0  0  0  0  0  0  0  0
    3.3920   63.0920   68.4250 O   0  0  0  0  0  0  0  0  0  0  0  0
    2.5320   63.0250   70.5680 N   0  0  0  0  0  0  0  0  0  0  0  0
    2.3300   62.3410   71.7600 C   0  0  0  0  0  0  0  0  0  0  0  0
    1.8980   62.9030   72.7670 O   0  0  0  0  0  0  0  0  0  0  0  0
    2.2440   64.4540   70.5310 C   0  0  0  0  0  0  0  0  0  0  0  0
    0.7490   64.7220   70.3160 C   0  0  0  0  0  0  0  0  0  0  0  0
    0.4060   66.2130   70.2420 C   0  0  0  0  0  0  0  0  0  0  0  0
    1.2410   66.9580   69.1900 C   0  0  0  0  0  0  0  0  0  0  0  0
    0.3350   67.6300   68.1540 C   0  0  0  0  0  0  0  0  0  0  0  0
    1.0980   68.1780   66.9110 N   0  0  0  0  0  4  0  0  0  0  0  0
    0.1110   68.5610   65.7690 C   0  0  0  0  0  0  0  0  0  0  0  0
   -1.2590   69.0140   66.2480 C   0  0  0  0  0  0  0  0  0  0  0  0
    2.0530   67.1050   66.3210 C   0  0  0  0  0  0  0  0  0  0  0  0
    1.6120   66.5450   64.9760 C   0  0  0  0  0  0  0  0  0  0  0  0
    1.9000   69.4490   67.4000 C   0  0  0  0  0  0  0  0  0  0  0  0
    3.3300   69.6460   66.9270 C   0  0  0  0  0  0  0  0  0  0  0  0
    3.6770   69.3050   65.6050 C   0  0  0  0  0  0  0  0  0  0  0  0
    4.9780   69.4880   65.1180 C   0  0  0  0  0  0  0  0  0  0  0  0
    5.9770   70.0030   65.9410 C   0  0  0  0  0  0  0  0  0  0  0  0
    5.6850   70.3160   67.2630 C   0  0  0  0  0  0  0  0  0  0  0  0
    4.3810   70.1200   67.7420 C   0  0  0  0  0  0  0  0  0  0  0  0
    4.1640   70.4090   69.1440 N   0  0  0  0  0  4  0  0  0  0  0  0
    2.9980   70.6030   69.5010 O   0  0  0  0  0  0  0  0  0  0  0  0
    5.1710   70.5210   69.8520 O   0  0  0  0  0  1  0  0  0  0  0  0
    2.4140   60.2510   73.0110 C   0  0  0  0  0  0  0  0  0  0  0  0
    1.1510   59.3820   72.9500 C   0  0  0  0  0  0  0  0  0  0  0  0
   -0.1350   60.1510   73.2750 C   0  0  0  0  0  0  0  0  0  0  0  0
   -1.1780   59.3950   74.1100 C   0  0  0  0  0  0  0  0  0  0  0  0
   -0.7170   59.1750   75.5570 C   0  0  0  0  0  0  0  0  0  0  0  0
   -1.2570   57.8720   76.2220 N   0  0  0  0  0  4  0  0  0  0  0  0
   -2.5440   58.1440   77.0560 C   0  0  0  0  0  0  0  0  0  0  0  0
   -3.7960   58.3460   76.2130 C   0  0  0  0  0  0  0  0  0  0  0  0
   -0.5160   57.3740   78.6690 C   0  0  0  0  0  0  0  0  0  0  0  0
   -0.1570   57.3250   77.1880 C   0  0  0  0  0  0  0  0  0  0  0  0
   -1.5970   56.7850   75.1230 C   0  0  0  0  0  0  0  0  0  0  0  0
   -0.5760   55.7090   74.8150 C   0  0  0  0  0  0  0  0  0  0  0  0
    0.5660   56.0540   74.0660 C   0  0  0  0  0  0  0  0  0  0  0  0
    1.5470   55.1040   73.7610 C   0  0  0  0  0  0  0  0  0  0  0  0
    1.4140   53.7860   74.1940 C   0  0  0  0  0  0  0  0  0  0  0  0
    0.2970   53.4090   74.9340 C   0  0  0  0  0  0  0  0  0  0  0  0
   -0.6850   54.3650   75.2260 C   0  0  0  0  0  0  0  0  0  0  0  0
   -1.8080   53.9260   76.0330 N   0  0  0  0  0  4  0  0  0  0  0  0
   -2.8200   53.5440   75.4360 O   0  0  0  0  0  0  0  0  0  0  0  0
   -1.7000   54.0630   77.2570 O   0  0  0  0  0  1  0  0  0  0  0  0
    3.4712   58.5060   71.6838 H   0  0  0  0  0  0  0  0  0  0  0  0
    2.5933   58.3145   70.1284 H   0  0  0  0  0  0  0  0  0  0  0  0
    4.3582   58.6488   70.1284 H   0  0  0  0  0  0  0  0  0  0  0  0
    3.7270   60.5021   68.6007 H   0  0  0  0  0  0  0  0  0  0  0  0
    2.5544   64.9058   71.4847 H   0  0  0  0  0  0  0  0  0  0  0  0
    2.7978   64.8955   69.6893 H   0  0  0  0  0  0  0  0  0  0  0  0
    0.4407   64.2455   69.3737 H   0  0  0  0  0  0  0  0  0  0  0  0
    0.2152   64.3073   71.1838 H   0  0  0  0  0  0  0  0  0  0  0  0
   -0.6586   66.3176   69.9858 H   0  0  0  0  0  0  0  0  0  0  0  0
    0.6319   66.6566   71.2229 H   0  0  0  0  0  0  0  0  0  0  0  0
    1.8491   67.7263   69.6900 H   0  0  0  0  0  0  0  0  0  0  0  0
    1.8885   66.2330   68.6752 H   0  0  0  0  0  0  0  0  0  0  0  0
   -0.4042   66.8919   67.8093 H   0  0  0  0  0  0  0  0  0  0  0  0
   -0.1315   68.4941   68.6496 H   0  0  0  0  0  0  0  0  0  0  0  0
    0.5597   69.3793   65.1866 H   0  0  0  0  0  0  0  0  0  0  0  0
   -0.0500   67.6495   65.1746 H   0  0  0  0  0  0  0  0  0  0  0  0
   -1.2792   69.0207   67.3478 H   0  0  0  0  0  0  0  0  0  0  0  0
   -1.4625   70.0273   65.8714 H   0  0  0  0  0  0  0  0  0  0  0  0
   -2.0265   68.3218   65.8714 H   0  0  0  0  0  0  0  0  0  0  0  0
    3.0467   67.5599   66.1956 H   0  0  0  0  0  0  0  0  0  0  0  0
    2.0546   66.2621   67.0278 H   0  0  0  0  0  0  0  0  0  0  0  0
    0.9388   65.6902   65.1377 H   0  0  0  0  0  0  0  0  0  0  0  0
    1.0836   67.3257   64.4092 H   0  0  0  0  0  0  0  0  0  0  0  0
    2.4949   66.2144   64.4092 H   0  0  0  0  0  0  0  0  0  0  0  0
    1.3298   70.3330   67.0785 H   0  0  0  0  0  0  0  0  0  0  0  0
    2.0003   69.2956   68.4846 H   0  0  0  0  0  0  0  0  0  0  0  0
    2.9085   68.8852   64.9393 H   0  0  0  0  0  0  0  0  0  0  0  0
    5.2126   69.2227   64.0766 H   0  0  0  0  0  0  0  0  0  0  0  0
    6.9916   70.1610   65.5465 H   0  0  0  0  0  0  0  0  0  0  0  0
    6.4674   70.7130   67.9265 H   0  0  0  0  0  0  0  0  0  0  0  0
    3.2800   59.6044   73.2160 H   0  0  0  0  0  0  0  0  0  0  0  0
    2.2747   60.9959   73.8083 H   0  0  0  0  0  0  0  0  0  0  0  0
    1.0620   58.9674   71.9350 H   0  0  0  0  0  0  0  0  0  0  0  0
    1.2606   58.5967   73.7125 H   0  0  0  0  0  0  0  0  0  0  0  0
    0.1464   61.0585   73.8293 H   0  0  0  0  0  0  0  0  0  0  0  0
   -0.6165   60.3470   72.3056 H   0  0  0  0  0  0  0  0  0  0  0  0
   -2.1116   59.9765   74.1207 H   0  0  0  0  0  0  0  0  0  0  0  0
   -1.3256   58.4068   73.6498 H   0  0  0  0  0  0  0  0  0  0  0  0
    0.3822   59.1330   75.5638 H   0  0  0  0  0  0  0  0  0  0  0  0
   -1.1217   60.0135   76.1428 H   0  0  0  0  0  0  0  0  0  0  0  0
   -2.7112   57.2862   77.7240 H   0  0  0  0  0  0  0  0  0  0  0  0
   -2.3752   59.0817   77.6057 H   0  0  0  0  0  0  0  0  0  0  0  0
   -4.6642   58.4861   76.8737 H   0  0  0  0  0  0  0  0  0  0  0  0
   -3.6710   59.2356   75.5782 H   0  0  0  0  0  0  0  0  0  0  0  0
   -3.9571   57.4622   75.5782 H   0  0  0  0  0  0  0  0  0  0  0  0
    0.3958   57.2495   79.2716 H   0  0  0  0  0  0  0  0  0  0  0  0
   -0.9799   58.3438   78.9019 H   0  0  0  0  0  0  0  0  0  0  0  0
   -1.2229   56.5640   78.9019 H   0  0  0  0  0  0  0  0  0  0  0  0
    0.7553   57.9211   77.0384 H   0  0  0  0  0  0  0  0  0  0  0  0
   -0.0304   56.2613   76.9380 H   0  0  0  0  0  0  0  0  0  0  0  0
   -2.5157   56.2745   75.4477 H   0  0  0  0  0  0  0  0  0  0  0  0
   -1.6607   57.3638   74.1897 H   0  0  0  0  0  0  0  0  0  0  0  0
    0.6888   57.0891   73.7145 H   0  0  0  0  0  0  0  0  0  0  0  0
    2.4298   55.3997   73.1751 H   0  0  0  0  0  0  0  0  0  0  0  0
    2.1901   53.0452   73.9515 H   0  0  0  0  0  0  0  0  0  0  0  0
    0.1864   52.3726   75.2855 H   0  0  0  0  0  0  0  0  0  0  0  0
  2  1  1  0
  3  2  1  0
  4  2  2  0
  5  4  1  0
  6  5  2  0
  7  5  1  0
  8  7  1  0
  8  1  1  0
  9  8  2  0
 10  7  1  0
 11 10  1  0
 12 11  1  0
 13 12  1  0
 14 13  1  0
 15 14  1  0
 16 15  1  0
 17 16  1  0
 18 15  1  0
 19 18  1  0
 20 15  1  0
 21 20  1  0
 22 21  2  0
 23 22  1  0
 24 23  2  0
 25 24  1  0
 26 21  1  0
 26 25  2  0
 27 26  1  0
 28 27  2  0
 29 27  1  0
 30  1  1  0
 31 30  1  0
 32 31  1  0
 33 32  1  0
 34 33  1  0
 35 34  1  0
 36 35  1  0
 37 36  1  0
 39 38  1  0
 39 35  1  0
 40 35  1  0
 41 40  1  0
 42 41  2  0
 43 42  1  0
 44 43  2  0
 45 44  1  0
 46 41  1  0
 46 45  2  0
 47 46  1  0
 48 47  2  0
 49 47  1  0
  3 50  1  0
  3 51  1  0
  3 52  1  0
  4 53  1  0
 10 54  1  0
 10 55  1  0
 11 56  1  0
 11 57  1  0
 12 58  1  0
 12 59  1  0
 13 60  1  0
 13 61  1  0
 14 62  1  0
 14 63  1  0
 16 64  1  0
 16 65  1  0
 17 66  1  0
 17 67  1  0
 17 68  1  0
 18 69  1  0
 18 70  1  0
 19 71  1  0
 19 72  1  0
 19 73  1  0
 20 74  1  0
 20 75  1  0
 22 76  1  0
 23 77  1  0
 24 78  1  0
 25 79  1  0
 30 80  1  0
 30 81  1  0
 31 82  1  0
 31 83  1  0
 32 84  1  0
 32 85  1  0
 33 86  1  0
 33 87  1  0
 34 88  1  0
 34 89  1  0
 36 90  1  0
 36 91  1  0
 37 92  1  0
 37 93  1  0
 37 94  1  0
 38 95  1  0
 38 96  1  0
 38 97  1  0
 39 98  1  0
 39 99  1  0
 40100  1  0
 40101  1  0
 42102  1  0
 43103  1  0
 44104  1  0
 45105  1  0
M  CHG  6  15   1  27   1  29  -1  35   1  47   1  49  -1
M  END
>  <score>  (8) 
-8.657

$$$$
=
     RDKit          3D

105107  0  0  0  0  0  0  0  0999 V2000
    2.6370   60.8730   71.5720 N   0  0  0  0  0  0  0  0  0  0  0  0
    3.1590   60.3390   70.3990 C   0  0  0  0  0  0  0  0  0  0  0  0
    3.4640   58.8690   70.3010 C   0  0  0  0  0  0  0  0  0  0  0  0
    3.4030   61.1320   69.3490 C   0  0  0  0  0  0  0  0  0  0  0  0
    3.1260   62.5710   69.4170 C   0  0  0  0  0  0  0  0  0  0  0  0
    3.4430   63.2900   68.4700 O   0  0  0  0  0  0  0  0  0  0  0  0
    2.5200   63.0200   70.5700 N   0  0  0  0  0  0  0  0  0  0  0  0
    2.2950   62.2300   71.6900 C   0  0  0  0  0  0  0  0  0  0  0  0
    1.8220   62.6940   72.7300 O   0  0  0  0  0  0  0  0  0  0  0  0
    2.2090   64.4420   70.6510 C   0  0  0  0  0  0  0  0  0  0  0  0
    0.7290   64.7130   70.3510 C   0  0  0  0  0  0  0  0  0  0  0  0
    0.3810   66.2040   70.3180 C   0  0  0  0  0  0  0  0  0  0  0  0
   -0.0320   66.6820   68.9180 C   0  0  0  0  0  0  0  0  0  0  0  0
    1.1720   67.2510   68.1610 C   0  0  0  0  0  0  0  0  0  0  0  0
    0.7900   68.2600   67.0360 N   0  0  0  0  0  4  0  0  0  0  0  0
    1.7710   69.4690   67.0080 C   0  0  0  0  0  0  0  0  0  0  0  0
    2.6410   69.6010   68.2480 C   0  0  0  0  0  0  0  0  0  0  0  0
   -0.6270   68.8520   67.2710 C   0  0  0  0  0  0  0  0  0  0  0  0
   -1.5440   68.7820   66.0580 C   0  0  0  0  0  0  0  0  0  0  0  0
    0.8550   67.4600   65.6750 C   0  0  0  0  0  0  0  0  0  0  0  0
    1.9680   67.7710   64.6890 C   0  0  0  0  0  0  0  0  0  0  0  0
    3.3070   67.5320   65.0550 C   0  0  0  0  0  0  0  0  0  0  0  0
    4.3650   67.7840   64.1730 C   0  0  0  0  0  0  0  0  0  0  0  0
    4.1210   68.2960   62.9010 C   0  0  0  0  0  0  0  0  0  0  0  0
    2.8170   68.5810   62.5140 C   0  0  0  0  0  0  0  0  0  0  0  0
    1.7670   68.3340   63.4100 C   0  0  0  0  0  0  0  0  0  0  0  0
    0.4420   68.7130   62.9630 N   0  0  0  0  0  4  0  0  0  0  0  0
    0.1130   69.8930   63.1270 O   0  0  0  0  0  0  0  0  0  0  0  0
   -0.2820   67.8080   62.5330 O   0  0  0  0  0  1  0  0  0  0  0  0
    2.3770   60.0390   72.7530 C   0  0  0  0  0  0  0  0  0  0  0  0
    3.6160   59.9020   73.6480 C   0  0  0  0  0  0  0  0  0  0  0  0
    3.2780   59.7220   75.1320 C   0  0  0  0  0  0  0  0  0  0  0  0
    1.9270   60.2920   75.5880 C   0  0  0  0  0  0  0  0  0  0  0  0
    0.9050   59.1900   75.9010 C   0  0  0  0  0  0  0  0  0  0  0  0
   -0.5320   59.4620   75.3600 N   0  0  0  0  0  4  0  0  0  0  0  0
   -0.6410   60.8710   74.7040 C   0  0  0  0  0  0  0  0  0  0  0  0
   -1.2490   60.8580   73.3090 C   0  0  0  0  0  0  0  0  0  0  0  0
   -0.8720   59.2790   77.9370 C   0  0  0  0  0  0  0  0  0  0  0  0
   -1.5260   59.4080   76.5660 C   0  0  0  0  0  0  0  0  0  0  0  0
   -0.9360   58.3780   74.2810 C   0  0  0  0  0  0  0  0  0  0  0  0
   -0.1670   57.0740   74.2270 C   0  0  0  0  0  0  0  0  0  0  0  0
    0.9960   57.0060   73.4370 C   0  0  0  0  0  0  0  0  0  0  0  0
    1.7520   55.8310   73.3590 C   0  0  0  0  0  0  0  0  0  0  0  0
    1.3660   54.6940   74.0650 C   0  0  0  0  0  0  0  0  0  0  0  0
    0.2200   54.7230   74.8540 C   0  0  0  0  0  0  0  0  0  0  0  0
   -0.5360   55.9010   74.9190 C   0  0  0  0  0  0  0  0  0  0  0  0
   -1.7000   55.8880   75.7850 N   0  0  0  0  0  4  0  0  0  0  0  0
   -2.8100   55.9140   75.2450 O   0  0  0  0  0  0  0  0  0  0  0  0
   -1.4860   55.9520   77.0020 O   0  0  0  0  0  1  0  0  0  0  0  0
    3.5521   58.4446   71.3120 H   0  0  0  0  0  0  0  0  0  0  0  0
    2.6521   58.3613   69.7597 H   0  0  0  0  0  0  0  0  0  0  0  0
    4.4109   58.7263   69.7597 H   0  0  0  0  0  0  0  0  0  0  0  0
    3.8156   60.7003   68.4252 H   0  0  0  0  0  0  0  0  0  0  0  0
    2.4395   64.8009   71.6649 H   0  0  0  0  0  0  0  0  0  0  0  0
    2.8152   64.9707   69.9006 H   0  0  0  0  0  0  0  0  0  0  0  0
    0.4855   64.2758   69.3714 H   0  0  0  0  0  0  0  0  0  0  0  0
    0.1433   64.2596   71.1642 H   0  0  0  0  0  0  0  0  0  0  0  0
   -0.4518   66.3871   71.0129 H   0  0  0  0  0  0  0  0  0  0  0  0
    1.2822   66.7635   70.6093 H   0  0  0  0  0  0  0  0  0  0  0  0
   -0.4442   65.8325   68.3538 H   0  0  0  0  0  0  0  0  0  0  0  0
   -0.7882   67.4737   69.0243 H   0  0  0  0  0  0  0  0  0  0  0  0
    1.8229   67.7665   68.8825 H   0  0  0  0  0  0  0  0  0  0  0  0
    1.6729   66.4021   67.6726 H   0  0  0  0  0  0  0  0  0  0  0  0
    2.4309   69.3564   66.1352 H   0  0  0  0  0  0  0  0  0  0  0  0
    1.1502   70.3759   66.9622 H   0  0  0  0  0  0  0  0  0  0  0  0
    2.0146   69.5060   69.1472 H   0  0  0  0  0  0  0  0  0  0  0  0
    3.4036   68.8083   68.2469 H   0  0  0  0  0  0  0  0  0  0  0  0
    3.1342   70.5842   68.2469 H   0  0  0  0  0  0  0  0  0  0  0  0
   -1.1006   68.2960   68.0935 H   0  0  0  0  0  0  0  0  0  0  0  0
   -0.4887   69.9189   67.5003 H   0  0  0  0  0  0  0  0  0  0  0  0
   -2.5889   68.7022   66.3924 H   0  0  0  0  0  0  0  0  0  0  0  0
   -1.4212   69.6921   65.4525 H   0  0  0  0  0  0  0  0  0  0  0  0
   -1.2845   67.9011   65.4525 H   0  0  0  0  0  0  0  0  0  0  0  0
    0.9408   66.3939   65.9318 H   0  0  0  0  0  0  0  0  0  0  0  0
   -0.0591   67.7667   65.1455 H   0  0  0  0  0  0  0  0  0  0  0  0
    3.5269   67.1378   66.0581 H   0  0  0  0  0  0  0  0  0  0  0  0
    5.3982   67.5757   64.4877 H   0  0  0  0  0  0  0  0  0  0  0  0
    4.9555   68.4738   62.2067 H   0  0  0  0  0  0  0  0  0  0  0  0
    2.6109   68.9956   61.5162 H   0  0  0  0  0  0  0  0  0  0  0  0
    1.5656   60.4963   73.3383 H   0  0  0  0  0  0  0  0  0  0  0  0
    2.0996   59.0338   72.4030 H   0  0  0  0  0  0  0  0  0  0  0  0
    4.1930   59.0273   73.3132 H   0  0  0  0  0  0  0  0  0  0  0  0
    4.1878   60.8372   73.5563 H   0  0  0  0  0  0  0  0  0  0  0  0
    3.2790   58.6436   75.3491 H   0  0  0  0  0  0  0  0  0  0  0  0
    4.0414   60.2922   75.6816 H   0  0  0  0  0  0  0  0  0  0  0  0
    2.0854   60.8952   76.4941 H   0  0  0  0  0  0  0  0  0  0  0  0
    1.5239   60.9008   74.7653 H   0  0  0  0  0  0  0  0  0  0  0  0
    1.2665   58.2510   75.4565 H   0  0  0  0  0  0  0  0  0  0  0  0
    0.8214   59.1457   76.9969 H   0  0  0  0  0  0  0  0  0  0  0  0
   -1.2673   61.5053   75.3486 H   0  0  0  0  0  0  0  0  0  0  0  0
    0.3847   61.2547   74.6009 H   0  0  0  0  0  0  0  0  0  0  0  0
   -2.3460   60.8345   73.3873 H   0  0  0  0  0  0  0  0  0  0  0  0
   -0.9395   61.7630   72.7657 H   0  0  0  0  0  0  0  0  0  0  0  0
   -0.9011   59.9671   72.7657 H   0  0  0  0  0  0  0  0  0  0  0  0
   -1.6298   59.4285   78.7202 H   0  0  0  0  0  0  0  0  0  0  0  0
   -0.4310   58.2766   78.0400 H   0  0  0  0  0  0  0  0  0  0  0  0
   -0.0834   60.0389   78.0400 H   0  0  0  0  0  0  0  0  0  0  0  0
   -2.1898   58.5427   76.4222 H   0  0  0  0  0  0  0  0  0  0  0  0
   -2.0570   60.3713   76.5690 H   0  0  0  0  0  0  0  0  0  0  0  0
   -1.9910   58.1230   74.4595 H   0  0  0  0  0  0  0  0  0  0  0  0
   -0.7032   58.8617   73.3209 H   0  0  0  0  0  0  0  0  0  0  0  0
    1.3165   57.8928   72.8705 H   0  0  0  0  0  0  0  0  0  0  0  0
    2.6579   55.8051   72.7355 H   0  0  0  0  0  0  0  0  0  0  0  0
    1.9661   53.7745   73.9990 H   0  0  0  0  0  0  0  0  0  0  0  0
   -0.0887   53.8317   75.4199 H   0  0  0  0  0  0  0  0  0  0  0  0
  2  1  1  0
  3  2  1  0
  4  2  2  0
  5  4  1  0
  6  5  2  0
  7  5  1  0
  8  7  1  0
  8  1  1  0
  9  8  2  0
 10  7  1  0
 11 10  1  0
 12 11  1  0
 13 12  1  0
 14 13  1  0
 15 14  1  0
 16 15  1  0
 17 16  1  0
 18 15  1  0
 19 18  1  0
 20 15  1  0
 21 20  1  0
 22 21  2  0
 23 22  1  0
 24 23  2  0
 25 24  1  0
 26 21  1  0
 26 25  2  0
 27 26  1  0
 28 27  2  0
 29 27  1  0
 30  1  1  0
 31 30  1  0
 32 31  1  0
 33 32  1  0
 34 33  1  0
 35 34  1  0
 36 35  1  0
 37 36  1  0
 39 38  1  0
 39 35  1  0
 40 35  1  0
 41 40  1  0
 42 41  2  0
 43 42  1  0
 44 43  2  0
 45 44  1  0
 46 41  1  0
 46 45  2  0
 47 46  1  0
 48 47  2  0
 49 47  1  0
  3 50  1  0
  3 51  1  0
  3 52  1  0
  4 53  1  0
 10 54  1  0
 10 55  1  0
 11 56  1  0
 11 57  1  0
 12 58  1  0
 12 59  1  0
 13 60  1  0
 13 61  1  0
 14 62  1  0
 14 63  1  0
 16 64  1  0
 16 65  1  0
 17 66  1  0
 17 67  1  0
 17 68  1  0
 18 69  1  0
 18 70  1  0
 19 71  1  0
 19 72  1  0
 19 73  1  0
 20 74  1  0
 20 75  1  0
 22 76  1  0
 23 77  1  0
 24 78  1  0
 25 79  1  0
 30 80  1  0
 30 81  1  0
 31 82  1  0
 31 83  1  0
 32 84  1  0
 32 85  1  0
 33 86  1  0
 33 87  1  0
 34 88  1  0
 34 89  1  0
 36 90  1  0
 36 91  1  0
 37 92  1  0
 37 93  1  0
 37 94  1  0
 38 95  1  0
 38 96  1  0
 38 97  1  0
 39 98  1  0
 39 99  1  0
 40100  1  0
 40101  1  0
 42102  1  0
 43103  1  0
 44104  1  0
 45105  1  0
M  CHG  6  15   1  27   1  29  -1  35   1  47   1  49  -1
M  END
>  <score>  (9) 
-8.611

$$$$
