=
     RDKit          3D

 23 24  0  0  0  0  0  0  0  0999 V2000
   -2.0950   67.2780   67.1090 N   0  0  0  0  0  0  0  0  0  0  0  0
   -0.7930   67.7150   66.9520 C   0  0  0  0  0  0  0  0  0  0  0  0
   -0.4880   68.9850   67.2830 N   0  0  0  0  0  0  0  0  0  0  0  0
    0.7860   69.4370   67.1260 N   0  0  0  0  0  0  0  0  0  0  0  0
    1.7160   68.5890   66.6420 C   0  0  0  0  0  0  0  0  0  0  0  0
    1.3390   67.2980   66.2680 C   0  0  0  0  0  0  0  0  0  0  0  0
    0.0800   66.8500   66.4210 N   0  0  0  0  0  0  0  0  0  0  0  0
    2.2340   66.3740   65.7170 N   0  0  0  0  0  0  0  0  0  0  0  0
    3.0680   69.1350   66.5010 C   0  0  0  0  0  0  0  0  0  0  0  0
    3.6690   69.1310   65.2250 C   0  0  0  0  0  0  0  0  0  0  0  0
    4.9560   69.6260   65.0280 C   0  0  0  0  0  0  0  0  0  0  0  0
    5.6690   70.1430   66.1050 C   0  0  0  0  0  0  0  0  0  0  0  0
    5.0920   70.1740   67.3790 C   0  0  0  0  0  0  0  0  0  0  0  0
    3.7930   69.6790   67.5840 C   0  0  0  0  0  0  0  0  0  0  0  0
    3.0670   69.7650   69.1620 Cl  0  0  0  0  0  0  0  0  0  0  0  0
    6.0480   70.8460   68.6560 Cl  0  0  0  0  0  0  0  0  0  0  0  0
   -2.3469   66.3105   66.8613 H   0  0  0  0  0  0  0  0  0  0  0  0
   -2.8132   67.9199   67.4737 H   0  0  0  0  0  0  0  0  0  0  0  0
    1.9071   65.4325   65.4569 H   0  0  0  0  0  0  0  0  0  0  0  0
    3.2196   66.6354   65.5716 H   0  0  0  0  0  0  0  0  0  0  0  0
    3.1097   68.7286   64.3675 H   0  0  0  0  0  0  0  0  0  0  0  0
    5.4069   69.6082   64.0248 H   0  0  0  0  0  0  0  0  0  0  0  0
    6.6883   70.5281   65.9545 H   0  0  0  0  0  0  0  0  0  0  0  0
  2  1  1  0
  3  2  2  0
  4  3  1  0
  5  4  2  0
  6  5  1  0
  7  6  2  0
  7  2  1  0
  8  6  1  0
  9  5  1  0
 10  9  2  0
 11 10  1  0
 12 11  2  0
 13 12  1  0
 14 13  2  0
 14  9  1  0
 15 14  1  0
 16 13  1  0
  1 17  1  0
  1 18  1  0
  8 19  1  0
  8 20  1  0
 10 21  1  0
 11 22  1  0
 12 23  1  0
M  END
>  <score>  (1) 
-9.32

$$$$
=
     RDKit          3D

 23 24  0  0  0  0  0  0  0  0999 V2000
   -2.9870   67.1490   67.2710 N   0  0  0  0  0  0  0  0  0  0  0  0
   -1.6930   67.6270   67.3660 C   0  0  0  0  0  0  0  0  0  0  0  0
   -1.3780   68.7810   66.7440 N   0  0  0  0  0  0  0  0  0  0  0  0
   -0.1070   69.2620   66.8170 N   0  0  0  0  0  0  0  0  0  0  0  0
    0.8070   68.5650   67.5210 C   0  0  0  0  0  0  0  0  0  0  0  0
    0.4440   67.3510   68.1050 C   0  0  0  0  0  0  0  0  0  0  0  0
   -0.8120   66.8720   68.0330 N   0  0  0  0  0  0  0  0  0  0  0  0
    1.3450   66.5470   68.8130 N   0  0  0  0  0  0  0  0  0  0  0  0
    2.1540   69.1390   67.5630 C   0  0  0  0  0  0  0  0  0  0  0  0
    2.5900   69.7530   68.7560 C   0  0  0  0  0  0  0  0  0  0  0  0
    3.8560   70.3270   68.8550 C   0  0  0  0  0  0  0  0  0  0  0  0
    4.7170   70.2940   67.7630 C   0  0  0  0  0  0  0  0  0  0  0  0
    4.3170   69.6780   66.5730 C   0  0  0  0  0  0  0  0  0  0  0  0
    3.0430   69.0940   66.4670 C   0  0  0  0  0  0  0  0  0  0  0  0
    2.5730   68.2910   64.9970 Cl  0  0  0  0  0  0  0  0  0  0  0  0
    5.4570   69.6730   65.2710 Cl  0  0  0  0  0  0  0  0  0  0  0  0
   -3.2467   66.2691   67.7393 H   0  0  0  0  0  0  0  0  0  0  0  0
   -3.6912   67.6728   66.7319 H   0  0  0  0  0  0  0  0  0  0  0  0
    1.0277   65.6584   69.2259 H   0  0  0  0  0  0  0  0  0  0  0  0
    2.3253   66.8440   68.9210 H   0  0  0  0  0  0  0  0  0  0  0  0
    1.9170   69.7792   69.6257 H   0  0  0  0  0  0  0  0  0  0  0  0
    4.1734   70.8046   69.7937 H   0  0  0  0  0  0  0  0  0  0  0  0
    5.7140   70.7531   67.8356 H   0  0  0  0  0  0  0  0  0  0  0  0
  2  1  1  0
  3  2  2  0
  4  3  1  0
  5  4  2  0
  6  5  1  0
  7  6  2  0
  7  2  1  0
  8  6  1  0
  9  5  1  0
 10  9  2  0
 11 10  1  0
 12 11  2  0
 13 12  1  0
 14 13  2  0
 14  9  1  0
 15 14  1  0
 16 13  1  0
  1 17  1  0
  1 18  1  0
  8 19  1  0
  8 20  1  0
 10 21  1  0
 11 22  1  0
 12 23  1  0
M  END
>  <score>  (2) 
-9.17

$$$$
=
     RDKit          3D

 23 24  0  0  0  0  0  0  0  0999 V2000
   -2.6190   66.8560   67.6250 N   0  0  0  0  0  0  0  0  0  0  0  0
   -1.3970   67.2500   67.1120 C   0  0  0  0  0  0  0  0  0  0  0  0
   -0.2700   66.8430   67.7290 N   0  0  0  0  0  0  0  0  0  0  0  0
    0.9420   67.2290   67.2460 N   0  0  0  0  0  0  0  0  0  0  0  0
    0.9800   68.0130   66.1500 C   0  0  0  0  0  0  0  0  0  0  0  0
   -0.2170   68.4490   65.5770 C   0  0  0  0  0  0  0  0  0  0  0  0
   -1.4160   68.0690   66.0540 N   0  0  0  0  0  0  0  0  0  0  0  0
   -0.2620   69.2990   64.4660 N   0  0  0  0  0  0  0  0  0  0  0  0
    2.3150   68.3900   65.6790 C   0  0  0  0  0  0  0  0  0  0  0  0
    2.7270   67.9580   64.4010 C   0  0  0  0  0  0  0  0  0  0  0  0
    3.9890   68.2750   63.9010 C   0  0  0  0  0  0  0  0  0  0  0  0
    4.8640   69.0360   64.6680 C   0  0  0  0  0  0  0  0  0  0  0  0
    4.4760   69.4910   65.9330 C   0  0  0  0  0  0  0  0  0  0  0  0
    3.2030   69.1780   66.4420 C   0  0  0  0  0  0  0  0  0  0  0  0
    2.7130   69.7870   67.9950 Cl  0  0  0  0  0  0  0  0  0  0  0  0
    5.6250   70.4420   66.8110 Cl  0  0  0  0  0  0  0  0  0  0  0  0
   -3.4911   67.1572   67.1670 H   0  0  0  0  0  0  0  0  0  0  0  0
   -2.6573   66.2613   68.4651 H   0  0  0  0  0  0  0  0  0  0  0  0
   -1.1701   69.5932   64.0791 H   0  0  0  0  0  0  0  0  0  0  0  0
    0.6130   69.6303   64.0353 H   0  0  0  0  0  0  0  0  0  0  0  0
    2.0387   67.3590   63.7867 H   0  0  0  0  0  0  0  0  0  0  0  0
    4.2915   67.9243   62.9032 H   0  0  0  0  0  0  0  0  0  0  0  0
    5.8635   69.2809   64.2795 H   0  0  0  0  0  0  0  0  0  0  0  0
  2  1  1  0
  3  2  2  0
  4  3  1  0
  5  4  2  0
  6  5  1  0
  7  6  2  0
  7  2  1  0
  8  6  1  0
  9  5  1  0
 10  9  2  0
 11 10  1  0
 12 11  2  0
 13 12  1  0
 14 13  2  0
 14  9  1  0
 15 14  1  0
 16 13  1  0
  1 17  1  0
  1 18  1  0
  8 19  1  0
  8 20  1  0
 10 21  1  0
 11 22  1  0
 12 23  1  0
M  END
>  <score>  (3) 
-8.993

$$$$
=
     RDKit          3D

 23 24  0  0  0  0  0  0  0  0999 V2000
   -2.6100   66.7730   67.6310 N   0  0  0  0  0  0  0  0  0  0  0  0
   -1.3610   67.2040   67.2230 C   0  0  0  0  0  0  0  0  0  0  0  0
   -0.2830   66.8630   67.9560 N   0  0  0  0  0  0  0  0  0  0  0  0
    0.9530   67.2860   67.5770 N   0  0  0  0  0  0  0  0  0  0  0  0
    1.0640   68.0390   66.4640 C   0  0  0  0  0  0  0  0  0  0  0  0
   -0.0880   68.4070   65.7670 C   0  0  0  0  0  0  0  0  0  0  0  0
   -1.3120   67.9900   66.1410 N   0  0  0  0  0  0  0  0  0  0  0  0
   -0.0620   69.2220   64.6290 N   0  0  0  0  0  0  0  0  0  0  0  0
    2.4220   68.4580   66.1080 C   0  0  0  0  0  0  0  0  0  0  0  0
    3.0780   69.3950   66.9330 C   0  0  0  0  0  0  0  0  0  0  0  0
    4.3650   69.8420   66.6420 C   0  0  0  0  0  0  0  0  0  0  0  0
    5.0270   69.3550   65.5190 C   0  0  0  0  0  0  0  0  0  0  0  0
    4.4070   68.4130   64.6920 C   0  0  0  0  0  0  0  0  0  0  0  0
    3.1090   67.9560   64.9820 C   0  0  0  0  0  0  0  0  0  0  0  0
    2.3650   66.7510   63.9720 Cl  0  0  0  0  0  0  0  0  0  0  0  0
    5.3100   67.8550   63.3250 Cl  0  0  0  0  0  0  0  0  0  0  0  0
   -3.4456   67.0238   67.0834 H   0  0  0  0  0  0  0  0  0  0  0  0
   -2.7047   66.2012   68.4825 H   0  0  0  0  0  0  0  0  0  0  0  0
   -0.9406   69.4654   64.1497 H   0  0  0  0  0  0  0  0  0  0  0  0
    0.8357   69.5782   64.2711 H   0  0  0  0  0  0  0  0  0  0  0  0
    2.5627   69.7810   67.8249 H   0  0  0  0  0  0  0  0  0  0  0  0
    4.8558   70.5768   67.2971 H   0  0  0  0  0  0  0  0  0  0  0  0
    6.0400   69.7117   65.2813 H   0  0  0  0  0  0  0  0  0  0  0  0
  2  1  1  0
  3  2  2  0
  4  3  1  0
  5  4  2  0
  6  5  1  0
  7  6  2  0
  7  2  1  0
  8  6  1  0
  9  5  1  0
 10  9  2  0
 11 10  1  0
 12 11  2  0
 13 12  1  0
 14 13  2  0
 14  9  1  0
 15 14  1  0
 16 13  1  0
  1 17  1  0
  1 18  1  0
  8 19  1  0
  8 20  1  0
 10 21  1  0
 11 22  1  0
 12 23  1  0
M  END
>  <score>  (4) 
-8.667

$$$$
=
     RDKit          3D

 23 24  0  0  0  0  0  0  0  0999 V2000
    4.1800   67.5100   61.2590 N   0  0  0  0  0  0  0  0  0  0  0  0
    4.0450   67.9600   62.5600 C   0  0  0  0  0  0  0  0  0  0  0  0
    4.6390   69.1160   62.9140 N   0  0  0  0  0  0  0  0  0  0  0  0
    4.5260   69.5690   64.1920 N   0  0  0  0  0  0  0  0  0  0  0  0
    3.8120   68.8410   65.0740 C   0  0  0  0  0  0  0  0  0  0  0  0
    3.2580   67.6250   64.6700 C   0  0  0  0  0  0  0  0  0  0  0  0
    3.3700   67.1750   63.4080 N   0  0  0  0  0  0  0  0  0  0  0  0
    2.5410   66.7910   65.5370 N   0  0  0  0  0  0  0  0  0  0  0  0
    3.7260   69.3860   66.4310 C   0  0  0  0  0  0  0  0  0  0  0  0
    2.4610   69.4550   67.0530 C   0  0  0  0  0  0  0  0  0  0  0  0
    2.3130   69.9730   68.3380 C   0  0  0  0  0  0  0  0  0  0  0  0
    3.4290   70.4290   69.0320 C   0  0  0  0  0  0  0  0  0  0  0  0
    4.6970   70.3580   68.4460 C   0  0  0  0  0  0  0  0  0  0  0  0
    4.8540   69.8340   67.1510 C   0  0  0  0  0  0  0  0  0  0  0  0
    6.4410   69.7090   66.4500 Cl  0  0  0  0  0  0  0  0  0  0  0  0
    6.0290   70.9370   69.3870 Cl  0  0  0  0  0  0  0  0  0  0  0  0
    3.7329   66.6282   60.9700 H   0  0  0  0  0  0  0  0  0  0  0  0
    4.7276   68.0567   60.5792 H   0  0  0  0  0  0  0  0  0  0  0  0
    2.1510   65.9025   65.1916 H   0  0  0  0  0  0  0  0  0  0  0  0
    2.4037   67.0662   66.5200 H   0  0  0  0  0  0  0  0  0  0  0  0
    1.5741   69.0926   66.5125 H   0  0  0  0  0  0  0  0  0  0  0  0
    1.3169   70.0212   68.8022 H   0  0  0  0  0  0  0  0  0  0  0  0
    3.3141   70.8461   70.0433 H   0  0  0  0  0  0  0  0  0  0  0  0
  2  1  1  0
  3  2  2  0
  4  3  1  0
  5  4  2  0
  6  5  1  0
  7  6  2  0
  7  2  1  0
  8  6  1  0
  9  5  1  0
 10  9  2  0
 11 10  1  0
 12 11  2  0
 13 12  1  0
 14 13  2  0
 14  9  1  0
 15 14  1  0
 16 13  1  0
  1 17  1  0
  1 18  1  0
  8 19  1  0
  8 20  1  0
 10 21  1  0
 11 22  1  0
 12 23  1  0
M  END
>  <score>  (5) 
-8.391

$$$$
=
     RDKit          3D

 23 24  0  0  0  0  0  0  0  0999 V2000
   -2.8310   69.1550   65.7860 N   0  0  0  0  0  0  0  0  0  0  0  0
   -1.5180   68.8860   65.4470 C   0  0  0  0  0  0  0  0  0  0  0  0
   -0.5910   68.8410   66.4240 N   0  0  0  0  0  0  0  0  0  0  0  0
    0.7100   68.5890   66.1090 N   0  0  0  0  0  0  0  0  0  0  0  0
    1.0320   68.3840   64.8170 C   0  0  0  0  0  0  0  0  0  0  0  0
    0.0430   68.4910   63.8370 C   0  0  0  0  0  0  0  0  0  0  0  0
   -1.2420   68.7420   64.1460 N   0  0  0  0  0  0  0  0  0  0  0  0
    0.3060   68.3360   62.4710 N   0  0  0  0  0  0  0  0  0  0  0  0
    2.4460   68.1140   64.5460 C   0  0  0  0  0  0  0  0  0  0  0  0
    3.3250   69.2060   64.3870 C   0  0  0  0  0  0  0  0  0  0  0  0
    4.6790   69.0130   64.1170 C   0  0  0  0  0  0  0  0  0  0  0  0
    5.1840   67.7220   64.0050 C   0  0  0  0  0  0  0  0  0  0  0  0
    4.3380   66.6210   64.1730 C   0  0  0  0  0  0  0  0  0  0  0  0
    2.9730   66.8070   64.4490 C   0  0  0  0  0  0  0  0  0  0  0  0
    1.9400   65.4310   64.7020 Cl  0  0  0  0  0  0  0  0  0  0  0  0
    5.0560   65.0520   64.0290 Cl  0  0  0  0  0  0  0  0  0  0  0  0
   -3.5544   69.1937   65.0538 H   0  0  0  0  0  0  0  0  0  0  0  0
   -3.0859   69.3167   66.7708 H   0  0  0  0  0  0  0  0  0  0  0  0
   -0.4582   68.4243   61.7861 H   0  0  0  0  0  0  0  0  0  0  0  0
    1.2638   68.1336   62.1507 H   0  0  0  0  0  0  0  0  0  0  0  0
    2.9342   70.2302   64.4779 H   0  0  0  0  0  0  0  0  0  0  0  0
    5.3458   69.8790   63.9929 H   0  0  0  0  0  0  0  0  0  0  0  0
    6.2503   67.5666   63.7840 H   0  0  0  0  0  0  0  0  0  0  0  0
  2  1  1  0
  3  2  2  0
  4  3  1  0
  5  4  2  0
  6  5  1  0
  7  6  2  0
  7  2  1  0
  8  6  1  0
  9  5  1  0
 10  9  2  0
 11 10  1  0
 12 11  2  0
 13 12  1  0
 14 13  2  0
 14  9  1  0
 15 14  1  0
 16 13  1  0
  1 17  1  0
  1 18  1  0
  8 19  1  0
  8 20  1  0
 10 21  1  0
 11 22  1  0
 12 23  1  0
M  END
>  <score>  (6) 
-8.069

$$$$
=
     RDKit          3D

 23 24  0  0  0  0  0  0  0  0999 V2000
    3.3870   68.6980   59.9570 N   0  0  0  0  0  0  0  0  0  0  0  0
    3.0460   68.5880   61.2920 C   0  0  0  0  0  0  0  0  0  0  0  0
    2.0090   69.3100   61.7610 N   0  0  0  0  0  0  0  0  0  0  0  0
    1.6640   69.2240   63.0750 N   0  0  0  0  0  0  0  0  0  0  0  0
    2.3770   68.4060   63.8760 C   0  0  0  0  0  0  0  0  0  0  0  0
    3.4730   67.7180   63.3530 C   0  0  0  0  0  0  0  0  0  0  0  0
    3.8160   67.8030   62.0550 N   0  0  0  0  0  0  0  0  0  0  0  0
    4.2890   66.8860   64.1290 N   0  0  0  0  0  0  0  0  0  0  0  0
    1.9530   68.3560   65.2770 C   0  0  0  0  0  0  0  0  0  0  0  0
    0.7780   67.6460   65.6030 C   0  0  0  0  0  0  0  0  0  0  0  0
    0.3170   67.5710   66.9160 C   0  0  0  0  0  0  0  0  0  0  0  0
    1.0260   68.2010   67.9340 C   0  0  0  0  0  0  0  0  0  0  0  0
    2.2030   68.8980   67.6420 C   0  0  0  0  0  0  0  0  0  0  0  0
    2.6750   68.9750   66.3200 C   0  0  0  0  0  0  0  0  0  0  0  0
    4.1640   69.8060   65.9750 Cl  0  0  0  0  0  0  0  0  0  0  0  0
    3.0250   69.6400   68.9720 Cl  0  0  0  0  0  0  0  0  0  0  0  0
    4.1765   68.1540   59.5806 H   0  0  0  0  0  0  0  0  0  0  0  0
    2.8516   69.3240   59.3386 H   0  0  0  0  0  0  0  0  0  0  0  0
    5.0871   66.3991   63.6968 H   0  0  0  0  0  0  0  0  0  0  0  0
    4.0912   66.7609   65.1320 H   0  0  0  0  0  0  0  0  0  0  0  0
    0.2144   67.1414   64.8044 H   0  0  0  0  0  0  0  0  0  0  0  0
   -0.6041   67.0157   67.1467 H   0  0  0  0  0  0  0  0  0  0  0  0
    0.6603   68.1508   68.9702 H   0  0  0  0  0  0  0  0  0  0  0  0
  2  1  1  0
  3  2  2  0
  4  3  1  0
  5  4  2  0
  6  5  1  0
  7  6  2  0
  7  2  1  0
  8  6  1  0
  9  5  1  0
 10  9  2  0
 11 10  1  0
 12 11  2  0
 13 12  1  0
 14 13  2  0
 14  9  1  0
 15 14  1  0
 16 13  1  0
  1 17  1  0
  1 18  1  0
  8 19  1  0
  8 20  1  0
 10 21  1  0
 11 22  1  0
 12 23  1  0
M  END
>  <score>  (7) 
-7.867

$$$$
=
     RDKit          3D

 23 24  0  0  0  0  0  0  0  0999 V2000
    5.6240   67.6280   62.0160 N   0  0  0  0  0  0  0  0  0  0  0  0
    4.5770   67.7350   62.9120 C   0  0  0  0  0  0  0  0  0  0  0  0
    4.1780   68.9610   63.3040 N   0  0  0  0  0  0  0  0  0  0  0  0
    3.1550   69.0860   64.1930 N   0  0  0  0  0  0  0  0  0  0  0  0
    2.5630   67.9680   64.6570 C   0  0  0  0  0  0  0  0  0  0  0  0
    3.0450   66.7200   64.2580 C   0  0  0  0  0  0  0  0  0  0  0  0
    4.0570   66.5940   63.3800 N   0  0  0  0  0  0  0  0  0  0  0  0
    2.5140   65.5130   64.7280 N   0  0  0  0  0  0  0  0  0  0  0  0
    1.4670   68.1720   65.6070 C   0  0  0  0  0  0  0  0  0  0  0  0
    1.7380   68.0540   66.9860 C   0  0  0  0  0  0  0  0  0  0  0  0
    0.7350   68.2260   67.9390 C   0  0  0  0  0  0  0  0  0  0  0  0
   -0.5610   68.5240   67.5310 C   0  0  0  0  0  0  0  0  0  0  0  0
   -0.8550   68.6620   66.1710 C   0  0  0  0  0  0  0  0  0  0  0  0
    0.1520   68.4930   65.2050 C   0  0  0  0  0  0  0  0  0  0  0  0
   -0.2140   68.7110   63.5190 Cl  0  0  0  0  0  0  0  0  0  0  0  0
   -2.4910   69.0460   65.7570 Cl  0  0  0  0  0  0  0  0  0  0  0  0
    5.9428   66.6993   61.7050 H   0  0  0  0  0  0  0  0  0  0  0  0
    6.0854   68.4770   61.6593 H   0  0  0  0  0  0  0  0  0  0  0  0
    2.9049   64.6172   64.4030 H   0  0  0  0  0  0  0  0  0  0  0  0
    1.7324   65.5207   65.3988 H   0  0  0  0  0  0  0  0  0  0  0  0
    2.7612   67.8216   67.3163 H   0  0  0  0  0  0  0  0  0  0  0  0
    0.9676   68.1264   69.0095 H   0  0  0  0  0  0  0  0  0  0  0  0
   -1.3564   68.6514   68.2800 H   0  0  0  0  0  0  0  0  0  0  0  0
  2  1  1  0
  3  2  2  0
  4  3  1  0
  5  4  2  0
  6  5  1  0
  7  6  2  0
  7  2  1  0
  8  6  1  0
  9  5  1  0
 10  9  2  0
 11 10  1  0
 12 11  2  0
 13 12  1  0
 14 13  2  0
 14  9  1  0
 15 14  1  0
 16 13  1  0
  1 17  1  0
  1 18  1  0
  8 19  1  0
  8 20  1  0
 10 21  1  0
 11 22  1  0
 12 23  1  0
M  END
>  <score>  (8) 
-7.835

$$$$
=
     RDKit          3D

 23 24  0  0  0  0  0  0  0  0999 V2000
    5.6860   69.8450   65.0410 N   0  0  0  0  0  0  0  0  0  0  0  0
    4.5210   69.3880   65.6280 C   0  0  0  0  0  0  0  0  0  0  0  0
    3.8140   68.4240   65.0060 N   0  0  0  0  0  0  0  0  0  0  0  0
    2.6580   67.9680   65.5630 N   0  0  0  0  0  0  0  0  0  0  0  0
    2.2550   68.4970   66.7360 C   0  0  0  0  0  0  0  0  0  0  0  0
    2.9970   69.5280   67.3150 C   0  0  0  0  0  0  0  0  0  0  0  0
    4.1380   69.9810   66.7650 N   0  0  0  0  0  0  0  0  0  0  0  0
    2.6210   70.1590   68.5070 N   0  0  0  0  0  0  0  0  0  0  0  0
    1.0070   67.9610   67.2830 C   0  0  0  0  0  0  0  0  0  0  0  0
    1.0550   67.2420   68.4960 C   0  0  0  0  0  0  0  0  0  0  0  0
   -0.0970   66.6970   69.0620 C   0  0  0  0  0  0  0  0  0  0  0  0
   -1.3230   66.8650   68.4280 C   0  0  0  0  0  0  0  0  0  0  0  0
   -1.4030   67.5860   67.2330 C   0  0  0  0  0  0  0  0  0  0  0  0
   -0.2460   68.1410   66.6580 C   0  0  0  0  0  0  0  0  0  0  0  0
   -0.3630   69.0750   65.1950 Cl  0  0  0  0  0  0  0  0  0  0  0  0
   -2.9720   67.7550   66.5210 Cl  0  0  0  0  0  0  0  0  0  0  0  0
    6.2401   70.5813   65.5012 H   0  0  0  0  0  0  0  0  0  0  0  0
    6.0000   69.4492   64.1434 H   0  0  0  0  0  0  0  0  0  0  0  0
    3.2024   70.9157   68.8948 H   0  0  0  0  0  0  0  0  0  0  0  0
    1.7630   69.8665   68.9961 H   0  0  0  0  0  0  0  0  0  0  0  0
    2.0207   67.1087   69.0055 H   0  0  0  0  0  0  0  0  0  0  0  0
   -0.0361   66.1363   70.0064 H   0  0  0  0  0  0  0  0  0  0  0  0
   -2.2323   66.4295   68.8679 H   0  0  0  0  0  0  0  0  0  0  0  0
  2  1  1  0
  3  2  2  0
  4  3  1  0
  5  4  2  0
  6  5  1  0
  7  6  2  0
  7  2  1  0
  8  6  1  0
  9  5  1  0
 10  9  2  0
 11 10  1  0
 12 11  2  0
 13 12  1  0
 14 13  2  0
 14  9  1  0
 15 14  1  0
 16 13  1  0
  1 17  1  0
  1 18  1  0
  8 19  1  0
  8 20  1  0
 10 21  1  0
 11 22  1  0
 12 23  1  0
M  END
>  <score>  (9) 
-7.727

$$$$
