=
     RDKit          3D

 71 75  0  0  0  0  0  0  0  0999 V2000
    1.4510   66.7770   69.4650 C   0  0  0  0  0  0  0  0  0  0  0  0
    0.3880   66.0650   70.3020 C   0  0  0  0  0  0  0  0  0  0  0  0
    0.7910   64.6560   70.7250 C   0  0  0  0  0  0  0  0  0  0  0  0
    2.2700   62.9150   69.1250 O   0  0  0  0  0  0  0  0  0  0  0  0
    2.8510   63.5660   69.9880 C   0  0  0  0  0  0  0  0  0  0  0  0
    2.2310   64.5180   70.7700 N   0  0  0  0  0  0  0  0  0  0  0  0
    4.3370   63.4160   70.2570 C   0  0  0  0  0  0  0  0  0  0  0  0
    4.6370   62.2850   71.2410 C   0  0  0  0  0  0  0  0  0  0  0  0
    4.3370   60.8870   70.6880 C   0  0  0  0  0  0  0  0  0  0  0  0
    3.5860   60.0010   71.6300 C   0  0  0  0  0  0  0  0  0  0  0  0
    4.0470   58.8190   72.1770 C   0  0  0  0  0  0  0  0  0  0  0  0
    3.0640   58.2980   72.9720 N   0  0  0  0  0  0  0  0  0  0  0  0
    1.9580   59.1140   72.9570 C   0  0  0  0  0  0  0  0  0  0  0  0
    2.2620   60.2040   72.1400 C   0  0  0  0  0  0  0  0  0  0  0  0
    1.2830   61.2040   71.9640 C   0  0  0  0  0  0  0  0  0  0  0  0
    0.0440   61.0760   72.6020 C   0  0  0  0  0  0  0  0  0  0  0  0
   -0.2290   59.9730   73.4080 C   0  0  0  0  0  0  0  0  0  0  0  0
    0.7240   58.9710   73.6030 C   0  0  0  0  0  0  0  0  0  0  0  0
    0.9220   67.7310   68.3860 C   0  0  0  0  0  0  0  0  0  0  0  0
    1.6990   67.7320   67.0670 C   0  0  0  0  0  0  0  0  0  0  0  0
    1.8450   69.1080   66.5710 N   0  0  0  0  0  0  0  0  0  0  0  0
    3.1660   69.3590   66.0920 C   0  0  0  0  0  0  0  0  0  0  0  0
    3.4530   69.0740   64.7420 C   0  0  0  0  0  0  0  0  0  0  0  0
    2.3640   68.6470   63.7850 C   0  0  0  0  0  0  0  0  0  0  0  0
    2.8840   68.1000   62.4570 C   0  0  0  0  0  0  0  0  0  0  0  0
    3.9820   68.9940   61.9030 C   0  0  0  0  0  0  0  0  0  0  0  0
    5.1600   69.0230   62.8690 C   0  0  0  0  0  0  0  0  0  0  0  0
    4.7550   69.2990   64.2950 C   0  0  0  0  0  0  0  0  0  0  0  0
    5.7510   69.7300   65.1030 N   0  0  0  0  0  0  0  0  0  0  0  0
    5.4830   69.9810   66.3910 C   0  0  0  0  0  0  0  0  0  0  0  0
    4.2020   69.8120   66.9570 C   0  0  0  0  0  0  0  0  0  0  0  0
    4.0310   70.1030   68.3340 C   0  0  0  0  0  0  0  0  0  0  0  0
    5.0960   70.5440   69.1190 C   0  0  0  0  0  0  0  0  0  0  0  0
    6.3450   70.7020   68.5380 C   0  0  0  0  0  0  0  0  0  0  0  0
    6.5310   70.4200   67.1870 C   0  0  0  0  0  0  0  0  0  0  0  0
    7.6680   71.2460   69.4920 Cl  0  0  0  0  0  0  0  0  0  0  0  0
    2.0851   67.3597   70.1494 H   0  0  0  0  0  0  0  0  0  0  0  0
    1.9877   65.9830   68.9251 H   0  0  0  0  0  0  0  0  0  0  0  0
    0.2012   66.6606   71.2077 H   0  0  0  0  0  0  0  0  0  0  0  0
   -0.5095   65.9702   69.6732 H   0  0  0  0  0  0  0  0  0  0  0  0
    0.3787   64.4488   71.7236 H   0  0  0  0  0  0  0  0  0  0  0  0
    0.3942   63.9426   69.9876 H   0  0  0  0  0  0  0  0  0  0  0  0
    2.7903   65.1280   71.3832 H   0  0  0  0  0  0  0  0  0  0  0  0
    4.8488   63.2033   69.3068 H   0  0  0  0  0  0  0  0  0  0  0  0
    4.6946   64.3551   70.7044 H   0  0  0  0  0  0  0  0  0  0  0  0
    5.7033   62.3310   71.5074 H   0  0  0  0  0  0  0  0  0  0  0  0
    3.9788   62.4336   72.1098 H   0  0  0  0  0  0  0  0  0  0  0  0
    3.7398   61.0000   69.7712 H   0  0  0  0  0  0  0  0  0  0  0  0
    5.3088   60.4040   70.5082 H   0  0  0  0  0  0  0  0  0  0  0  0
    5.0371   58.3726   72.0025 H   0  0  0  0  0  0  0  0  0  0  0  0
    3.1412   57.4203   73.5054 H   0  0  0  0  0  0  0  0  0  0  0  0
    1.4919   62.0782   71.3298 H   0  0  0  0  0  0  0  0  0  0  0  0
   -0.7217   61.8539   72.4657 H   0  0  0  0  0  0  0  0  0  0  0  0
   -1.2102   59.8901   73.8983 H   0  0  0  0  0  0  0  0  0  0  0  0
    0.5127   58.1004   74.2413 H   0  0  0  0  0  0  0  0  0  0  0  0
   -0.1184   67.4498   68.1659 H   0  0  0  0  0  0  0  0  0  0  0  0
    1.0301   68.7443   68.8003 H   0  0  0  0  0  0  0  0  0  0  0  0
    2.6956   67.2961   67.2309 H   0  0  0  0  0  0  0  0  0  0  0  0
    1.1492   67.1364   66.3234 H   0  0  0  0  0  0  0  0  0  0  0  0
    1.0871   69.8055   66.5693 H   0  0  0  0  0  0  0  0  0  0  0  0
    1.7641   67.8634   64.2709 H   0  0  0  0  0  0  0  0  0  0  0  0
    1.7755   69.5463   63.5505 H   0  0  0  0  0  0  0  0  0  0  0  0
    3.2868   67.0887   62.6155 H   0  0  0  0  0  0  0  0  0  0  0  0
    2.0536   68.0703   61.7362 H   0  0  0  0  0  0  0  0  0  0  0  0
    4.3163   68.6023   60.9310 H   0  0  0  0  0  0  0  0  0  0  0  0
    3.5906   70.0142   61.7765 H   0  0  0  0  0  0  0  0  0  0  0  0
    5.6658   68.0469   62.8323 H   0  0  0  0  0  0  0  0  0  0  0  0
    5.8204   69.8440   62.5531 H   0  0  0  0  0  0  0  0  0  0  0  0
    3.0388   69.9785   68.7922 H   0  0  0  0  0  0  0  0  0  0  0  0
    4.9469   70.7639   70.1864 H   0  0  0  0  0  0  0  0  0  0  0  0
    7.5289   70.5479   66.7421 H   0  0  0  0  0  0  0  0  0  0  0  0
  2  1  1  0
  3  2  1  0
  5  4  2  0
  6  5  1  0
  6  3  1  0
  7  5  1  0
  8  7  1  0
  9  8  1  0
 10  9  1  0
 11 10  2  0
 12 11  1  0
 13 12  1  0
 14 13  2  0
 14 10  1  0
 15 14  1  0
 16 15  2  0
 17 16  1  0
 18 13  1  0
 18 17  2  0
 19  1  1  0
 20 19  1  0
 21 20  1  0
 22 21  1  0
 23 22  1  0
 24 23  1  0
 25 24  1  0
 26 25  1  0
 27 26  1  0
 28 27  1  0
 28 23  2  0
 29 28  1  0
 30 29  2  0
 31 22  2  0
 31 30  1  0
 32 31  1  0
 33 32  2  0
 34 33  1  0
 35 34  2  0
 35 30  1  0
 36 34  1  0
  1 37  1  0
  1 38  1  0
  2 39  1  0
  2 40  1  0
  3 41  1  0
  3 42  1  0
  6 43  1  0
  7 44  1  0
  7 45  1  0
  8 46  1  0
  8 47  1  0
  9 48  1  0
  9 49  1  0
 11 50  1  0
 12 51  1  0
 15 52  1  0
 16 53  1  0
 17 54  1  0
 18 55  1  0
 19 56  1  0
 19 57  1  0
 20 58  1  0
 20 59  1  0
 21 60  1  0
 24 61  1  0
 24 62  1  0
 25 63  1  0
 25 64  1  0
 26 65  1  0
 26 66  1  0
 27 67  1  0
 27 68  1  0
 32 69  1  0
 33 70  1  0
 35 71  1  0
M  END
>  <score>  (1) 
-12.398

$$$$
=
     RDKit          3D

 71 75  0  0  0  0  0  0  0  0999 V2000
    0.3750   66.1770   70.1290 C   0  0  0  0  0  0  0  0  0  0  0  0
    0.9880   64.8830   70.6620 C   0  0  0  0  0  0  0  0  0  0  0  0
    0.3430   64.3910   71.9540 C   0  0  0  0  0  0  0  0  0  0  0  0
   -0.7790   61.8820   72.4290 O   0  0  0  0  0  0  0  0  0  0  0  0
    0.3840   62.0860   72.7650 C   0  0  0  0  0  0  0  0  0  0  0  0
    1.0610   63.2570   72.4960 N   0  0  0  0  0  0  0  0  0  0  0  0
    1.2180   61.0400   73.4830 C   0  0  0  0  0  0  0  0  0  0  0  0
    1.2350   59.7030   72.7410 C   0  0  0  0  0  0  0  0  0  0  0  0
    2.6390   59.2410   72.3300 C   0  0  0  0  0  0  0  0  0  0  0  0
    3.6050   60.3540   72.0820 C   0  0  0  0  0  0  0  0  0  0  0  0
    4.6550   60.7180   72.9030 C   0  0  0  0  0  0  0  0  0  0  0  0
    5.2930   61.7890   72.3410 N   0  0  0  0  0  0  0  0  0  0  0  0
    4.6790   62.1430   71.1620 C   0  0  0  0  0  0  0  0  0  0  0  0
    3.6280   61.2470   70.9610 C   0  0  0  0  0  0  0  0  0  0  0  0
    2.8370   61.3920   69.8030 C   0  0  0  0  0  0  0  0  0  0  0  0
    3.1200   62.4220   68.8980 C   0  0  0  0  0  0  0  0  0  0  0  0
    4.1740   63.3010   69.1310 C   0  0  0  0  0  0  0  0  0  0  0  0
    4.9770   63.1780   70.2680 C   0  0  0  0  0  0  0  0  0  0  0  0
    1.3290   67.1010   69.3600 C   0  0  0  0  0  0  0  0  0  0  0  0
    0.7620   67.7170   68.0780 C   0  0  0  0  0  0  0  0  0  0  0  0
    1.1440   69.1340   67.9910 N   0  0  0  0  0  0  0  0  0  0  0  0
    2.3280   69.3140   67.2130 C   0  0  0  0  0  0  0  0  0  0  0  0
    2.2980   68.9420   65.8540 C   0  0  0  0  0  0  0  0  0  0  0  0
    1.0130   68.4970   65.1940 C   0  0  0  0  0  0  0  0  0  0  0  0
    1.2100   67.8570   63.8200 C   0  0  0  0  0  0  0  0  0  0  0  0
    2.1720   68.6810   62.9790 C   0  0  0  0  0  0  0  0  0  0  0  0
    3.5380   68.7280   63.6540 C   0  0  0  0  0  0  0  0  0  0  0  0
    3.4690   69.0990   65.1130 C   0  0  0  0  0  0  0  0  0  0  0  0
    4.6300   69.5430   65.6500 N   0  0  0  0  0  0  0  0  0  0  0  0
    4.6640   69.8760   66.9460 C   0  0  0  0  0  0  0  0  0  0  0  0
    3.5400   69.7810   67.7940 C   0  0  0  0  0  0  0  0  0  0  0  0
    3.6900   70.1570   69.1520 C   0  0  0  0  0  0  0  0  0  0  0  0
    4.9120   70.6070   69.6500 C   0  0  0  0  0  0  0  0  0  0  0  0
    6.0000   70.6910   68.7950 C   0  0  0  0  0  0  0  0  0  0  0  0
    5.8720   70.3270   67.4580 C   0  0  0  0  0  0  0  0  0  0  0  0
    7.5140   71.2460   69.3930 Cl  0  0  0  0  0  0  0  0  0  0  0  0
   -0.4501   65.9064   69.4537 H   0  0  0  0  0  0  0  0  0  0  0  0
    0.0591   66.7454   71.0162 H   0  0  0  0  0  0  0  0  0  0  0  0
    0.8730   64.1019   69.8960 H   0  0  0  0  0  0  0  0  0  0  0  0
    2.0438   65.0940   70.8874 H   0  0  0  0  0  0  0  0  0  0  0  0
    0.3497   65.2066   72.6921 H   0  0  0  0  0  0  0  0  0  0  0  0
   -0.6881   64.0783   71.7327 H   0  0  0  0  0  0  0  0  0  0  0  0
    2.0722   63.3243   72.6798 H   0  0  0  0  0  0  0  0  0  0  0  0
    2.2504   61.4094   73.5703 H   0  0  0  0  0  0  0  0  0  0  0  0
    0.7674   60.8707   74.4721 H   0  0  0  0  0  0  0  0  0  0  0  0
    0.7958   58.9368   73.3968 H   0  0  0  0  0  0  0  0  0  0  0  0
    0.6597   59.8436   71.8140 H   0  0  0  0  0  0  0  0  0  0  0  0
    3.0423   58.6076   73.1339 H   0  0  0  0  0  0  0  0  0  0  0  0
    2.5271   58.7031   71.3771 H   0  0  0  0  0  0  0  0  0  0  0  0
    4.9311   60.2289   73.8488 H   0  0  0  0  0  0  0  0  0  0  0  0
    6.1149   62.2624   72.7426 H   0  0  0  0  0  0  0  0  0  0  0  0
    2.0031   60.7005   69.6119 H   0  0  0  0  0  0  0  0  0  0  0  0
    2.5037   62.5378   67.9943 H   0  0  0  0  0  0  0  0  0  0  0  0
    4.3780   64.1051   68.4087 H   0  0  0  0  0  0  0  0  0  0  0  0
    5.8125   63.8690   70.4536 H   0  0  0  0  0  0  0  0  0  0  0  0
    1.6186   67.9229   70.0312 H   0  0  0  0  0  0  0  0  0  0  0  0
    2.1712   66.4682   69.0433 H   0  0  0  0  0  0  0  0  0  0  0  0
    1.1617   67.1775   67.2066 H   0  0  0  0  0  0  0  0  0  0  0  0
   -0.3351   67.6385   68.0935 H   0  0  0  0  0  0  0  0  0  0  0  0
    0.6220   69.9022   68.4363 H   0  0  0  0  0  0  0  0  0  0  0  0
    0.5229   67.7630   65.8506 H   0  0  0  0  0  0  0  0  0  0  0  0
    0.4043   69.4003   65.0404 H   0  0  0  0  0  0  0  0  0  0  0  0
    1.6186   66.8438   63.9483 H   0  0  0  0  0  0  0  0  0  0  0  0
    0.2382   67.8130   63.3066 H   0  0  0  0  0  0  0  0  0  0  0  0
    2.2719   68.2227   61.9840 H   0  0  0  0  0  0  0  0  0  0  0  0
    1.7813   69.7043   62.8782 H   0  0  0  0  0  0  0  0  0  0  0  0
    4.0045   67.7356   63.5677 H   0  0  0  0  0  0  0  0  0  0  0  0
    4.1256   69.5075   63.1469 H   0  0  0  0  0  0  0  0  0  0  0  0
    2.8242   70.0925   69.8274 H   0  0  0  0  0  0  0  0  0  0  0  0
    5.0116   70.8918   70.7078 H   0  0  0  0  0  0  0  0  0  0  0  0
    6.7460   70.3983   66.7939 H   0  0  0  0  0  0  0  0  0  0  0  0
  2  1  1  0
  3  2  1  0
  5  4  2  0
  6  5  1  0
  6  3  1  0
  7  5  1  0
  8  7  1  0
  9  8  1  0
 10  9  1  0
 11 10  2  0
 12 11  1  0
 13 12  1  0
 14 13  2  0
 14 10  1  0
 15 14  1  0
 16 15  2  0
 17 16  1  0
 18 13  1  0
 18 17  2  0
 19  1  1  0
 20 19  1  0
 21 20  1  0
 22 21  1  0
 23 22  1  0
 24 23  1  0
 25 24  1  0
 26 25  1  0
 27 26  1  0
 28 27  1  0
 28 23  2  0
 29 28  1  0
 30 29  2  0
 31 22  2  0
 31 30  1  0
 32 31  1  0
 33 32  2  0
 34 33  1  0
 35 34  2  0
 35 30  1  0
 36 34  1  0
  1 37  1  0
  1 38  1  0
  2 39  1  0
  2 40  1  0
  3 41  1  0
  3 42  1  0
  6 43  1  0
  7 44  1  0
  7 45  1  0
  8 46  1  0
  8 47  1  0
  9 48  1  0
  9 49  1  0
 11 50  1  0
 12 51  1  0
 15 52  1  0
 16 53  1  0
 17 54  1  0
 18 55  1  0
 19 56  1  0
 19 57  1  0
 20 58  1  0
 20 59  1  0
 21 60  1  0
 24 61  1  0
 24 62  1  0
 25 63  1  0
 25 64  1  0
 26 65  1  0
 26 66  1  0
 27 67  1  0
 27 68  1  0
 32 69  1  0
 33 70  1  0
 35 71  1  0
M  END
>  <score>  (2) 
-12.393

$$$$
=
     RDKit          3D

 71 75  0  0  0  0  0  0  0  0999 V2000
    0.9930   65.8120   70.0530 C   0  0  0  0  0  0  0  0  0  0  0  0
    1.1400   67.2090   69.4470 C   0  0  0  0  0  0  0  0  0  0  0  0
    0.4110   67.3740   68.1180 C   0  0  0  0  0  0  0  0  0  0  0  0
    0.0180   68.1410   65.4650 O   0  0  0  0  0  0  0  0  0  0  0  0
    0.9140   67.3450   65.7260 C   0  0  0  0  0  0  0  0  0  0  0  0
    1.2500   66.9700   67.0110 N   0  0  0  0  0  0  0  0  0  0  0  0
    1.7810   66.7160   64.6510 C   0  0  0  0  0  0  0  0  0  0  0  0
    3.1930   67.3020   64.6280 C   0  0  0  0  0  0  0  0  0  0  0  0
    3.2280   68.8350   64.6520 C   0  0  0  0  0  0  0  0  0  0  0  0
    4.3100   69.4120   65.5060 C   0  0  0  0  0  0  0  0  0  0  0  0
    5.6100   69.6630   65.1130 C   0  0  0  0  0  0  0  0  0  0  0  0
    6.2950   70.1740   66.1810 N   0  0  0  0  0  0  0  0  0  0  0  0
    5.4690   70.2620   67.2770 C   0  0  0  0  0  0  0  0  0  0  0  0
    4.2100   69.8110   66.8790 C   0  0  0  0  0  0  0  0  0  0  0  0
    3.1690   69.8080   67.8310 C   0  0  0  0  0  0  0  0  0  0  0  0
    3.4240   70.2470   69.1350 C   0  0  0  0  0  0  0  0  0  0  0  0
    4.6940   70.6880   69.4990 C   0  0  0  0  0  0  0  0  0  0  0  0
    5.7420   70.7060   68.5760 C   0  0  0  0  0  0  0  0  0  0  0  0
    0.1900   65.7320   71.3580 C   0  0  0  0  0  0  0  0  0  0  0  0
    0.3020   64.4090   72.1210 C   0  0  0  0  0  0  0  0  0  0  0  0
    0.2010   63.2800   71.1850 N   0  0  0  0  0  0  0  0  0  0  0  0
    0.8330   62.1090   71.7020 C   0  0  0  0  0  0  0  0  0  0  0  0
    2.1590   61.8370   71.3080 C   0  0  0  0  0  0  0  0  0  0  0  0
    2.9450   62.8230   70.4760 C   0  0  0  0  0  0  0  0  0  0  0  0
    4.2400   62.2540   69.8970 C   0  0  0  0  0  0  0  0  0  0  0  0
    5.0050   61.4770   70.9570 C   0  0  0  0  0  0  0  0  0  0  0  0
    4.1690   60.2960   71.4350 C   0  0  0  0  0  0  0  0  0  0  0  0
    2.7560   60.6750   71.8000 C   0  0  0  0  0  0  0  0  0  0  0  0
    2.1070   59.7880   72.5900 N   0  0  0  0  0  0  0  0  0  0  0  0
    0.8400   60.0360   72.9460 C   0  0  0  0  0  0  0  0  0  0  0  0
    0.1370   61.1860   72.5310 C   0  0  0  0  0  0  0  0  0  0  0  0
   -1.2030   61.3460   72.9650 C   0  0  0  0  0  0  0  0  0  0  0  0
   -1.8210   60.3970   73.7790 C   0  0  0  0  0  0  0  0  0  0  0  0
   -1.1060   59.2760   74.1730 C   0  0  0  0  0  0  0  0  0  0  0  0
    0.2110   59.1020   73.7560 C   0  0  0  0  0  0  0  0  0  0  0  0
   -1.8520   58.0970   75.1780 Cl  0  0  0  0  0  0  0  0  0  0  0  0
    0.4942   65.1724   69.3099 H   0  0  0  0  0  0  0  0  0  0  0  0
    2.0126   65.4883   70.3090 H   0  0  0  0  0  0  0  0  0  0  0  0
    0.7351   67.9424   70.1599 H   0  0  0  0  0  0  0  0  0  0  0  0
    2.2109   67.3661   69.2509 H   0  0  0  0  0  0  0  0  0  0  0  0
   -0.4967   66.7527   68.1264 H   0  0  0  0  0  0  0  0  0  0  0  0
    0.1514   68.4354   67.9909 H   0  0  0  0  0  0  0  0  0  0  0  0
    2.0943   66.4051   67.1810 H   0  0  0  0  0  0  0  0  0  0  0  0
    1.8498   65.6345   64.8399 H   0  0  0  0  0  0  0  0  0  0  0  0
    1.3141   66.9247   63.6771 H   0  0  0  0  0  0  0  0  0  0  0  0
    3.7376   66.9290   65.5079 H   0  0  0  0  0  0  0  0  0  0  0  0
    3.6553   66.9860   63.6812 H   0  0  0  0  0  0  0  0  0  0  0  0
    3.3745   69.1924   63.6221 H   0  0  0  0  0  0  0  0  0  0  0  0
    2.2733   69.1651   65.0873 H   0  0  0  0  0  0  0  0  0  0  0  0
    6.0246   69.4824   64.1103 H   0  0  0  0  0  0  0  0  0  0  0  0
    7.2865   70.4527   66.1664 H   0  0  0  0  0  0  0  0  0  0  0  0
    2.1631   69.4627   67.5500 H   0  0  0  0  0  0  0  0  0  0  0  0
    2.6141   70.2438   69.8793 H   0  0  0  0  0  0  0  0  0  0  0  0
    4.8744   71.0274   70.5296 H   0  0  0  0  0  0  0  0  0  0  0  0
    6.7454   71.0564   68.8596 H   0  0  0  0  0  0  0  0  0  0  0  0
    0.5404   66.5365   72.0214 H   0  0  0  0  0  0  0  0  0  0  0  0
   -0.8671   65.8249   71.0683 H   0  0  0  0  0  0  0  0  0  0  0  0
    1.2717   64.3677   72.6386 H   0  0  0  0  0  0  0  0  0  0  0  0
   -0.5149   64.3445   72.8548 H   0  0  0  0  0  0  0  0  0  0  0  0
   -0.2679   63.3279   70.2692 H   0  0  0  0  0  0  0  0  0  0  0  0
    2.3098   63.1555   69.6418 H   0  0  0  0  0  0  0  0  0  0  0  0
    3.2309   63.6478   71.1453 H   0  0  0  0  0  0  0  0  0  0  0  0
    3.9973   61.5817   69.0609 H   0  0  0  0  0  0  0  0  0  0  0  0
    4.8673   63.0868   69.5463 H   0  0  0  0  0  0  0  0  0  0  0  0
    5.9484   61.1072   70.5290 H   0  0  0  0  0  0  0  0  0  0  0  0
    5.2190   62.1391   71.8090 H   0  0  0  0  0  0  0  0  0  0  0  0
    4.1328   59.5457   70.6314 H   0  0  0  0  0  0  0  0  0  0  0  0
    4.6472   59.9053   72.3453 H   0  0  0  0  0  0  0  0  0  0  0  0
   -1.7672   62.2373   72.6532 H   0  0  0  0  0  0  0  0  0  0  0  0
   -2.8625   60.5360   74.1044 H   0  0  0  0  0  0  0  0  0  0  0  0
    0.7636   58.2061   74.0752 H   0  0  0  0  0  0  0  0  0  0  0  0
  2  1  1  0
  3  2  1  0
  5  4  2  0
  6  5  1  0
  6  3  1  0
  7  5  1  0
  8  7  1  0
  9  8  1  0
 10  9  1  0
 11 10  2  0
 12 11  1  0
 13 12  1  0
 14 13  2  0
 14 10  1  0
 15 14  1  0
 16 15  2  0
 17 16  1  0
 18 13  1  0
 18 17  2  0
 19  1  1  0
 20 19  1  0
 21 20  1  0
 22 21  1  0
 23 22  1  0
 24 23  1  0
 25 24  1  0
 26 25  1  0
 27 26  1  0
 28 27  1  0
 28 23  2  0
 29 28  1  0
 30 29  2  0
 31 22  2  0
 31 30  1  0
 32 31  1  0
 33 32  2  0
 34 33  1  0
 35 34  2  0
 35 30  1  0
 36 34  1  0
  1 37  1  0
  1 38  1  0
  2 39  1  0
  2 40  1  0
  3 41  1  0
  3 42  1  0
  6 43  1  0
  7 44  1  0
  7 45  1  0
  8 46  1  0
  8 47  1  0
  9 48  1  0
  9 49  1  0
 11 50  1  0
 12 51  1  0
 15 52  1  0
 16 53  1  0
 17 54  1  0
 18 55  1  0
 19 56  1  0
 19 57  1  0
 20 58  1  0
 20 59  1  0
 21 60  1  0
 24 61  1  0
 24 62  1  0
 25 63  1  0
 25 64  1  0
 26 65  1  0
 26 66  1  0
 27 67  1  0
 27 68  1  0
 32 69  1  0
 33 70  1  0
 35 71  1  0
M  END
>  <score>  (3) 
-12.01

$$$$
=
     RDKit          3D

 71 75  0  0  0  0  0  0  0  0999 V2000
    0.1590   66.3910   69.5610 C   0  0  0  0  0  0  0  0  0  0  0  0
    0.2790   65.7020   70.9210 C   0  0  0  0  0  0  0  0  0  0  0  0
    0.8180   64.2780   70.8360 C   0  0  0  0  0  0  0  0  0  0  0  0
    2.2990   62.5170   69.2590 O   0  0  0  0  0  0  0  0  0  0  0  0
    2.8940   63.3030   69.9900 C   0  0  0  0  0  0  0  0  0  0  0  0
    2.2620   64.2730   70.7400 N   0  0  0  0  0  0  0  0  0  0  0  0
    4.4070   63.3130   70.1110 C   0  0  0  0  0  0  0  0  0  0  0  0
    4.8940   62.5550   71.3470 C   0  0  0  0  0  0  0  0  0  0  0  0
    5.4820   61.1740   71.0350 C   0  0  0  0  0  0  0  0  0  0  0  0
    4.4730   60.0720   70.9890 C   0  0  0  0  0  0  0  0  0  0  0  0
    3.9450   59.4990   69.8480 C   0  0  0  0  0  0  0  0  0  0  0  0
    3.0450   58.5400   70.2220 N   0  0  0  0  0  0  0  0  0  0  0  0
    2.9660   58.4700   71.5930 C   0  0  0  0  0  0  0  0  0  0  0  0
    3.8670   59.4060   72.1040 C   0  0  0  0  0  0  0  0  0  0  0  0
    3.9840   59.5270   73.5040 C   0  0  0  0  0  0  0  0  0  0  0  0
    3.1980   58.7200   74.3350 C   0  0  0  0  0  0  0  0  0  0  0  0
    2.3060   57.7990   73.7920 C   0  0  0  0  0  0  0  0  0  0  0  0
    2.1740   57.6550   72.4080 C   0  0  0  0  0  0  0  0  0  0  0  0
    1.3280   67.3030   69.1690 C   0  0  0  0  0  0  0  0  0  0  0  0
    1.3370   67.7740   67.7120 C   0  0  0  0  0  0  0  0  0  0  0  0
    1.7210   69.1910   67.6450 N   0  0  0  0  0  0  0  0  0  0  0  0
    2.9260   69.3770   66.9030 C   0  0  0  0  0  0  0  0  0  0  0  0
    4.0470   69.9110   67.5710 C   0  0  0  0  0  0  0  0  0  0  0  0
    4.0250   70.1520   69.0630 C   0  0  0  0  0  0  0  0  0  0  0  0
    5.1930   70.9970   69.5720 C   0  0  0  0  0  0  0  0  0  0  0  0
    6.5030   70.5190   68.9660 C   0  0  0  0  0  0  0  0  0  0  0  0
    6.4590   70.6790   67.4510 C   0  0  0  0  0  0  0  0  0  0  0  0
    5.2100   70.1110   66.8270 C   0  0  0  0  0  0  0  0  0  0  0  0
    5.2910   69.8610   65.5000 N   0  0  0  0  0  0  0  0  0  0  0  0
    4.2200   69.3740   64.8600 C   0  0  0  0  0  0  0  0  0  0  0  0
    2.9940   69.1100   65.5070 C   0  0  0  0  0  0  0  0  0  0  0  0
    1.9230   68.5970   64.7320 C   0  0  0  0  0  0  0  0  0  0  0  0
    2.0650   68.3600   63.3660 C   0  0  0  0  0  0  0  0  0  0  0  0
    3.2810   68.6280   62.7560 C   0  0  0  0  0  0  0  0  0  0  0  0
    4.3440   69.1310   63.5010 C   0  0  0  0  0  0  0  0  0  0  0  0
    3.4730   68.3390   61.0710 Cl  0  0  0  0  0  0  0  0  0  0  0  0
    0.0693   65.6085   68.7931 H   0  0  0  0  0  0  0  0  0  0  0  0
   -0.7202   67.0479   69.6356 H   0  0  0  0  0  0  0  0  0  0  0  0
    0.9577   66.2940   71.5526 H   0  0  0  0  0  0  0  0  0  0  0  0
   -0.7351   65.6395   71.3427 H   0  0  0  0  0  0  0  0  0  0  0  0
    0.5159   63.7250   71.7376 H   0  0  0  0  0  0  0  0  0  0  0  0
    0.4060   63.8014   69.9343 H   0  0  0  0  0  0  0  0  0  0  0  0
    2.8154   64.9906   71.2296 H   0  0  0  0  0  0  0  0  0  0  0  0
    4.8370   62.8421   69.2147 H   0  0  0  0  0  0  0  0  0  0  0  0
    4.7306   64.3598   70.2083 H   0  0  0  0  0  0  0  0  0  0  0  0
    5.6699   63.1587   71.8405 H   0  0  0  0  0  0  0  0  0  0  0  0
    4.0157   62.3913   71.9887 H   0  0  0  0  0  0  0  0  0  0  0  0
    5.9811   61.2252   70.0561 H   0  0  0  0  0  0  0  0  0  0  0  0
    6.1740   60.9335   71.8556 H   0  0  0  0  0  0  0  0  0  0  0  0
    4.2047   59.7687   68.8137 H   0  0  0  0  0  0  0  0  0  0  0  0
    2.5038   57.9541   69.5703 H   0  0  0  0  0  0  0  0  0  0  0  0
    4.6882   60.2507   73.9402 H   0  0  0  0  0  0  0  0  0  0  0  0
    3.2859   58.8144   75.4274 H   0  0  0  0  0  0  0  0  0  0  0  0
    1.6961   57.1754   74.4622 H   0  0  0  0  0  0  0  0  0  0  0  0
    1.4723   56.9267   71.9754 H   0  0  0  0  0  0  0  0  0  0  0  0
    1.2933   68.1941   69.8130 H   0  0  0  0  0  0  0  0  0  0  0  0
    2.2383   66.6988   69.2966 H   0  0  0  0  0  0  0  0  0  0  0  0
    2.0589   67.1733   67.1393 H   0  0  0  0  0  0  0  0  0  0  0  0
    0.3300   67.6519   67.2865 H   0  0  0  0  0  0  0  0  0  0  0  0
    1.1861   69.9561   68.0802 H   0  0  0  0  0  0  0  0  0  0  0  0
    3.0876   70.6687   69.3165 H   0  0  0  0  0  0  0  0  0  0  0  0
    4.1090   69.1675   69.5464 H   0  0  0  0  0  0  0  0  0  0  0  0
    5.0276   72.0480   69.2927 H   0  0  0  0  0  0  0  0  0  0  0  0
    5.2516   70.8989   70.6660 H   0  0  0  0  0  0  0  0  0  0  0  0
    7.3328   71.1159   69.3724 H   0  0  0  0  0  0  0  0  0  0  0  0
    6.6531   69.4582   69.2152 H   0  0  0  0  0  0  0  0  0  0  0  0
    6.5122   71.7513   67.2116 H   0  0  0  0  0  0  0  0  0  0  0  0
    7.3120   70.1193   67.0396 H   0  0  0  0  0  0  0  0  0  0  0  0
    0.9604   68.3817   65.2189 H   0  0  0  0  0  0  0  0  0  0  0  0
    1.2227   67.9652   62.7789 H   0  0  0  0  0  0  0  0  0  0  0  0
    5.3014   69.3398   63.0012 H   0  0  0  0  0  0  0  0  0  0  0  0
  2  1  1  0
  3  2  1  0
  5  4  2  0
  6  5  1  0
  6  3  1  0
  7  5  1  0
  8  7  1  0
  9  8  1  0
 10  9  1  0
 11 10  2  0
 12 11  1  0
 13 12  1  0
 14 13  2  0
 14 10  1  0
 15 14  1  0
 16 15  2  0
 17 16  1  0
 18 13  1  0
 18 17  2  0
 19  1  1  0
 20 19  1  0
 21 20  1  0
 22 21  1  0
 23 22  1  0
 24 23  1  0
 25 24  1  0
 26 25  1  0
 27 26  1  0
 28 27  1  0
 28 23  2  0
 29 28  1  0
 30 29  2  0
 31 22  2  0
 31 30  1  0
 32 31  1  0
 33 32  2  0
 34 33  1  0
 35 34  2  0
 35 30  1  0
 36 34  1  0
  1 37  1  0
  1 38  1  0
  2 39  1  0
  2 40  1  0
  3 41  1  0
  3 42  1  0
  6 43  1  0
  7 44  1  0
  7 45  1  0
  8 46  1  0
  8 47  1  0
  9 48  1  0
  9 49  1  0
 11 50  1  0
 12 51  1  0
 15 52  1  0
 16 53  1  0
 17 54  1  0
 18 55  1  0
 19 56  1  0
 19 57  1  0
 20 58  1  0
 20 59  1  0
 21 60  1  0
 24 61  1  0
 24 62  1  0
 25 63  1  0
 25 64  1  0
 26 65  1  0
 26 66  1  0
 27 67  1  0
 27 68  1  0
 32 69  1  0
 33 70  1  0
 35 71  1  0
M  END
>  <score>  (4) 
-11.969

$$$$
=
     RDKit          3D

 71 75  0  0  0  0  0  0  0  0999 V2000
    0.2550   64.8210   71.4030 C   0  0  0  0  0  0  0  0  0  0  0  0
    0.8620   65.7930   70.3910 C   0  0  0  0  0  0  0  0  0  0  0  0
   -0.1750   66.4660   69.4980 C   0  0  0  0  0  0  0  0  0  0  0  0
   -1.6050   67.1930   67.2160 O   0  0  0  0  0  0  0  0  0  0  0  0
   -0.3790   67.1790   67.1690 C   0  0  0  0  0  0  0  0  0  0  0  0
    0.4230   66.9230   68.2610 N   0  0  0  0  0  0  0  0  0  0  0  0
    0.3880   67.4870   65.8950 C   0  0  0  0  0  0  0  0  0  0  0  0
    1.0200   68.8790   65.9220 C   0  0  0  0  0  0  0  0  0  0  0  0
    2.5510   68.8640   65.9960 C   0  0  0  0  0  0  0  0  0  0  0  0
    3.1130   69.4900   67.2320 C   0  0  0  0  0  0  0  0  0  0  0  0
    2.4130   69.7840   68.3850 C   0  0  0  0  0  0  0  0  0  0  0  0
    3.2720   70.3630   69.2780 N   0  0  0  0  0  0  0  0  0  0  0  0
    4.5300   70.4610   68.7320 C   0  0  0  0  0  0  0  0  0  0  0  0
    4.4680   69.9010   67.4550 C   0  0  0  0  0  0  0  0  0  0  0  0
    5.6450   69.8710   66.6790 C   0  0  0  0  0  0  0  0  0  0  0  0
    6.8300   70.4010   67.2010 C   0  0  0  0  0  0  0  0  0  0  0  0
    6.8570   70.9560   68.4790 C   0  0  0  0  0  0  0  0  0  0  0  0
    5.7060   70.9950   69.2700 C   0  0  0  0  0  0  0  0  0  0  0  0
   -0.0320   63.4070   70.8810 C   0  0  0  0  0  0  0  0  0  0  0  0
   -0.4140   62.3750   71.9450 C   0  0  0  0  0  0  0  0  0  0  0  0
    0.6690   62.2480   72.9310 N   0  0  0  0  0  0  0  0  0  0  0  0
    1.4510   61.0750   72.7070 C   0  0  0  0  0  0  0  0  0  0  0  0
    2.6960   61.2150   72.0600 C   0  0  0  0  0  0  0  0  0  0  0  0
    3.2590   62.5790   71.7360 C   0  0  0  0  0  0  0  0  0  0  0  0
    4.4550   62.5480   70.7860 C   0  0  0  0  0  0  0  0  0  0  0  0
    5.4440   61.4720   71.2070 C   0  0  0  0  0  0  0  0  0  0  0  0
    4.7790   60.1030   71.1380 C   0  0  0  0  0  0  0  0  0  0  0  0
    3.4370   60.0570   71.8250 C   0  0  0  0  0  0  0  0  0  0  0  0
    2.9960   58.8180   72.1450 N   0  0  0  0  0  0  0  0  0  0  0  0
    1.8040   58.6830   72.7400 C   0  0  0  0  0  0  0  0  0  0  0  0
    0.9720   59.7800   73.0490 C   0  0  0  0  0  0  0  0  0  0  0  0
   -0.2730   59.5210   73.6770 C   0  0  0  0  0  0  0  0  0  0  0  0
   -0.6750   58.2220   73.9820 C   0  0  0  0  0  0  0  0  0  0  0  0
    0.1620   57.1630   73.6680 C   0  0  0  0  0  0  0  0  0  0  0  0
    1.3880   57.3970   73.0520 C   0  0  0  0  0  0  0  0  0  0  0  0
   -0.3180   55.5540   74.0400 Cl  0  0  0  0  0  0  0  0  0  0  0  0
    0.9537   64.7335   72.2480 H   0  0  0  0  0  0  0  0  0  0  0  0
   -0.7236   65.2440   71.6739 H   0  0  0  0  0  0  0  0  0  0  0  0
    1.4070   66.5739   70.9416 H   0  0  0  0  0  0  0  0  0  0  0  0
    1.5230   65.2072   69.7353 H   0  0  0  0  0  0  0  0  0  0  0  0
   -0.9728   65.7449   69.2668 H   0  0  0  0  0  0  0  0  0  0  0  0
   -0.5846   67.3364   70.0315 H   0  0  0  0  0  0  0  0  0  0  0  0
    1.4424   67.0562   68.1971 H   0  0  0  0  0  0  0  0  0  0  0  0
    1.1849   66.7388   65.7719 H   0  0  0  0  0  0  0  0  0  0  0  0
   -0.3240   67.4562   65.0571 H   0  0  0  0  0  0  0  0  0  0  0  0
    0.7226   69.4123   65.0071 H   0  0  0  0  0  0  0  0  0  0  0  0
    0.6608   69.3754   66.8355 H   0  0  0  0  0  0  0  0  0  0  0  0
    2.8877   67.8175   65.9561 H   0  0  0  0  0  0  0  0  0  0  0  0
    2.9135   69.4621   65.1470 H   0  0  0  0  0  0  0  0  0  0  0  0
    1.3447   69.5860   68.5565 H   0  0  0  0  0  0  0  0  0  0  0  0
    3.0137   70.6800   70.2234 H   0  0  0  0  0  0  0  0  0  0  0  0
    5.6316   69.4337   65.6697 H   0  0  0  0  0  0  0  0  0  0  0  0
    7.7490   70.3794   66.5969 H   0  0  0  0  0  0  0  0  0  0  0  0
    7.7981   71.3694   68.8707 H   0  0  0  0  0  0  0  0  0  0  0  0
    5.7237   71.4302   70.2801 H   0  0  0  0  0  0  0  0  0  0  0  0
   -0.8609   63.4736   70.1609 H   0  0  0  0  0  0  0  0  0  0  0  0
    0.9112   63.0511   70.4410 H   0  0  0  0  0  0  0  0  0  0  0  0
   -1.3340   62.6990   72.4535 H   0  0  0  0  0  0  0  0  0  0  0  0
   -0.5795   61.4009   71.4615 H   0  0  0  0  0  0  0  0  0  0  0  0
    0.8422   62.9224   73.6900 H   0  0  0  0  0  0  0  0  0  0  0  0
    2.4636   63.1800   71.2712 H   0  0  0  0  0  0  0  0  0  0  0  0
    3.6162   63.0091   72.6834 H   0  0  0  0  0  0  0  0  0  0  0  0
    4.1015   62.3354   69.7663 H   0  0  0  0  0  0  0  0  0  0  0  0
    4.9589   63.5253   70.8175 H   0  0  0  0  0  0  0  0  0  0  0  0
    6.3125   61.4903   70.5322 H   0  0  0  0  0  0  0  0  0  0  0  0
    5.7719   61.6644   72.2392 H   0  0  0  0  0  0  0  0  0  0  0  0
    4.6392   59.8355   70.0802 H   0  0  0  0  0  0  0  0  0  0  0  0
    5.4375   59.3939   71.6610 H   0  0  0  0  0  0  0  0  0  0  0  0
   -0.9349   60.3628   73.9285 H   0  0  0  0  0  0  0  0  0  0  0  0
   -1.6455   58.0393   74.4664 H   0  0  0  0  0  0  0  0  0  0  0  0
    2.0399   56.5453   72.8078 H   0  0  0  0  0  0  0  0  0  0  0  0
  2  1  1  0
  3  2  1  0
  5  4  2  0
  6  5  1  0
  6  3  1  0
  7  5  1  0
  8  7  1  0
  9  8  1  0
 10  9  1  0
 11 10  2  0
 12 11  1  0
 13 12  1  0
 14 13  2  0
 14 10  1  0
 15 14  1  0
 16 15  2  0
 17 16  1  0
 18 13  1  0
 18 17  2  0
 19  1  1  0
 20 19  1  0
 21 20  1  0
 22 21  1  0
 23 22  1  0
 24 23  1  0
 25 24  1  0
 26 25  1  0
 27 26  1  0
 28 27  1  0
 28 23  2  0
 29 28  1  0
 30 29  2  0
 31 22  2  0
 31 30  1  0
 32 31  1  0
 33 32  2  0
 34 33  1  0
 35 34  2  0
 35 30  1  0
 36 34  1  0
  1 37  1  0
  1 38  1  0
  2 39  1  0
  2 40  1  0
  3 41  1  0
  3 42  1  0
  6 43  1  0
  7 44  1  0
  7 45  1  0
  8 46  1  0
  8 47  1  0
  9 48  1  0
  9 49  1  0
 11 50  1  0
 12 51  1  0
 15 52  1  0
 16 53  1  0
 17 54  1  0
 18 55  1  0
 19 56  1  0
 19 57  1  0
 20 58  1  0
 20 59  1  0
 21 60  1  0
 24 61  1  0
 24 62  1  0
 25 63  1  0
 25 64  1  0
 26 65  1  0
 26 66  1  0
 27 67  1  0
 27 68  1  0
 32 69  1  0
 33 70  1  0
 35 71  1  0
M  END
>  <score>  (5) 
-11.536

$$$$
=
     RDKit          3D

 71 75  0  0  0  0  0  0  0  0999 V2000
    4.5650   64.8150   63.9280 C   0  0  0  0  0  0  0  0  0  0  0  0
    3.7420   63.8190   64.7470 C   0  0  0  0  0  0  0  0  0  0  0  0
    3.7070   64.1400   66.2370 C   0  0  0  0  0  0  0  0  0  0  0  0
    2.9160   63.8120   68.8920 O   0  0  0  0  0  0  0  0  0  0  0  0
    3.5870   62.9330   68.3600 C   0  0  0  0  0  0  0  0  0  0  0  0
    3.9530   62.9530   67.0300 N   0  0  0  0  0  0  0  0  0  0  0  0
    4.0520   61.6980   69.1110 C   0  0  0  0  0  0  0  0  0  0  0  0
    2.9120   61.0190   69.8710 C   0  0  0  0  0  0  0  0  0  0  0  0
    2.8000   61.4530   71.3370 C   0  0  0  0  0  0  0  0  0  0  0  0
    1.4110   61.7920   71.7730 C   0  0  0  0  0  0  0  0  0  0  0  0
    0.7440   62.9740   71.5190 C   0  0  0  0  0  0  0  0  0  0  0  0
   -0.4940   62.9060   72.0960 N   0  0  0  0  0  0  0  0  0  0  0  0
   -0.6560   61.6980   72.7320 C   0  0  0  0  0  0  0  0  0  0  0  0
    0.5150   60.9670   72.5290 C   0  0  0  0  0  0  0  0  0  0  0  0
    0.6000   59.6710   73.0810 C   0  0  0  0  0  0  0  0  0  0  0  0
   -0.4770   59.1610   73.8140 C   0  0  0  0  0  0  0  0  0  0  0  0
   -1.6310   59.9190   74.0010 C   0  0  0  0  0  0  0  0  0  0  0  0
   -1.7440   61.2030   73.4610 C   0  0  0  0  0  0  0  0  0  0  0  0
    3.9030   66.1740   63.6690 C   0  0  0  0  0  0  0  0  0  0  0  0
    4.7140   67.3970   64.1040 C   0  0  0  0  0  0  0  0  0  0  0  0
    3.8510   68.5870   64.1330 N   0  0  0  0  0  0  0  0  0  0  0  0
    3.5210   68.9670   65.4690 C   0  0  0  0  0  0  0  0  0  0  0  0
    2.1790   68.8530   65.8850 C   0  0  0  0  0  0  0  0  0  0  0  0
    1.1370   68.2160   64.9950 C   0  0  0  0  0  0  0  0  0  0  0  0
   -0.3000   68.4360   65.4660 C   0  0  0  0  0  0  0  0  0  0  0  0
   -0.4180   68.1850   66.9610 C   0  0  0  0  0  0  0  0  0  0  0  0
    0.4610   69.1720   67.7210 C   0  0  0  0  0  0  0  0  0  0  0  0
    1.8670   69.2530   67.1840 C   0  0  0  0  0  0  0  0  0  0  0  0
    2.7780   69.7820   68.0340 N   0  0  0  0  0  0  0  0  0  0  0  0
    4.0490   69.9100   67.6320 C   0  0  0  0  0  0  0  0  0  0  0  0
    4.4910   69.5220   66.3490 C   0  0  0  0  0  0  0  0  0  0  0  0
    5.8590   69.7060   66.0270 C   0  0  0  0  0  0  0  0  0  0  0  0
    6.7530   70.2580   66.9440 C   0  0  0  0  0  0  0  0  0  0  0  0
    6.2920   70.6300   68.1980 C   0  0  0  0  0  0  0  0  0  0  0  0
    4.9520   70.4560   68.5320 C   0  0  0  0  0  0  0  0  0  0  0  0
    7.3810   71.3100   69.3420 Cl  0  0  0  0  0  0  0  0  0  0  0  0
    5.5079   64.9957   64.4649 H   0  0  0  0  0  0  0  0  0  0  0  0
    4.6952   64.3526   62.9384 H   0  0  0  0  0  0  0  0  0  0  0  0
    2.7103   63.8229   64.3655 H   0  0  0  0  0  0  0  0  0  0  0  0
    4.2227   62.8355   64.6388 H   0  0  0  0  0  0  0  0  0  0  0  0
    4.4803   64.8893   66.4617 H   0  0  0  0  0  0  0  0  0  0  0  0
    2.7091   64.5286   66.4883 H   0  0  0  0  0  0  0  0  0  0  0  0
    4.3988   62.1284   66.6032 H   0  0  0  0  0  0  0  0  0  0  0  0
    4.4720   60.9820   68.3892 H   0  0  0  0  0  0  0  0  0  0  0  0
    4.8059   62.0148   69.8467 H   0  0  0  0  0  0  0  0  0  0  0  0
    1.9657   61.2604   69.3647 H   0  0  0  0  0  0  0  0  0  0  0  0
    3.1261   59.9400   69.8721 H   0  0  0  0  0  0  0  0  0  0  0  0
    3.1687   60.6315   71.9688 H   0  0  0  0  0  0  0  0  0  0  0  0
    3.3960   62.3718   71.4403 H   0  0  0  0  0  0  0  0  0  0  0  0
    1.1414   63.8266   70.9487 H   0  0  0  0  0  0  0  0  0  0  0  0
   -1.2029   63.6523   72.0594 H   0  0  0  0  0  0  0  0  0  0  0  0
    1.5070   59.0658   72.9359 H   0  0  0  0  0  0  0  0  0  0  0  0
   -0.4121   58.1518   74.2469 H   0  0  0  0  0  0  0  0  0  0  0  0
   -2.4657   59.5005   74.5824 H   0  0  0  0  0  0  0  0  0  0  0  0
   -2.6548   61.8031   73.6036 H   0  0  0  0  0  0  0  0  0  0  0  0
    3.7155   66.2589   62.5884 H   0  0  0  0  0  0  0  0  0  0  0  0
    2.9888   66.1854   64.2807 H   0  0  0  0  0  0  0  0  0  0  0  0
    5.1272   67.2219   65.1083 H   0  0  0  0  0  0  0  0  0  0  0  0
    5.5325   67.5614   63.3878 H   0  0  0  0  0  0  0  0  0  0  0  0
    3.5246   69.0853   63.2927 H   0  0  0  0  0  0  0  0  0  0  0  0
    1.2388   68.6397   63.9850 H   0  0  0  0  0  0  0  0  0  0  0  0
    1.3176   67.1312   65.0190 H   0  0  0  0  0  0  0  0  0  0  0  0
   -0.5967   69.4728   65.2491 H   0  0  0  0  0  0  0  0  0  0  0  0
   -0.9585   67.7325   64.9354 H   0  0  0  0  0  0  0  0  0  0  0  0
   -1.4653   68.3144   67.2715 H   0  0  0  0  0  0  0  0  0  0  0  0
   -0.0894   67.1592   67.1842 H   0  0  0  0  0  0  0  0  0  0  0  0
    0.0036   70.1702   67.6544 H   0  0  0  0  0  0  0  0  0  0  0  0
    0.5285   68.8159   68.7596 H   0  0  0  0  0  0  0  0  0  0  0  0
    6.2231   69.4071   65.0330 H   0  0  0  0  0  0  0  0  0  0  0  0
    7.8108   70.3966   66.6760 H   0  0  0  0  0  0  0  0  0  0  0  0
    4.6020   70.7577   69.5302 H   0  0  0  0  0  0  0  0  0  0  0  0
  2  1  1  0
  3  2  1  0
  5  4  2  0
  6  5  1  0
  6  3  1  0
  7  5  1  0
  8  7  1  0
  9  8  1  0
 10  9  1  0
 11 10  2  0
 12 11  1  0
 13 12  1  0
 14 13  2  0
 14 10  1  0
 15 14  1  0
 16 15  2  0
 17 16  1  0
 18 13  1  0
 18 17  2  0
 19  1  1  0
 20 19  1  0
 21 20  1  0
 22 21  1  0
 23 22  1  0
 24 23  1  0
 25 24  1  0
 26 25  1  0
 27 26  1  0
 28 27  1  0
 28 23  2  0
 29 28  1  0
 30 29  2  0
 31 22  2  0
 31 30  1  0
 32 31  1  0
 33 32  2  0
 34 33  1  0
 35 34  2  0
 35 30  1  0
 36 34  1  0
  1 37  1  0
  1 38  1  0
  2 39  1  0
  2 40  1  0
  3 41  1  0
  3 42  1  0
  6 43  1  0
  7 44  1  0
  7 45  1  0
  8 46  1  0
  8 47  1  0
  9 48  1  0
  9 49  1  0
 11 50  1  0
 12 51  1  0
 15 52  1  0
 16 53  1  0
 17 54  1  0
 18 55  1  0
 19 56  1  0
 19 57  1  0
 20 58  1  0
 20 59  1  0
 21 60  1  0
 24 61  1  0
 24 62  1  0
 25 63  1  0
 25 64  1  0
 26 65  1  0
 26 66  1  0
 27 67  1  0
 27 68  1  0
 32 69  1  0
 33 70  1  0
 35 71  1  0
M  END
>  <score>  (6) 
-11.254

$$$$
=
     RDKit          3D

 71 75  0  0  0  0  0  0  0  0999 V2000
    3.2970   65.2820   64.6360 C   0  0  0  0  0  0  0  0  0  0  0  0
    3.7530   63.8550   64.9420 C   0  0  0  0  0  0  0  0  0  0  0  0
    4.3090   63.6840   66.3520 C   0  0  0  0  0  0  0  0  0  0  0  0
    4.5690   63.3600   69.1100 O   0  0  0  0  0  0  0  0  0  0  0  0
    3.6690   62.7650   68.5240 C   0  0  0  0  0  0  0  0  0  0  0  0
    3.3980   62.9250   67.1810 N   0  0  0  0  0  0  0  0  0  0  0  0
    2.7280   61.8110   69.2380 C   0  0  0  0  0  0  0  0  0  0  0  0
    3.4490   60.5700   69.7640 C   0  0  0  0  0  0  0  0  0  0  0  0
    3.6830   60.5860   71.2790 C   0  0  0  0  0  0  0  0  0  0  0  0
    2.5870   59.9570   72.0780 C   0  0  0  0  0  0  0  0  0  0  0  0
    2.6110   58.6940   72.6380 C   0  0  0  0  0  0  0  0  0  0  0  0
    1.4190   58.4800   73.2730 N   0  0  0  0  0  0  0  0  0  0  0  0
    0.6040   59.5790   73.1380 C   0  0  0  0  0  0  0  0  0  0  0  0
    1.3180   60.5330   72.4110 C   0  0  0  0  0  0  0  0  0  0  0  0
    0.6980   61.7710   72.1400 C   0  0  0  0  0  0  0  0  0  0  0  0
   -0.6030   62.0060   72.5990 C   0  0  0  0  0  0  0  0  0  0  0  0
   -1.2890   61.0310   73.3200 C   0  0  0  0  0  0  0  0  0  0  0  0
   -0.6970   59.7980   73.6050 C   0  0  0  0  0  0  0  0  0  0  0  0
    4.1490   66.0520   63.6200 C   0  0  0  0  0  0  0  0  0  0  0  0
    4.7650   67.3580   64.1290 C   0  0  0  0  0  0  0  0  0  0  0  0
    3.7570   68.4290   64.1100 N   0  0  0  0  0  0  0  0  0  0  0  0
    3.4380   68.8760   65.4280 C   0  0  0  0  0  0  0  0  0  0  0  0
    2.0960   68.8030   65.8520 C   0  0  0  0  0  0  0  0  0  0  0  0
    1.0410   68.1400   64.9960 C   0  0  0  0  0  0  0  0  0  0  0  0
   -0.3910   68.4040   65.4600 C   0  0  0  0  0  0  0  0  0  0  0  0
   -0.5070   68.2250   66.9660 C   0  0  0  0  0  0  0  0  0  0  0  0
    0.3890   69.2330   67.6760 C   0  0  0  0  0  0  0  0  0  0  0  0
    1.7950   69.2670   67.1330 C   0  0  0  0  0  0  0  0  0  0  0  0
    2.7170   69.8210   67.9550 N   0  0  0  0  0  0  0  0  0  0  0  0
    3.9880   69.9110   67.5430 C   0  0  0  0  0  0  0  0  0  0  0  0
    4.4200   69.4570   66.2790 C   0  0  0  0  0  0  0  0  0  0  0  0
    5.7900   69.6050   65.9450 C   0  0  0  0  0  0  0  0  0  0  0  0
    6.6940   70.1840   66.8330 C   0  0  0  0  0  0  0  0  0  0  0  0
    6.2440   70.6220   68.0690 C   0  0  0  0  0  0  0  0  0  0  0  0
    4.9020   70.4850   68.4140 C   0  0  0  0  0  0  0  0  0  0  0  0
    7.3470   71.3370   69.1760 Cl  0  0  0  0  0  0  0  0  0  0  0  0
    2.2698   65.2316   64.2456 H   0  0  0  0  0  0  0  0  0  0  0  0
    3.3895   65.8344   65.5827 H   0  0  0  0  0  0  0  0  0  0  0  0
    2.8918   63.1811   64.8230 H   0  0  0  0  0  0  0  0  0  0  0  0
    4.5675   63.6180   64.2417 H   0  0  0  0  0  0  0  0  0  0  0  0
    5.2715   63.1543   66.2972 H   0  0  0  0  0  0  0  0  0  0  0  0
    4.4418   64.6802   66.7991 H   0  0  0  0  0  0  0  0  0  0  0  0
    2.5513   62.5062   66.7704 H   0  0  0  0  0  0  0  0  0  0  0  0
    2.2665   62.3380   70.0861 H   0  0  0  0  0  0  0  0  0  0  0  0
    1.9716   61.4782   68.5120 H   0  0  0  0  0  0  0  0  0  0  0  0
    2.8434   59.6858   69.5159 H   0  0  0  0  0  0  0  0  0  0  0  0
    4.4400   60.5489   69.2870 H   0  0  0  0  0  0  0  0  0  0  0  0
    4.6169   60.0440   71.4890 H   0  0  0  0  0  0  0  0  0  0  0  0
    3.7250   61.6432   71.5799 H   0  0  0  0  0  0  0  0  0  0  0  0
    3.4472   57.9815   72.5824 H   0  0  0  0  0  0  0  0  0  0  0  0
    1.1678   57.6191   73.7797 H   0  0  0  0  0  0  0  0  0  0  0  0
    1.2334   62.5460   71.5720 H   0  0  0  0  0  0  0  0  0  0  0  0
   -1.0888   62.9702   72.3884 H   0  0  0  0  0  0  0  0  0  0  0  0
   -2.3117   61.2350   73.6700 H   0  0  0  0  0  0  0  0  0  0  0  0
   -1.2344   59.0267   74.1762 H   0  0  0  0  0  0  0  0  0  0  0  0
    4.9693   65.3937   63.2980 H   0  0  0  0  0  0  0  0  0  0  0  0
    3.4642   66.3383   62.8081 H   0  0  0  0  0  0  0  0  0  0  0  0
    5.1249   67.2144   65.1585 H   0  0  0  0  0  0  0  0  0  0  0  0
    5.6048   67.6401   63.4769 H   0  0  0  0  0  0  0  0  0  0  0  0
    3.3335   68.8096   63.2517 H   0  0  0  0  0  0  0  0  0  0  0  0
    1.1456   68.5135   63.9667 H   0  0  0  0  0  0  0  0  0  0  0  0
    1.2053   67.0550   65.0712 H   0  0  0  0  0  0  0  0  0  0  0  0
   -0.6727   69.4339   65.1955 H   0  0  0  0  0  0  0  0  0  0  0  0
   -1.0623   67.6870   64.9648 H   0  0  0  0  0  0  0  0  0  0  0  0
   -1.5511   68.3843   67.2734 H   0  0  0  0  0  0  0  0  0  0  0  0
   -0.1926   67.2060   67.2360 H   0  0  0  0  0  0  0  0  0  0  0  0
   -0.0533   70.2338   67.5629 H   0  0  0  0  0  0  0  0  0  0  0  0
    0.4541   68.9254   68.7301 H   0  0  0  0  0  0  0  0  0  0  0  0
    6.1464   69.2555   64.9648 H   0  0  0  0  0  0  0  0  0  0  0  0
    7.7531   70.2924   66.5565 H   0  0  0  0  0  0  0  0  0  0  0  0
    4.5597   70.8393   69.3975 H   0  0  0  0  0  0  0  0  0  0  0  0
  2  1  1  0
  3  2  1  0
  5  4  2  0
  6  5  1  0
  6  3  1  0
  7  5  1  0
  8  7  1  0
  9  8  1  0
 10  9  1  0
 11 10  2  0
 12 11  1  0
 13 12  1  0
 14 13  2  0
 14 10  1  0
 15 14  1  0
 16 15  2  0
 17 16  1  0
 18 13  1  0
 18 17  2  0
 19  1  1  0
 20 19  1  0
 21 20  1  0
 22 21  1  0
 23 22  1  0
 24 23  1  0
 25 24  1  0
 26 25  1  0
 27 26  1  0
 28 27  1  0
 28 23  2  0
 29 28  1  0
 30 29  2  0
 31 22  2  0
 31 30  1  0
 32 31  1  0
 33 32  2  0
 34 33  1  0
 35 34  2  0
 35 30  1  0
 36 34  1  0
  1 37  1  0
  1 38  1  0
  2 39  1  0
  2 40  1  0
  3 41  1  0
  3 42  1  0
  6 43  1  0
  7 44  1  0
  7 45  1  0
  8 46  1  0
  8 47  1  0
  9 48  1  0
  9 49  1  0
 11 50  1  0
 12 51  1  0
 15 52  1  0
 16 53  1  0
 17 54  1  0
 18 55  1  0
 19 56  1  0
 19 57  1  0
 20 58  1  0
 20 59  1  0
 21 60  1  0
 24 61  1  0
 24 62  1  0
 25 63  1  0
 25 64  1  0
 26 65  1  0
 26 66  1  0
 27 67  1  0
 27 68  1  0
 32 69  1  0
 33 70  1  0
 35 71  1  0
M  END
>  <score>  (7) 
-11.188

$$$$
=
     RDKit          3D

 71 75  0  0  0  0  0  0  0  0999 V2000
    4.6240   64.8470   64.1420 C   0  0  0  0  0  0  0  0  0  0  0  0
    3.7600   63.8340   64.8920 C   0  0  0  0  0  0  0  0  0  0  0  0
    3.5590   64.1780   66.3650 C   0  0  0  0  0  0  0  0  0  0  0  0
    2.7960   63.9350   69.0360 O   0  0  0  0  0  0  0  0  0  0  0  0
    3.5100   63.0680   68.5420 C   0  0  0  0  0  0  0  0  0  0  0  0
    3.8700   63.0450   67.2100 N   0  0  0  0  0  0  0  0  0  0  0  0
    4.0430   61.8970   69.3470 C   0  0  0  0  0  0  0  0  0  0  0  0
    2.9240   60.9960   69.8710 C   0  0  0  0  0  0  0  0  0  0  0  0
    2.7260   61.0730   71.3890 C   0  0  0  0  0  0  0  0  0  0  0  0
    1.3610   61.5130   71.8100 C   0  0  0  0  0  0  0  0  0  0  0  0
    0.7680   62.7240   71.5100 C   0  0  0  0  0  0  0  0  0  0  0  0
   -0.4710   62.7550   72.0880 N   0  0  0  0  0  0  0  0  0  0  0  0
   -0.7070   61.5840   72.7690 C   0  0  0  0  0  0  0  0  0  0  0  0
    0.4160   60.7750   72.5960 C   0  0  0  0  0  0  0  0  0  0  0  0
    0.4220   59.4990   73.1970 C   0  0  0  0  0  0  0  0  0  0  0  0
   -0.6850   59.0850   73.9480 C   0  0  0  0  0  0  0  0  0  0  0  0
   -1.7890   59.9200   74.1030 C   0  0  0  0  0  0  0  0  0  0  0  0
   -1.8220   61.1860   73.5150 C   0  0  0  0  0  0  0  0  0  0  0  0
    3.9850   66.2210   63.9000 C   0  0  0  0  0  0  0  0  0  0  0  0
    4.8380   67.4260   64.3030 C   0  0  0  0  0  0  0  0  0  0  0  0
    4.0330   68.6550   64.2370 N   0  0  0  0  0  0  0  0  0  0  0  0
    3.5170   69.0170   65.5180 C   0  0  0  0  0  0  0  0  0  0  0  0
    4.3950   69.6080   66.4490 C   0  0  0  0  0  0  0  0  0  0  0  0
    5.8080   69.9790   66.0640 C   0  0  0  0  0  0  0  0  0  0  0  0
    6.7040   70.3290   67.2520 C   0  0  0  0  0  0  0  0  0  0  0  0
    5.9790   71.2600   68.2120 C   0  0  0  0  0  0  0  0  0  0  0  0
    4.7430   70.5650   68.7700 C   0  0  0  0  0  0  0  0  0  0  0  0
    3.8830   69.9330   67.7060 C   0  0  0  0  0  0  0  0  0  0  0  0
    2.6090   69.6660   68.0770 N   0  0  0  0  0  0  0  0  0  0  0  0
    1.7810   69.0850   67.2000 C   0  0  0  0  0  0  0  0  0  0  0  0
    2.1750   68.7290   65.8920 C   0  0  0  0  0  0  0  0  0  0  0  0
    1.2170   68.1150   65.0470 C   0  0  0  0  0  0  0  0  0  0  0  0
   -0.0820   67.8640   65.4850 C   0  0  0  0  0  0  0  0  0  0  0  0
   -0.4430   68.2250   66.7740 C   0  0  0  0  0  0  0  0  0  0  0  0
    0.4850   68.8280   67.6190 C   0  0  0  0  0  0  0  0  0  0  0  0
   -2.0420   67.9240   67.3300 Cl  0  0  0  0  0  0  0  0  0  0  0  0
    5.5450   65.0009   64.7234 H   0  0  0  0  0  0  0  0  0  0  0  0
    4.7914   64.4157   63.1440 H   0  0  0  0  0  0  0  0  0  0  0  0
    2.7737   63.7907   64.4068 H   0  0  0  0  0  0  0  0  0  0  0  0
    4.2863   62.8688   64.8540 H   0  0  0  0  0  0  0  0  0  0  0  0
    4.2184   65.0171   66.6315 H   0  0  0  0  0  0  0  0  0  0  0  0
    2.5049   64.4515   66.5200 H   0  0  0  0  0  0  0  0  0  0  0  0
    4.3574   62.2260   66.8194 H   0  0  0  0  0  0  0  0  0  0  0  0
    4.7070   61.2995   68.7051 H   0  0  0  0  0  0  0  0  0  0  0  0
    4.5825   62.3032   70.2153 H   0  0  0  0  0  0  0  0  0  0  0  0
    1.9835   61.2921   69.3833 H   0  0  0  0  0  0  0  0  0  0  0  0
    3.2117   59.9602   69.6380 H   0  0  0  0  0  0  0  0  0  0  0  0
    2.9117   60.0746   71.8117 H   0  0  0  0  0  0  0  0  0  0  0  0
    3.4300   61.8323   71.7603 H   0  0  0  0  0  0  0  0  0  0  0  0
    1.2167   63.5278   70.9078 H   0  0  0  0  0  0  0  0  0  0  0  0
   -1.1321   63.5421   72.0226 H   0  0  0  0  0  0  0  0  0  0  0  0
    1.2899   58.8340   73.0767 H   0  0  0  0  0  0  0  0  0  0  0  0
   -0.6827   58.0913   74.4198 H   0  0  0  0  0  0  0  0  0  0  0  0
   -2.6482   59.5767   74.6979 H   0  0  0  0  0  0  0  0  0  0  0  0
   -2.6933   61.8468   73.6339 H   0  0  0  0  0  0  0  0  0  0  0  0
    3.7634   66.3070   62.8260 H   0  0  0  0  0  0  0  0  0  0  0  0
    3.0923   66.2555   64.5418 H   0  0  0  0  0  0  0  0  0  0  0  0
    5.2052   67.2855   65.3303 H   0  0  0  0  0  0  0  0  0  0  0  0
    5.6894   67.5138   63.6120 H   0  0  0  0  0  0  0  0  0  0  0  0
    3.8624   69.1889   63.3729 H   0  0  0  0  0  0  0  0  0  0  0  0
    6.2565   69.1273   65.5315 H   0  0  0  0  0  0  0  0  0  0  0  0
    5.7412   70.8815   65.4387 H   0  0  0  0  0  0  0  0  0  0  0  0
    6.9789   69.4053   67.7823 H   0  0  0  0  0  0  0  0  0  0  0  0
    7.6062   70.8359   66.8791 H   0  0  0  0  0  0  0  0  0  0  0  0
    6.6524   71.5278   69.0396 H   0  0  0  0  0  0  0  0  0  0  0  0
    5.6728   72.1695   67.6744 H   0  0  0  0  0  0  0  0  0  0  0  0
    5.0692   69.7794   69.4675 H   0  0  0  0  0  0  0  0  0  0  0  0
    4.1335   71.3339   69.2673 H   0  0  0  0  0  0  0  0  0  0  0  0
    1.5048   67.8306   64.0241 H   0  0  0  0  0  0  0  0  0  0  0  0
   -0.8122   67.3852   64.8160 H   0  0  0  0  0  0  0  0  0  0  0  0
    0.1835   69.1060   68.6397 H   0  0  0  0  0  0  0  0  0  0  0  0
  2  1  1  0
  3  2  1  0
  5  4  2  0
  6  5  1  0
  6  3  1  0
  7  5  1  0
  8  7  1  0
  9  8  1  0
 10  9  1  0
 11 10  2  0
 12 11  1  0
 13 12  1  0
 14 13  2  0
 14 10  1  0
 15 14  1  0
 16 15  2  0
 17 16  1  0
 18 13  1  0
 18 17  2  0
 19  1  1  0
 20 19  1  0
 21 20  1  0
 22 21  1  0
 23 22  1  0
 24 23  1  0
 25 24  1  0
 26 25  1  0
 27 26  1  0
 28 27  1  0
 28 23  2  0
 29 28  1  0
 30 29  2  0
 31 22  2  0
 31 30  1  0
 32 31  1  0
 33 32  2  0
 34 33  1  0
 35 34  2  0
 35 30  1  0
 36 34  1  0
  1 37  1  0
  1 38  1  0
  2 39  1  0
  2 40  1  0
  3 41  1  0
  3 42  1  0
  6 43  1  0
  7 44  1  0
  7 45  1  0
  8 46  1  0
  8 47  1  0
  9 48  1  0
  9 49  1  0
 11 50  1  0
 12 51  1  0
 15 52  1  0
 16 53  1  0
 17 54  1  0
 18 55  1  0
 19 56  1  0
 19 57  1  0
 20 58  1  0
 20 59  1  0
 21 60  1  0
 24 61  1  0
 24 62  1  0
 25 63  1  0
 25 64  1  0
 26 65  1  0
 26 66  1  0
 27 67  1  0
 27 68  1  0
 32 69  1  0
 33 70  1  0
 35 71  1  0
M  END
>  <score>  (8) 
-11.084

$$$$
=
     RDKit          3D

 71 75  0  0  0  0  0  0  0  0999 V2000
    0.2500   65.9190   70.2950 C   0  0  0  0  0  0  0  0  0  0  0  0
    0.9380   64.5760   70.0500 C   0  0  0  0  0  0  0  0  0  0  0  0
    2.3660   64.5180   70.5820 C   0  0  0  0  0  0  0  0  0  0  0  0
    3.3670   63.2760   68.2940 O   0  0  0  0  0  0  0  0  0  0  0  0
    3.2790   62.6270   69.3320 C   0  0  0  0  0  0  0  0  0  0  0  0
    2.8840   63.1670   70.5370 N   0  0  0  0  0  0  0  0  0  0  0  0
    3.6400   61.1540   69.4020 C   0  0  0  0  0  0  0  0  0  0  0  0
    3.7670   60.6560   70.8420 C   0  0  0  0  0  0  0  0  0  0  0  0
    2.9300   59.4070   71.1420 C   0  0  0  0  0  0  0  0  0  0  0  0
    3.0870   58.8810   72.5320 C   0  0  0  0  0  0  0  0  0  0  0  0
    4.0980   59.2060   73.4160 C   0  0  0  0  0  0  0  0  0  0  0  0
    3.9010   58.5080   74.5750 N   0  0  0  0  0  0  0  0  0  0  0  0
    2.7780   57.7220   74.4720 C   0  0  0  0  0  0  0  0  0  0  0  0
    2.2320   57.9500   73.2080 C   0  0  0  0  0  0  0  0  0  0  0  0
    1.0540   57.2610   72.8530 C   0  0  0  0  0  0  0  0  0  0  0  0
    0.4730   56.3720   73.7640 C   0  0  0  0  0  0  0  0  0  0  0  0
    1.0460   56.1650   75.0170 C   0  0  0  0  0  0  0  0  0  0  0  0
    2.2090   56.8380   75.3960 C   0  0  0  0  0  0  0  0  0  0  0  0
    0.2720   66.9050   69.1200 C   0  0  0  0  0  0  0  0  0  0  0  0
    1.5480   67.7390   68.9820 C   0  0  0  0  0  0  0  0  0  0  0  0
    1.2920   68.9100   68.1300 N   0  0  0  0  0  0  0  0  0  0  0  0
    2.4040   69.1970   67.2810 C   0  0  0  0  0  0  0  0  0  0  0  0
    2.3050   68.8640   65.9150 C   0  0  0  0  0  0  0  0  0  0  0  0
    1.0120   68.3470   65.3280 C   0  0  0  0  0  0  0  0  0  0  0  0
    1.1580   67.7630   63.9230 C   0  0  0  0  0  0  0  0  0  0  0  0
    1.9980   68.6790   63.0480 C   0  0  0  0  0  0  0  0  0  0  0  0
    3.4010   68.8050   63.6300 C   0  0  0  0  0  0  0  0  0  0  0  0
    3.4090   69.1270   65.1030 C   0  0  0  0  0  0  0  0  0  0  0  0
    4.5700   69.6380   65.5750 N   0  0  0  0  0  0  0  0  0  0  0  0
    4.6710   69.9340   66.8770 C   0  0  0  0  0  0  0  0  0  0  0  0
    3.6180   69.7340   67.7940 C   0  0  0  0  0  0  0  0  0  0  0  0
    3.8350   70.0800   69.1520 C   0  0  0  0  0  0  0  0  0  0  0  0
    5.0540   70.6020   69.5810 C   0  0  0  0  0  0  0  0  0  0  0  0
    6.0720   70.7900   68.6580 C   0  0  0  0  0  0  0  0  0  0  0  0
    5.8770   70.4560   67.3210 C   0  0  0  0  0  0  0  0  0  0  0  0
    7.5810   71.4350   69.1710 Cl  0  0  0  0  0  0  0  0  0  0  0  0
   -0.8017   65.7183   70.5474 H   0  0  0  0  0  0  0  0  0  0  0  0
    0.8194   66.4034   71.1019 H   0  0  0  0  0  0  0  0  0  0  0  0
    0.3501   63.7884   70.5441 H   0  0  0  0  0  0  0  0  0  0  0  0
    0.9926   64.4345   68.9605 H   0  0  0  0  0  0  0  0  0  0  0  0
    3.0052   65.1686   69.9671 H   0  0  0  0  0  0  0  0  0  0  0  0
    2.3632   64.8566   71.6286 H   0  0  0  0  0  0  0  0  0  0  0  0
    2.9570   62.6118   71.4015 H   0  0  0  0  0  0  0  0  0  0  0  0
    2.8558   60.5730   68.8945 H   0  0  0  0  0  0  0  0  0  0  0  0
    4.6166   61.0230   68.9130 H   0  0  0  0  0  0  0  0  0  0  0  0
    4.8238   60.4196   71.0351 H   0  0  0  0  0  0  0  0  0  0  0  0
    3.3888   61.4584   71.4925 H   0  0  0  0  0  0  0  0  0  0  0  0
    1.8702   59.6568   70.9858 H   0  0  0  0  0  0  0  0  0  0  0  0
    3.2875   58.6178   70.4642 H   0  0  0  0  0  0  0  0  0  0  0  0
    4.9221   59.9078   73.2203 H   0  0  0  0  0  0  0  0  0  0  0  0
    4.5070   58.5632   75.4060 H   0  0  0  0  0  0  0  0  0  0  0  0
    0.5948   57.4214   71.8664 H   0  0  0  0  0  0  0  0  0  0  0  0
   -0.4446   55.8316   73.4884 H   0  0  0  0  0  0  0  0  0  0  0  0
    0.5749   55.4606   75.7183 H   0  0  0  0  0  0  0  0  0  0  0  0
    2.6621   56.6791   76.3857 H   0  0  0  0  0  0  0  0  0  0  0  0
    0.1419   66.3289   68.1920 H   0  0  0  0  0  0  0  0  0  0  0  0
   -0.5382   67.6233   69.3140 H   0  0  0  0  0  0  0  0  0  0  0  0
    1.8725   68.0764   69.9774 H   0  0  0  0  0  0  0  0  0  0  0  0
    2.3351   67.1227   68.5229 H   0  0  0  0  0  0  0  0  0  0  0  0
    0.4186   69.4558   68.1439 H   0  0  0  0  0  0  0  0  0  0  0  0
    0.6210   67.5609   65.9907 H   0  0  0  0  0  0  0  0  0  0  0  0
    0.3323   69.2080   65.2462 H   0  0  0  0  0  0  0  0  0  0  0  0
    1.6455   66.7792   63.9892 H   0  0  0  0  0  0  0  0  0  0  0  0
    0.1585   67.6627   63.4748 H   0  0  0  0  0  0  0  0  0  0  0  0
    2.0599   68.2589   62.0333 H   0  0  0  0  0  0  0  0  0  0  0  0
    1.5301   69.6738   63.0093 H   0  0  0  0  0  0  0  0  0  0  0  0
    3.9289   67.8520   63.4781 H   0  0  0  0  0  0  0  0  0  0  0  0
    3.8951   69.6398   63.1114 H   0  0  0  0  0  0  0  0  0  0  0  0
    3.0249   69.9334   69.8815 H   0  0  0  0  0  0  0  0  0  0  0  0
    5.2069   70.8618   70.6389 H   0  0  0  0  0  0  0  0  0  0  0  0
    6.6955   70.6090   66.6022 H   0  0  0  0  0  0  0  0  0  0  0  0
  2  1  1  0
  3  2  1  0
  5  4  2  0
  6  5  1  0
  6  3  1  0
  7  5  1  0
  8  7  1  0
  9  8  1  0
 10  9  1  0
 11 10  2  0
 12 11  1  0
 13 12  1  0
 14 13  2  0
 14 10  1  0
 15 14  1  0
 16 15  2  0
 17 16  1  0
 18 13  1  0
 18 17  2  0
 19  1  1  0
 20 19  1  0
 21 20  1  0
 22 21  1  0
 23 22  1  0
 24 23  1  0
 25 24  1  0
 26 25  1  0
 27 26  1  0
 28 27  1  0
 28 23  2  0
 29 28  1  0
 30 29  2  0
 31 22  2  0
 31 30  1  0
 32 31  1  0
 33 32  2  0
 34 33  1  0
 35 34  2  0
 35 30  1  0
 36 34  1  0
  1 37  1  0
  1 38  1  0
  2 39  1  0
  2 40  1  0
  3 41  1  0
  3 42  1  0
  6 43  1  0
  7 44  1  0
  7 45  1  0
  8 46  1  0
  8 47  1  0
  9 48  1  0
  9 49  1  0
 11 50  1  0
 12 51  1  0
 15 52  1  0
 16 53  1  0
 17 54  1  0
 18 55  1  0
 19 56  1  0
 19 57  1  0
 20 58  1  0
 20 59  1  0
 21 60  1  0
 24 61  1  0
 24 62  1  0
 25 63  1  0
 25 64  1  0
 26 65  1  0
 26 66  1  0
 27 67  1  0
 27 68  1  0
 32 69  1  0
 33 70  1  0
 35 71  1  0
M  END
>  <score>  (9) 
-10.876

$$$$
