=
     RDKit          3D

 85 90  0  0  0  0  0  0  0  0999 V2000
    3.5230   59.2320   71.2130 C   0  0  0  0  0  0  0  0  0  0  0  0
    3.2940   57.8700   71.0270 C   0  0  0  0  0  0  0  0  0  0  0  0
    2.3080   57.1980   71.7680 C   0  0  0  0  0  0  0  0  0  0  0  0
    1.5410   57.9100   72.7080 C   0  0  0  0  0  0  0  0  0  0  0  0
    1.7880   59.2720   72.8790 C   0  0  0  0  0  0  0  0  0  0  0  0
    2.7690   59.9520   72.1480 C   0  0  0  0  0  0  0  0  0  0  0  0
    0.9290   59.7390   73.8490 N   0  0  0  0  0  0  0  0  0  0  0  0
    0.1170   58.7200   74.2740 C   0  0  0  0  0  0  0  0  0  0  0  0
    0.4960   57.5670   73.6070 C   0  0  0  0  0  0  0  0  0  0  0  0
   -0.1590   56.2450   73.8500 C   0  0  0  0  0  0  0  0  0  0  0  0
   -1.0950   56.2960   75.0800 C   0  0  0  0  0  0  0  0  0  0  0  0
   -1.8620   57.6140   75.0950 N   0  0  2  0  0  4  0  0  0  0  0  0
   -0.9250   58.7860   75.3350 C   0  0  2  0  0  0  0  0  0  0  0  0
   -1.7240   60.0950   75.4420 C   0  0  0  0  0  0  0  0  0  0  0  0
   -3.1890   60.0180   74.9620 C   0  0  1  0  0  0  0  0  0  0  0  0
   -3.9630   58.7740   75.4840 C   0  0  1  0  0  0  0  0  0  0  0  0
   -3.0430   57.6680   76.0080 C   0  0  0  0  0  0  0  0  0  0  0  0
   -5.0500   59.1180   76.5000 C   0  0  0  0  0  0  0  0  0  0  0  0
   -6.0760   60.1440   75.9720 C   0  0  2  0  0  0  0  0  0  0  0  0
   -5.4960   61.1000   74.8970 C   0  0  1  0  0  0  0  0  0  0  0  0
   -3.9930   61.3460   75.1090 C   0  0  1  0  0  0  0  0  0  0  0  0
    5.2640   60.8550   71.3350 C   0  0  0  0  0  0  0  0  0  0  0  0
    4.4550   59.9860   70.5500 O   0  0  0  0  0  0  0  0  0  0  0  0
   -3.7970   62.1060   76.4130 C   0  0  0  0  0  0  0  0  0  0  0  0
   -3.2590   61.6480   77.4100 O   0  0  0  0  0  0  0  0  0  0  0  0
   -4.3060   63.3630   76.3080 O   0  0  0  0  0  0  0  0  0  0  0  0
   -3.4840   64.3790   76.8910 C   0  0  0  0  0  0  0  0  0  0  0  0
   -5.6370   60.5170   73.5880 O   0  0  0  0  0  0  0  0  0  0  0  0
   -6.9980   60.3300   73.2080 C   0  0  0  0  0  0  0  0  0  0  0  0
   -6.5500   60.9650   77.0630 O   0  0  0  0  0  0  0  0  0  0  0  0
   -7.8820   61.2270   77.0840 C   0  0  0  0  0  0  0  0  0  0  0  0
   -8.7460   60.4820   77.5150 O   0  0  0  0  0  0  0  0  0  0  0  0
   -8.1460   62.5880   76.5510 C   0  0  0  0  0  0  0  0  0  0  0  0
   -8.7710   62.6910   75.2990 C   0  0  0  0  0  0  0  0  0  0  0  0
   -9.0690   63.9450   74.7660 C   0  0  0  0  0  0  0  0  0  0  0  0
   -8.7070   65.0950   75.4920 C   0  0  0  0  0  0  0  0  0  0  0  0
   -8.0640   65.0030   76.7380 C   0  0  0  0  0  0  0  0  0  0  0  0
   -7.7870   63.7420   77.2660 C   0  0  0  0  0  0  0  0  0  0  0  0
   -9.6970   64.1590   73.5680 O   0  0  0  0  0  0  0  0  0  0  0  0
   -8.9580   63.9160   72.3790 C   0  0  0  0  0  0  0  0  0  0  0  0
   -7.7720   66.1880   77.3610 O   0  0  0  0  0  0  0  0  0  0  0  0
   -6.4200   66.6270   77.3370 C   0  0  0  0  0  0  0  0  0  0  0  0
   -9.0480   66.3370   75.0050 O   0  0  0  0  0  0  0  0  0  0  0  0
  -10.3410   66.7120   75.4770 C   0  0  0  0  0  0  0  0  0  0  0  0
    3.8930   57.3142   70.2906 H   0  0  0  0  0  0  0  0  0  0  0  0
    2.1368   56.1223   71.6143 H   0  0  0  0  0  0  0  0  0  0  0  0
    2.9436   61.0268   72.3043 H   0  0  0  0  0  0  0  0  0  0  0  0
    0.9011   60.7065   74.2013 H   0  0  0  0  0  0  0  0  0  0  0  0
   -0.7484   55.9693   72.9631 H   0  0  0  0  0  0  0  0  0  0  0  0
    0.6268   55.5000   74.0439 H   0  0  0  0  0  0  0  0  0  0  0  0
   -1.8079   55.4598   75.0306 H   0  0  0  0  0  0  0  0  0  0  0  0
   -0.4924   56.2175   75.9969 H   0  0  0  0  0  0  0  0  0  0  0  0
   -2.2705   57.6846   74.1521 H   0  0  0  0  0  0  0  0  0  0  0  0
   -0.3992   58.7428   76.3002 H   0  0  0  0  0  0  0  0  0  0  0  0
   -1.7286   60.4044   76.4976 H   0  0  0  0  0  0  0  0  0  0  0  0
   -1.2234   60.8109   74.7735 H   0  0  0  0  0  0  0  0  0  0  0  0
   -3.0950   59.8690   73.8762 H   0  0  0  0  0  0  0  0  0  0  0  0
   -4.4741   58.3739   74.5959 H   0  0  0  0  0  0  0  0  0  0  0  0
   -2.7180   57.9008   77.0328 H   0  0  0  0  0  0  0  0  0  0  0  0
   -3.5658   56.7005   76.0315 H   0  0  0  0  0  0  0  0  0  0  0  0
   -5.5849   58.1942   76.7655 H   0  0  0  0  0  0  0  0  0  0  0  0
   -4.5519   59.5726   77.3691 H   0  0  0  0  0  0  0  0  0  0  0  0
   -6.8829   59.5535   75.5134 H   0  0  0  0  0  0  0  0  0  0  0  0
   -6.0512   62.0457   74.9829 H   0  0  0  0  0  0  0  0  0  0  0  0
   -3.5737   61.9909   74.3227 H   0  0  0  0  0  0  0  0  0  0  0  0
    5.0827   60.6602   72.4023 H   0  0  0  0  0  0  0  0  0  0  0  0
    6.3247   60.6762   71.1047 H   0  0  0  0  0  0  0  0  0  0  0  0
    5.0099   61.9002   71.1047 H   0  0  0  0  0  0  0  0  0  0  0  0
   -3.5391   64.3109   77.9875 H   0  0  0  0  0  0  0  0  0  0  0  0
   -2.4423   64.2386   76.5668 H   0  0  0  0  0  0  0  0  0  0  0  0
   -3.8387   65.3685   76.5668 H   0  0  0  0  0  0  0  0  0  0  0  0
   -7.6220   60.2443   74.1098 H   0  0  0  0  0  0  0  0  0  0  0  0
   -7.3334   61.1905   72.6105 H   0  0  0  0  0  0  0  0  0  0  0  0
   -7.0889   59.4109   72.6105 H   0  0  0  0  0  0  0  0  0  0  0  0
   -9.0265   61.7808   74.7366 H   0  0  0  0  0  0  0  0  0  0  0  0
   -7.2876   63.6516   78.2419 H   0  0  0  0  0  0  0  0  0  0  0  0
   -7.9429   63.5822   72.6400 H   0  0  0  0  0  0  0  0  0  0  0  0
   -9.4601   63.1356   71.7883 H   0  0  0  0  0  0  0  0  0  0  0  0
   -8.8990   64.8420   71.7883 H   0  0  0  0  0  0  0  0  0  0  0  0
   -6.0547   66.7456   78.3678 H   0  0  0  0  0  0  0  0  0  0  0  0
   -5.8023   65.8833   76.8123 H   0  0  0  0  0  0  0  0  0  0  0  0
   -6.3570   67.5918   76.8123 H   0  0  0  0  0  0  0  0  0  0  0  0
  -10.3438   66.7128   76.5770 H   0  0  0  0  0  0  0  0  0  0  0  0
  -10.5879   67.7188   75.1090 H   0  0  0  0  0  0  0  0  0  0  0  0
  -11.0883   65.9936   75.1090 H   0  0  0  0  0  0  0  0  0  0  0  0
  2  1  2  0
  3  2  1  0
  4  3  2  0
  5  4  1  0
  6  5  2  0
  6  1  1  0
  7  5  1  0
  8  7  1  0
  9  8  2  0
  9  4  1  0
 10  9  1  0
 11 10  1  0
 12 11  1  0
 13 12  1  0
 13  8  1  0
 14 13  1  0
 15 14  1  0
 16 15  1  0
 17 16  1  0
 17 12  1  0
 18 16  1  0
 19 18  1  0
 20 19  1  0
 21 20  1  0
 21 15  1  0
 23  1  1  0
 23 22  1  0
 24 21  1  0
 25 24  2  0
 26 24  1  0
 27 26  1  0
 28 20  1  0
 29 28  1  0
 30 19  1  0
 31 30  1  0
 32 31  2  0
 33 31  1  0
 34 33  2  0
 35 34  1  0
 36 35  2  0
 37 36  1  0
 38 37  2  0
 38 33  1  0
 39 35  1  0
 40 39  1  0
 41 37  1  0
 42 41  1  0
 43 36  1  0
 44 43  1  0
  2 45  1  0
  3 46  1  0
  6 47  1  0
  7 48  1  0
 10 49  1  0
 10 50  1  0
 11 51  1  0
 11 52  1  0
 12 53  1  6
 13 54  1  1
 14 55  1  0
 14 56  1  0
 15 57  1  6
 16 58  1  6
 17 59  1  0
 17 60  1  0
 18 61  1  0
 18 62  1  0
 19 63  1  6
 20 64  1  6
 21 65  1  6
 22 66  1  0
 22 67  1  0
 22 68  1  0
 27 69  1  0
 27 70  1  0
 27 71  1  0
 29 72  1  0
 29 73  1  0
 29 74  1  0
 34 75  1  0
 38 76  1  0
 40 77  1  0
 40 78  1  0
 40 79  1  0
 42 80  1  0
 42 81  1  0
 42 82  1  0
 44 83  1  0
 44 84  1  0
 44 85  1  0
M  CHG  1  12   1
M  END
>  <score>  (1) 
-6.945

$$$$
=
     RDKit          3D

 85 90  0  0  0  0  0  0  0  0999 V2000
   -8.9370   64.9790   73.8350 C   0  0  0  0  0  0  0  0  0  0  0  0
   -8.5050   66.2070   74.3320 C   0  0  0  0  0  0  0  0  0  0  0  0
   -7.3030   66.3110   75.0510 C   0  0  0  0  0  0  0  0  0  0  0  0
   -6.5240   65.1600   75.2710 C   0  0  0  0  0  0  0  0  0  0  0  0
   -6.9760   63.9410   74.7650 C   0  0  0  0  0  0  0  0  0  0  0  0
   -8.1740   63.8250   74.0490 C   0  0  0  0  0  0  0  0  0  0  0  0
   -6.0600   62.9730   75.1140 N   0  0  0  0  0  0  0  0  0  0  0  0
   -5.0190   63.5480   75.7950 C   0  0  0  0  0  0  0  0  0  0  0  0
   -5.2960   64.8990   75.9350 C   0  0  0  0  0  0  0  0  0  0  0  0
   -4.3850   65.8360   76.6610 C   0  0  0  0  0  0  0  0  0  0  0  0
   -3.2760   65.0710   77.4200 C   0  0  0  0  0  0  0  0  0  0  0  0
   -2.7640   63.9160   76.5650 N   0  0  2  0  0  4  0  0  0  0  0  0
   -3.8390   62.8570   76.3810 C   0  0  2  0  0  0  0  0  0  0  0  0
   -3.2780   61.6580   75.5990 C   0  0  0  0  0  0  0  0  0  0  0  0
   -1.9280   61.9010   74.8930 C   0  0  1  0  0  0  0  0  0  0  0  0
   -0.8670   62.6140   75.7780 C   0  0  1  0  0  0  0  0  0  0  0  0
   -1.4720   63.3070   77.0030 C   0  0  0  0  0  0  0  0  0  0  0  0
    0.3010   61.7120   76.1730 C   0  0  0  0  0  0  0  0  0  0  0  0
    1.0210   61.0820   74.9620 C   0  0  2  0  0  0  0  0  0  0  0  0
    0.1050   60.9000   73.7240 C   0  0  1  0  0  0  0  0  0  0  0  0
   -1.3590   60.6640   74.1330 C   0  0  1  0  0  0  0  0  0  0  0  0
  -10.4490   65.7420   72.1590 C   0  0  0  0  0  0  0  0  0  0  0  0
  -10.0870   64.7610   73.1250 O   0  0  0  0  0  0  0  0  0  0  0  0
   -1.4590   59.3290   74.8560 C   0  0  0  0  0  0  0  0  0  0  0  0
   -1.7890   59.1970   76.0260 O   0  0  0  0  0  0  0  0  0  0  0  0
   -1.1300   58.3100   74.0180 O   0  0  0  0  0  0  0  0  0  0  0  0
   -0.6740   57.1280   74.6810 C   0  0  0  0  0  0  0  0  0  0  0  0
    0.1190   62.0930   72.9170 O   0  0  0  0  0  0  0  0  0  0  0  0
    1.0080   61.9990   71.8060 C   0  0  0  0  0  0  0  0  0  0  0  0
    1.5230   59.7750   75.3180 O   0  0  0  0  0  0  0  0  0  0  0  0
    2.8710   59.6170   75.2840 C   0  0  0  0  0  0  0  0  0  0  0  0
    3.5870   59.4160   76.2510 O   0  0  0  0  0  0  0  0  0  0  0  0
    3.3590   59.6710   73.8820 C   0  0  0  0  0  0  0  0  0  0  0  0
    2.9220   58.6740   72.9980 C   0  0  0  0  0  0  0  0  0  0  0  0
    3.3260   58.6940   71.6630 C   0  0  0  0  0  0  0  0  0  0  0  0
    4.1970   59.7120   71.2340 C   0  0  0  0  0  0  0  0  0  0  0  0
    4.6550   60.7060   72.1150 C   0  0  0  0  0  0  0  0  0  0  0  0
    4.2290   60.6820   73.4440 C   0  0  0  0  0  0  0  0  0  0  0  0
    2.9410   57.7860   70.7140 O   0  0  0  0  0  0  0  0  0  0  0  0
    3.0810   56.4050   71.0200 C   0  0  0  0  0  0  0  0  0  0  0  0
    5.4880   61.6560   71.5830 O   0  0  0  0  0  0  0  0  0  0  0  0
    4.9190   62.9160   71.2530 C   0  0  0  0  0  0  0  0  0  0  0  0
    4.5560   59.7780   69.9060 O   0  0  0  0  0  0  0  0  0  0  0  0
    3.5480   60.4550   69.1570 C   0  0  0  0  0  0  0  0  0  0  0  0
   -9.1135   67.1069   74.1589 H   0  0  0  0  0  0  0  0  0  0  0  0
   -6.9728   67.2857   75.4395 H   0  0  0  0  0  0  0  0  0  0  0  0
   -8.5075   62.8501   73.6639 H   0  0  0  0  0  0  0  0  0  0  0  0
   -6.1447   61.9698   74.8963 H   0  0  0  0  0  0  0  0  0  0  0  0
   -3.9172   66.5156   75.9335 H   0  0  0  0  0  0  0  0  0  0  0  0
   -4.9809   66.3990   77.3944 H   0  0  0  0  0  0  0  0  0  0  0  0
   -2.4453   65.7573   77.6412 H   0  0  0  0  0  0  0  0  0  0  0  0
   -3.6884   64.6720   78.3585 H   0  0  0  0  0  0  0  0  0  0  0  0
   -2.5431   64.3468   75.6559 H   0  0  0  0  0  0  0  0  0  0  0  0
   -4.1749   62.3977   77.3224 H   0  0  0  0  0  0  0  0  0  0  0  0
   -3.1467   60.8243   76.3045 H   0  0  0  0  0  0  0  0  0  0  0  0
   -4.0048   61.4509   74.7997 H   0  0  0  0  0  0  0  0  0  0  0  0
   -2.1805   62.6226   74.1021 H   0  0  0  0  0  0  0  0  0  0  0  0
   -0.4537   63.4024   75.1318 H   0  0  0  0  0  0  0  0  0  0  0  0
   -1.6519   62.5729   77.8022 H   0  0  0  0  0  0  0  0  0  0  0  0
   -0.7896   64.0742   77.3976 H   0  0  0  0  0  0  0  0  0  0  0  0
    1.0291   62.3112   76.7394 H   0  0  0  0  0  0  0  0  0  0  0  0
   -0.1119   60.8872   76.7724 H   0  0  0  0  0  0  0  0  0  0  0  0
    1.8285   61.7804   74.6972 H   0  0  0  0  0  0  0  0  0  0  0  0
    0.4905   60.0307   73.1710 H   0  0  0  0  0  0  0  0  0  0  0  0
   -2.0158   60.5767   73.2549 H   0  0  0  0  0  0  0  0  0  0  0  0
  -10.7859   66.6549   72.6720 H   0  0  0  0  0  0  0  0  0  0  0  0
   -9.5778   65.9755   71.5293 H   0  0  0  0  0  0  0  0  0  0  0  0
  -11.2630   65.3536   71.5293 H   0  0  0  0  0  0  0  0  0  0  0  0
   -0.7301   57.2735   75.7699 H   0  0  0  0  0  0  0  0  0  0  0  0
   -1.3085   56.2773   74.3916 H   0  0  0  0  0  0  0  0  0  0  0  0
    0.3674   56.9239   74.3916 H   0  0  0  0  0  0  0  0  0  0  0  0
    2.0401   61.8899   72.1705 H   0  0  0  0  0  0  0  0  0  0  0  0
    0.7404   61.1241   71.1953 H   0  0  0  0  0  0  0  0  0  0  0  0
    0.9293   62.9105   71.1953 H   0  0  0  0  0  0  0  0  0  0  0  0
    2.2587   57.8739   73.3583 H   0  0  0  0  0  0  0  0  0  0  0  0
    4.5745   61.4542   74.1472 H   0  0  0  0  0  0  0  0  0  0  0  0
    3.0946   56.2709   72.1117 H   0  0  0  0  0  0  0  0  0  0  0  0
    2.2348   55.8471   70.5925 H   0  0  0  0  0  0  0  0  0  0  0  0
    4.0219   56.0283   70.5925 H   0  0  0  0  0  0  0  0  0  0  0  0
    4.6731   63.4605   72.1766 H   0  0  0  0  0  0  0  0  0  0  0  0
    5.6403   63.5010   70.6635 H   0  0  0  0  0  0  0  0  0  0  0  0
    4.0032   62.7617   70.6635 H   0  0  0  0  0  0  0  0  0  0  0  0
    2.8369   60.9326   69.8472 H   0  0  0  0  0  0  0  0  0  0  0  0
    4.0157   61.2228   68.5232 H   0  0  0  0  0  0  0  0  0  0  0  0
    3.0142   59.7316   68.5232 H   0  0  0  0  0  0  0  0  0  0  0  0
  2  1  2  0
  3  2  1  0
  4  3  2  0
  5  4  1  0
  6  5  2  0
  6  1  1  0
  7  5  1  0
  8  7  1  0
  9  8  2  0
  9  4  1  0
 10  9  1  0
 11 10  1  0
 12 11  1  0
 13 12  1  0
 13  8  1  0
 14 13  1  0
 15 14  1  0
 16 15  1  0
 17 16  1  0
 17 12  1  0
 18 16  1  0
 19 18  1  0
 20 19  1  0
 21 20  1  0
 21 15  1  0
 23  1  1  0
 23 22  1  0
 24 21  1  0
 25 24  2  0
 26 24  1  0
 27 26  1  0
 28 20  1  0
 29 28  1  0
 30 19  1  0
 31 30  1  0
 32 31  2  0
 33 31  1  0
 34 33  2  0
 35 34  1  0
 36 35  2  0
 37 36  1  0
 38 37  2  0
 38 33  1  0
 39 35  1  0
 40 39  1  0
 41 37  1  0
 42 41  1  0
 43 36  1  0
 44 43  1  0
  2 45  1  0
  3 46  1  0
  6 47  1  0
  7 48  1  0
 10 49  1  0
 10 50  1  0
 11 51  1  0
 11 52  1  0
 12 53  1  6
 13 54  1  1
 14 55  1  0
 14 56  1  0
 15 57  1  6
 16 58  1  6
 17 59  1  0
 17 60  1  0
 18 61  1  0
 18 62  1  0
 19 63  1  6
 20 64  1  6
 21 65  1  6
 22 66  1  0
 22 67  1  0
 22 68  1  0
 27 69  1  0
 27 70  1  0
 27 71  1  0
 29 72  1  0
 29 73  1  0
 29 74  1  0
 34 75  1  0
 38 76  1  0
 40 77  1  0
 40 78  1  0
 40 79  1  0
 42 80  1  0
 42 81  1  0
 42 82  1  0
 44 83  1  0
 44 84  1  0
 44 85  1  0
M  CHG  1  12   1
M  END
>  <score>  (2) 
-6.913

$$$$
=
     RDKit          3D

 85 90  0  0  0  0  0  0  0  0999 V2000
    3.1570   60.1850   70.7020 C   0  0  0  0  0  0  0  0  0  0  0  0
    3.4250   58.8240   70.8360 C   0  0  0  0  0  0  0  0  0  0  0  0
    2.7580   58.0490   71.7990 C   0  0  0  0  0  0  0  0  0  0  0  0
    1.8040   58.6550   72.6380 C   0  0  0  0  0  0  0  0  0  0  0  0
    1.5530   60.0190   72.4870 C   0  0  0  0  0  0  0  0  0  0  0  0
    2.2130   60.8020   71.5320 C   0  0  0  0  0  0  0  0  0  0  0  0
    0.6010   60.3780   73.4170 N   0  0  0  0  0  0  0  0  0  0  0  0
    0.2140   59.2740   74.1290 C   0  0  0  0  0  0  0  0  0  0  0  0
    0.9670   58.1970   73.6900 C   0  0  0  0  0  0  0  0  0  0  0  0
    0.8320   56.8280   74.2750 C   0  0  0  0  0  0  0  0  0  0  0  0
   -0.0380   56.8430   75.5540 C   0  0  0  0  0  0  0  0  0  0  0  0
   -1.2250   57.7830   75.3630 N   0  0  2  0  0  4  0  0  0  0  0  0
   -0.7630   59.2270   75.2510 C   0  0  2  0  0  0  0  0  0  0  0  0
   -1.9750   60.1680   75.1550 C   0  0  0  0  0  0  0  0  0  0  0  0
   -3.3240   59.4820   74.8530 C   0  0  1  0  0  0  0  0  0  0  0  0
   -3.5940   58.2090   75.7040 C   0  0  1  0  0  0  0  0  0  0  0  0
   -2.3300   57.6420   76.3580 C   0  0  0  0  0  0  0  0  0  0  0  0
   -4.7140   58.3890   76.7270 C   0  0  0  0  0  0  0  0  0  0  0  0
   -6.0470   58.8460   76.0980 C   0  0  2  0  0  0  0  0  0  0  0  0
   -5.8660   59.6600   74.7900 C   0  0  1  0  0  0  0  0  0  0  0  0
   -4.5460   60.4490   74.7930 C   0  0  1  0  0  0  0  0  0  0  0  0
    2.9000   61.9740   69.1490 C   0  0  0  0  0  0  0  0  0  0  0  0
    3.7460   61.0330   69.8030 O   0  0  0  0  0  0  0  0  0  0  0  0
   -4.6110   61.5150   75.8760 C   0  0  0  0  0  0  0  0  0  0  0  0
   -3.9920   61.4730   76.9290 O   0  0  0  0  0  0  0  0  0  0  0  0
   -5.4540   62.5160   75.5060 O   0  0  0  0  0  0  0  0  0  0  0  0
   -5.0820   63.8080   75.9940 C   0  0  0  0  0  0  0  0  0  0  0  0
   -5.8130   58.7720   73.6570 O   0  0  0  0  0  0  0  0  0  0  0  0
   -6.6590   57.6350   73.8050 C   0  0  0  0  0  0  0  0  0  0  0  0
   -6.7640   59.6870   77.0300 O   0  0  0  0  0  0  0  0  0  0  0  0
   -8.0970   59.8190   76.8180 C   0  0  0  0  0  0  0  0  0  0  0  0
   -8.9270   58.9330   76.9360 O   0  0  0  0  0  0  0  0  0  0  0  0
   -8.4250   61.2260   76.4700 C   0  0  0  0  0  0  0  0  0  0  0  0
   -8.3590   62.1850   77.4920 C   0  0  0  0  0  0  0  0  0  0  0  0
   -8.6280   63.5250   77.2130 C   0  0  0  0  0  0  0  0  0  0  0  0
   -8.9920   63.8860   75.9030 C   0  0  0  0  0  0  0  0  0  0  0  0
   -9.0780   62.9300   74.8760 C   0  0  0  0  0  0  0  0  0  0  0  0
   -8.7900   61.5960   75.1660 C   0  0  0  0  0  0  0  0  0  0  0  0
   -8.5690   64.5430   78.1270 O   0  0  0  0  0  0  0  0  0  0  0  0
   -7.3340   64.7670   78.7930 C   0  0  0  0  0  0  0  0  0  0  0  0
   -9.4270   63.3980   73.6360 O   0  0  0  0  0  0  0  0  0  0  0  0
   -8.8470   62.7580   72.5060 C   0  0  0  0  0  0  0  0  0  0  0  0
   -9.2020   65.2130   75.6000 O   0  0  0  0  0  0  0  0  0  0  0  0
   -7.9870   65.8140   75.1540 C   0  0  0  0  0  0  0  0  0  0  0  0
    4.1690   58.3502   70.1787 H   0  0  0  0  0  0  0  0  0  0  0  0
    2.9796   56.9760   71.8968 H   0  0  0  0  0  0  0  0  0  0  0  0
    1.9951   61.8759   71.4361 H   0  0  0  0  0  0  0  0  0  0  0  0
    0.2363   61.3313   73.5553 H   0  0  0  0  0  0  0  0  0  0  0  0
    0.3639   56.1659   73.5317 H   0  0  0  0  0  0  0  0  0  0  0  0
    1.8355   56.4662   74.5436 H   0  0  0  0  0  0  0  0  0  0  0  0
   -0.4065   55.8265   75.7566 H   0  0  0  0  0  0  0  0  0  0  0  0
    0.5694   57.1938   76.4014 H   0  0  0  0  0  0  0  0  0  0  0  0
   -1.6491   57.4859   74.4727 H   0  0  0  0  0  0  0  0  0  0  0  0
   -0.2383   59.5956   76.1448 H   0  0  0  0  0  0  0  0  0  0  0  0
   -2.0707   60.6969   76.1147 H   0  0  0  0  0  0  0  0  0  0  0  0
   -1.7755   60.8327   74.3016 H   0  0  0  0  0  0  0  0  0  0  0  0
   -3.2022   59.1218   73.8208 H   0  0  0  0  0  0  0  0  0  0  0  0
   -3.9448   57.4606   74.9782 H   0  0  0  0  0  0  0  0  0  0  0  0
   -2.0909   58.2067   77.2712 H   0  0  0  0  0  0  0  0  0  0  0  0
   -2.4723   56.5886   76.6412 H   0  0  0  0  0  0  0  0  0  0  0  0
   -4.8795   57.4282   77.2363 H   0  0  0  0  0  0  0  0  0  0  0  0
   -4.3951   59.1779   77.4241 H   0  0  0  0  0  0  0  0  0  0  0  0
   -6.5982   57.9242   75.8602 H   0  0  0  0  0  0  0  0  0  0  0  0
   -6.7206   60.3496   74.7256 H   0  0  0  0  0  0  0  0  0  0  0  0
   -4.3979   60.9941   73.8491 H   0  0  0  0  0  0  0  0  0  0  0  0
    2.3639   62.5703   69.9020 H   0  0  0  0  0  0  0  0  0  0  0  0
    3.5093   62.6397   68.5200 H   0  0  0  0  0  0  0  0  0  0  0  0
    2.1735   61.4387   68.5200 H   0  0  0  0  0  0  0  0  0  0  0  0
   -5.0845   63.7992   77.0940 H   0  0  0  0  0  0  0  0  0  0  0  0
   -4.0746   64.0607   75.6317 H   0  0  0  0  0  0  0  0  0  0  0  0
   -5.8008   64.5577   75.6317 H   0  0  0  0  0  0  0  0  0  0  0  0
   -6.8124   57.4288   74.8746 H   0  0  0  0  0  0  0  0  0  0  0  0
   -7.6294   57.8354   73.3273 H   0  0  0  0  0  0  0  0  0  0  0  0
   -6.1883   56.7631   73.3273 H   0  0  0  0  0  0  0  0  0  0  0  0
   -8.0946   61.8796   78.5152 H   0  0  0  0  0  0  0  0  0  0  0  0
   -8.8489   60.8351   74.3738 H   0  0  0  0  0  0  0  0  0  0  0  0
   -7.4936   64.7381   79.8810 H   0  0  0  0  0  0  0  0  0  0  0  0
   -6.6159   63.9845   78.5068 H   0  0  0  0  0  0  0  0  0  0  0  0
   -6.9364   65.7519   78.5068 H   0  0  0  0  0  0  0  0  0  0  0  0
   -8.1442   61.9825   72.8445 H   0  0  0  0  0  0  0  0  0  0  0  0
   -9.6396   62.2952   71.8998 H   0  0  0  0  0  0  0  0  0  0  0  0
   -8.3086   63.5014   71.8998 H   0  0  0  0  0  0  0  0  0  0  0  0
   -7.3843   66.1121   76.0245 H   0  0  0  0  0  0  0  0  0  0  0  0
   -7.4219   65.0915   74.5468 H   0  0  0  0  0  0  0  0  0  0  0  0
   -8.2183   66.7016   74.5468 H   0  0  0  0  0  0  0  0  0  0  0  0
  2  1  2  0
  3  2  1  0
  4  3  2  0
  5  4  1  0
  6  5  2  0
  6  1  1  0
  7  5  1  0
  8  7  1  0
  9  8  2  0
  9  4  1  0
 10  9  1  0
 11 10  1  0
 12 11  1  0
 13 12  1  0
 13  8  1  0
 14 13  1  0
 15 14  1  0
 16 15  1  0
 17 16  1  0
 17 12  1  0
 18 16  1  0
 19 18  1  0
 20 19  1  0
 21 20  1  0
 21 15  1  0
 23  1  1  0
 23 22  1  0
 24 21  1  0
 25 24  2  0
 26 24  1  0
 27 26  1  0
 28 20  1  0
 29 28  1  0
 30 19  1  0
 31 30  1  0
 32 31  2  0
 33 31  1  0
 34 33  2  0
 35 34  1  0
 36 35  2  0
 37 36  1  0
 38 37  2  0
 38 33  1  0
 39 35  1  0
 40 39  1  0
 41 37  1  0
 42 41  1  0
 43 36  1  0
 44 43  1  0
  2 45  1  0
  3 46  1  0
  6 47  1  0
  7 48  1  0
 10 49  1  0
 10 50  1  0
 11 51  1  0
 11 52  1  0
 12 53  1  6
 13 54  1  1
 14 55  1  0
 14 56  1  0
 15 57  1  6
 16 58  1  6
 17 59  1  0
 17 60  1  0
 18 61  1  0
 18 62  1  0
 19 63  1  6
 20 64  1  6
 21 65  1  6
 22 66  1  0
 22 67  1  0
 22 68  1  0
 27 69  1  0
 27 70  1  0
 27 71  1  0
 29 72  1  0
 29 73  1  0
 29 74  1  0
 34 75  1  0
 38 76  1  0
 40 77  1  0
 40 78  1  0
 40 79  1  0
 42 80  1  0
 42 81  1  0
 42 82  1  0
 44 83  1  0
 44 84  1  0
 44 85  1  0
M  CHG  1  12   1
M  END
>  <score>  (3) 
-6.771

$$$$
=
     RDKit          3D

 85 90  0  0  0  0  0  0  0  0999 V2000
   -9.2870   65.0640   73.5430 C   0  0  0  0  0  0  0  0  0  0  0  0
   -9.0450   66.1500   74.3820 C   0  0  0  0  0  0  0  0  0  0  0  0
   -7.9830   66.1280   75.3010 C   0  0  0  0  0  0  0  0  0  0  0  0
   -7.1510   64.9960   75.3730 C   0  0  0  0  0  0  0  0  0  0  0  0
   -7.4120   63.9200   74.5240 C   0  0  0  0  0  0  0  0  0  0  0  0
   -8.4690   63.9290   73.6060 C   0  0  0  0  0  0  0  0  0  0  0  0
   -6.4810   62.9400   74.7870 N   0  0  0  0  0  0  0  0  0  0  0  0
   -5.6130   63.3760   75.7530 C   0  0  0  0  0  0  0  0  0  0  0  0
   -6.0240   64.6350   76.1580 C   0  0  0  0  0  0  0  0  0  0  0  0
   -5.3210   65.4060   77.2300 C   0  0  0  0  0  0  0  0  0  0  0  0
   -4.2810   64.5290   77.9660 C   0  0  0  0  0  0  0  0  0  0  0  0
   -3.5450   63.6450   76.9640 N   0  0  2  0  0  4  0  0  0  0  0  0
   -4.4820   62.6170   76.3530 C   0  0  2  0  0  0  0  0  0  0  0  0
   -3.7040   61.6750   75.4190 C   0  0  0  0  0  0  0  0  0  0  0  0
   -2.2870   62.1470   75.0330 C   0  0  1  0  0  0  0  0  0  0  0  0
   -1.4430   62.6680   76.2300 C   0  0  1  0  0  0  0  0  0  0  0  0
   -2.2890   63.0080   77.4610 C   0  0  0  0  0  0  0  0  0  0  0  0
   -0.2770   61.7500   76.5960 C   0  0  0  0  0  0  0  0  0  0  0  0
    0.6750   61.4730   75.4130 C   0  0  2  0  0  0  0  0  0  0  0  0
   -0.0190   61.5610   74.0280 C   0  0  1  0  0  0  0  0  0  0  0  0
   -1.5020   61.1640   74.1120 C   0  0  1  0  0  0  0  0  0  0  0  0
  -10.2580   65.9030   71.5350 C   0  0  0  0  0  0  0  0  0  0  0  0
  -10.2900   64.9750   72.6140 O   0  0  0  0  0  0  0  0  0  0  0  0
   -1.5980   59.6880   74.4720 C   0  0  0  0  0  0  0  0  0  0  0  0
   -2.2770   59.2390   75.3830 O   0  0  0  0  0  0  0  0  0  0  0  0
   -0.8210   58.9460   73.6380 O   0  0  0  0  0  0  0  0  0  0  0  0
   -0.6690   57.5810   74.0360 C   0  0  0  0  0  0  0  0  0  0  0  0
    0.0180   62.9150   73.5400 O   0  0  0  0  0  0  0  0  0  0  0  0
    0.0730   62.9900   72.1180 C   0  0  0  0  0  0  0  0  0  0  0  0
    1.2260   60.1430   75.5320 O   0  0  0  0  0  0  0  0  0  0  0  0
    2.5800   60.0480   75.5060 C   0  0  0  0  0  0  0  0  0  0  0  0
    3.3080   60.0180   76.4840 O   0  0  0  0  0  0  0  0  0  0  0  0
    3.0610   59.9300   74.1060 C   0  0  0  0  0  0  0  0  0  0  0  0
    3.8260   60.9850   73.5860 C   0  0  0  0  0  0  0  0  0  0  0  0
    4.3280   60.9120   72.2860 C   0  0  0  0  0  0  0  0  0  0  0  0
    4.0280   59.7810   71.5060 C   0  0  0  0  0  0  0  0  0  0  0  0
    3.2470   58.7270   72.0110 C   0  0  0  0  0  0  0  0  0  0  0  0
    2.7660   58.8060   73.3180 C   0  0  0  0  0  0  0  0  0  0  0  0
    5.1030   61.8710   71.6900 O   0  0  0  0  0  0  0  0  0  0  0  0
    4.4490   63.0040   71.1370 C   0  0  0  0  0  0  0  0  0  0  0  0
    3.0320   57.6690   71.1660 O   0  0  0  0  0  0  0  0  0  0  0  0
    2.2900   56.5670   71.6710 C   0  0  0  0  0  0  0  0  0  0  0  0
    4.5660   59.6690   70.2430 O   0  0  0  0  0  0  0  0  0  0  0  0
    3.6230   60.1060   69.2660 C   0  0  0  0  0  0  0  0  0  0  0  0
   -9.6942   67.0361   74.3238 H   0  0  0  0  0  0  0  0  0  0  0  0
   -7.8031   66.9902   75.9600 H   0  0  0  0  0  0  0  0  0  0  0  0
   -8.6526   63.0653   72.9500 H   0  0  0  0  0  0  0  0  0  0  0  0
   -6.4430   62.0191   74.3273 H   0  0  0  0  0  0  0  0  0  0  0  0
   -4.8066   66.2649   76.7744 H   0  0  0  0  0  0  0  0  0  0  0  0
   -6.0698   65.7430   77.9619 H   0  0  0  0  0  0  0  0  0  0  0  0
   -3.5569   65.1770   78.4814 H   0  0  0  0  0  0  0  0  0  0  0  0
   -4.7981   63.8924   78.6991 H   0  0  0  0  0  0  0  0  0  0  0  0
   -3.2239   64.2963   76.2335 H   0  0  0  0  0  0  0  0  0  0  0  0
   -4.9197   61.9244   77.0869 H   0  0  0  0  0  0  0  0  0  0  0  0
   -3.6121   60.7001   75.9202 H   0  0  0  0  0  0  0  0  0  0  0  0
   -4.2769   61.6377   74.4807 H   0  0  0  0  0  0  0  0  0  0  0  0
   -2.4745   63.0290   74.4030 H   0  0  0  0  0  0  0  0  0  0  0  0
   -1.0043   63.6102   75.8696 H   0  0  0  0  0  0  0  0  0  0  0  0
   -2.5261   62.0917   78.0215 H   0  0  0  0  0  0  0  0  0  0  0  0
   -1.7456   63.6851   78.1364 H   0  0  0  0  0  0  0  0  0  0  0  0
    0.2993   62.2228   77.4049 H   0  0  0  0  0  0  0  0  0  0  0  0
   -0.7057   60.7846   76.9029 H   0  0  0  0  0  0  0  0  0  0  0  0
    1.4509   62.2511   75.4628 H   0  0  0  0  0  0  0  0  0  0  0  0
    0.5209   60.8739   73.3599 H   0  0  0  0  0  0  0  0  0  0  0  0
   -2.0036   61.2659   73.1383 H   0  0  0  0  0  0  0  0  0  0  0  0
  -10.2227   66.9276   71.9336 H   0  0  0  0  0  0  0  0  0  0  0  0
   -9.3657   65.7183   70.9188 H   0  0  0  0  0  0  0  0  0  0  0  0
  -11.1609   65.7802   70.9188 H   0  0  0  0  0  0  0  0  0  0  0  0
   -0.6620   57.5179   75.1342 H   0  0  0  0  0  0  0  0  0  0  0  0
   -1.5067   56.9881   73.6400 H   0  0  0  0  0  0  0  0  0  0  0  0
    0.2786   57.1869   73.6400 H   0  0  0  0  0  0  0  0  0  0  0  0
    0.6991   63.8438   71.8198 H   0  0  0  0  0  0  0  0  0  0  0  0
    0.5054   62.0609   71.7183 H   0  0  0  0  0  0  0  0  0  0  0  0
   -0.9431   63.1232   71.7183 H   0  0  0  0  0  0  0  0  0  0  0  0
    4.0305   61.8715   74.2043 H   0  0  0  0  0  0  0  0  0  0  0  0
    2.1563   57.9887   73.7308 H   0  0  0  0  0  0  0  0  0  0  0  0
    4.0783   63.6462   71.9495 H   0  0  0  0  0  0  0  0  0  0  0  0
    5.1590   63.5706   70.5166 H   0  0  0  0  0  0  0  0  0  0  0  0
    3.6032   62.6726   70.5166 H   0  0  0  0  0  0  0  0  0  0  0  0
    2.3044   56.5884   72.7707 H   0  0  0  0  0  0  0  0  0  0  0  0
    1.2507   56.6315   71.3166 H   0  0  0  0  0  0  0  0  0  0  0  0
    2.7407   55.6282   71.3166 H   0  0  0  0  0  0  0  0  0  0  0  0
    2.7361   60.5170   69.7705 H   0  0  0  0  0  0  0  0  0  0  0  0
    4.0805   60.8839   68.6370 H   0  0  0  0  0  0  0  0  0  0  0  0
    3.3252   59.2541   68.6370 H   0  0  0  0  0  0  0  0  0  0  0  0
  2  1  2  0
  3  2  1  0
  4  3  2  0
  5  4  1  0
  6  5  2  0
  6  1  1  0
  7  5  1  0
  8  7  1  0
  9  8  2  0
  9  4  1  0
 10  9  1  0
 11 10  1  0
 12 11  1  0
 13 12  1  0
 13  8  1  0
 14 13  1  0
 15 14  1  0
 16 15  1  0
 17 16  1  0
 17 12  1  0
 18 16  1  0
 19 18  1  0
 20 19  1  0
 21 20  1  0
 21 15  1  0
 23  1  1  0
 23 22  1  0
 24 21  1  0
 25 24  2  0
 26 24  1  0
 27 26  1  0
 28 20  1  0
 29 28  1  0
 30 19  1  0
 31 30  1  0
 32 31  2  0
 33 31  1  0
 34 33  2  0
 35 34  1  0
 36 35  2  0
 37 36  1  0
 38 37  2  0
 38 33  1  0
 39 35  1  0
 40 39  1  0
 41 37  1  0
 42 41  1  0
 43 36  1  0
 44 43  1  0
  2 45  1  0
  3 46  1  0
  6 47  1  0
  7 48  1  0
 10 49  1  0
 10 50  1  0
 11 51  1  0
 11 52  1  0
 12 53  1  6
 13 54  1  1
 14 55  1  0
 14 56  1  0
 15 57  1  6
 16 58  1  6
 17 59  1  0
 17 60  1  0
 18 61  1  0
 18 62  1  0
 19 63  1  6
 20 64  1  6
 21 65  1  6
 22 66  1  0
 22 67  1  0
 22 68  1  0
 27 69  1  0
 27 70  1  0
 27 71  1  0
 29 72  1  0
 29 73  1  0
 29 74  1  0
 34 75  1  0
 38 76  1  0
 40 77  1  0
 40 78  1  0
 40 79  1  0
 42 80  1  0
 42 81  1  0
 42 82  1  0
 44 83  1  0
 44 84  1  0
 44 85  1  0
M  CHG  1  12   1
M  END
>  <score>  (4) 
-6.713

$$$$
=
     RDKit          3D

 85 90  0  0  0  0  0  0  0  0999 V2000
    1.6260   64.3380   70.5260 C   0  0  0  0  0  0  0  0  0  0  0  0
    2.1660   63.0980   70.1870 C   0  0  0  0  0  0  0  0  0  0  0  0
    1.8120   61.9400   70.8980 C   0  0  0  0  0  0  0  0  0  0  0  0
    0.9000   62.0320   71.9660 C   0  0  0  0  0  0  0  0  0  0  0  0
    0.3740   63.2830   72.2880 C   0  0  0  0  0  0  0  0  0  0  0  0
    0.7200   64.4450   71.5880 C   0  0  0  0  0  0  0  0  0  0  0  0
   -0.4760   63.1190   73.3600 N   0  0  0  0  0  0  0  0  0  0  0  0
   -0.5330   61.7950   73.7050 C   0  0  0  0  0  0  0  0  0  0  0  0
    0.3360   61.1010   72.8780 C   0  0  0  0  0  0  0  0  0  0  0  0
    0.5540   59.6270   72.9950 C   0  0  0  0  0  0  0  0  0  0  0  0
   -0.0980   59.0590   74.2780 C   0  0  0  0  0  0  0  0  0  0  0  0
   -1.4570   59.7150   74.5030 N   0  0  2  0  0  4  0  0  0  0  0  0
   -1.3010   61.1920   74.8280 C   0  0  2  0  0  0  0  0  0  0  0  0
   -2.6700   61.8150   75.1460 C   0  0  0  0  0  0  0  0  0  0  0  0
   -3.8940   60.9620   74.7520 C   0  0  1  0  0  0  0  0  0  0  0  0
   -3.7840   59.4660   75.1620 C   0  0  1  0  0  0  0  0  0  0  0  0
   -2.3510   59.0340   75.4870 C   0  0  0  0  0  0  0  0  0  0  0  0
   -4.7480   59.0700   76.2790 C   0  0  0  0  0  0  0  0  0  0  0  0
   -6.2240   59.3770   75.9470 C   0  0  2  0  0  0  0  0  0  0  0  0
   -6.4030   60.5640   74.9640 C   0  0  1  0  0  0  0  0  0  0  0  0
   -5.2720   61.5960   75.1120 C   0  0  1  0  0  0  0  0  0  0  0  0
    0.8550   66.4940   69.8690 C   0  0  0  0  0  0  0  0  0  0  0  0
    1.8990   65.5270   69.9050 O   0  0  0  0  0  0  0  0  0  0  0  0
   -5.3730   62.2440   76.4850 C   0  0  0  0  0  0  0  0  0  0  0  0
   -4.6940   61.9310   77.4510 O   0  0  0  0  0  0  0  0  0  0  0  0
   -6.3240   63.2160   76.4810 O   0  0  0  0  0  0  0  0  0  0  0  0
   -6.0630   64.2900   75.5730 C   0  0  0  0  0  0  0  0  0  0  0  0
   -6.3550   60.0930   73.6040 O   0  0  0  0  0  0  0  0  0  0  0  0
   -7.3180   60.7260   72.7650 C   0  0  0  0  0  0  0  0  0  0  0  0
   -6.9370   59.7130   77.1580 O   0  0  0  0  0  0  0  0  0  0  0  0
   -8.2920   59.6850   77.0860 C   0  0  0  0  0  0  0  0  0  0  0  0
   -8.9770   58.6830   76.9700 O   0  0  0  0  0  0  0  0  0  0  0  0
   -8.8420   61.0580   77.2240 C   0  0  0  0  0  0  0  0  0  0  0  0
   -8.8090   61.6520   78.4940 C   0  0  0  0  0  0  0  0  0  0  0  0
   -9.2850   62.9510   78.6730 C   0  0  0  0  0  0  0  0  0  0  0  0
   -9.8200   63.6360   77.5680 C   0  0  0  0  0  0  0  0  0  0  0  0
   -9.8750   63.0440   76.2940 C   0  0  0  0  0  0  0  0  0  0  0  0
   -9.3800   61.7500   76.1270 C   0  0  0  0  0  0  0  0  0  0  0  0
   -9.2780   63.6320   79.8620 O   0  0  0  0  0  0  0  0  0  0  0  0
   -8.0180   63.9470   80.4390 C   0  0  0  0  0  0  0  0  0  0  0  0
  -10.4030   63.8100   75.2880 O   0  0  0  0  0  0  0  0  0  0  0  0
   -9.5950   64.0350   74.1400 C   0  0  0  0  0  0  0  0  0  0  0  0
  -10.2390   64.9400   77.7180 O   0  0  0  0  0  0  0  0  0  0  0  0
   -9.1670   65.8360   77.4300 C   0  0  0  0  0  0  0  0  0  0  0  0
    2.8784   63.0260   69.3520 H   0  0  0  0  0  0  0  0  0  0  0  0
    2.2448   60.9671   70.6220 H   0  0  0  0  0  0  0  0  0  0  0  0
    0.2903   65.4188   71.8657 H   0  0  0  0  0  0  0  0  0  0  0  0
   -0.9905   63.8772   73.8305 H   0  0  0  0  0  0  0  0  0  0  0  0
    0.1124   59.1294   72.1190 H   0  0  0  0  0  0  0  0  0  0  0  0
    1.6369   59.4406   73.0458 H   0  0  0  0  0  0  0  0  0  0  0  0
   -0.2308   57.9724   74.1695 H   0  0  0  0  0  0  0  0  0  0  0  0
    0.5532   59.2694   75.1392 H   0  0  0  0  0  0  0  0  0  0  0  0
   -1.9470   59.6088   73.6033 H   0  0  0  0  0  0  0  0  0  0  0  0
   -0.7262   61.3860   75.7456 H   0  0  0  0  0  0  0  0  0  0  0  0
   -2.7170   61.9953   76.2301 H   0  0  0  0  0  0  0  0  0  0  0  0
   -2.7330   62.7320   74.5417 H   0  0  0  0  0  0  0  0  0  0  0  0
   -3.8648   60.9657   73.6524 H   0  0  0  0  0  0  0  0  0  0  0  0
   -4.0929   58.9103   74.2643 H   0  0  0  0  0  0  0  0  0  0  0  0
   -2.0875   59.3382   76.5107 H   0  0  0  0  0  0  0  0  0  0  0  0
   -2.2459   57.9409   75.4227 H   0  0  0  0  0  0  0  0  0  0  0  0
   -4.6480   57.9896   76.4602 H   0  0  0  0  0  0  0  0  0  0  0  0
   -4.4823   59.6645   77.1656 H   0  0  0  0  0  0  0  0  0  0  0  0
   -6.6192   58.4682   75.4696 H   0  0  0  0  0  0  0  0  0  0  0  0
   -7.3730   61.0262   75.1995 H   0  0  0  0  0  0  0  0  0  0  0  0
   -5.3756   62.4170   74.3873 H   0  0  0  0  0  0  0  0  0  0  0  0
    0.5668   66.7609   70.8965 H   0  0  0  0  0  0  0  0  0  0  0  0
    1.2060   67.3931   69.3413 H   0  0  0  0  0  0  0  0  0  0  0  0
   -0.0146   66.0753   69.3413 H   0  0  0  0  0  0  0  0  0  0  0  0
   -5.8406   65.2050   76.1416 H   0  0  0  0  0  0  0  0  0  0  0  0
   -5.2011   64.0334   74.9396 H   0  0  0  0  0  0  0  0  0  0  0  0
   -6.9466   64.4575   74.9396 H   0  0  0  0  0  0  0  0  0  0  0  0
   -8.0758   61.2241   73.3876 H   0  0  0  0  0  0  0  0  0  0  0  0
   -6.8173   61.4717   72.1300 H   0  0  0  0  0  0  0  0  0  0  0  0
   -7.8040   59.9707   72.1300 H   0  0  0  0  0  0  0  0  0  0  0  0
   -8.4067   61.0922   79.3512 H   0  0  0  0  0  0  0  0  0  0  0  0
   -9.4112   61.2724   75.1366 H   0  0  0  0  0  0  0  0  0  0  0  0
   -8.1014   63.9261   81.5356 H   0  0  0  0  0  0  0  0  0  0  0  0
   -7.2708   63.2080   80.1140 H   0  0  0  0  0  0  0  0  0  0  0  0
   -7.7065   64.9507   80.1140 H   0  0  0  0  0  0  0  0  0  0  0  0
   -8.5799   64.3177   74.4558 H   0  0  0  0  0  0  0  0  0  0  0  0
   -9.5490   63.1155   73.5380 H   0  0  0  0  0  0  0  0  0  0  0  0
  -10.0309   64.8459   73.5380 H   0  0  0  0  0  0  0  0  0  0  0  0
   -8.7308   66.2006   78.3717 H   0  0  0  0  0  0  0  0  0  0  0  0
   -8.3958   65.3100   76.8481 H   0  0  0  0  0  0  0  0  0  0  0  0
   -9.5478   66.6883   76.8481 H   0  0  0  0  0  0  0  0  0  0  0  0
  2  1  2  0
  3  2  1  0
  4  3  2  0
  5  4  1  0
  6  5  2  0
  6  1  1  0
  7  5  1  0
  8  7  1  0
  9  8  2  0
  9  4  1  0
 10  9  1  0
 11 10  1  0
 12 11  1  0
 13 12  1  0
 13  8  1  0
 14 13  1  0
 15 14  1  0
 16 15  1  0
 17 16  1  0
 17 12  1  0
 18 16  1  0
 19 18  1  0
 20 19  1  0
 21 20  1  0
 21 15  1  0
 23  1  1  0
 23 22  1  0
 24 21  1  0
 25 24  2  0
 26 24  1  0
 27 26  1  0
 28 20  1  0
 29 28  1  0
 30 19  1  0
 31 30  1  0
 32 31  2  0
 33 31  1  0
 34 33  2  0
 35 34  1  0
 36 35  2  0
 37 36  1  0
 38 37  2  0
 38 33  1  0
 39 35  1  0
 40 39  1  0
 41 37  1  0
 42 41  1  0
 43 36  1  0
 44 43  1  0
  2 45  1  0
  3 46  1  0
  6 47  1  0
  7 48  1  0
 10 49  1  0
 10 50  1  0
 11 51  1  0
 11 52  1  0
 12 53  1  6
 13 54  1  1
 14 55  1  0
 14 56  1  0
 15 57  1  6
 16 58  1  6
 17 59  1  0
 17 60  1  0
 18 61  1  0
 18 62  1  0
 19 63  1  6
 20 64  1  1
 21 65  1  6
 22 66  1  0
 22 67  1  0
 22 68  1  0
 27 69  1  0
 27 70  1  0
 27 71  1  0
 29 72  1  0
 29 73  1  0
 29 74  1  0
 34 75  1  0
 38 76  1  0
 40 77  1  0
 40 78  1  0
 40 79  1  0
 42 80  1  0
 42 81  1  0
 42 82  1  0
 44 83  1  0
 44 84  1  0
 44 85  1  0
M  CHG  1  12   1
M  END
>  <score>  (5) 
-6.473

$$$$
=
     RDKit          3D

 85 90  0  0  0  0  0  0  0  0999 V2000
    4.1920   62.4390   70.7450 C   0  0  0  0  0  0  0  0  0  0  0  0
    4.9000   61.3470   71.2460 C   0  0  0  0  0  0  0  0  0  0  0  0
    4.5170   60.7320   72.4490 C   0  0  0  0  0  0  0  0  0  0  0  0
    3.4030   61.2220   73.1560 C   0  0  0  0  0  0  0  0  0  0  0  0
    2.7110   62.3150   72.6360 C   0  0  0  0  0  0  0  0  0  0  0  0
    3.0840   62.9390   71.4390 C   0  0  0  0  0  0  0  0  0  0  0  0
    1.6800   62.6120   73.5010 N   0  0  0  0  0  0  0  0  0  0  0  0
    1.6750   61.7150   74.5370 C   0  0  0  0  0  0  0  0  0  0  0  0
    2.7530   60.8610   74.3660 C   0  0  0  0  0  0  0  0  0  0  0  0
    3.0760   59.7690   75.3350 C   0  0  0  0  0  0  0  0  0  0  0  0
    2.2320   59.8920   76.6260 C   0  0  0  0  0  0  0  0  0  0  0  0
    0.8020   60.2900   76.2750 N   0  0  2  0  0  4  0  0  0  0  0  0
    0.7540   61.6990   75.7050 C   0  0  2  0  0  0  0  0  0  0  0  0
   -0.7020   62.1200   75.4470 C   0  0  0  0  0  0  0  0  0  0  0  0
   -1.7380   60.9770   75.4800 C   0  0  1  0  0  0  0  0  0  0  0  0
   -1.5780   60.0090   76.6860 C   0  0  1  0  0  0  0  0  0  0  0  0
   -0.2060   60.1100   77.3620 C   0  0  0  0  0  0  0  0  0  0  0  0
   -2.7080   60.1190   77.7080 C   0  0  0  0  0  0  0  0  0  0  0  0
   -4.1080   59.9050   77.0940 C   0  0  2  0  0  0  0  0  0  0  0  0
   -4.1910   60.2930   75.5950 C   0  0  1  0  0  0  0  0  0  0  0  0
   -3.2120   61.4280   75.2490 C   0  0  1  0  0  0  0  0  0  0  0  0
    3.7050   62.7830   68.4380 C   0  0  0  0  0  0  0  0  0  0  0  0
    4.4750   63.1150   69.5880 O   0  0  0  0  0  0  0  0  0  0  0  0
   -3.6480   62.6920   75.9760 C   0  0  0  0  0  0  0  0  0  0  0  0
   -3.0190   63.2250   76.8780 O   0  0  0  0  0  0  0  0  0  0  0  0
   -4.8310   63.1410   75.4770 O   0  0  0  0  0  0  0  0  0  0  0  0
   -5.2220   64.4290   75.9620 C   0  0  0  0  0  0  0  0  0  0  0  0
   -3.8260   59.1700   74.7700 O   0  0  0  0  0  0  0  0  0  0  0  0
   -4.4450   57.9550   75.1860 C   0  0  0  0  0  0  0  0  0  0  0  0
   -5.0780   60.7100   77.8000 O   0  0  0  0  0  0  0  0  0  0  0  0
   -6.3530   60.2440   77.8110 C   0  0  0  0  0  0  0  0  0  0  0  0
   -6.7160   59.1790   78.2820 O   0  0  0  0  0  0  0  0  0  0  0  0
   -7.2710   61.2450   77.2100 C   0  0  0  0  0  0  0  0  0  0  0  0
   -7.7150   61.0210   75.8980 C   0  0  0  0  0  0  0  0  0  0  0  0
   -8.6020   61.9140   75.2960 C   0  0  0  0  0  0  0  0  0  0  0  0
   -9.0160   63.0480   76.0180 C   0  0  0  0  0  0  0  0  0  0  0  0
   -8.5640   63.2910   77.3260 C   0  0  0  0  0  0  0  0  0  0  0  0
   -7.6900   62.3810   77.9210 C   0  0  0  0  0  0  0  0  0  0  0  0
   -9.1140   61.7790   74.0330 O   0  0  0  0  0  0  0  0  0  0  0  0
   -8.1980   61.7110   72.9490 C   0  0  0  0  0  0  0  0  0  0  0  0
   -9.0460   64.4190   77.9380 O   0  0  0  0  0  0  0  0  0  0  0  0
   -8.1580   65.5210   78.0760 C   0  0  0  0  0  0  0  0  0  0  0  0
   -9.9370   63.9060   75.4580 O   0  0  0  0  0  0  0  0  0  0  0  0
   -9.2770   64.8750   74.6460 C   0  0  0  0  0  0  0  0  0  0  0  0
    5.7692   60.9626   70.6921 H   0  0  0  0  0  0  0  0  0  0  0  0
    5.0841   59.8727   72.8363 H   0  0  0  0  0  0  0  0  0  0  0  0
    2.5199   63.8011   71.0536 H   0  0  0  0  0  0  0  0  0  0  0  0
    1.0145   63.3898   73.3863 H   0  0  0  0  0  0  0  0  0  0  0  0
    2.8676   58.7978   74.8623 H   0  0  0  0  0  0  0  0  0  0  0  0
    4.1387   59.8506   75.6070 H   0  0  0  0  0  0  0  0  0  0  0  0
    2.2233   58.9247   77.1497 H   0  0  0  0  0  0  0  0  0  0  0  0
    2.6734   60.6623   77.2754 H   0  0  0  0  0  0  0  0  0  0  0  0
    0.5157   59.6144   75.5522 H   0  0  0  0  0  0  0  0  0  0  0  0
    1.1109   62.4722   76.4013 H   0  0  0  0  0  0  0  0  0  0  0  0
   -0.9837   62.8554   76.2150 H   0  0  0  0  0  0  0  0  0  0  0  0
   -0.7246   62.5196   74.4224 H   0  0  0  0  0  0  0  0  0  0  0  0
   -1.4868   60.3795   74.5912 H   0  0  0  0  0  0  0  0  0  0  0  0
   -1.6473   59.0040   76.2442 H   0  0  0  0  0  0  0  0  0  0  0  0
   -0.1836   60.9720   78.0450 H   0  0  0  0  0  0  0  0  0  0  0  0
    0.0091   59.2071   77.9523 H   0  0  0  0  0  0  0  0  0  0  0  0
   -2.5488   59.3598   78.4879 H   0  0  0  0  0  0  0  0  0  0  0  0
   -2.6825   61.1410   78.1139 H   0  0  0  0  0  0  0  0  0  0  0  0
   -4.3151   58.8285   77.1854 H   0  0  0  0  0  0  0  0  0  0  0  0
   -5.2267   60.6136   75.4094 H   0  0  0  0  0  0  0  0  0  0  0  0
   -3.2407   61.6756   74.1776 H   0  0  0  0  0  0  0  0  0  0  0  0
    2.7371   62.3657   68.7527 H   0  0  0  0  0  0  0  0  0  0  0  0
    3.5358   63.6881   67.8362 H   0  0  0  0  0  0  0  0  0  0  0  0
    4.2470   62.0386   67.8362 H   0  0  0  0  0  0  0  0  0  0  0  0
   -5.2201   64.4227   77.0620 H   0  0  0  0  0  0  0  0  0  0  0  0
   -4.5138   65.1882   75.5985 H   0  0  0  0  0  0  0  0  0  0  0  0
   -6.2327   64.6664   75.5985 H   0  0  0  0  0  0  0  0  0  0  0  0
   -4.4668   57.9122   76.2849 H   0  0  0  0  0  0  0  0  0  0  0  0
   -5.4732   57.9154   74.7970 H   0  0  0  0  0  0  0  0  0  0  0  0
   -3.8726   57.1000   74.7970 H   0  0  0  0  0  0  0  0  0  0  0  0
   -7.3629   60.1392   75.3427 H   0  0  0  0  0  0  0  0  0  0  0  0
   -7.3295   62.5532   78.9459 H   0  0  0  0  0  0  0  0  0  0  0  0
   -7.1725   61.6349   73.3397 H   0  0  0  0  0  0  0  0  0  0  0  0
   -8.4226   60.8271   72.3340 H   0  0  0  0  0  0  0  0  0  0  0  0
   -8.2897   62.6184   72.3340 H   0  0  0  0  0  0  0  0  0  0  0  0
   -7.9922   65.7268   79.1438 H   0  0  0  0  0  0  0  0  0  0  0  0
   -7.1981   65.2808   77.5955 H   0  0  0  0  0  0  0  0  0  0  0  0
   -8.5968   66.4079   77.5955 H   0  0  0  0  0  0  0  0  0  0  0  0
   -8.7749   65.6122   75.2898 H   0  0  0  0  0  0  0  0  0  0  0  0
   -8.5312   64.3745   74.0109 H   0  0  0  0  0  0  0  0  0  0  0  0
  -10.0158   65.3857   74.0109 H   0  0  0  0  0  0  0  0  0  0  0  0
  2  1  2  0
  3  2  1  0
  4  3  2  0
  5  4  1  0
  6  5  2  0
  6  1  1  0
  7  5  1  0
  8  7  1  0
  9  8  2  0
  9  4  1  0
 10  9  1  0
 11 10  1  0
 12 11  1  0
 13 12  1  0
 13  8  1  0
 14 13  1  0
 15 14  1  0
 16 15  1  0
 17 16  1  0
 17 12  1  0
 18 16  1  0
 19 18  1  0
 20 19  1  0
 21 20  1  0
 21 15  1  0
 23  1  1  0
 23 22  1  0
 24 21  1  0
 25 24  2  0
 26 24  1  0
 27 26  1  0
 28 20  1  0
 29 28  1  0
 30 19  1  0
 31 30  1  0
 32 31  2  0
 33 31  1  0
 34 33  2  0
 35 34  1  0
 36 35  2  0
 37 36  1  0
 38 37  2  0
 38 33  1  0
 39 35  1  0
 40 39  1  0
 41 37  1  0
 42 41  1  0
 43 36  1  0
 44 43  1  0
  2 45  1  0
  3 46  1  0
  6 47  1  0
  7 48  1  0
 10 49  1  0
 10 50  1  0
 11 51  1  0
 11 52  1  0
 12 53  1  6
 13 54  1  1
 14 55  1  0
 14 56  1  0
 15 57  1  6
 16 58  1  6
 17 59  1  0
 17 60  1  0
 18 61  1  0
 18 62  1  0
 19 63  1  6
 20 64  1  6
 21 65  1  6
 22 66  1  0
 22 67  1  0
 22 68  1  0
 27 69  1  0
 27 70  1  0
 27 71  1  0
 29 72  1  0
 29 73  1  0
 29 74  1  0
 34 75  1  0
 38 76  1  0
 40 77  1  0
 40 78  1  0
 40 79  1  0
 42 80  1  0
 42 81  1  0
 42 82  1  0
 44 83  1  0
 44 84  1  0
 44 85  1  0
M  CHG  1  12   1
M  END
>  <score>  (6) 
-6.464

$$$$
=
     RDKit          3D

 85 90  0  0  0  0  0  0  0  0999 V2000
   -9.6660   64.0440   73.7020 C   0  0  0  0  0  0  0  0  0  0  0  0
  -10.0840   63.8590   75.0190 C   0  0  0  0  0  0  0  0  0  0  0  0
   -9.3580   63.0370   75.8960 C   0  0  0  0  0  0  0  0  0  0  0  0
   -8.1930   62.3940   75.4410 C   0  0  0  0  0  0  0  0  0  0  0  0
   -7.7940   62.5930   74.1190 C   0  0  0  0  0  0  0  0  0  0  0  0
   -8.5100   63.4070   73.2340 C   0  0  0  0  0  0  0  0  0  0  0  0
   -6.6460   61.8590   73.9100 N   0  0  0  0  0  0  0  0  0  0  0  0
   -6.2840   61.2300   75.0720 C   0  0  0  0  0  0  0  0  0  0  0  0
   -7.2430   61.5170   76.0290 C   0  0  0  0  0  0  0  0  0  0  0  0
   -7.1850   60.9660   77.4180 C   0  0  0  0  0  0  0  0  0  0  0  0
   -6.0970   59.8730   77.5470 C   0  0  0  0  0  0  0  0  0  0  0  0
   -4.8530   60.2860   76.7670 N   0  0  2  0  0  4  0  0  0  0  0  0
   -5.1300   60.3120   75.2730 C   0  0  2  0  0  0  0  0  0  0  0  0
   -3.8420   60.6360   74.4970 C   0  0  0  0  0  0  0  0  0  0  0  0
   -2.6770   61.1850   75.3480 C   0  0  1  0  0  0  0  0  0  0  0  0
   -2.4260   60.3980   76.6650 C   0  0  1  0  0  0  0  0  0  0  0  0
   -3.6100   59.5170   77.0750 C   0  0  0  0  0  0  0  0  0  0  0  0
   -1.1210   59.6030   76.6580 C   0  0  0  0  0  0  0  0  0  0  0  0
    0.1210   60.4730   76.3660 C   0  0  2  0  0  0  0  0  0  0  0  0
   -0.1910   61.7250   75.5050 C   0  0  1  0  0  0  0  0  0  0  0  0
   -1.3700   61.4760   74.5490 C   0  0  1  0  0  0  0  0  0  0  0  0
   -9.4710   65.4510   71.7890 C   0  0  0  0  0  0  0  0  0  0  0  0
  -10.2940   64.8180   72.7630 O   0  0  0  0  0  0  0  0  0  0  0  0
   -0.9620   60.4260   73.5260 C   0  0  0  0  0  0  0  0  0  0  0  0
   -1.2040   59.2320   73.6240 O   0  0  0  0  0  0  0  0  0  0  0  0
   -0.2920   61.0050   72.4950 O   0  0  0  0  0  0  0  0  0  0  0  0
   -0.3440   62.4350   72.4890 C   0  0  0  0  0  0  0  0  0  0  0  0
   -0.5730   62.8260   76.3510 O   0  0  0  0  0  0  0  0  0  0  0  0
    0.3830   63.0960   77.3730 C   0  0  0  0  0  0  0  0  0  0  0  0
    1.1040   59.6940   75.6480 O   0  0  0  0  0  0  0  0  0  0  0  0
    2.3520   60.2220   75.5740 C   0  0  0  0  0  0  0  0  0  0  0  0
    2.9990   60.6510   76.5140 O   0  0  0  0  0  0  0  0  0  0  0  0
    2.8540   60.1580   74.1770 C   0  0  0  0  0  0  0  0  0  0  0  0
    3.3590   61.3370   73.6080 C   0  0  0  0  0  0  0  0  0  0  0  0
    3.8700   61.3260   72.3110 C   0  0  0  0  0  0  0  0  0  0  0  0
    3.8440   60.1230   71.5810 C   0  0  0  0  0  0  0  0  0  0  0  0
    3.3240   58.9410   72.1350 C   0  0  0  0  0  0  0  0  0  0  0  0
    2.8310   58.9630   73.4400 C   0  0  0  0  0  0  0  0  0  0  0  0
    4.4070   62.4110   71.6700 O   0  0  0  0  0  0  0  0  0  0  0  0
    3.5120   63.3440   71.0800 C   0  0  0  0  0  0  0  0  0  0  0  0
    3.3640   57.8260   71.3380 O   0  0  0  0  0  0  0  0  0  0  0  0
    2.4220   56.7950   71.6060 C   0  0  0  0  0  0  0  0  0  0  0  0
    4.4000   60.0840   70.3220 O   0  0  0  0  0  0  0  0  0  0  0  0
    3.3840   60.2290   69.3310 C   0  0  0  0  0  0  0  0  0  0  0  0
  -10.9941   64.3634   75.3757 H   0  0  0  0  0  0  0  0  0  0  0  0
   -9.6985   62.8969   76.9326 H   0  0  0  0  0  0  0  0  0  0  0  0
   -8.1729   63.5432   72.1958 H   0  0  0  0  0  0  0  0  0  0  0  0
   -6.1379   61.7935   73.0165 H   0  0  0  0  0  0  0  0  0  0  0  0
   -6.9561   61.7832   78.1179 H   0  0  0  0  0  0  0  0  0  0  0  0
   -8.1599   60.5133   77.6518 H   0  0  0  0  0  0  0  0  0  0  0  0
   -5.8359   59.7413   78.6074 H   0  0  0  0  0  0  0  0  0  0  0  0
   -6.4831   58.9270   77.1395 H   0  0  0  0  0  0  0  0  0  0  0  0
   -4.6473   61.2399   77.0966 H   0  0  0  0  0  0  0  0  0  0  0  0
   -5.4241   59.3361   74.8593 H   0  0  0  0  0  0  0  0  0  0  0  0
   -3.4991   59.7124   74.0077 H   0  0  0  0  0  0  0  0  0  0  0  0
   -4.1064   61.4377   73.7918 H   0  0  0  0  0  0  0  0  0  0  0  0
   -3.0361   62.1750   75.6655 H   0  0  0  0  0  0  0  0  0  0  0  0
   -2.3198   61.1756   77.4358 H   0  0  0  0  0  0  0  0  0  0  0  0
   -3.5965   58.5765   76.5047 H   0  0  0  0  0  0  0  0  0  0  0  0
   -3.5595   59.2638   78.1443 H   0  0  0  0  0  0  0  0  0  0  0  0
   -0.9936   59.1318   77.6438 H   0  0  0  0  0  0  0  0  0  0  0  0
   -1.1960   58.8596   75.8507 H   0  0  0  0  0  0  0  0  0  0  0  0
    0.4905   60.8085   77.3463 H   0  0  0  0  0  0  0  0  0  0  0  0
    0.7212   61.9496   74.9328 H   0  0  0  0  0  0  0  0  0  0  0  0
   -1.6174   62.3764   73.9675 H   0  0  0  0  0  0  0  0  0  0  0  0
   -8.6966   66.0466   72.2945 H   0  0  0  0  0  0  0  0  0  0  0  0
   -8.9927   64.6858   71.1599 H   0  0  0  0  0  0  0  0  0  0  0  0
  -10.0878   66.1097   71.1599 H   0  0  0  0  0  0  0  0  0  0  0  0
   -0.3575   62.8058   73.5245 H   0  0  0  0  0  0  0  0  0  0  0  0
    0.5403   62.8319   71.9689 H   0  0  0  0  0  0  0  0  0  0  0  0
   -1.2548   62.7666   71.9689 H   0  0  0  0  0  0  0  0  0  0  0  0
   -0.0867   62.9633   78.3588 H   0  0  0  0  0  0  0  0  0  0  0  0
    1.2309   62.4022   77.2745 H   0  0  0  0  0  0  0  0  0  0  0  0
    0.7427   64.1309   77.2745 H   0  0  0  0  0  0  0  0  0  0  0  0
    3.3517   62.2724   74.1868 H   0  0  0  0  0  0  0  0  0  0  0  0
    2.4249   58.0455   73.8909 H   0  0  0  0  0  0  0  0  0  0  0  0
    2.9830   63.8954   71.8713 H   0  0  0  0  0  0  0  0  0  0  0  0
    4.0783   64.0511   70.4560 H   0  0  0  0  0  0  0  0  0  0  0  0
    2.7820   62.8076   70.4560 H   0  0  0  0  0  0  0  0  0  0  0  0
    2.3109   56.6735   72.6936 H   0  0  0  0  0  0  0  0  0  0  0  0
    1.4501   57.0628   71.1659 H   0  0  0  0  0  0  0  0  0  0  0  0
    2.7762   55.8512   71.1659 H   0  0  0  0  0  0  0  0  0  0  0  0
    2.4097   60.3680   69.8224 H   0  0  0  0  0  0  0  0  0  0  0  0
    3.6064   61.1045   68.7033 H   0  0  0  0  0  0  0  0  0  0  0  0
    3.3526   59.3262   68.7033 H   0  0  0  0  0  0  0  0  0  0  0  0
  2  1  2  0
  3  2  1  0
  4  3  2  0
  5  4  1  0
  6  5  2  0
  6  1  1  0
  7  5  1  0
  8  7  1  0
  9  8  2  0
  9  4  1  0
 10  9  1  0
 11 10  1  0
 12 11  1  0
 13 12  1  0
 13  8  1  0
 14 13  1  0
 15 14  1  0
 16 15  1  0
 17 16  1  0
 17 12  1  0
 18 16  1  0
 19 18  1  0
 20 19  1  0
 21 20  1  0
 21 15  1  0
 23  1  1  0
 23 22  1  0
 24 21  1  0
 25 24  2  0
 26 24  1  0
 27 26  1  0
 28 20  1  0
 29 28  1  0
 30 19  1  0
 31 30  1  0
 32 31  2  0
 33 31  1  0
 34 33  2  0
 35 34  1  0
 36 35  2  0
 37 36  1  0
 38 37  2  0
 38 33  1  0
 39 35  1  0
 40 39  1  0
 41 37  1  0
 42 41  1  0
 43 36  1  0
 44 43  1  0
  2 45  1  0
  3 46  1  0
  6 47  1  0
  7 48  1  0
 10 49  1  0
 10 50  1  0
 11 51  1  0
 11 52  1  0
 12 53  1  1
 13 54  1  6
 14 55  1  0
 14 56  1  0
 15 57  1  1
 16 58  1  1
 17 59  1  0
 17 60  1  0
 18 61  1  0
 18 62  1  0
 19 63  1  1
 20 64  1  6
 21 65  1  6
 22 66  1  0
 22 67  1  0
 22 68  1  0
 27 69  1  0
 27 70  1  0
 27 71  1  0
 29 72  1  0
 29 73  1  0
 29 74  1  0
 34 75  1  0
 38 76  1  0
 40 77  1  0
 40 78  1  0
 40 79  1  0
 42 80  1  0
 42 81  1  0
 42 82  1  0
 44 83  1  0
 44 84  1  0
 44 85  1  0
M  CHG  1  12   1
M  END
>  <score>  (7) 
-6.452

$$$$
=
     RDKit          3D

 85 90  0  0  0  0  0  0  0  0999 V2000
    1.4590   64.4500   70.6780 C   0  0  0  0  0  0  0  0  0  0  0  0
    2.0170   63.2390   70.2740 C   0  0  0  0  0  0  0  0  0  0  0  0
    1.6920   62.0410   70.9320 C   0  0  0  0  0  0  0  0  0  0  0  0
    0.7900   62.0650   72.0110 C   0  0  0  0  0  0  0  0  0  0  0  0
    0.2440   63.2880   72.3990 C   0  0  0  0  0  0  0  0  0  0  0  0
    0.5610   64.4890   71.7530 C   0  0  0  0  0  0  0  0  0  0  0  0
   -0.5910   63.0580   73.4700 N   0  0  0  0  0  0  0  0  0  0  0  0
   -0.6200   61.7170   73.7510 C   0  0  0  0  0  0  0  0  0  0  0  0
    0.2520   61.0810   72.8830 C   0  0  0  0  0  0  0  0  0  0  0  0
    0.4980   59.6060   72.9260 C   0  0  0  0  0  0  0  0  0  0  0  0
   -0.1300   58.9660   74.1860 C   0  0  0  0  0  0  0  0  0  0  0  0
   -1.4980   59.5850   74.4560 N   0  0  2  0  0  4  0  0  0  0  0  0
   -1.3650   61.0460   74.8510 C   0  0  2  0  0  0  0  0  0  0  0  0
   -2.7420   61.6280   75.2120 C   0  0  0  0  0  0  0  0  0  0  0  0
   -3.9540   60.7720   74.7890 C   0  0  1  0  0  0  0  0  0  0  0  0
   -3.8130   59.2610   75.1240 C   0  0  1  0  0  0  0  0  0  0  0  0
   -2.3690   58.8400   75.4140 C   0  0  0  0  0  0  0  0  0  0  0  0
   -4.7580   58.7930   76.2300 C   0  0  0  0  0  0  0  0  0  0  0  0
   -6.2430   59.0880   75.9270 C   0  0  2  0  0  0  0  0  0  0  0  0
   -6.4530   60.3170   75.0050 C   0  0  1  0  0  0  0  0  0  0  0  0
   -5.3400   61.3620   75.1920 C   0  0  1  0  0  0  0  0  0  0  0  0
    0.5720   66.4700   69.7760 C   0  0  0  0  0  0  0  0  0  0  0  0
    1.7030   65.6740   70.1130 O   0  0  0  0  0  0  0  0  0  0  0  0
   -5.4390   61.9410   76.5960 C   0  0  0  0  0  0  0  0  0  0  0  0
   -4.6640   61.6880   77.5070 O   0  0  0  0  0  0  0  0  0  0  0  0
   -6.5070   62.7760   76.6900 O   0  0  0  0  0  0  0  0  0  0  0  0
   -6.4060   63.9530   75.8820 C   0  0  0  0  0  0  0  0  0  0  0  0
   -6.4110   59.9140   73.6230 O   0  0  0  0  0  0  0  0  0  0  0  0
   -7.2750   60.6870   72.7950 C   0  0  0  0  0  0  0  0  0  0  0  0
   -6.9490   59.3520   77.1600 O   0  0  0  0  0  0  0  0  0  0  0  0
   -8.1030   58.6640   77.3520 C   0  0  0  0  0  0  0  0  0  0  0  0
   -9.2090   59.0130   76.9750 O   0  0  0  0  0  0  0  0  0  0  0  0
   -7.8270   57.3810   78.0470 C   0  0  0  0  0  0  0  0  0  0  0  0
   -8.5800   56.2580   77.6730 C   0  0  0  0  0  0  0  0  0  0  0  0
   -8.3410   55.0220   78.2730 C   0  0  0  0  0  0  0  0  0  0  0  0
   -7.3560   54.9320   79.2730 C   0  0  0  0  0  0  0  0  0  0  0  0
   -6.6070   56.0540   79.6680 C   0  0  0  0  0  0  0  0  0  0  0  0
   -6.8460   57.2800   79.0470 C   0  0  0  0  0  0  0  0  0  0  0  0
   -9.0000   53.8610   77.9660 O   0  0  0  0  0  0  0  0  0  0  0  0
  -10.3730   53.7640   78.3210 C   0  0  0  0  0  0  0  0  0  0  0  0
   -5.6640   55.8450   80.6400 O   0  0  0  0  0  0  0  0  0  0  0  0
   -4.3010   56.0300   80.2820 C   0  0  0  0  0  0  0  0  0  0  0  0
   -7.0690   53.7060   79.8310 O   0  0  0  0  0  0  0  0  0  0  0  0
   -6.0970   53.0220   79.0420 C   0  0  0  0  0  0  0  0  0  0  0  0
    2.7210   63.2206   69.4290 H   0  0  0  0  0  0  0  0  0  0  0  0
    2.1399   61.0908   70.6056 H   0  0  0  0  0  0  0  0  0  0  0  0
    0.1160   65.4399   72.0813 H   0  0  0  0  0  0  0  0  0  0  0  0
   -1.1138   63.7832   73.9816 H   0  0  0  0  0  0  0  0  0  0  0  0
    0.0560   59.1432   72.0313 H   0  0  0  0  0  0  0  0  0  0  0  0
    1.5845   59.4369   72.9566 H   0  0  0  0  0  0  0  0  0  0  0  0
   -0.2444   57.8836   74.0268 H   0  0  0  0  0  0  0  0  0  0  0  0
    0.5264   59.1475   75.0498 H   0  0  0  0  0  0  0  0  0  0  0  0
   -1.9958   59.5141   73.5571 H   0  0  0  0  0  0  0  0  0  0  0  0
   -0.7841   61.2054   75.7714 H   0  0  0  0  0  0  0  0  0  0  0  0
   -2.7810   61.7552   76.3039 H   0  0  0  0  0  0  0  0  0  0  0  0
   -2.8279   62.5718   74.6535 H   0  0  0  0  0  0  0  0  0  0  0  0
   -3.9355   60.8294   73.6907 H   0  0  0  0  0  0  0  0  0  0  0  0
   -4.1214   58.7445   74.2031 H   0  0  0  0  0  0  0  0  0  0  0  0
   -2.1004   59.0986   76.4489 H   0  0  0  0  0  0  0  0  0  0  0  0
   -2.2447   57.7535   75.2953 H   0  0  0  0  0  0  0  0  0  0  0  0
   -4.6363   57.7072   76.3575 H   0  0  0  0  0  0  0  0  0  0  0  0
   -4.4940   59.3485   77.1420 H   0  0  0  0  0  0  0  0  0  0  0  0
   -6.6271   58.1964   75.4098 H   0  0  0  0  0  0  0  0  0  0  0  0
   -7.4288   60.7487   75.2725 H   0  0  0  0  0  0  0  0  0  0  0  0
   -5.4661   62.2149   74.5089 H   0  0  0  0  0  0  0  0  0  0  0  0
    0.0799   66.8163   70.6968 H   0  0  0  0  0  0  0  0  0  0  0  0
    0.8980   67.3389   69.1854 H   0  0  0  0  0  0  0  0  0  0  0  0
   -0.1359   65.8699   69.1854 H   0  0  0  0  0  0  0  0  0  0  0  0
   -6.3301   64.8379   76.5310 H   0  0  0  0  0  0  0  0  0  0  0  0
   -5.5103   63.8861   75.2470 H   0  0  0  0  0  0  0  0  0  0  0  0
   -7.3000   64.0397   75.2470 H   0  0  0  0  0  0  0  0  0  0  0  0
   -7.9466   61.2878   73.4258 H   0  0  0  0  0  0  0  0  0  0  0  0
   -6.6739   61.3544   72.1599 H   0  0  0  0  0  0  0  0  0  0  0  0
   -7.8716   60.0156   72.1599 H   0  0  0  0  0  0  0  0  0  0  0  0
   -9.3611   56.3526   76.9043 H   0  0  0  0  0  0  0  0  0  0  0  0
   -6.2662   58.1675   79.3405 H   0  0  0  0  0  0  0  0  0  0  0  0
  -10.4688   53.7572   79.4168 H   0  0  0  0  0  0  0  0  0  0  0  0
  -10.9196   54.6258   77.9105 H   0  0  0  0  0  0  0  0  0  0  0  0
  -10.7931   52.8339   77.9105 H   0  0  0  0  0  0  0  0  0  0  0  0
   -3.6905   56.1129   81.1933 H   0  0  0  0  0  0  0  0  0  0  0  0
   -3.9580   55.1702   79.6878 H   0  0  0  0  0  0  0  0  0  0  0  0
   -4.1996   56.9501   79.6878 H   0  0  0  0  0  0  0  0  0  0  0  0
   -5.3781   52.5161   79.7033 H   0  0  0  0  0  0  0  0  0  0  0  0
   -6.5986   52.2767   78.4072 H   0  0  0  0  0  0  0  0  0  0  0  0
   -5.5648   53.7458   78.4072 H   0  0  0  0  0  0  0  0  0  0  0  0
  2  1  2  0
  3  2  1  0
  4  3  2  0
  5  4  1  0
  6  5  2  0
  6  1  1  0
  7  5  1  0
  8  7  1  0
  9  8  2  0
  9  4  1  0
 10  9  1  0
 11 10  1  0
 12 11  1  0
 13 12  1  0
 13  8  1  0
 14 13  1  0
 15 14  1  0
 16 15  1  0
 17 16  1  0
 17 12  1  0
 18 16  1  0
 19 18  1  0
 20 19  1  0
 21 20  1  0
 21 15  1  0
 23  1  1  0
 23 22  1  0
 24 21  1  0
 25 24  2  0
 26 24  1  0
 27 26  1  0
 28 20  1  0
 29 28  1  0
 30 19  1  0
 31 30  1  0
 32 31  2  0
 33 31  1  0
 34 33  2  0
 35 34  1  0
 36 35  2  0
 37 36  1  0
 38 37  2  0
 38 33  1  0
 39 35  1  0
 40 39  1  0
 41 37  1  0
 42 41  1  0
 43 36  1  0
 44 43  1  0
  2 45  1  0
  3 46  1  0
  6 47  1  0
  7 48  1  0
 10 49  1  0
 10 50  1  0
 11 51  1  0
 11 52  1  0
 12 53  1  6
 13 54  1  1
 14 55  1  0
 14 56  1  0
 15 57  1  6
 16 58  1  6
 17 59  1  0
 17 60  1  0
 18 61  1  0
 18 62  1  0
 19 63  1  6
 20 64  1  1
 21 65  1  6
 22 66  1  0
 22 67  1  0
 22 68  1  0
 27 69  1  0
 27 70  1  0
 27 71  1  0
 29 72  1  0
 29 73  1  0
 29 74  1  0
 34 75  1  0
 38 76  1  0
 40 77  1  0
 40 78  1  0
 40 79  1  0
 42 80  1  0
 42 81  1  0
 42 82  1  0
 44 83  1  0
 44 84  1  0
 44 85  1  0
M  CHG  1  12   1
M  END
>  <score>  (8) 
-6.366

$$$$
=
     RDKit          3D

 85 90  0  0  0  0  0  0  0  0999 V2000
   -9.3840   62.6630   74.7650 C   0  0  0  0  0  0  0  0  0  0  0  0
   -9.6760   61.7140   75.7430 C   0  0  0  0  0  0  0  0  0  0  0  0
   -8.7000   60.8030   76.1780 C   0  0  0  0  0  0  0  0  0  0  0  0
   -7.4080   60.8520   75.6220 C   0  0  0  0  0  0  0  0  0  0  0  0
   -7.1380   61.8090   74.6440 C   0  0  0  0  0  0  0  0  0  0  0  0
   -8.1040   62.7200   74.2000 C   0  0  0  0  0  0  0  0  0  0  0  0
   -5.8270   61.6520   74.2510 N   0  0  0  0  0  0  0  0  0  0  0  0
   -5.2460   60.6470   74.9770 C   0  0  0  0  0  0  0  0  0  0  0  0
   -6.2120   60.1110   75.8120 C   0  0  0  0  0  0  0  0  0  0  0  0
   -5.9350   58.9640   76.7310 C   0  0  0  0  0  0  0  0  0  0  0  0
   -4.5570   58.3250   76.4390 C   0  0  0  0  0  0  0  0  0  0  0  0
   -3.5320   59.4160   76.1450 N   0  0  2  0  0  4  0  0  0  0  0  0
   -3.8560   60.1310   74.8430 C   0  0  2  0  0  0  0  0  0  0  0  0
   -2.7620   61.1600   74.5130 C   0  0  0  0  0  0  0  0  0  0  0  0
   -1.7980   61.4950   75.6710 C   0  0  1  0  0  0  0  0  0  0  0  0
   -1.2670   60.2510   76.4360 C   0  0  1  0  0  0  0  0  0  0  0  0
   -2.1010   58.9900   76.1880 C   0  0  0  0  0  0  0  0  0  0  0  0
    0.2200   59.9850   76.2060 C   0  0  0  0  0  0  0  0  0  0  0  0
    1.1160   61.1920   76.5570 C   0  0  2  0  0  0  0  0  0  0  0  0
    0.3990   62.5590   76.4070 C   0  0  1  0  0  0  0  0  0  0  0  0
   -0.6760   62.5160   75.3080 C   0  0  1  0  0  0  0  0  0  0  0  0
   -9.9550   64.9630   74.5190 C   0  0  0  0  0  0  0  0  0  0  0  0
  -10.2550   63.5950   74.2660 O   0  0  0  0  0  0  0  0  0  0  0  0
    0.0030   62.3140   73.9620 C   0  0  0  0  0  0  0  0  0  0  0  0
   -0.1450   61.3310   73.2500 O   0  0  0  0  0  0  0  0  0  0  0  0
    0.7950   63.3790   73.6660 O   0  0  0  0  0  0  0  0  0  0  0  0
    1.7930   63.1130   72.6770 C   0  0  0  0  0  0  0  0  0  0  0  0
   -0.2780   62.9010   77.6310 O   0  0  0  0  0  0  0  0  0  0  0  0
    0.4890   62.5920   78.7920 C   0  0  0  0  0  0  0  0  0  0  0  0
    2.2680   61.2140   75.6850 O   0  0  0  0  0  0  0  0  0  0  0  0
    3.0170   60.0840   75.6470 C   0  0  0  0  0  0  0  0  0  0  0  0
    3.3550   59.4230   76.6140 O   0  0  0  0  0  0  0  0  0  0  0  0
    3.3300   59.7220   74.2400 C   0  0  0  0  0  0  0  0  0  0  0  0
    2.6620   58.6210   73.6840 C   0  0  0  0  0  0  0  0  0  0  0  0
    2.8970   58.2560   72.3580 C   0  0  0  0  0  0  0  0  0  0  0  0
    3.8310   58.9920   71.6070 C   0  0  0  0  0  0  0  0  0  0  0  0
    4.5190   60.0860   72.1600 C   0  0  0  0  0  0  0  0  0  0  0  0
    4.2620   60.4490   73.4830 C   0  0  0  0  0  0  0  0  0  0  0  0
    2.2830   57.2170   71.7100 O   0  0  0  0  0  0  0  0  0  0  0  0
    1.4840   56.3320   72.4830 C   0  0  0  0  0  0  0  0  0  0  0  0
    5.3940   60.7380   71.3310 O   0  0  0  0  0  0  0  0  0  0  0  0
    5.2500   62.1460   71.2020 C   0  0  0  0  0  0  0  0  0  0  0  0
    4.0280   58.6800   70.2800 O   0  0  0  0  0  0  0  0  0  0  0  0
    3.3490   59.6190   69.4480 C   0  0  0  0  0  0  0  0  0  0  0  0
  -10.6848   61.6781   76.1801 H   0  0  0  0  0  0  0  0  0  0  0  0
   -8.9435   60.0562   76.9480 H   0  0  0  0  0  0  0  0  0  0  0  0
   -7.8631   63.4631   73.4255 H   0  0  0  0  0  0  0  0  0  0  0  0
   -5.3556   62.2063   73.5220 H   0  0  0  0  0  0  0  0  0  0  0  0
   -5.9483   59.3265   77.7695 H   0  0  0  0  0  0  0  0  0  0  0  0
   -6.7105   58.2000   76.5736 H   0  0  0  0  0  0  0  0  0  0  0  0
   -4.2310   57.7444   77.3146 H   0  0  0  0  0  0  0  0  0  0  0  0
   -4.6423   57.6625   75.5650 H   0  0  0  0  0  0  0  0  0  0  0  0
   -3.6226   60.0736   76.9326 H   0  0  0  0  0  0  0  0  0  0  0  0
   -3.8450   59.4736   73.9611 H   0  0  0  0  0  0  0  0  0  0  0  0
   -2.1650   60.7648   73.6779 H   0  0  0  0  0  0  0  0  0  0  0  0
   -3.2880   62.0965   74.2757 H   0  0  0  0  0  0  0  0  0  0  0  0
   -2.4379   62.0272   76.3903 H   0  0  0  0  0  0  0  0  0  0  0  0
   -1.3820   60.5107   77.4987 H   0  0  0  0  0  0  0  0  0  0  0  0
   -1.8147   58.5296   75.2309 H   0  0  0  0  0  0  0  0  0  0  0  0
   -1.9357   58.2469   76.9820 H   0  0  0  0  0  0  0  0  0  0  0  0
    0.5230   59.1316   76.8304 H   0  0  0  0  0  0  0  0  0  0  0  0
    0.3530   59.7806   75.1334 H   0  0  0  0  0  0  0  0  0  0  0  0
    1.3955   61.0614   77.6129 H   0  0  0  0  0  0  0  0  0  0  0  0
    1.1746   63.2963   76.1523 H   0  0  0  0  0  0  0  0  0  0  0  0
   -1.2129   63.4729   75.2294 H   0  0  0  0  0  0  0  0  0  0  0  0
   -9.9172   65.1354   75.6048 H   0  0  0  0  0  0  0  0  0  0  0  0
   -8.9807   65.2131   74.0739 H   0  0  0  0  0  0  0  0  0  0  0  0
  -10.7353   65.5979   74.0739 H   0  0  0  0  0  0  0  0  0  0  0  0
    2.7420   62.8601   73.1725 H   0  0  0  0  0  0  0  0  0  0  0  0
    1.4711   62.2693   72.0489 H   0  0  0  0  0  0  0  0  0  0  0  0
    1.9337   64.0050   72.0489 H   0  0  0  0  0  0  0  0  0  0  0  0
   -0.0972   62.8282   79.6923 H   0  0  0  0  0  0  0  0  0  0  0  0
    0.7425   61.5216   78.7898 H   0  0  0  0  0  0  0  0  0  0  0  0
    1.4137   63.1878   78.7898 H   0  0  0  0  0  0  0  0  0  0  0  0
    1.9516   58.0443   74.2945 H   0  0  0  0  0  0  0  0  0  0  0  0
    4.7892   61.3038   73.9319 H   0  0  0  0  0  0  0  0  0  0  0  0
    1.6559   56.5224   73.5527 H   0  0  0  0  0  0  0  0  0  0  0  0
    0.4221   56.4961   72.2474 H   0  0  0  0  0  0  0  0  0  0  0  0
    1.7554   55.2924   72.2474 H   0  0  0  0  0  0  0  0  0  0  0  0
    5.2033   62.6029   72.2015 H   0  0  0  0  0  0  0  0  0  0  0  0
    6.1111   62.5538   70.6523 H   0  0  0  0  0  0  0  0  0  0  0  0
    4.3242   62.3711   70.6523 H   0  0  0  0  0  0  0  0  0  0  0  0
    2.8200   60.3505   70.0766 H   0  0  0  0  0  0  0  0  0  0  0  0
    4.0795   60.1416   68.8129 H   0  0  0  0  0  0  0  0  0  0  0  0
    2.6239   59.0890   68.8129 H   0  0  0  0  0  0  0  0  0  0  0  0
  2  1  2  0
  3  2  1  0
  4  3  2  0
  5  4  1  0
  6  5  2  0
  6  1  1  0
  7  5  1  0
  8  7  1  0
  9  8  2  0
  9  4  1  0
 10  9  1  0
 11 10  1  0
 12 11  1  0
 13 12  1  0
 13  8  1  0
 14 13  1  0
 15 14  1  0
 16 15  1  0
 17 16  1  0
 17 12  1  0
 18 16  1  0
 19 18  1  0
 20 19  1  0
 21 20  1  0
 21 15  1  0
 23  1  1  0
 23 22  1  0
 24 21  1  0
 25 24  2  0
 26 24  1  0
 27 26  1  0
 28 20  1  0
 29 28  1  0
 30 19  1  0
 31 30  1  0
 32 31  2  0
 33 31  1  0
 34 33  2  0
 35 34  1  0
 36 35  2  0
 37 36  1  0
 38 37  2  0
 38 33  1  0
 39 35  1  0
 40 39  1  0
 41 37  1  0
 42 41  1  0
 43 36  1  0
 44 43  1  0
  2 45  1  0
  3 46  1  0
  6 47  1  0
  7 48  1  0
 10 49  1  0
 10 50  1  0
 11 51  1  0
 11 52  1  0
 12 53  1  1
 13 54  1  6
 14 55  1  0
 14 56  1  0
 15 57  1  1
 16 58  1  1
 17 59  1  0
 17 60  1  0
 18 61  1  0
 18 62  1  0
 19 63  1  1
 20 64  1  6
 21 65  1  6
 22 66  1  0
 22 67  1  0
 22 68  1  0
 27 69  1  0
 27 70  1  0
 27 71  1  0
 29 72  1  0
 29 73  1  0
 29 74  1  0
 34 75  1  0
 38 76  1  0
 40 77  1  0
 40 78  1  0
 40 79  1  0
 42 80  1  0
 42 81  1  0
 42 82  1  0
 44 83  1  0
 44 84  1  0
 44 85  1  0
M  CHG  1  12   1
M  END
>  <score>  (9) 
-6.358

$$$$
