=
     RDKit          3D

 28 29  0  0  0  0  0  0  0  0999 V2000
    2.3810   69.7550   67.8290 C   0  0  0  0  0  0  0  0  0  0  0  0
    1.6510   70.5650   68.3940 O   0  0  0  0  0  0  0  0  0  0  0  0
    4.5470   70.5530   68.7700 C   0  0  0  0  0  0  0  0  0  0  0  0
    5.9120   70.8200   68.6590 C   0  0  0  0  0  0  0  0  0  0  0  0
    6.5870   70.5130   67.4780 C   0  0  0  0  0  0  0  0  0  0  0  0
    5.9000   69.9350   66.4120 C   0  0  0  0  0  0  0  0  0  0  0  0
    4.5290   69.6770   66.5180 C   0  0  0  0  0  0  0  0  0  0  0  0
    3.8390   69.9960   67.6940 C   0  0  0  0  0  0  0  0  0  0  0  0
    3.9660   70.8640   69.9730 O   0  0  0  0  0  0  0  0  0  0  0  0
    2.0170   68.6310   67.1200 O   0  0  0  0  0  0  0  0  0  0  0  0
    1.0920   67.8230   67.7880 C   0  0  0  0  0  0  0  0  0  0  0  0
    1.5020   67.2130   68.9820 C   0  0  0  0  0  0  0  0  0  0  0  0
    0.5970   66.4520   69.7190 C   0  0  0  0  0  0  0  0  0  0  0  0
   -0.7140   66.3180   69.2730 C   0  0  0  0  0  0  0  0  0  0  0  0
   -1.1200   66.9480   68.0910 C   0  0  0  0  0  0  0  0  0  0  0  0
   -0.2260   67.7190   67.3220 C   0  0  0  0  0  0  0  0  0  0  0  0
   -0.7210   68.3910   66.0560 C   0  0  0  0  0  0  0  0  0  0  0  0
   -0.2470   67.9610   64.9560 O   0  0  0  0  0  0  0  0  0  0  0  0
   -1.5650   69.3370   66.1650 O   0  0  0  0  0  1  0  0  0  0  0  0
    6.4550   71.2721   69.5021 H   0  0  0  0  0  0  0  0  0  0  0  0
    7.6622   70.7271   67.3877 H   0  0  0  0  0  0  0  0  0  0  0  0
    6.4365   69.6813   65.4859 H   0  0  0  0  0  0  0  0  0  0  0  0
    3.9907   69.2215   65.6737 H   0  0  0  0  0  0  0  0  0  0  0  0
    3.0002   70.6980   70.1139 H   0  0  0  0  0  0  0  0  0  0  0  0
    2.5362   67.3350   69.3362 H   0  0  0  0  0  0  0  0  0  0  0  0
    0.9175   65.9596   70.6489 H   0  0  0  0  0  0  0  0  0  0  0  0
   -1.4320   65.7165   69.8498 H   0  0  0  0  0  0  0  0  0  0  0  0
   -2.1615   66.8386   67.7545 H   0  0  0  0  0  0  0  0  0  0  0  0
  2  1  2  0
  4  3  2  0
  5  4  1  0
  6  5  2  0
  7  6  1  0
  8  7  2  0
  8  3  1  0
  8  1  1  0
  9  3  1  0
 10  1  1  0
 11 10  1  0
 12 11  2  0
 13 12  1  0
 14 13  2  0
 15 14  1  0
 16 15  2  0
 16 11  1  0
 17 16  1  0
 18 17  2  0
 19 17  1  0
  4 20  1  0
  5 21  1  0
  6 22  1  0
  7 23  1  0
  9 24  1  0
 12 25  1  0
 13 26  1  0
 14 27  1  0
 15 28  1  0
M  CHG  1  19  -1
M  END
>  <score>  (1) 
-9.25

$$$$
=
     RDKit          3D

 28 29  0  0  0  0  0  0  0  0999 V2000
    2.8260   69.0150   66.5490 C   0  0  0  0  0  0  0  0  0  0  0  0
    2.9580   68.1290   65.7090 O   0  0  0  0  0  0  0  0  0  0  0  0
    5.1800   69.8130   66.3640 C   0  0  0  0  0  0  0  0  0  0  0  0
    6.3120   70.4380   66.8900 C   0  0  0  0  0  0  0  0  0  0  0  0
    6.2700   70.9880   68.1710 C   0  0  0  0  0  0  0  0  0  0  0  0
    5.0980   70.9200   68.9220 C   0  0  0  0  0  0  0  0  0  0  0  0
    3.9660   70.2860   68.4000 C   0  0  0  0  0  0  0  0  0  0  0  0
    4.0020   69.7150   67.1210 C   0  0  0  0  0  0  0  0  0  0  0  0
    5.3000   69.3180   65.0910 O   0  0  0  0  0  0  0  0  0  0  0  0
    1.6760   69.4050   67.2010 O   0  0  0  0  0  0  0  0  0  0  0  0
    0.9630   68.3420   67.7620 C   0  0  0  0  0  0  0  0  0  0  0  0
    1.4720   67.7580   68.9300 C   0  0  0  0  0  0  0  0  0  0  0  0
    0.7630   66.7390   69.5630 C   0  0  0  0  0  0  0  0  0  0  0  0
   -0.4570   66.3210   69.0400 C   0  0  0  0  0  0  0  0  0  0  0  0
   -0.9680   66.9250   67.8850 C   0  0  0  0  0  0  0  0  0  0  0  0
   -0.2720   67.9530   67.2210 C   0  0  0  0  0  0  0  0  0  0  0  0
   -0.8770   68.5820   65.9810 C   0  0  0  0  0  0  0  0  0  0  0  0
   -1.9030   69.3140   66.1540 O   0  0  0  0  0  0  0  0  0  0  0  0
   -0.3360   68.3410   64.8560 O   0  0  0  0  0  1  0  0  0  0  0  0
    7.2355   70.4966   66.2952 H   0  0  0  0  0  0  0  0  0  0  0  0
    7.1629   71.4760   68.5890 H   0  0  0  0  0  0  0  0  0  0  0  0
    5.0632   71.3657   69.9270 H   0  0  0  0  0  0  0  0  0  0  0  0
    3.0431   70.2354   68.9963 H   0  0  0  0  0  0  0  0  0  0  0  0
    4.5321   68.8636   64.6622 H   0  0  0  0  0  0  0  0  0  0  0  0
    2.4297   68.1035   69.3464 H   0  0  0  0  0  0  0  0  0  0  0  0
    1.1656   66.2674   70.4715 H   0  0  0  0  0  0  0  0  0  0  0  0
   -1.0201   65.5157   69.5343 H   0  0  0  0  0  0  0  0  0  0  0  0
   -1.9365   66.5883   67.4867 H   0  0  0  0  0  0  0  0  0  0  0  0
  2  1  2  0
  4  3  2  0
  5  4  1  0
  6  5  2  0
  7  6  1  0
  8  7  2  0
  8  3  1  0
  8  1  1  0
  9  3  1  0
 10  1  1  0
 11 10  1  0
 12 11  2  0
 13 12  1  0
 14 13  2  0
 15 14  1  0
 16 15  2  0
 16 11  1  0
 17 16  1  0
 18 17  2  0
 19 17  1  0
  4 20  1  0
  5 21  1  0
  6 22  1  0
  7 23  1  0
  9 24  1  0
 12 25  1  0
 13 26  1  0
 14 27  1  0
 15 28  1  0
M  CHG  1  19  -1
M  END
>  <score>  (2) 
-9.194

$$$$
=
     RDKit          3D

 28 29  0  0  0  0  0  0  0  0999 V2000
    1.6170   67.7340   66.1730 C   0  0  0  0  0  0  0  0  0  0  0  0
    2.1920   66.6550   66.2920 O   0  0  0  0  0  0  0  0  0  0  0  0
   -0.4150   67.1900   67.5120 C   0  0  0  0  0  0  0  0  0  0  0  0
   -1.7880   67.2650   67.7490 C   0  0  0  0  0  0  0  0  0  0  0  0
   -2.5980   68.0280   66.9080 C   0  0  0  0  0  0  0  0  0  0  0  0
   -2.0350   68.7190   65.8360 C   0  0  0  0  0  0  0  0  0  0  0  0
   -0.6610   68.6360   65.5910 C   0  0  0  0  0  0  0  0  0  0  0  0
    0.1590   67.8600   66.4200 C   0  0  0  0  0  0  0  0  0  0  0  0
    0.3110   66.4370   68.3980 O   0  0  0  0  0  0  0  0  0  0  0  0
    2.1190   68.9160   65.6730 O   0  0  0  0  0  0  0  0  0  0  0  0
    3.1980   69.4190   66.4050 C   0  0  0  0  0  0  0  0  0  0  0  0
    2.9510   69.8610   67.7120 C   0  0  0  0  0  0  0  0  0  0  0  0
    4.0060   70.3090   68.5040 C   0  0  0  0  0  0  0  0  0  0  0  0
    5.3020   70.2980   67.9970 C   0  0  0  0  0  0  0  0  0  0  0  0
    5.5420   69.8350   66.6980 C   0  0  0  0  0  0  0  0  0  0  0  0
    4.4950   69.3810   65.8720 C   0  0  0  0  0  0  0  0  0  0  0  0
    4.8120   68.8760   64.4780 C   0  0  0  0  0  0  0  0  0  0  0  0
    5.2040   69.7420   63.6310 O   0  0  0  0  0  0  0  0  0  0  0  0
    4.6630   67.6370   64.2360 O   0  0  0  0  0  1  0  0  0  0  0  0
   -2.2309   66.7233   68.5977 H   0  0  0  0  0  0  0  0  0  0  0  0
   -3.6813   68.0845   67.0906 H   0  0  0  0  0  0  0  0  0  0  0  0
   -2.6732   69.3308   65.1815 H   0  0  0  0  0  0  0  0  0  0  0  0
   -0.2220   69.1826   64.7434 H   0  0  0  0  0  0  0  0  0  0  0  0
    1.2901   66.3451   68.2835 H   0  0  0  0  0  0  0  0  0  0  0  0
    1.9262   69.8542   68.1116 H   0  0  0  0  0  0  0  0  0  0  0  0
    3.8155   70.6698   69.5255 H   0  0  0  0  0  0  0  0  0  0  0  0
    6.1381   70.6533   68.6173 H   0  0  0  0  0  0  0  0  0  0  0  0
    6.5724   69.8254   66.3131 H   0  0  0  0  0  0  0  0  0  0  0  0
  2  1  2  0
  4  3  2  0
  5  4  1  0
  6  5  2  0
  7  6  1  0
  8  7  2  0
  8  3  1  0
  8  1  1  0
  9  3  1  0
 10  1  1  0
 11 10  1  0
 12 11  2  0
 13 12  1  0
 14 13  2  0
 15 14  1  0
 16 15  2  0
 16 11  1  0
 17 16  1  0
 18 17  2  0
 19 17  1  0
  4 20  1  0
  5 21  1  0
  6 22  1  0
  7 23  1  0
  9 24  1  0
 12 25  1  0
 13 26  1  0
 14 27  1  0
 15 28  1  0
M  CHG  1  19  -1
M  END
>  <score>  (3) 
-9.072

$$$$
=
     RDKit          3D

 28 29  0  0  0  0  0  0  0  0999 V2000
    4.2600   69.3130   65.4330 C   0  0  0  0  0  0  0  0  0  0  0  0
    5.0330   69.7040   64.5620 O   0  0  0  0  0  0  0  0  0  0  0  0
    5.6380   70.1700   67.3250 C   0  0  0  0  0  0  0  0  0  0  0  0
    5.7870   70.5850   68.6500 C   0  0  0  0  0  0  0  0  0  0  0  0
    4.6760   70.6340   69.4910 C   0  0  0  0  0  0  0  0  0  0  0  0
    3.4180   70.2760   69.0090 C   0  0  0  0  0  0  0  0  0  0  0  0
    3.2700   69.8510   67.6850 C   0  0  0  0  0  0  0  0  0  0  0  0
    4.3810   69.7820   66.8350 C   0  0  0  0  0  0  0  0  0  0  0  0
    6.7760   70.1720   66.5600 O   0  0  0  0  0  0  0  0  0  0  0  0
    3.3050   68.3240   65.3420 O   0  0  0  0  0  0  0  0  0  0  0  0
    2.3630   68.5460   64.3330 C   0  0  0  0  0  0  0  0  0  0  0  0
    2.8400   68.7990   63.0400 C   0  0  0  0  0  0  0  0  0  0  0  0
    1.9410   68.9610   61.9880 C   0  0  0  0  0  0  0  0  0  0  0  0
    0.5740   68.8510   62.2260 C   0  0  0  0  0  0  0  0  0  0  0  0
    0.1090   68.5760   63.5170 C   0  0  0  0  0  0  0  0  0  0  0  0
    0.9930   68.4130   64.6010 C   0  0  0  0  0  0  0  0  0  0  0  0
    0.4360   68.1030   65.9770 C   0  0  0  0  0  0  0  0  0  0  0  0
    0.2420   66.8760   66.2530 O   0  0  0  0  0  0  0  0  0  0  0  0
    0.1920   69.0730   66.7620 O   0  0  0  0  0  1  0  0  0  0  0  0
    6.7786   70.8726   69.0294 H   0  0  0  0  0  0  0  0  0  0  0  0
    4.7924   70.9557   70.5365 H   0  0  0  0  0  0  0  0  0  0  0  0
    2.5408   70.3279   69.6708 H   0  0  0  0  0  0  0  0  0  0  0  0
    2.2754   69.5693   67.3090 H   0  0  0  0  0  0  0  0  0  0  0  0
    6.7359   69.8883   65.6124 H   0  0  0  0  0  0  0  0  0  0  0  0
    3.9222   68.8696   62.8559 H   0  0  0  0  0  0  0  0  0  0  0  0
    2.3098   69.1749   60.9740 H   0  0  0  0  0  0  0  0  0  0  0  0
   -0.1405   68.9802   61.3997 H   0  0  0  0  0  0  0  0  0  0  0  0
   -0.9736   68.4849   63.6892 H   0  0  0  0  0  0  0  0  0  0  0  0
  2  1  2  0
  4  3  2  0
  5  4  1  0
  6  5  2  0
  7  6  1  0
  8  7  2  0
  8  3  1  0
  8  1  1  0
  9  3  1  0
 10  1  1  0
 11 10  1  0
 12 11  2  0
 13 12  1  0
 14 13  2  0
 15 14  1  0
 16 15  2  0
 16 11  1  0
 17 16  1  0
 18 17  2  0
 19 17  1  0
  4 20  1  0
  5 21  1  0
  6 22  1  0
  7 23  1  0
  9 24  1  0
 12 25  1  0
 13 26  1  0
 14 27  1  0
 15 28  1  0
M  CHG  1  19  -1
M  END
>  <score>  (4) 
-8.883

$$$$
=
     RDKit          3D

 28 29  0  0  0  0  0  0  0  0999 V2000
    2.5940   69.4060   67.2800 C   0  0  0  0  0  0  0  0  0  0  0  0
    1.6200   70.0640   67.6380 O   0  0  0  0  0  0  0  0  0  0  0  0
    4.2760   70.4610   68.7880 C   0  0  0  0  0  0  0  0  0  0  0  0
    5.5600   70.9340   69.0570 C   0  0  0  0  0  0  0  0  0  0  0  0
    6.5650   70.8020   68.0990 C   0  0  0  0  0  0  0  0  0  0  0  0
    6.2870   70.1920   66.8770 C   0  0  0  0  0  0  0  0  0  0  0  0
    4.9980   69.7260   66.6020 C   0  0  0  0  0  0  0  0  0  0  0  0
    3.9770   69.8690   67.5510 C   0  0  0  0  0  0  0  0  0  0  0  0
    3.3530   70.6110   69.7920 O   0  0  0  0  0  0  0  0  0  0  0  0
    2.6150   68.2830   66.4810 O   0  0  0  0  0  0  0  0  0  0  0  0
    2.1510   68.5110   65.1830 C   0  0  0  0  0  0  0  0  0  0  0  0
    3.1010   68.7690   64.1850 C   0  0  0  0  0  0  0  0  0  0  0  0
    2.6930   68.9360   62.8640 C   0  0  0  0  0  0  0  0  0  0  0  0
    1.3440   68.8280   62.5400 C   0  0  0  0  0  0  0  0  0  0  0  0
    0.4040   68.5500   63.5400 C   0  0  0  0  0  0  0  0  0  0  0  0
    0.7860   68.3810   64.8850 C   0  0  0  0  0  0  0  0  0  0  0  0
   -0.2700   68.0670   65.9260 C   0  0  0  0  0  0  0  0  0  0  0  0
   -0.2440   66.9000   66.4350 O   0  0  0  0  0  0  0  0  0  0  0  0
   -1.1140   68.9710   66.2220 O   0  0  0  0  0  1  0  0  0  0  0  0
    5.7799   71.4107   70.0237 H   0  0  0  0  0  0  0  0  0  0  0  0
    7.5770   71.1793   68.3078 H   0  0  0  0  0  0  0  0  0  0  0  0
    7.0837   70.0770   66.1273 H   0  0  0  0  0  0  0  0  0  0  0  0
    4.7843   69.2448   65.6362 H   0  0  0  0  0  0  0  0  0  0  0  0
    2.4239   70.2950   69.6615 H   0  0  0  0  0  0  0  0  0  0  0  0
    4.1675   68.8395   64.4450 H   0  0  0  0  0  0  0  0  0  0  0  0
    3.4338   69.1523   62.0802 H   0  0  0  0  0  0  0  0  0  0  0  0
    1.0161   68.9610   61.4985 H   0  0  0  0  0  0  0  0  0  0  0  0
   -0.6583   68.4615   63.2685 H   0  0  0  0  0  0  0  0  0  0  0  0
  2  1  2  0
  4  3  2  0
  5  4  1  0
  6  5  2  0
  7  6  1  0
  8  7  2  0
  8  3  1  0
  8  1  1  0
  9  3  1  0
 10  1  1  0
 11 10  1  0
 12 11  2  0
 13 12  1  0
 14 13  2  0
 15 14  1  0
 16 15  2  0
 16 11  1  0
 17 16  1  0
 18 17  2  0
 19 17  1  0
  4 20  1  0
  5 21  1  0
  6 22  1  0
  7 23  1  0
  9 24  1  0
 12 25  1  0
 13 26  1  0
 14 27  1  0
 15 28  1  0
M  CHG  1  19  -1
M  END
>  <score>  (5) 
-8.876

$$$$
=
     RDKit          3D

 28 29  0  0  0  0  0  0  0  0999 V2000
    1.2780   69.2200   67.4880 C   0  0  0  0  0  0  0  0  0  0  0  0
    1.4390   70.3170   68.0160 O   0  0  0  0  0  0  0  0  0  0  0  0
   -0.3990   67.4240   67.9140 C   0  0  0  0  0  0  0  0  0  0  0  0
   -1.6560   66.8470   67.7300 C   0  0  0  0  0  0  0  0  0  0  0  0
   -2.6110   67.4960   66.9490 C   0  0  0  0  0  0  0  0  0  0  0  0
   -2.3130   68.7230   66.3580 C   0  0  0  0  0  0  0  0  0  0  0  0
   -1.0500   69.2970   66.5330 C   0  0  0  0  0  0  0  0  0  0  0  0
   -0.0780   68.6460   67.3020 C   0  0  0  0  0  0  0  0  0  0  0  0
    0.4740   66.7320   68.7150 O   0  0  0  0  0  0  0  0  0  0  0  0
    2.2380   68.2960   67.1350 O   0  0  0  0  0  0  0  0  0  0  0  0
    3.0170   68.6880   66.0430 C   0  0  0  0  0  0  0  0  0  0  0  0
    4.1710   69.4410   66.3010 C   0  0  0  0  0  0  0  0  0  0  0  0
    5.0160   69.7980   65.2520 C   0  0  0  0  0  0  0  0  0  0  0  0
    4.7160   69.3890   63.9560 C   0  0  0  0  0  0  0  0  0  0  0  0
    3.5730   68.6190   63.7110 C   0  0  0  0  0  0  0  0  0  0  0  0
    2.6980   68.2470   64.7500 C   0  0  0  0  0  0  0  0  0  0  0  0
    1.4810   67.4010   64.4320 C   0  0  0  0  0  0  0  0  0  0  0  0
    0.5790   67.9400   63.7140 O   0  0  0  0  0  0  0  0  0  0  0  0
    1.4280   66.2190   64.9000 O   0  0  0  0  0  1  0  0  0  0  0  0
   -1.8930   65.8814   68.2005 H   0  0  0  0  0  0  0  0  0  0  0  0
   -3.6005   67.0396   66.7989 H   0  0  0  0  0  0  0  0  0  0  0  0
   -3.0724   69.2403   65.7532 H   0  0  0  0  0  0  0  0  0  0  0  0
   -0.8190   70.2649   66.0641 H   0  0  0  0  0  0  0  0  0  0  0  0
    1.3813   67.0904   68.8836 H   0  0  0  0  0  0  0  0  0  0  0  0
    4.4091   69.7495   67.3297 H   0  0  0  0  0  0  0  0  0  0  0  0
    5.9156   70.4001   65.4473 H   0  0  0  0  0  0  0  0  0  0  0  0
    5.3775   69.6710   63.1236 H   0  0  0  0  0  0  0  0  0  0  0  0
    3.3530   68.2968   62.6825 H   0  0  0  0  0  0  0  0  0  0  0  0
  2  1  2  0
  4  3  2  0
  5  4  1  0
  6  5  2  0
  7  6  1  0
  8  7  2  0
  8  3  1  0
  8  1  1  0
  9  3  1  0
 10  1  1  0
 11 10  1  0
 12 11  2  0
 13 12  1  0
 14 13  2  0
 15 14  1  0
 16 15  2  0
 16 11  1  0
 17 16  1  0
 18 17  2  0
 19 17  1  0
  4 20  1  0
  5 21  1  0
  6 22  1  0
  7 23  1  0
  9 24  1  0
 12 25  1  0
 13 26  1  0
 14 27  1  0
 15 28  1  0
M  CHG  1  19  -1
M  END
>  <score>  (6) 
-8.811

$$$$
=
     RDKit          3D

 28 29  0  0  0  0  0  0  0  0999 V2000
    2.7050   69.0940   66.7000 C   0  0  0  0  0  0  0  0  0  0  0  0
    1.5980   69.4620   67.0830 O   0  0  0  0  0  0  0  0  0  0  0  0
    3.9740   70.2130   68.5320 C   0  0  0  0  0  0  0  0  0  0  0  0
    5.1170   70.8370   69.0320 C   0  0  0  0  0  0  0  0  0  0  0  0
    6.2510   70.9590   68.2300 C   0  0  0  0  0  0  0  0  0  0  0  0
    6.2440   70.4520   66.9310 C   0  0  0  0  0  0  0  0  0  0  0  0
    5.0960   69.8360   66.4250 C   0  0  0  0  0  0  0  0  0  0  0  0
    3.9460   69.7230   67.2160 C   0  0  0  0  0  0  0  0  0  0  0  0
    2.9110   70.1150   69.3930 O   0  0  0  0  0  0  0  0  0  0  0  0
    3.0050   68.2140   65.6830 O   0  0  0  0  0  0  0  0  0  0  0  0
    2.2880   68.4520   64.5070 C   0  0  0  0  0  0  0  0  0  0  0  0
    0.9050   68.6530   64.6150 C   0  0  0  0  0  0  0  0  0  0  0  0
    0.1570   68.9590   63.4810 C   0  0  0  0  0  0  0  0  0  0  0  0
    0.7920   69.0810   62.2480 C   0  0  0  0  0  0  0  0  0  0  0  0
    2.1770   68.9000   62.1540 C   0  0  0  0  0  0  0  0  0  0  0  0
    2.9590   68.5840   63.2820 C   0  0  0  0  0  0  0  0  0  0  0  0
    4.4570   68.4120   63.1260 C   0  0  0  0  0  0  0  0  0  0  0  0
    4.9040   67.2220   63.1740 O   0  0  0  0  0  0  0  0  0  0  0  0
    5.1710   69.4520   62.9660 O   0  0  0  0  0  1  0  0  0  0  0  0
    5.1237   71.2326   70.0584 H   0  0  0  0  0  0  0  0  0  0  0  0
    7.1511   71.4552   68.6220 H   0  0  0  0  0  0  0  0  0  0  0  0
    7.1435   70.5370   66.3035 H   0  0  0  0  0  0  0  0  0  0  0  0
    5.0958   69.4377   65.3996 H   0  0  0  0  0  0  0  0  0  0  0  0
    2.0716   69.6822   69.0959 H   0  0  0  0  0  0  0  0  0  0  0  0
    0.4112   68.5691   65.5943 H   0  0  0  0  0  0  0  0  0  0  0  0
   -0.9306   69.1037   63.5590 H   0  0  0  0  0  0  0  0  0  0  0  0
    0.2058   69.3195   61.3483 H   0  0  0  0  0  0  0  0  0  0  0  0
    2.6667   69.0072   61.1749 H   0  0  0  0  0  0  0  0  0  0  0  0
  2  1  2  0
  4  3  2  0
  5  4  1  0
  6  5  2  0
  7  6  1  0
  8  7  2  0
  8  3  1  0
  8  1  1  0
  9  3  1  0
 10  1  1  0
 11 10  1  0
 12 11  2  0
 13 12  1  0
 14 13  2  0
 15 14  1  0
 16 15  2  0
 16 11  1  0
 17 16  1  0
 18 17  2  0
 19 17  1  0
  4 20  1  0
  5 21  1  0
  6 22  1  0
  7 23  1  0
  9 24  1  0
 12 25  1  0
 13 26  1  0
 14 27  1  0
 15 28  1  0
M  CHG  1  19  -1
M  END
>  <score>  (7) 
-8.764

$$$$
=
     RDKit          3D

 28 29  0  0  0  0  0  0  0  0999 V2000
    4.5670   69.4460   65.1220 C   0  0  0  0  0  0  0  0  0  0  0  0
    5.6110   69.5360   64.4810 O   0  0  0  0  0  0  0  0  0  0  0  0
    5.6710   70.2920   67.1920 C   0  0  0  0  0  0  0  0  0  0  0  0
    5.6540   70.6240   68.5470 C   0  0  0  0  0  0  0  0  0  0  0  0
    4.4690   70.5130   69.2750 C   0  0  0  0  0  0  0  0  0  0  0  0
    3.3030   70.0750   68.6480 C   0  0  0  0  0  0  0  0  0  0  0  0
    3.3220   69.7320   67.2920 C   0  0  0  0  0  0  0  0  0  0  0  0
    4.5100   69.8240   66.5560 C   0  0  0  0  0  0  0  0  0  0  0  0
    6.8700   70.4510   66.5450 O   0  0  0  0  0  0  0  0  0  0  0  0
    3.3750   68.8750   64.7330 O   0  0  0  0  0  0  0  0  0  0  0  0
    3.4590   67.4970   64.5140 C   0  0  0  0  0  0  0  0  0  0  0  0
    4.5960   67.0100   63.8540 C   0  0  0  0  0  0  0  0  0  0  0  0
    4.7580   65.6380   63.6710 C   0  0  0  0  0  0  0  0  0  0  0  0
    3.7960   64.7590   64.1620 C   0  0  0  0  0  0  0  0  0  0  0  0
    2.6750   65.2540   64.8380 C   0  0  0  0  0  0  0  0  0  0  0  0
    2.4820   66.6360   65.0340 C   0  0  0  0  0  0  0  0  0  0  0  0
    1.2570   67.1180   65.7860 C   0  0  0  0  0  0  0  0  0  0  0  0
    1.2460   66.9270   67.0440 O   0  0  0  0  0  0  0  0  0  0  0  0
    0.3220   67.6720   65.1250 O   0  0  0  0  0  1  0  0  0  0  0  0
    6.5732   70.9726   69.0404 H   0  0  0  0  0  0  0  0  0  0  0  0
    4.4545   70.7711   70.3442 H   0  0  0  0  0  0  0  0  0  0  0  0
    2.3668   69.9991   69.2206 H   0  0  0  0  0  0  0  0  0  0  0  0
    2.3994   69.3884   66.8014 H   0  0  0  0  0  0  0  0  0  0  0  0
    6.9459   70.2322   65.5825 H   0  0  0  0  0  0  0  0  0  0  0  0
    5.3588   67.7095   63.4813 H   0  0  0  0  0  0  0  0  0  0  0  0
    5.6412   65.2514   63.1414 H   0  0  0  0  0  0  0  0  0  0  0  0
    3.9172   63.6752   64.0185 H   0  0  0  0  0  0  0  0  0  0  0  0
    1.9266   64.5472   65.2257 H   0  0  0  0  0  0  0  0  0  0  0  0
  2  1  2  0
  4  3  2  0
  5  4  1  0
  6  5  2  0
  7  6  1  0
  8  7  2  0
  8  3  1  0
  8  1  1  0
  9  3  1  0
 10  1  1  0
 11 10  1  0
 12 11  2  0
 13 12  1  0
 14 13  2  0
 15 14  1  0
 16 15  2  0
 16 11  1  0
 17 16  1  0
 18 17  2  0
 19 17  1  0
  4 20  1  0
  5 21  1  0
  6 22  1  0
  7 23  1  0
  9 24  1  0
 12 25  1  0
 13 26  1  0
 14 27  1  0
 15 28  1  0
M  CHG  1  19  -1
M  END
>  <score>  (8) 
-8.519

$$$$
=
     RDKit          3D

 28 29  0  0  0  0  0  0  0  0999 V2000
    2.4320   68.3210   65.8590 C   0  0  0  0  0  0  0  0  0  0  0  0
    2.2970   67.1100   66.0130 O   0  0  0  0  0  0  0  0  0  0  0  0
    2.4560   69.5110   68.0500 C   0  0  0  0  0  0  0  0  0  0  0  0
    3.0760   70.3180   69.0040 C   0  0  0  0  0  0  0  0  0  0  0  0
    4.3840   70.7580   68.7990 C   0  0  0  0  0  0  0  0  0  0  0  0
    5.0720   70.3860   67.6450 C   0  0  0  0  0  0  0  0  0  0  0  0
    4.4480   69.5860   66.6830 C   0  0  0  0  0  0  0  0  0  0  0  0
    3.1290   69.1520   66.8710 C   0  0  0  0  0  0  0  0  0  0  0  0
    1.1780   69.1040   68.3390 O   0  0  0  0  0  0  0  0  0  0  0  0
    1.8780   69.1230   64.8850 O   0  0  0  0  0  0  0  0  0  0  0  0
    2.5210   69.0280   63.6480 C   0  0  0  0  0  0  0  0  0  0  0  0
    3.9180   68.9120   63.6460 C   0  0  0  0  0  0  0  0  0  0  0  0
    4.6000   68.7480   62.4420 C   0  0  0  0  0  0  0  0  0  0  0  0
    3.8850   68.6820   61.2490 C   0  0  0  0  0  0  0  0  0  0  0  0
    2.4890   68.7770   61.2630 C   0  0  0  0  0  0  0  0  0  0  0  0
    1.7730   68.9490   62.4640 C   0  0  0  0  0  0  0  0  0  0  0  0
    0.2600   69.0320   62.4240 C   0  0  0  0  0  0  0  0  0  0  0  0
   -0.3800   67.9860   62.7640 O   0  0  0  0  0  0  0  0  0  0  0  0
   -0.2750   70.1240   62.0520 O   0  0  0  0  0  1  0  0  0  0  0  0
    2.5344   70.6071   69.9167 H   0  0  0  0  0  0  0  0  0  0  0  0
    4.8725   71.3985   69.5481 H   0  0  0  0  0  0  0  0  0  0  0  0
    6.1079   70.7225   67.4910 H   0  0  0  0  0  0  0  0  0  0  0  0
    4.9953   69.2958   65.7740 H   0  0  0  0  0  0  0  0  0  0  0  0
    0.6852   68.5295   67.7009 H   0  0  0  0  0  0  0  0  0  0  0  0
    4.4751   68.9504   64.5937 H   0  0  0  0  0  0  0  0  0  0  0  0
    5.6973   68.6711   62.4340 H   0  0  0  0  0  0  0  0  0  0  0  0
    4.4178   68.5551   60.2951 H   0  0  0  0  0  0  0  0  0  0  0  0
    1.9373   68.7159   60.3133 H   0  0  0  0  0  0  0  0  0  0  0  0
  2  1  2  0
  4  3  2  0
  5  4  1  0
  6  5  2  0
  7  6  1  0
  8  7  2  0
  8  3  1  0
  8  1  1  0
  9  3  1  0
 10  1  1  0
 11 10  1  0
 12 11  2  0
 13 12  1  0
 14 13  2  0
 15 14  1  0
 16 15  2  0
 16 11  1  0
 17 16  1  0
 18 17  2  0
 19 17  1  0
  4 20  1  0
  5 21  1  0
  6 22  1  0
  7 23  1  0
  9 24  1  0
 12 25  1  0
 13 26  1  0
 14 27  1  0
 15 28  1  0
M  CHG  1  19  -1
M  END
>  <score>  (9) 
-8.501

$$$$
