=
     RDKit          3D

 61 64  0  0  0  0  0  0  0  0999 V2000
    0.5720   66.1110   69.8190 C   0  0  0  0  0  0  0  0  0  0  0  0
    1.1410   67.1940   69.9200 O   0  0  0  0  0  0  0  0  0  0  0  0
   -0.5790   65.9360   69.0770 N   0  0  0  0  0  0  0  0  0  0  0  0
    4.2230   61.1900   72.0560 C   0  0  0  0  0  0  0  0  0  0  0  0
    4.9900   62.0310   71.2510 C   0  0  0  0  0  0  0  0  0  0  0  0
    4.4260   63.1620   70.6580 C   0  0  0  0  0  0  0  0  0  0  0  0
    3.0750   63.4710   70.8600 C   0  0  0  0  0  0  0  0  0  0  0  0
    2.2890   62.6250   71.6750 C   0  0  0  0  0  0  0  0  0  0  0  0
    2.8750   61.4900   72.2650 C   0  0  0  0  0  0  0  0  0  0  0  0
    0.9350   62.9400   71.8830 C   0  0  0  0  0  0  0  0  0  0  0  0
    0.3620   64.0700   71.2910 C   0  0  0  0  0  0  0  0  0  0  0  0
    1.1350   64.8970   70.4730 C   0  0  0  0  0  0  0  0  0  0  0  0
    2.4900   64.6040   70.2720 C   0  0  0  0  0  0  0  0  0  0  0  0
    4.1960   59.2790   73.4740 C   0  0  0  0  0  0  0  0  0  0  0  0
    4.9020   60.1220   72.5720 O   0  0  0  0  0  0  0  0  0  0  0  0
   -1.1870   67.0380   68.3620 C   0  0  0  0  0  0  0  0  0  0  0  0
   -0.7090   67.1170   66.9060 C   0  0  0  0  0  0  0  0  0  0  0  0
    0.7290   67.6350   66.7010 C   0  0  0  0  0  0  0  0  0  0  0  0
    0.9270   69.0600   67.2240 C   0  0  0  0  0  0  0  0  0  0  0  0
    2.3850   69.5040   67.1900 C   0  0  0  0  0  0  0  0  0  0  0  0
    3.1500   68.8160   66.0820 N   0  0  0  0  0  4  0  0  0  0  0  0
    2.2920   68.5420   64.8780 C   0  0  0  0  0  0  0  0  0  0  0  0
    1.2110   67.5230   65.2440 C   0  0  0  0  0  0  0  0  0  0  0  0
    4.4260   69.5610   65.7550 C   0  0  0  0  0  0  0  0  0  0  0  0
    5.1730   70.0130   66.9800 C   0  0  0  0  0  0  0  0  0  0  0  0
    6.5630   70.2100   66.9350 C   0  0  0  0  0  0  0  0  0  0  0  0
    7.2510   70.6530   68.0640 C   0  0  0  0  0  0  0  0  0  0  0  0
    6.5610   70.9030   69.2490 C   0  0  0  0  0  0  0  0  0  0  0  0
    5.1830   70.7050   69.3080 C   0  0  0  0  0  0  0  0  0  0  0  0
    4.4910   70.2610   68.1820 C   0  0  0  0  0  0  0  0  0  0  0  0
   -1.0135   65.0032   69.0313 H   0  0  0  0  0  0  0  0  0  0  0  0
    6.0521   61.8007   71.0811 H   0  0  0  0  0  0  0  0  0  0  0  0
    5.0472   63.8152   70.0275 H   0  0  0  0  0  0  0  0  0  0  0  0
    2.2638   60.8307   72.8988 H   0  0  0  0  0  0  0  0  0  0  0  0
    0.3180   62.2891   72.5198 H   0  0  0  0  0  0  0  0  0  0  0  0
   -0.6971   64.3074   71.4695 H   0  0  0  0  0  0  0  0  0  0  0  0
    3.1029   65.2693   69.6462 H   0  0  0  0  0  0  0  0  0  0  0  0
    4.4363   59.5659   74.5084 H   0  0  0  0  0  0  0  0  0  0  0  0
    3.1143   59.3862   73.3056 H   0  0  0  0  0  0  0  0  0  0  0  0
    4.4914   58.2329   73.3056 H   0  0  0  0  0  0  0  0  0  0  0  0
   -2.2790   66.9062   68.3699 H   0  0  0  0  0  0  0  0  0  0  0  0
   -0.8933   67.9709   68.8654 H   0  0  0  0  0  0  0  0  0  0  0  0
   -0.7687   66.1065   66.4755 H   0  0  0  0  0  0  0  0  0  0  0  0
   -1.3648   67.8509   66.4147 H   0  0  0  0  0  0  0  0  0  0  0  0
    1.3572   66.9653   67.3067 H   0  0  0  0  0  0  0  0  0  0  0  0
    0.3354   69.7480   66.6022 H   0  0  0  0  0  0  0  0  0  0  0  0
    0.6001   69.0760   68.2742 H   0  0  0  0  0  0  0  0  0  0  0  0
    2.4235   70.5914   67.0286 H   0  0  0  0  0  0  0  0  0  0  0  0
    2.8500   69.2328   68.1493 H   0  0  0  0  0  0  0  0  0  0  0  0
    3.4332   67.8876   66.4267 H   0  0  0  0  0  0  0  0  0  0  0  0
    1.8172   69.4769   64.5455 H   0  0  0  0  0  0  0  0  0  0  0  0
    2.9162   68.1393   64.0667 H   0  0  0  0  0  0  0  0  0  0  0  0
    0.3482   67.6769   64.5792 H   0  0  0  0  0  0  0  0  0  0  0  0
    1.6557   66.5238   65.1265 H   0  0  0  0  0  0  0  0  0  0  0  0
    5.0799   68.8967   65.1709 H   0  0  0  0  0  0  0  0  0  0  0  0
    4.1454   70.4619   65.1896 H   0  0  0  0  0  0  0  0  0  0  0  0
    7.1126   70.0134   66.0026 H   0  0  0  0  0  0  0  0  0  0  0  0
    8.3395   70.8054   68.0194 H   0  0  0  0  0  0  0  0  0  0  0  0
    7.1043   71.2566   70.1377 H   0  0  0  0  0  0  0  0  0  0  0  0
    4.6401   70.8994   70.2447 H   0  0  0  0  0  0  0  0  0  0  0  0
    3.4036   70.1040   68.2357 H   0  0  0  0  0  0  0  0  0  0  0  0
  2  1  2  0
  3  1  1  0
  5  4  2  0
  6  5  1  0
  7  6  2  0
  8  7  1  0
  9  8  2  0
  9  4  1  0
 10  8  1  0
 11 10  2  0
 12 11  1  0
 12  1  1  0
 13 12  2  0
 13  7  1  0
 15 14  1  0
 15  4  1  0
 16  3  1  0
 17 16  1  0
 18 17  1  0
 19 18  1  0
 20 19  1  0
 21 20  1  0
 22 21  1  0
 23 22  1  0
 23 18  1  0
 24 21  1  0
 25 24  1  0
 26 25  2  0
 27 26  1  0
 28 27  2  0
 29 28  1  0
 30 29  2  0
 30 25  1  0
  3 31  1  0
  5 32  1  0
  6 33  1  0
  9 34  1  0
 10 35  1  0
 11 36  1  0
 13 37  1  0
 14 38  1  0
 14 39  1  0
 14 40  1  0
 16 41  1  0
 16 42  1  0
 17 43  1  0
 17 44  1  0
 18 45  1  0
 19 46  1  0
 19 47  1  0
 20 48  1  0
 20 49  1  0
 21 50  1  0
 22 51  1  0
 22 52  1  0
 23 53  1  0
 23 54  1  0
 24 55  1  0
 24 56  1  0
 26 57  1  0
 27 58  1  0
 28 59  1  0
 29 60  1  0
 30 61  1  0
M  CHG  1  21   1
M  END
>  <score>  (1) 
-11.933

$$$$
=
     RDKit          3D

 61 64  0  0  0  0  0  0  0  0999 V2000
    0.5920   65.8870   69.9850 C   0  0  0  0  0  0  0  0  0  0  0  0
    1.1790   66.9270   70.2690 O   0  0  0  0  0  0  0  0  0  0  0  0
   -0.5000   65.8500   69.1400 N   0  0  0  0  0  0  0  0  0  0  0  0
    1.3660   60.0420   72.7740 C   0  0  0  0  0  0  0  0  0  0  0  0
    0.0570   60.4880   72.9470 C   0  0  0  0  0  0  0  0  0  0  0  0
   -0.3520   61.7180   72.4310 C   0  0  0  0  0  0  0  0  0  0  0  0
    0.5490   62.5300   71.7300 C   0  0  0  0  0  0  0  0  0  0  0  0
    1.8790   62.0870   71.5500 C   0  0  0  0  0  0  0  0  0  0  0  0
    2.2730   60.8420   72.0750 C   0  0  0  0  0  0  0  0  0  0  0  0
    2.7800   62.8990   70.8400 C   0  0  0  0  0  0  0  0  0  0  0  0
    2.3790   64.1340   70.3220 C   0  0  0  0  0  0  0  0  0  0  0  0
    1.0690   64.5800   70.5150 C   0  0  0  0  0  0  0  0  0  0  0  0
    0.1560   63.7720   71.2050 C   0  0  0  0  0  0  0  0  0  0  0  0
    2.2520   57.8500   72.4960 C   0  0  0  0  0  0  0  0  0  0  0  0
    1.6300   58.8210   73.3290 O   0  0  0  0  0  0  0  0  0  0  0  0
   -1.0200   67.0560   68.5320 C   0  0  0  0  0  0  0  0  0  0  0  0
   -0.6140   67.1810   67.0570 C   0  0  0  0  0  0  0  0  0  0  0  0
    0.8180   67.6910   66.7980 C   0  0  0  0  0  0  0  0  0  0  0  0
    1.0820   69.0630   67.4240 C   0  0  0  0  0  0  0  0  0  0  0  0
    2.5430   69.4850   67.3270 C   0  0  0  0  0  0  0  0  0  0  0  0
    3.2170   68.8810   66.1160 N   0  0  0  0  0  4  0  0  0  0  0  0
    2.2740   68.7240   64.9540 C   0  0  0  0  0  0  0  0  0  0  0  0
    1.1990   67.6950   65.3080 C   0  0  0  0  0  0  0  0  0  0  0  0
    4.4850   69.6300   65.7650 C   0  0  0  0  0  0  0  0  0  0  0  0
    5.2690   70.0560   66.9760 C   0  0  0  0  0  0  0  0  0  0  0  0
    6.6650   70.2020   66.9050 C   0  0  0  0  0  0  0  0  0  0  0  0
    7.3880   70.6200   68.0210 C   0  0  0  0  0  0  0  0  0  0  0  0
    6.7300   70.8950   69.2180 C   0  0  0  0  0  0  0  0  0  0  0  0
    5.3480   70.7470   69.3030 C   0  0  0  0  0  0  0  0  0  0  0  0
    4.6200   70.3290   68.1900 C   0  0  0  0  0  0  0  0  0  0  0  0
   -0.9528   64.9470   68.9388 H   0  0  0  0  0  0  0  0  0  0  0  0
   -0.6621   59.8630   73.4968 H   0  0  0  0  0  0  0  0  0  0  0  0
   -1.3898   62.0527   72.5757 H   0  0  0  0  0  0  0  0  0  0  0  0
    3.3071   60.4949   71.9332 H   0  0  0  0  0  0  0  0  0  0  0  0
    3.8150   62.5581   70.6898 H   0  0  0  0  0  0  0  0  0  0  0  0
    3.0946   64.7545   69.7626 H   0  0  0  0  0  0  0  0  0  0  0  0
   -0.8810   64.1143   71.3372 H   0  0  0  0  0  0  0  0  0  0  0  0
    2.7399   57.0884   73.1220 H   0  0  0  0  0  0  0  0  0  0  0  0
    1.4923   57.3709   71.8609 H   0  0  0  0  0  0  0  0  0  0  0  0
    3.0048   58.3399   71.8609 H   0  0  0  0  0  0  0  0  0  0  0  0
   -2.1179   67.0411   68.5975 H   0  0  0  0  0  0  0  0  0  0  0  0
   -0.5992   67.9164   69.0730 H   0  0  0  0  0  0  0  0  0  0  0  0
   -0.7072   66.1869   66.5955 H   0  0  0  0  0  0  0  0  0  0  0  0
   -1.2845   67.9384   66.6248 H   0  0  0  0  0  0  0  0  0  0  0  0
    1.4705   66.9621   67.3010 H   0  0  0  0  0  0  0  0  0  0  0  0
    0.4649   69.8109   66.9046 H   0  0  0  0  0  0  0  0  0  0  0  0
    0.8273   68.9944   68.4919 H   0  0  0  0  0  0  0  0  0  0  0  0
    2.5939   70.5814   67.2542 H   0  0  0  0  0  0  0  0  0  0  0  0
    3.0653   69.1265   68.2263 H   0  0  0  0  0  0  0  0  0  0  0  0
    3.5021   67.9224   66.3624 H   0  0  0  0  0  0  0  0  0  0  0  0
    1.7982   69.6911   64.7342 H   0  0  0  0  0  0  0  0  0  0  0  0
    2.8331   68.3824   64.0704 H   0  0  0  0  0  0  0  0  0  0  0  0
    0.2971   67.9175   64.7189 H   0  0  0  0  0  0  0  0  0  0  0  0
    1.6141   66.7026   65.0783 H   0  0  0  0  0  0  0  0  0  0  0  0
    5.1194   68.9761   65.1486 H   0  0  0  0  0  0  0  0  0  0  0  0
    4.1903   70.5422   65.2256 H   0  0  0  0  0  0  0  0  0  0  0  0
    7.1902   69.9851   65.9631 H   0  0  0  0  0  0  0  0  0  0  0  0
    8.4803   70.7330   67.9566 H   0  0  0  0  0  0  0  0  0  0  0  0
    7.3023   71.2291   70.0960 H   0  0  0  0  0  0  0  0  0  0  0  0
    4.8300   70.9602   70.2497 H   0  0  0  0  0  0  0  0  0  0  0  0
    3.5287   70.2123   68.2639 H   0  0  0  0  0  0  0  0  0  0  0  0
  2  1  2  0
  3  1  1  0
  5  4  2  0
  6  5  1  0
  7  6  2  0
  8  7  1  0
  9  8  2  0
  9  4  1  0
 10  8  1  0
 11 10  2  0
 12 11  1  0
 12  1  1  0
 13 12  2  0
 13  7  1  0
 15 14  1  0
 15  4  1  0
 16  3  1  0
 17 16  1  0
 18 17  1  0
 19 18  1  0
 20 19  1  0
 21 20  1  0
 22 21  1  0
 23 22  1  0
 23 18  1  0
 24 21  1  0
 25 24  1  0
 26 25  2  0
 27 26  1  0
 28 27  2  0
 29 28  1  0
 30 29  2  0
 30 25  1  0
  3 31  1  0
  5 32  1  0
  6 33  1  0
  9 34  1  0
 10 35  1  0
 11 36  1  0
 13 37  1  0
 14 38  1  0
 14 39  1  0
 14 40  1  0
 16 41  1  0
 16 42  1  0
 17 43  1  0
 17 44  1  0
 18 45  1  0
 19 46  1  0
 19 47  1  0
 20 48  1  0
 20 49  1  0
 21 50  1  0
 22 51  1  0
 22 52  1  0
 23 53  1  0
 23 54  1  0
 24 55  1  0
 24 56  1  0
 26 57  1  0
 27 58  1  0
 28 59  1  0
 29 60  1  0
 30 61  1  0
M  CHG  1  21   1
M  END
>  <score>  (2) 
-11.628

$$$$
=
     RDKit          3D

 61 64  0  0  0  0  0  0  0  0999 V2000
    1.2850   64.0170   70.6730 C   0  0  0  0  0  0  0  0  0  0  0  0
    2.1760   63.9890   69.8300 O   0  0  0  0  0  0  0  0  0  0  0  0
    0.5440   65.1510   70.9410 N   0  0  0  0  0  0  0  0  0  0  0  0
    0.9610   58.1910   73.5860 C   0  0  0  0  0  0  0  0  0  0  0  0
    2.1760   58.3260   72.9140 C   0  0  0  0  0  0  0  0  0  0  0  0
    2.4780   59.4950   72.2160 C   0  0  0  0  0  0  0  0  0  0  0  0
    1.5640   60.5550   72.1750 C   0  0  0  0  0  0  0  0  0  0  0  0
    0.3300   60.4280   72.8520 C   0  0  0  0  0  0  0  0  0  0  0  0
    0.0430   59.2420   73.5540 C   0  0  0  0  0  0  0  0  0  0  0  0
   -0.5840   61.4960   72.8170 C   0  0  0  0  0  0  0  0  0  0  0  0
   -0.2890   62.6700   72.1170 C   0  0  0  0  0  0  0  0  0  0  0  0
    0.9240   62.7890   71.4330 C   0  0  0  0  0  0  0  0  0  0  0  0
    1.8500   61.7400   71.4760 C   0  0  0  0  0  0  0  0  0  0  0  0
    1.9750   56.3080   74.6320 C   0  0  0  0  0  0  0  0  0  0  0  0
    0.7970   56.9960   74.2300 O   0  0  0  0  0  0  0  0  0  0  0  0
    0.7790   66.3880   70.2290 C   0  0  0  0  0  0  0  0  0  0  0  0
   -0.2920   66.6540   69.1630 C   0  0  0  0  0  0  0  0  0  0  0  0
    0.1860   67.4150   67.9090 C   0  0  0  0  0  0  0  0  0  0  0  0
   -0.9130   67.5720   66.8550 C   0  0  0  0  0  0  0  0  0  0  0  0
   -0.4980   68.4780   65.7010 C   0  0  0  0  0  0  0  0  0  0  0  0
    0.9960   68.4420   65.4750 N   0  0  0  0  0  4  0  0  0  0  0  0
    1.5910   67.0950   65.7850 C   0  0  0  0  0  0  0  0  0  0  0  0
    1.4540   66.8120   67.2820 C   0  0  0  0  0  0  0  0  0  0  0  0
    1.3530   68.9540   64.0960 C   0  0  0  0  0  0  0  0  0  0  0  0
    2.8370   68.9790   63.8450 C   0  0  0  0  0  0  0  0  0  0  0  0
    3.7260   69.3450   64.8690 C   0  0  0  0  0  0  0  0  0  0  0  0
    5.1020   69.3440   64.6430 C   0  0  0  0  0  0  0  0  0  0  0  0
    5.6040   68.9810   63.3950 C   0  0  0  0  0  0  0  0  0  0  0  0
    4.7330   68.6230   62.3690 C   0  0  0  0  0  0  0  0  0  0  0  0
    3.3560   68.6230   62.5910 C   0  0  0  0  0  0  0  0  0  0  0  0
   -0.1906   65.1153   71.6621 H   0  0  0  0  0  0  0  0  0  0  0  0
    2.9038   57.5014   72.9349 H   0  0  0  0  0  0  0  0  0  0  0  0
    3.4418   59.5850   71.6935 H   0  0  0  0  0  0  0  0  0  0  0  0
   -0.9160   59.1424   74.0835 H   0  0  0  0  0  0  0  0  0  0  0  0
   -1.5436   61.4068   73.3472 H   0  0  0  0  0  0  0  0  0  0  0  0
   -1.0113   63.4995   72.1047 H   0  0  0  0  0  0  0  0  0  0  0  0
    2.8137   61.8447   70.9560 H   0  0  0  0  0  0  0  0  0  0  0  0
    2.0256   56.2785   75.7304 H   0  0  0  0  0  0  0  0  0  0  0  0
    1.9523   55.2811   74.2382 H   0  0  0  0  0  0  0  0  0  0  0  0
    2.8582   56.8323   74.2382 H   0  0  0  0  0  0  0  0  0  0  0  0
    0.7752   67.2185   70.9503 H   0  0  0  0  0  0  0  0  0  0  0  0
    1.7504   66.3057   69.7194 H   0  0  0  0  0  0  0  0  0  0  0  0
   -0.6924   65.6828   68.8367 H   0  0  0  0  0  0  0  0  0  0  0  0
   -1.0371   67.3055   69.6429 H   0  0  0  0  0  0  0  0  0  0  0  0
    0.4468   68.4198   68.2728 H   0  0  0  0  0  0  0  0  0  0  0  0
   -1.1579   66.5784   66.4515 H   0  0  0  0  0  0  0  0  0  0  0  0
   -1.7802   68.0371   67.3466 H   0  0  0  0  0  0  0  0  0  0  0  0
   -1.0059   68.1438   64.7843 H   0  0  0  0  0  0  0  0  0  0  0  0
   -0.7830   69.5099   65.9540 H   0  0  0  0  0  0  0  0  0  0  0  0
    1.4295   69.0889   66.1491 H   0  0  0  0  0  0  0  0  0  0  0  0
    1.0597   66.3189   65.2146 H   0  0  0  0  0  0  0  0  0  0  0  0
    2.6550   67.0900   65.5057 H   0  0  0  0  0  0  0  0  0  0  0  0
    1.4302   65.7221   67.4291 H   0  0  0  0  0  0  0  0  0  0  0  0
    2.3149   67.2826   67.7794 H   0  0  0  0  0  0  0  0  0  0  0  0
    0.8815   68.3013   63.3466 H   0  0  0  0  0  0  0  0  0  0  0  0
    0.9893   69.9897   64.0247 H   0  0  0  0  0  0  0  0  0  0  0  0
    3.3343   69.6342   65.8554 H   0  0  0  0  0  0  0  0  0  0  0  0
    5.7917   69.6301   65.4507 H   0  0  0  0  0  0  0  0  0  0  0  0
    6.6900   68.9772   63.2198 H   0  0  0  0  0  0  0  0  0  0  0  0
    5.1311   68.3402   61.3833 H   0  0  0  0  0  0  0  0  0  0  0  0
    2.6718   68.3418   61.7769 H   0  0  0  0  0  0  0  0  0  0  0  0
  2  1  2  0
  3  1  1  0
  5  4  2  0
  6  5  1  0
  7  6  2  0
  8  7  1  0
  9  8  2  0
  9  4  1  0
 10  8  1  0
 11 10  2  0
 12 11  1  0
 12  1  1  0
 13 12  2  0
 13  7  1  0
 15 14  1  0
 15  4  1  0
 16  3  1  0
 17 16  1  0
 18 17  1  0
 19 18  1  0
 20 19  1  0
 21 20  1  0
 22 21  1  0
 23 22  1  0
 23 18  1  0
 24 21  1  0
 25 24  1  0
 26 25  2  0
 27 26  1  0
 28 27  2  0
 29 28  1  0
 30 29  2  0
 30 25  1  0
  3 31  1  0
  5 32  1  0
  6 33  1  0
  9 34  1  0
 10 35  1  0
 11 36  1  0
 13 37  1  0
 14 38  1  0
 14 39  1  0
 14 40  1  0
 16 41  1  0
 16 42  1  0
 17 43  1  0
 17 44  1  0
 18 45  1  0
 19 46  1  0
 19 47  1  0
 20 48  1  0
 20 49  1  0
 21 50  1  0
 22 51  1  0
 22 52  1  0
 23 53  1  0
 23 54  1  0
 24 55  1  0
 24 56  1  0
 26 57  1  0
 27 58  1  0
 28 59  1  0
 29 60  1  0
 30 61  1  0
M  CHG  1  21   1
M  END
>  <score>  (3) 
-11.101

$$$$
=
     RDKit          3D

 61 64  0  0  0  0  0  0  0  0999 V2000
    1.4180   64.1140   70.5910 C   0  0  0  0  0  0  0  0  0  0  0  0
    2.2970   64.1510   69.7350 O   0  0  0  0  0  0  0  0  0  0  0  0
    0.6190   65.2000   70.8900 N   0  0  0  0  0  0  0  0  0  0  0  0
   -1.0510   59.1950   74.0890 C   0  0  0  0  0  0  0  0  0  0  0  0
   -1.9820   60.2290   73.9890 C   0  0  0  0  0  0  0  0  0  0  0  0
   -1.6810   61.3930   73.2810 C   0  0  0  0  0  0  0  0  0  0  0  0
   -0.4360   61.5450   72.6580 C   0  0  0  0  0  0  0  0  0  0  0  0
    0.5140   60.5030   72.7540 C   0  0  0  0  0  0  0  0  0  0  0  0
    0.1930   59.3350   73.4710 C   0  0  0  0  0  0  0  0  0  0  0  0
    1.7610   60.6530   72.1220 C   0  0  0  0  0  0  0  0  0  0  0  0
    2.0710   61.8170   71.4130 C   0  0  0  0  0  0  0  0  0  0  0  0
    1.1380   62.8550   71.3330 C   0  0  0  0  0  0  0  0  0  0  0  0
   -0.1150   62.7100   71.9420 C   0  0  0  0  0  0  0  0  0  0  0  0
   -0.4880   57.1780   75.2220 C   0  0  0  0  0  0  0  0  0  0  0  0
   -1.4770   58.1140   74.8100 O   0  0  0  0  0  0  0  0  0  0  0  0
    0.7750   66.4610   70.1980 C   0  0  0  0  0  0  0  0  0  0  0  0
   -0.2770   66.6490   69.0960 C   0  0  0  0  0  0  0  0  0  0  0  0
    0.1940   67.4190   67.8460 C   0  0  0  0  0  0  0  0  0  0  0  0
   -0.9100   67.5820   66.7980 C   0  0  0  0  0  0  0  0  0  0  0  0
   -0.5010   68.4960   65.6480 C   0  0  0  0  0  0  0  0  0  0  0  0
    0.9920   68.4610   65.4140 N   0  0  0  0  0  4  0  0  0  0  0  0
    1.5880   67.1130   65.7120 C   0  0  0  0  0  0  0  0  0  0  0  0
    1.4590   66.8190   67.2080 C   0  0  0  0  0  0  0  0  0  0  0  0
    1.3410   68.9830   64.0360 C   0  0  0  0  0  0  0  0  0  0  0  0
    2.8190   68.9490   63.7530 C   0  0  0  0  0  0  0  0  0  0  0  0
    3.2940   68.5320   62.4990 C   0  0  0  0  0  0  0  0  0  0  0  0
    4.6620   68.5240   62.2290 C   0  0  0  0  0  0  0  0  0  0  0  0
    5.5690   68.9300   63.2050 C   0  0  0  0  0  0  0  0  0  0  0  0
    5.1110   69.3390   64.4550 C   0  0  0  0  0  0  0  0  0  0  0  0
    3.7430   69.3480   64.7300 C   0  0  0  0  0  0  0  0  0  0  0  0
   -0.1021   65.1105   71.6200 H   0  0  0  0  0  0  0  0  0  0  0  0
   -2.9641   60.1256   74.4736 H   0  0  0  0  0  0  0  0  0  0  0  0
   -2.4276   62.1978   73.2116 H   0  0  0  0  0  0  0  0  0  0  0  0
    0.9312   58.5228   73.5453 H   0  0  0  0  0  0  0  0  0  0  0  0
    2.5027   59.8433   72.1864 H   0  0  0  0  0  0  0  0  0  0  0  0
    3.0485   61.9162   70.9183 H   0  0  0  0  0  0  0  0  0  0  0  0
   -0.8565   63.5182   71.8585 H   0  0  0  0  0  0  0  0  0  0  0  0
   -0.4512   57.1432   76.3208 H   0  0  0  0  0  0  0  0  0  0  0  0
   -0.7414   56.1812   74.8319 H   0  0  0  0  0  0  0  0  0  0  0  0
    0.4933   57.4859   74.8319 H   0  0  0  0  0  0  0  0  0  0  0  0
    0.6762   67.2797   70.9260 H   0  0  0  0  0  0  0  0  0  0  0  0
    1.7673   66.4664   69.7234 H   0  0  0  0  0  0  0  0  0  0  0  0
   -0.6099   65.6516   68.7730 H   0  0  0  0  0  0  0  0  0  0  0  0
   -1.0733   67.2621   69.5433 H   0  0  0  0  0  0  0  0  0  0  0  0
    0.4558   68.4215   68.2154 H   0  0  0  0  0  0  0  0  0  0  0  0
   -1.1559   66.5909   66.3891 H   0  0  0  0  0  0  0  0  0  0  0  0
   -1.7753   68.0431   67.2966 H   0  0  0  0  0  0  0  0  0  0  0  0
   -1.0138   68.1683   64.7317 H   0  0  0  0  0  0  0  0  0  0  0  0
   -0.7844   69.5262   65.9095 H   0  0  0  0  0  0  0  0  0  0  0  0
    1.4301   69.1027   66.0902 H   0  0  0  0  0  0  0  0  0  0  0  0
    1.0537   66.3409   65.1390 H   0  0  0  0  0  0  0  0  0  0  0  0
    2.6506   67.1104   65.4276 H   0  0  0  0  0  0  0  0  0  0  0  0
    1.4350   65.7281   67.3474 H   0  0  0  0  0  0  0  0  0  0  0  0
    2.3231   67.2849   67.7043 H   0  0  0  0  0  0  0  0  0  0  0  0
    0.8258   68.3650   63.2859 H   0  0  0  0  0  0  0  0  0  0  0  0
    1.0206   70.0343   63.9907 H   0  0  0  0  0  0  0  0  0  0  0  0
    2.5823   68.2096   61.7247 H   0  0  0  0  0  0  0  0  0  0  0  0
    5.0254   68.1966   61.2437 H   0  0  0  0  0  0  0  0  0  0  0  0
    6.6475   68.9276   62.9884 H   0  0  0  0  0  0  0  0  0  0  0  0
    5.8285   69.6553   65.2264 H   0  0  0  0  0  0  0  0  0  0  0  0
    3.3868   69.6702   65.7196 H   0  0  0  0  0  0  0  0  0  0  0  0
  2  1  2  0
  3  1  1  0
  5  4  2  0
  6  5  1  0
  7  6  2  0
  8  7  1  0
  9  8  2  0
  9  4  1  0
 10  8  1  0
 11 10  2  0
 12 11  1  0
 12  1  1  0
 13 12  2  0
 13  7  1  0
 15 14  1  0
 15  4  1  0
 16  3  1  0
 17 16  1  0
 18 17  1  0
 19 18  1  0
 20 19  1  0
 21 20  1  0
 22 21  1  0
 23 22  1  0
 23 18  1  0
 24 21  1  0
 25 24  1  0
 26 25  2  0
 27 26  1  0
 28 27  2  0
 29 28  1  0
 30 29  2  0
 30 25  1  0
  3 31  1  0
  5 32  1  0
  6 33  1  0
  9 34  1  0
 10 35  1  0
 11 36  1  0
 13 37  1  0
 14 38  1  0
 14 39  1  0
 14 40  1  0
 16 41  1  0
 16 42  1  0
 17 43  1  0
 17 44  1  0
 18 45  1  0
 19 46  1  0
 19 47  1  0
 20 48  1  0
 20 49  1  0
 21 50  1  0
 22 51  1  0
 22 52  1  0
 23 53  1  0
 23 54  1  0
 24 55  1  0
 24 56  1  0
 26 57  1  0
 27 58  1  0
 28 59  1  0
 29 60  1  0
 30 61  1  0
M  CHG  1  21   1
M  END
>  <score>  (4) 
-11.095

$$$$
=
     RDKit          3D

 61 64  0  0  0  0  0  0  0  0999 V2000
   -0.2370   67.1540   68.1210 C   0  0  0  0  0  0  0  0  0  0  0  0
   -1.3600   66.8560   68.5150 O   0  0  0  0  0  0  0  0  0  0  0  0
    0.8950   66.9900   68.8950 N   0  0  0  0  0  0  0  0  0  0  0  0
    1.8860   68.7820   62.1730 C   0  0  0  0  0  0  0  0  0  0  0  0
    2.8380   67.9990   62.8260 C   0  0  0  0  0  0  0  0  0  0  0  0
    2.6060   67.5240   64.1170 C   0  0  0  0  0  0  0  0  0  0  0  0
    1.4120   67.8270   64.7830 C   0  0  0  0  0  0  0  0  0  0  0  0
    0.4410   68.6200   64.1300 C   0  0  0  0  0  0  0  0  0  0  0  0
    0.6910   69.0890   62.8270 C   0  0  0  0  0  0  0  0  0  0  0  0
   -0.7600   68.9180   64.7960 C   0  0  0  0  0  0  0  0  0  0  0  0
   -0.9990   68.4480   66.0910 C   0  0  0  0  0  0  0  0  0  0  0  0
   -0.0320   67.6780   66.7430 C   0  0  0  0  0  0  0  0  0  0  0  0
    1.1610   67.3590   66.0830 C   0  0  0  0  0  0  0  0  0  0  0  0
    3.5830   68.9310   60.5110 C   0  0  0  0  0  0  0  0  0  0  0  0
    2.2420   69.1780   60.9140 O   0  0  0  0  0  0  0  0  0  0  0  0
    0.8180   66.4450   70.2340 C   0  0  0  0  0  0  0  0  0  0  0  0
    0.4220   64.9630   70.2330 C   0  0  0  0  0  0  0  0  0  0  0  0
    1.2980   64.0360   71.1000 C   0  0  0  0  0  0  0  0  0  0  0  0
    2.5230   63.5050   70.3500 C   0  0  0  0  0  0  0  0  0  0  0  0
    3.4830   62.7410   71.2550 C   0  0  0  0  0  0  0  0  0  0  0  0
    2.7580   62.0910   72.4120 N   0  0  0  0  0  4  0  0  0  0  0  0
    1.3690   61.6500   72.0420 C   0  0  0  0  0  0  0  0  0  0  0  0
    0.5100   62.8780   71.7350 C   0  0  0  0  0  0  0  0  0  0  0  0
    3.5940   60.9910   73.0320 C   0  0  0  0  0  0  0  0  0  0  0  0
    3.2460   59.6240   72.5090 C   0  0  0  0  0  0  0  0  0  0  0  0
    2.3890   58.7810   73.2360 C   0  0  0  0  0  0  0  0  0  0  0  0
    2.0480   57.5230   72.7390 C   0  0  0  0  0  0  0  0  0  0  0  0
    2.5570   57.0940   71.5150 C   0  0  0  0  0  0  0  0  0  0  0  0
    3.4130   57.9180   70.7880 C   0  0  0  0  0  0  0  0  0  0  0  0
    3.7580   59.1760   71.2810 C   0  0  0  0  0  0  0  0  0  0  0  0
    1.8120   67.2608   68.5121 H   0  0  0  0  0  0  0  0  0  0  0  0
    3.7819   67.7534   62.3174 H   0  0  0  0  0  0  0  0  0  0  0  0
    3.3673   66.9063   64.6159 H   0  0  0  0  0  0  0  0  0  0  0  0
   -0.0644   69.7051   62.3173 H   0  0  0  0  0  0  0  0  0  0  0  0
   -1.5226   69.5295   64.2916 H   0  0  0  0  0  0  0  0  0  0  0  0
   -1.9472   68.6841   66.5961 H   0  0  0  0  0  0  0  0  0  0  0  0
    1.9112   66.7338   66.5893 H   0  0  0  0  0  0  0  0  0  0  0  0
    4.2179   68.8141   61.4016 H   0  0  0  0  0  0  0  0  0  0  0  0
    3.6216   68.0106   59.9098 H   0  0  0  0  0  0  0  0  0  0  0  0
    3.9470   69.7772   59.9098 H   0  0  0  0  0  0  0  0  0  0  0  0
    1.8012   66.5489   70.7161 H   0  0  0  0  0  0  0  0  0  0  0  0
    0.0435   67.0018   70.7818 H   0  0  0  0  0  0  0  0  0  0  0  0
   -0.6128   64.8895   70.5988 H   0  0  0  0  0  0  0  0  0  0  0  0
    0.5545   64.6180   69.1970 H   0  0  0  0  0  0  0  0  0  0  0  0
    1.6577   64.6755   71.9196 H   0  0  0  0  0  0  0  0  0  0  0  0
    2.1811   62.8307   69.5510 H   0  0  0  0  0  0  0  0  0  0  0  0
    3.0666   64.3721   69.9466 H   0  0  0  0  0  0  0  0  0  0  0  0
    3.9855   61.9606   70.6647 H   0  0  0  0  0  0  0  0  0  0  0  0
    4.2130   63.4552   71.6636 H   0  0  0  0  0  0  0  0  0  0  0  0
    2.6274   62.8062   73.1416 H   0  0  0  0  0  0  0  0  0  0  0  0
    1.4140   61.0025   71.1539 H   0  0  0  0  0  0  0  0  0  0  0  0
    0.9256   61.0920   72.8799 H   0  0  0  0  0  0  0  0  0  0  0  0
   -0.2891   62.5789   71.0407 H   0  0  0  0  0  0  0  0  0  0  0  0
    0.1148   63.2438   72.6942 H   0  0  0  0  0  0  0  0  0  0  0  0
    4.6536   61.1906   72.8141 H   0  0  0  0  0  0  0  0  0  0  0  0
    3.3904   60.9919   74.1130 H   0  0  0  0  0  0  0  0  0  0  0  0
    1.9845   59.1149   74.2029 H   0  0  0  0  0  0  0  0  0  0  0  0
    1.3763   56.8688   73.3142 H   0  0  0  0  0  0  0  0  0  0  0  0
    2.2826   56.1037   71.1224 H   0  0  0  0  0  0  0  0  0  0  0  0
    3.8173   57.5760   69.8239 H   0  0  0  0  0  0  0  0  0  0  0  0
    4.4360   59.8218   70.7037 H   0  0  0  0  0  0  0  0  0  0  0  0
  2  1  2  0
  3  1  1  0
  5  4  2  0
  6  5  1  0
  7  6  2  0
  8  7  1  0
  9  8  2  0
  9  4  1  0
 10  8  1  0
 11 10  2  0
 12 11  1  0
 12  1  1  0
 13 12  2  0
 13  7  1  0
 15 14  1  0
 15  4  1  0
 16  3  1  0
 17 16  1  0
 18 17  1  0
 19 18  1  0
 20 19  1  0
 21 20  1  0
 22 21  1  0
 23 22  1  0
 23 18  1  0
 24 21  1  0
 25 24  1  0
 26 25  2  0
 27 26  1  0
 28 27  2  0
 29 28  1  0
 30 29  2  0
 30 25  1  0
  3 31  1  0
  5 32  1  0
  6 33  1  0
  9 34  1  0
 10 35  1  0
 11 36  1  0
 13 37  1  0
 14 38  1  0
 14 39  1  0
 14 40  1  0
 16 41  1  0
 16 42  1  0
 17 43  1  0
 17 44  1  0
 18 45  1  0
 19 46  1  0
 19 47  1  0
 20 48  1  0
 20 49  1  0
 21 50  1  0
 22 51  1  0
 22 52  1  0
 23 53  1  0
 23 54  1  0
 24 55  1  0
 24 56  1  0
 26 57  1  0
 27 58  1  0
 28 59  1  0
 29 60  1  0
 30 61  1  0
M  CHG  1  21   1
M  END
>  <score>  (5) 
-10.751

$$$$
=
     RDKit          3D

 61 64  0  0  0  0  0  0  0  0999 V2000
    0.2360   67.2330   68.3180 C   0  0  0  0  0  0  0  0  0  0  0  0
   -0.9850   67.2120   68.1960 O   0  0  0  0  0  0  0  0  0  0  0  0
    0.8780   66.8630   69.4830 N   0  0  0  0  0  0  0  0  0  0  0  0
    4.8200   69.5580   64.3040 C   0  0  0  0  0  0  0  0  0  0  0  0
    5.1180   69.8980   65.6220 C   0  0  0  0  0  0  0  0  0  0  0  0
    4.2810   69.5060   66.6670 C   0  0  0  0  0  0  0  0  0  0  0  0
    3.1220   68.7640   66.4090 C   0  0  0  0  0  0  0  0  0  0  0  0
    2.8100   68.4140   65.0750 C   0  0  0  0  0  0  0  0  0  0  0  0
    3.6680   68.8160   64.0340 C   0  0  0  0  0  0  0  0  0  0  0  0
    1.6510   67.6620   64.8170 C   0  0  0  0  0  0  0  0  0  0  0  0
    0.8050   67.2670   65.8580 C   0  0  0  0  0  0  0  0  0  0  0  0
    1.1030   67.6280   67.1750 C   0  0  0  0  0  0  0  0  0  0  0  0
    2.2660   68.3610   67.4470 C   0  0  0  0  0  0  0  0  0  0  0  0
    5.7880   69.3090   62.1430 C   0  0  0  0  0  0  0  0  0  0  0  0
    5.7260   70.0050   63.3820 O   0  0  0  0  0  0  0  0  0  0  0  0
    0.1350   66.4190   70.6420 C   0  0  0  0  0  0  0  0  0  0  0  0
   -0.1470   64.9110   70.6060 C   0  0  0  0  0  0  0  0  0  0  0  0
    0.8620   64.0230   71.3620 C   0  0  0  0  0  0  0  0  0  0  0  0
    2.0300   63.5690   70.4820 C   0  0  0  0  0  0  0  0  0  0  0  0
    3.1170   62.8480   71.2720 C   0  0  0  0  0  0  0  0  0  0  0  0
    2.5510   62.1460   72.4850 N   0  0  0  0  0  4  0  0  0  0  0  0
    1.1560   61.6330   72.2520 C   0  0  0  0  0  0  0  0  0  0  0  0
    0.2060   62.8160   72.0550 C   0  0  0  0  0  0  0  0  0  0  0  0
    3.5040   61.0870   72.9970 C   0  0  0  0  0  0  0  0  0  0  0  0
    3.2190   59.7200   72.4350 C   0  0  0  0  0  0  0  0  0  0  0  0
    2.4530   58.7960   73.1640 C   0  0  0  0  0  0  0  0  0  0  0  0
    2.1690   57.5380   72.6310 C   0  0  0  0  0  0  0  0  0  0  0  0
    2.6470   57.1900   71.3700 C   0  0  0  0  0  0  0  0  0  0  0  0
    3.4140   58.0960   70.6400 C   0  0  0  0  0  0  0  0  0  0  0  0
    3.7010   59.3540   71.1690 C   0  0  0  0  0  0  0  0  0  0  0  0
    1.9062   66.9039   69.5277 H   0  0  0  0  0  0  0  0  0  0  0  0
    6.0238   70.4823   65.8411 H   0  0  0  0  0  0  0  0  0  0  0  0
    4.5335   69.7819   67.7015 H   0  0  0  0  0  0  0  0  0  0  0  0
    3.4284   68.5426   62.9958 H   0  0  0  0  0  0  0  0  0  0  0  0
    1.4061   67.3804   63.7823 H   0  0  0  0  0  0  0  0  0  0  0  0
   -0.0946   66.6725   65.6405 H   0  0  0  0  0  0  0  0  0  0  0  0
    2.5115   68.6240   68.4865 H   0  0  0  0  0  0  0  0  0  0  0  0
    5.8841   68.2298   62.3331 H   0  0  0  0  0  0  0  0  0  0  0  0
    4.8693   69.4998   61.5689 H   0  0  0  0  0  0  0  0  0  0  0  0
    6.6585   69.6592   61.5689 H   0  0  0  0  0  0  0  0  0  0  0  0
    0.7178   66.6491   71.5461 H   0  0  0  0  0  0  0  0  0  0  0  0
   -0.8318   66.9437   70.6451 H   0  0  0  0  0  0  0  0  0  0  0  0
   -1.1411   64.7426   71.0459 H   0  0  0  0  0  0  0  0  0  0  0  0
   -0.0710   64.6173   69.5487 H   0  0  0  0  0  0  0  0  0  0  0  0
    1.2702   64.6716   72.1511 H   0  0  0  0  0  0  0  0  0  0  0  0
    1.6445   62.8864   69.7103 H   0  0  0  0  0  0  0  0  0  0  0  0
    2.4823   64.4691   70.0401 H   0  0  0  0  0  0  0  0  0  0  0  0
    3.5973   62.1032   70.6204 H   0  0  0  0  0  0  0  0  0  0  0  0
    3.8455   63.5967   71.6167 H   0  0  0  0  0  0  0  0  0  0  0  0
    2.4579   62.8447   73.2360 H   0  0  0  0  0  0  0  0  0  0  0  0
    1.1435   60.9987   71.3534 H   0  0  0  0  0  0  0  0  0  0  0  0
    0.8318   61.0421   73.1213 H   0  0  0  0  0  0  0  0  0  0  0  0
   -0.6433   62.4817   71.4411 H   0  0  0  0  0  0  0  0  0  0  0  0
   -0.1070   63.1489   73.0556 H   0  0  0  0  0  0  0  0  0  0  0  0
    4.5290   61.3737   72.7193 H   0  0  0  0  0  0  0  0  0  0  0  0
    3.3761   61.0281   74.0880 H   0  0  0  0  0  0  0  0  0  0  0  0
    2.0746   59.0654   74.1611 H   0  0  0  0  0  0  0  0  0  0  0  0
    1.5669   56.8203   73.2075 H   0  0  0  0  0  0  0  0  0  0  0  0
    2.4189   56.1993   70.9500 H   0  0  0  0  0  0  0  0  0  0  0  0
    3.7934   57.8186   69.6455 H   0  0  0  0  0  0  0  0  0  0  0  0
    4.3094   60.0643   70.5899 H   0  0  0  0  0  0  0  0  0  0  0  0
  2  1  2  0
  3  1  1  0
  5  4  2  0
  6  5  1  0
  7  6  2  0
  8  7  1  0
  9  8  2  0
  9  4  1  0
 10  8  1  0
 11 10  2  0
 12 11  1  0
 12  1  1  0
 13 12  2  0
 13  7  1  0
 15 14  1  0
 15  4  1  0
 16  3  1  0
 17 16  1  0
 18 17  1  0
 19 18  1  0
 20 19  1  0
 21 20  1  0
 22 21  1  0
 23 22  1  0
 23 18  1  0
 24 21  1  0
 25 24  1  0
 26 25  2  0
 27 26  1  0
 28 27  2  0
 29 28  1  0
 30 29  2  0
 30 25  1  0
  3 31  1  0
  5 32  1  0
  6 33  1  0
  9 34  1  0
 10 35  1  0
 11 36  1  0
 13 37  1  0
 14 38  1  0
 14 39  1  0
 14 40  1  0
 16 41  1  0
 16 42  1  0
 17 43  1  0
 17 44  1  0
 18 45  1  0
 19 46  1  0
 19 47  1  0
 20 48  1  0
 20 49  1  0
 21 50  1  0
 22 51  1  0
 22 52  1  0
 23 53  1  0
 23 54  1  0
 24 55  1  0
 24 56  1  0
 26 57  1  0
 27 58  1  0
 28 59  1  0
 29 60  1  0
 30 61  1  0
M  CHG  1  21   1
M  END
>  <score>  (6) 
-10.555

$$$$
=
     RDKit          3D

 61 64  0  0  0  0  0  0  0  0999 V2000
    0.9830   67.2750   68.7520 C   0  0  0  0  0  0  0  0  0  0  0  0
    1.7620   67.8730   69.4880 O   0  0  0  0  0  0  0  0  0  0  0  0
    0.2810   66.1560   69.1560 N   0  0  0  0  0  0  0  0  0  0  0  0
    1.1700   69.0870   62.4890 C   0  0  0  0  0  0  0  0  0  0  0  0
    2.4160   68.6020   62.8870 C   0  0  0  0  0  0  0  0  0  0  0  0
    2.6210   68.1480   64.1900 C   0  0  0  0  0  0  0  0  0  0  0  0
    1.5790   68.1740   65.1250 C   0  0  0  0  0  0  0  0  0  0  0  0
    0.3130   68.6650   64.7320 C   0  0  0  0  0  0  0  0  0  0  0  0
    0.1230   69.1170   63.4120 C   0  0  0  0  0  0  0  0  0  0  0  0
   -0.7350   68.6840   65.6680 C   0  0  0  0  0  0  0  0  0  0  0  0
   -0.5370   68.2340   66.9770 C   0  0  0  0  0  0  0  0  0  0  0  0
    0.7190   67.7650   67.3710 C   0  0  0  0  0  0  0  0  0  0  0  0
    1.7670   67.7230   66.4420 C   0  0  0  0  0  0  0  0  0  0  0  0
   -0.1550   69.9320   60.7010 C   0  0  0  0  0  0  0  0  0  0  0  0
    1.1090   69.4970   61.1860 O   0  0  0  0  0  0  0  0  0  0  0  0
    0.4260   65.6210   70.4920 C   0  0  0  0  0  0  0  0  0  0  0  0
    1.5600   64.5900   70.5820 C   0  0  0  0  0  0  0  0  0  0  0  0
    1.3050   63.3960   71.5240 C   0  0  0  0  0  0  0  0  0  0  0  0
    0.4420   63.7670   72.7330 C   0  0  0  0  0  0  0  0  0  0  0  0
    0.0390   62.5540   73.5640 C   0  0  0  0  0  0  0  0  0  0  0  0
    1.0660   61.4490   73.4710 N   0  0  0  0  0  4  0  0  0  0  0  0
    2.4660   61.9790   73.3220 C   0  0  0  0  0  0  0  0  0  0  0  0
    2.5980   62.6970   71.9770 C   0  0  0  0  0  0  0  0  0  0  0  0
    0.9140   60.4640   74.6100 C   0  0  0  0  0  0  0  0  0  0  0  0
    0.6950   59.0510   74.1380 C   0  0  0  0  0  0  0  0  0  0  0  0
    1.6730   58.3990   73.3680 C   0  0  0  0  0  0  0  0  0  0  0  0
    1.4810   57.0820   72.9520 C   0  0  0  0  0  0  0  0  0  0  0  0
    0.3140   56.4040   73.2980 C   0  0  0  0  0  0  0  0  0  0  0  0
   -0.6660   57.0420   74.0550 C   0  0  0  0  0  0  0  0  0  0  0  0
   -0.4780   58.3590   74.4720 C   0  0  0  0  0  0  0  0  0  0  0  0
   -0.3578   65.6938   68.4933 H   0  0  0  0  0  0  0  0  0  0  0  0
    3.2459   68.5773   62.1655 H   0  0  0  0  0  0  0  0  0  0  0  0
    3.6095   67.7664   64.4854 H   0  0  0  0  0  0  0  0  0  0  0  0
   -0.8619   69.4982   63.1045 H   0  0  0  0  0  0  0  0  0  0  0  0
   -1.7246   69.0580   65.3668 H   0  0  0  0  0  0  0  0  0  0  0  0
   -1.3693   68.2492   67.6961 H   0  0  0  0  0  0  0  0  0  0  0  0
    2.7488   67.3322   66.7476 H   0  0  0  0  0  0  0  0  0  0  0  0
   -0.8154   70.1593   61.5509 H   0  0  0  0  0  0  0  0  0  0  0  0
   -0.0214   70.8359   60.0885 H   0  0  0  0  0  0  0  0  0  0  0  0
   -0.6060   69.1374   60.0885 H   0  0  0  0  0  0  0  0  0  0  0  0
    0.6433   66.4483   71.1836 H   0  0  0  0  0  0  0  0  0  0  0  0
   -0.5137   65.1146   70.7576 H   0  0  0  0  0  0  0  0  0  0  0  0
    1.7358   64.1919   69.5717 H   0  0  0  0  0  0  0  0  0  0  0  0
    2.4211   65.1276   71.0057 H   0  0  0  0  0  0  0  0  0  0  0  0
    0.7377   62.6751   70.9170 H   0  0  0  0  0  0  0  0  0  0  0  0
    1.0109   64.4581   73.3724 H   0  0  0  0  0  0  0  0  0  0  0  0
   -0.4805   64.2299   72.3526 H   0  0  0  0  0  0  0  0  0  0  0  0
   -0.0621   62.8596   74.6158 H   0  0  0  0  0  0  0  0  0  0  0  0
   -0.9148   62.1707   73.1726 H   0  0  0  0  0  0  0  0  0  0  0  0
    0.8832   60.9243   72.6037 H   0  0  0  0  0  0  0  0  0  0  0  0
    2.6795   62.6856   74.1376 H   0  0  0  0  0  0  0  0  0  0  0  0
    3.1810   61.1442   73.3642 H   0  0  0  0  0  0  0  0  0  0  0  0
    3.3911   63.4543   72.0632 H   0  0  0  0  0  0  0  0  0  0  0  0
    2.8321   61.9308   71.2233 H   0  0  0  0  0  0  0  0  0  0  0  0
    1.8274   60.4918   75.2223 H   0  0  0  0  0  0  0  0  0  0  0  0
    0.0254   60.7607   75.1864 H   0  0  0  0  0  0  0  0  0  0  0  0
    2.5955   58.9307   73.0918 H   0  0  0  0  0  0  0  0  0  0  0  0
    2.2515   56.5779   72.3502 H   0  0  0  0  0  0  0  0  0  0  0  0
    0.1663   55.3635   72.9730 H   0  0  0  0  0  0  0  0  0  0  0  0
   -1.5885   56.5065   74.3238 H   0  0  0  0  0  0  0  0  0  0  0  0
   -1.2559   58.8592   75.0676 H   0  0  0  0  0  0  0  0  0  0  0  0
  2  1  2  0
  3  1  1  0
  5  4  2  0
  6  5  1  0
  7  6  2  0
  8  7  1  0
  9  8  2  0
  9  4  1  0
 10  8  1  0
 11 10  2  0
 12 11  1  0
 12  1  1  0
 13 12  2  0
 13  7  1  0
 15 14  1  0
 15  4  1  0
 16  3  1  0
 17 16  1  0
 18 17  1  0
 19 18  1  0
 20 19  1  0
 21 20  1  0
 22 21  1  0
 23 22  1  0
 23 18  1  0
 24 21  1  0
 25 24  1  0
 26 25  2  0
 27 26  1  0
 28 27  2  0
 29 28  1  0
 30 29  2  0
 30 25  1  0
  3 31  1  0
  5 32  1  0
  6 33  1  0
  9 34  1  0
 10 35  1  0
 11 36  1  0
 13 37  1  0
 14 38  1  0
 14 39  1  0
 14 40  1  0
 16 41  1  0
 16 42  1  0
 17 43  1  0
 17 44  1  0
 18 45  1  0
 19 46  1  0
 19 47  1  0
 20 48  1  0
 20 49  1  0
 21 50  1  0
 22 51  1  0
 22 52  1  0
 23 53  1  0
 23 54  1  0
 24 55  1  0
 24 56  1  0
 26 57  1  0
 27 58  1  0
 28 59  1  0
 29 60  1  0
 30 61  1  0
M  CHG  1  21   1
M  END
>  <score>  (7) 
-10.456

$$$$
=
     RDKit          3D

 61 64  0  0  0  0  0  0  0  0999 V2000
    1.1940   61.8860   72.6070 C   0  0  0  0  0  0  0  0  0  0  0  0
    2.1700   62.3770   73.1650 O   0  0  0  0  0  0  0  0  0  0  0  0
    0.5670   62.4850   71.5320 N   0  0  0  0  0  0  0  0  0  0  0  0
    0.0780   55.6440   74.1320 C   0  0  0  0  0  0  0  0  0  0  0  0
    1.3630   55.7890   73.6110 C   0  0  0  0  0  0  0  0  0  0  0  0
    1.8350   57.0410   73.2140 C   0  0  0  0  0  0  0  0  0  0  0  0
    1.0220   58.1760   73.3300 C   0  0  0  0  0  0  0  0  0  0  0  0
   -0.2830   58.0390   73.8560 C   0  0  0  0  0  0  0  0  0  0  0  0
   -0.7400   56.7690   74.2530 C   0  0  0  0  0  0  0  0  0  0  0  0
   -1.0950   59.1800   73.9790 C   0  0  0  0  0  0  0  0  0  0  0  0
   -0.6310   60.4380   73.5820 C   0  0  0  0  0  0  0  0  0  0  0  0
    0.6530   60.5710   73.0450 C   0  0  0  0  0  0  0  0  0  0  0  0
    1.4790   59.4450   72.9350 C   0  0  0  0  0  0  0  0  0  0  0  0
    0.3190   53.8490   75.6770 C   0  0  0  0  0  0  0  0  0  0  0  0
   -0.2530   54.3640   74.4800 O   0  0  0  0  0  0  0  0  0  0  0  0
    1.0370   63.7440   70.9940 C   0  0  0  0  0  0  0  0  0  0  0  0
    0.0120   64.8710   71.1790 C   0  0  0  0  0  0  0  0  0  0  0  0
    0.2140   66.1120   70.2870 C   0  0  0  0  0  0  0  0  0  0  0  0
   -0.6940   66.1120   69.0540 C   0  0  0  0  0  0  0  0  0  0  0  0
   -0.6270   67.4190   68.2720 C   0  0  0  0  0  0  0  0  0  0  0  0
    0.7190   68.0900   68.4240 N   0  0  0  0  0  4  0  0  0  0  0  0
    1.8410   67.0980   68.5640 C   0  0  0  0  0  0  0  0  0  0  0  0
    1.6810   66.3310   69.8780 C   0  0  0  0  0  0  0  0  0  0  0  0
    0.9490   69.1080   67.3280 C   0  0  0  0  0  0  0  0  0  0  0  0
    2.4080   69.3740   67.0700 C   0  0  0  0  0  0  0  0  0  0  0  0
    2.9730   69.0830   65.8170 C   0  0  0  0  0  0  0  0  0  0  0  0
    4.3190   69.3520   65.5700 C   0  0  0  0  0  0  0  0  0  0  0  0
    5.1140   69.9110   66.5690 C   0  0  0  0  0  0  0  0  0  0  0  0
    4.5660   70.1970   67.8180 C   0  0  0  0  0  0  0  0  0  0  0  0
    3.2210   69.9290   68.0690 C   0  0  0  0  0  0  0  0  0  0  0  0
   -0.2508   62.0271   71.1049 H   0  0  0  0  0  0  0  0  0  0  0  0
    2.0122   54.9066   73.5117 H   0  0  0  0  0  0  0  0  0  0  0  0
    2.8525   57.1373   72.8072 H   0  0  0  0  0  0  0  0  0  0  0  0
   -1.7546   56.6610   74.6639 H   0  0  0  0  0  0  0  0  0  0  0  0
   -2.1093   59.0819   74.3932 H   0  0  0  0  0  0  0  0  0  0  0  0
   -1.2758   61.3224   73.6921 H   0  0  0  0  0  0  0  0  0  0  0  0
    2.4976   59.5553   72.5346 H   0  0  0  0  0  0  0  0  0  0  0  0
   -0.1819   54.3000   76.5463 H   0  0  0  0  0  0  0  0  0  0  0  0
    0.1896   52.7570   75.7050 H   0  0  0  0  0  0  0  0  0  0  0  0
    1.3915   54.0919   75.7050 H   0  0  0  0  0  0  0  0  0  0  0  0
    1.9681   64.0238   71.5085 H   0  0  0  0  0  0  0  0  0  0  0  0
    1.2013   63.6102   69.9146 H   0  0  0  0  0  0  0  0  0  0  0  0
   -0.9852   64.4593   70.9644 H   0  0  0  0  0  0  0  0  0  0  0  0
    0.1365   65.2224   72.2139 H   0  0  0  0  0  0  0  0  0  0  0  0
   -0.0805   66.9627   70.9191 H   0  0  0  0  0  0  0  0  0  0  0  0
   -0.3869   65.2896   68.3912 H   0  0  0  0  0  0  0  0  0  0  0  0
   -1.7292   65.9881   69.4046 H   0  0  0  0  0  0  0  0  0  0  0  0
   -0.8020   67.2071   67.2069 H   0  0  0  0  0  0  0  0  0  0  0  0
   -1.3964   68.0974   68.6691 H   0  0  0  0  0  0  0  0  0  0  0  0
    0.7099   68.6125   69.3116 H   0  0  0  0  0  0  0  0  0  0  0  0
    1.8135   66.3917   67.7212 H   0  0  0  0  0  0  0  0  0  0  0  0
    2.8037   67.6302   68.5644 H   0  0  0  0  0  0  0  0  0  0  0  0
    2.1621   65.3479   69.7679 H   0  0  0  0  0  0  0  0  0  0  0  0
    2.1490   66.9390   70.6662 H   0  0  0  0  0  0  0  0  0  0  0  0
    0.4914   68.7339   66.4003 H   0  0  0  0  0  0  0  0  0  0  0  0
    0.4948   70.0543   67.6569 H   0  0  0  0  0  0  0  0  0  0  0  0
    2.3499   68.6403   65.0259 H   0  0  0  0  0  0  0  0  0  0  0  0
    4.7536   69.1228   64.5858 H   0  0  0  0  0  0  0  0  0  0  0  0
    6.1744   70.1265   66.3715 H   0  0  0  0  0  0  0  0  0  0  0  0
    5.1954   70.6347   68.6068 H   0  0  0  0  0  0  0  0  0  0  0  0
    2.7945   70.1544   69.0576 H   0  0  0  0  0  0  0  0  0  0  0  0
  2  1  2  0
  3  1  1  0
  5  4  2  0
  6  5  1  0
  7  6  2  0
  8  7  1  0
  9  8  2  0
  9  4  1  0
 10  8  1  0
 11 10  2  0
 12 11  1  0
 12  1  1  0
 13 12  2  0
 13  7  1  0
 15 14  1  0
 15  4  1  0
 16  3  1  0
 17 16  1  0
 18 17  1  0
 19 18  1  0
 20 19  1  0
 21 20  1  0
 22 21  1  0
 23 22  1  0
 23 18  1  0
 24 21  1  0
 25 24  1  0
 26 25  2  0
 27 26  1  0
 28 27  2  0
 29 28  1  0
 30 29  2  0
 30 25  1  0
  3 31  1  0
  5 32  1  0
  6 33  1  0
  9 34  1  0
 10 35  1  0
 11 36  1  0
 13 37  1  0
 14 38  1  0
 14 39  1  0
 14 40  1  0
 16 41  1  0
 16 42  1  0
 17 43  1  0
 17 44  1  0
 18 45  1  0
 19 46  1  0
 19 47  1  0
 20 48  1  0
 20 49  1  0
 21 50  1  0
 22 51  1  0
 22 52  1  0
 23 53  1  0
 23 54  1  0
 24 55  1  0
 24 56  1  0
 26 57  1  0
 27 58  1  0
 28 59  1  0
 29 60  1  0
 30 61  1  0
M  CHG  1  21   1
M  END
>  <score>  (8) 
-10.183

$$$$
=
     RDKit          3D

 61 64  0  0  0  0  0  0  0  0999 V2000
    0.5030   66.0430   69.9390 C   0  0  0  0  0  0  0  0  0  0  0  0
   -0.0130   66.3620   71.0060 O   0  0  0  0  0  0  0  0  0  0  0  0
    1.4350   65.0300   69.8330 N   0  0  0  0  0  0  0  0  0  0  0  0
    0.1510   69.0690   64.1720 C   0  0  0  0  0  0  0  0  0  0  0  0
    1.4830   68.8330   64.5110 C   0  0  0  0  0  0  0  0  0  0  0  0
    1.8120   68.1910   65.7050 C   0  0  0  0  0  0  0  0  0  0  0  0
    0.8090   67.7720   66.5880 C   0  0  0  0  0  0  0  0  0  0  0  0
   -0.5450   68.0070   66.2540 C   0  0  0  0  0  0  0  0  0  0  0  0
   -0.8580   68.6550   65.0440 C   0  0  0  0  0  0  0  0  0  0  0  0
   -1.5520   67.5800   67.1360 C   0  0  0  0  0  0  0  0  0  0  0  0
   -1.2300   66.9380   68.3360 C   0  0  0  0  0  0  0  0  0  0  0  0
    0.1080   66.7210   68.6750 C   0  0  0  0  0  0  0  0  0  0  0  0
    1.1200   67.1250   67.7950 C   0  0  0  0  0  0  0  0  0  0  0  0
    0.7640   69.2610   61.8800 C   0  0  0  0  0  0  0  0  0  0  0  0
   -0.0270   69.7050   62.9750 O   0  0  0  0  0  0  0  0  0  0  0  0
    1.8590   64.2730   70.9910 C   0  0  0  0  0  0  0  0  0  0  0  0
    2.7860   63.1100   70.6150 C   0  0  0  0  0  0  0  0  0  0  0  0
    2.6400   61.8340   71.4690 C   0  0  0  0  0  0  0  0  0  0  0  0
    3.2310   61.9890   72.8730 C   0  0  0  0  0  0  0  0  0  0  0  0
    2.9260   60.7990   73.7760 C   0  0  0  0  0  0  0  0  0  0  0  0
    2.7650   59.5240   72.9800 N   0  0  0  0  0  4  0  0  0  0  0  0
    3.6480   59.4920   71.7630 C   0  0  0  0  0  0  0  0  0  0  0  0
    3.2010   60.5780   70.7820 C   0  0  0  0  0  0  0  0  0  0  0  0
    2.9160   58.3050   73.8650 C   0  0  0  0  0  0  0  0  0  0  0  0
    1.6710   57.4610   73.9180 C   0  0  0  0  0  0  0  0  0  0  0  0
    0.4020   58.0630   73.9140 C   0  0  0  0  0  0  0  0  0  0  0  0
   -0.7510   57.2800   73.9390 C   0  0  0  0  0  0  0  0  0  0  0  0
   -0.6510   55.8910   73.9700 C   0  0  0  0  0  0  0  0  0  0  0  0
    0.6010   55.2810   73.9810 C   0  0  0  0  0  0  0  0  0  0  0  0
    1.7580   56.0610   73.9570 C   0  0  0  0  0  0  0  0  0  0  0  0
    1.8367   64.8086   68.9108 H   0  0  0  0  0  0  0  0  0  0  0  0
    2.2832   69.1567   63.8292 H   0  0  0  0  0  0  0  0  0  0  0  0
    2.8682   68.0124   65.9551 H   0  0  0  0  0  0  0  0  0  0  0  0
   -1.9107   68.8375   64.7822 H   0  0  0  0  0  0  0  0  0  0  0  0
   -2.6075   67.7530   66.8792 H   0  0  0  0  0  0  0  0  0  0  0  0
   -2.0301   66.6039   69.0129 H   0  0  0  0  0  0  0  0  0  0  0  0
    2.1720   66.9330   68.0526 H   0  0  0  0  0  0  0  0  0  0  0  0
    1.6644   68.7556   62.2592 H   0  0  0  0  0  0  0  0  0  0  0  0
    0.1801   68.5588   61.2668 H   0  0  0  0  0  0  0  0  0  0  0  0
    1.0594   70.1252   61.2668 H   0  0  0  0  0  0  0  0  0  0  0  0
    2.3947   64.9455   71.6772 H   0  0  0  0  0  0  0  0  0  0  0  0
    0.9612   63.8497   71.4652 H   0  0  0  0  0  0  0  0  0  0  0  0
    2.5826   62.8408   69.5680 H   0  0  0  0  0  0  0  0  0  0  0  0
    3.8091   63.4733   70.7921 H   0  0  0  0  0  0  0  0  0  0  0  0
    1.5547   61.6906   71.5763 H   0  0  0  0  0  0  0  0  0  0  0  0
    4.3225   62.0934   72.7855 H   0  0  0  0  0  0  0  0  0  0  0  0
    2.7719   62.8782   73.3298 H   0  0  0  0  0  0  0  0  0  0  0  0
    3.7526   60.6719   74.4906 H   0  0  0  0  0  0  0  0  0  0  0  0
    1.9803   60.9988   74.3012 H   0  0  0  0  0  0  0  0  0  0  0  0
    1.8025   59.5034   72.6137 H   0  0  0  0  0  0  0  0  0  0  0  0
    4.6910   59.6738   72.0615 H   0  0  0  0  0  0  0  0  0  0  0  0
    3.5722   58.5067   71.2799 H   0  0  0  0  0  0  0  0  0  0  0  0
    4.0670   60.8730   70.1713 H   0  0  0  0  0  0  0  0  0  0  0  0
    2.3882   60.1511   70.1761 H   0  0  0  0  0  0  0  0  0  0  0  0
    3.7408   57.6895   73.4767 H   0  0  0  0  0  0  0  0  0  0  0  0
    3.1164   58.6616   74.8861 H   0  0  0  0  0  0  0  0  0  0  0  0
    0.3175   59.1595   73.8910 H   0  0  0  0  0  0  0  0  0  0  0  0
   -1.7410   57.7596   73.9342 H   0  0  0  0  0  0  0  0  0  0  0  0
   -1.5622   55.2750   73.9858 H   0  0  0  0  0  0  0  0  0  0  0  0
    0.6779   54.1840   74.0086 H   0  0  0  0  0  0  0  0  0  0  0  0
    2.7448   55.5751   73.9687 H   0  0  0  0  0  0  0  0  0  0  0  0
  2  1  2  0
  3  1  1  0
  5  4  2  0
  6  5  1  0
  7  6  2  0
  8  7  1  0
  9  8  2  0
  9  4  1  0
 10  8  1  0
 11 10  2  0
 12 11  1  0
 12  1  1  0
 13 12  2  0
 13  7  1  0
 15 14  1  0
 15  4  1  0
 16  3  1  0
 17 16  1  0
 18 17  1  0
 19 18  1  0
 20 19  1  0
 21 20  1  0
 22 21  1  0
 23 22  1  0
 23 18  1  0
 24 21  1  0
 25 24  1  0
 26 25  2  0
 27 26  1  0
 28 27  2  0
 29 28  1  0
 30 29  2  0
 30 25  1  0
  3 31  1  0
  5 32  1  0
  6 33  1  0
  9 34  1  0
 10 35  1  0
 11 36  1  0
 13 37  1  0
 14 38  1  0
 14 39  1  0
 14 40  1  0
 16 41  1  0
 16 42  1  0
 17 43  1  0
 17 44  1  0
 18 45  1  0
 19 46  1  0
 19 47  1  0
 20 48  1  0
 20 49  1  0
 21 50  1  0
 22 51  1  0
 22 52  1  0
 23 53  1  0
 23 54  1  0
 24 55  1  0
 24 56  1  0
 26 57  1  0
 27 58  1  0
 28 59  1  0
 29 60  1  0
 30 61  1  0
M  CHG  1  21   1
M  END
>  <score>  (9) 
-10.088

$$$$
