=
     RDKit          3D

 59 63  0  0  0  0  0  0  0  0999 V2000
    0.8390   62.5340   75.5360 C   0  0  0  0  0  0  0  0  0  0  0  0
   -0.1170   63.5460   75.5430 C   0  0  0  0  0  0  0  0  0  0  0  0
   -0.3050   64.3320   74.4040 C   0  0  0  0  0  0  0  0  0  0  0  0
    0.4370   64.1360   73.2470 C   0  0  0  0  0  0  0  0  0  0  0  0
    1.3930   63.1030   73.2090 C   0  0  0  0  0  0  0  0  0  0  0  0
    1.6000   62.3300   74.3800 C   0  0  0  0  0  0  0  0  0  0  0  0
    2.1280   62.9270   72.0050 C   0  0  0  0  0  0  0  0  0  0  0  0
    2.9780   61.8100   71.8150 N   0  0  0  0  0  0  0  0  0  0  0  0
    4.1100   61.9430   70.8780 C   0  0  0  0  0  0  0  0  0  0  0  0
    4.2610   63.3320   70.2820 C   0  0  0  0  0  0  0  0  0  0  0  0
    2.9070   63.8260   69.7990 C   0  0  0  0  0  0  0  0  0  0  0  0
    1.9760   63.8780   70.9790 C   0  0  0  0  0  0  0  0  0  0  0  0
    0.9660   64.8350   71.0980 C   0  0  0  0  0  0  0  0  0  0  0  0
    0.2070   64.9540   72.2140 N   0  0  0  0  0  0  0  0  0  0  0  0
    0.6100   65.7930   70.0380 C   0  0  0  0  0  0  0  0  0  0  0  0
    1.4890   66.8350   69.6910 C   0  0  0  0  0  0  0  0  0  0  0  0
    1.1590   67.7540   68.6910 C   0  0  0  0  0  0  0  0  0  0  0  0
   -0.0610   67.6470   68.0310 C   0  0  0  0  0  0  0  0  0  0  0  0
   -0.9570   66.6350   68.3660 C   0  0  0  0  0  0  0  0  0  0  0  0
   -0.6240   65.7170   69.3670 C   0  0  0  0  0  0  0  0  0  0  0  0
   -0.4690   68.7760   66.7990 Cl  0  0  0  0  0  0  0  0  0  0  0  0
    2.2910   61.1840   76.9590 N   0  0  0  0  0  0  0  0  0  0  0  0
    1.0370   61.7310   76.7740 C   0  0  0  0  0  0  0  0  0  0  0  0
    0.1030   61.5580   77.5480 O   0  0  0  0  0  0  0  0  0  0  0  0
    3.8060   60.7590   78.8440 C   0  0  0  0  0  0  0  0  0  0  0  0
    2.5740   60.3110   78.0800 C   0  0  0  0  0  0  0  0  0  0  0  0
    2.2690   60.5050   71.7420 C   0  0  0  0  0  0  0  0  0  0  0  0
    2.5010   59.5950   72.9360 C   0  0  0  0  0  0  0  0  0  0  0  0
    3.7400   59.5790   73.5970 C   0  0  0  0  0  0  0  0  0  0  0  0
    3.9500   58.7490   74.7000 C   0  0  0  0  0  0  0  0  0  0  0  0
    2.9290   57.9170   75.1510 C   0  0  0  0  0  0  0  0  0  0  0  0
    1.6990   57.9100   74.4980 C   0  0  0  0  0  0  0  0  0  0  0  0
    1.4860   58.7410   73.3960 C   0  0  0  0  0  0  0  0  0  0  0  0
   -0.7228   63.7261   76.4434 H   0  0  0  0  0  0  0  0  0  0  0  0
   -1.0627   65.1292   74.4241 H   0  0  0  0  0  0  0  0  0  0  0  0
    2.3773   61.5517   74.3792 H   0  0  0  0  0  0  0  0  0  0  0  0
    5.0361   61.6960   71.4177 H   0  0  0  0  0  0  0  0  0  0  0  0
    3.9111   61.2581   70.0405 H   0  0  0  0  0  0  0  0  0  0  0  0
    4.6503   64.0192   71.0477 H   0  0  0  0  0  0  0  0  0  0  0  0
    4.9609   63.2932   69.4343 H   0  0  0  0  0  0  0  0  0  0  0  0
    3.0113   64.8304   69.3627 H   0  0  0  0  0  0  0  0  0  0  0  0
    2.5078   63.1479   69.0304 H   0  0  0  0  0  0  0  0  0  0  0  0
    2.4516   66.9280   70.2151 H   0  0  0  0  0  0  0  0  0  0  0  0
    1.8610   68.5586   68.4269 H   0  0  0  0  0  0  0  0  0  0  0  0
   -1.9229   66.5580   67.8453 H   0  0  0  0  0  0  0  0  0  0  0  0
   -1.3377   64.9236   69.6337 H   0  0  0  0  0  0  0  0  0  0  0  0
    3.0404   61.4009   76.2865 H   0  0  0  0  0  0  0  0  0  0  0  0
    3.6130   60.6888   79.9247 H   0  0  0  0  0  0  0  0  0  0  0  0
    4.6560   60.1124   78.5806 H   0  0  0  0  0  0  0  0  0  0  0  0
    4.0422   61.8006   78.5806 H   0  0  0  0  0  0  0  0  0  0  0  0
    2.7393   59.2905   77.7041 H   0  0  0  0  0  0  0  0  0  0  0  0
    1.7146   60.3445   78.7658 H   0  0  0  0  0  0  0  0  0  0  0  0
    1.1898   60.7040   71.6661 H   0  0  0  0  0  0  0  0  0  0  0  0
    2.6718   59.9785   70.8642 H   0  0  0  0  0  0  0  0  0  0  0  0
    4.5542   60.2277   73.2418 H   0  0  0  0  0  0  0  0  0  0  0  0
    4.9230   58.7525   75.2130 H   0  0  0  0  0  0  0  0  0  0  0  0
    3.0936   57.2659   76.0222 H   0  0  0  0  0  0  0  0  0  0  0  0
    0.8938   57.2488   74.8508 H   0  0  0  0  0  0  0  0  0  0  0  0
    0.5130   58.7263   72.8831 H   0  0  0  0  0  0  0  0  0  0  0  0
  2  1  2  0
  3  2  1  0
  4  3  2  0
  5  4  1  0
  6  5  2  0
  6  1  1  0
  7  5  1  0
  8  7  1  0
  9  8  1  0
 10  9  1  0
 11 10  1  0
 12 11  1  0
 12  7  2  0
 13 12  1  0
 14 13  2  0
 14  4  1  0
 15 13  1  0
 16 15  2  0
 17 16  1  0
 18 17  2  0
 19 18  1  0
 20 19  2  0
 20 15  1  0
 21 18  1  0
 23  1  1  0
 23 22  1  0
 24 23  2  0
 26 25  1  0
 26 22  1  0
 27  8  1  0
 28 27  1  0
 29 28  2  0
 30 29  1  0
 31 30  2  0
 32 31  1  0
 33 32  2  0
 33 28  1  0
  2 34  1  0
  3 35  1  0
  6 36  1  0
  9 37  1  0
  9 38  1  0
 10 39  1  0
 10 40  1  0
 11 41  1  0
 11 42  1  0
 16 43  1  0
 17 44  1  0
 19 45  1  0
 20 46  1  0
 22 47  1  0
 25 48  1  0
 25 49  1  0
 25 50  1  0
 26 51  1  0
 26 52  1  0
 27 53  1  0
 27 54  1  0
 29 55  1  0
 30 56  1  0
 31 57  1  0
 32 58  1  0
 33 59  1  0
M  END
>  <score>  (1) 
-9.39

$$$$
=
     RDKit          3D

 59 63  0  0  0  0  0  0  0  0999 V2000
    0.2960   62.4450   71.9660 C   0  0  0  0  0  0  0  0  0  0  0  0
   -0.5850   62.4810   73.0430 C   0  0  0  0  0  0  0  0  0  0  0  0
   -0.6660   61.3900   73.9110 C   0  0  0  0  0  0  0  0  0  0  0  0
    0.1130   60.2540   73.7370 C   0  0  0  0  0  0  0  0  0  0  0  0
    1.0290   60.2060   72.6670 C   0  0  0  0  0  0  0  0  0  0  0  0
    1.0830   61.3050   71.7720 C   0  0  0  0  0  0  0  0  0  0  0  0
    1.8160   59.0300   72.5260 C   0  0  0  0  0  0  0  0  0  0  0  0
    2.8800   58.9620   71.5940 N   0  0  0  0  0  0  0  0  0  0  0  0
    3.2710   57.6390   71.0720 C   0  0  0  0  0  0  0  0  0  0  0  0
    2.3970   56.4970   71.5620 C   0  0  0  0  0  0  0  0  0  0  0  0
    2.2070   56.6140   73.0660 C   0  0  0  0  0  0  0  0  0  0  0  0
    1.5350   57.9290   73.3550 C   0  0  0  0  0  0  0  0  0  0  0  0
    0.6420   58.0990   74.4150 C   0  0  0  0  0  0  0  0  0  0  0  0
   -0.0520   59.2480   74.6010 N   0  0  0  0  0  0  0  0  0  0  0  0
    0.3700   57.0730   75.4360 C   0  0  0  0  0  0  0  0  0  0  0  0
   -0.7150   56.1900   75.2910 C   0  0  0  0  0  0  0  0  0  0  0  0
   -0.9860   55.2170   76.2560 C   0  0  0  0  0  0  0  0  0  0  0  0
   -0.1790   55.1210   77.3860 C   0  0  0  0  0  0  0  0  0  0  0  0
    0.8920   55.9940   77.5620 C   0  0  0  0  0  0  0  0  0  0  0  0
    1.1600   56.9670   76.5940 C   0  0  0  0  0  0  0  0  0  0  0  0
   -0.5100   53.9230   78.5750 Cl  0  0  0  0  0  0  0  0  0  0  0  0
    0.2190   64.8590   71.6180 N   0  0  0  0  0  0  0  0  0  0  0  0
    0.3400   63.6110   71.0410 C   0  0  0  0  0  0  0  0  0  0  0  0
    0.4460   63.4320   69.8340 O   0  0  0  0  0  0  0  0  0  0  0  0
    1.4630   66.3090   70.0740 C   0  0  0  0  0  0  0  0  0  0  0  0
    0.1580   66.0600   70.8090 C   0  0  0  0  0  0  0  0  0  0  0  0
    4.0230   59.8640   71.9020 C   0  0  0  0  0  0  0  0  0  0  0  0
    4.1360   61.0710   70.9870 C   0  0  0  0  0  0  0  0  0  0  0  0
    3.5900   61.0460   69.6940 C   0  0  0  0  0  0  0  0  0  0  0  0
    3.6860   62.1590   68.8560 C   0  0  0  0  0  0  0  0  0  0  0  0
    4.3370   63.3090   69.2960 C   0  0  0  0  0  0  0  0  0  0  0  0
    4.8960   63.3450   70.5710 C   0  0  0  0  0  0  0  0  0  0  0  0
    4.8000   62.2330   71.4110 C   0  0  0  0  0  0  0  0  0  0  0  0
   -1.2158   63.3665   73.2100 H   0  0  0  0  0  0  0  0  0  0  0  0
   -1.3675   61.4319   74.7573 H   0  0  0  0  0  0  0  0  0  0  0  0
    1.7592   61.2598   70.9056 H   0  0  0  0  0  0  0  0  0  0  0  0
    3.2151   57.6704   69.9739 H   0  0  0  0  0  0  0  0  0  0  0  0
    4.2886   57.4405   71.4396 H   0  0  0  0  0  0  0  0  0  0  0  0
    1.4175   56.5450   71.0638 H   0  0  0  0  0  0  0  0  0  0  0  0
    2.8811   55.5376   71.3269 H   0  0  0  0  0  0  0  0  0  0  0  0
    1.5778   55.7872   73.4271 H   0  0  0  0  0  0  0  0  0  0  0  0
    3.1801   56.5647   73.5765 H   0  0  0  0  0  0  0  0  0  0  0  0
   -1.3605   56.2668   74.4036 H   0  0  0  0  0  0  0  0  0  0  0  0
   -1.8341   54.5292   76.1233 H   0  0  0  0  0  0  0  0  0  0  0  0
    1.5244   55.9184   78.4588 H   0  0  0  0  0  0  0  0  0  0  0  0
    2.0016   57.6599   76.7409 H   0  0  0  0  0  0  0  0  0  0  0  0
    0.1711   64.9384   72.6438 H   0  0  0  0  0  0  0  0  0  0  0  0
    2.2713   66.4632   70.8040 H   0  0  0  0  0  0  0  0  0  0  0  0
    1.6999   65.4399   69.4428 H   0  0  0  0  0  0  0  0  0  0  0  0
    1.3632   67.2043   69.4428 H   0  0  0  0  0  0  0  0  0  0  0  0
   -0.0528   66.9195   71.4623 H   0  0  0  0  0  0  0  0  0  0  0  0
   -0.6375   65.9292   70.0606 H   0  0  0  0  0  0  0  0  0  0  0  0
    3.9074   60.2251   72.9346 H   0  0  0  0  0  0  0  0  0  0  0  0
    4.9381   59.2718   71.7538 H   0  0  0  0  0  0  0  0  0  0  0  0
    3.0805   60.1390   69.3366 H   0  0  0  0  0  0  0  0  0  0  0  0
    3.2472   62.1274   67.8478 H   0  0  0  0  0  0  0  0  0  0  0  0
    4.4095   64.1872   68.6376 H   0  0  0  0  0  0  0  0  0  0  0  0
    5.4144   64.2512   70.9175 H   0  0  0  0  0  0  0  0  0  0  0  0
    5.2491   62.2682   72.4145 H   0  0  0  0  0  0  0  0  0  0  0  0
  2  1  2  0
  3  2  1  0
  4  3  2  0
  5  4  1  0
  6  5  2  0
  6  1  1  0
  7  5  1  0
  8  7  1  0
  9  8  1  0
 10  9  1  0
 11 10  1  0
 12 11  1  0
 12  7  2  0
 13 12  1  0
 14 13  2  0
 14  4  1  0
 15 13  1  0
 16 15  2  0
 17 16  1  0
 18 17  2  0
 19 18  1  0
 20 19  2  0
 20 15  1  0
 21 18  1  0
 23  1  1  0
 23 22  1  0
 24 23  2  0
 26 25  1  0
 26 22  1  0
 27  8  1  0
 28 27  1  0
 29 28  2  0
 30 29  1  0
 31 30  2  0
 32 31  1  0
 33 32  2  0
 33 28  1  0
  2 34  1  0
  3 35  1  0
  6 36  1  0
  9 37  1  0
  9 38  1  0
 10 39  1  0
 10 40  1  0
 11 41  1  0
 11 42  1  0
 16 43  1  0
 17 44  1  0
 19 45  1  0
 20 46  1  0
 22 47  1  0
 25 48  1  0
 25 49  1  0
 25 50  1  0
 26 51  1  0
 26 52  1  0
 27 53  1  0
 27 54  1  0
 29 55  1  0
 30 56  1  0
 31 57  1  0
 32 58  1  0
 33 59  1  0
M  END
>  <score>  (2) 
-9.055

$$$$
=
     RDKit          3D

 59 63  0  0  0  0  0  0  0  0999 V2000
    3.1490   59.5530   71.0730 C   0  0  0  0  0  0  0  0  0  0  0  0
    3.3980   58.2110   70.8000 C   0  0  0  0  0  0  0  0  0  0  0  0
    2.7780   57.2200   71.5650 C   0  0  0  0  0  0  0  0  0  0  0  0
    1.9090   57.5290   72.6010 C   0  0  0  0  0  0  0  0  0  0  0  0
    1.6240   58.8810   72.8800 C   0  0  0  0  0  0  0  0  0  0  0  0
    2.2810   59.8820   72.1200 C   0  0  0  0  0  0  0  0  0  0  0  0
    0.7220   59.1590   73.9440 C   0  0  0  0  0  0  0  0  0  0  0  0
    0.2420   60.4700   74.1800 N   0  0  0  0  0  0  0  0  0  0  0  0
   -0.1840   60.8240   75.5480 C   0  0  0  0  0  0  0  0  0  0  0  0
    0.0300   59.7200   76.5680 C   0  0  0  0  0  0  0  0  0  0  0  0
   -0.4840   58.4040   76.0070 C   0  0  0  0  0  0  0  0  0  0  0  0
    0.2870   58.0930   74.7530 C   0  0  0  0  0  0  0  0  0  0  0  0
    0.5890   56.7880   74.3600 C   0  0  0  0  0  0  0  0  0  0  0  0
    1.3830   56.5160   73.2970 N   0  0  0  0  0  0  0  0  0  0  0  0
    0.0760   55.5850   75.0360 C   0  0  0  0  0  0  0  0  0  0  0  0
   -1.2320   55.1310   74.7930 C   0  0  0  0  0  0  0  0  0  0  0  0
   -1.7320   53.9930   75.4340 C   0  0  0  0  0  0  0  0  0  0  0  0
   -0.9290   53.3000   76.3350 C   0  0  0  0  0  0  0  0  0  0  0  0
    0.3650   53.7370   76.6060 C   0  0  0  0  0  0  0  0  0  0  0  0
    0.8610   54.8760   75.9630 C   0  0  0  0  0  0  0  0  0  0  0  0
   -1.5410   51.8990   77.1240 Cl  0  0  0  0  0  0  0  0  0  0  0  0
    3.6270   61.9030   70.6190 N   0  0  0  0  0  0  0  0  0  0  0  0
    3.8450   60.5880   70.2600 C   0  0  0  0  0  0  0  0  0  0  0  0
    4.5400   60.2540   69.3080 O   0  0  0  0  0  0  0  0  0  0  0  0
    3.5860   63.0530   68.4500 C   0  0  0  0  0  0  0  0  0  0  0  0
    4.1790   62.9970   69.8460 C   0  0  0  0  0  0  0  0  0  0  0  0
   -0.6360   61.0060   73.1050 C   0  0  0  0  0  0  0  0  0  0  0  0
   -0.2080   62.3570   72.5590 C   0  0  0  0  0  0  0  0  0  0  0  0
    0.0180   62.5380   71.1850 C   0  0  0  0  0  0  0  0  0  0  0  0
    0.4020   63.7820   70.6820 C   0  0  0  0  0  0  0  0  0  0  0  0
    0.5740   64.8610   71.5460 C   0  0  0  0  0  0  0  0  0  0  0  0
    0.3680   64.6950   72.9130 C   0  0  0  0  0  0  0  0  0  0  0  0
   -0.0180   63.4510   73.4180 C   0  0  0  0  0  0  0  0  0  0  0  0
    4.0810   57.9316   69.9843 H   0  0  0  0  0  0  0  0  0  0  0  0
    2.9851   56.1635   71.3391 H   0  0  0  0  0  0  0  0  0  0  0  0
    2.1042   60.9411   72.3590 H   0  0  0  0  0  0  0  0  0  0  0  0
    0.3868   61.7075   75.8700 H   0  0  0  0  0  0  0  0  0  0  0  0
   -1.2671   61.0111   75.5050 H   0  0  0  0  0  0  0  0  0  0  0  0
    1.1035   59.6294   76.7902 H   0  0  0  0  0  0  0  0  0  0  0  0
   -0.5167   59.9631   77.4911 H   0  0  0  0  0  0  0  0  0  0  0  0
   -0.3347   57.6015   76.7443 H   0  0  0  0  0  0  0  0  0  0  0  0
   -1.5582   58.4808   75.7828 H   0  0  0  0  0  0  0  0  0  0  0  0
   -1.8728   55.6798   74.0871 H   0  0  0  0  0  0  0  0  0  0  0  0
   -2.7555   53.6472   75.2269 H   0  0  0  0  0  0  0  0  0  0  0  0
    0.9944   53.1890   77.3226 H   0  0  0  0  0  0  0  0  0  0  0  0
    1.8809   55.2226   76.1858 H   0  0  0  0  0  0  0  0  0  0  0  0
    3.0602   62.1107   71.4536 H   0  0  0  0  0  0  0  0  0  0  0  0
    2.4931   63.1562   68.5198 H   0  0  0  0  0  0  0  0  0  0  0  0
    4.0020   63.9159   67.9092 H   0  0  0  0  0  0  0  0  0  0  0  0
    3.8331   62.1275   67.9092 H   0  0  0  0  0  0  0  0  0  0  0  0
    5.2679   62.8630   69.7657 H   0  0  0  0  0  0  0  0  0  0  0  0
    3.9346   63.9381   70.3605 H   0  0  0  0  0  0  0  0  0  0  0  0
   -0.6411   60.2853   72.2740 H   0  0  0  0  0  0  0  0  0  0  0  0
   -1.6295   61.1502   73.5546 H   0  0  0  0  0  0  0  0  0  0  0  0
   -0.1091   61.6893   70.4969 H   0  0  0  0  0  0  0  0  0  0  0  0
    0.5690   63.9105   69.6024 H   0  0  0  0  0  0  0  0  0  0  0  0
    0.8721   65.8426   71.1490 H   0  0  0  0  0  0  0  0  0  0  0  0
    0.5095   65.5451   73.5967 H   0  0  0  0  0  0  0  0  0  0  0  0
   -0.1747   63.3274   74.4997 H   0  0  0  0  0  0  0  0  0  0  0  0
  2  1  2  0
  3  2  1  0
  4  3  2  0
  5  4  1  0
  6  5  2  0
  6  1  1  0
  7  5  1  0
  8  7  1  0
  9  8  1  0
 10  9  1  0
 11 10  1  0
 12 11  1  0
 12  7  2  0
 13 12  1  0
 14 13  2  0
 14  4  1  0
 15 13  1  0
 16 15  2  0
 17 16  1  0
 18 17  2  0
 19 18  1  0
 20 19  2  0
 20 15  1  0
 21 18  1  0
 23  1  1  0
 23 22  1  0
 24 23  2  0
 26 25  1  0
 26 22  1  0
 27  8  1  0
 28 27  1  0
 29 28  2  0
 30 29  1  0
 31 30  2  0
 32 31  1  0
 33 32  2  0
 33 28  1  0
  2 34  1  0
  3 35  1  0
  6 36  1  0
  9 37  1  0
  9 38  1  0
 10 39  1  0
 10 40  1  0
 11 41  1  0
 11 42  1  0
 16 43  1  0
 17 44  1  0
 19 45  1  0
 20 46  1  0
 22 47  1  0
 25 48  1  0
 25 49  1  0
 25 50  1  0
 26 51  1  0
 26 52  1  0
 27 53  1  0
 27 54  1  0
 29 55  1  0
 30 56  1  0
 31 57  1  0
 32 58  1  0
 33 59  1  0
M  END
>  <score>  (3) 
-8.581

$$$$
=
     RDKit          3D

 59 63  0  0  0  0  0  0  0  0999 V2000
    0.4150   62.0900   71.9860 C   0  0  0  0  0  0  0  0  0  0  0  0
   -0.7080   62.6580   72.5810 C   0  0  0  0  0  0  0  0  0  0  0  0
   -1.4590   61.9170   73.4970 C   0  0  0  0  0  0  0  0  0  0  0  0
   -1.1200   60.6160   73.8420 C   0  0  0  0  0  0  0  0  0  0  0  0
    0.0270   60.0290   73.2710 C   0  0  0  0  0  0  0  0  0  0  0  0
    0.7660   60.7770   72.3180 C   0  0  0  0  0  0  0  0  0  0  0  0
    0.3480   58.6990   73.6540 C   0  0  0  0  0  0  0  0  0  0  0  0
    1.5700   58.0940   73.2710 N   0  0  0  0  0  0  0  0  0  0  0  0
    1.6230   56.6230   73.1720 C   0  0  0  0  0  0  0  0  0  0  0  0
    0.2930   55.9370   73.4290 C   0  0  0  0  0  0  0  0  0  0  0  0
   -0.3450   56.5190   74.6790 C   0  0  0  0  0  0  0  0  0  0  0  0
   -0.5670   57.9900   74.4540 C   0  0  0  0  0  0  0  0  0  0  0  0
   -1.6480   58.6800   75.0070 C   0  0  0  0  0  0  0  0  0  0  0  0
   -1.9120   59.9740   74.7070 N   0  0  0  0  0  0  0  0  0  0  0  0
   -2.5940   58.0930   75.9710 C   0  0  0  0  0  0  0  0  0  0  0  0
   -3.8550   57.6390   75.5480 C   0  0  0  0  0  0  0  0  0  0  0  0
   -4.7640   57.0850   76.4550 C   0  0  0  0  0  0  0  0  0  0  0  0
   -4.4240   56.9880   77.8010 C   0  0  0  0  0  0  0  0  0  0  0  0
   -3.1870   57.4450   78.2490 C   0  0  0  0  0  0  0  0  0  0  0  0
   -2.2800   57.9980   77.3390 C   0  0  0  0  0  0  0  0  0  0  0  0
   -5.5390   56.3060   78.9190 Cl  0  0  0  0  0  0  0  0  0  0  0  0
    2.5430   62.9790   71.1900 N   0  0  0  0  0  0  0  0  0  0  0  0
    1.1790   62.8930   70.9930 C   0  0  0  0  0  0  0  0  0  0  0  0
    0.5900   63.4610   70.0810 O   0  0  0  0  0  0  0  0  0  0  0  0
    3.7440   63.0930   69.0510 C   0  0  0  0  0  0  0  0  0  0  0  0
    3.3760   63.8050   70.3390 C   0  0  0  0  0  0  0  0  0  0  0  0
    2.7780   58.7140   73.8780 C   0  0  0  0  0  0  0  0  0  0  0  0
    3.6730   59.4460   72.8930 C   0  0  0  0  0  0  0  0  0  0  0  0
    4.4900   60.5060   73.3160 C   0  0  0  0  0  0  0  0  0  0  0  0
    5.3200   61.1730   72.4120 C   0  0  0  0  0  0  0  0  0  0  0  0
    5.3360   60.7960   71.0720 C   0  0  0  0  0  0  0  0  0  0  0  0
    4.5220   59.7550   70.6330 C   0  0  0  0  0  0  0  0  0  0  0  0
    3.6930   59.0860   71.5360 C   0  0  0  0  0  0  0  0  0  0  0  0
   -1.0034   63.6876   72.3306 H   0  0  0  0  0  0  0  0  0  0  0  0
   -2.3448   62.3781   73.9582 H   0  0  0  0  0  0  0  0  0  0  0  0
    1.6354   60.3135   71.8287 H   0  0  0  0  0  0  0  0  0  0  0  0
    1.9592   56.3567   72.1591 H   0  0  0  0  0  0  0  0  0  0  0  0
    2.3152   56.2768   73.9536 H   0  0  0  0  0  0  0  0  0  0  0  0
   -0.3739   56.0966   72.5689 H   0  0  0  0  0  0  0  0  0  0  0  0
    0.4584   54.8587   73.5703 H   0  0  0  0  0  0  0  0  0  0  0  0
   -1.3076   56.0225   74.8711 H   0  0  0  0  0  0  0  0  0  0  0  0
    0.3114   56.3630   75.5478 H   0  0  0  0  0  0  0  0  0  0  0  0
   -4.1314   57.7207   74.4864 H   0  0  0  0  0  0  0  0  0  0  0  0
   -5.7439   56.7273   76.1059 H   0  0  0  0  0  0  0  0  0  0  0  0
   -2.9242   57.3713   79.3146 H   0  0  0  0  0  0  0  0  0  0  0  0
   -1.3069   58.3640   77.6983 H   0  0  0  0  0  0  0  0  0  0  0  0
    2.9770   62.4456   71.9569 H   0  0  0  0  0  0  0  0  0  0  0  0
    4.2372   62.1387   69.2876 H   0  0  0  0  0  0  0  0  0  0  0  0
    2.8329   62.8996   68.4657 H   0  0  0  0  0  0  0  0  0  0  0  0
    4.4287   63.7244   68.4657 H   0  0  0  0  0  0  0  0  0  0  0  0
    4.2984   64.0591   70.8817 H   0  0  0  0  0  0  0  0  0  0  0  0
    2.8085   64.7109   70.0795 H   0  0  0  0  0  0  0  0  0  0  0  0
    2.4479   59.4331   74.6422 H   0  0  0  0  0  0  0  0  0  0  0  0
    3.3775   57.8902   74.2928 H   0  0  0  0  0  0  0  0  0  0  0  0
    4.4765   60.8150   74.3716 H   0  0  0  0  0  0  0  0  0  0  0  0
    5.9613   61.9966   72.7591 H   0  0  0  0  0  0  0  0  0  0  0  0
    5.9911   61.3200   70.3605 H   0  0  0  0  0  0  0  0  0  0  0  0
    4.5320   59.4592   69.5736 H   0  0  0  0  0  0  0  0  0  0  0  0
    3.0488   58.2683   71.1804 H   0  0  0  0  0  0  0  0  0  0  0  0
  2  1  2  0
  3  2  1  0
  4  3  2  0
  5  4  1  0
  6  5  2  0
  6  1  1  0
  7  5  1  0
  8  7  1  0
  9  8  1  0
 10  9  1  0
 11 10  1  0
 12 11  1  0
 12  7  2  0
 13 12  1  0
 14 13  2  0
 14  4  1  0
 15 13  1  0
 16 15  2  0
 17 16  1  0
 18 17  2  0
 19 18  1  0
 20 19  2  0
 20 15  1  0
 21 18  1  0
 23  1  1  0
 23 22  1  0
 24 23  2  0
 26 25  1  0
 26 22  1  0
 27  8  1  0
 28 27  1  0
 29 28  2  0
 30 29  1  0
 31 30  2  0
 32 31  1  0
 33 32  2  0
 33 28  1  0
  2 34  1  0
  3 35  1  0
  6 36  1  0
  9 37  1  0
  9 38  1  0
 10 39  1  0
 10 40  1  0
 11 41  1  0
 11 42  1  0
 16 43  1  0
 17 44  1  0
 19 45  1  0
 20 46  1  0
 22 47  1  0
 25 48  1  0
 25 49  1  0
 25 50  1  0
 26 51  1  0
 26 52  1  0
 27 53  1  0
 27 54  1  0
 29 55  1  0
 30 56  1  0
 31 57  1  0
 32 58  1  0
 33 59  1  0
M  END
>  <score>  (4) 
-8.566

$$$$
=
     RDKit          3D

 59 63  0  0  0  0  0  0  0  0999 V2000
   -2.2420   58.7230   75.0530 C   0  0  0  0  0  0  0  0  0  0  0  0
   -3.1070   59.7460   74.6760 C   0  0  0  0  0  0  0  0  0  0  0  0
   -2.6270   60.8180   73.9210 C   0  0  0  0  0  0  0  0  0  0  0  0
   -1.2990   60.9010   73.5250 C   0  0  0  0  0  0  0  0  0  0  0  0
   -0.4110   59.8650   73.8760 C   0  0  0  0  0  0  0  0  0  0  0  0
   -0.8990   58.7950   74.6690 C   0  0  0  0  0  0  0  0  0  0  0  0
    0.9390   59.9800   73.4460 C   0  0  0  0  0  0  0  0  0  0  0  0
    1.8560   58.9110   73.5970 N   0  0  0  0  0  0  0  0  0  0  0  0
    3.2930   59.2290   73.6930 C   0  0  0  0  0  0  0  0  0  0  0  0
    3.6000   60.7160   73.6930 C   0  0  0  0  0  0  0  0  0  0  0  0
    2.8180   61.3950   72.5810 C   0  0  0  0  0  0  0  0  0  0  0  0
    1.3510   61.1790   72.8350 C   0  0  0  0  0  0  0  0  0  0  0  0
    0.3810   62.1220   72.4900 C   0  0  0  0  0  0  0  0  0  0  0  0
   -0.9230   61.9780   72.8270 N   0  0  0  0  0  0  0  0  0  0  0  0
    0.6600   63.3480   71.7240 C   0  0  0  0  0  0  0  0  0  0  0  0
    0.0150   64.5550   72.0460 C   0  0  0  0  0  0  0  0  0  0  0  0
    0.2670   65.7230   71.3220 C   0  0  0  0  0  0  0  0  0  0  0  0
    1.1640   65.6960   70.2580 C   0  0  0  0  0  0  0  0  0  0  0  0
    1.8060   64.5100   69.9080 C   0  0  0  0  0  0  0  0  0  0  0  0
    1.5510   63.3430   70.6350 C   0  0  0  0  0  0  0  0  0  0  0  0
    1.4780   67.1330   69.3660 Cl  0  0  0  0  0  0  0  0  0  0  0  0
   -1.9110   56.5600   76.1340 N   0  0  0  0  0  0  0  0  0  0  0  0
   -2.7760   57.6070   75.8820 C   0  0  0  0  0  0  0  0  0  0  0  0
   -3.9360   57.6340   76.2720 O   0  0  0  0  0  0  0  0  0  0  0  0
   -2.9110   54.3280   75.9140 C   0  0  0  0  0  0  0  0  0  0  0  0
   -2.3480   55.3800   76.8520 C   0  0  0  0  0  0  0  0  0  0  0  0
    1.5440   57.7140   72.7710 C   0  0  0  0  0  0  0  0  0  0  0  0
    1.2810   56.4490   73.5700 C   0  0  0  0  0  0  0  0  0  0  0  0
    0.1850   55.6250   73.2710 C   0  0  0  0  0  0  0  0  0  0  0  0
   -0.0520   54.4580   74.0000 C   0  0  0  0  0  0  0  0  0  0  0  0
    0.7990   54.1020   75.0430 C   0  0  0  0  0  0  0  0  0  0  0  0
    1.8840   54.9150   75.3610 C   0  0  0  0  0  0  0  0  0  0  0  0
    2.1230   56.0820   74.6320 C   0  0  0  0  0  0  0  0  0  0  0  0
   -4.1658   59.7101   74.9720 H   0  0  0  0  0  0  0  0  0  0  0  0
   -3.3215   61.6204   73.6315 H   0  0  0  0  0  0  0  0  0  0  0  0
   -0.2053   58.0037   74.9893 H   0  0  0  0  0  0  0  0  0  0  0  0
    3.6810   58.7961   74.6269 H   0  0  0  0  0  0  0  0  0  0  0  0
    3.7720   58.8061   72.7976 H   0  0  0  0  0  0  0  0  0  0  0  0
    3.3115   61.1499   74.6618 H   0  0  0  0  0  0  0  0  0  0  0  0
    4.6771   60.8679   73.5292 H   0  0  0  0  0  0  0  0  0  0  0  0
    3.0397   62.4724   72.5748 H   0  0  0  0  0  0  0  0  0  0  0  0
    3.1002   60.9711   71.6060 H   0  0  0  0  0  0  0  0  0  0  0  0
   -0.6998   64.5802   72.8817 H   0  0  0  0  0  0  0  0  0  0  0  0
   -0.2415   66.6604   71.5918 H   0  0  0  0  0  0  0  0  0  0  0  0
    2.5105   64.4917   69.0634 H   0  0  0  0  0  0  0  0  0  0  0  0
    2.0545   62.4071   70.3513 H   0  0  0  0  0  0  0  0  0  0  0  0
   -0.9367   56.6193   75.8052 H   0  0  0  0  0  0  0  0  0  0  0  0
   -3.3494   53.5087   76.5027 H   0  0  0  0  0  0  0  0  0  0  0  0
   -3.6877   54.7802   75.2797 H   0  0  0  0  0  0  0  0  0  0  0  0
   -2.1039   53.9326   75.2797 H   0  0  0  0  0  0  0  0  0  0  0  0
   -3.1276   55.6693   77.5721 H   0  0  0  0  0  0  0  0  0  0  0  0
   -1.4762   54.9493   77.3663 H   0  0  0  0  0  0  0  0  0  0  0  0
    0.6485   57.9342   72.1714 H   0  0  0  0  0  0  0  0  0  0  0  0
    2.4349   57.5167   72.1566 H   0  0  0  0  0  0  0  0  0  0  0  0
   -0.4956   55.9019   72.4524 H   0  0  0  0  0  0  0  0  0  0  0  0
   -0.9119   53.8192   73.7501 H   0  0  0  0  0  0  0  0  0  0  0  0
    0.6146   53.1804   75.6146 H   0  0  0  0  0  0  0  0  0  0  0  0
    2.5541   54.6375   76.1880 H   0  0  0  0  0  0  0  0  0  0  0  0
    2.9800   56.7205   74.8926 H   0  0  0  0  0  0  0  0  0  0  0  0
  2  1  2  0
  3  2  1  0
  4  3  2  0
  5  4  1  0
  6  5  2  0
  6  1  1  0
  7  5  1  0
  8  7  1  0
  9  8  1  0
 10  9  1  0
 11 10  1  0
 12 11  1  0
 12  7  2  0
 13 12  1  0
 14 13  2  0
 14  4  1  0
 15 13  1  0
 16 15  2  0
 17 16  1  0
 18 17  2  0
 19 18  1  0
 20 19  2  0
 20 15  1  0
 21 18  1  0
 23  1  1  0
 23 22  1  0
 24 23  2  0
 26 25  1  0
 26 22  1  0
 27  8  1  0
 28 27  1  0
 29 28  2  0
 30 29  1  0
 31 30  2  0
 32 31  1  0
 33 32  2  0
 33 28  1  0
  2 34  1  0
  3 35  1  0
  6 36  1  0
  9 37  1  0
  9 38  1  0
 10 39  1  0
 10 40  1  0
 11 41  1  0
 11 42  1  0
 16 43  1  0
 17 44  1  0
 19 45  1  0
 20 46  1  0
 22 47  1  0
 25 48  1  0
 25 49  1  0
 25 50  1  0
 26 51  1  0
 26 52  1  0
 27 53  1  0
 27 54  1  0
 29 55  1  0
 30 56  1  0
 31 57  1  0
 32 58  1  0
 33 59  1  0
M  END
>  <score>  (5) 
-8.354

$$$$
=
     RDKit          3D

 59 63  0  0  0  0  0  0  0  0999 V2000
   -0.0700   55.1800   74.3660 C   0  0  0  0  0  0  0  0  0  0  0  0
    1.1770   54.9900   73.7770 C   0  0  0  0  0  0  0  0  0  0  0  0
    1.8860   56.0880   73.2840 C   0  0  0  0  0  0  0  0  0  0  0  0
    1.3870   57.3800   73.3630 C   0  0  0  0  0  0  0  0  0  0  0  0
    0.1380   57.5990   73.9760 C   0  0  0  0  0  0  0  0  0  0  0  0
   -0.5910   56.4760   74.4460 C   0  0  0  0  0  0  0  0  0  0  0  0
   -0.3380   58.9370   74.0460 C   0  0  0  0  0  0  0  0  0  0  0  0
   -1.4910   59.2720   74.7960 N   0  0  0  0  0  0  0  0  0  0  0  0
   -2.2610   60.4670   74.4000 C   0  0  0  0  0  0  0  0  0  0  0  0
   -1.7390   61.1550   73.1510 C   0  0  0  0  0  0  0  0  0  0  0  0
   -0.2300   61.3120   73.2530 C   0  0  0  0  0  0  0  0  0  0  0  0
    0.3790   59.9420   73.3710 C   0  0  0  0  0  0  0  0  0  0  0  0
    1.6300   59.6270   72.8360 C   0  0  0  0  0  0  0  0  0  0  0  0
    2.1240   58.3660   72.8390 N   0  0  0  0  0  0  0  0  0  0  0  0
    2.5400   60.6150   72.2330 C   0  0  0  0  0  0  0  0  0  0  0  0
    2.2140   61.2370   71.0150 C   0  0  0  0  0  0  0  0  0  0  0  0
    3.0730   62.1720   70.4300 C   0  0  0  0  0  0  0  0  0  0  0  0
    4.2760   62.4890   71.0540 C   0  0  0  0  0  0  0  0  0  0  0  0
    4.6310   61.8760   72.2530 C   0  0  0  0  0  0  0  0  0  0  0  0
    3.7690   60.9410   72.8350 C   0  0  0  0  0  0  0  0  0  0  0  0
    5.3350   63.6400   70.3370 Cl  0  0  0  0  0  0  0  0  0  0  0  0
   -2.1660   54.1610   75.0900 N   0  0  0  0  0  0  0  0  0  0  0  0
   -0.8160   53.9890   74.8580 C   0  0  0  0  0  0  0  0  0  0  0  0
   -0.2230   52.9380   75.0670 O   0  0  0  0  0  0  0  0  0  0  0  0
   -3.2900   53.3500   77.1170 C   0  0  0  0  0  0  0  0  0  0  0  0
   -2.9740   53.0990   75.6540 C   0  0  0  0  0  0  0  0  0  0  0  0
   -1.3400   59.0970   76.2660 C   0  0  0  0  0  0  0  0  0  0  0  0
   -0.0720   59.7030   76.8440 C   0  0  0  0  0  0  0  0  0  0  0  0
    0.0710   61.0950   76.9590 C   0  0  0  0  0  0  0  0  0  0  0  0
    1.2320   61.6510   77.4990 C   0  0  0  0  0  0  0  0  0  0  0  0
    2.2690   60.8250   77.9240 C   0  0  0  0  0  0  0  0  0  0  0  0
    2.1490   59.4430   77.8050 C   0  0  0  0  0  0  0  0  0  0  0  0
    0.9870   58.8840   77.2660 C   0  0  0  0  0  0  0  0  0  0  0  0
    1.6026   53.9786   73.7001 H   0  0  0  0  0  0  0  0  0  0  0  0
    2.8693   55.9233   72.8193 H   0  0  0  0  0  0  0  0  0  0  0  0
   -1.5888   56.6279   74.8834 H   0  0  0  0  0  0  0  0  0  0  0  0
   -3.3020   60.1622   74.2170 H   0  0  0  0  0  0  0  0  0  0  0  0
   -2.1687   61.1910   75.2230 H   0  0  0  0  0  0  0  0  0  0  0  0
   -1.9858   60.5479   72.2675 H   0  0  0  0  0  0  0  0  0  0  0  0
   -2.2056   62.1466   73.0560 H   0  0  0  0  0  0  0  0  0  0  0  0
    0.1537   61.8136   72.3524 H   0  0  0  0  0  0  0  0  0  0  0  0
    0.0298   61.9199   74.1322 H   0  0  0  0  0  0  0  0  0  0  0  0
    1.2678   60.9839   70.5143 H   0  0  0  0  0  0  0  0  0  0  0  0
    2.7993   62.6552   69.4805 H   0  0  0  0  0  0  0  0  0  0  0  0
    5.5850   62.1261   72.7401 H   0  0  0  0  0  0  0  0  0  0  0  0
    4.0564   60.4530   73.7780 H   0  0  0  0  0  0  0  0  0  0  0  0
   -2.6074   55.0621   74.8575 H   0  0  0  0  0  0  0  0  0  0  0  0
   -2.5835   52.7888   77.7462 H   0  0  0  0  0  0  0  0  0  0  0  0
   -3.1992   54.4248   77.3326 H   0  0  0  0  0  0  0  0  0  0  0  0
   -4.3164   53.0183   77.3326 H   0  0  0  0  0  0  0  0  0  0  0  0
   -2.4263   52.1492   75.5656 H   0  0  0  0  0  0  0  0  0  0  0  0
   -3.9236   53.0598   75.1001 H   0  0  0  0  0  0  0  0  0  0  0  0
   -2.2025   59.5692   76.7590 H   0  0  0  0  0  0  0  0  0  0  0  0
   -1.2814   58.0138   76.4485 H   0  0  0  0  0  0  0  0  0  0  0  0
   -0.7410   61.7549   76.6197 H   0  0  0  0  0  0  0  0  0  0  0  0
    1.3276   62.7431   77.5888 H   0  0  0  0  0  0  0  0  0  0  0  0
    3.1819   61.2636   78.3532 H   0  0  0  0  0  0  0  0  0  0  0  0
    2.9701   58.7900   78.1358 H   0  0  0  0  0  0  0  0  0  0  0  0
    0.9015   57.7914   77.1715 H   0  0  0  0  0  0  0  0  0  0  0  0
  2  1  2  0
  3  2  1  0
  4  3  2  0
  5  4  1  0
  6  5  2  0
  6  1  1  0
  7  5  1  0
  8  7  1  0
  9  8  1  0
 10  9  1  0
 11 10  1  0
 12 11  1  0
 12  7  2  0
 13 12  1  0
 14 13  2  0
 14  4  1  0
 15 13  1  0
 16 15  2  0
 17 16  1  0
 18 17  2  0
 19 18  1  0
 20 19  2  0
 20 15  1  0
 21 18  1  0
 23  1  1  0
 23 22  1  0
 24 23  2  0
 26 25  1  0
 26 22  1  0
 27  8  1  0
 28 27  1  0
 29 28  2  0
 30 29  1  0
 31 30  2  0
 32 31  1  0
 33 32  2  0
 33 28  1  0
  2 34  1  0
  3 35  1  0
  6 36  1  0
  9 37  1  0
  9 38  1  0
 10 39  1  0
 10 40  1  0
 11 41  1  0
 11 42  1  0
 16 43  1  0
 17 44  1  0
 19 45  1  0
 20 46  1  0
 22 47  1  0
 25 48  1  0
 25 49  1  0
 25 50  1  0
 26 51  1  0
 26 52  1  0
 27 53  1  0
 27 54  1  0
 29 55  1  0
 30 56  1  0
 31 57  1  0
 32 58  1  0
 33 59  1  0
M  END
>  <score>  (6) 
-8.259

$$$$
=
     RDKit          3D

 59 63  0  0  0  0  0  0  0  0999 V2000
   -0.0150   55.3790   74.1850 C   0  0  0  0  0  0  0  0  0  0  0  0
    1.2460   55.1750   73.6300 C   0  0  0  0  0  0  0  0  0  0  0  0
    1.9760   56.2630   73.1470 C   0  0  0  0  0  0  0  0  0  0  0  0
    1.4850   57.5600   73.2030 C   0  0  0  0  0  0  0  0  0  0  0  0
    0.2220   57.7930   73.7820 C   0  0  0  0  0  0  0  0  0  0  0  0
   -0.5270   56.6800   74.2420 C   0  0  0  0  0  0  0  0  0  0  0  0
   -0.2450   59.1350   73.8300 C   0  0  0  0  0  0  0  0  0  0  0  0
   -1.4140   59.4850   74.5480 N   0  0  0  0  0  0  0  0  0  0  0  0
   -2.1650   60.6820   74.1230 C   0  0  0  0  0  0  0  0  0  0  0  0
   -1.6050   61.3560   72.8830 C   0  0  0  0  0  0  0  0  0  0  0  0
   -0.0980   61.5030   73.0220 C   0  0  0  0  0  0  0  0  0  0  0  0
    0.4980   60.1290   73.1670 C   0  0  0  0  0  0  0  0  0  0  0  0
    1.7590   59.8010   72.6660 C   0  0  0  0  0  0  0  0  0  0  0  0
    2.2430   58.5360   72.6920 N   0  0  0  0  0  0  0  0  0  0  0  0
    2.6920   60.7770   72.0790 C   0  0  0  0  0  0  0  0  0  0  0  0
    3.9530   61.0010   72.6610 C   0  0  0  0  0  0  0  0  0  0  0  0
    4.8440   61.9290   72.1160 C   0  0  0  0  0  0  0  0  0  0  0  0
    4.4800   62.6540   70.9850 C   0  0  0  0  0  0  0  0  0  0  0  0
    3.2320   62.4630   70.3980 C   0  0  0  0  0  0  0  0  0  0  0  0
    2.3420   61.5330   70.9460 C   0  0  0  0  0  0  0  0  0  0  0  0
    5.5760   63.7960   70.3110 Cl  0  0  0  0  0  0  0  0  0  0  0  0
   -2.0410   54.4470   75.1740 N   0  0  0  0  0  0  0  0  0  0  0  0
   -0.7820   54.1970   74.6660 C   0  0  0  0  0  0  0  0  0  0  0  0
   -0.2770   53.0820   74.6290 O   0  0  0  0  0  0  0  0  0  0  0  0
   -2.5450   53.2010   77.2300 C   0  0  0  0  0  0  0  0  0  0  0  0
   -2.8430   53.3880   75.7530 C   0  0  0  0  0  0  0  0  0  0  0  0
   -1.3020   59.3200   76.0220 C   0  0  0  0  0  0  0  0  0  0  0  0
   -2.2810   58.3240   76.6200 C   0  0  0  0  0  0  0  0  0  0  0  0
   -2.0030   57.6890   77.8410 C   0  0  0  0  0  0  0  0  0  0  0  0
   -2.9070   56.7800   78.3950 C   0  0  0  0  0  0  0  0  0  0  0  0
   -4.0950   56.4860   77.7330 C   0  0  0  0  0  0  0  0  0  0  0  0
   -4.3800   57.0970   76.5140 C   0  0  0  0  0  0  0  0  0  0  0  0
   -3.4780   58.0080   75.9590 C   0  0  0  0  0  0  0  0  0  0  0  0
    1.6656   54.1598   73.5723 H   0  0  0  0  0  0  0  0  0  0  0  0
    2.9696   56.0869   72.7092 H   0  0  0  0  0  0  0  0  0  0  0  0
   -1.5341   56.8433   74.6532 H   0  0  0  0  0  0  0  0  0  0  0  0
   -3.2030   60.3830   73.9150 H   0  0  0  0  0  0  0  0  0  0  0  0
   -2.0898   61.4118   74.9426 H   0  0  0  0  0  0  0  0  0  0  0  0
   -1.8335   60.7437   71.9982 H   0  0  0  0  0  0  0  0  0  0  0  0
   -2.0611   62.3504   72.7689 H   0  0  0  0  0  0  0  0  0  0  0  0
    0.3122   61.9941   72.1272 H   0  0  0  0  0  0  0  0  0  0  0  0
    0.1439   62.1165   73.9024 H   0  0  0  0  0  0  0  0  0  0  0  0
    4.2422   60.4364   73.5597 H   0  0  0  0  0  0  0  0  0  0  0  0
    5.8294   62.0860   72.5790 H   0  0  0  0  0  0  0  0  0  0  0  0
    2.9469   63.0412   69.5067 H   0  0  0  0  0  0  0  0  0  0  0  0
    1.3539   61.3910   70.4839 H   0  0  0  0  0  0  0  0  0  0  0  0
   -2.4177   55.4051   75.1408 H   0  0  0  0  0  0  0  0  0  0  0  0
   -3.3276   53.6921   77.8270 H   0  0  0  0  0  0  0  0  0  0  0  0
   -2.5232   52.1270   77.4665 H   0  0  0  0  0  0  0  0  0  0  0  0
   -1.5684   53.6485   77.4665 H   0  0  0  0  0  0  0  0  0  0  0  0
   -2.6275   52.4479   75.2241 H   0  0  0  0  0  0  0  0  0  0  0  0
   -3.9026   53.6648   75.6495 H   0  0  0  0  0  0  0  0  0  0  0  0
   -0.2817   58.9802   76.2533 H   0  0  0  0  0  0  0  0  0  0  0  0
   -1.5402   60.2980   76.4656 H   0  0  0  0  0  0  0  0  0  0  0  0
   -1.0626   57.9100   78.3671 H   0  0  0  0  0  0  0  0  0  0  0  0
   -2.6795   56.2957   79.3561 H   0  0  0  0  0  0  0  0  0  0  0  0
   -4.8080   55.7723   78.1715 H   0  0  0  0  0  0  0  0  0  0  0  0
   -5.3168   56.8618   75.9876 H   0  0  0  0  0  0  0  0  0  0  0  0
   -3.7084   58.4826   74.9938 H   0  0  0  0  0  0  0  0  0  0  0  0
  2  1  2  0
  3  2  1  0
  4  3  2  0
  5  4  1  0
  6  5  2  0
  6  1  1  0
  7  5  1  0
  8  7  1  0
  9  8  1  0
 10  9  1  0
 11 10  1  0
 12 11  1  0
 12  7  2  0
 13 12  1  0
 14 13  2  0
 14  4  1  0
 15 13  1  0
 16 15  2  0
 17 16  1  0
 18 17  2  0
 19 18  1  0
 20 19  2  0
 20 15  1  0
 21 18  1  0
 23  1  1  0
 23 22  1  0
 24 23  2  0
 26 25  1  0
 26 22  1  0
 27  8  1  0
 28 27  1  0
 29 28  2  0
 30 29  1  0
 31 30  2  0
 32 31  1  0
 33 32  2  0
 33 28  1  0
  2 34  1  0
  3 35  1  0
  6 36  1  0
  9 37  1  0
  9 38  1  0
 10 39  1  0
 10 40  1  0
 11 41  1  0
 11 42  1  0
 16 43  1  0
 17 44  1  0
 19 45  1  0
 20 46  1  0
 22 47  1  0
 25 48  1  0
 25 49  1  0
 25 50  1  0
 26 51  1  0
 26 52  1  0
 27 53  1  0
 27 54  1  0
 29 55  1  0
 30 56  1  0
 31 57  1  0
 32 58  1  0
 33 59  1  0
M  END
>  <score>  (7) 
-8.222

$$$$
=
     RDKit          3D

 59 63  0  0  0  0  0  0  0  0999 V2000
   -3.3390   59.0640   75.1150 C   0  0  0  0  0  0  0  0  0  0  0  0
   -3.4870   60.3100   74.5120 C   0  0  0  0  0  0  0  0  0  0  0  0
   -2.4240   60.8630   73.7940 C   0  0  0  0  0  0  0  0  0  0  0  0
   -1.2100   60.2070   73.6560 C   0  0  0  0  0  0  0  0  0  0  0  0
   -1.0460   58.9340   74.2380 C   0  0  0  0  0  0  0  0  0  0  0  0
   -2.1180   58.3920   74.9920 C   0  0  0  0  0  0  0  0  0  0  0  0
    0.2090   58.2880   74.0700 C   0  0  0  0  0  0  0  0  0  0  0  0
    0.4050   56.9420   74.4640 N   0  0  0  0  0  0  0  0  0  0  0  0
    1.7710   56.5070   74.8130 C   0  0  0  0  0  0  0  0  0  0  0  0
    2.8050   57.6190   74.7740 C   0  0  0  0  0  0  0  0  0  0  0  0
    2.6440   58.4160   73.4890 C   0  0  0  0  0  0  0  0  0  0  0  0
    1.2610   59.0060   73.4710 C   0  0  0  0  0  0  0  0  0  0  0  0
    0.9790   60.2420   72.8840 C   0  0  0  0  0  0  0  0  0  0  0  0
   -0.2400   60.8250   72.9740 N   0  0  0  0  0  0  0  0  0  0  0  0
    1.9520   61.0260   72.1070 C   0  0  0  0  0  0  0  0  0  0  0  0
    2.1490   62.3920   72.3760 C   0  0  0  0  0  0  0  0  0  0  0  0
    3.0660   63.1470   71.6410 C   0  0  0  0  0  0  0  0  0  0  0  0
    3.7930   62.5460   70.6170 C   0  0  0  0  0  0  0  0  0  0  0  0
    3.6060   61.1980   70.3190 C   0  0  0  0  0  0  0  0  0  0  0  0
    2.6870   60.4450   71.0580 C   0  0  0  0  0  0  0  0  0  0  0  0
    4.9240   63.4720   69.7110 Cl  0  0  0  0  0  0  0  0  0  0  0  0
   -5.4530   59.4090   76.2840 N   0  0  0  0  0  0  0  0  0  0  0  0
   -4.4790   58.5110   75.8980 C   0  0  0  0  0  0  0  0  0  0  0  0
   -4.4980   57.3220   76.1940 O   0  0  0  0  0  0  0  0  0  0  0  0
   -7.8950   59.4310   76.5420 C   0  0  0  0  0  0  0  0  0  0  0  0
   -6.5610   59.0020   77.1250 C   0  0  0  0  0  0  0  0  0  0  0  0
   -0.3730   55.9510   73.6750 C   0  0  0  0  0  0  0  0  0  0  0  0
   -0.6320   54.6370   74.3930 C   0  0  0  0  0  0  0  0  0  0  0  0
   -0.0090   53.4530   73.9710 C   0  0  0  0  0  0  0  0  0  0  0  0
   -0.2400   52.2470   74.6360 C   0  0  0  0  0  0  0  0  0  0  0  0
   -1.1030   52.2080   75.7280 C   0  0  0  0  0  0  0  0  0  0  0  0
   -1.7400   53.3710   76.1520 C   0  0  0  0  0  0  0  0  0  0  0  0
   -1.5090   54.5790   75.4880 C   0  0  0  0  0  0  0  0  0  0  0  0
   -4.4373   60.8569   74.6006 H   0  0  0  0  0  0  0  0  0  0  0  0
   -2.5538   61.8489   73.3237 H   0  0  0  0  0  0  0  0  0  0  0  0
   -1.9864   57.4209   75.4916 H   0  0  0  0  0  0  0  0  0  0  0  0
    1.7512   56.0893   75.8304 H   0  0  0  0  0  0  0  0  0  0  0  0
    2.0716   55.7677   74.0560 H   0  0  0  0  0  0  0  0  0  0  0  0
    2.6611   58.2840   75.6384 H   0  0  0  0  0  0  0  0  0  0  0  0
    3.8141   57.1828   74.8109 H   0  0  0  0  0  0  0  0  0  0  0  0
    3.3926   59.2212   73.4542 H   0  0  0  0  0  0  0  0  0  0  0  0
    2.7892   57.7623   72.6163 H   0  0  0  0  0  0  0  0  0  0  0  0
    1.5714   62.8740   73.1785 H   0  0  0  0  0  0  0  0  0  0  0  0
    3.2132   64.2127   71.8704 H   0  0  0  0  0  0  0  0  0  0  0  0
    4.1785   60.7276   69.5060 H   0  0  0  0  0  0  0  0  0  0  0  0
    2.5371   59.3827   70.8149 H   0  0  0  0  0  0  0  0  0  0  0  0
   -5.3914   60.3875   75.9683 H   0  0  0  0  0  0  0  0  0  0  0  0
   -8.5965   59.6566   77.3587 H   0  0  0  0  0  0  0  0  0  0  0  0
   -7.7527   60.3287   75.9224 H   0  0  0  0  0  0  0  0  0  0  0  0
   -8.3026   58.6186   75.9224 H   0  0  0  0  0  0  0  0  0  0  0  0
   -6.4420   59.4601   78.1180 H   0  0  0  0  0  0  0  0  0  0  0  0
   -6.5540   57.9042   77.1941 H   0  0  0  0  0  0  0  0  0  0  0  0
   -1.3441   56.4007   73.4206 H   0  0  0  0  0  0  0  0  0  0  0  0
    0.2344   55.7095   72.7902 H   0  0  0  0  0  0  0  0  0  0  0  0
    0.6698   53.4749   73.1057 H   0  0  0  0  0  0  0  0  0  0  0  0
    0.2599   51.3276   74.2971 H   0  0  0  0  0  0  0  0  0  0  0  0
   -1.2813   51.2592   76.2552 H   0  0  0  0  0  0  0  0  0  0  0  0
   -2.4263   53.3392   77.0111 H   0  0  0  0  0  0  0  0  0  0  0  0
   -2.0191   55.4929   75.8265 H   0  0  0  0  0  0  0  0  0  0  0  0
  2  1  2  0
  3  2  1  0
  4  3  2  0
  5  4  1  0
  6  5  2  0
  6  1  1  0
  7  5  1  0
  8  7  1  0
  9  8  1  0
 10  9  1  0
 11 10  1  0
 12 11  1  0
 12  7  2  0
 13 12  1  0
 14 13  2  0
 14  4  1  0
 15 13  1  0
 16 15  2  0
 17 16  1  0
 18 17  2  0
 19 18  1  0
 20 19  2  0
 20 15  1  0
 21 18  1  0
 23  1  1  0
 23 22  1  0
 24 23  2  0
 26 25  1  0
 26 22  1  0
 27  8  1  0
 28 27  1  0
 29 28  2  0
 30 29  1  0
 31 30  2  0
 32 31  1  0
 33 32  2  0
 33 28  1  0
  2 34  1  0
  3 35  1  0
  6 36  1  0
  9 37  1  0
  9 38  1  0
 10 39  1  0
 10 40  1  0
 11 41  1  0
 11 42  1  0
 16 43  1  0
 17 44  1  0
 19 45  1  0
 20 46  1  0
 22 47  1  0
 25 48  1  0
 25 49  1  0
 25 50  1  0
 26 51  1  0
 26 52  1  0
 27 53  1  0
 27 54  1  0
 29 55  1  0
 30 56  1  0
 31 57  1  0
 32 58  1  0
 33 59  1  0
M  END
>  <score>  (8) 
-8.112

$$$$
=
     RDKit          3D

 59 63  0  0  0  0  0  0  0  0999 V2000
    3.7650   59.6970   71.7410 C   0  0  0  0  0  0  0  0  0  0  0  0
    3.3340   58.5800   71.0300 C   0  0  0  0  0  0  0  0  0  0  0  0
    2.6200   57.5740   71.6840 C   0  0  0  0  0  0  0  0  0  0  0  0
    2.3170   57.6480   73.0360 C   0  0  0  0  0  0  0  0  0  0  0  0
    2.7220   58.7810   73.7710 C   0  0  0  0  0  0  0  0  0  0  0  0
    3.4740   59.7840   73.1070 C   0  0  0  0  0  0  0  0  0  0  0  0
    2.3870   58.8270   75.1510 C   0  0  0  0  0  0  0  0  0  0  0  0
    2.5940   59.9960   75.9230 N   0  0  0  0  0  0  0  0  0  0  0  0
    2.7900   59.8480   77.3780 C   0  0  0  0  0  0  0  0  0  0  0  0
    2.8200   58.4080   77.8560 C   0  0  0  0  0  0  0  0  0  0  0  0
    1.6600   57.6440   77.2380 C   0  0  0  0  0  0  0  0  0  0  0  0
    1.8120   57.6860   75.7420 C   0  0  0  0  0  0  0  0  0  0  0  0
    1.4060   56.6360   74.9160 C   0  0  0  0  0  0  0  0  0  0  0  0
    1.6520   56.6250   73.5840 N   0  0  0  0  0  0  0  0  0  0  0  0
    0.6680   55.4540   75.3890 C   0  0  0  0  0  0  0  0  0  0  0  0
   -0.7380   55.4480   75.4060 C   0  0  0  0  0  0  0  0  0  0  0  0
   -1.4500   54.3340   75.8590 C   0  0  0  0  0  0  0  0  0  0  0  0
   -0.7610   53.2110   76.3090 C   0  0  0  0  0  0  0  0  0  0  0  0
    0.6320   53.1960   76.3170 C   0  0  0  0  0  0  0  0  0  0  0  0
    1.3400   54.3130   75.8640 C   0  0  0  0  0  0  0  0  0  0  0  0
   -1.6340   51.8370   76.8650 Cl  0  0  0  0  0  0  0  0  0  0  0  0
    3.9240   61.9560   70.8340 N   0  0  0  0  0  0  0  0  0  0  0  0
    4.5480   60.7400   71.0240 C   0  0  0  0  0  0  0  0  0  0  0  0
    5.6730   60.4850   70.6100 O   0  0  0  0  0  0  0  0  0  0  0  0
    4.0260   63.0760   68.6500 C   0  0  0  0  0  0  0  0  0  0  0  0
    4.5540   63.0160   70.0720 C   0  0  0  0  0  0  0  0  0  0  0  0
    1.7420   61.1500   75.5310 C   0  0  0  0  0  0  0  0  0  0  0  0
    0.2960   60.7920   75.2320 C   0  0  0  0  0  0  0  0  0  0  0  0
   -0.1940   60.8210   73.9180 C   0  0  0  0  0  0  0  0  0  0  0  0
   -1.5210   60.4830   73.6420 C   0  0  0  0  0  0  0  0  0  0  0  0
   -2.3780   60.1210   74.6790 C   0  0  0  0  0  0  0  0  0  0  0  0
   -1.9110   60.1000   75.9900 C   0  0  0  0  0  0  0  0  0  0  0  0
   -0.5830   60.4360   76.2670 C   0  0  0  0  0  0  0  0  0  0  0  0
    3.5554   58.4904   69.9562 H   0  0  0  0  0  0  0  0  0  0  0  0
    2.2877   56.6964   71.1101 H   0  0  0  0  0  0  0  0  0  0  0  0
    3.8369   60.6505   73.6793 H   0  0  0  0  0  0  0  0  0  0  0  0
    3.7455   60.3215   77.6477 H   0  0  0  0  0  0  0  0  0  0  0  0
    1.9268   60.3257   77.8645 H   0  0  0  0  0  0  0  0  0  0  0  0
    3.7690   57.9411   77.5536 H   0  0  0  0  0  0  0  0  0  0  0  0
    2.7321   58.3839   78.9522 H   0  0  0  0  0  0  0  0  0  0  0  0
    1.6752   56.6001   77.5845 H   0  0  0  0  0  0  0  0  0  0  0  0
    0.7040   58.0998   77.5353 H   0  0  0  0  0  0  0  0  0  0  0  0
   -1.2868   56.3351   75.0569 H   0  0  0  0  0  0  0  0  0  0  0  0
   -2.5500   54.3444   75.8600 H   0  0  0  0  0  0  0  0  0  0  0  0
    1.1726   52.3088   76.6783 H   0  0  0  0  0  0  0  0  0  0  0  0
    2.4398   54.2996   75.8792 H   0  0  0  0  0  0  0  0  0  0  0  0
    2.9915   62.1137   71.2420 H   0  0  0  0  0  0  0  0  0  0  0  0
    2.9332   63.2002   68.6696 H   0  0  0  0  0  0  0  0  0  0  0  0
    4.4825   63.9280   68.1250 H   0  0  0  0  0  0  0  0  0  0  0  0
    4.2797   62.1432   68.1250 H   0  0  0  0  0  0  0  0  0  0  0  0
    5.6389   62.8370   70.0421 H   0  0  0  0  0  0  0  0  0  0  0  0
    4.3256   63.9734   70.5631 H   0  0  0  0  0  0  0  0  0  0  0  0
    1.7523   61.8799   76.3538 H   0  0  0  0  0  0  0  0  0  0  0  0
    2.1653   61.5488   74.5973 H   0  0  0  0  0  0  0  0  0  0  0  0
    0.4747   61.1134   73.0950 H   0  0  0  0  0  0  0  0  0  0  0  0
   -1.8893   60.5027   72.6057 H   0  0  0  0  0  0  0  0  0  0  0  0
   -3.4223   59.8521   74.4620 H   0  0  0  0  0  0  0  0  0  0  0  0
   -2.5884   59.8184   76.8096 H   0  0  0  0  0  0  0  0  0  0  0  0
   -0.2230   60.4214   77.3063 H   0  0  0  0  0  0  0  0  0  0  0  0
  2  1  2  0
  3  2  1  0
  4  3  2  0
  5  4  1  0
  6  5  2  0
  6  1  1  0
  7  5  1  0
  8  7  1  0
  9  8  1  0
 10  9  1  0
 11 10  1  0
 12 11  1  0
 12  7  2  0
 13 12  1  0
 14 13  2  0
 14  4  1  0
 15 13  1  0
 16 15  2  0
 17 16  1  0
 18 17  2  0
 19 18  1  0
 20 19  2  0
 20 15  1  0
 21 18  1  0
 23  1  1  0
 23 22  1  0
 24 23  2  0
 26 25  1  0
 26 22  1  0
 27  8  1  0
 28 27  1  0
 29 28  2  0
 30 29  1  0
 31 30  2  0
 32 31  1  0
 33 32  2  0
 33 28  1  0
  2 34  1  0
  3 35  1  0
  6 36  1  0
  9 37  1  0
  9 38  1  0
 10 39  1  0
 10 40  1  0
 11 41  1  0
 11 42  1  0
 16 43  1  0
 17 44  1  0
 19 45  1  0
 20 46  1  0
 22 47  1  0
 25 48  1  0
 25 49  1  0
 25 50  1  0
 26 51  1  0
 26 52  1  0
 27 53  1  0
 27 54  1  0
 29 55  1  0
 30 56  1  0
 31 57  1  0
 32 58  1  0
 33 59  1  0
M  END
>  <score>  (9) 
-7.962

$$$$
