=
     RDKit          3D

 31 32  0  0  0  0  0  0  0  0999 V2000
    3.1900   68.8750   65.2550 N   0  0  0  0  0  0  0  0  0  0  0  0
    2.0860   68.7310   66.0550 C   0  0  0  0  0  0  0  0  0  0  0  0
    0.9800   68.5760   65.3520 N   0  0  0  0  0  0  0  0  0  0  0  0
    1.3970   68.6300   64.0470 C   0  0  0  0  0  0  0  0  0  0  0  0
    2.7580   68.8200   63.9600 C   0  0  0  0  0  0  0  0  0  0  0  0
    3.5250   68.9270   62.8470 N   0  0  0  0  0  0  0  0  0  0  0  0
    2.8370   68.8320   61.7410 C   0  0  0  0  0  0  0  0  0  0  0  0
    3.4660   68.9260   60.5420 N   0  0  0  0  0  0  0  0  0  0  0  0
    1.4700   68.6470   61.6970 N   0  0  0  0  0  0  0  0  0  0  0  0
    0.6530   68.5170   62.8130 C   0  0  0  0  0  0  0  0  0  0  0  0
   -0.5560   68.3270   62.7130 O   0  0  0  0  0  0  0  0  0  0  0  0
    4.5690   69.0610   65.6610 C   0  0  0  0  0  0  0  0  0  0  0  0
    4.7210   70.3280   66.3010 O   0  0  0  0  0  0  0  0  0  0  0  0
    5.1300   70.2080   67.6670 C   0  0  0  0  0  0  0  0  0  0  0  0
    6.2340   71.2450   67.9330 C   0  0  0  0  0  0  0  0  0  0  0  0
    5.7030   72.5560   68.0930 O   0  0  0  0  0  0  0  0  0  0  0  0
    3.9340   70.4360   68.6080 C   0  0  0  0  0  0  0  0  0  0  0  0
    4.3540   70.6190   69.9570 O   0  0  0  0  0  0  0  0  0  0  0  0
    2.1183   68.7432   67.1545 H   0  0  0  0  0  0  0  0  0  0  0  0
    2.9244   68.8512   59.6691 H   0  0  0  0  0  0  0  0  0  0  0  0
    4.4849   69.0721   60.5050 H   0  0  0  0  0  0  0  0  0  0  0  0
    1.0234   68.6021   60.7699 H   0  0  0  0  0  0  0  0  0  0  0  0
    4.8538   68.2621   66.3615 H   0  0  0  0  0  0  0  0  0  0  0  0
    5.2160   69.0246   64.7721 H   0  0  0  0  0  0  0  0  0  0  0  0
    5.5156   69.1955   67.8570 H   0  0  0  0  0  0  0  0  0  0  0  0
    6.7717   70.9646   68.8507 H   0  0  0  0  0  0  0  0  0  0  0  0
    6.9095   71.2543   67.0649 H   0  0  0  0  0  0  0  0  0  0  0  0
    5.6193   72.7627   69.0576 H   0  0  0  0  0  0  0  0  0  0  0  0
    3.3876   71.3325   68.2797 H   0  0  0  0  0  0  0  0  0  0  0  0
    3.2897   69.5454   68.5666 H   0  0  0  0  0  0  0  0  0  0  0  0
    3.6410   70.3084   70.5696 H   0  0  0  0  0  0  0  0  0  0  0  0
  2  1  1  0
  3  2  2  0
  4  3  1  0
  5  4  2  0
  5  1  1  0
  6  5  1  0
  7  6  2  0
  8  7  1  0
  9  7  1  0
 10  9  1  0
 10  4  1  0
 11 10  2  0
 12  1  1  0
 13 12  1  0
 14 13  1  0
 15 14  1  0
 16 15  1  0
 17 14  1  0
 18 17  1  0
  2 19  1  0
  8 20  1  0
  8 21  1  0
  9 22  1  0
 12 23  1  0
 12 24  1  0
 14 25  1  0
 15 26  1  0
 15 27  1  0
 16 28  1  0
 17 29  1  0
 17 30  1  0
 18 31  1  0
M  END
>  <score>  (1) 
-8.07

$$$$
=
     RDKit          3D

 31 32  0  0  0  0  0  0  0  0999 V2000
    4.2930   69.2250   64.5670 N   0  0  0  0  0  0  0  0  0  0  0  0
    5.4100   69.3030   63.7760 C   0  0  0  0  0  0  0  0  0  0  0  0
    5.1200   69.1780   62.4940 N   0  0  0  0  0  0  0  0  0  0  0  0
    3.7600   69.0080   62.4680 C   0  0  0  0  0  0  0  0  0  0  0  0
    3.2250   69.0260   63.7370 C   0  0  0  0  0  0  0  0  0  0  0  0
    1.9290   68.8860   64.1070 N   0  0  0  0  0  0  0  0  0  0  0  0
    1.1230   68.7120   63.0940 C   0  0  0  0  0  0  0  0  0  0  0  0
   -0.2070   68.5510   63.3060 N   0  0  0  0  0  0  0  0  0  0  0  0
    1.5380   68.6700   61.7770 N   0  0  0  0  0  0  0  0  0  0  0  0
    2.8530   68.8240   61.3570 C   0  0  0  0  0  0  0  0  0  0  0  0
    3.1610   68.8030   60.1690 O   0  0  0  0  0  0  0  0  0  0  0  0
    4.2120   69.3210   66.0100 C   0  0  0  0  0  0  0  0  0  0  0  0
    5.1500   70.2870   66.4860 O   0  0  0  0  0  0  0  0  0  0  0  0
    5.2720   70.2780   67.9120 C   0  0  0  0  0  0  0  0  0  0  0  0
    6.2310   71.4080   68.3210 C   0  0  0  0  0  0  0  0  0  0  0  0
    5.6620   72.6930   68.0980 O   0  0  0  0  0  0  0  0  0  0  0  0
    3.8940   70.4720   68.5700 C   0  0  0  0  0  0  0  0  0  0  0  0
    4.0130   70.8260   69.9450 O   0  0  0  0  0  0  0  0  0  0  0  0
    6.4285   69.4522   64.1639 H   0  0  0  0  0  0  0  0  0  0  0  0
   -0.8429   68.4138   62.5074 H   0  0  0  0  0  0  0  0  0  0  0  0
   -0.5811   68.5660   64.2656 H   0  0  0  0  0  0  0  0  0  0  0  0
    0.8207   68.5132   61.0546 H   0  0  0  0  0  0  0  0  0  0  0  0
    3.1955   69.6264   66.2988 H   0  0  0  0  0  0  0  0  0  0  0  0
    4.4453   68.3411   66.4519 H   0  0  0  0  0  0  0  0  0  0  0  0
    5.6702   69.3099   68.2501 H   0  0  0  0  0  0  0  0  0  0  0  0
    6.4674   71.3043   69.3903 H   0  0  0  0  0  0  0  0  0  0  0  0
    7.1383   71.3251   67.7047 H   0  0  0  0  0  0  0  0  0  0  0  0
    5.4708   73.1248   68.9681 H   0  0  0  0  0  0  0  0  0  0  0  0
    3.3556   71.2721   68.0410 H   0  0  0  0  0  0  0  0  0  0  0  0
    3.3461   69.5203   68.5066 H   0  0  0  0  0  0  0  0  0  0  0  0
    3.7535   70.0542   70.5081 H   0  0  0  0  0  0  0  0  0  0  0  0
  2  1  1  0
  3  2  2  0
  4  3  1  0
  5  4  2  0
  5  1  1  0
  6  5  1  0
  7  6  2  0
  8  7  1  0
  9  7  1  0
 10  9  1  0
 10  4  1  0
 11 10  2  0
 12  1  1  0
 13 12  1  0
 14 13  1  0
 15 14  1  0
 16 15  1  0
 17 14  1  0
 18 17  1  0
  2 19  1  0
  8 20  1  0
  8 21  1  0
  9 22  1  0
 12 23  1  0
 12 24  1  0
 14 25  1  0
 15 26  1  0
 15 27  1  0
 16 28  1  0
 17 29  1  0
 17 30  1  0
 18 31  1  0
M  END
>  <score>  (2) 
-7.964

$$$$
=
     RDKit          3D

 31 32  0  0  0  0  0  0  0  0999 V2000
    2.0290   67.5500   65.4550 N   0  0  0  0  0  0  0  0  0  0  0  0
    2.1520   68.7240   64.7580 C   0  0  0  0  0  0  0  0  0  0  0  0
    2.9200   68.5900   63.6930 N   0  0  0  0  0  0  0  0  0  0  0  0
    3.3050   67.2750   63.7140 C   0  0  0  0  0  0  0  0  0  0  0  0
    2.7730   66.6110   64.7960 C   0  0  0  0  0  0  0  0  0  0  0  0
    2.9320   65.3120   65.1500 N   0  0  0  0  0  0  0  0  0  0  0  0
    3.6990   64.6480   64.3280 C   0  0  0  0  0  0  0  0  0  0  0  0
    3.9570   63.3360   64.5530 N   0  0  0  0  0  0  0  0  0  0  0  0
    4.2940   65.2020   63.2120 N   0  0  0  0  0  0  0  0  0  0  0  0
    4.1430   66.5220   62.8080 C   0  0  0  0  0  0  0  0  0  0  0  0
    4.6770   66.9540   61.7900 O   0  0  0  0  0  0  0  0  0  0  0  0
    1.2710   67.3050   66.6650 C   0  0  0  0  0  0  0  0  0  0  0  0
   -0.1030   67.0860   66.3420 O   0  0  0  0  0  0  0  0  0  0  0  0
   -0.9840   67.9390   67.0800 C   0  0  0  0  0  0  0  0  0  0  0  0
   -1.3250   69.1550   66.2030 C   0  0  0  0  0  0  0  0  0  0  0  0
   -1.6030   68.7790   64.8600 O   0  0  0  0  0  0  0  0  0  0  0  0
   -2.2630   67.1790   67.4730 C   0  0  0  0  0  0  0  0  0  0  0  0
   -3.4240   67.9910   67.3230 O   0  0  0  0  0  0  0  0  0  0  0  0
    1.6676   69.6669   65.0518 H   0  0  0  0  0  0  0  0  0  0  0  0
    4.5620   62.8116   63.9050 H   0  0  0  0  0  0  0  0  0  0  0  0
    3.5480   62.8638   65.3719 H   0  0  0  0  0  0  0  0  0  0  0  0
    4.8932   64.5921   62.6376 H   0  0  0  0  0  0  0  0  0  0  0  0
    1.6724   66.4158   67.1731 H   0  0  0  0  0  0  0  0  0  0  0  0
    1.3524   68.1799   67.3267 H   0  0  0  0  0  0  0  0  0  0  0  0
   -0.4957   68.2728   68.0074 H   0  0  0  0  0  0  0  0  0  0  0  0
   -2.2089   69.6586   66.6215 H   0  0  0  0  0  0  0  0  0  0  0  0
   -0.4529   69.8254   66.1958 H   0  0  0  0  0  0  0  0  0  0  0  0
   -2.1916   67.9830   64.8553 H   0  0  0  0  0  0  0  0  0  0  0  0
   -2.3626   66.2919   66.8302 H   0  0  0  0  0  0  0  0  0  0  0  0
   -2.1798   66.8907   68.5313 H   0  0  0  0  0  0  0  0  0  0  0  0
   -3.7734   68.2354   68.2165 H   0  0  0  0  0  0  0  0  0  0  0  0
  2  1  1  0
  3  2  2  0
  4  3  1  0
  5  4  2  0
  5  1  1  0
  6  5  1  0
  7  6  2  0
  8  7  1  0
  9  7  1  0
 10  9  1  0
 10  4  1  0
 11 10  2  0
 12  1  1  0
 13 12  1  0
 14 13  1  0
 15 14  1  0
 16 15  1  0
 17 14  1  0
 18 17  1  0
  2 19  1  0
  8 20  1  0
  8 21  1  0
  9 22  1  0
 12 23  1  0
 12 24  1  0
 14 25  1  0
 15 26  1  0
 15 27  1  0
 16 28  1  0
 17 29  1  0
 17 30  1  0
 18 31  1  0
M  END
>  <score>  (3) 
-7.712

$$$$
=
     RDKit          3D

 31 32  0  0  0  0  0  0  0  0999 V2000
    1.3320   68.1250   65.0810 N   0  0  0  0  0  0  0  0  0  0  0  0
    2.0920   67.3690   65.9360 C   0  0  0  0  0  0  0  0  0  0  0  0
    1.3860   66.9040   66.9490 N   0  0  0  0  0  0  0  0  0  0  0  0
    0.1220   67.3880   66.7330 C   0  0  0  0  0  0  0  0  0  0  0  0
    0.0630   68.1510   65.5880 C   0  0  0  0  0  0  0  0  0  0  0  0
   -1.0060   68.7930   65.0570 N   0  0  0  0  0  0  0  0  0  0  0  0
   -2.0970   68.6380   65.7590 C   0  0  0  0  0  0  0  0  0  0  0  0
   -3.2510   69.2260   65.3570 N   0  0  0  0  0  0  0  0  0  0  0  0
   -2.1650   67.9020   66.9250 N   0  0  0  0  0  0  0  0  0  0  0  0
   -1.0970   67.2190   67.4920 C   0  0  0  0  0  0  0  0  0  0  0  0
   -1.2220   66.5580   68.5190 O   0  0  0  0  0  0  0  0  0  0  0  0
    1.7510   68.7930   63.8660 C   0  0  0  0  0  0  0  0  0  0  0  0
    3.1490   69.0820   63.9270 O   0  0  0  0  0  0  0  0  0  0  0  0
    3.8330   68.7440   62.7170 C   0  0  0  0  0  0  0  0  0  0  0  0
    4.5170   67.3810   62.9120 C   0  0  0  0  0  0  0  0  0  0  0  0
    5.3890   67.0660   61.8330 O   0  0  0  0  0  0  0  0  0  0  0  0
    2.8450   68.6900   61.5380 C   0  0  0  0  0  0  0  0  0  0  0  0
    3.4910   68.9620   60.2970 O   0  0  0  0  0  0  0  0  0  0  0  0
    3.1650   67.1731   65.7939 H   0  0  0  0  0  0  0  0  0  0  0  0
   -4.1112   69.1039   65.9103 H   0  0  0  0  0  0  0  0  0  0  0  0
   -3.2673   69.7947   64.4984 H   0  0  0  0  0  0  0  0  0  0  0  0
   -3.0730   67.8562   67.4091 H   0  0  0  0  0  0  0  0  0  0  0  0
    1.5508   68.1404   63.0034 H   0  0  0  0  0  0  0  0  0  0  0  0
    1.1912   69.7338   63.7585 H   0  0  0  0  0  0  0  0  0  0  0  0
    4.5877   69.5101   62.4859 H   0  0  0  0  0  0  0  0  0  0  0  0
    5.0997   67.4057   63.8446 H   0  0  0  0  0  0  0  0  0  0  0  0
    3.7340   66.6095   62.9540 H   0  0  0  0  0  0  0  0  0  0  0  0
    6.2571   66.7524   62.1910 H   0  0  0  0  0  0  0  0  0  0  0  0
    2.3965   67.6865   61.4942 H   0  0  0  0  0  0  0  0  0  0  0  0
    2.0750   69.4587   61.6999 H   0  0  0  0  0  0  0  0  0  0  0  0
    4.3896   69.3404   60.4687 H   0  0  0  0  0  0  0  0  0  0  0  0
  2  1  1  0
  3  2  2  0
  4  3  1  0
  5  4  2  0
  5  1  1  0
  6  5  1  0
  7  6  2  0
  8  7  1  0
  9  7  1  0
 10  9  1  0
 10  4  1  0
 11 10  2  0
 12  1  1  0
 13 12  1  0
 14 13  1  0
 15 14  1  0
 16 15  1  0
 17 14  1  0
 18 17  1  0
  2 19  1  0
  8 20  1  0
  8 21  1  0
  9 22  1  0
 12 23  1  0
 12 24  1  0
 14 25  1  0
 15 26  1  0
 15 27  1  0
 16 28  1  0
 17 29  1  0
 17 30  1  0
 18 31  1  0
M  END
>  <score>  (4) 
-7.684

$$$$
=
     RDKit          3D

 31 32  0  0  0  0  0  0  0  0999 V2000
    1.3200   68.0070   64.3190 N   0  0  0  0  0  0  0  0  0  0  0  0
    1.6150   67.0160   65.2190 C   0  0  0  0  0  0  0  0  0  0  0  0
    2.6780   66.3210   64.8610 N   0  0  0  0  0  0  0  0  0  0  0  0
    3.0740   66.8910   63.6790 C   0  0  0  0  0  0  0  0  0  0  0  0
    2.2480   67.9310   63.3180 C   0  0  0  0  0  0  0  0  0  0  0  0
    2.3200   68.7240   62.2210 N   0  0  0  0  0  0  0  0  0  0  0  0
    3.3190   68.4210   61.4360 C   0  0  0  0  0  0  0  0  0  0  0  0
    3.5190   69.1230   60.2920 N   0  0  0  0  0  0  0  0  0  0  0  0
    4.2120   67.3980   61.6840 N   0  0  0  0  0  0  0  0  0  0  0  0
    4.1810   66.5760   62.8030 C   0  0  0  0  0  0  0  0  0  0  0  0
    5.0190   65.6970   62.9850 O   0  0  0  0  0  0  0  0  0  0  0  0
    0.2380   68.9690   64.3720 C   0  0  0  0  0  0  0  0  0  0  0  0
   -0.9650   68.3240   64.7940 O   0  0  0  0  0  0  0  0  0  0  0  0
   -1.6830   69.0860   65.7710 C   0  0  0  0  0  0  0  0  0  0  0  0
   -2.9580   68.3120   66.1440 C   0  0  0  0  0  0  0  0  0  0  0  0
   -3.0400   68.0690   67.5440 O   0  0  0  0  0  0  0  0  0  0  0  0
   -0.8090   69.3230   67.0160 C   0  0  0  0  0  0  0  0  0  0  0  0
   -1.1130   70.5660   67.6420 O   0  0  0  0  0  0  0  0  0  0  0  0
    1.0337   66.8228   66.1326 H   0  0  0  0  0  0  0  0  0  0  0  0
    4.3066   68.8846   59.6725 H   0  0  0  0  0  0  0  0  0  0  0  0
    2.8832   69.8942   60.0432 H   0  0  0  0  0  0  0  0  0  0  0  0
    4.9544   67.2325   60.9895 H   0  0  0  0  0  0  0  0  0  0  0  0
    0.4937   69.7668   65.0849 H   0  0  0  0  0  0  0  0  0  0  0  0
    0.0865   69.3996   63.3712 H   0  0  0  0  0  0  0  0  0  0  0  0
   -1.9507   70.0702   65.3590 H   0  0  0  0  0  0  0  0  0  0  0  0
   -3.8345   68.8993   65.8329 H   0  0  0  0  0  0  0  0  0  0  0  0
   -2.9297   67.3399   65.6300 H   0  0  0  0  0  0  0  0  0  0  0  0
   -2.7655   68.8826   68.0368 H   0  0  0  0  0  0  0  0  0  0  0  0
   -0.9840   68.5091   67.7350 H   0  0  0  0  0  0  0  0  0  0  0  0
    0.2436   69.3468   66.6976 H   0  0  0  0  0  0  0  0  0  0  0  0
   -1.0860   70.4555   68.6254 H   0  0  0  0  0  0  0  0  0  0  0  0
  2  1  1  0
  3  2  2  0
  4  3  1  0
  5  4  2  0
  5  1  1  0
  6  5  1  0
  7  6  2  0
  8  7  1  0
  9  7  1  0
 10  9  1  0
 10  4  1  0
 11 10  2  0
 12  1  1  0
 13 12  1  0
 14 13  1  0
 15 14  1  0
 16 15  1  0
 17 14  1  0
 18 17  1  0
  2 19  1  0
  8 20  1  0
  8 21  1  0
  9 22  1  0
 12 23  1  0
 12 24  1  0
 14 25  1  0
 15 26  1  0
 15 27  1  0
 16 28  1  0
 17 29  1  0
 17 30  1  0
 18 31  1  0
M  END
>  <score>  (5) 
-7.648

$$$$
=
     RDKit          3D

 31 32  0  0  0  0  0  0  0  0999 V2000
    2.3520   69.0930   66.6020 N   0  0  0  0  0  0  0  0  0  0  0  0
    2.4110   69.4770   67.9170 C   0  0  0  0  0  0  0  0  0  0  0  0
    3.5950   69.9620   68.2390 N   0  0  0  0  0  0  0  0  0  0  0  0
    4.3230   69.8800   67.0810 C   0  0  0  0  0  0  0  0  0  0  0  0
    3.5800   69.3400   66.0550 C   0  0  0  0  0  0  0  0  0  0  0  0
    3.9580   69.1020   64.7750 N   0  0  0  0  0  0  0  0  0  0  0  0
    5.1950   69.4430   64.5350 C   0  0  0  0  0  0  0  0  0  0  0  0
    5.7200   69.2590   63.2980 N   0  0  0  0  0  0  0  0  0  0  0  0
    6.0420   69.9880   65.4790 N   0  0  0  0  0  0  0  0  0  0  0  0
    5.6880   70.2620   66.7940 C   0  0  0  0  0  0  0  0  0  0  0  0
    6.4770   70.7720   67.5850 O   0  0  0  0  0  0  0  0  0  0  0  0
    1.2280   68.5230   65.8870 C   0  0  0  0  0  0  0  0  0  0  0  0
    0.5000   67.6450   66.7480 O   0  0  0  0  0  0  0  0  0  0  0  0
   -0.9140   67.7210   66.5400 C   0  0  0  0  0  0  0  0  0  0  0  0
   -1.6110   66.9590   67.6800 C   0  0  0  0  0  0  0  0  0  0  0  0
   -2.9650   67.3660   67.8390 O   0  0  0  0  0  0  0  0  0  0  0  0
   -1.3750   69.1890   66.5090 C   0  0  0  0  0  0  0  0  0  0  0  0
   -2.5850   69.3440   65.7720 O   0  0  0  0  0  0  0  0  0  0  0  0
    1.5700   69.3908   68.6208 H   0  0  0  0  0  0  0  0  0  0  0  0
    6.6959   69.5277   63.1075 H   0  0  0  0  0  0  0  0  0  0  0  0
    5.1428   68.8506   62.5491 H   0  0  0  0  0  0  0  0  0  0  0  0
    7.0053   70.2071   65.1875 H   0  0  0  0  0  0  0  0  0  0  0  0
    0.5650   69.3315   65.5451 H   0  0  0  0  0  0  0  0  0  0  0  0
    1.5992   67.9559   65.0206 H   0  0  0  0  0  0  0  0  0  0  0  0
   -1.1768   67.2683   65.5725 H   0  0  0  0  0  0  0  0  0  0  0  0
   -1.5872   65.8825   67.4551 H   0  0  0  0  0  0  0  0  0  0  0  0
   -1.0761   67.1802   68.6154 H   0  0  0  0  0  0  0  0  0  0  0  0
   -3.1792   67.4304   68.8034 H   0  0  0  0  0  0  0  0  0  0  0  0
   -1.5389   69.5334   67.5407 H   0  0  0  0  0  0  0  0  0  0  0  0
   -0.5930   69.7846   66.0153 H   0  0  0  0  0  0  0  0  0  0  0  0
   -3.3439   69.4412   66.4003 H   0  0  0  0  0  0  0  0  0  0  0  0
  2  1  1  0
  3  2  2  0
  4  3  1  0
  5  4  2  0
  5  1  1  0
  6  5  1  0
  7  6  2  0
  8  7  1  0
  9  7  1  0
 10  9  1  0
 10  4  1  0
 11 10  2  0
 12  1  1  0
 13 12  1  0
 14 13  1  0
 15 14  1  0
 16 15  1  0
 17 14  1  0
 18 17  1  0
  2 19  1  0
  8 20  1  0
  8 21  1  0
  9 22  1  0
 12 23  1  0
 12 24  1  0
 14 25  1  0
 15 26  1  0
 15 27  1  0
 16 28  1  0
 17 29  1  0
 17 30  1  0
 18 31  1  0
M  END
>  <score>  (6) 
-7.574

$$$$
=
     RDKit          3D

 31 32  0  0  0  0  0  0  0  0999 V2000
    2.0860   68.7270   65.5800 N   0  0  0  0  0  0  0  0  0  0  0  0
    1.7210   68.4500   64.2880 C   0  0  0  0  0  0  0  0  0  0  0  0
    2.7130   68.6440   63.4400 N   0  0  0  0  0  0  0  0  0  0  0  0
    3.7540   69.0680   64.2250 C   0  0  0  0  0  0  0  0  0  0  0  0
    3.3910   69.1340   65.5520 C   0  0  0  0  0  0  0  0  0  0  0  0
    4.1430   69.5100   66.6140 N   0  0  0  0  0  0  0  0  0  0  0  0
    5.3620   69.8460   66.2850 C   0  0  0  0  0  0  0  0  0  0  0  0
    6.2340   70.2520   67.2420 N   0  0  0  0  0  0  0  0  0  0  0  0
    5.8440   69.8270   64.9920 N   0  0  0  0  0  0  0  0  0  0  0  0
    5.1100   69.4340   63.8800 C   0  0  0  0  0  0  0  0  0  0  0  0
    5.5990   69.4120   62.7540 O   0  0  0  0  0  0  0  0  0  0  0  0
    1.2760   68.6290   66.7780 C   0  0  0  0  0  0  0  0  0  0  0  0
    0.5410   67.4040   66.7680 O   0  0  0  0  0  0  0  0  0  0  0  0
   -0.8680   67.6110   66.6170 C   0  0  0  0  0  0  0  0  0  0  0  0
   -1.5870   66.8910   67.7690 C   0  0  0  0  0  0  0  0  0  0  0  0
   -2.9410   67.3120   67.8940 O   0  0  0  0  0  0  0  0  0  0  0  0
   -1.1950   69.1140   66.6290 C   0  0  0  0  0  0  0  0  0  0  0  0
   -2.4130   69.3930   65.9440 O   0  0  0  0  0  0  0  0  0  0  0  0
    0.7186   68.1063   63.9929 H   0  0  0  0  0  0  0  0  0  0  0  0
    7.1952   70.5171   66.9838 H   0  0  0  0  0  0  0  0  0  0  0  0
    5.9347   70.2951   68.2266 H   0  0  0  0  0  0  0  0  0  0  0  0
    6.8180   70.1257   64.8406 H   0  0  0  0  0  0  0  0  0  0  0  0
    1.9287   68.6557   67.6630 H   0  0  0  0  0  0  0  0  0  0  0  0
    0.5723   69.4738   66.8100 H   0  0  0  0  0  0  0  0  0  0  0  0
   -1.2071   67.2041   65.6529 H   0  0  0  0  0  0  0  0  0  0  0  0
   -1.5673   65.8077   67.5790 H   0  0  0  0  0  0  0  0  0  0  0  0
   -1.0648   67.1385   68.7050 H   0  0  0  0  0  0  0  0  0  0  0  0
   -3.1766   67.3853   68.8528 H   0  0  0  0  0  0  0  0  0  0  0  0
   -1.2873   69.4506   67.6722 H   0  0  0  0  0  0  0  0  0  0  0  0
   -0.3818   69.6464   66.1140 H   0  0  0  0  0  0  0  0  0  0  0  0
   -3.1324   69.5578   66.6038 H   0  0  0  0  0  0  0  0  0  0  0  0
  2  1  1  0
  3  2  2  0
  4  3  1  0
  5  4  2  0
  5  1  1  0
  6  5  1  0
  7  6  2  0
  8  7  1  0
  9  7  1  0
 10  9  1  0
 10  4  1  0
 11 10  2  0
 12  1  1  0
 13 12  1  0
 14 13  1  0
 15 14  1  0
 16 15  1  0
 17 14  1  0
 18 17  1  0
  2 19  1  0
  8 20  1  0
  8 21  1  0
  9 22  1  0
 12 23  1  0
 12 24  1  0
 14 25  1  0
 15 26  1  0
 15 27  1  0
 16 28  1  0
 17 29  1  0
 17 30  1  0
 18 31  1  0
M  END
>  <score>  (7) 
-7.534

$$$$
=
     RDKit          3D

 31 32  0  0  0  0  0  0  0  0999 V2000
    2.4600   68.8830   65.8270 N   0  0  0  0  0  0  0  0  0  0  0  0
    1.3630   68.8800   66.6490 C   0  0  0  0  0  0  0  0  0  0  0  0
    1.6300   69.3970   67.8340 N   0  0  0  0  0  0  0  0  0  0  0  0
    2.9550   69.7400   67.7640 C   0  0  0  0  0  0  0  0  0  0  0  0
    3.4940   69.4270   66.5360 C   0  0  0  0  0  0  0  0  0  0  0  0
    4.7640   69.6130   66.1010 N   0  0  0  0  0  0  0  0  0  0  0  0
    5.5380   70.1600   66.9990 C   0  0  0  0  0  0  0  0  0  0  0  0
    6.8410   70.4040   66.7120 N   0  0  0  0  0  0  0  0  0  0  0  0
    5.1180   70.5140   68.2660 N   0  0  0  0  0  0  0  0  0  0  0  0
    3.8240   70.3550   68.7430 C   0  0  0  0  0  0  0  0  0  0  0  0
    3.5010   70.7120   69.8720 O   0  0  0  0  0  0  0  0  0  0  0  0
    2.5550   68.4050   64.4620 C   0  0  0  0  0  0  0  0  0  0  0  0
    2.8970   67.0190   64.4550 O   0  0  0  0  0  0  0  0  0  0  0  0
    4.1850   66.7740   63.8820 C   0  0  0  0  0  0  0  0  0  0  0  0
    4.4550   65.2600   63.9290 C   0  0  0  0  0  0  0  0  0  0  0  0
    4.2090   64.6390   62.6720 O   0  0  0  0  0  0  0  0  0  0  0  0
    4.2350   67.2880   62.4320 C   0  0  0  0  0  0  0  0  0  0  0  0
    5.5410   67.1660   61.8750 O   0  0  0  0  0  0  0  0  0  0  0  0
    0.3762   68.4924   66.3557 H   0  0  0  0  0  0  0  0  0  0  0  0
    7.4522   70.8355   67.4199 H   0  0  0  0  0  0  0  0  0  0  0  0
    7.2193   70.1578   65.7861 H   0  0  0  0  0  0  0  0  0  0  0  0
    5.8150   70.9256   68.9029 H   0  0  0  0  0  0  0  0  0  0  0  0
    1.5869   68.5443   63.9586 H   0  0  0  0  0  0  0  0  0  0  0  0
    3.3345   68.9729   63.9329 H   0  0  0  0  0  0  0  0  0  0  0  0
    4.9583   67.3089   64.4529 H   0  0  0  0  0  0  0  0  0  0  0  0
    5.5060   65.0944   64.2081 H   0  0  0  0  0  0  0  0  0  0  0  0
    3.7740   64.8145   64.6691 H   0  0  0  0  0  0  0  0  0  0  0  0
    3.8484   63.7287   62.8186 H   0  0  0  0  0  0  0  0  0  0  0  0
    3.5310   66.7031   61.8218 H   0  0  0  0  0  0  0  0  0  0  0  0
    3.9617   68.3535   62.4359 H   0  0  0  0  0  0  0  0  0  0  0  0
    6.2067   67.1038   62.6051 H   0  0  0  0  0  0  0  0  0  0  0  0
  2  1  1  0
  3  2  2  0
  4  3  1  0
  5  4  2  0
  5  1  1  0
  6  5  1  0
  7  6  2  0
  8  7  1  0
  9  7  1  0
 10  9  1  0
 10  4  1  0
 11 10  2  0
 12  1  1  0
 13 12  1  0
 14 13  1  0
 15 14  1  0
 16 15  1  0
 17 14  1  0
 18 17  1  0
  2 19  1  0
  8 20  1  0
  8 21  1  0
  9 22  1  0
 12 23  1  0
 12 24  1  0
 14 25  1  0
 15 26  1  0
 15 27  1  0
 16 28  1  0
 17 29  1  0
 17 30  1  0
 18 31  1  0
M  END
>  <score>  (8) 
-7.487

$$$$
=
     RDKit          3D

 31 32  0  0  0  0  0  0  0  0999 V2000
    1.5640   68.5030   65.8830 N   0  0  0  0  0  0  0  0  0  0  0  0
    0.6460   68.5720   66.8990 C   0  0  0  0  0  0  0  0  0  0  0  0
    1.1400   69.1560   67.9740 N   0  0  0  0  0  0  0  0  0  0  0  0
    2.4290   69.4690   67.6290 C   0  0  0  0  0  0  0  0  0  0  0  0
    2.7180   69.0710   66.3440 C   0  0  0  0  0  0  0  0  0  0  0  0
    3.8810   69.2050   65.6610 N   0  0  0  0  0  0  0  0  0  0  0  0
    4.8180   69.7920   66.3560 C   0  0  0  0  0  0  0  0  0  0  0  0
    6.0430   69.9930   65.8090 N   0  0  0  0  0  0  0  0  0  0  0  0
    4.6530   70.2320   67.6540 N   0  0  0  0  0  0  0  0  0  0  0  0
    3.4740   70.1270   68.3810 C   0  0  0  0  0  0  0  0  0  0  0  0
    3.3780   70.5610   69.5260 O   0  0  0  0  0  0  0  0  0  0  0  0
    1.3900   67.9400   64.5590 C   0  0  0  0  0  0  0  0  0  0  0  0
    0.5180   68.7690   63.7890 O   0  0  0  0  0  0  0  0  0  0  0  0
    0.7770   68.6830   62.3840 C   0  0  0  0  0  0  0  0  0  0  0  0
    0.1460   69.9080   61.7010 C   0  0  0  0  0  0  0  0  0  0  0  0
    0.0630   69.7430   60.2900 O   0  0  0  0  0  0  0  0  0  0  0  0
    2.2930   68.6360   62.1190 C   0  0  0  0  0  0  0  0  0  0  0  0
    2.5980   68.9310   60.7590 O   0  0  0  0  0  0  0  0  0  0  0  0
   -0.3815   68.1859   66.8264 H   0  0  0  0  0  0  0  0  0  0  0  0
    6.7821   70.4559   66.3571 H   0  0  0  0  0  0  0  0  0  0  0  0
    6.2340   69.6827   64.8456 H   0  0  0  0  0  0  0  0  0  0  0  0
    5.4624   70.6697   68.1168 H   0  0  0  0  0  0  0  0  0  0  0  0
    2.3676   67.8752   64.0588 H   0  0  0  0  0  0  0  0  0  0  0  0
    0.9503   66.9356   64.6475 H   0  0  0  0  0  0  0  0  0  0  0  0
    0.3378   67.7607   61.9760 H   0  0  0  0  0  0  0  0  0  0  0  0
   -0.8674   70.0565   62.1022 H   0  0  0  0  0  0  0  0  0  0  0  0
    0.7845   70.7800   61.9059 H   0  0  0  0  0  0  0  0  0  0  0  0
   -0.3721   68.8780   60.0839 H   0  0  0  0  0  0  0  0  0  0  0  0
    2.7911   69.3743   62.7646 H   0  0  0  0  0  0  0  0  0  0  0  0
    2.6487   67.6184   62.3380 H   0  0  0  0  0  0  0  0  0  0  0  0
    3.3091   69.6188   60.7220 H   0  0  0  0  0  0  0  0  0  0  0  0
  2  1  1  0
  3  2  2  0
  4  3  1  0
  5  4  2  0
  5  1  1  0
  6  5  1  0
  7  6  2  0
  8  7  1  0
  9  7  1  0
 10  9  1  0
 10  4  1  0
 11 10  2  0
 12  1  1  0
 13 12  1  0
 14 13  1  0
 15 14  1  0
 16 15  1  0
 17 14  1  0
 18 17  1  0
  2 19  1  0
  8 20  1  0
  8 21  1  0
  9 22  1  0
 12 23  1  0
 12 24  1  0
 14 25  1  0
 15 26  1  0
 15 27  1  0
 16 28  1  0
 17 29  1  0
 17 30  1  0
 18 31  1  0
M  END
>  <score>  (9) 
-7.414

$$$$
