=
     RDKit          3D

 48 50  0  0  0  0  0  0  0  0999 V2000
    0.9110   69.0690   66.7250 N   0  0  0  0  0  4  0  0  0  0  0  0
    0.1720   68.3690   67.8240 C   0  0  1  0  0  0  0  0  0  0  0  0
   -0.8320   67.3900   67.2290 C   0  0  0  0  0  0  0  0  0  0  0  0
   -1.1540   66.4760   68.4010 C   0  0  0  0  0  0  0  0  0  0  0  0
    0.2000   66.2560   69.0430 N   0  0  1  0  0  4  0  0  0  0  0  0
    1.0500   67.4720   68.7310 C   0  0  0  0  0  0  0  0  0  0  0  0
    0.1390   65.8770   70.5130 C   0  0  0  0  0  0  0  0  0  0  0  0
    0.9200   64.6290   70.8050 C   0  0  0  0  0  0  0  0  0  0  0  0
    2.3040   64.5850   70.5700 C   0  0  0  0  0  0  0  0  0  0  0  0
    3.0220   63.4110   70.8020 C   0  0  0  0  0  0  0  0  0  0  0  0
    2.3700   62.2740   71.2700 C   0  0  0  0  0  0  0  0  0  0  0  0
    0.9990   62.3070   71.5130 C   0  0  0  0  0  0  0  0  0  0  0  0
    0.2750   63.4780   71.2830 C   0  0  0  0  0  0  0  0  0  0  0  0
    2.2750   68.5300   66.3910 C   0  0  0  0  0  0  0  0  0  0  0  0
    5.3780   70.9710   68.1500 C   0  0  0  0  0  0  0  0  0  0  0  0
    4.1510   70.8180   68.7940 C   0  0  0  0  0  0  0  0  0  0  0  0
    3.1380   70.0400   68.2170 C   0  0  0  0  0  0  0  0  0  0  0  0
    3.3380   69.4050   66.9830 C   0  0  0  0  0  0  0  0  0  0  0  0
    4.5730   69.5610   66.3390 C   0  0  0  0  0  0  0  0  0  0  0  0
    5.5770   70.3390   66.9200 C   0  0  0  0  0  0  0  0  0  0  0  0
    6.4470   71.6940   68.5930 O   0  0  0  0  0  0  0  0  0  0  0  0
    7.9490   69.9860   68.6880 F   0  0  0  0  0  0  0  0  0  0  0  0
    7.4280   71.0280   69.3740 C   0  0  0  0  0  0  0  0  0  0  0  0
    8.4210   71.8910   69.6620 F   0  0  0  0  0  0  0  0  0  0  0  0
    6.8940   70.5780   70.5280 F   0  0  0  0  0  0  0  0  0  0  0  0
    0.3342   69.0128   65.8735 H   0  0  0  0  0  0  0  0  0  0  0  0
    1.0705   70.0270   67.0679 H   0  0  0  0  0  0  0  0  0  0  0  0
   -0.2649   69.1907   68.4104 H   0  0  0  0  0  0  0  0  0  0  0  0
   -1.7331   67.9132   66.8764 H   0  0  0  0  0  0  0  0  0  0  0  0
   -0.4443   66.8506   66.3523 H   0  0  0  0  0  0  0  0  0  0  0  0
   -1.8496   66.9613   69.1015 H   0  0  0  0  0  0  0  0  0  0  0  0
   -1.6476   65.5407   68.0986 H   0  0  0  0  0  0  0  0  0  0  0  0
    0.6470   65.4208   68.6386 H   0  0  0  0  0  0  0  0  0  0  0  0
    1.3148   68.0037   69.6568 H   0  0  0  0  0  0  0  0  0  0  0  0
    1.9941   67.1946   68.2394 H   0  0  0  0  0  0  0  0  0  0  0  0
    0.5530   66.7029   71.1101 H   0  0  0  0  0  0  0  0  0  0  0  0
   -0.9133   65.6875   70.7715 H   0  0  0  0  0  0  0  0  0  0  0  0
    2.8249   65.4808   70.2010 H   0  0  0  0  0  0  0  0  0  0  0  0
    4.1056   63.3843   70.6146 H   0  0  0  0  0  0  0  0  0  0  0  0
    2.9378   61.3488   71.4481 H   0  0  0  0  0  0  0  0  0  0  0  0
    0.4859   61.4087   71.8868 H   0  0  0  0  0  0  0  0  0  0  0  0
   -0.8075   63.4987   71.4776 H   0  0  0  0  0  0  0  0  0  0  0  0
    2.3733   67.5130   66.7985 H   0  0  0  0  0  0  0  0  0  0  0  0
    2.3947   68.5105   65.2977 H   0  0  0  0  0  0  0  0  0  0  0  0
    3.9767   71.3113   69.7616 H   0  0  0  0  0  0  0  0  0  0  0  0
    2.1758   69.9264   68.7378 H   0  0  0  0  0  0  0  0  0  0  0  0
    4.7524   69.0686   65.3718 H   0  0  0  0  0  0  0  0  0  0  0  0
    6.5397   70.4560   66.4009 H   0  0  0  0  0  0  0  0  0  0  0  0
  2  1  1  0
  3  2  1  0
  4  3  1  0
  5  4  1  0
  6  5  1  0
  6  2  1  0
  7  5  1  0
  8  7  1  0
  9  8  2  0
 10  9  1  0
 11 10  2  0
 12 11  1  0
 13  8  1  0
 13 12  2  0
 14  1  1  0
 16 15  2  0
 17 16  1  0
 18 17  2  0
 18 14  1  0
 19 18  1  0
 20 19  2  0
 20 15  1  0
 21 15  1  0
 23 22  1  0
 23 21  1  0
 24 23  1  0
 25 23  1  0
  1 26  1  0
  1 27  1  0
  2 28  1  1
  3 29  1  0
  3 30  1  0
  4 31  1  0
  4 32  1  0
  5 33  1  6
  6 34  1  0
  6 35  1  0
  7 36  1  0
  7 37  1  0
  9 38  1  0
 10 39  1  0
 11 40  1  0
 12 41  1  0
 13 42  1  0
 14 43  1  0
 14 44  1  0
 16 45  1  0
 17 46  1  0
 19 47  1  0
 20 48  1  0
M  CHG  2   1   1   5   1
M  END
>  <score>  (1) 
-10.599

$$$$
=
     RDKit          3D

 48 50  0  0  0  0  0  0  0  0999 V2000
   -0.5050   66.1090   69.1690 N   0  0  0  0  0  4  0  0  0  0  0  0
    0.0290   66.8660   67.9920 C   0  0  1  0  0  0  0  0  0  0  0  0
   -0.8890   68.0360   67.6690 C   0  0  0  0  0  0  0  0  0  0  0  0
   -0.0170   68.9260   66.7980 C   0  0  0  0  0  0  0  0  0  0  0  0
    1.3270   68.8710   67.4930 N   0  0  1  0  0  4  0  0  0  0  0  0
    1.4030   67.5450   68.2230 C   0  0  0  0  0  0  0  0  0  0  0  0
    2.5100   69.1730   66.5890 C   0  0  0  0  0  0  0  0  0  0  0  0
    3.6720   69.7370   67.3540 C   0  0  0  0  0  0  0  0  0  0  0  0
    3.5030   70.1960   68.6690 C   0  0  0  0  0  0  0  0  0  0  0  0
    4.5750   70.7580   69.3650 C   0  0  0  0  0  0  0  0  0  0  0  0
    5.8210   70.8670   68.7560 C   0  0  0  0  0  0  0  0  0  0  0  0
    6.0040   70.4090   67.4530 C   0  0  0  0  0  0  0  0  0  0  0  0
    4.9360   69.8450   66.7530 C   0  0  0  0  0  0  0  0  0  0  0  0
    0.3330   66.1410   70.4190 C   0  0  0  0  0  0  0  0  0  0  0  0
    2.3550   62.3780   71.0710 C   0  0  0  0  0  0  0  0  0  0  0  0
    3.0620   63.4870   70.6110 C   0  0  0  0  0  0  0  0  0  0  0  0
    2.4050   64.7040   70.3840 C   0  0  0  0  0  0  0  0  0  0  0  0
    1.0270   64.8260   70.6110 C   0  0  0  0  0  0  0  0  0  0  0  0
    0.3190   63.7090   71.0740 C   0  0  0  0  0  0  0  0  0  0  0  0
    0.9820   62.4990   71.2970 C   0  0  0  0  0  0  0  0  0  0  0  0
    2.8630   61.1390   71.3340 O   0  0  0  0  0  0  0  0  0  0  0  0
    2.8720   60.7880   69.0850 F   0  0  0  0  0  0  0  0  0  0  0  0
    3.4230   60.4030   70.2570 C   0  0  0  0  0  0  0  0  0  0  0  0
    4.7480   60.6380   70.2060 F   0  0  0  0  0  0  0  0  0  0  0  0
    3.2230   59.0790   70.4290 F   0  0  0  0  0  0  0  0  0  0  0  0
   -1.4291   66.5004   69.4007 H   0  0  0  0  0  0  0  0  0  0  0  0
   -0.5224   65.1219   68.8755 H   0  0  0  0  0  0  0  0  0  0  0  0
    0.1088   66.1018   67.2048 H   0  0  0  0  0  0  0  0  0  0  0  0
   -1.7811   67.6987   67.1209 H   0  0  0  0  0  0  0  0  0  0  0  0
   -1.2706   68.5472   68.5651 H   0  0  0  0  0  0  0  0  0  0  0  0
    0.0513   68.5317   65.7734 H   0  0  0  0  0  0  0  0  0  0  0  0
   -0.4093   69.9483   66.6932 H   0  0  0  0  0  0  0  0  0  0  0  0
    1.3974   69.6368   68.1782 H   0  0  0  0  0  0  0  0  0  0  0  0
    2.2125   66.9249   67.8105 H   0  0  0  0  0  0  0  0  0  0  0  0
    1.6167   67.6801   69.2936 H   0  0  0  0  0  0  0  0  0  0  0  0
    2.8273   68.2421   66.0962 H   0  0  0  0  0  0  0  0  0  0  0  0
    2.1914   69.9245   65.8517 H   0  0  0  0  0  0  0  0  0  0  0  0
    2.5196   70.1126   69.1548 H   0  0  0  0  0  0  0  0  0  0  0  0
    4.4342   71.1149   70.3959 H   0  0  0  0  0  0  0  0  0  0  0  0
    6.6629   71.3154   69.3039 H   0  0  0  0  0  0  0  0  0  0  0  0
    6.9913   70.4919   66.9752 H   0  0  0  0  0  0  0  0  0  0  0  0
    5.0857   69.4833   65.7250 H   0  0  0  0  0  0  0  0  0  0  0  0
    1.0848   66.9393   70.3321 H   0  0  0  0  0  0  0  0  0  0  0  0
   -0.3195   66.3321   71.2837 H   0  0  0  0  0  0  0  0  0  0  0  0
    4.1431   63.4068   70.4247 H   0  0  0  0  0  0  0  0  0  0  0  0
    2.9764   65.5723   70.0241 H   0  0  0  0  0  0  0  0  0  0  0  0
   -0.7621   63.7847   71.2626 H   0  0  0  0  0  0  0  0  0  0  0  0
    0.4136   61.6284   71.6561 H   0  0  0  0  0  0  0  0  0  0  0  0
  2  1  1  0
  3  2  1  0
  4  3  1  0
  5  4  1  0
  6  5  1  0
  6  2  1  0
  7  5  1  0
  8  7  1  0
  9  8  2  0
 10  9  1  0
 11 10  2  0
 12 11  1  0
 13  8  1  0
 13 12  2  0
 14  1  1  0
 16 15  2  0
 17 16  1  0
 18 17  2  0
 18 14  1  0
 19 18  1  0
 20 19  2  0
 20 15  1  0
 21 15  1  0
 23 22  1  0
 23 21  1  0
 24 23  1  0
 25 23  1  0
  1 26  1  0
  1 27  1  0
  2 28  1  6
  3 29  1  0
  3 30  1  0
  4 31  1  0
  4 32  1  0
  5 33  1  1
  6 34  1  0
  6 35  1  0
  7 36  1  0
  7 37  1  0
  9 38  1  0
 10 39  1  0
 11 40  1  0
 12 41  1  0
 13 42  1  0
 14 43  1  0
 14 44  1  0
 16 45  1  0
 17 46  1  0
 19 47  1  0
 20 48  1  0
M  CHG  2   1   1   5   1
M  END
>  <score>  (2) 
-10.239

$$$$
=
     RDKit          3D

 48 50  0  0  0  0  0  0  0  0999 V2000
   -0.3230   66.2220   68.7590 N   0  0  0  0  0  4  0  0  0  0  0  0
    0.0590   67.4070   67.9280 C   0  0  1  0  0  0  0  0  0  0  0  0
    1.2780   68.0900   68.5310 C   0  0  0  0  0  0  0  0  0  0  0  0
    1.7930   68.9470   67.3850 C   0  0  0  0  0  0  0  0  0  0  0  0
    1.6490   68.0340   66.1860 N   0  0  1  0  0  4  0  0  0  0  0  0
    0.5160   67.0720   66.4850 C   0  0  0  0  0  0  0  0  0  0  0  0
    1.5370   68.7620   64.8580 C   0  0  0  0  0  0  0  0  0  0  0  0
    2.8600   68.8580   64.1550 C   0  0  0  0  0  0  0  0  0  0  0  0
    4.0090   69.2600   64.8550 C   0  0  0  0  0  0  0  0  0  0  0  0
    5.2300   69.3890   64.1930 C   0  0  0  0  0  0  0  0  0  0  0  0
    5.3170   69.1180   62.8300 C   0  0  0  0  0  0  0  0  0  0  0  0
    4.1860   68.7120   62.1260 C   0  0  0  0  0  0  0  0  0  0  0  0
    2.9620   68.5810   62.7830 C   0  0  0  0  0  0  0  0  0  0  0  0
    0.1460   66.2300   70.1890 C   0  0  0  0  0  0  0  0  0  0  0  0
    2.3330   62.5840   70.9650 C   0  0  0  0  0  0  0  0  0  0  0  0
    0.9520   62.6310   71.1500 C   0  0  0  0  0  0  0  0  0  0  0  0
    0.2440   63.8170   70.9130 C   0  0  0  0  0  0  0  0  0  0  0  0
    0.9090   64.9760   70.4920 C   0  0  0  0  0  0  0  0  0  0  0  0
    2.2970   64.9260   70.3070 C   0  0  0  0  0  0  0  0  0  0  0  0
    2.9960   63.7400   70.5450 C   0  0  0  0  0  0  0  0  0  0  0  0
    3.1450   61.5040   71.1550 O   0  0  0  0  0  0  0  0  0  0  0  0
    3.0200   59.4090   70.2750 F   0  0  0  0  0  0  0  0  0  0  0  0
    3.4280   60.6750   70.0380 C   0  0  0  0  0  0  0  0  0  0  0  0
    2.7670   61.1460   68.9630 F   0  0  0  0  0  0  0  0  0  0  0  0
    4.7500   60.6730   69.7680 F   0  0  0  0  0  0  0  0  0  0  0  0
   -1.3513   66.1626   68.7665 H   0  0  0  0  0  0  0  0  0  0  0  0
    0.1469   65.4169   68.3209 H   0  0  0  0  0  0  0  0  0  0  0  0
   -0.8568   68.0159   67.9056 H   0  0  0  0  0  0  0  0  0  0  0  0
    0.9963   68.7116   69.3937 H   0  0  0  0  0  0  0  0  0  0  0  0
    2.0275   67.3808   68.9123 H   0  0  0  0  0  0  0  0  0  0  0  0
    1.1840   69.8552   67.2658 H   0  0  0  0  0  0  0  0  0  0  0  0
    2.8226   69.3025   67.5381 H   0  0  0  0  0  0  0  0  0  0  0  0
    2.5177   67.4980   66.0487 H   0  0  0  0  0  0  0  0  0  0  0  0
   -0.3114   67.2200   65.7755 H   0  0  0  0  0  0  0  0  0  0  0  0
    0.8350   66.0235   66.3907 H   0  0  0  0  0  0  0  0  0  0  0  0
    0.8311   68.2178   64.2133 H   0  0  0  0  0  0  0  0  0  0  0  0
    1.1850   69.7844   65.0600 H   0  0  0  0  0  0  0  0  0  0  0  0
    3.9458   69.4745   65.9320 H   0  0  0  0  0  0  0  0  0  0  0  0
    6.1253   69.7052   64.7484 H   0  0  0  0  0  0  0  0  0  0  0  0
    6.2798   69.2247   62.3088 H   0  0  0  0  0  0  0  0  0  0  0  0
    4.2577   68.4942   61.0502 H   0  0  0  0  0  0  0  0  0  0  0  0
    2.0721   68.2588   62.2224 H   0  0  0  0  0  0  0  0  0  0  0  0
    0.7985   67.1004   70.3523 H   0  0  0  0  0  0  0  0  0  0  0  0
   -0.7293   66.2861   70.8529 H   0  0  0  0  0  0  0  0  0  0  0  0
    0.4146   61.7313   71.4842 H   0  0  0  0  0  0  0  0  0  0  0  0
   -0.8460   63.8381   71.0592 H   0  0  0  0  0  0  0  0  0  0  0  0
    2.8382   65.8236   69.9732 H   0  0  0  0  0  0  0  0  0  0  0  0
    4.0861   63.7159   70.3994 H   0  0  0  0  0  0  0  0  0  0  0  0
  2  1  1  0
  3  2  1  0
  4  3  1  0
  5  4  1  0
  6  5  1  0
  6  2  1  0
  7  5  1  0
  8  7  1  0
  9  8  2  0
 10  9  1  0
 11 10  2  0
 12 11  1  0
 13  8  1  0
 13 12  2  0
 14  1  1  0
 16 15  2  0
 17 16  1  0
 18 17  2  0
 18 14  1  0
 19 18  1  0
 20 19  2  0
 20 15  1  0
 21 15  1  0
 23 22  1  0
 23 21  1  0
 24 23  1  0
 25 23  1  0
  1 26  1  0
  1 27  1  0
  2 28  1  6
  3 29  1  0
  3 30  1  0
  4 31  1  0
  4 32  1  0
  5 33  1  6
  6 34  1  0
  6 35  1  0
  7 36  1  0
  7 37  1  0
  9 38  1  0
 10 39  1  0
 11 40  1  0
 12 41  1  0
 13 42  1  0
 14 43  1  0
 14 44  1  0
 16 45  1  0
 17 46  1  0
 19 47  1  0
 20 48  1  0
M  CHG  2   1   1   5   1
M  END
>  <score>  (3) 
-9.8

$$$$
=
     RDKit          3D

 48 50  0  0  0  0  0  0  0  0999 V2000
   -0.3870   66.0770   69.1210 N   0  0  0  0  0  4  0  0  0  0  0  0
    0.1170   66.8370   67.9340 C   0  0  1  0  0  0  0  0  0  0  0  0
   -0.7970   68.0210   67.6510 C   0  0  0  0  0  0  0  0  0  0  0  0
    0.0570   68.9080   66.7590 C   0  0  0  0  0  0  0  0  0  0  0  0
    1.4220   68.8310   67.4090 N   0  0  1  0  0  4  0  0  0  0  0  0
    1.5060   67.4970   68.1250 C   0  0  0  0  0  0  0  0  0  0  0  0
    2.5780   69.1270   66.4690 C   0  0  0  0  0  0  0  0  0  0  0  0
    3.7660   69.6850   67.1970 C   0  0  0  0  0  0  0  0  0  0  0  0
    3.6340   70.1690   68.5080 C   0  0  0  0  0  0  0  0  0  0  0  0
    4.7300   70.7260   69.1680 C   0  0  0  0  0  0  0  0  0  0  0  0
    5.9640   70.8060   68.5290 C   0  0  0  0  0  0  0  0  0  0  0  0
    6.1100   70.3230   67.2310 C   0  0  0  0  0  0  0  0  0  0  0  0
    5.0180   69.7640   66.5650 C   0  0  0  0  0  0  0  0  0  0  0  0
    0.4060   66.2210   70.3920 C   0  0  0  0  0  0  0  0  0  0  0  0
    2.3360   62.4570   71.2750 C   0  0  0  0  0  0  0  0  0  0  0  0
    1.1410   62.8000   71.9040 C   0  0  0  0  0  0  0  0  0  0  0  0
    0.5210   64.0280   71.6310 C   0  0  0  0  0  0  0  0  0  0  0  0
    1.0940   64.9320   70.7240 C   0  0  0  0  0  0  0  0  0  0  0  0
    2.2950   64.5830   70.0940 C   0  0  0  0  0  0  0  0  0  0  0  0
    2.9060   63.3580   70.3720 C   0  0  0  0  0  0  0  0  0  0  0  0
    3.0440   61.3030   71.4440 O   0  0  0  0  0  0  0  0  0  0  0  0
    5.0430   62.2250   72.0210 F   0  0  0  0  0  0  0  0  0  0  0  0
    4.1170   61.3060   72.3730 C   0  0  0  0  0  0  0  0  0  0  0  0
    3.6410   61.6240   73.5930 F   0  0  0  0  0  0  0  0  0  0  0  0
    4.6980   60.0900   72.4360 F   0  0  0  0  0  0  0  0  0  0  0  0
   -1.3475   66.3958   69.3128 H   0  0  0  0  0  0  0  0  0  0  0  0
   -0.3120   65.0829   68.8621 H   0  0  0  0  0  0  0  0  0  0  0  0
    0.1614   66.0788   67.1383 H   0  0  0  0  0  0  0  0  0  0  0  0
   -1.7107   67.6992   67.1298 H   0  0  0  0  0  0  0  0  0  0  0  0
   -1.1428   68.5290   68.5633 H   0  0  0  0  0  0  0  0  0  0  0  0
    0.0870   68.5216   65.7295 H   0  0  0  0  0  0  0  0  0  0  0  0
   -0.3260   69.9358   66.6754 H   0  0  0  0  0  0  0  0  0  0  0  0
    1.5241   69.5896   68.0982 H   0  0  0  0  0  0  0  0  0  0  0  0
    2.2936   66.8709   67.6804 H   0  0  0  0  0  0  0  0  0  0  0  0
    1.7569   67.6198   69.1889 H   0  0  0  0  0  0  0  0  0  0  0  0
    2.8751   68.1945   65.9668 H   0  0  0  0  0  0  0  0  0  0  0  0
    2.2404   69.8804   65.7420 H   0  0  0  0  0  0  0  0  0  0  0  0
    2.6612   70.1089   69.0179 H   0  0  0  0  0  0  0  0  0  0  0  0
    4.6186   71.1027   70.1955 H   0  0  0  0  0  0  0  0  0  0  0  0
    6.8246   71.2511   69.0497 H   0  0  0  0  0  0  0  0  0  0  0  0
    7.0874   70.3821   66.7298 H   0  0  0  0  0  0  0  0  0  0  0  0
    5.1385   69.3834   65.5400 H   0  0  0  0  0  0  0  0  0  0  0  0
    1.1596   67.0117   70.2620 H   0  0  0  0  0  0  0  0  0  0  0  0
   -0.2777   66.4836   71.2127 H   0  0  0  0  0  0  0  0  0  0  0  0
    0.6807   62.1029   72.6196 H   0  0  0  0  0  0  0  0  0  0  0  0
   -0.4236   64.2848   72.1328 H   0  0  0  0  0  0  0  0  0  0  0  0
    2.7592   65.2764   69.3772 H   0  0  0  0  0  0  0  0  0  0  0  0
    3.8509   63.0986   69.8721 H   0  0  0  0  0  0  0  0  0  0  0  0
  2  1  1  0
  3  2  1  0
  4  3  1  0
  5  4  1  0
  6  5  1  0
  6  2  1  0
  7  5  1  0
  8  7  1  0
  9  8  2  0
 10  9  1  0
 11 10  2  0
 12 11  1  0
 13  8  1  0
 13 12  2  0
 14  1  1  0
 16 15  2  0
 17 16  1  0
 18 17  2  0
 18 14  1  0
 19 18  1  0
 20 19  2  0
 20 15  1  0
 21 15  1  0
 23 22  1  0
 23 21  1  0
 24 23  1  0
 25 23  1  0
  1 26  1  0
  1 27  1  0
  2 28  1  6
  3 29  1  0
  3 30  1  0
  4 31  1  0
  4 32  1  0
  5 33  1  1
  6 34  1  0
  6 35  1  0
  7 36  1  0
  7 37  1  0
  9 38  1  0
 10 39  1  0
 11 40  1  0
 12 41  1  0
 13 42  1  0
 14 43  1  0
 14 44  1  0
 16 45  1  0
 17 46  1  0
 19 47  1  0
 20 48  1  0
M  CHG  2   1   1   5   1
M  END
>  <score>  (4) 
-9.724

$$$$
=
     RDKit          3D

 48 50  0  0  0  0  0  0  0  0999 V2000
   -0.3120   65.6890   69.3920 N   0  0  0  0  0  4  0  0  0  0  0  0
   -0.2430   66.9910   68.6560 C   0  0  1  0  0  0  0  0  0  0  0  0
    1.1720   67.5500   68.7260 C   0  0  0  0  0  0  0  0  0  0  0  0
    1.1890   68.5780   67.6050 C   0  0  0  0  0  0  0  0  0  0  0  0
    0.4440   67.8780   66.4890 N   0  0  1  0  0  4  0  0  0  0  0  0
   -0.5130   66.8940   67.1330 C   0  0  0  0  0  0  0  0  0  0  0  0
   -0.1890   68.8170   65.4770 C   0  0  0  0  0  0  0  0  0  0  0  0
    0.5950   68.8770   64.1980 C   0  0  0  0  0  0  0  0  0  0  0  0
   -0.0250   69.2720   63.0020 C   0  0  0  0  0  0  0  0  0  0  0  0
    0.6940   69.2880   61.8060 C   0  0  0  0  0  0  0  0  0  0  0  0
    2.0340   68.9110   61.7920 C   0  0  0  0  0  0  0  0  0  0  0  0
    2.6630   68.5250   62.9740 C   0  0  0  0  0  0  0  0  0  0  0  0
    1.9490   68.5070   64.1730 C   0  0  0  0  0  0  0  0  0  0  0  0
    0.4460   65.6160   70.6910 C   0  0  0  0  0  0  0  0  0  0  0  0
    3.0810   62.1930   70.5840 C   0  0  0  0  0  0  0  0  0  0  0  0
    1.8390   62.1060   71.2110 C   0  0  0  0  0  0  0  0  0  0  0  0
    0.9900   63.2200   71.2600 C   0  0  0  0  0  0  0  0  0  0  0  0
    1.3750   64.4400   70.6840 C   0  0  0  0  0  0  0  0  0  0  0  0
    2.6240   64.5220   70.0550 C   0  0  0  0  0  0  0  0  0  0  0  0
    3.4650   63.4080   70.0110 C   0  0  0  0  0  0  0  0  0  0  0  0
    4.0030   61.1950   70.4610 O   0  0  0  0  0  0  0  0  0  0  0  0
    4.4240   59.7450   72.1650 F   0  0  0  0  0  0  0  0  0  0  0  0
    4.8220   60.8980   71.5830 C   0  0  0  0  0  0  0  0  0  0  0  0
    6.0960   60.7540   71.1710 F   0  0  0  0  0  0  0  0  0  0  0  0
    4.7680   61.8960   72.4890 F   0  0  0  0  0  0  0  0  0  0  0  0
   -1.3030   65.4958   69.5957 H   0  0  0  0  0  0  0  0  0  0  0  0
    0.1372   64.9993   68.7728 H   0  0  0  0  0  0  0  0  0  0  0  0
   -1.0150   67.6066   69.1409 H   0  0  0  0  0  0  0  0  0  0  0  0
    1.3622   68.0241   69.7002 H   0  0  0  0  0  0  0  0  0  0  0  0
    1.9489   66.7786   68.6189 H   0  0  0  0  0  0  0  0  0  0  0  0
    0.6722   69.5009   67.9071 H   0  0  0  0  0  0  0  0  0  0  0  0
    2.2042   68.8903   67.3189 H   0  0  0  0  0  0  0  0  0  0  0  0
    1.1089   67.3614   65.8958 H   0  0  0  0  0  0  0  0  0  0  0  0
   -1.5545   67.1678   66.9089 H   0  0  0  0  0  0  0  0  0  0  0  0
   -0.3624   65.8717   66.7559 H   0  0  0  0  0  0  0  0  0  0  0  0
   -1.2067   68.4644   65.2535 H   0  0  0  0  0  0  0  0  0  0  0  0
   -0.2045   69.8265   65.9136 H   0  0  0  0  0  0  0  0  0  0  0  0
   -1.0837   69.5706   63.0076 H   0  0  0  0  0  0  0  0  0  0  0  0
    0.2012   69.5990   60.8730 H   0  0  0  0  0  0  0  0  0  0  0  0
    2.5969   68.9178   60.8469 H   0  0  0  0  0  0  0  0  0  0  0  0
    3.7238   68.2341   62.9620 H   0  0  0  0  0  0  0  0  0  0  0  0
    2.4498   68.2013   65.1034 H   0  0  0  0  0  0  0  0  0  0  0  0
    1.0296   66.5390   70.8233 H   0  0  0  0  0  0  0  0  0  0  0  0
   -0.2702   65.5021   71.5181 H   0  0  0  0  0  0  0  0  0  0  0  0
    1.5235   61.1574   71.6700 H   0  0  0  0  0  0  0  0  0  0  0  0
    0.0114   63.1369   71.7553 H   0  0  0  0  0  0  0  0  0  0  0  0
    2.9437   65.4680   69.5937 H   0  0  0  0  0  0  0  0  0  0  0  0
    4.4449   63.4884   69.5176 H   0  0  0  0  0  0  0  0  0  0  0  0
  2  1  1  0
  3  2  1  0
  4  3  1  0
  5  4  1  0
  6  5  1  0
  6  2  1  0
  7  5  1  0
  8  7  1  0
  9  8  2  0
 10  9  1  0
 11 10  2  0
 12 11  1  0
 13  8  1  0
 13 12  2  0
 14  1  1  0
 16 15  2  0
 17 16  1  0
 18 17  2  0
 18 14  1  0
 19 18  1  0
 20 19  2  0
 20 15  1  0
 21 15  1  0
 23 22  1  0
 23 21  1  0
 24 23  1  0
 25 23  1  0
  1 26  1  0
  1 27  1  0
  2 28  1  1
  3 29  1  0
  3 30  1  0
  4 31  1  0
  4 32  1  0
  5 33  1  6
  6 34  1  0
  6 35  1  0
  7 36  1  0
  7 37  1  0
  9 38  1  0
 10 39  1  0
 11 40  1  0
 12 41  1  0
 13 42  1  0
 14 43  1  0
 14 44  1  0
 16 45  1  0
 17 46  1  0
 19 47  1  0
 20 48  1  0
M  CHG  2   1   1   5   1
M  END
>  <score>  (5) 
-9.28

$$$$
=
     RDKit          3D

 48 50  0  0  0  0  0  0  0  0999 V2000
    1.0710   66.9190   69.8780 N   0  0  0  0  0  4  0  0  0  0  0  0
    0.6660   66.9260   68.4360 C   0  0  1  0  0  0  0  0  0  0  0  0
   -0.8510   66.8560   68.3250 C   0  0  0  0  0  0  0  0  0  0  0  0
   -1.1110   67.3150   66.8990 C   0  0  0  0  0  0  0  0  0  0  0  0
   -0.1460   68.4700   66.7310 N   0  0  1  0  0  4  0  0  0  0  0  0
    1.0210   68.2220   67.6650 C   0  0  0  0  0  0  0  0  0  0  0  0
    0.2370   68.7580   65.2890 C   0  0  0  0  0  0  0  0  0  0  0  0
    1.5800   68.1850   64.9390 C   0  0  0  0  0  0  0  0  0  0  0  0
    1.7480   66.7980   64.8060 C   0  0  0  0  0  0  0  0  0  0  0  0
    3.0050   66.2640   64.5210 C   0  0  0  0  0  0  0  0  0  0  0  0
    4.1030   67.1060   64.3660 C   0  0  0  0  0  0  0  0  0  0  0  0
    3.9470   68.4850   64.4890 C   0  0  0  0  0  0  0  0  0  0  0  0
    2.6920   69.0250   64.7730 C   0  0  0  0  0  0  0  0  0  0  0  0
    0.3320   65.9610   70.7740 C   0  0  0  0  0  0  0  0  0  0  0  0
    2.4570   62.2100   71.0750 C   0  0  0  0  0  0  0  0  0  0  0  0
    3.0990   63.3470   70.5860 C   0  0  0  0  0  0  0  0  0  0  0  0
    2.4070   64.5600   70.4730 C   0  0  0  0  0  0  0  0  0  0  0  0
    1.0580   64.6520   70.8450 C   0  0  0  0  0  0  0  0  0  0  0  0
    0.4160   63.5080   71.3360 C   0  0  0  0  0  0  0  0  0  0  0  0
    1.1130   62.3020   71.4460 C   0  0  0  0  0  0  0  0  0  0  0  0
    3.0040   60.9710   71.2390 O   0  0  0  0  0  0  0  0  0  0  0  0
    4.8040   60.7050   69.8720 F   0  0  0  0  0  0  0  0  0  0  0  0
    3.5300   60.3150   70.0940 C   0  0  0  0  0  0  0  0  0  0  0  0
    3.5180   58.9850   70.3070 F   0  0  0  0  0  0  0  0  0  0  0  0
    2.7840   60.5880   69.0040 F   0  0  0  0  0  0  0  0  0  0  0  0
    2.0721   66.6806   69.9216 H   0  0  0  0  0  0  0  0  0  0  0  0
    0.8416   67.8586   70.2321 H   0  0  0  0  0  0  0  0  0  0  0  0
    1.2075   66.0693   68.0085 H   0  0  0  0  0  0  0  0  0  0  0  0
   -1.2119   65.8288   68.4817 H   0  0  0  0  0  0  0  0  0  0  0  0
   -1.3695   67.4671   69.0785 H   0  0  0  0  0  0  0  0  0  0  0  0
   -0.8948   66.5115   66.1795 H   0  0  0  0  0  0  0  0  0  0  0  0
   -2.1590   67.5963   66.7187 H   0  0  0  0  0  0  0  0  0  0  0  0
   -0.6070   69.3521   66.9963 H   0  0  0  0  0  0  0  0  0  0  0  0
    1.9500   68.0861   67.0918 H   0  0  0  0  0  0  0  0  0  0  0  0
    1.1858   69.0699   68.3461 H   0  0  0  0  0  0  0  0  0  0  0  0
   -0.5213   68.3171   64.6252 H   0  0  0  0  0  0  0  0  0  0  0  0
    0.2897   69.8495   65.1628 H   0  0  0  0  0  0  0  0  0  0  0  0
    0.8838   66.1282   64.9271 H   0  0  0  0  0  0  0  0  0  0  0  0
    3.1288   65.1758   64.4186 H   0  0  0  0  0  0  0  0  0  0  0  0
    5.0941   66.6823   64.1463 H   0  0  0  0  0  0  0  0  0  0  0  0
    4.8146   69.1492   64.3620 H   0  0  0  0  0  0  0  0  0  0  0  0
    2.5737   70.1145   64.8672 H   0  0  0  0  0  0  0  0  0  0  0  0
    0.2591   66.3910   71.7838 H   0  0  0  0  0  0  0  0  0  0  0  0
   -0.6745   65.7908   70.3641 H   0  0  0  0  0  0  0  0  0  0  0  0
    4.1561   63.2913   70.2869 H   0  0  0  0  0  0  0  0  0  0  0  0
    2.9273   65.4496   70.0884 H   0  0  0  0  0  0  0  0  0  0  0  0
   -0.6410   63.5592   71.6362 H   0  0  0  0  0  0  0  0  0  0  0  0
    0.5955   61.4109   71.8308 H   0  0  0  0  0  0  0  0  0  0  0  0
  2  1  1  0
  3  2  1  0
  4  3  1  0
  5  4  1  0
  6  5  1  0
  6  2  1  0
  7  5  1  0
  8  7  1  0
  9  8  2  0
 10  9  1  0
 11 10  2  0
 12 11  1  0
 13  8  1  0
 13 12  2  0
 14  1  1  0
 16 15  2  0
 17 16  1  0
 18 17  2  0
 18 14  1  0
 19 18  1  0
 20 19  2  0
 20 15  1  0
 21 15  1  0
 23 22  1  0
 23 21  1  0
 24 23  1  0
 25 23  1  0
  1 26  1  0
  1 27  1  0
  2 28  1  6
  3 29  1  0
  3 30  1  0
  4 31  1  0
  4 32  1  0
  5 33  1  1
  6 34  1  0
  6 35  1  0
  7 36  1  0
  7 37  1  0
  9 38  1  0
 10 39  1  0
 11 40  1  0
 12 41  1  0
 13 42  1  0
 14 43  1  0
 14 44  1  0
 16 45  1  0
 17 46  1  0
 19 47  1  0
 20 48  1  0
M  CHG  2   1   1   5   1
M  END
>  <score>  (6) 
-9.173

$$$$
=
     RDKit          3D

 48 50  0  0  0  0  0  0  0  0999 V2000
    0.3680   69.0240   66.8760 N   0  0  0  0  0  4  0  0  0  0  0  0
    0.3950   68.4880   65.4780 C   0  0  1  0  0  0  0  0  0  0  0  0
   -0.8720   68.9010   64.7420 C   0  0  0  0  0  0  0  0  0  0  0  0
   -0.5040   68.6890   63.2820 C   0  0  0  0  0  0  0  0  0  0  0  0
    0.9140   69.2150   63.2080 N   0  0  1  0  0  4  0  0  0  0  0  0
    1.5280   69.0540   64.5850 C   0  0  0  0  0  0  0  0  0  0  0  0
    1.7360   68.6370   62.0690 C   0  0  0  0  0  0  0  0  0  0  0  0
    3.1370   68.3090   62.4960 C   0  0  0  0  0  0  0  0  0  0  0  0
    3.3820   67.2370   63.3680 C   0  0  0  0  0  0  0  0  0  0  0  0
    4.6810   66.9580   63.7960 C   0  0  0  0  0  0  0  0  0  0  0  0
    5.7440   67.7450   63.3610 C   0  0  0  0  0  0  0  0  0  0  0  0
    5.5140   68.8080   62.4900 C   0  0  0  0  0  0  0  0  0  0  0  0
    4.2180   69.0900   62.0570 C   0  0  0  0  0  0  0  0  0  0  0  0
    1.3560   68.4230   67.8400 C   0  0  0  0  0  0  0  0  0  0  0  0
    4.8270   70.9470   68.3450 C   0  0  0  0  0  0  0  0  0  0  0  0
    3.7960   70.9710   69.2830 C   0  0  0  0  0  0  0  0  0  0  0  0
    2.6630   70.1640   69.1120 C   0  0  0  0  0  0  0  0  0  0  0  0
    2.5430   69.3240   67.9960 C   0  0  0  0  0  0  0  0  0  0  0  0
    3.5810   69.3030   67.0560 C   0  0  0  0  0  0  0  0  0  0  0  0
    4.7080   70.1100   67.2320 C   0  0  0  0  0  0  0  0  0  0  0  0
    5.9810   71.6740   68.3830 O   0  0  0  0  0  0  0  0  0  0  0  0
    8.1060   71.9870   69.1350 F   0  0  0  0  0  0  0  0  0  0  0  0
    7.1350   71.0680   68.9460 C   0  0  0  0  0  0  0  0  0  0  0  0
    6.8120   70.5330   70.1400 F   0  0  0  0  0  0  0  0  0  0  0  0
    7.5990   70.0880   68.1420 F   0  0  0  0  0  0  0  0  0  0  0  0
    0.5527   70.0362   66.8276 H   0  0  0  0  0  0  0  0  0  0  0  0
   -0.5612   68.7785   67.2464 H   0  0  0  0  0  0  0  0  0  0  0  0
    0.5249   67.4044   65.6154 H   0  0  0  0  0  0  0  0  0  0  0  0
   -1.7222   68.2660   65.0316 H   0  0  0  0  0  0  0  0  0  0  0  0
   -1.1863   69.9314   64.9646 H   0  0  0  0  0  0  0  0  0  0  0  0
   -0.5445   67.6227   63.0149 H   0  0  0  0  0  0  0  0  0  0  0  0
   -1.1899   69.1923   62.5847 H   0  0  0  0  0  0  0  0  0  0  0  0
    0.9024   70.2146   62.9598 H   0  0  0  0  0  0  0  0  0  0  0  0
    2.3755   68.3537   64.5488 H   0  0  0  0  0  0  0  0  0  0  0  0
    1.9170   70.0069   64.9731 H   0  0  0  0  0  0  0  0  0  0  0  0
    1.2495   67.7177   61.7110 H   0  0  0  0  0  0  0  0  0  0  0  0
    1.7921   69.3938   61.2727 H   0  0  0  0  0  0  0  0  0  0  0  0
    2.5456   66.6131   63.7162 H   0  0  0  0  0  0  0  0  0  0  0  0
    4.8652   66.1149   64.4781 H   0  0  0  0  0  0  0  0  0  0  0  0
    6.7659   67.5275   63.7051 H   0  0  0  0  0  0  0  0  0  0  0  0
    6.3555   69.4258   62.1432 H   0  0  0  0  0  0  0  0  0  0  0  0
    4.0421   69.9290   61.3677 H   0  0  0  0  0  0  0  0  0  0  0  0
    0.8720   68.2875   68.8185 H   0  0  0  0  0  0  0  0  0  0  0  0
    1.6926   67.4516   67.4488 H   0  0  0  0  0  0  0  0  0  0  0  0
    3.8722   71.6272   70.1625 H   0  0  0  0  0  0  0  0  0  0  0  0
    1.8587   70.1900   69.8620 H   0  0  0  0  0  0  0  0  0  0  0  0
    3.5087   68.6482   66.1751 H   0  0  0  0  0  0  0  0  0  0  0  0
    5.5136   70.0862   66.4834 H   0  0  0  0  0  0  0  0  0  0  0  0
  2  1  1  0
  3  2  1  0
  4  3  1  0
  5  4  1  0
  6  5  1  0
  6  2  1  0
  7  5  1  0
  8  7  1  0
  9  8  2  0
 10  9  1  0
 11 10  2  0
 12 11  1  0
 13  8  1  0
 13 12  2  0
 14  1  1  0
 16 15  2  0
 17 16  1  0
 18 17  2  0
 18 14  1  0
 19 18  1  0
 20 19  2  0
 20 15  1  0
 21 15  1  0
 23 22  1  0
 23 21  1  0
 24 23  1  0
 25 23  1  0
  1 26  1  0
  1 27  1  0
  2 28  1  1
  3 29  1  0
  3 30  1  0
  4 31  1  0
  4 32  1  0
  5 33  1  6
  6 34  1  0
  6 35  1  0
  7 36  1  0
  7 37  1  0
  9 38  1  0
 10 39  1  0
 11 40  1  0
 12 41  1  0
 13 42  1  0
 14 43  1  0
 14 44  1  0
 16 45  1  0
 17 46  1  0
 19 47  1  0
 20 48  1  0
M  CHG  2   1   1   5   1
M  END
>  <score>  (7) 
-9.161

$$$$
=
     RDKit          3D

 48 50  0  0  0  0  0  0  0  0999 V2000
   -0.3080   69.3630   66.3570 N   0  0  0  0  0  4  0  0  0  0  0  0
   -0.5440   68.5870   67.6160 C   0  0  1  0  0  0  0  0  0  0  0  0
   -1.3280   67.3200   67.3020 C   0  0  0  0  0  0  0  0  0  0  0  0
   -1.0970   66.4610   68.5350 C   0  0  0  0  0  0  0  0  0  0  0  0
    0.3700   66.6830   68.8360 N   0  0  1  0  0  4  0  0  0  0  0  0
    0.7380   68.0530   68.3030 C   0  0  0  0  0  0  0  0  0  0  0  0
    0.7540   66.4340   70.2850 C   0  0  0  0  0  0  0  0  0  0  0  0
    1.1810   65.0140   70.5180 C   0  0  0  0  0  0  0  0  0  0  0  0
    2.5090   64.6230   70.2820 C   0  0  0  0  0  0  0  0  0  0  0  0
    2.8950   63.2930   70.4600 C   0  0  0  0  0  0  0  0  0  0  0  0
    1.9640   62.3450   70.8730 C   0  0  0  0  0  0  0  0  0  0  0  0
    0.6450   62.7220   71.1160 C   0  0  0  0  0  0  0  0  0  0  0  0
    0.2530   64.0500   70.9410 C   0  0  0  0  0  0  0  0  0  0  0  0
   -0.6030   68.6480   65.0670 C   0  0  0  0  0  0  0  0  0  0  0  0
    3.0500   68.2690   62.7890 C   0  0  0  0  0  0  0  0  0  0  0  0
    1.9300   68.8820   62.2280 C   0  0  0  0  0  0  0  0  0  0  0  0
    0.7400   68.9910   62.9600 C   0  0  0  0  0  0  0  0  0  0  0  0
    0.6520   68.4850   64.2650 C   0  0  0  0  0  0  0  0  0  0  0  0
    1.7800   67.8700   64.8240 C   0  0  0  0  0  0  0  0  0  0  0  0
    2.9630   67.7640   64.0880 C   0  0  0  0  0  0  0  0  0  0  0  0
    4.2660   68.0950   62.1960 O   0  0  0  0  0  0  0  0  0  0  0  0
    5.4540   69.8470   61.3610 F   0  0  0  0  0  0  0  0  0  0  0  0
    5.2760   69.0610   62.4450 C   0  0  0  0  0  0  0  0  0  0  0  0
    4.8970   69.8360   63.4790 F   0  0  0  0  0  0  0  0  0  0  0  0
    6.4440   68.4610   62.7560 F   0  0  0  0  0  0  0  0  0  0  0  0
   -0.9006   70.2047   66.3917 H   0  0  0  0  0  0  0  0  0  0  0  0
    0.7038   69.5550   66.3389 H   0  0  0  0  0  0  0  0  0  0  0  0
   -1.0563   69.3047   68.2736 H   0  0  0  0  0  0  0  0  0  0  0  0
   -2.3974   67.5398   67.1679 H   0  0  0  0  0  0  0  0  0  0  0  0
   -1.0095   66.8331   66.3684 H   0  0  0  0  0  0  0  0  0  0  0  0
   -1.7272   66.7945   69.3727 H   0  0  0  0  0  0  0  0  0  0  0  0
   -1.3518   65.4023   68.3792 H   0  0  0  0  0  0  0  0  0  0  0  0
    0.9373   65.9718   68.3531 H   0  0  0  0  0  0  0  0  0  0  0  0
    1.0386   68.7179   69.1261 H   0  0  0  0  0  0  0  0  0  0  0  0
    1.5861   68.0051   67.6042 H   0  0  0  0  0  0  0  0  0  0  0  0
    1.5853   67.1031   70.5520 H   0  0  0  0  0  0  0  0  0  0  0  0
   -0.1305   66.6293   70.9091 H   0  0  0  0  0  0  0  0  0  0  0  0
    3.2490   65.3684   69.9552 H   0  0  0  0  0  0  0  0  0  0  0  0
    3.9370   62.9941   70.2734 H   0  0  0  0  0  0  0  0  0  0  0  0
    2.2697   61.2970   71.0078 H   0  0  0  0  0  0  0  0  0  0  0  0
   -0.0886   61.9718   71.4463 H   0  0  0  0  0  0  0  0  0  0  0  0
   -0.7893   64.3427   71.1357 H   0  0  0  0  0  0  0  0  0  0  0  0
   -1.0230   67.6560   65.2896 H   0  0  0  0  0  0  0  0  0  0  0  0
   -1.3249   69.2407   64.4860 H   0  0  0  0  0  0  0  0  0  0  0  0
    1.9810   69.2824   61.2047 H   0  0  0  0  0  0  0  0  0  0  0  0
   -0.1350   69.4790   62.5059 H   0  0  0  0  0  0  0  0  0  0  0  0
    1.7341   67.4687   65.8472 H   0  0  0  0  0  0  0  0  0  0  0  0
    3.8393   67.2752   64.5388 H   0  0  0  0  0  0  0  0  0  0  0  0
  2  1  1  0
  3  2  1  0
  4  3  1  0
  5  4  1  0
  6  5  1  0
  6  2  1  0
  7  5  1  0
  8  7  1  0
  9  8  2  0
 10  9  1  0
 11 10  2  0
 12 11  1  0
 13  8  1  0
 13 12  2  0
 14  1  1  0
 16 15  2  0
 17 16  1  0
 18 17  2  0
 18 14  1  0
 19 18  1  0
 20 19  2  0
 20 15  1  0
 21 15  1  0
 23 22  1  0
 23 21  1  0
 24 23  1  0
 25 23  1  0
  1 26  1  0
  1 27  1  0
  2 28  1  1
  3 29  1  0
  3 30  1  0
  4 31  1  0
  4 32  1  0
  5 33  1  6
  6 34  1  0
  6 35  1  0
  7 36  1  0
  7 37  1  0
  9 38  1  0
 10 39  1  0
 11 40  1  0
 12 41  1  0
 13 42  1  0
 14 43  1  0
 14 44  1  0
 16 45  1  0
 17 46  1  0
 19 47  1  0
 20 48  1  0
M  CHG  2   1   1   5   1
M  END
>  <score>  (8) 
-9.151

$$$$
=
     RDKit          3D

 48 50  0  0  0  0  0  0  0  0999 V2000
    0.3700   67.6940   67.9560 N   0  0  0  0  0  4  0  0  0  0  0  0
    0.8340   66.9870   69.1920 C   0  0  1  0  0  0  0  0  0  0  0  0
   -0.3200   66.2070   69.8050 C   0  0  0  0  0  0  0  0  0  0  0  0
    0.3830   65.2290   70.7330 C   0  0  0  0  0  0  0  0  0  0  0  0
    1.5740   64.7770   69.9140 N   0  0  1  0  0  4  0  0  0  0  0  0
    1.9130   65.9010   68.9540 C   0  0  0  0  0  0  0  0  0  0  0  0
    2.7410   64.2650   70.7390 C   0  0  0  0  0  0  0  0  0  0  0  0
    3.0050   62.8070   70.4970 C   0  0  0  0  0  0  0  0  0  0  0  0
    3.7760   62.3970   69.3980 C   0  0  0  0  0  0  0  0  0  0  0  0
    3.9860   61.0390   69.1510 C   0  0  0  0  0  0  0  0  0  0  0  0
    3.4300   60.0820   69.9940 C   0  0  0  0  0  0  0  0  0  0  0  0
    2.6680   60.4760   71.0910 C   0  0  0  0  0  0  0  0  0  0  0  0
    2.4550   61.8320   71.3450 C   0  0  0  0  0  0  0  0  0  0  0  0
    1.3500   67.7570   66.8150 C   0  0  0  0  0  0  0  0  0  0  0  0
    4.5290   70.5400   67.7210 C   0  0  0  0  0  0  0  0  0  0  0  0
    4.5300   69.8370   66.5180 C   0  0  0  0  0  0  0  0  0  0  0  0
    3.5080   68.9220   66.2290 C   0  0  0  0  0  0  0  0  0  0  0  0
    2.4710   68.6950   67.1450 C   0  0  0  0  0  0  0  0  0  0  0  0
    2.4730   69.4040   68.3540 C   0  0  0  0  0  0  0  0  0  0  0  0
    3.4960   70.3140   68.6340 C   0  0  0  0  0  0  0  0  0  0  0  0
    5.4540   71.4560   68.1320 O   0  0  0  0  0  0  0  0  0  0  0  0
    6.3480   70.5130   70.0010 F   0  0  0  0  0  0  0  0  0  0  0  0
    6.6320   70.9790   68.7650 C   0  0  0  0  0  0  0  0  0  0  0  0
    7.1460   69.9710   68.0340 F   0  0  0  0  0  0  0  0  0  0  0  0
    7.5530   71.9610   68.8600 F   0  0  0  0  0  0  0  0  0  0  0  0
   -0.4750   67.2120   67.6175 H   0  0  0  0  0  0  0  0  0  0  0  0
    0.2171   68.6720   68.2405 H   0  0  0  0  0  0  0  0  0  0  0  0
    1.2389   67.7946   69.8196 H   0  0  0  0  0  0  0  0  0  0  0  0
   -0.9922   66.8719   70.3672 H   0  0  0  0  0  0  0  0  0  0  0  0
   -0.9558   65.7129   69.0556 H   0  0  0  0  0  0  0  0  0  0  0  0
    0.7062   65.7261   71.6595 H   0  0  0  0  0  0  0  0  0  0  0  0
   -0.2616   64.3979   71.0552 H   0  0  0  0  0  0  0  0  0  0  0  0
    1.3274   63.9356   69.3735 H   0  0  0  0  0  0  0  0  0  0  0  0
    2.9150   66.3009   69.1685 H   0  0  0  0  0  0  0  0  0  0  0  0
    1.9226   65.5569   67.9093 H   0  0  0  0  0  0  0  0  0  0  0  0
    3.6418   64.8377   70.4734 H   0  0  0  0  0  0  0  0  0  0  0  0
    2.4871   64.3922   71.8017 H   0  0  0  0  0  0  0  0  0  0  0  0
    4.2171   63.1496   68.7279 H   0  0  0  0  0  0  0  0  0  0  0  0
    4.5921   60.7252   68.2884 H   0  0  0  0  0  0  0  0  0  0  0  0
    3.5925   59.0127   69.7937 H   0  0  0  0  0  0  0  0  0  0  0  0
    2.2332   59.7174   71.7585 H   0  0  0  0  0  0  0  0  0  0  0  0
    1.8535   62.1383   72.2135 H   0  0  0  0  0  0  0  0  0  0  0  0
    1.7591   66.7525   66.6319 H   0  0  0  0  0  0  0  0  0  0  0  0
    0.8307   68.1214   65.9163 H   0  0  0  0  0  0  0  0  0  0  0  0
    5.3382   70.0011   65.7901 H   0  0  0  0  0  0  0  0  0  0  0  0
    3.5197   68.3765   65.2738 H   0  0  0  0  0  0  0  0  0  0  0  0
    1.6667   69.2437   69.0849 H   0  0  0  0  0  0  0  0  0  0  0  0
    3.4877   70.8610   69.5883 H   0  0  0  0  0  0  0  0  0  0  0  0
  2  1  1  0
  3  2  1  0
  4  3  1  0
  5  4  1  0
  6  5  1  0
  6  2  1  0
  7  5  1  0
  8  7  1  0
  9  8  2  0
 10  9  1  0
 11 10  2  0
 12 11  1  0
 13  8  1  0
 13 12  2  0
 14  1  1  0
 16 15  2  0
 17 16  1  0
 18 17  2  0
 18 14  1  0
 19 18  1  0
 20 19  2  0
 20 15  1  0
 21 15  1  0
 23 22  1  0
 23 21  1  0
 24 23  1  0
 25 23  1  0
  1 26  1  0
  1 27  1  0
  2 28  1  1
  3 29  1  0
  3 30  1  0
  4 31  1  0
  4 32  1  0
  5 33  1  6
  6 34  1  0
  6 35  1  0
  7 36  1  0
  7 37  1  0
  9 38  1  0
 10 39  1  0
 11 40  1  0
 12 41  1  0
 13 42  1  0
 14 43  1  0
 14 44  1  0
 16 45  1  0
 17 46  1  0
 19 47  1  0
 20 48  1  0
M  CHG  2   1   1   5   1
M  END
>  <score>  (9) 
-8.858

$$$$
