=
     RDKit          3D

 20 21  0  0  0  0  0  0  0  0999 V2000
    2.9640   68.9990   65.7210 C   0  0  0  0  0  0  0  0  0  0  0  0
    3.9940   69.0890   64.7550 C   0  0  0  0  0  0  0  0  0  0  0  0
    5.2510   69.6280   65.0640 C   0  0  0  0  0  0  0  0  0  0  0  0
    5.4440   70.0670   66.3530 C   0  0  0  0  0  0  0  0  0  0  0  0
    4.4290   69.9760   67.3020 C   0  0  0  0  0  0  0  0  0  0  0  0
    3.1830   69.4490   67.0230 C   0  0  0  0  0  0  0  0  0  0  0  0
    4.9610   70.5240   68.5510 C   0  0  0  0  0  0  0  0  0  0  0  0
    4.3830   70.6200   69.6090 O   0  0  0  0  0  0  0  0  0  0  0  0
    6.4180   70.9510   68.2200 C   0  0  0  0  0  0  0  0  0  0  0  0
    7.2130   71.4540   68.9830 O   0  0  0  0  0  0  0  0  0  0  0  0
    6.5970   70.6330   66.8880 N   0  0  0  0  0  0  0  0  0  0  0  0
    1.5010   68.6550   63.8770 C   0  0  0  0  0  0  0  0  0  0  0  0
    1.8020   68.4480   65.2510 O   0  0  0  0  0  0  0  0  0  0  0  0
    3.8035   68.7264   63.7341 H   0  0  0  0  0  0  0  0  0  0  0  0
    6.0477   69.6967   64.3087 H   0  0  0  0  0  0  0  0  0  0  0  0
    2.3993   69.3870   67.7924 H   0  0  0  0  0  0  0  0  0  0  0  0
    7.4674   70.7934   66.3612 H   0  0  0  0  0  0  0  0  0  0  0  0
    0.5975   69.2763   63.7891 H   0  0  0  0  0  0  0  0  0  0  0  0
    2.3452   69.1645   63.3894 H   0  0  0  0  0  0  0  0  0  0  0  0
    1.3274   67.6844   63.3894 H   0  0  0  0  0  0  0  0  0  0  0  0
  2  1  2  0
  3  2  1  0
  4  3  2  0
  5  4  1  0
  6  5  2  0
  6  1  1  0
  7  5  1  0
  8  7  2  0
  9  7  1  0
 10  9  2  0
 11  4  1  0
 11  9  1  0
 13 12  1  0
 13  1  1  0
  2 14  1  0
  3 15  1  0
  6 16  1  0
 11 17  1  0
 12 18  1  0
 12 19  1  0
 12 20  1  0
M  END
>  <score>  (1) 
-7.642

$$$$
=
     RDKit          3D

 20 21  0  0  0  0  0  0  0  0999 V2000
    5.0070   69.1890   64.3720 C   0  0  0  0  0  0  0  0  0  0  0  0
    3.6420   68.8180   64.4120 C   0  0  0  0  0  0  0  0  0  0  0  0
    2.8660   68.9830   65.5670 C   0  0  0  0  0  0  0  0  0  0  0  0
    3.4880   69.5240   66.6680 C   0  0  0  0  0  0  0  0  0  0  0  0
    4.8310   69.8890   66.6250 C   0  0  0  0  0  0  0  0  0  0  0  0
    5.6180   69.7370   65.5000 C   0  0  0  0  0  0  0  0  0  0  0  0
    5.1720   70.4240   67.9450 C   0  0  0  0  0  0  0  0  0  0  0  0
    6.2460   70.8460   68.3050 O   0  0  0  0  0  0  0  0  0  0  0  0
    3.8590   70.3290   68.7730 C   0  0  0  0  0  0  0  0  0  0  0  0
    3.7080   70.6700   69.9250 O   0  0  0  0  0  0  0  0  0  0  0  0
    2.9270   69.7810   67.9140 N   0  0  0  0  0  0  0  0  0  0  0  0
    5.1670   67.8320   62.4240 C   0  0  0  0  0  0  0  0  0  0  0  0
    5.6150   68.9590   63.1670 O   0  0  0  0  0  0  0  0  0  0  0  0
    3.1776   68.3885   63.5121 H   0  0  0  0  0  0  0  0  0  0  0  0
    1.8054   68.6925   65.5921 H   0  0  0  0  0  0  0  0  0  0  0  0
    6.6771   70.0342   65.4939 H   0  0  0  0  0  0  0  0  0  0  0  0
    1.9464   69.5882   68.1632 H   0  0  0  0  0  0  0  0  0  0  0  0
    4.8514   67.0380   63.1168 H   0  0  0  0  0  0  0  0  0  0  0  0
    4.3170   68.1250   61.7903 H   0  0  0  0  0  0  0  0  0  0  0  0
    5.9862   67.4614   61.7903 H   0  0  0  0  0  0  0  0  0  0  0  0
  2  1  2  0
  3  2  1  0
  4  3  2  0
  5  4  1  0
  6  5  2  0
  6  1  1  0
  7  5  1  0
  8  7  2  0
  9  7  1  0
 10  9  2  0
 11  4  1  0
 11  9  1  0
 13 12  1  0
 13  1  1  0
  2 14  1  0
  3 15  1  0
  6 16  1  0
 11 17  1  0
 12 18  1  0
 12 19  1  0
 12 20  1  0
M  END
>  <score>  (2) 
-7.418

$$$$
=
     RDKit          3D

 20 21  0  0  0  0  0  0  0  0999 V2000
    4.7010   69.8370   66.8750 C   0  0  0  0  0  0  0  0  0  0  0  0
    3.3500   69.4950   67.1220 C   0  0  0  0  0  0  0  0  0  0  0  0
    2.5060   69.0390   66.1010 C   0  0  0  0  0  0  0  0  0  0  0  0
    3.0460   68.9350   64.8410 C   0  0  0  0  0  0  0  0  0  0  0  0
    4.3750   69.2710   64.6010 C   0  0  0  0  0  0  0  0  0  0  0  0
    5.2290   69.7230   65.5890 C   0  0  0  0  0  0  0  0  0  0  0  0
    4.6230   69.0470   63.1750 C   0  0  0  0  0  0  0  0  0  0  0  0
    5.6590   69.2250   62.5780 O   0  0  0  0  0  0  0  0  0  0  0  0
    3.2700   68.5370   62.6030 C   0  0  0  0  0  0  0  0  0  0  0  0
    3.0430   68.2320   61.4530 O   0  0  0  0  0  0  0  0  0  0  0  0
    2.4070   68.5090   63.6810 N   0  0  0  0  0  0  0  0  0  0  0  0
    6.7620   70.5700   67.8120 C   0  0  0  0  0  0  0  0  0  0  0  0
    5.3830   70.2640   67.9830 O   0  0  0  0  0  0  0  0  0  0  0  0
    2.9520   69.5898   68.1431 H   0  0  0  0  0  0  0  0  0  0  0  0
    1.4565   68.7755   66.2990 H   0  0  0  0  0  0  0  0  0  0  0  0
    6.2760   69.9808   65.3715 H   0  0  0  0  0  0  0  0  0  0  0  0
    1.4218   68.2123   63.6325 H   0  0  0  0  0  0  0  0  0  0  0  0
    7.2390   70.6759   68.7975 H   0  0  0  0  0  0  0  0  0  0  0  0
    7.2511   69.7585   67.2531 H   0  0  0  0  0  0  0  0  0  0  0  0
    6.8620   71.5122   67.2531 H   0  0  0  0  0  0  0  0  0  0  0  0
  2  1  2  0
  3  2  1  0
  4  3  2  0
  5  4  1  0
  6  5  2  0
  6  1  1  0
  7  5  1  0
  8  7  2  0
  9  7  1  0
 10  9  2  0
 11  4  1  0
 11  9  1  0
 13 12  1  0
 13  1  1  0
  2 14  1  0
  3 15  1  0
  6 16  1  0
 11 17  1  0
 12 18  1  0
 12 19  1  0
 12 20  1  0
M  END
>  <score>  (3) 
-7.349

$$$$
=
     RDKit          3D

 20 21  0  0  0  0  0  0  0  0999 V2000
    5.3910   70.3730   67.7920 C   0  0  0  0  0  0  0  0  0  0  0  0
    4.6970   70.6830   68.9860 C   0  0  0  0  0  0  0  0  0  0  0  0
    3.3380   70.3820   69.1490 C   0  0  0  0  0  0  0  0  0  0  0  0
    2.7010   69.7690   68.0960 C   0  0  0  0  0  0  0  0  0  0  0  0
    3.3860   69.4640   66.9230 C   0  0  0  0  0  0  0  0  0  0  0  0
    4.7250   69.7490   66.7360 C   0  0  0  0  0  0  0  0  0  0  0  0
    2.4270   68.8250   66.0200 C   0  0  0  0  0  0  0  0  0  0  0  0
    2.6390   68.4150   64.9030 O   0  0  0  0  0  0  0  0  0  0  0  0
    1.0870   68.7910   66.8080 C   0  0  0  0  0  0  0  0  0  0  0  0
    0.0330   68.3410   66.4190 O   0  0  0  0  0  0  0  0  0  0  0  0
    1.3680   69.3770   68.0270 N   0  0  0  0  0  0  0  0  0  0  0  0
    7.2900   71.0290   69.0670 C   0  0  0  0  0  0  0  0  0  0  0  0
    6.7110   70.7350   67.8010 O   0  0  0  0  0  0  0  0  0  0  0  0
    5.2389   71.1734   69.8081 H   0  0  0  0  0  0  0  0  0  0  0  0
    2.8040   70.6257   70.0793 H   0  0  0  0  0  0  0  0  0  0  0  0
    5.2420   69.4959   65.7986 H   0  0  0  0  0  0  0  0  0  0  0  0
    0.6818   69.5065   68.7841 H   0  0  0  0  0  0  0  0  0  0  0  0
    6.6164   70.6870   69.8666 H   0  0  0  0  0  0  0  0  0  0  0  0
    8.2572   70.5128   69.1566 H   0  0  0  0  0  0  0  0  0  0  0  0
    7.4440   72.1145   69.1566 H   0  0  0  0  0  0  0  0  0  0  0  0
  2  1  2  0
  3  2  1  0
  4  3  2  0
  5  4  1  0
  6  5  2  0
  6  1  1  0
  7  5  1  0
  8  7  2  0
  9  7  1  0
 10  9  2  0
 11  4  1  0
 11  9  1  0
 13 12  1  0
 13  1  1  0
  2 14  1  0
  3 15  1  0
  6 16  1  0
 11 17  1  0
 12 18  1  0
 12 19  1  0
 12 20  1  0
M  END
>  <score>  (4) 
-7.324

$$$$
=
     RDKit          3D

 20 21  0  0  0  0  0  0  0  0999 V2000
    1.8260   68.8790   66.8320 C   0  0  0  0  0  0  0  0  0  0  0  0
    2.6410   68.7200   65.6860 C   0  0  0  0  0  0  0  0  0  0  0  0
    3.9690   69.1650   65.6570 C   0  0  0  0  0  0  0  0  0  0  0  0
    4.4540   69.7660   66.7950 C   0  0  0  0  0  0  0  0  0  0  0  0
    3.6500   69.9200   67.9220 C   0  0  0  0  0  0  0  0  0  0  0  0
    2.3390   69.4900   67.9770 C   0  0  0  0  0  0  0  0  0  0  0  0
    4.4650   70.5870   68.9400 C   0  0  0  0  0  0  0  0  0  0  0  0
    4.1240   70.8970   70.0580 O   0  0  0  0  0  0  0  0  0  0  0  0
    5.8510   70.8080   68.2720 C   0  0  0  0  0  0  0  0  0  0  0  0
    6.8190   71.3320   68.7760 O   0  0  0  0  0  0  0  0  0  0  0  0
    5.7290   70.2810   67.0010 N   0  0  0  0  0  0  0  0  0  0  0  0
   -0.0870   68.6190   65.4410 C   0  0  0  0  0  0  0  0  0  0  0  0
    0.5560   68.3890   66.6890 O   0  0  0  0  0  0  0  0  0  0  0  0
    2.2202   68.2337   64.7936 H   0  0  0  0  0  0  0  0  0  0  0  0
    4.5968   69.0392   64.7626 H   0  0  0  0  0  0  0  0  0  0  0  0
    1.7273   69.6229   68.8815 H   0  0  0  0  0  0  0  0  0  0  0  0
    6.4826   70.2709   66.2989 H   0  0  0  0  0  0  0  0  0  0  0  0
   -1.1094   68.9847   65.6172 H   0  0  0  0  0  0  0  0  0  0  0  0
    0.4781   69.3707   64.8704 H   0  0  0  0  0  0  0  0  0  0  0  0
   -0.1269   67.6794   64.8704 H   0  0  0  0  0  0  0  0  0  0  0  0
  2  1  2  0
  3  2  1  0
  4  3  2  0
  5  4  1  0
  6  5  2  0
  6  1  1  0
  7  5  1  0
  8  7  2  0
  9  7  1  0
 10  9  2  0
 11  4  1  0
 11  9  1  0
 13 12  1  0
 13  1  1  0
  2 14  1  0
  3 15  1  0
  6 16  1  0
 11 17  1  0
 12 18  1  0
 12 19  1  0
 12 20  1  0
M  END
>  <score>  (5) 
-7.22

$$$$
=
     RDKit          3D

 20 21  0  0  0  0  0  0  0  0999 V2000
    4.6410   69.8440   67.0420 C   0  0  0  0  0  0  0  0  0  0  0  0
    5.3680   69.8340   65.8280 C   0  0  0  0  0  0  0  0  0  0  0  0
    4.7800   69.4400   64.6180 C   0  0  0  0  0  0  0  0  0  0  0  0
    3.4590   69.0620   64.6580 C   0  0  0  0  0  0  0  0  0  0  0  0
    2.7450   69.0740   65.8540 C   0  0  0  0  0  0  0  0  0  0  0  0
    3.3000   69.4580   67.0590 C   0  0  0  0  0  0  0  0  0  0  0  0
    1.3870   68.6220   65.5460 C   0  0  0  0  0  0  0  0  0  0  0  0
    0.4670   68.4960   66.3210 O   0  0  0  0  0  0  0  0  0  0  0  0
    1.3880   68.3410   64.0170 C   0  0  0  0  0  0  0  0  0  0  0  0
    0.4540   67.9470   63.3550 O   0  0  0  0  0  0  0  0  0  0  0  0
    2.6690   68.6370   63.5940 N   0  0  0  0  0  0  0  0  0  0  0  0
    6.7250   70.6120   67.8960 C   0  0  0  0  0  0  0  0  0  0  0  0
    5.3670   70.2550   68.1270 O   0  0  0  0  0  0  0  0  0  0  0  0
    6.4234   70.1439   65.8339 H   0  0  0  0  0  0  0  0  0  0  0  0
    5.3507   69.4336   63.6777 H   0  0  0  0  0  0  0  0  0  0  0  0
    2.7124   69.4595   67.9889 H   0  0  0  0  0  0  0  0  0  0  0  0
    2.9960   68.5542   62.6208 H   0  0  0  0  0  0  0  0  0  0  0  0
    7.2377   70.7468   68.8598 H   0  0  0  0  0  0  0  0  0  0  0  0
    7.2219   69.8140   67.3248 H   0  0  0  0  0  0  0  0  0  0  0  0
    6.7652   71.5512   67.3248 H   0  0  0  0  0  0  0  0  0  0  0  0
  2  1  2  0
  3  2  1  0
  4  3  2  0
  5  4  1  0
  6  5  2  0
  6  1  1  0
  7  5  1  0
  8  7  2  0
  9  7  1  0
 10  9  2  0
 11  4  1  0
 11  9  1  0
 13 12  1  0
 13  1  1  0
  2 14  1  0
  3 15  1  0
  6 16  1  0
 11 17  1  0
 12 18  1  0
 12 19  1  0
 12 20  1  0
M  END
>  <score>  (6) 
-7.184

$$$$
=
     RDKit          3D

 20 21  0  0  0  0  0  0  0  0999 V2000
    2.1340   69.0710   66.9040 C   0  0  0  0  0  0  0  0  0  0  0  0
    3.2640   69.6270   67.5500 C   0  0  0  0  0  0  0  0  0  0  0  0
    4.4740   69.8300   66.8740 C   0  0  0  0  0  0  0  0  0  0  0  0
    4.5200   69.4670   65.5490 C   0  0  0  0  0  0  0  0  0  0  0  0
    3.4070   68.9210   64.9150 C   0  0  0  0  0  0  0  0  0  0  0  0
    2.2020   68.7110   65.5580 C   0  0  0  0  0  0  0  0  0  0  0  0
    3.7920   68.6520   63.5280 C   0  0  0  0  0  0  0  0  0  0  0  0
    3.0990   68.1770   62.6590 O   0  0  0  0  0  0  0  0  0  0  0  0
    5.2750   69.1080   63.4220 C   0  0  0  0  0  0  0  0  0  0  0  0
    5.9750   69.0560   62.4370 O   0  0  0  0  0  0  0  0  0  0  0  0
    5.6020   69.5740   64.6800 N   0  0  0  0  0  0  0  0  0  0  0  0
    0.8660   67.6940   68.3740 C   0  0  0  0  0  0  0  0  0  0  0  0
    1.0350   68.9410   67.7110 O   0  0  0  0  0  0  0  0  0  0  0  0
    3.1901   69.9072   68.6112 H   0  0  0  0  0  0  0  0  0  0  0  0
    5.3495   70.2612   67.3815 H   0  0  0  0  0  0  0  0  0  0  0  0
    1.3368   68.2801   65.0329 H   0  0  0  0  0  0  0  0  0  0  0  0
    6.5244   69.9509   64.9408 H   0  0  0  0  0  0  0  0  0  0  0  0
    0.8874   67.8516   69.4624 H   0  0  0  0  0  0  0  0  0  0  0  0
   -0.1000   67.2536   68.0861 H   0  0  0  0  0  0  0  0  0  0  0  0
    1.6800   67.0124   68.0861 H   0  0  0  0  0  0  0  0  0  0  0  0
  2  1  2  0
  3  2  1  0
  4  3  2  0
  5  4  1  0
  6  5  2  0
  6  1  1  0
  7  5  1  0
  8  7  2  0
  9  7  1  0
 10  9  2  0
 11  4  1  0
 11  9  1  0
 13 12  1  0
 13  1  1  0
  2 14  1  0
  3 15  1  0
  6 16  1  0
 11 17  1  0
 12 18  1  0
 12 19  1  0
 12 20  1  0
M  END
>  <score>  (7) 
-6.953

$$$$
=
     RDKit          3D

 20 21  0  0  0  0  0  0  0  0999 V2000
    3.5640   69.4660   66.6840 C   0  0  0  0  0  0  0  0  0  0  0  0
    4.8890   69.7800   66.2960 C   0  0  0  0  0  0  0  0  0  0  0  0
    5.3200   69.6510   64.9690 C   0  0  0  0  0  0  0  0  0  0  0  0
    4.3980   69.2050   64.0520 C   0  0  0  0  0  0  0  0  0  0  0  0
    3.0950   68.8980   64.4350 C   0  0  0  0  0  0  0  0  0  0  0  0
    2.6450   69.0160   65.7360 C   0  0  0  0  0  0  0  0  0  0  0  0
    2.3860   68.4600   63.2310 C   0  0  0  0  0  0  0  0  0  0  0  0
    1.2330   68.1080   63.1520 O   0  0  0  0  0  0  0  0  0  0  0  0
    3.4360   68.5470   62.0870 C   0  0  0  0  0  0  0  0  0  0  0  0
    3.2560   68.2710   60.9220 O   0  0  0  0  0  0  0  0  0  0  0  0
    4.5930   69.0010   62.6890 N   0  0  0  0  0  0  0  0  0  0  0  0
    2.0490   70.2030   68.3630 C   0  0  0  0  0  0  0  0  0  0  0  0
    3.3120   69.6480   68.0170 O   0  0  0  0  0  0  0  0  0  0  0  0
    5.5994   70.1349   67.0571 H   0  0  0  0  0  0  0  0  0  0  0  0
    6.3510   69.8959   64.6739 H   0  0  0  0  0  0  0  0  0  0  0  0
    1.6097   68.7666   66.0115 H   0  0  0  0  0  0  0  0  0  0  0  0
    5.4817   69.1666   62.1953 H   0  0  0  0  0  0  0  0  0  0  0  0
    1.9544   70.2446   69.4581 H   0  0  0  0  0  0  0  0  0  0  0  0
    1.9692   71.2191   67.9492 H   0  0  0  0  0  0  0  0  0  0  0  0
    1.2466   69.5746   67.9492 H   0  0  0  0  0  0  0  0  0  0  0  0
  2  1  2  0
  3  2  1  0
  4  3  2  0
  5  4  1  0
  6  5  2  0
  6  1  1  0
  7  5  1  0
  8  7  2  0
  9  7  1  0
 10  9  2  0
 11  4  1  0
 11  9  1  0
 13 12  1  0
 13  1  1  0
  2 14  1  0
  3 15  1  0
  6 16  1  0
 11 17  1  0
 12 18  1  0
 12 19  1  0
 12 20  1  0
M  END
>  <score>  (8) 
-6.908

$$$$
=
     RDKit          3D

 20 21  0  0  0  0  0  0  0  0999 V2000
    2.1750   68.3450   64.9310 C   0  0  0  0  0  0  0  0  0  0  0  0
    0.9650   68.3970   65.6640 C   0  0  0  0  0  0  0  0  0  0  0  0
    0.9050   68.9460   66.9520 C   0  0  0  0  0  0  0  0  0  0  0  0
    2.0770   69.4370   67.4790 C   0  0  0  0  0  0  0  0  0  0  0  0
    3.2650   69.3860   66.7550 C   0  0  0  0  0  0  0  0  0  0  0  0
    3.3520   68.8500   65.4850 C   0  0  0  0  0  0  0  0  0  0  0  0
    4.3040   69.9860   67.5960 C   0  0  0  0  0  0  0  0  0  0  0  0
    5.4730   70.1260   67.3200 O   0  0  0  0  0  0  0  0  0  0  0  0
    3.5790   70.3970   68.9080 C   0  0  0  0  0  0  0  0  0  0  0  0
    4.0800   70.9310   69.8720 O   0  0  0  0  0  0  0  0  0  0  0  0
    2.2610   70.0240   68.7260 N   0  0  0  0  0  0  0  0  0  0  0  0
    2.6170   68.4930   62.5980 C   0  0  0  0  0  0  0  0  0  0  0  0
    2.0560   67.7770   63.6920 O   0  0  0  0  0  0  0  0  0  0  0  0
    0.0469   67.9955   65.2102 H   0  0  0  0  0  0  0  0  0  0  0  0
   -0.0381   68.9827   67.5169 H   0  0  0  0  0  0  0  0  0  0  0  0
    4.3047   68.8225   64.9359 H   0  0  0  0  0  0  0  0  0  0  0  0
    1.5141   70.1624   69.4216 H   0  0  0  0  0  0  0  0  0  0  0  0
    3.2534   69.3052   62.9791 H   0  0  0  0  0  0  0  0  0  0  0  0
    3.2226   67.8097   61.9845 H   0  0  0  0  0  0  0  0  0  0  0  0
    1.8087   68.9176   61.9845 H   0  0  0  0  0  0  0  0  0  0  0  0
  2  1  2  0
  3  2  1  0
  4  3  2  0
  5  4  1  0
  6  5  2  0
  6  1  1  0
  7  5  1  0
  8  7  2  0
  9  7  1  0
 10  9  2  0
 11  4  1  0
 11  9  1  0
 13 12  1  0
 13  1  1  0
  2 14  1  0
  3 15  1  0
  6 16  1  0
 11 17  1  0
 12 18  1  0
 12 19  1  0
 12 20  1  0
M  END
>  <score>  (9) 
-6.808

$$$$
