=
     RDKit          3D

 19 19  0  0  0  0  0  0  0  0999 V2000
    4.8300   70.1630   67.4920 C   0  0  0  0  0  0  0  0  0  0  0  0
    3.5230   69.6700   67.3470 C   0  0  0  0  0  0  0  0  0  0  0  0
    3.0900   69.1600   66.1210 C   0  0  0  0  0  0  0  0  0  0  0  0
    3.9670   69.1440   65.0410 C   0  0  0  0  0  0  0  0  0  0  0  0
    5.2640   69.6290   65.1660 C   0  0  0  0  0  0  0  0  0  0  0  0
    5.6990   70.1380   66.3920 C   0  0  0  0  0  0  0  0  0  0  0  0
    5.2370   70.6940   68.8220 C   0  0  0  0  0  0  0  0  0  0  0  0
    4.5820   70.5310   69.8400 O   0  0  0  0  0  0  0  0  0  0  0  0
    7.4490   70.8350   69.5560 C   0  0  0  0  0  0  0  0  0  0  0  0
    6.4100   71.3670   68.7320 O   0  0  0  0  0  0  0  0  0  0  0  0
    3.5880   68.6570   63.8260 O   0  0  0  0  0  0  0  0  0  0  0  0
    2.8352   69.6856   68.2053 H   0  0  0  0  0  0  0  0  0  0  0  0
    2.0656   68.7747   66.0104 H   0  0  0  0  0  0  0  0  0  0  0  0
    5.9452   69.6120   64.3025 H   0  0  0  0  0  0  0  0  0  0  0  0
    6.7254   70.5200   66.4946 H   0  0  0  0  0  0  0  0  0  0  0  0
    7.1833   70.9711   70.6147 H   0  0  0  0  0  0  0  0  0  0  0  0
    7.5725   69.7627   69.3438 H   0  0  0  0  0  0  0  0  0  0  0  0
    8.3912   71.3616   69.3438 H   0  0  0  0  0  0  0  0  0  0  0  0
    4.2289   68.6555   63.0715 H   0  0  0  0  0  0  0  0  0  0  0  0
  2  1  2  0
  3  2  1  0
  4  3  2  0
  5  4  1  0
  6  5  2  0
  6  1  1  0
  7  1  1  0
  8  7  2  0
 10  7  1  0
 10  9  1  0
 11  4  1  0
  2 12  1  0
  3 13  1  0
  5 14  1  0
  6 15  1  0
  9 16  1  0
  9 17  1  0
  9 18  1  0
 11 19  1  0
M  END
>  <score>  (1) 
-6.524

$$$$
=
     RDKit          3D

 19 19  0  0  0  0  0  0  0  0999 V2000
    4.4420   69.3350   65.7780 C   0  0  0  0  0  0  0  0  0  0  0  0
    3.1120   69.0690   66.1430 C   0  0  0  0  0  0  0  0  0  0  0  0
    2.6340   69.4410   67.4020 C   0  0  0  0  0  0  0  0  0  0  0  0
    3.4890   70.0800   68.2940 C   0  0  0  0  0  0  0  0  0  0  0  0
    4.8100   70.3510   67.9490 C   0  0  0  0  0  0  0  0  0  0  0  0
    5.2880   69.9790   66.6910 C   0  0  0  0  0  0  0  0  0  0  0  0
    4.8950   68.9160   64.4240 C   0  0  0  0  0  0  0  0  0  0  0  0
    5.4490   69.6670   63.6370 O   0  0  0  0  0  0  0  0  0  0  0  0
    4.5310   67.2570   62.8210 C   0  0  0  0  0  0  0  0  0  0  0  0
    4.6050   67.6090   64.2030 O   0  0  0  0  0  0  0  0  0  0  0  0
    3.0690   70.4610   69.5330 O   0  0  0  0  0  0  0  0  0  0  0  0
    2.4416   68.5639   65.4321 H   0  0  0  0  0  0  0  0  0  0  0  0
    1.5920   69.2307   67.6850 H   0  0  0  0  0  0  0  0  0  0  0  0
    5.4749   70.8564   68.6649 H   0  0  0  0  0  0  0  0  0  0  0  0
    6.3315   70.1920   66.4158 H   0  0  0  0  0  0  0  0  0  0  0  0
    4.3055   66.1844   62.7274 H   0  0  0  0  0  0  0  0  0  0  0  0
    3.7363   67.8425   62.3355 H   0  0  0  0  0  0  0  0  0  0  0  0
    5.4942   67.4729   62.3355 H   0  0  0  0  0  0  0  0  0  0  0  0
    3.6960   70.9144   70.1505 H   0  0  0  0  0  0  0  0  0  0  0  0
  2  1  2  0
  3  2  1  0
  4  3  2  0
  5  4  1  0
  6  5  2  0
  6  1  1  0
  7  1  1  0
  8  7  2  0
 10  7  1  0
 10  9  1  0
 11  4  1  0
  2 12  1  0
  3 13  1  0
  5 14  1  0
  6 15  1  0
  9 16  1  0
  9 17  1  0
  9 18  1  0
 11 19  1  0
M  END
>  <score>  (2) 
-6.491

$$$$
=
     RDKit          3D

 19 19  0  0  0  0  0  0  0  0999 V2000
    4.6900   70.4760   67.7730 C   0  0  0  0  0  0  0  0  0  0  0  0
    4.9370   69.9420   66.4980 C   0  0  0  0  0  0  0  0  0  0  0  0
    3.9710   69.1650   65.8550 C   0  0  0  0  0  0  0  0  0  0  0  0
    2.7570   68.9240   66.4900 C   0  0  0  0  0  0  0  0  0  0  0  0
    2.4950   69.4440   67.7530 C   0  0  0  0  0  0  0  0  0  0  0  0
    3.4600   70.2220   68.3970 C   0  0  0  0  0  0  0  0  0  0  0  0
    5.7560   71.2960   68.4090 C   0  0  0  0  0  0  0  0  0  0  0  0
    6.0020   72.4480   68.0860 O   0  0  0  0  0  0  0  0  0  0  0  0
    7.7650   70.9530   69.5500 C   0  0  0  0  0  0  0  0  0  0  0  0
    6.3940   70.5900   69.3750 O   0  0  0  0  0  0  0  0  0  0  0  0
    1.7850   68.1710   65.9020 O   0  0  0  0  0  0  0  0  0  0  0  0
    5.8991   70.1373   66.0017 H   0  0  0  0  0  0  0  0  0  0  0  0
    4.1681   68.7478   64.8565 H   0  0  0  0  0  0  0  0  0  0  0  0
    1.5310   69.2433   68.2432 H   0  0  0  0  0  0  0  0  0  0  0  0
    3.2548   70.6361   69.3952 H   0  0  0  0  0  0  0  0  0  0  0  0
    7.9940   71.0136   70.6242 H   0  0  0  0  0  0  0  0  0  0  0  0
    8.4081   70.1942   69.0803 H   0  0  0  0  0  0  0  0  0  0  0  0
    7.9483   71.9306   69.0803 H   0  0  0  0  0  0  0  0  0  0  0  0
    0.9287   68.0127   66.3729 H   0  0  0  0  0  0  0  0  0  0  0  0
  2  1  2  0
  3  2  1  0
  4  3  2  0
  5  4  1  0
  6  5  2  0
  6  1  1  0
  7  1  1  0
  8  7  2  0
 10  7  1  0
 10  9  1  0
 11  4  1  0
  2 12  1  0
  3 13  1  0
  5 14  1  0
  6 15  1  0
  9 16  1  0
  9 17  1  0
  9 18  1  0
 11 19  1  0
M  END
>  <score>  (3) 
-6.44

$$$$
=
     RDKit          3D

 19 19  0  0  0  0  0  0  0  0999 V2000
    4.4480   69.8220   66.8600 C   0  0  0  0  0  0  0  0  0  0  0  0
    5.7340   69.9990   66.3240 C   0  0  0  0  0  0  0  0  0  0  0  0
    6.7530   70.5600   67.0970 C   0  0  0  0  0  0  0  0  0  0  0  0
    6.4830   70.9420   68.4070 C   0  0  0  0  0  0  0  0  0  0  0  0
    5.2160   70.7750   68.9540 C   0  0  0  0  0  0  0  0  0  0  0  0
    4.1960   70.2140   68.1820 C   0  0  0  0  0  0  0  0  0  0  0  0
    3.4020   69.2190   65.9900 C   0  0  0  0  0  0  0  0  0  0  0  0
    3.5790   68.9510   64.8120 O   0  0  0  0  0  0  0  0  0  0  0  0
    1.6780   67.7270   66.4940 C   0  0  0  0  0  0  0  0  0  0  0  0
    2.2550   69.0200   66.6850 O   0  0  0  0  0  0  0  0  0  0  0  0
    7.4450   71.4940   69.1990 O   0  0  0  0  0  0  0  0  0  0  0  0
    5.9402   69.6935   65.2876 H   0  0  0  0  0  0  0  0  0  0  0  0
    7.7590   70.6984   66.6741 H   0  0  0  0  0  0  0  0  0  0  0  0
    5.0174   71.0835   69.9910 H   0  0  0  0  0  0  0  0  0  0  0  0
    3.1927   70.0795   68.6125 H   0  0  0  0  0  0  0  0  0  0  0  0
    1.4734   67.2686   67.4728 H   0  0  0  0  0  0  0  0  0  0  0  0
    0.7380   67.8245   65.9311 H   0  0  0  0  0  0  0  0  0  0  0  0
    2.3784   67.0925   65.9311 H   0  0  0  0  0  0  0  0  0  0  0  0
    7.2295   71.7582   70.1284 H   0  0  0  0  0  0  0  0  0  0  0  0
  2  1  2  0
  3  2  1  0
  4  3  2  0
  5  4  1  0
  6  5  2  0
  6  1  1  0
  7  1  1  0
  8  7  2  0
 10  7  1  0
 10  9  1  0
 11  4  1  0
  2 12  1  0
  3 13  1  0
  5 14  1  0
  6 15  1  0
  9 16  1  0
  9 17  1  0
  9 18  1  0
 11 19  1  0
M  END
>  <score>  (4) 
-6.4

$$$$
=
     RDKit          3D

 19 19  0  0  0  0  0  0  0  0999 V2000
    4.3030   69.4010   64.8340 C   0  0  0  0  0  0  0  0  0  0  0  0
    5.3690   69.5070   63.9260 C   0  0  0  0  0  0  0  0  0  0  0  0
    5.2000   69.1400   62.5890 C   0  0  0  0  0  0  0  0  0  0  0  0
    3.9630   68.6680   62.1620 C   0  0  0  0  0  0  0  0  0  0  0  0
    2.8970   68.5550   63.0490 C   0  0  0  0  0  0  0  0  0  0  0  0
    3.0640   68.9220   64.3860 C   0  0  0  0  0  0  0  0  0  0  0  0
    4.5420   69.8060   66.2460 C   0  0  0  0  0  0  0  0  0  0  0  0
    3.7950   69.5110   67.1670 O   0  0  0  0  0  0  0  0  0  0  0  0
    6.3170   70.4350   67.6270 C   0  0  0  0  0  0  0  0  0  0  0  0
    5.6810   70.5330   66.3510 O   0  0  0  0  0  0  0  0  0  0  0  0
    3.7510   68.2970   60.8680 O   0  0  0  0  0  0  0  0  0  0  0  0
    6.3442   69.8818   64.2702 H   0  0  0  0  0  0  0  0  0  0  0  0
    6.0372   69.2234   61.8803 H   0  0  0  0  0  0  0  0  0  0  0  0
    1.9252   68.1776   62.6980 H   0  0  0  0  0  0  0  0  0  0  0  0
    2.2221   68.8351   65.0886 H   0  0  0  0  0  0  0  0  0  0  0  0
    5.5650   70.5509   68.4214 H   0  0  0  0  0  0  0  0  0  0  0  0
    6.8010   69.4517   67.7209 H   0  0  0  0  0  0  0  0  0  0  0  0
    7.0746   71.2270   67.7209 H   0  0  0  0  0  0  0  0  0  0  0  0
    2.8617   67.9641   60.5879 H   0  0  0  0  0  0  0  0  0  0  0  0
  2  1  2  0
  3  2  1  0
  4  3  2  0
  5  4  1  0
  6  5  2  0
  6  1  1  0
  7  1  1  0
  8  7  2  0
 10  7  1  0
 10  9  1  0
 11  4  1  0
  2 12  1  0
  3 13  1  0
  5 14  1  0
  6 15  1  0
  9 16  1  0
  9 17  1  0
  9 18  1  0
 11 19  1  0
M  END
>  <score>  (5) 
-6.28

$$$$
=
     RDKit          3D

 19 19  0  0  0  0  0  0  0  0999 V2000
    4.2760   69.5010   65.8160 C   0  0  0  0  0  0  0  0  0  0  0  0
    2.9380   69.0950   65.6860 C   0  0  0  0  0  0  0  0  0  0  0  0
    2.4300   68.7200   64.4400 C   0  0  0  0  0  0  0  0  0  0  0  0
    3.2630   68.7520   63.3260 C   0  0  0  0  0  0  0  0  0  0  0  0
    4.5900   69.1520   63.4370 C   0  0  0  0  0  0  0  0  0  0  0  0
    5.1000   69.5260   64.6820 C   0  0  0  0  0  0  0  0  0  0  0  0
    4.7630   69.8880   67.1680 C   0  0  0  0  0  0  0  0  0  0  0  0
    5.9420   70.0640   67.4350 O   0  0  0  0  0  0  0  0  0  0  0  0
    4.0190   70.8180   69.1770 C   0  0  0  0  0  0  0  0  0  0  0  0
    3.7270   70.0110   68.0350 O   0  0  0  0  0  0  0  0  0  0  0  0
    2.8110   68.3960   62.0900 O   0  0  0  0  0  0  0  0  0  0  0  0
    2.2856   69.0721   66.5713 H   0  0  0  0  0  0  0  0  0  0  0  0
    1.3815   68.4025   64.3405 H   0  0  0  0  0  0  0  0  0  0  0  0
    5.2360   69.1738   62.5470 H   0  0  0  0  0  0  0  0  0  0  0  0
    6.1501   69.8408   64.7731 H   0  0  0  0  0  0  0  0  0  0  0  0
    3.8119   70.2455   70.0932 H   0  0  0  0  0  0  0  0  0  0  0  0
    5.0796   71.1094   69.1586 H   0  0  0  0  0  0  0  0  0  0  0  0
    3.3904   71.7205   69.1586 H   0  0  0  0  0  0  0  0  0  0  0  0
    3.4221   68.4266   61.3117 H   0  0  0  0  0  0  0  0  0  0  0  0
  2  1  2  0
  3  2  1  0
  4  3  2  0
  5  4  1  0
  6  5  2  0
  6  1  1  0
  7  1  1  0
  8  7  2  0
 10  7  1  0
 10  9  1  0
 11  4  1  0
  2 12  1  0
  3 13  1  0
  5 14  1  0
  6 15  1  0
  9 16  1  0
  9 17  1  0
  9 18  1  0
 11 19  1  0
M  END
>  <score>  (6) 
-6.188

$$$$
=
     RDKit          3D

 19 19  0  0  0  0  0  0  0  0999 V2000
    2.5850   68.5770   65.7610 C   0  0  0  0  0  0  0  0  0  0  0  0
    3.0550   69.1980   66.9300 C   0  0  0  0  0  0  0  0  0  0  0  0
    4.2990   69.8330   66.9450 C   0  0  0  0  0  0  0  0  0  0  0  0
    5.0710   69.8470   65.7880 C   0  0  0  0  0  0  0  0  0  0  0  0
    4.6230   69.2360   64.6220 C   0  0  0  0  0  0  0  0  0  0  0  0
    3.3790   68.6010   64.6050 C   0  0  0  0  0  0  0  0  0  0  0  0
    1.2530   67.9160   65.8040 C   0  0  0  0  0  0  0  0  0  0  0  0
    1.0360   66.8080   65.3400 O   0  0  0  0  0  0  0  0  0  0  0  0
   -0.9500   68.6910   65.8090 C   0  0  0  0  0  0  0  0  0  0  0  0
    0.3420   68.7110   66.4180 O   0  0  0  0  0  0  0  0  0  0  0  0
    6.2910   70.4530   65.7550 O   0  0  0  0  0  0  0  0  0  0  0  0
    2.4385   69.1841   67.8409 H   0  0  0  0  0  0  0  0  0  0  0  0
    4.6645   70.3172   67.8626 H   0  0  0  0  0  0  0  0  0  0  0  0
    5.2463   69.2527   63.7158 H   0  0  0  0  0  0  0  0  0  0  0  0
    3.0213   68.1188   63.6833 H   0  0  0  0  0  0  0  0  0  0  0  0
   -1.7237   68.6790   66.5908 H   0  0  0  0  0  0  0  0  0  0  0  0
   -1.0745   69.5873   65.1836 H   0  0  0  0  0  0  0  0  0  0  0  0
   -1.0467   67.7913   65.1836 H   0  0  0  0  0  0  0  0  0  0  0  0
    6.8227   70.4502   64.9199 H   0  0  0  0  0  0  0  0  0  0  0  0
  2  1  2  0
  3  2  1  0
  4  3  2  0
  5  4  1  0
  6  5  2  0
  6  1  1  0
  7  1  1  0
  8  7  2  0
 10  7  1  0
 10  9  1  0
 11  4  1  0
  2 12  1  0
  3 13  1  0
  5 14  1  0
  6 15  1  0
  9 16  1  0
  9 17  1  0
  9 18  1  0
 11 19  1  0
M  END
>  <score>  (7) 
-6.103

$$$$
=
     RDKit          3D

 19 19  0  0  0  0  0  0  0  0999 V2000
    3.5180   69.0970   64.8360 C   0  0  0  0  0  0  0  0  0  0  0  0
    2.9170   69.1460   66.1050 C   0  0  0  0  0  0  0  0  0  0  0  0
    3.6470   69.5700   67.2180 C   0  0  0  0  0  0  0  0  0  0  0  0
    4.9770   69.9450   67.0590 C   0  0  0  0  0  0  0  0  0  0  0  0
    5.5880   69.9010   65.8110 C   0  0  0  0  0  0  0  0  0  0  0  0
    4.8590   69.4780   64.6960 C   0  0  0  0  0  0  0  0  0  0  0  0
    2.6920   68.6370   63.6870 C   0  0  0  0  0  0  0  0  0  0  0  0
    1.4780   68.7660   63.6360 O   0  0  0  0  0  0  0  0  0  0  0  0
    3.2430   68.5830   61.4180 C   0  0  0  0  0  0  0  0  0  0  0  0
    3.4700   68.0700   62.7320 O   0  0  0  0  0  0  0  0  0  0  0  0
    5.7290   70.3640   68.1160 O   0  0  0  0  0  0  0  0  0  0  0  0
    1.8646   68.8485   66.2229 H   0  0  0  0  0  0  0  0  0  0  0  0
    3.1746   69.6070   68.2107 H   0  0  0  0  0  0  0  0  0  0  0  0
    6.6415   70.1980   65.7014 H   0  0  0  0  0  0  0  0  0  0  0  0
    5.3390   69.4442   63.7068 H   0  0  0  0  0  0  0  0  0  0  0  0
    2.7988   69.5869   61.4880 H   0  0  0  0  0  0  0  0  0  0  0  0
    4.1990   68.6420   60.8772 H   0  0  0  0  0  0  0  0  0  0  0  0
    2.5564   67.9151   60.8772 H   0  0  0  0  0  0  0  0  0  0  0  0
    6.6738   70.6259   67.9784 H   0  0  0  0  0  0  0  0  0  0  0  0
  2  1  2  0
  3  2  1  0
  4  3  2  0
  5  4  1  0
  6  5  2  0
  6  1  1  0
  7  1  1  0
  8  7  2  0
 10  7  1  0
 10  9  1  0
 11  4  1  0
  2 12  1  0
  3 13  1  0
  5 14  1  0
  6 15  1  0
  9 16  1  0
  9 17  1  0
  9 18  1  0
 11 19  1  0
M  END
>  <score>  (8) 
-6.095

$$$$
=
     RDKit          3D

 19 19  0  0  0  0  0  0  0  0999 V2000
    2.6600   68.9920   66.2600 C   0  0  0  0  0  0  0  0  0  0  0  0
    2.5860   68.7260   64.8830 C   0  0  0  0  0  0  0  0  0  0  0  0
    3.6830   68.9730   64.0530 C   0  0  0  0  0  0  0  0  0  0  0  0
    4.8530   69.4840   64.6040 C   0  0  0  0  0  0  0  0  0  0  0  0
    4.9440   69.7530   65.9660 C   0  0  0  0  0  0  0  0  0  0  0  0
    3.8480   69.5070   66.7960 C   0  0  0  0  0  0  0  0  0  0  0  0
    1.4610   68.7090   67.0940 C   0  0  0  0  0  0  0  0  0  0  0  0
    0.9450   69.5340   67.8320 O   0  0  0  0  0  0  0  0  0  0  0  0
   -0.3790   67.2780   66.9510 C   0  0  0  0  0  0  0  0  0  0  0  0
    1.0410   67.4330   66.9150 O   0  0  0  0  0  0  0  0  0  0  0  0
    5.9480   69.7410   63.8350 O   0  0  0  0  0  0  0  0  0  0  0  0
    1.6577   68.3202   64.4545 H   0  0  0  0  0  0  0  0  0  0  0  0
    3.6215   68.7652   62.9746 H   0  0  0  0  0  0  0  0  0  0  0  0
    5.8758   70.1580   66.3876 H   0  0  0  0  0  0  0  0  0  0  0  0
    3.9175   69.7181   67.8733 H   0  0  0  0  0  0  0  0  0  0  0  0
   -0.7174   67.2411   67.9970 H   0  0  0  0  0  0  0  0  0  0  0  0
   -0.8538   68.1296   66.4419 H   0  0  0  0  0  0  0  0  0  0  0  0
   -0.6589   66.3440   66.4419 H   0  0  0  0  0  0  0  0  0  0  0  0
    6.7699   70.1048   64.2499 H   0  0  0  0  0  0  0  0  0  0  0  0
  2  1  2  0
  3  2  1  0
  4  3  2  0
  5  4  1  0
  6  5  2  0
  6  1  1  0
  7  1  1  0
  8  7  2  0
 10  7  1  0
 10  9  1  0
 11  4  1  0
  2 12  1  0
  3 13  1  0
  5 14  1  0
  6 15  1  0
  9 16  1  0
  9 17  1  0
  9 18  1  0
 11 19  1  0
M  END
>  <score>  (9) 
-6.033

$$$$
