=
     RDKit          3D

 55 58  0  0  0  0  0  0  0  0999 V2000
    3.6030   60.5590   71.0260 C   0  0  1  0  0  0  0  0  0  0  0  0
    3.8510   59.0170   70.9520 C   0  0  1  0  0  0  0  0  0  0  0  0
    2.8350   58.3630   71.9120 C   0  0  0  0  0  0  0  0  0  0  0  0
    1.9190   59.5140   72.3310 C   0  0  2  0  0  0  0  0  0  0  0  0
    2.8650   60.7380   72.3890 C   0  0  1  0  0  0  0  0  0  0  0  0
    3.8840   60.6680   73.5580 C   0  0  0  0  0  0  0  0  0  0  0  0
    1.9790   61.9940   72.5170 C   0  0  0  0  0  0  0  0  0  0  0  0
    1.0030   61.9380   73.7170 C   0  0  1  0  0  0  0  0  0  0  0  0
    0.1630   60.6240   73.7690 C   0  0  1  0  0  0  0  0  0  0  0  0
    1.0550   59.3490   73.5910 C   0  0  1  0  0  0  0  0  0  0  0  0
    0.1900   58.0790   73.4900 C   0  0  0  0  0  0  0  0  0  0  0  0
   -0.7610   57.9290   74.6730 C   0  0  0  0  0  0  0  0  0  0  0  0
   -1.5990   59.1690   74.8390 C   0  0  0  0  0  0  0  0  0  0  0  0
   -2.9420   59.0930   74.7930 C   0  0  0  0  0  0  0  0  0  0  0  0
   -3.7960   60.2940   74.8910 C   0  0  0  0  0  0  0  0  0  0  0  0
   -5.0170   60.2100   74.8710 O   0  0  0  0  0  0  0  0  0  0  0  0
   -3.1180   61.5970   75.0170 C   0  0  0  0  0  0  0  0  0  0  0  0
   -1.7810   61.6780   75.0660 C   0  0  0  0  0  0  0  0  0  0  0  0
   -0.8230   60.4890   75.0020 C   0  0  2  0  0  0  0  0  0  0  0  0
   -0.1090   60.4480   76.3730 C   0  0  0  0  0  0  0  0  0  0  0  0
   -0.6400   60.6760   72.6380 F   0  0  0  0  0  0  0  0  0  0  0  0
    4.9170   61.3440   70.9020 C   0  0  0  0  0  0  0  0  0  0  0  0
    6.0280   60.8120   71.0070 O   0  0  0  0  0  0  0  0  0  0  0  0
    4.8100   62.8440   70.6610 C   0  0  0  0  0  0  0  0  0  0  0  0
    4.2230   63.1220   69.3950 O   0  0  0  0  0  0  0  0  0  0  0  0
    2.7370   60.9210   69.9390 O   0  0  0  0  0  0  0  0  0  0  0  0
    3.6210   58.5730   69.6080 O   0  0  0  0  0  0  0  0  0  0  0  0
    1.7280   62.1700   74.9210 O   0  0  0  0  0  0  0  0  0  0  0  0
    4.8803   58.7508   71.2341 H   0  0  0  0  0  0  0  0  0  0  0  0
    2.2629   57.5767   71.3978 H   0  0  0  0  0  0  0  0  0  0  0  0
    3.3202   57.8769   72.7712 H   0  0  0  0  0  0  0  0  0  0  0  0
    1.1043   59.6011   71.5971 H   0  0  0  0  0  0  0  0  0  0  0  0
    3.3455   60.7050   74.5165 H   0  0  0  0  0  0  0  0  0  0  0  0
    4.4527   59.7287   73.4929 H   0  0  0  0  0  0  0  0  0  0  0  0
    4.5758   61.5207   73.4929 H   0  0  0  0  0  0  0  0  0  0  0  0
    2.6322   62.8705   72.6394 H   0  0  0  0  0  0  0  0  0  0  0  0
    1.3682   62.0550   71.6042 H   0  0  0  0  0  0  0  0  0  0  0  0
    0.2569   62.7360   73.5888 H   0  0  0  0  0  0  0  0  0  0  0  0
    1.7044   59.2386   74.4720 H   0  0  0  0  0  0  0  0  0  0  0  0
   -0.4022   58.1274   72.5643 H   0  0  0  0  0  0  0  0  0  0  0  0
    0.8660   57.2113   73.4904 H   0  0  0  0  0  0  0  0  0  0  0  0
   -1.4215   57.0668   74.4990 H   0  0  0  0  0  0  0  0  0  0  0  0
   -0.1688   57.7758   75.5872 H   0  0  0  0  0  0  0  0  0  0  0  0
   -3.4174   58.1076   74.6791 H   0  0  0  0  0  0  0  0  0  0  0  0
   -3.7186   62.5169   75.0716 H   0  0  0  0  0  0  0  0  0  0  0  0
   -1.3379   62.6804   75.1598 H   0  0  0  0  0  0  0  0  0  0  0  0
   -0.8577   60.4910   77.1777 H   0  0  0  0  0  0  0  0  0  0  0  0
    0.4678   59.5153   76.4583 H   0  0  0  0  0  0  0  0  0  0  0  0
    0.5708   61.3086   76.4583 H   0  0  0  0  0  0  0  0  0  0  0  0
    4.1879   63.2906   71.4506 H   0  0  0  0  0  0  0  0  0  0  0  0
    5.8232   63.2720   70.6763 H   0  0  0  0  0  0  0  0  0  0  0  0
    3.3363   63.5419   69.5274 H   0  0  0  0  0  0  0  0  0  0  0  0
    1.8862   61.2766   70.2993 H   0  0  0  0  0  0  0  0  0  0  0  0
    3.1657   57.6941   69.6242 H   0  0  0  0  0  0  0  0  0  0  0  0
    1.1446   61.9833   75.6987 H   0  0  0  0  0  0  0  0  0  0  0  0
  2  1  1  0
  3  2  1  0
  4  3  1  0
  5  4  1  0
  5  1  1  0
  5  6  1  1
  7  5  1  0
  8  7  1  0
  9  8  1  0
 10  4  1  0
 10  9  1  0
 11 10  1  0
 12 11  1  0
 13 12  1  0
 14 13  2  0
 15 14  1  0
 16 15  2  0
 17 15  1  0
 18 17  2  0
 19 13  1  0
 19 18  1  0
 19  9  1  0
 19 20  1  1
  9 21  1  6
 22  1  1  0
 23 22  2  0
 24 22  1  0
 25 24  1  0
  1 26  1  6
 27  2  1  0
 28  8  1  0
  2 29  1  1
  3 30  1  0
  3 31  1  0
  4 32  1  6
  6 33  1  0
  6 34  1  0
  6 35  1  0
  7 36  1  0
  7 37  1  0
  8 38  1  6
 10 39  1  1
 11 40  1  0
 11 41  1  0
 12 42  1  0
 12 43  1  0
 14 44  1  0
 17 45  1  0
 18 46  1  0
 20 47  1  0
 20 48  1  0
 20 49  1  0
 24 50  1  0
 24 51  1  0
 25 52  1  0
 26 53  1  0
 27 54  1  0
 28 55  1  0
M  END
>  <score>  (1) 
-8.641

$$$$
=
     RDKit          3D

 55 58  0  0  0  0  0  0  0  0999 V2000
    0.6380   56.4010   74.9360 C   0  0  1  0  0  0  0  0  0  0  0  0
    0.1580   57.0370   76.2830 C   0  0  1  0  0  0  0  0  0  0  0  0
    0.4630   58.5460   76.1880 C   0  0  0  0  0  0  0  0  0  0  0  0
    0.9010   58.7510   74.7370 C   0  0  2  0  0  0  0  0  0  0  0  0
    1.6590   57.4470   74.3910 C   0  0  1  0  0  0  0  0  0  0  0  0
    3.0120   57.3090   75.1410 C   0  0  0  0  0  0  0  0  0  0  0  0
    1.8840   57.4390   72.8650 C   0  0  0  0  0  0  0  0  0  0  0  0
    2.6060   58.7040   72.3440 C   0  0  1  0  0  0  0  0  0  0  0  0
    1.9520   60.0350   72.8310 C   0  0  1  0  0  0  0  0  0  0  0  0
    1.6800   60.0250   74.3730 C   0  0  1  0  0  0  0  0  0  0  0  0
    0.8950   61.2790   74.8040 C   0  0  0  0  0  0  0  0  0  0  0  0
    1.5820   62.5700   74.3710 C   0  0  0  0  0  0  0  0  0  0  0  0
    1.8500   62.5560   72.8890 C   0  0  0  0  0  0  0  0  0  0  0  0
    1.3390   63.5160   72.0970 C   0  0  0  0  0  0  0  0  0  0  0  0
    1.5290   63.5030   70.6320 C   0  0  0  0  0  0  0  0  0  0  0  0
    1.0800   64.3940   69.9240 O   0  0  0  0  0  0  0  0  0  0  0  0
    2.2850   62.3740   70.0580 C   0  0  0  0  0  0  0  0  0  0  0  0
    2.7970   61.4160   70.8430 C   0  0  0  0  0  0  0  0  0  0  0  0
    2.6760   61.3650   72.3660 C   0  0  2  0  0  0  0  0  0  0  0  0
    4.1160   61.5180   72.9100 C   0  0  0  0  0  0  0  0  0  0  0  0
    0.6990   60.0490   72.2330 F   0  0  0  0  0  0  0  0  0  0  0  0
    1.2160   54.9950   75.1560 C   0  0  0  0  0  0  0  0  0  0  0  0
    1.5810   54.5860   76.2630 O   0  0  0  0  0  0  0  0  0  0  0  0
    1.3490   54.1000   73.9300 C   0  0  0  0  0  0  0  0  0  0  0  0
    2.6800   54.1080   73.4280 O   0  0  0  0  0  0  0  0  0  0  0  0
   -0.4970   56.3100   74.0610 O   0  0  0  0  0  0  0  0  0  0  0  0
   -1.2520   56.8220   76.4220 O   0  0  0  0  0  0  0  0  0  0  0  0
    3.9890   58.6230   72.6760 O   0  0  0  0  0  0  0  0  0  0  0  0
    0.6634   56.5923   77.1529 H   0  0  0  0  0  0  0  0  0  0  0  0
   -0.4353   59.1402   76.4118 H   0  0  0  0  0  0  0  0  0  0  0  0
    1.2301   58.8664   76.9084 H   0  0  0  0  0  0  0  0  0  0  0  0
    0.0076   58.9369   74.1228 H   0  0  0  0  0  0  0  0  0  0  0  0
    2.8332   57.3272   76.2262 H   0  0  0  0  0  0  0  0  0  0  0  0
    3.4894   56.3575   74.8640 H   0  0  0  0  0  0  0  0  0  0  0  0
    3.6717   58.1445   74.8640 H   0  0  0  0  0  0  0  0  0  0  0  0
    2.4918   56.5593   72.6067 H   0  0  0  0  0  0  0  0  0  0  0  0
    0.8919   57.4126   72.3905 H   0  0  0  0  0  0  0  0  0  0  0  0
    2.5004   58.7312   71.2494 H   0  0  0  0  0  0  0  0  0  0  0  0
    2.6414   60.0349   74.9073 H   0  0  0  0  0  0  0  0  0  0  0  0
   -0.1066   61.2423   74.3508 H   0  0  0  0  0  0  0  0  0  0  0  0
    0.8395   61.2798   75.9026 H   0  0  0  0  0  0  0  0  0  0  0  0
    0.9323   63.4240   74.6129 H   0  0  0  0  0  0  0  0  0  0  0  0
    2.5402   62.6581   74.9040 H   0  0  0  0  0  0  0  0  0  0  0  0
    0.7630   64.3344   72.5535 H   0  0  0  0  0  0  0  0  0  0  0  0
    2.4308   62.3175   68.9692 H   0  0  0  0  0  0  0  0  0  0  0  0
    3.3487   60.6009   70.3519 H   0  0  0  0  0  0  0  0  0  0  0  0
    4.0947   61.5157   74.0098 H   0  0  0  0  0  0  0  0  0  0  0  0
    4.7336   60.6804   72.5535 H   0  0  0  0  0  0  0  0  0  0  0  0
    4.5438   62.4667   72.5535 H   0  0  0  0  0  0  0  0  0  0  0  0
    1.0760   53.0708   74.2060 H   0  0  0  0  0  0  0  0  0  0  0  0
    0.6791   54.4824   73.1458 H   0  0  0  0  0  0  0  0  0  0  0  0
    3.3181   54.1118   74.1849 H   0  0  0  0  0  0  0  0  0  0  0  0
   -1.3247   56.2436   74.6000 H   0  0  0  0  0  0  0  0  0  0  0  0
   -1.4872   56.7861   77.3830 H   0  0  0  0  0  0  0  0  0  0  0  0
    4.0922   58.6170   73.6606 H   0  0  0  0  0  0  0  0  0  0  0  0
  2  1  1  0
  3  2  1  0
  4  3  1  0
  5  4  1  0
  5  1  1  0
  5  6  1  1
  7  5  1  0
  8  7  1  0
  9  8  1  0
 10  4  1  0
 10  9  1  0
 11 10  1  0
 12 11  1  0
 13 12  1  0
 14 13  2  0
 15 14  1  0
 16 15  2  0
 17 15  1  0
 18 17  2  0
 19 13  1  0
 19 18  1  0
 19  9  1  0
 19 20  1  1
  9 21  1  6
 22  1  1  0
 23 22  2  0
 24 22  1  0
 25 24  1  0
  1 26  1  6
 27  2  1  0
 28  8  1  0
  2 29  1  1
  3 30  1  0
  3 31  1  0
  4 32  1  6
  6 33  1  0
  6 34  1  0
  6 35  1  0
  7 36  1  0
  7 37  1  0
  8 38  1  6
 10 39  1  1
 11 40  1  0
 11 41  1  0
 12 42  1  0
 12 43  1  0
 14 44  1  0
 17 45  1  0
 18 46  1  0
 20 47  1  0
 20 48  1  0
 20 49  1  0
 24 50  1  0
 24 51  1  0
 25 52  1  0
 26 53  1  0
 27 54  1  0
 28 55  1  0
M  END
>  <score>  (2) 
-8.16

$$$$
=
     RDKit          3D

 55 58  0  0  0  0  0  0  0  0999 V2000
    1.2940   56.4390   74.2900 C   0  0  1  0  0  0  0  0  0  0  0  0
   -0.2600   56.3260   74.4270 C   0  0  1  0  0  0  0  0  0  0  0  0
   -0.8260   57.7400   74.1840 C   0  0  0  0  0  0  0  0  0  0  0  0
    0.3820   58.5530   73.7140 C   0  0  2  0  0  0  0  0  0  0  0  0
    1.5630   57.9580   74.5180 C   0  0  1  0  0  0  0  0  0  0  0  0
    1.4980   58.2880   76.0340 C   0  0  0  0  0  0  0  0  0  0  0  0
    2.8630   58.5140   73.9000 C   0  0  0  0  0  0  0  0  0  0  0  0
    2.9020   60.0600   73.8380 C   0  0  1  0  0  0  0  0  0  0  0  0
    1.6300   60.6840   73.1830 C   0  0  1  0  0  0  0  0  0  0  0  0
    0.3100   60.0870   73.7770 C   0  0  1  0  0  0  0  0  0  0  0  0
   -0.9230   60.6010   73.0110 C   0  0  0  0  0  0  0  0  0  0  0  0
   -0.9800   62.1240   72.9590 C   0  0  0  0  0  0  0  0  0  0  0  0
    0.3030   62.6830   72.4000 C   0  0  0  0  0  0  0  0  0  0  0  0
    0.2860   63.4530   71.2970 C   0  0  0  0  0  0  0  0  0  0  0  0
    1.5270   63.9700   70.6850 C   0  0  0  0  0  0  0  0  0  0  0  0
    1.4970   64.6890   69.6960 O   0  0  0  0  0  0  0  0  0  0  0  0
    2.8030   63.5850   71.3170 C   0  0  0  0  0  0  0  0  0  0  0  0
    2.8260   62.8190   72.4160 C   0  0  0  0  0  0  0  0  0  0  0  0
    1.5930   62.2680   73.1330 C   0  0  2  0  0  0  0  0  0  0  0  0
    1.5780   62.9390   74.5260 C   0  0  0  0  0  0  0  0  0  0  0  0
    1.6710   60.2580   71.8630 F   0  0  0  0  0  0  0  0  0  0  0  0
    2.0130   55.5060   75.2750 C   0  0  0  0  0  0  0  0  0  0  0  0
    3.2350   55.3250   75.2570 O   0  0  0  0  0  0  0  0  0  0  0  0
    1.1480   54.7720   76.2930 C   0  0  0  0  0  0  0  0  0  0  0  0
    1.9380   54.2350   77.3480 O   0  0  0  0  0  0  0  0  0  0  0  0
    1.6480   56.0660   72.9490 O   0  0  0  0  0  0  0  0  0  0  0  0
   -0.7500   55.4160   73.4330 O   0  0  0  0  0  0  0  0  0  0  0  0
    3.1520   60.5740   75.1420 O   0  0  0  0  0  0  0  0  0  0  0  0
   -0.5605   55.9521   75.4169 H   0  0  0  0  0  0  0  0  0  0  0  0
   -1.6074   57.7196   73.4100 H   0  0  0  0  0  0  0  0  0  0  0  0
   -1.2960   58.1656   75.0829 H   0  0  0  0  0  0  0  0  0  0  0  0
    0.4741   58.4495   72.6228 H   0  0  0  0  0  0  0  0  0  0  0  0
    1.6783   57.3725   76.6166 H   0  0  0  0  0  0  0  0  0  0  0  0
    2.2660   59.0362   76.2797 H   0  0  0  0  0  0  0  0  0  0  0  0
    0.5036   58.6890   76.2797 H   0  0  0  0  0  0  0  0  0  0  0  0
    3.7131   58.1678   74.5062 H   0  0  0  0  0  0  0  0  0  0  0  0
    2.9135   58.1461   72.8646 H   0  0  0  0  0  0  0  0  0  0  0  0
    3.7266   60.3554   73.1725 H   0  0  0  0  0  0  0  0  0  0  0  0
    0.2083   60.4097   74.8237 H   0  0  0  0  0  0  0  0  0  0  0  0
   -0.8870   60.2132   71.9822 H   0  0  0  0  0  0  0  0  0  0  0  0
   -1.8195   60.2491   73.5425 H   0  0  0  0  0  0  0  0  0  0  0  0
   -1.8188   62.4329   72.3179 H   0  0  0  0  0  0  0  0  0  0  0  0
   -1.1201   62.5091   73.9798 H   0  0  0  0  0  0  0  0  0  0  0  0
   -0.6809   63.7051   70.8371 H   0  0  0  0  0  0  0  0  0  0  0  0
    3.7505   63.9322   70.8792 H   0  0  0  0  0  0  0  0  0  0  0  0
    3.8107   62.5663   72.8361 H   0  0  0  0  0  0  0  0  0  0  0  0
    1.5953   62.1640   75.3065 H   0  0  0  0  0  0  0  0  0  0  0  0
    2.4619   63.5852   74.6312 H   0  0  0  0  0  0  0  0  0  0  0  0
    0.6661   63.5451   74.6312 H   0  0  0  0  0  0  0  0  0  0  0  0
    0.4158   55.4759   76.7155 H   0  0  0  0  0  0  0  0  0  0  0  0
    0.6381   53.9417   75.7825 H   0  0  0  0  0  0  0  0  0  0  0  0
    1.5490   54.4995   78.2191 H   0  0  0  0  0  0  0  0  0  0  0  0
    2.3293   55.3482   72.9751 H   0  0  0  0  0  0  0  0  0  0  0  0
   -1.1695   54.6369   73.8770 H   0  0  0  0  0  0  0  0  0  0  0  0
    2.8360   59.9244   75.8189 H   0  0  0  0  0  0  0  0  0  0  0  0
  2  1  1  0
  3  2  1  0
  4  3  1  0
  5  4  1  0
  5  1  1  0
  5  6  1  1
  7  5  1  0
  8  7  1  0
  9  8  1  0
 10  4  1  0
 10  9  1  0
 11 10  1  0
 12 11  1  0
 13 12  1  0
 14 13  2  0
 15 14  1  0
 16 15  2  0
 17 15  1  0
 18 17  2  0
 19 13  1  0
 19 18  1  0
 19  9  1  0
 19 20  1  1
  9 21  1  6
 22  1  1  0
 23 22  2  0
 24 22  1  0
 25 24  1  0
  1 26  1  6
 27  2  1  0
 28  8  1  0
  2 29  1  1
  3 30  1  0
  3 31  1  0
  4 32  1  6
  6 33  1  0
  6 34  1  0
  6 35  1  0
  7 36  1  0
  7 37  1  0
  8 38  1  6
 10 39  1  1
 11 40  1  0
 11 41  1  0
 12 42  1  0
 12 43  1  0
 14 44  1  0
 17 45  1  0
 18 46  1  0
 20 47  1  0
 20 48  1  0
 20 49  1  0
 24 50  1  0
 24 51  1  0
 25 52  1  0
 26 53  1  0
 27 54  1  0
 28 55  1  0
M  END
>  <score>  (3) 
-7.769

$$$$
=
     RDKit          3D

 55 58  0  0  0  0  0  0  0  0999 V2000
    0.9190   63.9350   71.0780 C   0  0  1  0  0  0  0  0  0  0  0  0
    2.4630   64.0060   70.8390 C   0  0  1  0  0  0  0  0  0  0  0  0
    3.0800   62.8100   71.5930 C   0  0  0  0  0  0  0  0  0  0  0  0
    1.8710   61.9910   72.0500 C   0  0  2  0  0  0  0  0  0  0  0  0
    0.7970   63.0600   72.3640 C   0  0  1  0  0  0  0  0  0  0  0  0
    1.1290   63.9110   73.6190 C   0  0  0  0  0  0  0  0  0  0  0  0
   -0.5430   62.3190   72.5510 C   0  0  0  0  0  0  0  0  0  0  0  0
   -0.4840   61.2030   73.6210 C   0  0  1  0  0  0  0  0  0  0  0  0
    0.7060   60.2130   73.4160 C   0  0  1  0  0  0  0  0  0  0  0  0
    2.0590   60.9640   73.1780 C   0  0  1  0  0  0  0  0  0  0  0  0
    3.1850   59.9740   72.8250 C   0  0  0  0  0  0  0  0  0  0  0  0
    3.3390   58.8740   73.8690 C   0  0  0  0  0  0  0  0  0  0  0  0
    2.0250   58.1730   74.0970 C   0  0  0  0  0  0  0  0  0  0  0  0
    1.9180   56.8470   73.8960 C   0  0  0  0  0  0  0  0  0  0  0  0
    0.6330   56.1350   74.0500 C   0  0  0  0  0  0  0  0  0  0  0  0
    0.5520   54.9250   73.8870 O   0  0  0  0  0  0  0  0  0  0  0  0
   -0.5480   56.9410   74.4110 C   0  0  0  0  0  0  0  0  0  0  0  0
   -0.4460   58.2620   74.6150 C   0  0  0  0  0  0  0  0  0  0  0  0
    0.8450   59.0740   74.5080 C   0  0  2  0  0  0  0  0  0  0  0  0
    1.1310   59.6020   75.9330 C   0  0  0  0  0  0  0  0  0  0  0  0
    0.4230   59.5680   72.2200 F   0  0  0  0  0  0  0  0  0  0  0  0
    0.3060   65.3380   71.1980 C   0  0  0  0  0  0  0  0  0  0  0  0
   -0.3870   65.6860   72.1590 O   0  0  0  0  0  0  0  0  0  0  0  0
    0.5680   66.3100   70.0540 C   0  0  0  0  0  0  0  0  0  0  0  0
   -0.3060   66.0630   68.9580 O   0  0  0  0  0  0  0  0  0  0  0  0
    0.3280   63.2600   69.9570 O   0  0  0  0  0  0  0  0  0  0  0  0
    2.7220   63.8950   69.4330 O   0  0  0  0  0  0  0  0  0  0  0  0
   -0.4840   61.7950   74.9160 O   0  0  0  0  0  0  0  0  0  0  0  0
    2.8920   64.9537   71.1966 H   0  0  0  0  0  0  0  0  0  0  0  0
    3.7229   62.2175   70.9254 H   0  0  0  0  0  0  0  0  0  0  0  0
    3.7178   63.1244   72.4323 H   0  0  0  0  0  0  0  0  0  0  0  0
    1.5965   61.2899   71.2480 H   0  0  0  0  0  0  0  0  0  0  0  0
    0.9027   63.3309   74.5258 H   0  0  0  0  0  0  0  0  0  0  0  0
    2.1965   64.1762   73.6103 H   0  0  0  0  0  0  0  0  0  0  0  0
    0.5231   64.8290   73.6103 H   0  0  0  0  0  0  0  0  0  0  0  0
   -1.3070   63.0508   72.8522 H   0  0  0  0  0  0  0  0  0  0  0  0
   -0.7841   61.8370   71.5921 H   0  0  0  0  0  0  0  0  0  0  0  0
   -1.3830   60.5783   73.5134 H   0  0  0  0  0  0  0  0  0  0  0  0
    2.3505   61.4823   74.1034 H   0  0  0  0  0  0  0  0  0  0  0  0
    2.9563   59.5103   71.8541 H   0  0  0  0  0  0  0  0  0  0  0  0
    4.1289   60.5378   72.7896 H   0  0  0  0  0  0  0  0  0  0  0  0
    4.0825   58.1434   73.5177 H   0  0  0  0  0  0  0  0  0  0  0  0
    3.6689   59.3267   74.8157 H   0  0  0  0  0  0  0  0  0  0  0  0
    2.8135   56.2765   73.6086 H   0  0  0  0  0  0  0  0  0  0  0  0
   -1.5273   56.4509   74.5144 H   0  0  0  0  0  0  0  0  0  0  0  0
   -1.3648   58.8053   74.8807 H   0  0  0  0  0  0  0  0  0  0  0  0
    0.7436   58.8869   76.6736 H   0  0  0  0  0  0  0  0  0  0  0  0
    2.2161   59.7196   76.0695 H   0  0  0  0  0  0  0  0  0  0  0  0
    0.6367   60.5751   76.0695 H   0  0  0  0  0  0  0  0  0  0  0  0
    0.4111   67.3377   70.4134 H   0  0  0  0  0  0  0  0  0  0  0  0
    1.6041   66.1728   69.7109 H   0  0  0  0  0  0  0  0  0  0  0  0
   -1.2002   65.8103   69.2995 H   0  0  0  0  0  0  0  0  0  0  0  0
   -0.2879   62.5566   70.2826 H   0  0  0  0  0  0  0  0  0  0  0  0
    3.6228   63.5089   69.2929 H   0  0  0  0  0  0  0  0  0  0  0  0
    0.4494   61.9322   75.2161 H   0  0  0  0  0  0  0  0  0  0  0  0
  2  1  1  0
  3  2  1  0
  4  3  1  0
  5  4  1  0
  5  1  1  0
  5  6  1  1
  7  5  1  0
  8  7  1  0
  9  8  1  0
 10  4  1  0
 10  9  1  0
 11 10  1  0
 12 11  1  0
 13 12  1  0
 14 13  2  0
 15 14  1  0
 16 15  2  0
 17 15  1  0
 18 17  2  0
 19 13  1  0
 19 18  1  0
 19  9  1  0
 19 20  1  1
  9 21  1  6
 22  1  1  0
 23 22  2  0
 24 22  1  0
 25 24  1  0
  1 26  1  6
 27  2  1  0
 28  8  1  0
  2 29  1  1
  3 30  1  0
  3 31  1  0
  4 32  1  6
  6 33  1  0
  6 34  1  0
  6 35  1  0
  7 36  1  0
  7 37  1  0
  8 38  1  1
 10 39  1  1
 11 40  1  0
 11 41  1  0
 12 42  1  0
 12 43  1  0
 14 44  1  0
 17 45  1  0
 18 46  1  0
 20 47  1  0
 20 48  1  0
 20 49  1  0
 24 50  1  0
 24 51  1  0
 25 52  1  0
 26 53  1  0
 27 54  1  0
 28 55  1  0
M  END
>  <score>  (4) 
-7.505

$$$$
=
     RDKit          3D

 55 58  0  0  0  0  0  0  0  0999 V2000
   -0.5460   54.8900   75.1690 C   0  0  1  0  0  0  0  0  0  0  0  0
   -1.8440   55.6750   75.5490 C   0  0  1  0  0  0  0  0  0  0  0  0
   -1.5850   57.1520   75.1910 C   0  0  0  0  0  0  0  0  0  0  0  0
   -0.2550   57.1280   74.4350 C   0  0  2  0  0  0  0  0  0  0  0  0
    0.5470   56.0030   75.1330 C   0  0  1  0  0  0  0  0  0  0  0  0
    0.9810   56.3670   76.5790 C   0  0  0  0  0  0  0  0  0  0  0  0
    1.7810   55.7090   74.2550 C   0  0  0  0  0  0  0  0  0  0  0  0
    2.6420   56.9620   73.9670 C   0  0  1  0  0  0  0  0  0  0  0  0
    1.8130   58.1690   73.4240 C   0  0  1  0  0  0  0  0  0  0  0  0
    0.5340   58.4390   74.2860 C   0  0  1  0  0  0  0  0  0  0  0  0
   -0.3450   59.5280   73.6450 C   0  0  0  0  0  0  0  0  0  0  0  0
    0.4270   60.8170   73.3830 C   0  0  0  0  0  0  0  0  0  0  0  0
    1.6610   60.5370   72.5660 C   0  0  0  0  0  0  0  0  0  0  0  0
    1.8420   61.1430   71.3790 C   0  0  0  0  0  0  0  0  0  0  0  0
    3.0090   60.8500   70.5220 C   0  0  0  0  0  0  0  0  0  0  0  0
    3.1750   61.4250   69.4540 O   0  0  0  0  0  0  0  0  0  0  0  0
    3.9670   59.8390   71.0060 C   0  0  0  0  0  0  0  0  0  0  0  0
    3.7920   59.2330   72.1890 C   0  0  0  0  0  0  0  0  0  0  0  0
    2.6340   59.4960   73.1520 C   0  0  2  0  0  0  0  0  0  0  0  0
    3.2710   60.1110   74.4210 C   0  0  0  0  0  0  0  0  0  0  0  0
    1.3450   57.7450   72.1870 F   0  0  0  0  0  0  0  0  0  0  0  0
   -0.2690   53.7510   76.1610 C   0  0  0  0  0  0  0  0  0  0  0  0
   -0.9680   53.5470   77.1590 O   0  0  0  0  0  0  0  0  0  0  0  0
    0.9410   52.8670   75.8830 C   0  0  0  0  0  0  0  0  0  0  0  0
    0.7580   52.1010   74.6980 O   0  0  0  0  0  0  0  0  0  0  0  0
   -0.7340   54.3340   73.8580 O   0  0  0  0  0  0  0  0  0  0  0  0
   -2.9400   55.1620   74.7800 O   0  0  0  0  0  0  0  0  0  0  0  0
    3.3900   57.2950   75.1320 O   0  0  0  0  0  0  0  0  0  0  0  0
   -2.0904   55.5713   76.6160 H   0  0  0  0  0  0  0  0  0  0  0  0
   -2.3896   57.5454   74.5523 H   0  0  0  0  0  0  0  0  0  0  0  0
   -1.5532   57.8011   76.0785 H   0  0  0  0  0  0  0  0  0  0  0  0
   -0.4588   56.9499   73.3688 H   0  0  0  0  0  0  0  0  0  0  0  0
    0.3436   55.8324   77.2987 H   0  0  0  0  0  0  0  0  0  0  0  0
    2.0306   56.0751   76.7313 H   0  0  0  0  0  0  0  0  0  0  0  0
    0.8762   57.4514   76.7313 H   0  0  0  0  0  0  0  0  0  0  0  0
    2.4074   54.9665   74.7711 H   0  0  0  0  0  0  0  0  0  0  0  0
    1.4108   55.3396   73.2873 H   0  0  0  0  0  0  0  0  0  0  0  0
    3.3394   56.7176   73.1522 H   0  0  0  0  0  0  0  0  0  0  0  0
    0.8391   58.8015   75.2787 H   0  0  0  0  0  0  0  0  0  0  0  0
   -0.7358   59.1495   72.6890 H   0  0  0  0  0  0  0  0  0  0  0  0
   -1.1581   59.7605   74.3484 H   0  0  0  0  0  0  0  0  0  0  0  0
   -0.2178   61.5200   72.8352 H   0  0  0  0  0  0  0  0  0  0  0  0
    0.7300   61.2520   74.3468 H   0  0  0  0  0  0  0  0  0  0  0  0
    1.0992   61.8784   71.0363 H   0  0  0  0  0  0  0  0  0  0  0  0
    4.8382   59.5781   70.3872 H   0  0  0  0  0  0  0  0  0  0  0  0
    4.5416   58.4868   72.4910 H   0  0  0  0  0  0  0  0  0  0  0  0
    2.8101   59.6660   75.3151 H   0  0  0  0  0  0  0  0  0  0  0  0
    4.3517   59.9060   74.4250 H   0  0  0  0  0  0  0  0  0  0  0  0
    3.1041   61.1983   74.4250 H   0  0  0  0  0  0  0  0  0  0  0  0
    1.8305   53.5033   75.7650 H   0  0  0  0  0  0  0  0  0  0  0  0
    1.0681   52.1750   76.7286 H   0  0  0  0  0  0  0  0  0  0  0  0
    0.5349   51.1673   74.9398 H   0  0  0  0  0  0  0  0  0  0  0  0
   -1.0501   53.3992   73.9382 H   0  0  0  0  0  0  0  0  0  0  0  0
   -3.6457   54.8317   75.3908 H   0  0  0  0  0  0  0  0  0  0  0  0
    2.8657   57.0616   75.9387 H   0  0  0  0  0  0  0  0  0  0  0  0
  2  1  1  0
  3  2  1  0
  4  3  1  0
  5  4  1  0
  5  1  1  0
  5  6  1  1
  7  5  1  0
  8  7  1  0
  9  8  1  0
 10  4  1  0
 10  9  1  0
 11 10  1  0
 12 11  1  0
 13 12  1  0
 14 13  2  0
 15 14  1  0
 16 15  2  0
 17 15  1  0
 18 17  2  0
 19 13  1  0
 19 18  1  0
 19  9  1  0
 19 20  1  1
  9 21  1  6
 22  1  1  0
 23 22  2  0
 24 22  1  0
 25 24  1  0
  1 26  1  6
 27  2  1  0
 28  8  1  0
  2 29  1  1
  3 30  1  0
  3 31  1  0
  4 32  1  6
  6 33  1  0
  6 34  1  0
  6 35  1  0
  7 36  1  0
  7 37  1  0
  8 38  1  6
 10 39  1  1
 11 40  1  0
 11 41  1  0
 12 42  1  0
 12 43  1  0
 14 44  1  0
 17 45  1  0
 18 46  1  0
 20 47  1  0
 20 48  1  0
 20 49  1  0
 24 50  1  0
 24 51  1  0
 25 52  1  0
 26 53  1  0
 27 54  1  0
 28 55  1  0
M  END
>  <score>  (5) 
-7.456

$$$$
=
     RDKit          3D

 55 58  0  0  0  0  0  0  0  0999 V2000
    2.0700   62.4780   72.5410 C   0  0  1  0  0  0  0  0  0  0  0  0
    0.5870   62.6720   72.0850 C   0  0  1  0  0  0  0  0  0  0  0  0
   -0.1610   61.3770   72.4650 C   0  0  0  0  0  0  0  0  0  0  0  0
    0.8510   60.5900   73.3000 C   0  0  2  0  0  0  0  0  0  0  0  0
    2.2120   60.9290   72.6470 C   0  0  1  0  0  0  0  0  0  0  0  0
    2.3830   60.3130   71.2320 C   0  0  0  0  0  0  0  0  0  0  0  0
    3.3140   60.4150   73.5970 C   0  0  0  0  0  0  0  0  0  0  0  0
    3.1770   58.9130   73.9420 C   0  0  1  0  0  0  0  0  0  0  0  0
    1.7490   58.5220   74.4390 C   0  0  1  0  0  0  0  0  0  0  0  0
    0.6270   59.0830   73.5020 C   0  0  1  0  0  0  0  0  0  0  0  0
   -0.7700   58.8180   74.0930 C   0  0  0  0  0  0  0  0  0  0  0  0
   -0.9970   57.3430   74.4070 C   0  0  0  0  0  0  0  0  0  0  0  0
    0.0990   56.8160   75.2960 C   0  0  0  0  0  0  0  0  0  0  0  0
   -0.1960   56.2810   76.4940 C   0  0  0  0  0  0  0  0  0  0  0  0
    0.8540   55.8090   77.4190 C   0  0  0  0  0  0  0  0  0  0  0  0
    0.5730   55.3030   78.4970 O   0  0  0  0  0  0  0  0  0  0  0  0
    2.2560   55.9700   76.9890 C   0  0  0  0  0  0  0  0  0  0  0  0
    2.5550   56.5010   75.7960 C   0  0  0  0  0  0  0  0  0  0  0  0
    1.5350   56.9860   74.7650 C   0  0  2  0  0  0  0  0  0  0  0  0
    1.6970   56.0560   73.5400 C   0  0  0  0  0  0  0  0  0  0  0  0
    1.6000   59.1960   75.6430 F   0  0  0  0  0  0  0  0  0  0  0  0
    3.0480   63.1460   71.5620 C   0  0  0  0  0  0  0  0  0  0  0  0
    4.2740   63.0170   71.6480 O   0  0  0  0  0  0  0  0  0  0  0  0
    2.4470   64.0130   70.4630 C   0  0  0  0  0  0  0  0  0  0  0  0
    2.7280   63.4800   69.1740 O   0  0  0  0  0  0  0  0  0  0  0  0
    2.2180   63.0830   73.8360 O   0  0  0  0  0  0  0  0  0  0  0  0
    0.0280   63.7920   72.7850 O   0  0  0  0  0  0  0  0  0  0  0  0
    3.5980   58.1350   72.8260 O   0  0  0  0  0  0  0  0  0  0  0  0
    0.5092   62.8641   71.0047 H   0  0  0  0  0  0  0  0  0  0  0  0
   -1.0606   61.6051   73.0555 H   0  0  0  0  0  0  0  0  0  0  0  0
   -0.5069   60.8164   71.5841 H   0  0  0  0  0  0  0  0  0  0  0  0
    0.7599   60.9005   74.3513 H   0  0  0  0  0  0  0  0  0  0  0  0
    2.6762   59.2569   71.3249 H   0  0  0  0  0  0  0  0  0  0  0  0
    1.4316   60.3826   70.6844 H   0  0  0  0  0  0  0  0  0  0  0  0
    3.1624   60.8631   70.6844 H   0  0  0  0  0  0  0  0  0  0  0  0
    4.2906   60.5747   73.1167 H   0  0  0  0  0  0  0  0  0  0  0  0
    3.2173   60.9745   74.5391 H   0  0  0  0  0  0  0  0  0  0  0  0
    3.8351   58.6969   74.7965 H   0  0  0  0  0  0  0  0  0  0  0  0
    0.6783   58.5691   72.5308 H   0  0  0  0  0  0  0  0  0  0  0  0
   -0.8766   59.3976   75.0218 H   0  0  0  0  0  0  0  0  0  0  0  0
   -1.5151   59.1201   73.3423 H   0  0  0  0  0  0  0  0  0  0  0  0
   -1.9643   57.2267   74.9178 H   0  0  0  0  0  0  0  0  0  0  0  0
   -0.9938   56.7750   73.4650 H   0  0  0  0  0  0  0  0  0  0  0  0
   -1.2506   56.1923   76.7938 H   0  0  0  0  0  0  0  0  0  0  0  0
    3.0681   55.6492   77.6580 H   0  0  0  0  0  0  0  0  0  0  0  0
    3.6199   56.5958   75.5372 H   0  0  0  0  0  0  0  0  0  0  0  0
    1.8764   55.0262   73.8826 H   0  0  0  0  0  0  0  0  0  0  0  0
    0.7801   56.0860   72.9330 H   0  0  0  0  0  0  0  0  0  0  0  0
    2.5497   56.3943   72.9330 H   0  0  0  0  0  0  0  0  0  0  0  0
    1.3568   64.0621   70.6009 H   0  0  0  0  0  0  0  0  0  0  0  0
    2.8925   65.0166   70.5290 H   0  0  0  0  0  0  0  0  0  0  0  0
    3.1875   62.6084   69.2703 H   0  0  0  0  0  0  0  0  0  0  0  0
    2.0521   62.4049   74.5379 H   0  0  0  0  0  0  0  0  0  0  0  0
    0.1028   63.6421   73.7607 H   0  0  0  0  0  0  0  0  0  0  0  0
    4.0437   57.3114   73.1472 H   0  0  0  0  0  0  0  0  0  0  0  0
  2  1  1  0
  3  2  1  0
  4  3  1  0
  5  4  1  0
  5  1  1  0
  5  6  1  6
  7  5  1  0
  8  7  1  0
  9  8  1  0
 10  4  1  0
 10  9  1  0
 11 10  1  0
 12 11  1  0
 13 12  1  0
 14 13  2  0
 15 14  1  0
 16 15  2  0
 17 15  1  0
 18 17  2  0
 19 13  1  0
 19 18  1  0
 19  9  1  0
 19 20  1  6
  9 21  1  1
 22  1  1  0
 23 22  2  0
 24 22  1  0
 25 24  1  0
  1 26  1  1
 27  2  1  0
 28  8  1  0
  2 29  1  6
  3 30  1  0
  3 31  1  0
  4 32  1  1
  6 33  1  0
  6 34  1  0
  6 35  1  0
  7 36  1  0
  7 37  1  0
  8 38  1  1
 10 39  1  6
 11 40  1  0
 11 41  1  0
 12 42  1  0
 12 43  1  0
 14 44  1  0
 17 45  1  0
 18 46  1  0
 20 47  1  0
 20 48  1  0
 20 49  1  0
 24 50  1  0
 24 51  1  0
 25 52  1  0
 26 53  1  0
 27 54  1  0
 28 55  1  0
M  END
>  <score>  (6) 
-7.082

$$$$
=
     RDKit          3D

 55 58  0  0  0  0  0  0  0  0999 V2000
    3.3270   61.5770   71.1990 C   0  0  1  0  0  0  0  0  0  0  0  0
    4.7770   61.2880   71.7090 C   0  0  1  0  0  0  0  0  0  0  0  0
    4.6360   60.3340   72.9130 C   0  0  0  0  0  0  0  0  0  0  0  0
    3.1550   59.9490   72.9170 C   0  0  2  0  0  0  0  0  0  0  0  0
    2.4390   61.2330   72.4350 C   0  0  1  0  0  0  0  0  0  0  0  0
    2.4940   62.3900   73.4680 C   0  0  0  0  0  0  0  0  0  0  0  0
    0.9750   60.8520   72.1290 C   0  0  0  0  0  0  0  0  0  0  0  0
    0.2540   60.1790   73.3200 C   0  0  1  0  0  0  0  0  0  0  0  0
    1.0530   58.9850   73.9320 C   0  0  1  0  0  0  0  0  0  0  0  0
    2.5500   59.3560   74.1990 C   0  0  1  0  0  0  0  0  0  0  0  0
    3.3530   58.1230   74.6540 C   0  0  0  0  0  0  0  0  0  0  0  0
    2.7270   57.4390   75.8660 C   0  0  0  0  0  0  0  0  0  0  0  0
    1.2830   57.1030   75.5970 C   0  0  0  0  0  0  0  0  0  0  0  0
    0.8560   55.8300   75.6750 C   0  0  0  0  0  0  0  0  0  0  0  0
   -0.5370   55.4530   75.3610 C   0  0  0  0  0  0  0  0  0  0  0  0
   -0.9210   54.2950   75.4580 O   0  0  0  0  0  0  0  0  0  0  0  0
   -1.4480   56.5300   74.9280 C   0  0  0  0  0  0  0  0  0  0  0  0
   -1.0270   57.8000   74.8510 C   0  0  0  0  0  0  0  0  0  0  0  0
    0.3840   58.2840   75.1860 C   0  0  2  0  0  0  0  0  0  0  0  0
    0.2320   59.2100   76.4150 C   0  0  0  0  0  0  0  0  0  0  0  0
    1.0800   58.0290   72.9250 F   0  0  0  0  0  0  0  0  0  0  0  0
    3.1890   63.0210   70.6940 C   0  0  0  0  0  0  0  0  0  0  0  0
    4.1340   63.8170   70.6740 O   0  0  0  0  0  0  0  0  0  0  0  0
    1.8090   63.4630   70.2230 C   0  0  0  0  0  0  0  0  0  0  0  0
    1.8120   64.8310   69.8310 O   0  0  0  0  0  0  0  0  0  0  0  0
    3.0490   60.6740   70.1180 O   0  0  0  0  0  0  0  0  0  0  0  0
    5.5220   60.6560   70.6590 O   0  0  0  0  0  0  0  0  0  0  0  0
   -0.0730   61.1690   74.2900 O   0  0  0  0  0  0  0  0  0  0  0  0
    5.3027   62.2089   72.0015 H   0  0  0  0  0  0  0  0  0  0  0  0
    5.2698   59.4445   72.7820 H   0  0  0  0  0  0  0  0  0  0  0  0
    4.9524   60.7995   73.8581 H   0  0  0  0  0  0  0  0  0  0  0  0
    3.0152   59.0752   72.2636 H   0  0  0  0  0  0  0  0  0  0  0  0
    2.4742   61.9738   74.4860 H   0  0  0  0  0  0  0  0  0  0  0  0
    3.4205   62.9654   73.3250 H   0  0  0  0  0  0  0  0  0  0  0  0
    1.6263   63.0507   73.3250 H   0  0  0  0  0  0  0  0  0  0  0  0
    0.4256   61.7663   71.8603 H   0  0  0  0  0  0  0  0  0  0  0  0
    0.9945   60.1219   71.3065 H   0  0  0  0  0  0  0  0  0  0  0  0
   -0.6747   59.7250   72.9441 H   0  0  0  0  0  0  0  0  0  0  0  0
    2.5971   60.0994   75.0084 H   0  0  0  0  0  0  0  0  0  0  0  0
    3.3954   57.4025   73.8239 H   0  0  0  0  0  0  0  0  0  0  0  0
    4.3584   58.4638   74.9420 H   0  0  0  0  0  0  0  0  0  0  0  0
    3.2793   56.5130   76.0841 H   0  0  0  0  0  0  0  0  0  0  0  0
    2.7781   58.1234   76.7257 H   0  0  0  0  0  0  0  0  0  0  0  0
    1.5650   55.0468   75.9816 H   0  0  0  0  0  0  0  0  0  0  0  0
   -2.4879   56.2869   74.6645 H   0  0  0  0  0  0  0  0  0  0  0  0
   -1.7553   58.5550   74.5201 H   0  0  0  0  0  0  0  0  0  0  0  0
    0.3295   58.6162   77.3358 H   0  0  0  0  0  0  0  0  0  0  0  0
    1.0155   59.9818   76.3917 H   0  0  0  0  0  0  0  0  0  0  0  0
   -0.7571   59.6908   76.3917 H   0  0  0  0  0  0  0  0  0  0  0  0
    1.5079   62.8446   69.3646 H   0  0  0  0  0  0  0  0  0  0  0  0
    1.1014   63.3413   71.0563 H   0  0  0  0  0  0  0  0  0  0  0  0
    1.8133   65.4053   70.6374 H   0  0  0  0  0  0  0  0  0  0  0  0
    2.7783   59.7948   70.4838 H   0  0  0  0  0  0  0  0  0  0  0  0
    6.2145   60.0685   71.0532 H   0  0  0  0  0  0  0  0  0  0  0  0
    0.0506   60.7947   75.1981 H   0  0  0  0  0  0  0  0  0  0  0  0
  2  1  1  0
  3  2  1  0
  4  3  1  0
  5  4  1  0
  5  1  1  0
  5  6  1  1
  7  5  1  0
  8  7  1  0
  9  8  1  0
 10  4  1  0
 10  9  1  0
 11 10  1  0
 12 11  1  0
 13 12  1  0
 14 13  2  0
 15 14  1  0
 16 15  2  0
 17 15  1  0
 18 17  2  0
 19 13  1  0
 19 18  1  0
 19  9  1  0
 19 20  1  1
  9 21  1  6
 22  1  1  0
 23 22  2  0
 24 22  1  0
 25 24  1  0
  1 26  1  6
 27  2  1  0
 28  8  1  0
  2 29  1  1
  3 30  1  0
  3 31  1  0
  4 32  1  6
  6 33  1  0
  6 34  1  0
  6 35  1  0
  7 36  1  0
  7 37  1  0
  8 38  1  6
 10 39  1  1
 11 40  1  0
 11 41  1  0
 12 42  1  0
 12 43  1  0
 14 44  1  0
 17 45  1  0
 18 46  1  0
 20 47  1  0
 20 48  1  0
 20 49  1  0
 24 50  1  0
 24 51  1  0
 25 52  1  0
 26 53  1  0
 27 54  1  0
 28 55  1  0
M  END
>  <score>  (7) 
-7.079

$$$$
=
     RDKit          3D

 55 58  0  0  0  0  0  0  0  0999 V2000
    0.7400   55.4540   75.1870 C   0  0  1  0  0  0  0  0  0  0  0  0
    1.6920   55.2640   73.9610 C   0  0  1  0  0  0  0  0  0  0  0  0
    1.7600   56.6270   73.2430 C   0  0  0  0  0  0  0  0  0  0  0  0
    1.0300   57.5860   74.1850 C   0  0  2  0  0  0  0  0  0  0  0  0
   -0.0930   56.7150   74.8010 C   0  0  1  0  0  0  0  0  0  0  0  0
   -1.1980   56.3310   73.7800 C   0  0  0  0  0  0  0  0  0  0  0  0
   -0.6960   57.5130   75.9760 C   0  0  0  0  0  0  0  0  0  0  0  0
   -1.1880   58.9230   75.5740 C   0  0  1  0  0  0  0  0  0  0  0  0
   -0.1190   59.7520   74.7940 C   0  0  1  0  0  0  0  0  0  0  0  0
    0.5280   58.9280   73.6300 C   0  0  1  0  0  0  0  0  0  0  0  0
    1.6840   59.7080   72.9770 C   0  0  0  0  0  0  0  0  0  0  0  0
    1.2550   61.0930   72.5030 C   0  0  0  0  0  0  0  0  0  0  0  0
    0.6200   61.8650   73.6310 C   0  0  0  0  0  0  0  0  0  0  0  0
    1.1330   63.0470   74.0180 C   0  0  0  0  0  0  0  0  0  0  0  0
    0.5770   63.8040   75.1570 C   0  0  0  0  0  0  0  0  0  0  0  0
    1.0370   64.8900   75.4860 O   0  0  0  0  0  0  0  0  0  0  0  0
   -0.5580   63.2010   75.8810 C   0  0  0  0  0  0  0  0  0  0  0  0
   -1.0740   62.0250   75.4980 C   0  0  0  0  0  0  0  0  0  0  0  0
   -0.5830   61.1890   74.3160 C   0  0  2  0  0  0  0  0  0  0  0  0
   -1.7490   61.1660   73.3010 C   0  0  0  0  0  0  0  0  0  0  0  0
    0.9000   59.9610   75.7130 F   0  0  0  0  0  0  0  0  0  0  0  0
   -0.0950   54.1920   75.4490 C   0  0  0  0  0  0  0  0  0  0  0  0
   -0.8780   54.0920   76.4000 O   0  0  0  0  0  0  0  0  0  0  0  0
    0.0910   53.0240   74.4880 C   0  0  0  0  0  0  0  0  0  0  0  0
    1.1490   52.1720   74.9110 O   0  0  0  0  0  0  0  0  0  0  0  0
    1.5520   55.7260   76.3400 O   0  0  0  0  0  0  0  0  0  0  0  0
    2.9910   54.8860   74.4350 O   0  0  0  0  0  0  0  0  0  0  0  0
   -2.4140   58.8040   74.8590 O   0  0  0  0  0  0  0  0  0  0  0  0
    1.3319   54.4818   73.2765 H   0  0  0  0  0  0  0  0  0  0  0  0
    2.8046   56.9407   73.1001 H   0  0  0  0  0  0  0  0  0  0  0  0
    1.3086   56.5973   72.2403 H   0  0  0  0  0  0  0  0  0  0  0  0
    1.7523   57.9831   74.9134 H   0  0  0  0  0  0  0  0  0  0  0  0
   -2.1031   56.0165   74.3202 H   0  0  0  0  0  0  0  0  0  0  0  0
   -1.4317   57.2006   73.1482 H   0  0  0  0  0  0  0  0  0  0  0  0
   -0.8420   55.5039   73.1482 H   0  0  0  0  0  0  0  0  0  0  0  0
   -1.5493   56.9481   76.3794 H   0  0  0  0  0  0  0  0  0  0  0  0
    0.1029   57.6482   76.7199 H   0  0  0  0  0  0  0  0  0  0  0  0
   -1.3641   59.4993   76.4943 H   0  0  0  0  0  0  0  0  0  0  0  0
   -0.2299   58.7462   72.8537 H   0  0  0  0  0  0  0  0  0  0  0  0
    2.4939   59.8214   73.7127 H   0  0  0  0  0  0  0  0  0  0  0  0
    2.0171   59.1398   72.0960 H   0  0  0  0  0  0  0  0  0  0  0  0
    2.1375   61.6410   72.1413 H   0  0  0  0  0  0  0  0  0  0  0  0
    0.5201   60.9792   71.6925 H   0  0  0  0  0  0  0  0  0  0  0  0
    1.9918   63.4615   73.4697 H   0  0  0  0  0  0  0  0  0  0  0  0
   -0.9872   63.7244   76.7481 H   0  0  0  0  0  0  0  0  0  0  0  0
   -1.9188   61.6294   76.0810 H   0  0  0  0  0  0  0  0  0  0  0  0
   -2.7063   61.1471   73.8426 H   0  0  0  0  0  0  0  0  0  0  0  0
   -1.7029   62.0652   72.6691 H   0  0  0  0  0  0  0  0  0  0  0  0
   -1.6675   60.2693   72.6691 H   0  0  0  0  0  0  0  0  0  0  0  0
   -0.8420   52.4429   74.4450 H   0  0  0  0  0  0  0  0  0  0  0  0
    0.3439   53.4265   73.4960 H   0  0  0  0  0  0  0  0  0  0  0  0
    1.1783   52.1484   75.9003 H   0  0  0  0  0  0  0  0  0  0  0  0
    1.0281   55.5505   77.1614 H   0  0  0  0  0  0  0  0  0  0  0  0
    2.9937   54.8852   75.4250 H   0  0  0  0  0  0  0  0  0  0  0  0
   -3.1645   58.7312   75.5006 H   0  0  0  0  0  0  0  0  0  0  0  0
  2  1  1  0
  3  2  1  0
  4  3  1  0
  5  4  1  0
  5  1  1  0
  5  6  1  6
  7  5  1  0
  8  7  1  0
  9  8  1  0
 10  4  1  0
 10  9  1  0
 11 10  1  0
 12 11  1  0
 13 12  1  0
 14 13  2  0
 15 14  1  0
 16 15  2  0
 17 15  1  0
 18 17  2  0
 19 13  1  0
 19 18  1  0
 19  9  1  0
 19 20  1  6
  9 21  1  1
 22  1  1  0
 23 22  2  0
 24 22  1  0
 25 24  1  0
  1 26  1  1
 27  2  1  0
 28  8  1  0
  2 29  1  6
  3 30  1  0
  3 31  1  0
  4 32  1  1
  6 33  1  0
  6 34  1  0
  6 35  1  0
  7 36  1  0
  7 37  1  0
  8 38  1  1
 10 39  1  6
 11 40  1  0
 11 41  1  0
 12 42  1  0
 12 43  1  0
 14 44  1  0
 17 45  1  0
 18 46  1  0
 20 47  1  0
 20 48  1  0
 20 49  1  0
 24 50  1  0
 24 51  1  0
 25 52  1  0
 26 53  1  0
 27 54  1  0
 28 55  1  0
M  END
>  <score>  (8) 
-6.648

$$$$
=
     RDKit          3D

 55 58  0  0  0  0  0  0  0  0999 V2000
   -5.2000   58.0690   75.7300 C   0  0  1  0  0  0  0  0  0  0  0  0
   -5.9090   59.3400   75.1580 C   0  0  1  0  0  0  0  0  0  0  0  0
   -4.7920   60.2700   74.6410 C   0  0  0  0  0  0  0  0  0  0  0  0
   -3.5220   59.4230   74.7370 C   0  0  2  0  0  0  0  0  0  0  0  0
   -3.7470   58.5640   76.0050 C   0  0  1  0  0  0  0  0  0  0  0  0
   -3.7070   59.3900   77.3190 C   0  0  0  0  0  0  0  0  0  0  0  0
   -2.6540   57.4750   76.0180 C   0  0  0  0  0  0  0  0  0  0  0  0
   -1.2180   58.0440   75.9310 C   0  0  1  0  0  0  0  0  0  0  0  0
   -1.0240   59.0520   74.7540 C   0  0  1  0  0  0  0  0  0  0  0  0
   -2.1590   60.1300   74.7110 C   0  0  1  0  0  0  0  0  0  0  0  0
   -2.0330   61.0150   73.4570 C   0  0  0  0  0  0  0  0  0  0  0  0
   -0.6550   61.6570   73.3360 C   0  0  0  0  0  0  0  0  0  0  0  0
    0.4240   60.6090   73.3950 C   0  0  0  0  0  0  0  0  0  0  0  0
    1.2940   60.4700   72.3770 C   0  0  0  0  0  0  0  0  0  0  0  0
    2.3270   59.4150   72.3710 C   0  0  0  0  0  0  0  0  0  0  0  0
    3.1280   59.3130   71.4510 O   0  0  0  0  0  0  0  0  0  0  0  0
    2.3580   58.4910   73.5200 C   0  0  0  0  0  0  0  0  0  0  0  0
    1.4950   58.6260   74.5370 C   0  0  0  0  0  0  0  0  0  0  0  0
    0.4160   59.7040   74.6420 C   0  0  2  0  0  0  0  0  0  0  0  0
    0.8060   60.5770   75.8570 C   0  0  0  0  0  0  0  0  0  0  0  0
   -1.1920   58.2890   73.6070 F   0  0  0  0  0  0  0  0  0  0  0  0
   -5.9360   57.5240   76.9630 C   0  0  0  0  0  0  0  0  0  0  0  0
   -5.3460   57.0420   77.9360 O   0  0  0  0  0  0  0  0  0  0  0  0
   -7.4580   57.5760   76.9420 C   0  0  0  0  0  0  0  0  0  0  0  0
   -7.9870   56.7830   75.8860 O   0  0  0  0  0  0  0  0  0  0  0  0
   -5.1980   57.0640   74.7030 O   0  0  0  0  0  0  0  0  0  0  0  0
   -6.7690   58.9480   74.0800 O   0  0  0  0  0  0  0  0  0  0  0  0
   -0.8570   58.6010   77.1910 O   0  0  0  0  0  0  0  0  0  0  0  0
   -6.5183   59.8499   75.9188 H   0  0  0  0  0  0  0  0  0  0  0  0
   -4.9839   60.5683   73.5998 H   0  0  0  0  0  0  0  0  0  0  0  0
   -4.7201   61.2030   75.2192 H   0  0  0  0  0  0  0  0  0  0  0  0
   -3.4112   58.8456   73.8073 H   0  0  0  0  0  0  0  0  0  0  0  0
   -3.7400   58.7084   78.1817 H   0  0  0  0  0  0  0  0  0  0  0  0
   -2.7792   59.9800   77.3531 H   0  0  0  0  0  0  0  0  0  0  0  0
   -4.5734   60.0669   77.3531 H   0  0  0  0  0  0  0  0  0  0  0  0
   -2.7454   56.9005   76.9516 H   0  0  0  0  0  0  0  0  0  0  0  0
   -2.8094   56.8486   75.1272 H   0  0  0  0  0  0  0  0  0  0  0  0
   -0.5347   57.2139   75.6985 H   0  0  0  0  0  0  0  0  0  0  0  0
   -2.0666   60.7853   75.5897 H   0  0  0  0  0  0  0  0  0  0  0  0
   -2.2132   60.3944   72.5668 H   0  0  0  0  0  0  0  0  0  0  0  0
   -2.7741   61.8236   73.5407 H   0  0  0  0  0  0  0  0  0  0  0  0
   -0.5880   62.1915   72.3769 H   0  0  0  0  0  0  0  0  0  0  0  0
   -0.5153   62.3578   74.1723 H   0  0  0  0  0  0  0  0  0  0  0  0
    1.2335   61.1627   71.5247 H   0  0  0  0  0  0  0  0  0  0  0  0
    3.1000   57.6793   73.5429 H   0  0  0  0  0  0  0  0  0  0  0  0
    1.5692   57.9028   75.3625 H   0  0  0  0  0  0  0  0  0  0  0  0
    0.5661   60.0399   76.7865 H   0  0  0  0  0  0  0  0  0  0  0  0
    1.8847   60.7898   75.8245 H   0  0  0  0  0  0  0  0  0  0  0  0
    0.2447   61.5224   75.8245 H   0  0  0  0  0  0  0  0  0  0  0  0
   -7.8428   57.1988   77.9010 H   0  0  0  0  0  0  0  0  0  0  0  0
   -7.7679   58.6192   76.7820 H   0  0  0  0  0  0  0  0  0  0  0  0
   -8.4942   56.0227   76.2665 H   0  0  0  0  0  0  0  0  0  0  0  0
   -5.1962   56.1661   75.1200 H   0  0  0  0  0  0  0  0  0  0  0  0
   -7.6056   58.5667   74.4472 H   0  0  0  0  0  0  0  0  0  0  0  0
   -1.2225   58.0371   77.9180 H   0  0  0  0  0  0  0  0  0  0  0  0
  2  1  1  0
  3  2  1  0
  4  3  1  0
  5  4  1  0
  5  1  1  0
  5  6  1  1
  7  5  1  0
  8  7  1  0
  9  8  1  0
 10  4  1  0
 10  9  1  0
 11 10  1  0
 12 11  1  0
 13 12  1  0
 14 13  2  0
 15 14  1  0
 16 15  2  0
 17 15  1  0
 18 17  2  0
 19 13  1  0
 19 18  1  0
 19  9  1  0
 19 20  1  1
  9 21  1  6
 22  1  1  0
 23 22  2  0
 24 22  1  0
 25 24  1  0
  1 26  1  6
 27  2  1  0
 28  8  1  0
  2 29  1  1
  3 30  1  0
  3 31  1  0
  4 32  1  6
  6 33  1  0
  6 34  1  0
  6 35  1  0
  7 36  1  0
  7 37  1  0
  8 38  1  6
 10 39  1  1
 11 40  1  0
 11 41  1  0
 12 42  1  0
 12 43  1  0
 14 44  1  0
 17 45  1  0
 18 46  1  0
 20 47  1  0
 20 48  1  0
 20 49  1  0
 24 50  1  0
 24 51  1  0
 25 52  1  0
 26 53  1  0
 27 54  1  0
 28 55  1  0
M  END
>  <score>  (9) 
-6.479

$$$$
