=
     RDKit          3D

 53 56  0  0  0  0  0  0  0  0999 V2000
    3.0490   60.0960   71.6440 C   0  0  0  0  0  0  0  0  0  0  0  0
    2.9270   61.2130   70.8070 C   0  0  0  0  0  0  0  0  0  0  0  0
    2.0320   62.2150   71.1610 C   0  0  0  0  0  0  0  0  0  0  0  0
    1.7340   63.4910   70.4310 C   0  0  0  0  0  0  0  0  0  0  0  0
    0.6890   64.1680   71.2820 C   0  0  0  0  0  0  0  0  0  0  0  0
    0.0200   65.3280   71.1680 C   0  0  0  0  0  0  0  0  0  0  0  0
    0.4230   63.2790   72.4680 C   0  0  0  0  0  0  0  0  0  0  0  0
   -0.3510   63.4960   73.3780 O   0  0  0  0  0  0  0  0  0  0  0  0
    1.2770   62.1000   72.3270 C   0  0  0  0  0  0  0  0  0  0  0  0
    1.3690   61.0160   73.1770 C   0  0  0  0  0  0  0  0  0  0  0  0
    2.2680   60.0130   72.8220 C   0  0  0  0  0  0  0  0  0  0  0  0
    0.0580   66.4160   70.1220 C   0  0  0  0  0  0  0  0  0  0  0  0
    1.5170   66.8430   69.8910 C   0  0  0  0  0  0  0  0  0  0  0  0
    1.6220   68.0190   68.9300 C   0  0  0  0  0  0  0  0  0  0  0  0
    0.9400   67.6760   67.6290 N   0  0  0  0  0  4  0  0  0  0  0  0
   -0.5050   67.3020   67.8260 C   0  0  0  0  0  0  0  0  0  0  0  0
   -0.6060   66.1140   68.7750 C   0  0  0  0  0  0  0  0  0  0  0  0
    1.0860   68.7740   66.5900 C   0  0  0  0  0  0  0  0  0  0  0  0
    2.5190   69.0620   66.2350 C   0  0  0  0  0  0  0  0  0  0  0  0
    3.3920   69.6160   67.1840 C   0  0  0  0  0  0  0  0  0  0  0  0
    4.7290   69.8550   66.8590 C   0  0  0  0  0  0  0  0  0  0  0  0
    5.2040   69.5460   65.5870 C   0  0  0  0  0  0  0  0  0  0  0  0
    4.3460   69.0020   64.6340 C   0  0  0  0  0  0  0  0  0  0  0  0
    3.0080   68.7600   64.9540 C   0  0  0  0  0  0  0  0  0  0  0  0
    3.3960   57.9450   70.6570 C   0  0  0  0  0  0  0  0  0  0  0  0
    3.8920   59.0390   71.4150 O   0  0  0  0  0  0  0  0  0  0  0  0
    2.4050   58.9120   73.6270 O   0  0  0  0  0  0  0  0  0  0  0  0
    3.5272   61.2949   69.8888 H   0  0  0  0  0  0  0  0  0  0  0  0
    2.6365   64.1149   70.3513 H   0  0  0  0  0  0  0  0  0  0  0  0
    1.3905   63.3169   69.4006 H   0  0  0  0  0  0  0  0  0  0  0  0
   -0.6862   65.5204   71.9891 H   0  0  0  0  0  0  0  0  0  0  0  0
    0.7612   60.9476   74.0913 H   0  0  0  0  0  0  0  0  0  0  0  0
   -0.5591   67.2219   70.5459 H   0  0  0  0  0  0  0  0  0  0  0  0
    1.9593   67.1322   70.8557 H   0  0  0  0  0  0  0  0  0  0  0  0
    2.0536   65.9920   69.4462 H   0  0  0  0  0  0  0  0  0  0  0  0
    1.1368   68.8998   69.3759 H   0  0  0  0  0  0  0  0  0  0  0  0
    2.6826   68.2385   68.7381 H   0  0  0  0  0  0  0  0  0  0  0  0
    1.4269   66.8454   67.2631 H   0  0  0  0  0  0  0  0  0  0  0  0
   -1.0487   68.1576   68.2529 H   0  0  0  0  0  0  0  0  0  0  0  0
   -0.9453   67.0299   66.8554 H   0  0  0  0  0  0  0  0  0  0  0  0
   -1.6675   65.8801   68.9438 H   0  0  0  0  0  0  0  0  0  0  0  0
   -0.0860   65.2599   68.3167 H   0  0  0  0  0  0  0  0  0  0  0  0
    0.5542   68.4660   65.6777 H   0  0  0  0  0  0  0  0  0  0  0  0
    0.6634   69.6932   67.0218 H   0  0  0  0  0  0  0  0  0  0  0  0
    3.0210   69.8634   68.1896 H   0  0  0  0  0  0  0  0  0  0  0  0
    5.4077   70.2878   67.6087 H   0  0  0  0  0  0  0  0  0  0  0  0
    6.2584   69.7318   65.3344 H   0  0  0  0  0  0  0  0  0  0  0  0
    4.7224   68.7628   63.6285 H   0  0  0  0  0  0  0  0  0  0  0  0
    2.3338   68.3305   64.1983 H   0  0  0  0  0  0  0  0  0  0  0  0
    3.0394   57.1585   71.3384 H   0  0  0  0  0  0  0  0  0  0  0  0
    2.5642   58.2855   70.0228 H   0  0  0  0  0  0  0  0  0  0  0  0
    4.2002   57.5438   70.0228 H   0  0  0  0  0  0  0  0  0  0  0  0
    3.0420   58.1952   73.3811 H   0  0  0  0  0  0  0  0  0  0  0  0
  2  1  2  0
  3  2  1  0
  4  3  1  0
  5  4  1  0
  6  5  2  0
  7  5  1  0
  8  7  2  0
  9  7  1  0
  9  3  2  0
 10  9  1  0
 11 10  2  0
 11  1  1  0
 12  6  1  0
 13 12  1  0
 14 13  1  0
 15 14  1  0
 16 15  1  0
 17 16  1  0
 17 12  1  0
 18 15  1  0
 19 18  1  0
 20 19  2  0
 21 20  1  0
 22 21  2  0
 23 22  1  0
 24 23  2  0
 24 19  1  0
 26 25  1  0
 26  1  1  0
 27 11  1  0
  2 28  1  0
  4 29  1  0
  4 30  1  0
  6 31  1  0
 10 32  1  0
 12 33  1  0
 13 34  1  0
 13 35  1  0
 14 36  1  0
 14 37  1  0
 15 38  1  0
 16 39  1  0
 16 40  1  0
 17 41  1  0
 17 42  1  0
 18 43  1  0
 18 44  1  0
 20 45  1  0
 21 46  1  0
 22 47  1  0
 23 48  1  0
 24 49  1  0
 25 50  1  0
 25 51  1  0
 25 52  1  0
 27 53  1  0
M  CHG  1  15   1
M  END
>  <score>  (1) 
-10.535

$$$$
=
     RDKit          3D

 53 56  0  0  0  0  0  0  0  0999 V2000
   -0.1510   56.4820   74.7680 C   0  0  0  0  0  0  0  0  0  0  0  0
   -0.2550   57.8680   74.5800 C   0  0  0  0  0  0  0  0  0  0  0  0
    0.5930   58.4800   73.6650 C   0  0  0  0  0  0  0  0  0  0  0  0
    0.6640   59.9330   73.2970 C   0  0  0  0  0  0  0  0  0  0  0  0
    1.7630   59.9980   72.2660 C   0  0  0  0  0  0  0  0  0  0  0  0
    2.3030   61.0070   71.5620 C   0  0  0  0  0  0  0  0  0  0  0  0
    2.2820   58.6000   72.0650 C   0  0  0  0  0  0  0  0  0  0  0  0
    3.1630   58.2560   71.3030 O   0  0  0  0  0  0  0  0  0  0  0  0
    1.5220   57.7230   72.9550 C   0  0  0  0  0  0  0  0  0  0  0  0
    1.6540   56.3570   73.1120 C   0  0  0  0  0  0  0  0  0  0  0  0
    0.8030   55.7440   74.0280 C   0  0  0  0  0  0  0  0  0  0  0  0
    2.0130   62.4880   71.5340 C   0  0  0  0  0  0  0  0  0  0  0  0
    2.8250   63.1410   70.4040 C   0  0  0  0  0  0  0  0  0  0  0  0
    2.6690   64.6550   70.3900 C   0  0  0  0  0  0  0  0  0  0  0  0
    1.2060   65.0150   70.2920 N   0  0  0  0  0  4  0  0  0  0  0  0
    0.4000   64.4270   71.4190 C   0  0  0  0  0  0  0  0  0  0  0  0
    0.5450   62.9100   71.4200 C   0  0  0  0  0  0  0  0  0  0  0  0
    0.9850   66.5130   70.1810 C   0  0  0  0  0  0  0  0  0  0  0  0
    0.3430   66.9200   68.8840 C   0  0  0  0  0  0  0  0  0  0  0  0
   -0.9800   66.5510   68.5950 C   0  0  0  0  0  0  0  0  0  0  0  0
   -1.5810   66.9560   67.4010 C   0  0  0  0  0  0  0  0  0  0  0  0
   -0.8690   67.7280   66.4870 C   0  0  0  0  0  0  0  0  0  0  0  0
    0.4470   68.0950   66.7590 C   0  0  0  0  0  0  0  0  0  0  0  0
    1.0530   67.6950   67.9510 C   0  0  0  0  0  0  0  0  0  0  0  0
   -2.2880   55.5470   75.2990 C   0  0  0  0  0  0  0  0  0  0  0  0
   -0.9240   55.7540   75.6360 O   0  0  0  0  0  0  0  0  0  0  0  0
    0.8860   54.3900   74.2270 O   0  0  0  0  0  0  0  0  0  0  0  0
   -0.9920   58.4578   75.1447 H   0  0  0  0  0  0  0  0  0  0  0  0
   -0.2910   60.2753   72.8718 H   0  0  0  0  0  0  0  0  0  0  0  0
    0.8607   60.5793   74.1651 H   0  0  0  0  0  0  0  0  0  0  0  0
    3.1065   60.6956   70.8784 H   0  0  0  0  0  0  0  0  0  0  0  0
    2.3963   55.7806   72.5404 H   0  0  0  0  0  0  0  0  0  0  0  0
    2.3131   62.8421   72.5313 H   0  0  0  0  0  0  0  0  0  0  0  0
    3.8881   62.8950   70.5429 H   0  0  0  0  0  0  0  0  0  0  0  0
    2.4479   62.7521   69.4466 H   0  0  0  0  0  0  0  0  0  0  0  0
    3.0874   65.0743   71.3169 H   0  0  0  0  0  0  0  0  0  0  0  0
    3.2047   65.0684   69.5228 H   0  0  0  0  0  0  0  0  0  0  0  0
    0.8656   64.5923   69.4166 H   0  0  0  0  0  0  0  0  0  0  0  0
    0.7630   64.8293   72.3763 H   0  0  0  0  0  0  0  0  0  0  0  0
   -0.6594   64.6907   71.2843 H   0  0  0  0  0  0  0  0  0  0  0  0
   -0.0130   62.4979   72.2737 H   0  0  0  0  0  0  0  0  0  0  0  0
    0.1470   62.5240   70.4699 H   0  0  0  0  0  0  0  0  0  0  0  0
    0.3353   66.8333   71.0088 H   0  0  0  0  0  0  0  0  0  0  0  0
    1.9732   66.9943   70.2230 H   0  0  0  0  0  0  0  0  0  0  0  0
   -1.5466   65.9396   69.3127 H   0  0  0  0  0  0  0  0  0  0  0  0
   -2.6189   66.6644   67.1824 H   0  0  0  0  0  0  0  0  0  0  0  0
   -1.3461   68.0485   65.5491 H   0  0  0  0  0  0  0  0  0  0  0  0
    1.0094   68.7009   66.0333 H   0  0  0  0  0  0  0  0  0  0  0  0
    2.0922   67.9880   68.1614 H   0  0  0  0  0  0  0  0  0  0  0  0
   -2.8835   55.4566   76.2195 H   0  0  0  0  0  0  0  0  0  0  0  0
   -2.6533   56.4000   74.7083 H   0  0  0  0  0  0  0  0  0  0  0  0
   -2.3837   54.6240   74.7083 H   0  0  0  0  0  0  0  0  0  0  0  0
    0.2842   53.9473   74.8766 H   0  0  0  0  0  0  0  0  0  0  0  0
  2  1  2  0
  3  2  1  0
  4  3  1  0
  5  4  1  0
  6  5  2  0
  7  5  1  0
  8  7  2  0
  9  7  1  0
  9  3  2  0
 10  9  1  0
 11 10  2  0
 11  1  1  0
 12  6  1  0
 13 12  1  0
 14 13  1  0
 15 14  1  0
 16 15  1  0
 17 16  1  0
 17 12  1  0
 18 15  1  0
 19 18  1  0
 20 19  2  0
 21 20  1  0
 22 21  2  0
 23 22  1  0
 24 23  2  0
 24 19  1  0
 26 25  1  0
 26  1  1  0
 27 11  1  0
  2 28  1  0
  4 29  1  0
  4 30  1  0
  6 31  1  0
 10 32  1  0
 12 33  1  0
 13 34  1  0
 13 35  1  0
 14 36  1  0
 14 37  1  0
 15 38  1  0
 16 39  1  0
 16 40  1  0
 17 41  1  0
 17 42  1  0
 18 43  1  0
 18 44  1  0
 20 45  1  0
 21 46  1  0
 22 47  1  0
 23 48  1  0
 24 49  1  0
 25 50  1  0
 25 51  1  0
 25 52  1  0
 27 53  1  0
M  CHG  1  15   1
M  END
>  <score>  (2) 
-9.659

$$$$
=
     RDKit          3D

 53 56  0  0  0  0  0  0  0  0999 V2000
    3.0950   61.4020   73.2410 C   0  0  0  0  0  0  0  0  0  0  0  0
    3.0250   62.0110   71.9800 C   0  0  0  0  0  0  0  0  0  0  0  0
    2.1130   63.0410   71.7880 C   0  0  0  0  0  0  0  0  0  0  0  0
    1.8620   63.8360   70.5410 C   0  0  0  0  0  0  0  0  0  0  0  0
    0.7690   64.7990   70.9320 C   0  0  0  0  0  0  0  0  0  0  0  0
    0.1110   65.7620   70.2640 C   0  0  0  0  0  0  0  0  0  0  0  0
    0.4310   64.5420   72.3760 C   0  0  0  0  0  0  0  0  0  0  0  0
   -0.3960   65.1310   73.0430 O   0  0  0  0  0  0  0  0  0  0  0  0
    1.2890   63.4510   72.8350 C   0  0  0  0  0  0  0  0  0  0  0  0
    1.3290   62.8770   74.0900 C   0  0  0  0  0  0  0  0  0  0  0  0
    2.2450   61.8460   74.2810 C   0  0  0  0  0  0  0  0  0  0  0  0
    0.2130   66.2540   68.8400 C   0  0  0  0  0  0  0  0  0  0  0  0
   -1.1450   66.8260   68.4050 C   0  0  0  0  0  0  0  0  0  0  0  0
   -1.1480   67.2390   66.9400 C   0  0  0  0  0  0  0  0  0  0  0  0
   -0.0320   68.2220   66.6850 N   0  0  0  0  0  4  0  0  0  0  0  0
    1.3150   67.6620   67.0580 C   0  0  0  0  0  0  0  0  0  0  0  0
    1.3190   67.2670   68.5300 C   0  0  0  0  0  0  0  0  0  0  0  0
   -0.0350   68.7450   65.2590 C   0  0  0  0  0  0  0  0  0  0  0  0
    1.3360   68.7720   64.6400 C   0  0  0  0  0  0  0  0  0  0  0  0
    2.4570   69.1330   65.4030 C   0  0  0  0  0  0  0  0  0  0  0  0
    3.7310   69.1290   64.8310 C   0  0  0  0  0  0  0  0  0  0  0  0
    3.8970   68.7700   63.4960 C   0  0  0  0  0  0  0  0  0  0  0  0
    2.7910   68.4170   62.7270 C   0  0  0  0  0  0  0  0  0  0  0  0
    1.5140   68.4170   63.2930 C   0  0  0  0  0  0  0  0  0  0  0  0
    3.7430   59.1190   72.9420 C   0  0  0  0  0  0  0  0  0  0  0  0
    3.9480   60.3790   73.5650 O   0  0  0  0  0  0  0  0  0  0  0  0
    2.3310   61.2370   75.5070 O   0  0  0  0  0  0  0  0  0  0  0  0
    3.6788   61.6800   71.1597 H   0  0  0  0  0  0  0  0  0  0  0  0
    2.7687   64.3781   70.2345 H   0  0  0  0  0  0  0  0  0  0  0  0
    1.5810   63.2030   69.6864 H   0  0  0  0  0  0  0  0  0  0  0  0
   -0.6422   66.2902   70.8670 H   0  0  0  0  0  0  0  0  0  0  0  0
    0.6684   63.2181   74.9007 H   0  0  0  0  0  0  0  0  0  0  0  0
    0.5017   65.3625   68.2639 H   0  0  0  0  0  0  0  0  0  0  0  0
   -1.9188   66.0596   68.5593 H   0  0  0  0  0  0  0  0  0  0  0  0
   -1.3454   67.7221   69.0106 H   0  0  0  0  0  0  0  0  0  0  0  0
   -1.0027   66.3495   66.3093 H   0  0  0  0  0  0  0  0  0  0  0  0
   -2.1113   67.7114   66.6973 H   0  0  0  0  0  0  0  0  0  0  0  0
   -0.2131   69.0258   67.3030 H   0  0  0  0  0  0  0  0  0  0  0  0
    1.5258   66.7758   66.4413 H   0  0  0  0  0  0  0  0  0  0  0  0
    2.0872   68.4259   66.8844 H   0  0  0  0  0  0  0  0  0  0  0  0
    2.2932   66.8203   68.7780 H   0  0  0  0  0  0  0  0  0  0  0  0
    1.1393   68.1704   69.1312 H   0  0  0  0  0  0  0  0  0  0  0  0
   -0.6822   68.0972   64.6494 H   0  0  0  0  0  0  0  0  0  0  0  0
   -0.4029   69.7812   65.2893 H   0  0  0  0  0  0  0  0  0  0  0  0
    2.3316   69.4207   66.4573 H   0  0  0  0  0  0  0  0  0  0  0  0
    4.6053   69.4101   65.4365 H   0  0  0  0  0  0  0  0  0  0  0  0
    4.9019   68.7652   63.0487 H   0  0  0  0  0  0  0  0  0  0  0  0
    2.9233   68.1375   61.6714 H   0  0  0  0  0  0  0  0  0  0  0  0
    0.6438   68.1377   62.6808 H   0  0  0  0  0  0  0  0  0  0  0  0
    3.6170   58.3448   73.7132 H   0  0  0  0  0  0  0  0  0  0  0  0
    2.8401   59.1625   72.3152 H   0  0  0  0  0  0  0  0  0  0  0  0
    4.6131   58.8740   72.3152 H   0  0  0  0  0  0  0  0  0  0  0  0
    2.9798   60.5032   75.6508 H   0  0  0  0  0  0  0  0  0  0  0  0
  2  1  2  0
  3  2  1  0
  4  3  1  0
  5  4  1  0
  6  5  2  0
  7  5  1  0
  8  7  2  0
  9  7  1  0
  9  3  2  0
 10  9  1  0
 11 10  2  0
 11  1  1  0
 12  6  1  0
 13 12  1  0
 14 13  1  0
 15 14  1  0
 16 15  1  0
 17 16  1  0
 17 12  1  0
 18 15  1  0
 19 18  1  0
 20 19  2  0
 21 20  1  0
 22 21  2  0
 23 22  1  0
 24 23  2  0
 24 19  1  0
 26 25  1  0
 26  1  1  0
 27 11  1  0
  2 28  1  0
  4 29  1  0
  4 30  1  0
  6 31  1  0
 10 32  1  0
 12 33  1  0
 13 34  1  0
 13 35  1  0
 14 36  1  0
 14 37  1  0
 15 38  1  0
 16 39  1  0
 16 40  1  0
 17 41  1  0
 17 42  1  0
 18 43  1  0
 18 44  1  0
 20 45  1  0
 21 46  1  0
 22 47  1  0
 23 48  1  0
 24 49  1  0
 25 50  1  0
 25 51  1  0
 25 52  1  0
 27 53  1  0
M  CHG  1  15   1
M  END
>  <score>  (3) 
-9.646

$$$$
=
     RDKit          3D

 53 56  0  0  0  0  0  0  0  0999 V2000
    1.1180   68.6130   63.7520 C   0  0  0  0  0  0  0  0  0  0  0  0
    1.6550   67.8670   64.8100 C   0  0  0  0  0  0  0  0  0  0  0  0
    0.8560   67.6150   65.9190 C   0  0  0  0  0  0  0  0  0  0  0  0
    1.2080   66.8460   67.1580 C   0  0  0  0  0  0  0  0  0  0  0  0
   -0.0430   66.9110   68.0000 C   0  0  0  0  0  0  0  0  0  0  0  0
   -0.3610   66.4240   69.2110 C   0  0  0  0  0  0  0  0  0  0  0  0
   -1.0690   67.6970   67.2280 C   0  0  0  0  0  0  0  0  0  0  0  0
   -2.2030   67.9480   67.5810 O   0  0  0  0  0  0  0  0  0  0  0  0
   -0.4500   68.0990   65.9660 C   0  0  0  0  0  0  0  0  0  0  0  0
   -1.0150   68.8370   64.9450 C   0  0  0  0  0  0  0  0  0  0  0  0
   -0.2130   69.0870   63.8330 C   0  0  0  0  0  0  0  0  0  0  0  0
    0.4270   65.6150   70.2130 C   0  0  0  0  0  0  0  0  0  0  0  0
   -0.2780   64.2680   70.4380 C   0  0  0  0  0  0  0  0  0  0  0  0
    0.3990   63.4430   71.5240 C   0  0  0  0  0  0  0  0  0  0  0  0
    1.8560   63.2480   71.1810 N   0  0  0  0  0  4  0  0  0  0  0  0
    2.5780   64.5580   71.0050 C   0  0  0  0  0  0  0  0  0  0  0  0
    1.9080   65.3730   69.9060 C   0  0  0  0  0  0  0  0  0  0  0  0
    2.5720   62.3570   72.1800 C   0  0  0  0  0  0  0  0  0  0  0  0
    2.8910   60.9940   71.6300 C   0  0  0  0  0  0  0  0  0  0  0  0
    2.8450   59.8610   72.4580 C   0  0  0  0  0  0  0  0  0  0  0  0
    3.1130   58.5940   71.9360 C   0  0  0  0  0  0  0  0  0  0  0  0
    3.4310   58.4460   70.5890 C   0  0  0  0  0  0  0  0  0  0  0  0
    3.4860   59.5630   69.7580 C   0  0  0  0  0  0  0  0  0  0  0  0
    3.2180   60.8330   70.2740 C   0  0  0  0  0  0  0  0  0  0  0  0
    3.0120   68.2530   62.3360 C   0  0  0  0  0  0  0  0  0  0  0  0
    1.7930   68.9330   62.6020 O   0  0  0  0  0  0  0  0  0  0  0  0
   -0.7180   69.8130   62.7860 O   0  0  0  0  0  0  0  0  0  0  0  0
    2.6870   67.4889   64.7637 H   0  0  0  0  0  0  0  0  0  0  0  0
    1.4595   65.8037   66.9123 H   0  0  0  0  0  0  0  0  0  0  0  0
    2.0868   67.2585   67.6753 H   0  0  0  0  0  0  0  0  0  0  0  0
   -1.3866   66.6583   69.5324 H   0  0  0  0  0  0  0  0  0  0  0  0
   -2.0482   69.2096   65.0063 H   0  0  0  0  0  0  0  0  0  0  0  0
    0.4443   66.2425   71.1163 H   0  0  0  0  0  0  0  0  0  0  0  0
   -1.3201   64.4580   70.7344 H   0  0  0  0  0  0  0  0  0  0  0  0
   -0.2285   63.6980   69.4985 H   0  0  0  0  0  0  0  0  0  0  0  0
    0.3172   63.9686   72.4869 H   0  0  0  0  0  0  0  0  0  0  0  0
   -0.0928   62.4617   71.5958 H   0  0  0  0  0  0  0  0  0  0  0  0
    1.8728   62.7613   70.2734 H   0  0  0  0  0  0  0  0  0  0  0  0
    2.5463   65.1221   71.9488 H   0  0  0  0  0  0  0  0  0  0  0  0
    3.6236   64.3617   70.7254 H   0  0  0  0  0  0  0  0  0  0  0  0
    2.4185   66.3434   69.8184 H   0  0  0  0  0  0  0  0  0  0  0  0
    1.9784   64.8083   68.9646 H   0  0  0  0  0  0  0  0  0  0  0  0
    3.5129   62.8454   72.4736 H   0  0  0  0  0  0  0  0  0  0  0  0
    1.8972   62.2158   73.0372 H   0  0  0  0  0  0  0  0  0  0  0  0
    2.5965   59.9721   73.5238 H   0  0  0  0  0  0  0  0  0  0  0  0
    3.0727   57.7109   72.5907 H   0  0  0  0  0  0  0  0  0  0  0  0
    3.6391   57.4462   70.1802 H   0  0  0  0  0  0  0  0  0  0  0  0
    3.7407   59.4446   68.6945 H   0  0  0  0  0  0  0  0  0  0  0  0
    3.2634   61.7121   69.6143 H   0  0  0  0  0  0  0  0  0  0  0  0
    3.4961   67.9830   63.2861 H   0  0  0  0  0  0  0  0  0  0  0  0
    2.8042   67.3405   61.7580 H   0  0  0  0  0  0  0  0  0  0  0  0
    3.6793   68.9092   61.7580 H   0  0  0  0  0  0  0  0  0  0  0  0
   -0.1547   69.9949   61.9925 H   0  0  0  0  0  0  0  0  0  0  0  0
  2  1  2  0
  3  2  1  0
  4  3  1  0
  5  4  1  0
  6  5  2  0
  7  5  1  0
  8  7  2  0
  9  7  1  0
  9  3  2  0
 10  9  1  0
 11 10  2  0
 11  1  1  0
 12  6  1  0
 13 12  1  0
 14 13  1  0
 15 14  1  0
 16 15  1  0
 17 16  1  0
 17 12  1  0
 18 15  1  0
 19 18  1  0
 20 19  2  0
 21 20  1  0
 22 21  2  0
 23 22  1  0
 24 23  2  0
 24 19  1  0
 26 25  1  0
 26  1  1  0
 27 11  1  0
  2 28  1  0
  4 29  1  0
  4 30  1  0
  6 31  1  0
 10 32  1  0
 12 33  1  0
 13 34  1  0
 13 35  1  0
 14 36  1  0
 14 37  1  0
 15 38  1  0
 16 39  1  0
 16 40  1  0
 17 41  1  0
 17 42  1  0
 18 43  1  0
 18 44  1  0
 20 45  1  0
 21 46  1  0
 22 47  1  0
 23 48  1  0
 24 49  1  0
 25 50  1  0
 25 51  1  0
 25 52  1  0
 27 53  1  0
M  CHG  1  15   1
M  END
>  <score>  (4) 
-9.593

$$$$
=
     RDKit          3D

 53 56  0  0  0  0  0  0  0  0999 V2000
    1.6700   68.9810   61.9730 C   0  0  0  0  0  0  0  0  0  0  0  0
    1.9790   68.4190   63.2200 C   0  0  0  0  0  0  0  0  0  0  0  0
    0.9910   68.3840   64.1970 C   0  0  0  0  0  0  0  0  0  0  0  0
    1.0860   67.8360   65.5900 C   0  0  0  0  0  0  0  0  0  0  0  0
   -0.2840   68.0760   66.1750 C   0  0  0  0  0  0  0  0  0  0  0  0
   -0.8280   67.8160   67.3750 C   0  0  0  0  0  0  0  0  0  0  0  0
   -1.1210   68.7380   65.1140 C   0  0  0  0  0  0  0  0  0  0  0  0
   -2.2840   69.0740   65.2130 O   0  0  0  0  0  0  0  0  0  0  0  0
   -0.2760   68.8990   63.9310 C   0  0  0  0  0  0  0  0  0  0  0  0
   -0.6190   69.4600   62.7160 C   0  0  0  0  0  0  0  0  0  0  0  0
    0.3710   69.4930   61.7380 C   0  0  0  0  0  0  0  0  0  0  0  0
   -0.2670   67.1760   68.6220 C   0  0  0  0  0  0  0  0  0  0  0  0
   -0.8240   65.7500   68.7520 C   0  0  0  0  0  0  0  0  0  0  0  0
   -0.3890   65.0820   70.0490 C   0  0  0  0  0  0  0  0  0  0  0  0
    1.1170   65.0930   70.1470 N   0  0  0  0  0  4  0  0  0  0  0  0
    1.6810   66.4870   70.0720 C   0  0  0  0  0  0  0  0  0  0  0  0
    1.2580   67.1450   68.7650 C   0  0  0  0  0  0  0  0  0  0  0  0
    1.6230   64.3610   71.3770 C   0  0  0  0  0  0  0  0  0  0  0  0
    2.5510   63.2250   71.0470 C   0  0  0  0  0  0  0  0  0  0  0  0
    3.8670   63.4770   70.6290 C   0  0  0  0  0  0  0  0  0  0  0  0
    4.7350   62.4190   70.3510 C   0  0  0  0  0  0  0  0  0  0  0  0
    4.2980   61.1040   70.4850 C   0  0  0  0  0  0  0  0  0  0  0  0
    2.9920   60.8400   70.8930 C   0  0  0  0  0  0  0  0  0  0  0  0
    2.1200   61.8940   71.1730 C   0  0  0  0  0  0  0  0  0  0  0  0
    3.8950   68.6930   61.1450 C   0  0  0  0  0  0  0  0  0  0  0  0
    2.5470   69.0790   60.9240 O   0  0  0  0  0  0  0  0  0  0  0  0
    0.0910   70.0370   60.5110 O   0  0  0  0  0  0  0  0  0  0  0  0
    2.9820   68.0144   63.4207 H   0  0  0  0  0  0  0  0  0  0  0  0
    1.3198   66.7613   65.5716 H   0  0  0  0  0  0  0  0  0  0  0  0
    1.8848   68.3125   66.1772 H   0  0  0  0  0  0  0  0  0  0  0  0
   -1.8790   68.1276   67.4665 H   0  0  0  0  0  0  0  0  0  0  0  0
   -1.6262   69.8614   62.5303 H   0  0  0  0  0  0  0  0  0  0  0  0
   -0.5960   67.8363   69.4379 H   0  0  0  0  0  0  0  0  0  0  0  0
   -1.9228   65.7946   68.7270 H   0  0  0  0  0  0  0  0  0  0  0  0
   -0.4300   65.1545   67.9152 H   0  0  0  0  0  0  0  0  0  0  0  0
   -0.8149   65.6293   70.9028 H   0  0  0  0  0  0  0  0  0  0  0  0
   -0.7471   64.0420   70.0609 H   0  0  0  0  0  0  0  0  0  0  0  0
    1.4600   64.5768   69.3243 H   0  0  0  0  0  0  0  0  0  0  0  0
    1.3034   67.0797   70.9182 H   0  0  0  0  0  0  0  0  0  0  0  0
    2.7790   66.4374   70.1150 H   0  0  0  0  0  0  0  0  0  0  0  0
    1.6404   68.1762   68.7434 H   0  0  0  0  0  0  0  0  0  0  0  0
    1.6717   66.5574   67.9322 H   0  0  0  0  0  0  0  0  0  0  0  0
    2.1605   65.0782   72.0148 H   0  0  0  0  0  0  0  0  0  0  0  0
    0.7477   63.9321   71.8867 H   0  0  0  0  0  0  0  0  0  0  0  0
    4.2167   64.5142   70.5197 H   0  0  0  0  0  0  0  0  0  0  0  0
    5.7654   62.6249   70.0257 H   0  0  0  0  0  0  0  0  0  0  0  0
    4.9846   60.2723   70.2685 H   0  0  0  0  0  0  0  0  0  0  0  0
    2.6477   59.8002   70.9946 H   0  0  0  0  0  0  0  0  0  0  0  0
    1.0897   61.6808   71.4941 H   0  0  0  0  0  0  0  0  0  0  0  0
    4.0880   68.6377   62.2265 H   0  0  0  0  0  0  0  0  0  0  0  0
    4.0736   67.7076   60.6899 H   0  0  0  0  0  0  0  0  0  0  0  0
    4.5681   69.4345   60.6899 H   0  0  0  0  0  0  0  0  0  0  0  0
    0.7899   70.0640   59.8104 H   0  0  0  0  0  0  0  0  0  0  0  0
  2  1  2  0
  3  2  1  0
  4  3  1  0
  5  4  1  0
  6  5  2  0
  7  5  1  0
  8  7  2  0
  9  7  1  0
  9  3  2  0
 10  9  1  0
 11 10  2  0
 11  1  1  0
 12  6  1  0
 13 12  1  0
 14 13  1  0
 15 14  1  0
 16 15  1  0
 17 16  1  0
 17 12  1  0
 18 15  1  0
 19 18  1  0
 20 19  2  0
 21 20  1  0
 22 21  2  0
 23 22  1  0
 24 23  2  0
 24 19  1  0
 26 25  1  0
 26  1  1  0
 27 11  1  0
  2 28  1  0
  4 29  1  0
  4 30  1  0
  6 31  1  0
 10 32  1  0
 12 33  1  0
 13 34  1  0
 13 35  1  0
 14 36  1  0
 14 37  1  0
 15 38  1  0
 16 39  1  0
 16 40  1  0
 17 41  1  0
 17 42  1  0
 18 43  1  0
 18 44  1  0
 20 45  1  0
 21 46  1  0
 22 47  1  0
 23 48  1  0
 24 49  1  0
 25 50  1  0
 25 51  1  0
 25 52  1  0
 27 53  1  0
M  CHG  1  15   1
M  END
>  <score>  (5) 
-9.583

$$$$
=
     RDKit          3D

 53 56  0  0  0  0  0  0  0  0999 V2000
   -3.2340   58.8600   75.1450 C   0  0  0  0  0  0  0  0  0  0  0  0
   -2.8990   60.1290   74.6510 C   0  0  0  0  0  0  0  0  0  0  0  0
   -1.6750   60.2930   74.0150 C   0  0  0  0  0  0  0  0  0  0  0  0
   -1.1050   61.5420   73.4100 C   0  0  0  0  0  0  0  0  0  0  0  0
    0.2390   61.1130   72.8750 C   0  0  0  0  0  0  0  0  0  0  0  0
    1.2220   61.7650   72.2330 C   0  0  0  0  0  0  0  0  0  0  0  0
    0.4000   59.6470   73.1760 C   0  0  0  0  0  0  0  0  0  0  0  0
    1.3510   58.9490   72.8870 O   0  0  0  0  0  0  0  0  0  0  0  0
   -0.8070   59.2110   73.8770 C   0  0  0  0  0  0  0  0  0  0  0  0
   -1.1010   57.9470   74.3490 C   0  0  0  0  0  0  0  0  0  0  0  0
   -2.3290   57.7840   74.9850 C   0  0  0  0  0  0  0  0  0  0  0  0
    1.3620   63.2030   71.7940 C   0  0  0  0  0  0  0  0  0  0  0  0
    2.0770   63.2480   70.4340 C   0  0  0  0  0  0  0  0  0  0  0  0
    2.3550   64.6750   69.9820 C   0  0  0  0  0  0  0  0  0  0  0  0
    1.0660   65.4590   69.9490 N   0  0  0  0  0  4  0  0  0  0  0  0
    0.3730   65.4690   71.2860 C   0  0  0  0  0  0  0  0  0  0  0  0
    0.0810   64.0400   71.7270 C   0  0  0  0  0  0  0  0  0  0  0  0
    1.2580   66.8690   69.4200 C   0  0  0  0  0  0  0  0  0  0  0  0
    0.1710   67.2960   68.4730 C   0  0  0  0  0  0  0  0  0  0  0  0
   -1.0300   66.5740   68.3930 C   0  0  0  0  0  0  0  0  0  0  0  0
   -2.0490   66.9910   67.5330 C   0  0  0  0  0  0  0  0  0  0  0  0
   -1.8780   68.1280   66.7480 C   0  0  0  0  0  0  0  0  0  0  0  0
   -0.6890   68.8500   66.8140 C   0  0  0  0  0  0  0  0  0  0  0  0
    0.3330   68.4380   67.6720 C   0  0  0  0  0  0  0  0  0  0  0  0
   -5.6120   58.6180   75.0420 C   0  0  0  0  0  0  0  0  0  0  0  0
   -4.4060   58.5600   75.7910 O   0  0  0  0  0  0  0  0  0  0  0  0
   -2.6780   56.5520   75.4750 O   0  0  0  0  0  0  0  0  0  0  0  0
   -3.5909   60.9766   74.7647 H   0  0  0  0  0  0  0  0  0  0  0  0
   -1.7486   61.9111   72.5979 H   0  0  0  0  0  0  0  0  0  0  0  0
   -1.0268   62.3646   74.1361 H   0  0  0  0  0  0  0  0  0  0  0  0
    2.0865   61.1337   71.9797 H   0  0  0  0  0  0  0  0  0  0  0  0
   -0.3987   57.1090   74.2283 H   0  0  0  0  0  0  0  0  0  0  0  0
    1.9459   63.6770   72.5967 H   0  0  0  0  0  0  0  0  0  0  0  0
    3.0325   62.7095   70.5173 H   0  0  0  0  0  0  0  0  0  0  0  0
    1.4186   62.7780   69.6886 H   0  0  0  0  0  0  0  0  0  0  0  0
    3.0546   65.1513   70.6847 H   0  0  0  0  0  0  0  0  0  0  0  0
    2.7968   64.6583   68.9747 H   0  0  0  0  0  0  0  0  0  0  0  0
    0.4506   64.9673   69.2854 H   0  0  0  0  0  0  0  0  0  0  0  0
    1.0214   65.9554   72.0297 H   0  0  0  0  0  0  0  0  0  0  0  0
   -0.5734   66.0231   71.2003 H   0  0  0  0  0  0  0  0  0  0  0  0
   -0.3853   64.0611   72.7231 H   0  0  0  0  0  0  0  0  0  0  0  0
   -0.5941   63.5812   70.9896 H   0  0  0  0  0  0  0  0  0  0  0  0
    1.2727   67.5639   70.2725 H   0  0  0  0  0  0  0  0  0  0  0  0
    2.2051   66.8837   68.8608 H   0  0  0  0  0  0  0  0  0  0  0  0
   -1.1697   65.6748   69.0109 H   0  0  0  0  0  0  0  0  0  0  0  0
   -2.9876   66.4202   67.4760 H   0  0  0  0  0  0  0  0  0  0  0  0
   -2.6833   68.4566   66.0746 H   0  0  0  0  0  0  0  0  0  0  0  0
   -0.5547   69.7457   66.1897 H   0  0  0  0  0  0  0  0  0  0  0  0
    1.2704   69.0114   67.7207 H   0  0  0  0  0  0  0  0  0  0  0  0
   -6.4693   58.6592   75.7300 H   0  0  0  0  0  0  0  0  0  0  0  0
   -5.6070   59.5169   74.4081 H   0  0  0  0  0  0  0  0  0  0  0  0
   -5.6933   57.7227   74.4081 H   0  0  0  0  0  0  0  0  0  0  0  0
   -3.5493   56.4283   75.9284 H   0  0  0  0  0  0  0  0  0  0  0  0
  2  1  2  0
  3  2  1  0
  4  3  1  0
  5  4  1  0
  6  5  2  0
  7  5  1  0
  8  7  2  0
  9  7  1  0
  9  3  2  0
 10  9  1  0
 11 10  2  0
 11  1  1  0
 12  6  1  0
 13 12  1  0
 14 13  1  0
 15 14  1  0
 16 15  1  0
 17 16  1  0
 17 12  1  0
 18 15  1  0
 19 18  1  0
 20 19  2  0
 21 20  1  0
 22 21  2  0
 23 22  1  0
 24 23  2  0
 24 19  1  0
 26 25  1  0
 26  1  1  0
 27 11  1  0
  2 28  1  0
  4 29  1  0
  4 30  1  0
  6 31  1  0
 10 32  1  0
 12 33  1  0
 13 34  1  0
 13 35  1  0
 14 36  1  0
 14 37  1  0
 15 38  1  0
 16 39  1  0
 16 40  1  0
 17 41  1  0
 17 42  1  0
 18 43  1  0
 18 44  1  0
 20 45  1  0
 21 46  1  0
 22 47  1  0
 23 48  1  0
 24 49  1  0
 25 50  1  0
 25 51  1  0
 25 52  1  0
 27 53  1  0
M  CHG  1  15   1
M  END
>  <score>  (6) 
-9.146

$$$$
=
     RDKit          3D

 53 56  0  0  0  0  0  0  0  0999 V2000
    2.2330   68.3200   62.7470 C   0  0  0  0  0  0  0  0  0  0  0  0
    2.5650   67.6760   63.9470 C   0  0  0  0  0  0  0  0  0  0  0  0
    1.6770   67.7570   65.0140 C   0  0  0  0  0  0  0  0  0  0  0  0
    1.8150   67.1540   66.3800 C   0  0  0  0  0  0  0  0  0  0  0  0
    0.5580   67.5780   67.0990 C   0  0  0  0  0  0  0  0  0  0  0  0
    0.0920   67.3630   68.3400 C   0  0  0  0  0  0  0  0  0  0  0  0
   -0.2610   68.3960   66.1360 C   0  0  0  0  0  0  0  0  0  0  0  0
   -1.3440   68.9010   66.3530 O   0  0  0  0  0  0  0  0  0  0  0  0
    0.4860   68.4670   64.8810 C   0  0  0  0  0  0  0  0  0  0  0  0
    0.1230   69.1140   63.7170 C   0  0  0  0  0  0  0  0  0  0  0  0
    1.0130   69.0310   62.6480 C   0  0  0  0  0  0  0  0  0  0  0  0
    0.6610   66.6030   69.5140 C   0  0  0  0  0  0  0  0  0  0  0  0
   -0.4930   66.1100   70.4020 C   0  0  0  0  0  0  0  0  0  0  0  0
    0.0110   65.4320   71.6690 C   0  0  0  0  0  0  0  0  0  0  0  0
    0.9430   64.3020   71.3050 N   0  0  0  0  0  4  0  0  0  0  0  0
    2.1090   64.7720   70.4760 C   0  0  0  0  0  0  0  0  0  0  0  0
    1.6010   65.4350   69.2010 C   0  0  0  0  0  0  0  0  0  0  0  0
    1.4130   63.5240   72.5210 C   0  0  0  0  0  0  0  0  0  0  0  0
    0.2940   62.8220   73.2400 C   0  0  0  0  0  0  0  0  0  0  0  0
   -0.5250   61.9050   72.5630 C   0  0  0  0  0  0  0  0  0  0  0  0
   -1.5450   61.2340   73.2420 C   0  0  0  0  0  0  0  0  0  0  0  0
   -1.7570   61.4740   74.5970 C   0  0  0  0  0  0  0  0  0  0  0  0
   -0.9560   62.3870   75.2780 C   0  0  0  0  0  0  0  0  0  0  0  0
    0.0660   63.0600   74.6050 C   0  0  0  0  0  0  0  0  0  0  0  0
    4.2100   67.5540   61.6400 C   0  0  0  0  0  0  0  0  0  0  0  0
    3.0140   68.3200   61.6210 O   0  0  0  0  0  0  0  0  0  0  0  0
    0.7070   69.6520   61.4650 O   0  0  0  0  0  0  0  0  0  0  0  0
    3.5083   67.1182   64.0426 H   0  0  0  0  0  0  0  0  0  0  0  0
    1.8783   66.0576   66.3181 H   0  0  0  0  0  0  0  0  0  0  0  0
    2.7283   67.4842   66.8966 H   0  0  0  0  0  0  0  0  0  0  0  0
   -0.8857   67.8266   68.5379 H   0  0  0  0  0  0  0  0  0  0  0  0
   -0.8236   69.6686   63.6371 H   0  0  0  0  0  0  0  0  0  0  0  0
    1.3077   67.3330   70.0229 H   0  0  0  0  0  0  0  0  0  0  0  0
   -1.1167   66.9710   70.6841 H   0  0  0  0  0  0  0  0  0  0  0  0
   -1.0710   65.3707   69.8282 H   0  0  0  0  0  0  0  0  0  0  0  0
    0.5496   66.1656   72.2868 H   0  0  0  0  0  0  0  0  0  0  0  0
   -0.8444   65.0314   72.2328 H   0  0  0  0  0  0  0  0  0  0  0  0
    0.3919   63.6541   70.7241 H   0  0  0  0  0  0  0  0  0  0  0  0
    2.6998   65.4974   71.0546 H   0  0  0  0  0  0  0  0  0  0  0  0
    2.7381   63.9093   70.2114 H   0  0  0  0  0  0  0  0  0  0  0  0
    2.4603   65.8114   68.6266 H   0  0  0  0  0  0  0  0  0  0  0  0
    1.0413   64.6863   68.6212 H   0  0  0  0  0  0  0  0  0  0  0  0
    2.1455   62.7715   72.1937 H   0  0  0  0  0  0  0  0  0  0  0  0
    1.8522   64.2472   73.2239 H   0  0  0  0  0  0  0  0  0  0  0  0
   -0.3629   61.7136   71.4920 H   0  0  0  0  0  0  0  0  0  0  0  0
   -2.1815   60.5151   72.7054 H   0  0  0  0  0  0  0  0  0  0  0  0
   -2.5584   60.9416   75.1303 H   0  0  0  0  0  0  0  0  0  0  0  0
   -1.1284   62.5784   76.3474 H   0  0  0  0  0  0  0  0  0  0  0  0
    0.6959   63.7806   75.1472 H   0  0  0  0  0  0  0  0  0  0  0  0
    4.5071   67.3637   62.6819 H   0  0  0  0  0  0  0  0  0  0  0  0
    4.0402   66.5962   61.1264 H   0  0  0  0  0  0  0  0  0  0  0  0
    5.0090   68.1088   61.1264 H   0  0  0  0  0  0  0  0  0  0  0  0
    1.3340   69.5978   60.7008 H   0  0  0  0  0  0  0  0  0  0  0  0
  2  1  2  0
  3  2  1  0
  4  3  1  0
  5  4  1  0
  6  5  2  0
  7  5  1  0
  8  7  2  0
  9  7  1  0
  9  3  2  0
 10  9  1  0
 11 10  2  0
 11  1  1  0
 12  6  1  0
 13 12  1  0
 14 13  1  0
 15 14  1  0
 16 15  1  0
 17 16  1  0
 17 12  1  0
 18 15  1  0
 19 18  1  0
 20 19  2  0
 21 20  1  0
 22 21  2  0
 23 22  1  0
 24 23  2  0
 24 19  1  0
 26 25  1  0
 26  1  1  0
 27 11  1  0
  2 28  1  0
  4 29  1  0
  4 30  1  0
  6 31  1  0
 10 32  1  0
 12 33  1  0
 13 34  1  0
 13 35  1  0
 14 36  1  0
 14 37  1  0
 15 38  1  0
 16 39  1  0
 16 40  1  0
 17 41  1  0
 17 42  1  0
 18 43  1  0
 18 44  1  0
 20 45  1  0
 21 46  1  0
 22 47  1  0
 23 48  1  0
 24 49  1  0
 25 50  1  0
 25 51  1  0
 25 52  1  0
 27 53  1  0
M  CHG  1  15   1
M  END
>  <score>  (7) 
-8.743

$$$$
=
     RDKit          3D

 53 56  0  0  0  0  0  0  0  0999 V2000
   -6.3900   60.4110   74.8760 C   0  0  0  0  0  0  0  0  0  0  0  0
   -5.1030   60.8060   74.4840 C   0  0  0  0  0  0  0  0  0  0  0  0
   -4.0470   59.9250   74.6820 C   0  0  0  0  0  0  0  0  0  0  0  0
   -2.5990   60.1240   74.3440 C   0  0  0  0  0  0  0  0  0  0  0  0
   -1.9380   58.8420   74.7870 C   0  0  0  0  0  0  0  0  0  0  0  0
   -0.6670   58.4070   74.7600 C   0  0  0  0  0  0  0  0  0  0  0  0
   -3.0100   57.9500   75.3530 C   0  0  0  0  0  0  0  0  0  0  0  0
   -2.8600   56.8300   75.8000 O   0  0  0  0  0  0  0  0  0  0  0  0
   -4.2750   58.6770   75.2600 C   0  0  0  0  0  0  0  0  0  0  0  0
   -5.5270   58.2520   75.6590 C   0  0  0  0  0  0  0  0  0  0  0  0
   -6.5840   59.1360   75.4580 C   0  0  0  0  0  0  0  0  0  0  0  0
    0.6090   59.0470   74.2680 C   0  0  0  0  0  0  0  0  0  0  0  0
    1.6610   57.9530   74.0260 C   0  0  0  0  0  0  0  0  0  0  0  0
    3.0120   58.5370   73.6370 C   0  0  0  0  0  0  0  0  0  0  0  0
    2.8550   59.4230   72.4260 N   0  0  0  0  0  4  0  0  0  0  0  0
    1.8640   60.5320   72.6590 C   0  0  0  0  0  0  0  0  0  0  0  0
    0.5090   59.9440   73.0310 C   0  0  0  0  0  0  0  0  0  0  0  0
    4.1830   59.9670   71.9290 C   0  0  0  0  0  0  0  0  0  0  0  0
    4.0270   61.0670   70.9160 C   0  0  0  0  0  0  0  0  0  0  0  0
    3.1900   60.8990   69.8020 C   0  0  0  0  0  0  0  0  0  0  0  0
    3.0260   61.9340   68.8800 C   0  0  0  0  0  0  0  0  0  0  0  0
    3.6950   63.1420   69.0590 C   0  0  0  0  0  0  0  0  0  0  0  0
    4.5330   63.3190   70.1570 C   0  0  0  0  0  0  0  0  0  0  0  0
    4.7010   62.2880   71.0830 C   0  0  0  0  0  0  0  0  0  0  0  0
   -8.0480   61.3530   73.4330 C   0  0  0  0  0  0  0  0  0  0  0  0
   -7.5170   61.1800   74.7390 O   0  0  0  0  0  0  0  0  0  0  0  0
   -7.8510   58.7690   75.8330 O   0  0  0  0  0  0  0  0  0  0  0  0
   -4.9329   61.7930   74.0291 H   0  0  0  0  0  0  0  0  0  0  0  0
   -2.4680   60.2775   73.2627 H   0  0  0  0  0  0  0  0  0  0  0  0
   -2.1695   61.0111   74.8325 H   0  0  0  0  0  0  0  0  0  0  0  0
   -0.5307   57.3967   75.1732 H   0  0  0  0  0  0  0  0  0  0  0  0
   -5.6818   57.2625   76.1138 H   0  0  0  0  0  0  0  0  0  0  0  0
    0.8936   59.7398   75.0736 H   0  0  0  0  0  0  0  0  0  0  0  0
    1.7805   57.3650   74.9480 H   0  0  0  0  0  0  0  0  0  0  0  0
    1.3111   57.3231   73.1949 H   0  0  0  0  0  0  0  0  0  0  0  0
    3.4086   59.1298   74.4745 H   0  0  0  0  0  0  0  0  0  0  0  0
    3.7077   57.7183   73.4009 H   0  0  0  0  0  0  0  0  0  0  0  0
    2.4760   58.8222   71.6801 H   0  0  0  0  0  0  0  0  0  0  0  0
    2.2205   61.1742   73.4778 H   0  0  0  0  0  0  0  0  0  0  0  0
    1.7616   61.1265   71.7392 H   0  0  0  0  0  0  0  0  0  0  0  0
   -0.1921   60.7653   73.2404 H   0  0  0  0  0  0  0  0  0  0  0  0
    0.1541   59.3327   72.1882 H   0  0  0  0  0  0  0  0  0  0  0  0
    4.7444   60.3602   72.7893 H   0  0  0  0  0  0  0  0  0  0  0  0
    4.7130   59.1390   71.4355 H   0  0  0  0  0  0  0  0  0  0  0  0
    2.6603   59.9463   69.6547 H   0  0  0  0  0  0  0  0  0  0  0  0
    2.3670   61.7951   68.0103 H   0  0  0  0  0  0  0  0  0  0  0  0
    3.5614   63.9571   68.3325 H   0  0  0  0  0  0  0  0  0  0  0  0
    5.0634   64.2728   70.2949 H   0  0  0  0  0  0  0  0  0  0  0  0
    5.3648   62.4325   71.9481 H   0  0  0  0  0  0  0  0  0  0  0  0
   -9.0917   61.6930   73.5036 H   0  0  0  0  0  0  0  0  0  0  0  0
   -7.4535   62.1039   72.8920 H   0  0  0  0  0  0  0  0  0  0  0  0
   -8.0100   60.3960   72.8920 H   0  0  0  0  0  0  0  0  0  0  0  0
   -8.6082   59.3913   75.6937 H   0  0  0  0  0  0  0  0  0  0  0  0
  2  1  2  0
  3  2  1  0
  4  3  1  0
  5  4  1  0
  6  5  2  0
  7  5  1  0
  8  7  2  0
  9  7  1  0
  9  3  2  0
 10  9  1  0
 11 10  2  0
 11  1  1  0
 12  6  1  0
 13 12  1  0
 14 13  1  0
 15 14  1  0
 16 15  1  0
 17 16  1  0
 17 12  1  0
 18 15  1  0
 19 18  1  0
 20 19  2  0
 21 20  1  0
 22 21  2  0
 23 22  1  0
 24 23  2  0
 24 19  1  0
 26 25  1  0
 26  1  1  0
 27 11  1  0
  2 28  1  0
  4 29  1  0
  4 30  1  0
  6 31  1  0
 10 32  1  0
 12 33  1  0
 13 34  1  0
 13 35  1  0
 14 36  1  0
 14 37  1  0
 15 38  1  0
 16 39  1  0
 16 40  1  0
 17 41  1  0
 17 42  1  0
 18 43  1  0
 18 44  1  0
 20 45  1  0
 21 46  1  0
 22 47  1  0
 23 48  1  0
 24 49  1  0
 25 50  1  0
 25 51  1  0
 25 52  1  0
 27 53  1  0
M  CHG  1  15   1
M  END
>  <score>  (8) 
-8.672

$$$$
=
     RDKit          3D

 53 56  0  0  0  0  0  0  0  0999 V2000
    3.1880   61.7550   70.8980 C   0  0  0  0  0  0  0  0  0  0  0  0
    1.8980   62.1660   71.2630 C   0  0  0  0  0  0  0  0  0  0  0  0
    1.1360   61.3280   72.0680 C   0  0  0  0  0  0  0  0  0  0  0  0
   -0.2550   61.5530   72.5830 C   0  0  0  0  0  0  0  0  0  0  0  0
   -0.5540   60.3140   73.3910 C   0  0  0  0  0  0  0  0  0  0  0  0
   -1.6250   59.9120   74.0940 C   0  0  0  0  0  0  0  0  0  0  0  0
    0.6600   59.4260   73.3260 C   0  0  0  0  0  0  0  0  0  0  0  0
    0.7970   58.3460   73.8630 O   0  0  0  0  0  0  0  0  0  0  0  0
    1.6530   60.1080   72.4970 C   0  0  0  0  0  0  0  0  0  0  0  0
    2.9180   59.6680   72.1600 C   0  0  0  0  0  0  0  0  0  0  0  0
    3.6820   60.5100   71.3540 C   0  0  0  0  0  0  0  0  0  0  0  0
   -2.9660   60.5580   74.3490 C   0  0  0  0  0  0  0  0  0  0  0  0
   -3.9830   59.4730   74.7390 C   0  0  0  0  0  0  0  0  0  0  0  0
   -5.3870   60.0370   74.9000 C   0  0  0  0  0  0  0  0  0  0  0  0
   -5.3720   61.1610   75.9070 N   0  0  0  0  0  4  0  0  0  0  0  0
   -4.4180   62.2590   75.5190 C   0  0  0  0  0  0  0  0  0  0  0  0
   -3.0110   61.6940   75.3750 C   0  0  0  0  0  0  0  0  0  0  0  0
   -6.7600   61.7110   76.1830 C   0  0  0  0  0  0  0  0  0  0  0  0
   -7.4110   62.3070   74.9660 C   0  0  0  0  0  0  0  0  0  0  0  0
   -7.9940   61.4820   73.9910 C   0  0  0  0  0  0  0  0  0  0  0  0
   -8.6220   62.0410   72.8770 C   0  0  0  0  0  0  0  0  0  0  0  0
   -8.6720   63.4240   72.7240 C   0  0  0  0  0  0  0  0  0  0  0  0
   -8.0910   64.2540   73.6800 C   0  0  0  0  0  0  0  0  0  0  0  0
   -7.4620   63.7000   74.7970 C   0  0  0  0  0  0  0  0  0  0  0  0
    3.6820   62.6950   68.7550 C   0  0  0  0  0  0  0  0  0  0  0  0
    4.0440   62.4820   70.1120 O   0  0  0  0  0  0  0  0  0  0  0  0
    4.9460   60.1290   70.9870 O   0  0  0  0  0  0  0  0  0  0  0  0
    1.4978   63.1313   70.9194 H   0  0  0  0  0  0  0  0  0  0  0  0
   -0.2962   62.4514   73.2163 H   0  0  0  0  0  0  0  0  0  0  0  0
   -0.9831   61.7154   71.7746 H   0  0  0  0  0  0  0  0  0  0  0  0
   -1.5029   58.9295   74.5733 H   0  0  0  0  0  0  0  0  0  0  0  0
    3.3040   58.6995   72.5109 H   0  0  0  0  0  0  0  0  0  0  0  0
   -3.2144   61.0516   73.3979 H   0  0  0  0  0  0  0  0  0  0  0  0
   -3.9980   58.7022   73.9543 H   0  0  0  0  0  0  0  0  0  0  0  0
   -3.6741   59.0508   75.7067 H   0  0  0  0  0  0  0  0  0  0  0  0
   -5.7408   60.4190   73.9310 H   0  0  0  0  0  0  0  0  0  0  0  0
   -6.0605   59.2418   75.2521 H   0  0  0  0  0  0  0  0  0  0  0  0
   -5.0282   60.7504   76.7868 H   0  0  0  0  0  0  0  0  0  0  0  0
   -4.7354   62.6968   74.5611 H   0  0  0  0  0  0  0  0  0  0  0  0
   -4.4197   63.0339   76.2997 H   0  0  0  0  0  0  0  0  0  0  0  0
   -2.3345   62.4977   75.0487 H   0  0  0  0  0  0  0  0  0  0  0  0
   -2.6986   61.2918   76.3500 H   0  0  0  0  0  0  0  0  0  0  0  0
   -7.3939   60.8918   76.5534 H   0  0  0  0  0  0  0  0  0  0  0  0
   -6.6522   62.5161   76.9248 H   0  0  0  0  0  0  0  0  0  0  0  0
   -7.9556   60.3887   74.1058 H   0  0  0  0  0  0  0  0  0  0  0  0
   -9.0782   61.3878   72.1186 H   0  0  0  0  0  0  0  0  0  0  0  0
   -9.1710   63.8618   71.8469 H   0  0  0  0  0  0  0  0  0  0  0  0
   -8.1277   65.3463   73.5550 H   0  0  0  0  0  0  0  0  0  0  0  0
   -7.0037   64.3590   75.5491 H   0  0  0  0  0  0  0  0  0  0  0  0
    2.7347   63.2524   68.7114 H   0  0  0  0  0  0  0  0  0  0  0  0
    4.4710   63.2729   68.2514 H   0  0  0  0  0  0  0  0  0  0  0  0
    3.5600   61.7247   68.2514 H   0  0  0  0  0  0  0  0  0  0  0  0
    5.4950   60.7215   70.4146 H   0  0  0  0  0  0  0  0  0  0  0  0
  2  1  2  0
  3  2  1  0
  4  3  1  0
  5  4  1  0
  6  5  2  0
  7  5  1  0
  8  7  2  0
  9  7  1  0
  9  3  2  0
 10  9  1  0
 11 10  2  0
 11  1  1  0
 12  6  1  0
 13 12  1  0
 14 13  1  0
 15 14  1  0
 16 15  1  0
 17 16  1  0
 17 12  1  0
 18 15  1  0
 19 18  1  0
 20 19  2  0
 21 20  1  0
 22 21  2  0
 23 22  1  0
 24 23  2  0
 24 19  1  0
 26 25  1  0
 26  1  1  0
 27 11  1  0
  2 28  1  0
  4 29  1  0
  4 30  1  0
  6 31  1  0
 10 32  1  0
 12 33  1  0
 13 34  1  0
 13 35  1  0
 14 36  1  0
 14 37  1  0
 15 38  1  0
 16 39  1  0
 16 40  1  0
 17 41  1  0
 17 42  1  0
 18 43  1  0
 18 44  1  0
 20 45  1  0
 21 46  1  0
 22 47  1  0
 23 48  1  0
 24 49  1  0
 25 50  1  0
 25 51  1  0
 25 52  1  0
 27 53  1  0
M  CHG  1  15   1
M  END
>  <score>  (9) 
-8.601

$$$$
