=
     RDKit          3D

 27 28  0  0  0  0  0  0  0  0999 V2000
    1.2100   63.0680   69.9720 O   0  0  0  0  0  0  0  0  0  0  0  0
    2.2520   62.4320   69.9930 C   0  0  0  0  0  0  0  0  0  0  0  0
    3.0460   62.0290   68.7670 C   0  0  0  0  0  0  0  0  0  0  0  0
    4.1530   61.2070   69.4730 C   0  0  1  0  0  0  0  0  0  0  0  0
    4.4350   61.9930   70.7840 C   0  0  0  0  0  0  0  0  0  0  0  0
    2.9540   61.8900   71.2430 C   0  0  1  0  0  0  0  0  0  0  0  0
    2.5650   62.5760   72.5310 C   0  0  0  0  0  0  0  0  0  0  0  0
    2.6530   60.3750   71.1890 C   0  0  0  0  0  0  0  0  0  0  0  0
    3.4970   59.8990   69.9850 C   0  0  0  0  0  0  0  0  0  0  0  0
    5.4530   61.3060   71.7140 C   0  0  0  0  0  0  0  0  0  0  0  0
    4.9430   63.4330   70.5650 C   0  0  0  0  0  0  0  0  0  0  0  0
    2.4534   61.4158   68.0721 H   0  0  0  0  0  0  0  0  0  0  0  0
    3.3958   62.8552   68.1306 H   0  0  0  0  0  0  0  0  0  0  0  0
    5.0215   61.0321   68.8210 H   0  0  0  0  0  0  0  0  0  0  0  0
    2.9068   61.9732   73.3852 H   0  0  0  0  0  0  0  0  0  0  0  0
    3.0337   63.5703   72.5729 H   0  0  0  0  0  0  0  0  0  0  0  0
    1.4711   62.6842   72.5729 H   0  0  0  0  0  0  0  0  0  0  0  0
    2.9692   59.8752   72.1165 H   0  0  0  0  0  0  0  0  0  0  0  0
    1.5816   60.1480   71.0858 H   0  0  0  0  0  0  0  0  0  0  0  0
    2.8596   59.4479   69.2102 H   0  0  0  0  0  0  0  0  0  0  0  0
    4.2308   59.1242   70.2520 H   0  0  0  0  0  0  0  0  0  0  0  0
    5.1763   61.4927   72.7621 H   0  0  0  0  0  0  0  0  0  0  0  0
    5.4524   60.2229   71.5220 H   0  0  0  0  0  0  0  0  0  0  0  0
    6.4572   61.7118   71.5220 H   0  0  0  0  0  0  0  0  0  0  0  0
    5.1127   63.9141   71.5395 H   0  0  0  0  0  0  0  0  0  0  0  0
    5.8862   63.4071   69.9997 H   0  0  0  0  0  0  0  0  0  0  0  0
    4.1923   64.0047   69.9997 H   0  0  0  0  0  0  0  0  0  0  0  0
  2  1  2  0
  3  2  1  0
  4  3  1  0
  5  4  1  0
  6  5  1  0
  6  2  1  0
  6  7  1  1
  8  6  1  0
  9  4  1  0
  9  8  1  0
 10  5  1  0
 11  5  1  0
  3 12  1  0
  3 13  1  0
  4 14  1  6
  7 15  1  0
  7 16  1  0
  7 17  1  0
  8 18  1  0
  8 19  1  0
  9 20  1  0
  9 21  1  0
 10 22  1  0
 10 23  1  0
 10 24  1  0
 11 25  1  0
 11 26  1  0
 11 27  1  0
M  END
>  <score>  (1) 
-6.744

$$$$
=
     RDKit          3D

 27 28  0  0  0  0  0  0  0  0999 V2000
    1.8990   59.7770   72.1560 O   0  0  0  0  0  0  0  0  0  0  0  0
    2.8190   60.3060   71.5530 C   0  0  0  0  0  0  0  0  0  0  0  0
    3.6380   59.6420   70.4640 C   0  0  0  0  0  0  0  0  0  0  0  0
    4.6460   60.7900   70.2060 C   0  0  1  0  0  0  0  0  0  0  0  0
    3.7930   62.0830   70.3370 C   0  0  0  0  0  0  0  0  0  0  0  0
    3.3520   61.7250   71.7830 C   0  0  1  0  0  0  0  0  0  0  0  0
    2.3860   62.6560   72.4780 C   0  0  0  0  0  0  0  0  0  0  0  0
    4.6840   61.4860   72.5300 C   0  0  0  0  0  0  0  0  0  0  0  0
    5.5830   60.8640   71.4380 C   0  0  0  0  0  0  0  0  0  0  0  0
    4.6120   63.3830   70.2120 C   0  0  0  0  0  0  0  0  0  0  0  0
    2.6400   62.1910   69.3190 C   0  0  0  0  0  0  0  0  0  0  0  0
    4.1340   58.7262   70.8180 H   0  0  0  0  0  0  0  0  0  0  0  0
    3.0741   59.2939   69.5860 H   0  0  0  0  0  0  0  0  0  0  0  0
    5.1861   60.6641   69.2560 H   0  0  0  0  0  0  0  0  0  0  0  0
    2.4951   62.5509   73.5675 H   0  0  0  0  0  0  0  0  0  0  0  0
    2.6031   63.6941   72.1862 H   0  0  0  0  0  0  0  0  0  0  0  0
    1.3566   62.4008   72.1862 H   0  0  0  0  0  0  0  0  0  0  0  0
    5.1064   62.4322   72.8992 H   0  0  0  0  0  0  0  0  0  0  0  0
    4.5756   60.8484   73.4198 H   0  0  0  0  0  0  0  0  0  0  0  0
    5.9258   59.8614   71.7334 H   0  0  0  0  0  0  0  0  0  0  0  0
    6.4974   61.4458   71.2496 H   0  0  0  0  0  0  0  0  0  0  0  0
    4.8516   63.7634   71.2159 H   0  0  0  0  0  0  0  0  0  0  0  0
    5.5443   63.1779   69.6654 H   0  0  0  0  0  0  0  0  0  0  0  0
    4.0245   64.1354   69.6654 H   0  0  0  0  0  0  0  0  0  0  0  0
    1.6841   62.2805   69.8558 H   0  0  0  0  0  0  0  0  0  0  0  0
    2.7904   63.0790   68.6875 H   0  0  0  0  0  0  0  0  0  0  0  0
    2.6229   61.2905   68.6875 H   0  0  0  0  0  0  0  0  0  0  0  0
  2  1  2  0
  3  2  1  0
  4  3  1  0
  5  4  1  0
  6  5  1  0
  6  2  1  0
  6  7  1  1
  8  6  1  0
  9  4  1  0
  9  8  1  0
 10  5  1  0
 11  5  1  0
  3 12  1  0
  3 13  1  0
  4 14  1  6
  7 15  1  0
  7 16  1  0
  7 17  1  0
  8 18  1  0
  8 19  1  0
  9 20  1  0
  9 21  1  0
 10 22  1  0
 10 23  1  0
 10 24  1  0
 11 25  1  0
 11 26  1  0
 11 27  1  0
M  END
>  <score>  (2) 
-6.487

$$$$
=
     RDKit          3D

 27 28  0  0  0  0  0  0  0  0999 V2000
    3.0570   61.8260   73.6250 O   0  0  0  0  0  0  0  0  0  0  0  0
    3.5300   61.8920   72.5020 C   0  0  0  0  0  0  0  0  0  0  0  0
    4.9670   61.5660   72.1450 C   0  0  0  0  0  0  0  0  0  0  0  0
    4.9150   61.9300   70.6400 C   0  0  1  0  0  0  0  0  0  0  0  0
    3.5090   61.4540   70.1790 C   0  0  0  0  0  0  0  0  0  0  0  0
    2.7910   62.3390   71.2360 C   0  0  1  0  0  0  0  0  0  0  0  0
    1.2850   62.2530   71.3220 C   0  0  0  0  0  0  0  0  0  0  0  0
    3.3530   63.7550   70.9790 C   0  0  0  0  0  0  0  0  0  0  0  0
    4.8090   63.4740   70.5450 C   0  0  0  0  0  0  0  0  0  0  0  0
    3.1850   61.8010   68.7130 C   0  0  0  0  0  0  0  0  0  0  0  0
    3.2690   59.9390   70.3360 C   0  0  0  0  0  0  0  0  0  0  0  0
    5.6839   62.1904   72.6984 H   0  0  0  0  0  0  0  0  0  0  0  0
    5.2982   60.5435   72.3790 H   0  0  0  0  0  0  0  0  0  0  0  0
    5.7686   61.5169   70.0825 H   0  0  0  0  0  0  0  0  0  0  0  0
    0.9785   62.2355   72.3783 H   0  0  0  0  0  0  0  0  0  0  0  0
    0.8388   63.1271   70.8252 H   0  0  0  0  0  0  0  0  0  0  0  0
    0.9413   61.3338   70.8252 H   0  0  0  0  0  0  0  0  0  0  0  0
    2.7932   64.2642   70.1807 H   0  0  0  0  0  0  0  0  0  0  0  0
    3.2804   64.4170   71.8545 H   0  0  0  0  0  0  0  0  0  0  0  0
    5.5241   63.9611   71.2243 H   0  0  0  0  0  0  0  0  0  0  0  0
    5.0429   63.8617   69.5425 H   0  0  0  0  0  0  0  0  0  0  0  0
    2.4346   62.6047   68.6837 H   0  0  0  0  0  0  0  0  0  0  0  0
    4.1010   62.1359   68.2044 H   0  0  0  0  0  0  0  0  0  0  0  0
    2.7881   60.9100   68.2044 H   0  0  0  0  0  0  0  0  0  0  0  0
    3.2285   59.6830   71.4050 H   0  0  0  0  0  0  0  0  0  0  0  0
    2.3166   59.6671   69.8575 H   0  0  0  0  0  0  0  0  0  0  0  0
    4.0907   59.3861   69.8575 H   0  0  0  0  0  0  0  0  0  0  0  0
  2  1  2  0
  3  2  1  0
  4  3  1  0
  5  4  1  0
  6  5  1  0
  6  2  1  0
  6  7  1  1
  8  6  1  0
  9  4  1  0
  9  8  1  0
 10  5  1  0
 11  5  1  0
  3 12  1  0
  3 13  1  0
  4 14  1  6
  7 15  1  0
  7 16  1  0
  7 17  1  0
  8 18  1  0
  8 19  1  0
  9 20  1  0
  9 21  1  0
 10 22  1  0
 10 23  1  0
 10 24  1  0
 11 25  1  0
 11 26  1  0
 11 27  1  0
M  END
>  <score>  (3) 
-6.263

$$$$
=
     RDKit          3D

 27 28  0  0  0  0  0  0  0  0999 V2000
    4.5940   60.1910   69.1340 O   0  0  0  0  0  0  0  0  0  0  0  0
    3.9150   61.0040   69.7400 C   0  0  0  0  0  0  0  0  0  0  0  0
    2.6250   61.6120   69.2260 C   0  0  0  0  0  0  0  0  0  0  0  0
    2.3480   62.5830   70.4010 C   0  0  1  0  0  0  0  0  0  0  0  0
    2.7900   61.7920   71.6630 C   0  0  0  0  0  0  0  0  0  0  0  0
    4.2320   61.5970   71.1170 C   0  0  1  0  0  0  0  0  0  0  0  0
    5.1970   60.7840   71.9470 C   0  0  0  0  0  0  0  0  0  0  0  0
    4.7010   63.0320   70.7860 C   0  0  0  0  0  0  0  0  0  0  0  0
    3.3990   63.7190   70.3150 C   0  0  0  0  0  0  0  0  0  0  0  0
    2.6950   62.6030   72.9700 C   0  0  0  0  0  0  0  0  0  0  0  0
    2.0090   60.4840   71.9000 C   0  0  0  0  0  0  0  0  0  0  0  0
    2.7674   62.1433   68.2734 H   0  0  0  0  0  0  0  0  0  0  0  0
    1.8195   60.8999   68.9934 H   0  0  0  0  0  0  0  0  0  0  0  0
    1.3108   62.9492   70.4025 H   0  0  0  0  0  0  0  0  0  0  0  0
    4.9954   60.9538   73.0149 H   0  0  0  0  0  0  0  0  0  0  0  0
    5.0705   59.7161   71.7153 H   0  0  0  0  0  0  0  0  0  0  0  0
    6.2279   61.0899   71.7153 H   0  0  0  0  0  0  0  0  0  0  0  0
    5.1115   63.5298   71.6768 H   0  0  0  0  0  0  0  0  0  0  0  0
    5.5057   63.0647   70.0368 H   0  0  0  0  0  0  0  0  0  0  0  0
    3.4983   64.0872   69.2832 H   0  0  0  0  0  0  0  0  0  0  0  0
    3.1331   64.5993   70.9186 H   0  0  0  0  0  0  0  0  0  0  0  0
    2.7747   61.9224   73.8305 H   0  0  0  0  0  0  0  0  0  0  0  0
    3.5133   63.3372   73.0062 H   0  0  0  0  0  0  0  0  0  0  0  0
    1.7292   63.1283   73.0062 H   0  0  0  0  0  0  0  0  0  0  0  0
    1.9050   60.3098   72.9811 H   0  0  0  0  0  0  0  0  0  0  0  0
    1.0113   60.5649   71.4440 H   0  0  0  0  0  0  0  0  0  0  0  0
    2.5535   59.6440   71.4440 H   0  0  0  0  0  0  0  0  0  0  0  0
  2  1  2  0
  3  2  1  0
  4  3  1  0
  5  4  1  0
  6  5  1  0
  6  2  1  0
  6  7  1  1
  8  6  1  0
  9  4  1  0
  9  8  1  0
 10  5  1  0
 11  5  1  0
  3 12  1  0
  3 13  1  0
  4 14  1  1
  7 15  1  0
  7 16  1  0
  7 17  1  0
  8 18  1  0
  8 19  1  0
  9 20  1  0
  9 21  1  0
 10 22  1  0
 10 23  1  0
 10 24  1  0
 11 25  1  0
 11 26  1  0
 11 27  1  0
M  END
>  <score>  (4) 
-6.24

$$$$
=
     RDKit          3D

 27 28  0  0  0  0  0  0  0  0999 V2000
    5.2380   63.4270   70.6870 O   0  0  0  0  0  0  0  0  0  0  0  0
    4.6420   62.3800   70.8860 C   0  0  0  0  0  0  0  0  0  0  0  0
    5.3020   61.0270   71.0650 C   0  0  0  0  0  0  0  0  0  0  0  0
    4.0210   60.1640   71.1840 C   0  0  1  0  0  0  0  0  0  0  0  0
    3.0380   61.0490   71.9990 C   0  0  0  0  0  0  0  0  0  0  0  0
    3.1220   62.2090   70.9680 C   0  0  1  0  0  0  0  0  0  0  0  0
    2.3600   63.4780   71.2690 C   0  0  0  0  0  0  0  0  0  0  0  0
    2.7680   61.5350   69.6230 C   0  0  0  0  0  0  0  0  0  0  0  0
    3.3660   60.1190   69.7790 C   0  0  0  0  0  0  0  0  0  0  0  0
    1.6370   60.4300   72.1680 C   0  0  0  0  0  0  0  0  0  0  0  0
    3.5320   61.4100   73.4150 C   0  0  0  0  0  0  0  0  0  0  0  0
    5.9130   60.7450   70.1948 H   0  0  0  0  0  0  0  0  0  0  0  0
    6.0122   60.9476   71.9013 H   0  0  0  0  0  0  0  0  0  0  0  0
    4.2282   59.1671   71.6001 H   0  0  0  0  0  0  0  0  0  0  0  0
    2.2814   63.6089   72.3584 H   0  0  0  0  0  0  0  0  0  0  0  0
    2.8918   64.3370   70.8339 H   0  0  0  0  0  0  0  0  0  0  0  0
    1.3518   63.4123   70.8339 H   0  0  0  0  0  0  0  0  0  0  0  0
    1.6786   61.4907   69.4771 H   0  0  0  0  0  0  0  0  0  0  0  0
    3.1580   62.0775   68.7492 H   0  0  0  0  0  0  0  0  0  0  0  0
    4.1167   59.9198   69.0000 H   0  0  0  0  0  0  0  0  0  0  0  0
    2.6163   59.3205   69.6779 H   0  0  0  0  0  0  0  0  0  0  0  0
    1.4077   60.3287   73.2390 H   0  0  0  0  0  0  0  0  0  0  0  0
    0.8886   61.0813   71.6928 H   0  0  0  0  0  0  0  0  0  0  0  0
    1.6146   59.4382   71.6928 H   0  0  0  0  0  0  0  0  0  0  0  0
    2.8808   60.9341   74.1629 H   0  0  0  0  0  0  0  0  0  0  0  0
    4.5637   61.0515   73.5459 H   0  0  0  0  0  0  0  0  0  0  0  0
    3.5038   62.5018   73.5459 H   0  0  0  0  0  0  0  0  0  0  0  0
  2  1  2  0
  3  2  1  0
  4  3  1  0
  5  4  1  0
  6  5  1  0
  6  2  1  0
  6  7  1  1
  8  6  1  0
  9  4  1  0
  9  8  1  0
 10  5  1  0
 11  5  1  0
  3 12  1  0
  3 13  1  0
  4 14  1  1
  7 15  1  0
  7 16  1  0
  7 17  1  0
  8 18  1  0
  8 19  1  0
  9 20  1  0
  9 21  1  0
 10 22  1  0
 10 23  1  0
 10 24  1  0
 11 25  1  0
 11 26  1  0
 11 27  1  0
M  END
>  <score>  (5) 
-6.1

$$$$
=
     RDKit          3D

 27 28  0  0  0  0  0  0  0  0999 V2000
    4.1520   66.4670   61.6590 O   0  0  0  0  0  0  0  0  0  0  0  0
    4.1110   67.3840   62.4650 C   0  0  0  0  0  0  0  0  0  0  0  0
    4.2970   68.8480   62.1220 C   0  0  0  0  0  0  0  0  0  0  0  0
    4.2170   69.4290   63.5550 C   0  0  1  0  0  0  0  0  0  0  0  0
    3.1280   68.5710   64.2550 C   0  0  0  0  0  0  0  0  0  0  0  0
    3.8950   67.2490   63.9760 C   0  0  1  0  0  0  0  0  0  0  0  0
    3.2490   65.9530   64.4070 C   0  0  0  0  0  0  0  0  0  0  0  0
    5.3030   67.5060   64.5600 C   0  0  0  0  0  0  0  0  0  0  0  0
    5.5160   69.0120   64.2920 C   0  0  0  0  0  0  0  0  0  0  0  0
    2.9350   68.9070   65.7470 C   0  0  0  0  0  0  0  0  0  0  0  0
    1.7340   68.6570   63.6020 C   0  0  0  0  0  0  0  0  0  0  0  0
    5.2709   69.0428   61.6492 H   0  0  0  0  0  0  0  0  0  0  0  0
    3.5825   69.2640   61.3964 H   0  0  0  0  0  0  0  0  0  0  0  0
    4.0461   70.5156   63.5545 H   0  0  0  0  0  0  0  0  0  0  0  0
    3.2242   65.9033   65.5056 H   0  0  0  0  0  0  0  0  0  0  0  0
    2.2224   65.9068   64.0146 H   0  0  0  0  0  0  0  0  0  0  0  0
    3.8301   65.1054   64.0146 H   0  0  0  0  0  0  0  0  0  0  0  0
    5.3306   67.2877   65.6378 H   0  0  0  0  0  0  0  0  0  0  0  0
    6.0819   66.8702   64.1137 H   0  0  0  0  0  0  0  0  0  0  0  0
    6.3996   69.1786   63.6584 H   0  0  0  0  0  0  0  0  0  0  0  0
    5.6961   69.5917   65.2093 H   0  0  0  0  0  0  0  0  0  0  0  0
    3.3891   68.1165   66.3626 H   0  0  0  0  0  0  0  0  0  0  0  0
    3.4179   69.8695   65.9715 H   0  0  0  0  0  0  0  0  0  0  0  0
    1.8603   68.9748   65.9715 H   0  0  0  0  0  0  0  0  0  0  0  0
    0.9641   68.7045   64.3862 H   0  0  0  0  0  0  0  0  0  0  0  0
    1.6770   69.5604   62.9770 H   0  0  0  0  0  0  0  0  0  0  0  0
    1.5664   67.7675   62.9770 H   0  0  0  0  0  0  0  0  0  0  0  0
  2  1  2  0
  3  2  1  0
  4  3  1  0
  5  4  1  0
  6  5  1  0
  6  2  1  0
  6  7  1  6
  8  6  1  0
  9  4  1  0
  9  8  1  0
 10  5  1  0
 11  5  1  0
  3 12  1  0
  3 13  1  0
  4 14  1  6
  7 15  1  0
  7 16  1  0
  7 17  1  0
  8 18  1  0
  8 19  1  0
  9 20  1  0
  9 21  1  0
 10 22  1  0
 10 23  1  0
 10 24  1  0
 11 25  1  0
 11 26  1  0
 11 27  1  0
M  END
>  <score>  (6) 
-5.934

$$$$
=
     RDKit          3D

 27 28  0  0  0  0  0  0  0  0999 V2000
    4.4730   59.6840   69.8250 O   0  0  0  0  0  0  0  0  0  0  0  0
    4.1740   60.6280   70.5390 C   0  0  0  0  0  0  0  0  0  0  0  0
    4.8370   60.9610   71.8610 C   0  0  0  0  0  0  0  0  0  0  0  0
    3.9550   62.1690   72.2610 C   0  0  1  0  0  0  0  0  0  0  0  0
    3.6900   62.9100   70.9210 C   0  0  0  0  0  0  0  0  0  0  0  0
    3.0610   61.6470   70.2700 C   0  0  1  0  0  0  0  0  0  0  0  0
    2.6260   61.7380   68.8260 C   0  0  0  0  0  0  0  0  0  0  0  0
    1.9520   61.2310   71.2630 C   0  0  0  0  0  0  0  0  0  0  0  0
    2.5560   61.6120   72.6330 C   0  0  0  0  0  0  0  0  0  0  0  0
    2.7390   64.1150   71.0540 C   0  0  0  0  0  0  0  0  0  0  0  0
    4.9620   63.4290   70.2200 C   0  0  0  0  0  0  0  0  0  0  0  0
    4.7605   60.1346   72.5830 H   0  0  0  0  0  0  0  0  0  0  0  0
    5.9193   61.1527   71.8181 H   0  0  0  0  0  0  0  0  0  0  0  0
    4.4116   62.7706   73.0608 H   0  0  0  0  0  0  0  0  0  0  0  0
    1.5502   61.9630   68.7806 H   0  0  0  0  0  0  0  0  0  0  0  0
    3.1894   62.5377   68.3230 H   0  0  0  0  0  0  0  0  0  0  0  0
    2.8216   60.7795   68.3230 H   0  0  0  0  0  0  0  0  0  0  0  0
    1.0215   61.7859   71.0725 H   0  0  0  0  0  0  0  0  0  0  0  0
    1.6785   60.1681   71.1889 H   0  0  0  0  0  0  0  0  0  0  0  0
    2.6431   60.7301   73.2847 H   0  0  0  0  0  0  0  0  0  0  0  0
    1.9394   62.3320   73.1910 H   0  0  0  0  0  0  0  0  0  0  0  0
    2.5682   64.3315   72.1189 H   0  0  0  0  0  0  0  0  0  0  0  0
    3.1900   64.9933   70.5690 H   0  0  0  0  0  0  0  0  0  0  0  0
    1.7799   63.8805   70.5690 H   0  0  0  0  0  0  0  0  0  0  0  0
    5.7008   63.7305   70.9771 H   0  0  0  0  0  0  0  0  0  0  0  0
    5.3855   62.6318   69.5915 H   0  0  0  0  0  0  0  0  0  0  0  0
    4.7069   64.2949   69.5915 H   0  0  0  0  0  0  0  0  0  0  0  0
  2  1  2  0
  3  2  1  0
  4  3  1  0
  5  4  1  0
  6  5  1  0
  6  2  1  0
  6  7  1  6
  8  6  1  0
  9  4  1  0
  9  8  1  0
 10  5  1  0
 11  5  1  0
  3 12  1  0
  3 13  1  0
  4 14  1  1
  7 15  1  0
  7 16  1  0
  7 17  1  0
  8 18  1  0
  8 19  1  0
  9 20  1  0
  9 21  1  0
 10 22  1  0
 10 23  1  0
 10 24  1  0
 11 25  1  0
 11 26  1  0
 11 27  1  0
M  END
>  <score>  (7) 
-5.851

$$$$
=
     RDKit          3D

 27 28  0  0  0  0  0  0  0  0999 V2000
    1.6990   65.8230   64.6940 O   0  0  0  0  0  0  0  0  0  0  0  0
    2.1070   66.9130   64.3250 C   0  0  0  0  0  0  0  0  0  0  0  0
    1.2610   68.1660   64.2190 C   0  0  0  0  0  0  0  0  0  0  0  0
    2.3330   69.1160   63.6320 C   0  0  1  0  0  0  0  0  0  0  0  0
    3.6450   68.7070   64.3570 C   0  0  0  0  0  0  0  0  0  0  0  0
    3.5340   67.2350   63.8690 C   0  0  1  0  0  0  0  0  0  0  0  0
    4.5820   66.2550   64.3390 C   0  0  0  0  0  0  0  0  0  0  0  0
    3.3960   67.3620   62.3350 C   0  0  0  0  0  0  0  0  0  0  0  0
    2.5900   68.6700   62.1690 C   0  0  0  0  0  0  0  0  0  0  0  0
    4.8920   69.4630   63.8600 C   0  0  0  0  0  0  0  0  0  0  0  0
    3.6060   68.8820   65.8880 C   0  0  0  0  0  0  0  0  0  0  0  0
    0.4070   68.0334   63.5384 H   0  0  0  0  0  0  0  0  0  0  0  0
    0.7841   68.5013   65.1518 H   0  0  0  0  0  0  0  0  0  0  0  0
    2.0445   70.1738   63.7206 H   0  0  0  0  0  0  0  0  0  0  0  0
    4.6007   66.2375   65.4387 H   0  0  0  0  0  0  0  0  0  0  0  0
    4.3410   65.2507   63.9604 H   0  0  0  0  0  0  0  0  0  0  0  0
    5.5679   66.5628   63.9604 H   0  0  0  0  0  0  0  0  0  0  0  0
    4.3821   67.4408   61.8540 H   0  0  0  0  0  0  0  0  0  0  0  0
    2.9124   66.4911   61.8684 H   0  0  0  0  0  0  0  0  0  0  0  0
    1.6430   68.4854   61.6408 H   0  0  0  0  0  0  0  0  0  0  0  0
    3.1177   69.4292   61.5730 H   0  0  0  0  0  0  0  0  0  0  0  0
    5.4749   69.8164   64.7234 H   0  0  0  0  0  0  0  0  0  0  0  0
    5.5114   68.7882   63.2509 H   0  0  0  0  0  0  0  0  0  0  0  0
    4.5801   70.3242   63.2509 H   0  0  0  0  0  0  0  0  0  0  0  0
    3.8208   67.9182   66.3728 H   0  0  0  0  0  0  0  0  0  0  0  0
    4.3613   69.6217   66.1919 H   0  0  0  0  0  0  0  0  0  0  0  0
    2.6081   69.2310   66.1919 H   0  0  0  0  0  0  0  0  0  0  0  0
  2  1  2  0
  3  2  1  0
  4  3  1  0
  5  4  1  0
  6  5  1  0
  6  2  1  0
  6  7  1  6
  8  6  1  0
  9  4  1  0
  9  8  1  0
 10  5  1  0
 11  5  1  0
  3 12  1  0
  3 13  1  0
  4 14  1  6
  7 15  1  0
  7 16  1  0
  7 17  1  0
  8 18  1  0
  8 19  1  0
  9 20  1  0
  9 21  1  0
 10 22  1  0
 10 23  1  0
 10 24  1  0
 11 25  1  0
 11 26  1  0
 11 27  1  0
M  END
>  <score>  (8) 
-5.784

$$$$
=
     RDKit          3D

 27 28  0  0  0  0  0  0  0  0999 V2000
    0.9210   69.4390   63.4330 O   0  0  0  0  0  0  0  0  0  0  0  0
    1.8180   68.9100   64.0700 C   0  0  0  0  0  0  0  0  0  0  0  0
    1.8250   68.7310   65.5740 C   0  0  0  0  0  0  0  0  0  0  0  0
    3.2320   68.1000   65.7230 C   0  0  1  0  0  0  0  0  0  0  0  0
    3.3680   67.1740   64.4820 C   0  0  0  0  0  0  0  0  0  0  0  0
    3.1240   68.3500   63.4950 C   0  0  1  0  0  0  0  0  0  0  0  0
    3.0780   68.0340   62.0190 C   0  0  0  0  0  0  0  0  0  0  0  0
    4.1750   69.4050   63.9070 C   0  0  0  0  0  0  0  0  0  0  0  0
    4.2680   69.2180   65.4380 C   0  0  0  0  0  0  0  0  0  0  0  0
    4.7470   66.4980   64.3590 C   0  0  0  0  0  0  0  0  0  0  0  0
    2.3190   66.0460   64.4120 C   0  0  0  0  0  0  0  0  0  0  0  0
    1.7424   69.6902   66.1060 H   0  0  0  0  0  0  0  0  0  0  0  0
    0.9920   68.1449   65.9894 H   0  0  0  0  0  0  0  0  0  0  0  0
    3.3705   67.6168   66.7014 H   0  0  0  0  0  0  0  0  0  0  0  0
    2.9208   66.9542   61.8799 H   0  0  0  0  0  0  0  0  0  0  0  0
    2.2511   68.5882   61.5510 H   0  0  0  0  0  0  0  0  0  0  0  0
    4.0286   68.3294   61.5510 H   0  0  0  0  0  0  0  0  0  0  0  0
    5.1438   69.2083   63.4245 H   0  0  0  0  0  0  0  0  0  0  0  0
    3.9035   70.4286   63.6096 H   0  0  0  0  0  0  0  0  0  0  0  0
    4.0019   70.1459   65.9654 H   0  0  0  0  0  0  0  0  0  0  0  0
    5.2819   68.9635   65.7803 H   0  0  0  0  0  0  0  0  0  0  0  0
    5.1495   66.3007   65.3635 H   0  0  0  0  0  0  0  0  0  0  0  0
    4.6427   65.5489   63.8128 H   0  0  0  0  0  0  0  0  0  0  0  0
    5.4333   67.1618   63.8128 H   0  0  0  0  0  0  0  0  0  0  0  0
    2.0375   65.7433   65.4314 H   0  0  0  0  0  0  0  0  0  0  0  0
    1.4279   66.4066   63.8773 H   0  0  0  0  0  0  0  0  0  0  0  0
    2.7433   65.1834   63.8773 H   0  0  0  0  0  0  0  0  0  0  0  0
  2  1  2  0
  3  2  1  0
  4  3  1  0
  5  4  1  0
  6  5  1  0
  6  2  1  0
  6  7  1  6
  8  6  1  0
  9  4  1  0
  9  8  1  0
 10  5  1  0
 11  5  1  0
  3 12  1  0
  3 13  1  0
  4 14  1  1
  7 15  1  0
  7 16  1  0
  7 17  1  0
  8 18  1  0
  8 19  1  0
  9 20  1  0
  9 21  1  0
 10 22  1  0
 10 23  1  0
 10 24  1  0
 11 25  1  0
 11 26  1  0
 11 27  1  0
M  END
>  <score>  (9) 
-5.336

$$$$
