=
     RDKit          3D

 70 74  0  0  0  0  0  0  0  0999 V2000
   -2.4740   68.0230   66.8670 C   0  0  0  0  0  0  0  0  0  0  0  0
   -1.8870   66.8440   67.6530 C   0  0  0  0  0  0  0  0  0  0  0  0
   -0.5770   67.1400   68.3830 C   0  0  0  0  0  0  0  0  0  0  0  0
    1.0230   66.0670   69.9340 C   0  0  0  0  0  0  0  0  0  0  0  0
    1.6400   67.1120   70.1290 O   0  0  0  0  0  0  0  0  0  0  0  0
   -0.0920   66.0060   69.1380 N   0  0  0  0  0  0  0  0  0  0  0  0
    3.8940   60.4620   71.5920 C   0  0  0  0  0  0  0  0  0  0  0  0
    4.5270   61.0100   70.4720 C   0  0  0  0  0  0  0  0  0  0  0  0
    4.0810   62.2230   69.9290 C   0  0  0  0  0  0  0  0  0  0  0  0
    3.0010   62.8940   70.5020 C   0  0  0  0  0  0  0  0  0  0  0  0
    2.3830   62.3380   71.6140 C   0  0  0  0  0  0  0  0  0  0  0  0
    2.8140   61.1340   72.1650 C   0  0  0  0  0  0  0  0  0  0  0  0
    1.2900   62.9800   72.2220 O   0  0  0  0  0  0  0  0  0  0  0  0
    0.7900   64.1830   71.7360 C   0  0  0  0  0  0  0  0  0  0  0  0
   -0.1730   64.7240   72.2770 O   0  0  0  0  0  0  0  0  0  0  0  0
    1.4580   64.7750   70.5540 C   0  0  0  0  0  0  0  0  0  0  0  0
    2.5010   64.1540   69.9780 C   0  0  0  0  0  0  0  0  0  0  0  0
    4.0660   59.2380   73.6250 C   0  0  0  0  0  0  0  0  0  0  0  0
    4.2330   59.2920   72.2140 O   0  0  0  0  0  0  0  0  0  0  0  0
   -1.4190   69.0080   66.3580 C   0  0  0  0  0  0  0  0  0  0  0  0
   -1.0390   68.7050   64.9060 C   0  0  0  0  0  0  0  0  0  0  0  0
    0.4340   68.9890   64.6010 C   0  0  0  0  0  0  0  0  0  0  0  0
    1.2900   68.3910   65.6350 N   0  0  0  0  0  0  0  0  0  0  0  0
    2.6330   68.8720   65.5470 C   0  0  0  0  0  0  0  0  0  0  0  0
    3.3810   68.7140   64.3610 C   0  0  0  0  0  0  0  0  0  0  0  0
    2.7860   68.0990   63.1160 C   0  0  0  0  0  0  0  0  0  0  0  0
    3.6320   68.2810   61.8550 C   0  0  0  0  0  0  0  0  0  0  0  0
    5.0930   67.9860   62.1450 C   0  0  0  0  0  0  0  0  0  0  0  0
    5.6170   68.9700   63.1840 C   0  0  0  0  0  0  0  0  0  0  0  0
    4.7290   69.0870   64.3960 C   0  0  0  0  0  0  0  0  0  0  0  0
    5.3280   69.6130   65.4900 N   0  0  0  0  0  0  0  0  0  0  0  0
    4.6100   69.7790   66.6090 C   0  0  0  0  0  0  0  0  0  0  0  0
    3.2530   69.4240   66.7010 C   0  0  0  0  0  0  0  0  0  0  0  0
    2.5740   69.6490   67.9230 C   0  0  0  0  0  0  0  0  0  0  0  0
    3.2250   70.1960   69.0270 C   0  0  0  0  0  0  0  0  0  0  0  0
    4.5670   70.5320   68.9260 C   0  0  0  0  0  0  0  0  0  0  0  0
    5.2410   70.3220   67.7220 C   0  0  0  0  0  0  0  0  0  0  0  0
   -3.0235   67.6244   66.0015 H   0  0  0  0  0  0  0  0  0  0  0  0
   -3.1257   68.5779   67.5579 H   0  0  0  0  0  0  0  0  0  0  0  0
   -2.6300   66.5289   68.4004 H   0  0  0  0  0  0  0  0  0  0  0  0
   -1.6553   66.0658   66.9109 H   0  0  0  0  0  0  0  0  0  0  0  0
    0.1845   67.4204   67.6403 H   0  0  0  0  0  0  0  0  0  0  0  0
   -0.7696   67.9561   69.0949 H   0  0  0  0  0  0  0  0  0  0  0  0
   -0.6055   65.1153   69.0753 H   0  0  0  0  0  0  0  0  0  0  0  0
    5.3795   60.4865   70.0146 H   0  0  0  0  0  0  0  0  0  0  0  0
    4.5847   62.6471   69.0478 H   0  0  0  0  0  0  0  0  0  0  0  0
    2.3062   60.7154   73.0464 H   0  0  0  0  0  0  0  0  0  0  0  0
    2.9829   64.6053   69.0981 H   0  0  0  0  0  0  0  0  0  0  0  0
    5.0022   59.5407   74.1169 H   0  0  0  0  0  0  0  0  0  0  0  0
    3.2570   59.9203   73.9249 H   0  0  0  0  0  0  0  0  0  0  0  0
    3.8096   58.2112   73.9249 H   0  0  0  0  0  0  0  0  0  0  0  0
   -1.8222   70.0297   66.4184 H   0  0  0  0  0  0  0  0  0  0  0  0
   -0.5190   68.9107   66.9829 H   0  0  0  0  0  0  0  0  0  0  0  0
   -1.2398   67.6422   64.7057 H   0  0  0  0  0  0  0  0  0  0  0  0
   -1.6409   69.3649   64.2640 H   0  0  0  0  0  0  0  0  0  0  0  0
    0.6920   68.5588   63.6220 H   0  0  0  0  0  0  0  0  0  0  0  0
    0.5946   70.0771   64.5867 H   0  0  0  0  0  0  0  0  0  0  0  0
    0.9630   67.7104   66.3355 H   0  0  0  0  0  0  0  0  0  0  0  0
    2.6586   67.0207   63.2921 H   0  0  0  0  0  0  0  0  0  0  0  0
    1.8341   68.6191   62.9331 H   0  0  0  0  0  0  0  0  0  0  0  0
    3.2720   67.5932   61.0757 H   0  0  0  0  0  0  0  0  0  0  0  0
    3.5413   69.3229   61.5142 H   0  0  0  0  0  0  0  0  0  0  0  0
    5.1898   66.9604   62.5306 H   0  0  0  0  0  0  0  0  0  0  0  0
    5.6770   68.0878   61.2184 H   0  0  0  0  0  0  0  0  0  0  0  0
    6.6122   68.6348   63.5115 H   0  0  0  0  0  0  0  0  0  0  0  0
    5.6492   69.9607   62.7071 H   0  0  0  0  0  0  0  0  0  0  0  0
    1.5088   69.3861   68.0026 H   0  0  0  0  0  0  0  0  0  0  0  0
    2.6804   70.3596   69.9686 H   0  0  0  0  0  0  0  0  0  0  0  0
    5.0966   70.9612   69.7893 H   0  0  0  0  0  0  0  0  0  0  0  0
    6.3044   70.5946   67.6518 H   0  0  0  0  0  0  0  0  0  0  0  0
  2  1  1  0
  3  2  1  0
  5  4  2  0
  6  4  1  0
  6  3  1  0
  8  7  2  0
  9  8  1  0
 10  9  2  0
 11 10  1  0
 12 11  2  0
 12  7  1  0
 13 11  1  0
 14 13  1  0
 15 14  2  0
 16 14  1  0
 16  4  1  0
 17 16  2  0
 17 10  1  0
 19 18  1  0
 19  7  1  0
 20  1  1  0
 21 20  1  0
 22 21  1  0
 23 22  1  0
 24 23  1  0
 25 24  1  0
 26 25  1  0
 27 26  1  0
 28 27  1  0
 29 28  1  0
 30 25  2  0
 30 29  1  0
 31 30  1  0
 32 31  2  0
 33 32  1  0
 33 24  2  0
 34 33  1  0
 35 34  2  0
 36 35  1  0
 37 36  2  0
 37 32  1  0
  1 38  1  0
  1 39  1  0
  2 40  1  0
  2 41  1  0
  3 42  1  0
  3 43  1  0
  6 44  1  0
  8 45  1  0
  9 46  1  0
 12 47  1  0
 17 48  1  0
 18 49  1  0
 18 50  1  0
 18 51  1  0
 20 52  1  0
 20 53  1  0
 21 54  1  0
 21 55  1  0
 22 56  1  0
 22 57  1  0
 23 58  1  0
 26 59  1  0
 26 60  1  0
 27 61  1  0
 27 62  1  0
 28 63  1  0
 28 64  1  0
 29 65  1  0
 29 66  1  0
 34 67  1  0
 35 68  1  0
 36 69  1  0
 37 70  1  0
M  END
>  <score>  (1) 
-12.374

$$$$
=
     RDKit          3D

 70 74  0  0  0  0  0  0  0  0999 V2000
    1.1700   66.8140   69.4560 C   0  0  0  0  0  0  0  0  0  0  0  0
    1.4370   65.5410   70.2690 C   0  0  0  0  0  0  0  0  0  0  0  0
    0.1990   64.6970   70.5730 C   0  0  0  0  0  0  0  0  0  0  0  0
    0.2690   62.7780   72.1330 C   0  0  0  0  0  0  0  0  0  0  0  0
   -0.3400   63.3830   73.0120 O   0  0  0  0  0  0  0  0  0  0  0  0
    0.5280   63.3270   70.9030 N   0  0  0  0  0  0  0  0  0  0  0  0
    1.2450   56.5490   73.7660 C   0  0  0  0  0  0  0  0  0  0  0  0
    0.0050   56.9820   74.2470 C   0  0  0  0  0  0  0  0  0  0  0  0
   -0.4260   58.2960   74.0170 C   0  0  0  0  0  0  0  0  0  0  0  0
    0.3790   59.1850   73.3050 C   0  0  0  0  0  0  0  0  0  0  0  0
    1.6070   58.7410   72.8330 C   0  0  0  0  0  0  0  0  0  0  0  0
    2.0490   57.4400   73.0530 C   0  0  0  0  0  0  0  0  0  0  0  0
    2.4510   59.6040   72.1120 O   0  0  0  0  0  0  0  0  0  0  0  0
    2.0920   60.9220   71.8490 C   0  0  0  0  0  0  0  0  0  0  0  0
    2.8490   61.6630   71.2250 O   0  0  0  0  0  0  0  0  0  0  0  0
    0.7780   61.3860   72.3500 C   0  0  0  0  0  0  0  0  0  0  0  0
   -0.0220   60.5550   73.0400 C   0  0  0  0  0  0  0  0  0  0  0  0
    0.8590   54.2240   74.0840 C   0  0  0  0  0  0  0  0  0  0  0  0
    1.7750   55.2990   73.9220 O   0  0  0  0  0  0  0  0  0  0  0  0
   -0.1770   66.8080   68.7290 C   0  0  0  0  0  0  0  0  0  0  0  0
   -0.0460   67.4050   67.3240 C   0  0  0  0  0  0  0  0  0  0  0  0
    1.4060   67.6660   66.9170 C   0  0  0  0  0  0  0  0  0  0  0  0
    1.5930   69.0860   66.5840 N   0  0  0  0  0  0  0  0  0  0  0  0
    2.9320   69.3540   66.1650 C   0  0  0  0  0  0  0  0  0  0  0  0
    3.3460   69.0760   64.8450 C   0  0  0  0  0  0  0  0  0  0  0  0
    2.3880   68.5540   63.8000 C   0  0  0  0  0  0  0  0  0  0  0  0
    2.9280   68.5970   62.3700 C   0  0  0  0  0  0  0  0  0  0  0  0
    4.3560   68.0820   62.3230 C   0  0  0  0  0  0  0  0  0  0  0  0
    5.2520   68.9780   63.1680 C   0  0  0  0  0  0  0  0  0  0  0  0
    4.7030   69.2370   64.5480 C   0  0  0  0  0  0  0  0  0  0  0  0
    5.6160   69.6710   65.4490 N   0  0  0  0  0  0  0  0  0  0  0  0
    5.2170   69.9510   66.6980 C   0  0  0  0  0  0  0  0  0  0  0  0
    3.8830   69.8090   67.1190 C   0  0  0  0  0  0  0  0  0  0  0  0
    3.5540   70.1430   68.4550 C   0  0  0  0  0  0  0  0  0  0  0  0
    4.5230   70.5880   69.3530 C   0  0  0  0  0  0  0  0  0  0  0  0
    5.8370   70.7130   68.9280 C   0  0  0  0  0  0  0  0  0  0  0  0
    6.1670   70.3960   67.6090 C   0  0  0  0  0  0  0  0  0  0  0  0
    1.1912   67.6745   70.1410 H   0  0  0  0  0  0  0  0  0  0  0  0
    1.9517   66.8728   68.6844 H   0  0  0  0  0  0  0  0  0  0  0  0
    2.1449   64.9172   69.7035 H   0  0  0  0  0  0  0  0  0  0  0  0
    1.8286   65.8738   71.2416 H   0  0  0  0  0  0  0  0  0  0  0  0
   -0.3337   65.1464   71.4240 H   0  0  0  0  0  0  0  0  0  0  0  0
   -0.4248   64.6814   69.6671 H   0  0  0  0  0  0  0  0  0  0  0  0
    0.9752   62.7398   70.1845 H   0  0  0  0  0  0  0  0  0  0  0  0
   -0.6360   56.2871   74.8093 H   0  0  0  0  0  0  0  0  0  0  0  0
   -1.4027   58.6272   74.3995 H   0  0  0  0  0  0  0  0  0  0  0  0
    3.0266   57.1154   72.6672 H   0  0  0  0  0  0  0  0  0  0  0  0
   -0.9929   60.9175   73.4086 H   0  0  0  0  0  0  0  0  0  0  0  0
    0.6994   54.0367   75.1561 H   0  0  0  0  0  0  0  0  0  0  0  0
   -0.0992   54.4843   73.6106 H   0  0  0  0  0  0  0  0  0  0  0  0
    1.2680   53.3192   73.6106 H   0  0  0  0  0  0  0  0  0  0  0  0
   -0.5369   65.7718   68.6473 H   0  0  0  0  0  0  0  0  0  0  0  0
   -0.8881   67.4191   69.3042 H   0  0  0  0  0  0  0  0  0  0  0  0
   -0.4915   66.7041   66.6026 H   0  0  0  0  0  0  0  0  0  0  0  0
   -0.5651   68.3748   67.3294 H   0  0  0  0  0  0  0  0  0  0  0  0
    2.0709   67.3979   67.7512 H   0  0  0  0  0  0  0  0  0  0  0  0
    1.6463   67.0557   66.0339 H   0  0  0  0  0  0  0  0  0  0  0  0
    0.8514   69.7982   66.6452 H   0  0  0  0  0  0  0  0  0  0  0  0
    2.1471   67.5091   64.0455 H   0  0  0  0  0  0  0  0  0  0  0  0
    1.5082   69.2139   63.8232 H   0  0  0  0  0  0  0  0  0  0  0  0
    2.2956   67.9687   61.7256 H   0  0  0  0  0  0  0  0  0  0  0  0
    2.9145   69.6386   62.0166 H   0  0  0  0  0  0  0  0  0  0  0  0
    4.3880   67.0558   62.7179 H   0  0  0  0  0  0  0  0  0  0  0  0
    4.7117   68.0881   61.2821 H   0  0  0  0  0  0  0  0  0  0  0  0
    6.2350   68.4945   63.2681 H   0  0  0  0  0  0  0  0  0  0  0  0
    5.3188   69.9491   62.6557 H   0  0  0  0  0  0  0  0  0  0  0  0
    2.5110   70.0493   68.7917 H   0  0  0  0  0  0  0  0  0  0  0  0
    4.2480   70.8375   70.3884 H   0  0  0  0  0  0  0  0  0  0  0  0
    6.6140   71.0595   69.6253 H   0  0  0  0  0  0  0  0  0  0  0  0
    7.2116   70.5018   67.2808 H   0  0  0  0  0  0  0  0  0  0  0  0
  2  1  1  0
  3  2  1  0
  5  4  2  0
  6  4  1  0
  6  3  1  0
  8  7  2  0
  9  8  1  0
 10  9  2  0
 11 10  1  0
 12 11  2  0
 12  7  1  0
 13 11  1  0
 14 13  1  0
 15 14  2  0
 16 14  1  0
 16  4  1  0
 17 16  2  0
 17 10  1  0
 19 18  1  0
 19  7  1  0
 20  1  1  0
 21 20  1  0
 22 21  1  0
 23 22  1  0
 24 23  1  0
 25 24  1  0
 26 25  1  0
 27 26  1  0
 28 27  1  0
 29 28  1  0
 30 25  2  0
 30 29  1  0
 31 30  1  0
 32 31  2  0
 33 32  1  0
 33 24  2  0
 34 33  1  0
 35 34  2  0
 36 35  1  0
 37 36  2  0
 37 32  1  0
  1 38  1  0
  1 39  1  0
  2 40  1  0
  2 41  1  0
  3 42  1  0
  3 43  1  0
  6 44  1  0
  8 45  1  0
  9 46  1  0
 12 47  1  0
 17 48  1  0
 18 49  1  0
 18 50  1  0
 18 51  1  0
 20 52  1  0
 20 53  1  0
 21 54  1  0
 21 55  1  0
 22 56  1  0
 22 57  1  0
 23 58  1  0
 26 59  1  0
 26 60  1  0
 27 61  1  0
 27 62  1  0
 28 63  1  0
 28 64  1  0
 29 65  1  0
 29 66  1  0
 34 67  1  0
 35 68  1  0
 36 69  1  0
 37 70  1  0
M  END
>  <score>  (2) 
-12.186

$$$$
=
     RDKit          3D

 70 74  0  0  0  0  0  0  0  0999 V2000
    0.5510   66.4730   69.8500 C   0  0  0  0  0  0  0  0  0  0  0  0
    0.5730   65.0180   70.3340 C   0  0  0  0  0  0  0  0  0  0  0  0
    1.9590   64.3750   70.3890 C   0  0  0  0  0  0  0  0  0  0  0  0
    3.0300   62.2060   70.9050 C   0  0  0  0  0  0  0  0  0  0  0  0
    4.1540   62.6160   70.6220 O   0  0  0  0  0  0  0  0  0  0  0  0
    1.9190   63.0090   70.8640 N   0  0  0  0  0  0  0  0  0  0  0  0
    1.0260   56.5940   73.5330 C   0  0  0  0  0  0  0  0  0  0  0  0
    0.3040   57.6620   74.0760 C   0  0  0  0  0  0  0  0  0  0  0  0
    0.5620   58.9760   73.6610 C   0  0  0  0  0  0  0  0  0  0  0  0
    1.5420   59.2300   72.7020 C   0  0  0  0  0  0  0  0  0  0  0  0
    2.2500   58.1600   72.1710 C   0  0  0  0  0  0  0  0  0  0  0  0
    2.0050   56.8500   72.5720 C   0  0  0  0  0  0  0  0  0  0  0  0
    3.2470   58.3710   71.2020 O   0  0  0  0  0  0  0  0  0  0  0  0
    3.5600   59.6470   70.7470 C   0  0  0  0  0  0  0  0  0  0  0  0
    4.4420   59.8120   69.9060 O   0  0  0  0  0  0  0  0  0  0  0  0
    2.7960   60.7840   71.3120 C   0  0  0  0  0  0  0  0  0  0  0  0
    1.8460   60.5730   72.2380 C   0  0  0  0  0  0  0  0  0  0  0  0
    1.9330   54.6490   74.5590 C   0  0  0  0  0  0  0  0  0  0  0  0
    0.8690   55.2740   73.8510 O   0  0  0  0  0  0  0  0  0  0  0  0
   -0.5070   66.7490   68.7790 C   0  0  0  0  0  0  0  0  0  0  0  0
    0.0370   67.6860   67.6960 C   0  0  0  0  0  0  0  0  0  0  0  0
    1.5140   68.0350   67.8940 C   0  0  0  0  0  0  0  0  0  0  0  0
    1.7920   69.3790   67.3700 N   0  0  0  0  0  0  0  0  0  0  0  0
    3.0550   69.4320   66.7030 C   0  0  0  0  0  0  0  0  0  0  0  0
    4.2030   69.9150   67.3660 C   0  0  0  0  0  0  0  0  0  0  0  0
    4.1730   70.3300   68.8180 C   0  0  0  0  0  0  0  0  0  0  0  0
    5.5520   70.5370   69.4440 C   0  0  0  0  0  0  0  0  0  0  0  0
    6.4480   71.3350   68.5120 C   0  0  0  0  0  0  0  0  0  0  0  0
    6.6550   70.5610   67.2160 C   0  0  0  0  0  0  0  0  0  0  0  0
    5.3690   70.0630   66.6070 C   0  0  0  0  0  0  0  0  0  0  0  0
    5.4510   69.7390   65.2950 N   0  0  0  0  0  0  0  0  0  0  0  0
    4.3630   69.2640   64.6730 C   0  0  0  0  0  0  0  0  0  0  0  0
    3.1300   69.0890   65.3250 C   0  0  0  0  0  0  0  0  0  0  0  0
    2.0400   68.5670   64.5870 C   0  0  0  0  0  0  0  0  0  0  0  0
    2.1640   68.2430   63.2370 C   0  0  0  0  0  0  0  0  0  0  0  0
    3.3830   68.4310   62.6030 C   0  0  0  0  0  0  0  0  0  0  0  0
    4.4660   68.9350   63.3270 C   0  0  0  0  0  0  0  0  0  0  0  0
    0.3487   67.1233   70.7138 H   0  0  0  0  0  0  0  0  0  0  0  0
    1.5311   66.6748   69.3933 H   0  0  0  0  0  0  0  0  0  0  0  0
    0.1431   64.9888   71.3461 H   0  0  0  0  0  0  0  0  0  0  0  0
   -0.0041   64.4406   69.5968 H   0  0  0  0  0  0  0  0  0  0  0  0
    2.3922   64.3841   69.3779 H   0  0  0  0  0  0  0  0  0  0  0  0
    2.5687   64.9564   71.0962 H   0  0  0  0  0  0  0  0  0  0  0  0
    1.0191   62.6238   71.1845 H   0  0  0  0  0  0  0  0  0  0  0  0
   -0.4706   57.4697   74.8330 H   0  0  0  0  0  0  0  0  0  0  0  0
   -0.0107   59.8097   74.0934 H   0  0  0  0  0  0  0  0  0  0  0  0
    2.5799   56.0209   72.1338 H   0  0  0  0  0  0  0  0  0  0  0  0
    1.2908   61.4283   72.6505 H   0  0  0  0  0  0  0  0  0  0  0  0
    1.7622   54.7493   75.6410 H   0  0  0  0  0  0  0  0  0  0  0  0
    1.9748   53.5828   74.2917 H   0  0  0  0  0  0  0  0  0  0  0  0
    2.8846   55.1316   74.2917 H   0  0  0  0  0  0  0  0  0  0  0  0
   -0.8049   65.7974   68.3145 H   0  0  0  0  0  0  0  0  0  0  0  0
   -1.3714   67.2324   69.2577 H   0  0  0  0  0  0  0  0  0  0  0  0
   -0.0794   67.1962   66.7180 H   0  0  0  0  0  0  0  0  0  0  0  0
   -0.5337   68.6244   67.7558 H   0  0  0  0  0  0  0  0  0  0  0  0
    1.7534   68.0067   68.9673 H   0  0  0  0  0  0  0  0  0  0  0  0
    2.1316   67.3035   67.3522 H   0  0  0  0  0  0  0  0  0  0  0  0
    1.1560   70.1829   67.4707 H   0  0  0  0  0  0  0  0  0  0  0  0
    3.6151   71.2750   68.8943 H   0  0  0  0  0  0  0  0  0  0  0  0
    3.6979   69.5059   69.3704 H   0  0  0  0  0  0  0  0  0  0  0  0
    5.4402   71.0823   70.3927 H   0  0  0  0  0  0  0  0  0  0  0  0
    6.0118   69.5537   69.6222 H   0  0  0  0  0  0  0  0  0  0  0  0
    5.9750   72.3028   68.2890 H   0  0  0  0  0  0  0  0  0  0  0  0
    7.4211   71.5039   68.9963 H   0  0  0  0  0  0  0  0  0  0  0  0
    7.1521   71.2216   66.4904 H   0  0  0  0  0  0  0  0  0  0  0  0
    7.2645   69.6778   67.4578 H   0  0  0  0  0  0  0  0  0  0  0  0
    1.0740   68.4138   65.0903 H   0  0  0  0  0  0  0  0  0  0  0  0
    1.3040   67.8424   62.6803 H   0  0  0  0  0  0  0  0  0  0  0  0
    3.4963   68.1848   61.5369 H   0  0  0  0  0  0  0  0  0  0  0  0
    5.4299   69.0757   62.8159 H   0  0  0  0  0  0  0  0  0  0  0  0
  2  1  1  0
  3  2  1  0
  5  4  2  0
  6  4  1  0
  6  3  1  0
  8  7  2  0
  9  8  1  0
 10  9  2  0
 11 10  1  0
 12 11  2  0
 12  7  1  0
 13 11  1  0
 14 13  1  0
 15 14  2  0
 16 14  1  0
 16  4  1  0
 17 16  2  0
 17 10  1  0
 19 18  1  0
 19  7  1  0
 20  1  1  0
 21 20  1  0
 22 21  1  0
 23 22  1  0
 24 23  1  0
 25 24  1  0
 26 25  1  0
 27 26  1  0
 28 27  1  0
 29 28  1  0
 30 25  2  0
 30 29  1  0
 31 30  1  0
 32 31  2  0
 33 32  1  0
 33 24  2  0
 34 33  1  0
 35 34  2  0
 36 35  1  0
 37 36  2  0
 37 32  1  0
  1 38  1  0
  1 39  1  0
  2 40  1  0
  2 41  1  0
  3 42  1  0
  3 43  1  0
  6 44  1  0
  8 45  1  0
  9 46  1  0
 12 47  1  0
 17 48  1  0
 18 49  1  0
 18 50  1  0
 18 51  1  0
 20 52  1  0
 20 53  1  0
 21 54  1  0
 21 55  1  0
 22 56  1  0
 22 57  1  0
 23 58  1  0
 26 59  1  0
 26 60  1  0
 27 61  1  0
 27 62  1  0
 28 63  1  0
 28 64  1  0
 29 65  1  0
 29 66  1  0
 34 67  1  0
 35 68  1  0
 36 69  1  0
 37 70  1  0
M  END
>  <score>  (3) 
-12.026

$$$$
=
     RDKit          3D

 70 74  0  0  0  0  0  0  0  0999 V2000
   -0.3810   67.6690   68.2700 C   0  0  0  0  0  0  0  0  0  0  0  0
   -0.3200   66.4220   69.1610 C   0  0  0  0  0  0  0  0  0  0  0  0
    0.9980   66.2250   69.9100 C   0  0  0  0  0  0  0  0  0  0  0  0
    0.7610   64.2740   71.4120 C   0  0  0  0  0  0  0  0  0  0  0  0
    0.0220   64.8760   72.1890 O   0  0  0  0  0  0  0  0  0  0  0  0
    1.2380   64.8420   70.2590 N   0  0  0  0  0  0  0  0  0  0  0  0
    1.3890   58.0490   73.2200 C   0  0  0  0  0  0  0  0  0  0  0  0
    0.1530   58.5480   73.6430 C   0  0  0  0  0  0  0  0  0  0  0  0
   -0.2090   59.8750   73.3680 C   0  0  0  0  0  0  0  0  0  0  0  0
    0.6630   60.7090   72.6670 C   0  0  0  0  0  0  0  0  0  0  0  0
    1.8860   60.2000   72.2530 C   0  0  0  0  0  0  0  0  0  0  0  0
    2.2590   58.8850   72.5190 C   0  0  0  0  0  0  0  0  0  0  0  0
    2.7950   61.0060   71.5460 O   0  0  0  0  0  0  0  0  0  0  0  0
    2.5070   62.3320   71.2410 C   0  0  0  0  0  0  0  0  0  0  0  0
    3.3200   63.0240   70.6290 O   0  0  0  0  0  0  0  0  0  0  0  0
    1.1970   62.8670   71.6800 C   0  0  0  0  0  0  0  0  0  0  0  0
    0.3350   62.0900   72.3560 C   0  0  0  0  0  0  0  0  0  0  0  0
    1.8230   56.2870   74.7570 C   0  0  0  0  0  0  0  0  0  0  0  0
    1.8560   56.7810   73.4240 O   0  0  0  0  0  0  0  0  0  0  0  0
   -0.9340   67.3950   66.8690 C   0  0  0  0  0  0  0  0  0  0  0  0
   -1.0130   68.6860   66.0470 C   0  0  0  0  0  0  0  0  0  0  0  0
    0.2910   69.0100   65.3150 C   0  0  0  0  0  0  0  0  0  0  0  0
    1.3790   68.1580   65.8140 N   0  0  0  0  0  0  0  0  0  0  0  0
    2.6500   68.7950   65.6740 C   0  0  0  0  0  0  0  0  0  0  0  0
    3.3510   68.7510   64.4500 C   0  0  0  0  0  0  0  0  0  0  0  0
    2.7690   68.0970   63.2190 C   0  0  0  0  0  0  0  0  0  0  0  0
    3.5230   68.4050   61.9250 C   0  0  0  0  0  0  0  0  0  0  0  0
    5.0220   68.2760   62.1360 C   0  0  0  0  0  0  0  0  0  0  0  0
    5.4800   69.2920   63.1750 C   0  0  0  0  0  0  0  0  0  0  0  0
    4.6460   69.2780   64.4310 C   0  0  0  0  0  0  0  0  0  0  0  0
    5.2350   69.8470   65.5090 N   0  0  0  0  0  0  0  0  0  0  0  0
    4.5610   69.9040   66.6650 C   0  0  0  0  0  0  0  0  0  0  0  0
    3.2600   69.3900   66.8130 C   0  0  0  0  0  0  0  0  0  0  0  0
    2.6220   69.5080   68.0710 C   0  0  0  0  0  0  0  0  0  0  0  0
    3.2610   70.1030   69.1570 C   0  0  0  0  0  0  0  0  0  0  0  0
    4.5480   70.5950   69.0020 C   0  0  0  0  0  0  0  0  0  0  0  0
    5.1800   70.4930   67.7610 C   0  0  0  0  0  0  0  0  0  0  0  0
   -1.0257   68.4143   68.7587 H   0  0  0  0  0  0  0  0  0  0  0  0
    0.6516   68.0267   68.1448 H   0  0  0  0  0  0  0  0  0  0  0  0
   -1.1272   66.4946   69.9047 H   0  0  0  0  0  0  0  0  0  0  0  0
   -0.4220   65.5584   68.4873 H   0  0  0  0  0  0  0  0  0  0  0  0
    1.8221   66.5752   69.2711 H   0  0  0  0  0  0  0  0  0  0  0  0
    0.9383   66.7994   70.8462 H   0  0  0  0  0  0  0  0  0  0  0  0
    1.7906   64.2593   69.6141 H   0  0  0  0  0  0  0  0  0  0  0  0
   -0.5398   57.8957   74.1949 H   0  0  0  0  0  0  0  0  0  0  0  0
   -1.1828   60.2592   73.7058 H   0  0  0  0  0  0  0  0  0  0  0  0
    3.2343   58.5072   72.1783 H   0  0  0  0  0  0  0  0  0  0  0  0
   -0.6317   62.5043   72.6784 H   0  0  0  0  0  0  0  0  0  0  0  0
    1.8793   57.1297   75.4618 H   0  0  0  0  0  0  0  0  0  0  0  0
    0.8859   55.7345   74.9202 H   0  0  0  0  0  0  0  0  0  0  0  0
    2.6782   55.6147   74.9202 H   0  0  0  0  0  0  0  0  0  0  0  0
   -0.2735   66.6812   66.3549 H   0  0  0  0  0  0  0  0  0  0  0  0
   -1.9479   66.9800   66.9677 H   0  0  0  0  0  0  0  0  0  0  0  0
   -1.8155   68.5788   65.3024 H   0  0  0  0  0  0  0  0  0  0  0  0
   -1.2103   69.5105   66.7479 H   0  0  0  0  0  0  0  0  0  0  0  0
    0.1563   68.8334   64.2377 H   0  0  0  0  0  0  0  0  0  0  0  0
    0.5502   70.0640   65.4936 H   0  0  0  0  0  0  0  0  0  0  0  0
    1.2424   67.2190   66.2146 H   0  0  0  0  0  0  0  0  0  0  0  0
    2.7775   67.0076   63.3714 H   0  0  0  0  0  0  0  0  0  0  0  0
    1.7546   68.5045   63.0964 H   0  0  0  0  0  0  0  0  0  0  0  0
    3.2056   67.6978   61.1445 H   0  0  0  0  0  0  0  0  0  0  0  0
    3.2954   69.4368   61.6189 H   0  0  0  0  0  0  0  0  0  0  0  0
    5.2563   67.2607   62.4884 H   0  0  0  0  0  0  0  0  0  0  0  0
    5.5428   68.4646   61.1856 H   0  0  0  0  0  0  0  0  0  0  0  0
    6.5226   69.0688   63.4457 H   0  0  0  0  0  0  0  0  0  0  0  0
    5.3733   70.2897   62.7242 H   0  0  0  0  0  0  0  0  0  0  0  0
    1.5995   69.1216   68.1940 H   0  0  0  0  0  0  0  0  0  0  0  0
    2.7495   70.1816   70.1276 H   0  0  0  0  0  0  0  0  0  0  0  0
    5.0678   71.0627   69.8512 H   0  0  0  0  0  0  0  0  0  0  0  0
    6.1991   70.8911   67.6474 H   0  0  0  0  0  0  0  0  0  0  0  0
  2  1  1  0
  3  2  1  0
  5  4  2  0
  6  4  1  0
  6  3  1  0
  8  7  2  0
  9  8  1  0
 10  9  2  0
 11 10  1  0
 12 11  2  0
 12  7  1  0
 13 11  1  0
 14 13  1  0
 15 14  2  0
 16 14  1  0
 16  4  1  0
 17 16  2  0
 17 10  1  0
 19 18  1  0
 19  7  1  0
 20  1  1  0
 21 20  1  0
 22 21  1  0
 23 22  1  0
 24 23  1  0
 25 24  1  0
 26 25  1  0
 27 26  1  0
 28 27  1  0
 29 28  1  0
 30 25  2  0
 30 29  1  0
 31 30  1  0
 32 31  2  0
 33 32  1  0
 33 24  2  0
 34 33  1  0
 35 34  2  0
 36 35  1  0
 37 36  2  0
 37 32  1  0
  1 38  1  0
  1 39  1  0
  2 40  1  0
  2 41  1  0
  3 42  1  0
  3 43  1  0
  6 44  1  0
  8 45  1  0
  9 46  1  0
 12 47  1  0
 17 48  1  0
 18 49  1  0
 18 50  1  0
 18 51  1  0
 20 52  1  0
 20 53  1  0
 21 54  1  0
 21 55  1  0
 22 56  1  0
 22 57  1  0
 23 58  1  0
 26 59  1  0
 26 60  1  0
 27 61  1  0
 27 62  1  0
 28 63  1  0
 28 64  1  0
 29 65  1  0
 29 66  1  0
 34 67  1  0
 35 68  1  0
 36 69  1  0
 37 70  1  0
M  END
>  <score>  (4) 
-11.736

$$$$
=
     RDKit          3D

 70 74  0  0  0  0  0  0  0  0999 V2000
    4.2620   64.5010   64.5850 C   0  0  0  0  0  0  0  0  0  0  0  0
    3.6620   63.4550   65.5330 C   0  0  0  0  0  0  0  0  0  0  0  0
    4.3030   63.3950   66.9200 C   0  0  0  0  0  0  0  0  0  0  0  0
    3.6890   63.0270   69.2870 C   0  0  0  0  0  0  0  0  0  0  0  0
    4.8040   63.3420   69.6960 O   0  0  0  0  0  0  0  0  0  0  0  0
    3.3510   63.0720   67.9590 N   0  0  0  0  0  0  0  0  0  0  0  0
   -0.1280   59.8680   73.5140 C   0  0  0  0  0  0  0  0  0  0  0  0
    1.0240   59.1190   73.2570 C   0  0  0  0  0  0  0  0  0  0  0  0
    2.0000   59.5990   72.3720 C   0  0  0  0  0  0  0  0  0  0  0  0
    1.8290   60.8300   71.7400 C   0  0  0  0  0  0  0  0  0  0  0  0
    0.6800   61.5630   72.0040 C   0  0  0  0  0  0  0  0  0  0  0  0
   -0.2970   61.1000   72.8800 C   0  0  0  0  0  0  0  0  0  0  0  0
    0.4670   62.8080   71.3880 O   0  0  0  0  0  0  0  0  0  0  0  0
    1.3890   63.3460   70.4950 C   0  0  0  0  0  0  0  0  0  0  0  0
    1.1790   64.4320   69.9590 O   0  0  0  0  0  0  0  0  0  0  0  0
    2.6160   62.5620   70.2220 C   0  0  0  0  0  0  0  0  0  0  0  0
    2.8110   61.3710   70.8150 C   0  0  0  0  0  0  0  0  0  0  0  0
   -1.7060   60.5390   75.1630 C   0  0  0  0  0  0  0  0  0  0  0  0
   -1.1470   59.5120   74.3530 O   0  0  0  0  0  0  0  0  0  0  0  0
    3.3650   65.7230   64.3720 C   0  0  0  0  0  0  0  0  0  0  0  0
    4.0690   66.7790   63.5140 C   0  0  0  0  0  0  0  0  0  0  0  0
    4.8810   67.7780   64.3410 C   0  0  0  0  0  0  0  0  0  0  0  0
    4.1450   69.0430   64.4760 N   0  0  0  0  0  0  0  0  0  0  0  0
    3.6970   69.2490   65.8170 C   0  0  0  0  0  0  0  0  0  0  0  0
    2.3540   69.0050   66.1760 C   0  0  0  0  0  0  0  0  0  0  0  0
    1.3500   68.4540   65.1910 C   0  0  0  0  0  0  0  0  0  0  0  0
    0.0430   67.9750   65.8240 C   0  0  0  0  0  0  0  0  0  0  0  0
   -0.4620   68.9880   66.8380 C   0  0  0  0  0  0  0  0  0  0  0  0
    0.5530   69.1350   67.9630 C   0  0  0  0  0  0  0  0  0  0  0  0
    1.9600   69.3600   67.4710 C   0  0  0  0  0  0  0  0  0  0  0  0
    2.8050   69.8870   68.3880 N   0  0  0  0  0  0  0  0  0  0  0  0
    4.0840   70.1010   68.0500 C   0  0  0  0  0  0  0  0  0  0  0  0
    4.5920   69.8030   66.7730 C   0  0  0  0  0  0  0  0  0  0  0  0
    5.9610   70.0510   66.5130 C   0  0  0  0  0  0  0  0  0  0  0  0
    6.7990   70.5940   67.4850 C   0  0  0  0  0  0  0  0  0  0  0  0
    6.2830   70.8930   68.7370 C   0  0  0  0  0  0  0  0  0  0  0  0
    4.9360   70.6410   69.0050 C   0  0  0  0  0  0  0  0  0  0  0  0
    5.2198   64.8419   65.0051 H   0  0  0  0  0  0  0  0  0  0  0  0
    4.3832   64.0158   63.6053 H   0  0  0  0  0  0  0  0  0  0  0  0
    2.5936   63.6835   65.6607 H   0  0  0  0  0  0  0  0  0  0  0  0
    3.8472   62.4761   65.0667 H   0  0  0  0  0  0  0  0  0  0  0  0
    5.0897   62.6262   66.9116 H   0  0  0  0  0  0  0  0  0  0  0  0
    4.7122   64.3918   67.1413 H   0  0  0  0  0  0  0  0  0  0  0  0
    2.3780   62.8671   67.6903 H   0  0  0  0  0  0  0  0  0  0  0  0
    1.1657   58.1470   73.7521 H   0  0  0  0  0  0  0  0  0  0  0  0
    2.9032   59.0026   72.1758 H   0  0  0  0  0  0  0  0  0  0  0  0
   -1.1977   61.7017   73.0718 H   0  0  0  0  0  0  0  0  0  0  0  0
    3.7251   60.7990   70.5974 H   0  0  0  0  0  0  0  0  0  0  0  0
   -1.5678   60.2850   76.2243 H   0  0  0  0  0  0  0  0  0  0  0  0
   -1.2024   61.4925   74.9455 H   0  0  0  0  0  0  0  0  0  0  0  0
   -2.7801   60.6337   74.9455 H   0  0  0  0  0  0  0  0  0  0  0  0
    2.4407   65.4068   63.8664 H   0  0  0  0  0  0  0  0  0  0  0  0
    3.1363   66.1647   65.3531 H   0  0  0  0  0  0  0  0  0  0  0  0
    4.7485   66.2675   62.8164 H   0  0  0  0  0  0  0  0  0  0  0  0
    3.2889   67.3468   62.9859 H   0  0  0  0  0  0  0  0  0  0  0  0
    5.0658   67.3569   65.3403 H   0  0  0  0  0  0  0  0  0  0  0  0
    5.8367   67.9717   63.8321 H   0  0  0  0  0  0  0  0  0  0  0  0
    3.9736   69.6991   63.7007 H   0  0  0  0  0  0  0  0  0  0  0  0
    1.1111   69.2445   64.4644 H   0  0  0  0  0  0  0  0  0  0  0  0
    1.8162   67.5724   64.7269 H   0  0  0  0  0  0  0  0  0  0  0  0
   -0.7135   67.8438   65.0363 H   0  0  0  0  0  0  0  0  0  0  0  0
    0.2265   67.0198   66.3377 H   0  0  0  0  0  0  0  0  0  0  0  0
   -0.6043   69.9605   66.3441 H   0  0  0  0  0  0  0  0  0  0  0  0
   -1.4199   68.6421   67.2535 H   0  0  0  0  0  0  0  0  0  0  0  0
    0.2603   69.9919   68.5876 H   0  0  0  0  0  0  0  0  0  0  0  0
    0.5524   68.1911   68.5278 H   0  0  0  0  0  0  0  0  0  0  0  0
    6.3725   69.8098   65.5218 H   0  0  0  0  0  0  0  0  0  0  0  0
    7.8592   70.7836   67.2614 H   0  0  0  0  0  0  0  0  0  0  0  0
    6.9305   71.3258   69.5138 H   0  0  0  0  0  0  0  0  0  0  0  0
    4.5375   70.8773   70.0027 H   0  0  0  0  0  0  0  0  0  0  0  0
  2  1  1  0
  3  2  1  0
  5  4  2  0
  6  4  1  0
  6  3  1  0
  8  7  2  0
  9  8  1  0
 10  9  2  0
 11 10  1  0
 12 11  2  0
 12  7  1  0
 13 11  1  0
 14 13  1  0
 15 14  2  0
 16 14  1  0
 16  4  1  0
 17 16  2  0
 17 10  1  0
 19 18  1  0
 19  7  1  0
 20  1  1  0
 21 20  1  0
 22 21  1  0
 23 22  1  0
 24 23  1  0
 25 24  1  0
 26 25  1  0
 27 26  1  0
 28 27  1  0
 29 28  1  0
 30 25  2  0
 30 29  1  0
 31 30  1  0
 32 31  2  0
 33 32  1  0
 33 24  2  0
 34 33  1  0
 35 34  2  0
 36 35  1  0
 37 36  2  0
 37 32  1  0
  1 38  1  0
  1 39  1  0
  2 40  1  0
  2 41  1  0
  3 42  1  0
  3 43  1  0
  6 44  1  0
  8 45  1  0
  9 46  1  0
 12 47  1  0
 17 48  1  0
 18 49  1  0
 18 50  1  0
 18 51  1  0
 20 52  1  0
 20 53  1  0
 21 54  1  0
 21 55  1  0
 22 56  1  0
 22 57  1  0
 23 58  1  0
 26 59  1  0
 26 60  1  0
 27 61  1  0
 27 62  1  0
 28 63  1  0
 28 64  1  0
 29 65  1  0
 29 66  1  0
 34 67  1  0
 35 68  1  0
 36 69  1  0
 37 70  1  0
M  END
>  <score>  (5) 
-11.623

$$$$
=
     RDKit          3D

 70 74  0  0  0  0  0  0  0  0999 V2000
    3.4100   64.4010   64.6370 C   0  0  0  0  0  0  0  0  0  0  0  0
    3.9160   63.3870   65.6700 C   0  0  0  0  0  0  0  0  0  0  0  0
    3.7630   63.8170   67.1290 C   0  0  0  0  0  0  0  0  0  0  0  0
    3.1450   62.8730   69.3300 C   0  0  0  0  0  0  0  0  0  0  0  0
    2.9880   63.9820   69.8370 O   0  0  0  0  0  0  0  0  0  0  0  0
    3.4740   62.7070   68.0090 N   0  0  0  0  0  0  0  0  0  0  0  0
    1.4230   58.1330   73.4510 C   0  0  0  0  0  0  0  0  0  0  0  0
    0.6120   59.2560   73.6460 C   0  0  0  0  0  0  0  0  0  0  0  0
    0.7970   60.4080   72.8690 C   0  0  0  0  0  0  0  0  0  0  0  0
    1.7920   60.4450   71.8940 C   0  0  0  0  0  0  0  0  0  0  0  0
    2.5900   59.3230   71.7110 C   0  0  0  0  0  0  0  0  0  0  0  0
    2.4190   58.1720   72.4740 C   0  0  0  0  0  0  0  0  0  0  0  0
    3.6060   59.3180   70.7390 O   0  0  0  0  0  0  0  0  0  0  0  0
    3.8510   60.4260   69.9360 C   0  0  0  0  0  0  0  0  0  0  0  0
    4.7510   60.4050   69.0980 O   0  0  0  0  0  0  0  0  0  0  0  0
    2.9920   61.6170   70.1310 C   0  0  0  0  0  0  0  0  0  0  0  0
    2.0230   61.6140   71.0630 C   0  0  0  0  0  0  0  0  0  0  0  0
    1.6260   57.0000   75.5320 C   0  0  0  0  0  0  0  0  0  0  0  0
    1.3430   56.9550   74.1390 O   0  0  0  0  0  0  0  0  0  0  0  0
    4.5280   65.1990   63.9610 C   0  0  0  0  0  0  0  0  0  0  0  0
    4.0740   66.6300   63.6550 C   0  0  0  0  0  0  0  0  0  0  0  0
    4.9430   67.6910   64.3330 C   0  0  0  0  0  0  0  0  0  0  0  0
    4.2120   68.9640   64.4240 N   0  0  0  0  0  0  0  0  0  0  0  0
    3.7370   69.2020   65.7500 C   0  0  0  0  0  0  0  0  0  0  0  0
    2.3860   68.9730   66.0860 C   0  0  0  0  0  0  0  0  0  0  0  0
    1.4000   68.4040   65.0930 C   0  0  0  0  0  0  0  0  0  0  0  0
    0.0770   67.9460   65.7080 C   0  0  0  0  0  0  0  0  0  0  0  0
   -0.4440   68.9840   66.6880 C   0  0  0  0  0  0  0  0  0  0  0  0
    0.5490   69.1510   67.8310 C   0  0  0  0  0  0  0  0  0  0  0  0
    1.9670   69.3580   67.3640 C   0  0  0  0  0  0  0  0  0  0  0  0
    2.7940   69.9030   68.2870 N   0  0  0  0  0  0  0  0  0  0  0  0
    4.0810   70.1020   67.9710 C   0  0  0  0  0  0  0  0  0  0  0  0
    4.6150   69.7740   66.7120 C   0  0  0  0  0  0  0  0  0  0  0  0
    5.9910   70.0090   66.4750 C   0  0  0  0  0  0  0  0  0  0  0  0
    6.8110   70.5700   67.4520 C   0  0  0  0  0  0  0  0  0  0  0  0
    6.2700   70.9000   68.6860 C   0  0  0  0  0  0  0  0  0  0  0  0
    4.9160   70.6610   68.9310 C   0  0  0  0  0  0  0  0  0  0  0  0
    2.8527   63.8570   63.8601 H   0  0  0  0  0  0  0  0  0  0  0  0
    2.7798   65.1233   65.1767 H   0  0  0  0  0  0  0  0  0  0  0  0
    3.3567   62.4502   65.5303 H   0  0  0  0  0  0  0  0  0  0  0  0
    4.9966   63.2824   65.4930 H   0  0  0  0  0  0  0  0  0  0  0  0
    4.6999   64.2914   67.4565 H   0  0  0  0  0  0  0  0  0  0  0  0
    2.9142   64.5145   67.1832 H   0  0  0  0  0  0  0  0  0  0  0  0
    3.5170   61.7511   67.6277 H   0  0  0  0  0  0  0  0  0  0  0  0
   -0.1756   59.2350   74.4136 H   0  0  0  0  0  0  0  0  0  0  0  0
    0.1543   61.2862   73.0295 H   0  0  0  0  0  0  0  0  0  0  0  0
    3.0653   57.2975   72.3081 H   0  0  0  0  0  0  0  0  0  0  0  0
    1.3970   62.5083   71.1981 H   0  0  0  0  0  0  0  0  0  0  0  0
    0.6957   56.8521   76.1001 H   0  0  0  0  0  0  0  0  0  0  0  0
    2.3416   56.2044   75.7867 H   0  0  0  0  0  0  0  0  0  0  0  0
    2.0595   57.9784   75.7867 H   0  0  0  0  0  0  0  0  0  0  0  0
    5.4003   65.2338   64.6302 H   0  0  0  0  0  0  0  0  0  0  0  0
    4.7882   64.7040   63.0138 H   0  0  0  0  0  0  0  0  0  0  0  0
    4.1157   66.7858   62.5669 H   0  0  0  0  0  0  0  0  0  0  0  0
    3.0524   66.7419   64.0471 H   0  0  0  0  0  0  0  0  0  0  0  0
    5.2081   67.3511   65.3450 H   0  0  0  0  0  0  0  0  0  0  0  0
    5.8549   67.8426   63.7368 H   0  0  0  0  0  0  0  0  0  0  0  0
    4.0614   69.6038   63.6309 H   0  0  0  0  0  0  0  0  0  0  0  0
    1.1810   69.1786   64.3433 H   0  0  0  0  0  0  0  0  0  0  0  0
    1.8713   67.5093   64.6602 H   0  0  0  0  0  0  0  0  0  0  0  0
   -0.6631   67.8011   64.9072 H   0  0  0  0  0  0  0  0  0  0  0  0
    0.2440   67.0016   66.2467 H   0  0  0  0  0  0  0  0  0  0  0  0
   -0.5707   69.9459   66.1696 H   0  0  0  0  0  0  0  0  0  0  0  0
   -1.4125   68.6526   67.0908 H   0  0  0  0  0  0  0  0  0  0  0  0
    0.2481   70.0230   68.4302 H   0  0  0  0  0  0  0  0  0  0  0  0
    0.5316   68.2197   68.4161 H   0  0  0  0  0  0  0  0  0  0  0  0
    6.4220   69.7430   65.4985 H   0  0  0  0  0  0  0  0  0  0  0  0
    7.8767   70.7494   67.2468 H   0  0  0  0  0  0  0  0  0  0  0  0
    6.9033   71.3470   69.4664 H   0  0  0  0  0  0  0  0  0  0  0  0
    4.4977   70.9233   69.9140 H   0  0  0  0  0  0  0  0  0  0  0  0
  2  1  1  0
  3  2  1  0
  5  4  2  0
  6  4  1  0
  6  3  1  0
  8  7  2  0
  9  8  1  0
 10  9  2  0
 11 10  1  0
 12 11  2  0
 12  7  1  0
 13 11  1  0
 14 13  1  0
 15 14  2  0
 16 14  1  0
 16  4  1  0
 17 16  2  0
 17 10  1  0
 19 18  1  0
 19  7  1  0
 20  1  1  0
 21 20  1  0
 22 21  1  0
 23 22  1  0
 24 23  1  0
 25 24  1  0
 26 25  1  0
 27 26  1  0
 28 27  1  0
 29 28  1  0
 30 25  2  0
 30 29  1  0
 31 30  1  0
 32 31  2  0
 33 32  1  0
 33 24  2  0
 34 33  1  0
 35 34  2  0
 36 35  1  0
 37 36  2  0
 37 32  1  0
  1 38  1  0
  1 39  1  0
  2 40  1  0
  2 41  1  0
  3 42  1  0
  3 43  1  0
  6 44  1  0
  8 45  1  0
  9 46  1  0
 12 47  1  0
 17 48  1  0
 18 49  1  0
 18 50  1  0
 18 51  1  0
 20 52  1  0
 20 53  1  0
 21 54  1  0
 21 55  1  0
 22 56  1  0
 22 57  1  0
 23 58  1  0
 26 59  1  0
 26 60  1  0
 27 61  1  0
 27 62  1  0
 28 63  1  0
 28 64  1  0
 29 65  1  0
 29 66  1  0
 34 67  1  0
 35 68  1  0
 36 69  1  0
 37 70  1  0
M  END
>  <score>  (6) 
-11.554

$$$$
=
     RDKit          3D

 70 74  0  0  0  0  0  0  0  0999 V2000
    0.4040   63.5670   70.8470 C   0  0  0  0  0  0  0  0  0  0  0  0
    1.0340   64.9190   70.4940 C   0  0  0  0  0  0  0  0  0  0  0  0
    0.0390   66.0530   70.2470 C   0  0  0  0  0  0  0  0  0  0  0  0
    0.8010   67.5090   68.3980 C   0  0  0  0  0  0  0  0  0  0  0  0
    1.6370   68.0750   69.0980 O   0  0  0  0  0  0  0  0  0  0  0  0
    0.0190   66.4840   68.8660 N   0  0  0  0  0  0  0  0  0  0  0  0
    1.2310   69.0930   62.0960 C   0  0  0  0  0  0  0  0  0  0  0  0
    2.5010   68.8010   62.6040 C   0  0  0  0  0  0  0  0  0  0  0  0
    2.6600   68.4320   63.9470 C   0  0  0  0  0  0  0  0  0  0  0  0
    1.5510   68.3530   64.7890 C   0  0  0  0  0  0  0  0  0  0  0  0
    0.2970   68.6460   64.2710 C   0  0  0  0  0  0  0  0  0  0  0  0
    0.1230   69.0140   62.9400 C   0  0  0  0  0  0  0  0  0  0  0  0
   -0.8470   68.5800   65.0850 O   0  0  0  0  0  0  0  0  0  0  0  0
   -0.7660   68.2260   66.4270 C   0  0  0  0  0  0  0  0  0  0  0  0
   -1.7780   68.1830   67.1250 O   0  0  0  0  0  0  0  0  0  0  0  0
    0.5740   67.9080   66.9730 C   0  0  0  0  0  0  0  0  0  0  0  0
    1.6630   67.9750   66.1880 C   0  0  0  0  0  0  0  0  0  0  0  0
   -0.2960   70.1170   60.5880 C   0  0  0  0  0  0  0  0  0  0  0  0
    0.9460   69.4620   60.8110 O   0  0  0  0  0  0  0  0  0  0  0  0
    0.1190   63.3930   72.3410 C   0  0  0  0  0  0  0  0  0  0  0  0
    0.6130   62.0310   72.8400 C   0  0  0  0  0  0  0  0  0  0  0  0
    1.3740   62.1200   74.1640 C   0  0  0  0  0  0  0  0  0  0  0  0
    2.7950   61.8080   73.9550 N   0  0  0  0  0  0  0  0  0  0  0  0
    2.9810   60.9360   72.8380 C   0  0  0  0  0  0  0  0  0  0  0  0
    3.4380   61.4340   71.6000 C   0  0  0  0  0  0  0  0  0  0  0  0
    3.8170   62.8850   71.4120 C   0  0  0  0  0  0  0  0  0  0  0  0
    4.5670   63.1780   70.1120 C   0  0  0  0  0  0  0  0  0  0  0  0
    3.8990   62.4780   68.9410 C   0  0  0  0  0  0  0  0  0  0  0  0
    3.9440   60.9700   69.1540 C   0  0  0  0  0  0  0  0  0  0  0  0
    3.4650   60.5470   70.5190 C   0  0  0  0  0  0  0  0  0  0  0  0
    3.1070   59.2450   70.6150 N   0  0  0  0  0  0  0  0  0  0  0  0
    2.6900   58.7700   71.7970 C   0  0  0  0  0  0  0  0  0  0  0  0
    2.6030   59.5700   72.9500 C   0  0  0  0  0  0  0  0  0  0  0  0
    2.1640   58.9750   74.1580 C   0  0  0  0  0  0  0  0  0  0  0  0
    1.8060   57.6300   74.2170 C   0  0  0  0  0  0  0  0  0  0  0  0
    1.8870   56.8540   73.0710 C   0  0  0  0  0  0  0  0  0  0  0  0
    2.3280   57.4300   71.8780 C   0  0  0  0  0  0  0  0  0  0  0  0
   -0.5450   63.4723   70.2989 H   0  0  0  0  0  0  0  0  0  0  0  0
    1.1302   62.7903   70.5654 H   0  0  0  0  0  0  0  0  0  0  0  0
    1.6904   65.2165   71.3250 H   0  0  0  0  0  0  0  0  0  0  0  0
    1.5696   64.7691   69.5450 H   0  0  0  0  0  0  0  0  0  0  0  0
   -0.9675   65.7048   70.5221 H   0  0  0  0  0  0  0  0  0  0  0  0
    0.3527   66.9111   70.8596 H   0  0  0  0  0  0  0  0  0  0  0  0
   -0.6084   66.0011   68.2071 H   0  0  0  0  0  0  0  0  0  0  0  0
    3.3803   68.8613   61.9458 H   0  0  0  0  0  0  0  0  0  0  0  0
    3.6626   68.2040   64.3380 H   0  0  0  0  0  0  0  0  0  0  0  0
   -0.8824   69.2412   62.5558 H   0  0  0  0  0  0  0  0  0  0  0  0
    2.6516   67.7408   66.6097 H   0  0  0  0  0  0  0  0  0  0  0  0
   -0.7602   70.3618   61.5547 H   0  0  0  0  0  0  0  0  0  0  0  0
   -0.1254   71.0424   60.0184 H   0  0  0  0  0  0  0  0  0  0  0  0
   -0.9633   69.4535   60.0184 H   0  0  0  0  0  0  0  0  0  0  0  0
    0.6328   64.1888   72.9002 H   0  0  0  0  0  0  0  0  0  0  0  0
   -0.9680   63.4506   72.4991 H   0  0  0  0  0  0  0  0  0  0  0  0
   -0.2567   61.3721   72.9791 H   0  0  0  0  0  0  0  0  0  0  0  0
    1.3099   61.6370   72.0856 H   0  0  0  0  0  0  0  0  0  0  0  0
    1.2814   63.1387   74.5685 H   0  0  0  0  0  0  0  0  0  0  0  0
    0.9477   61.3943   74.8723 H   0  0  0  0  0  0  0  0  0  0  0  0
    3.5606   62.1720   74.5400 H   0  0  0  0  0  0  0  0  0  0  0  0
    2.8953   63.4853   71.4204 H   0  0  0  0  0  0  0  0  0  0  0  0
    4.5019   63.1399   72.2342 H   0  0  0  0  0  0  0  0  0  0  0  0
    4.5682   64.2631   69.9318 H   0  0  0  0  0  0  0  0  0  0  0  0
    5.5984   62.8072   70.2058 H   0  0  0  0  0  0  0  0  0  0  0  0
    2.8517   62.8062   68.8673 H   0  0  0  0  0  0  0  0  0  0  0  0
    4.4306   62.7318   68.0120 H   0  0  0  0  0  0  0  0  0  0  0  0
    3.3066   60.4910   68.3962 H   0  0  0  0  0  0  0  0  0  0  0  0
    4.9956   60.6595   69.0667 H   0  0  0  0  0  0  0  0  0  0  0  0
    2.1044   59.5882   75.0693 H   0  0  0  0  0  0  0  0  0  0  0  0
    1.4623   57.1879   75.1638 H   0  0  0  0  0  0  0  0  0  0  0  0
    1.6056   55.7910   73.1014 H   0  0  0  0  0  0  0  0  0  0  0  0
    2.3909   56.8049   70.9751 H   0  0  0  0  0  0  0  0  0  0  0  0
  2  1  1  0
  3  2  1  0
  5  4  2  0
  6  4  1  0
  6  3  1  0
  8  7  2  0
  9  8  1  0
 10  9  2  0
 11 10  1  0
 12 11  2  0
 12  7  1  0
 13 11  1  0
 14 13  1  0
 15 14  2  0
 16 14  1  0
 16  4  1  0
 17 16  2  0
 17 10  1  0
 19 18  1  0
 19  7  1  0
 20  1  1  0
 21 20  1  0
 22 21  1  0
 23 22  1  0
 24 23  1  0
 25 24  1  0
 26 25  1  0
 27 26  1  0
 28 27  1  0
 29 28  1  0
 30 25  2  0
 30 29  1  0
 31 30  1  0
 32 31  2  0
 33 32  1  0
 33 24  2  0
 34 33  1  0
 35 34  2  0
 36 35  1  0
 37 36  2  0
 37 32  1  0
  1 38  1  0
  1 39  1  0
  2 40  1  0
  2 41  1  0
  3 42  1  0
  3 43  1  0
  6 44  1  0
  8 45  1  0
  9 46  1  0
 12 47  1  0
 17 48  1  0
 18 49  1  0
 18 50  1  0
 18 51  1  0
 20 52  1  0
 20 53  1  0
 21 54  1  0
 21 55  1  0
 22 56  1  0
 22 57  1  0
 23 58  1  0
 26 59  1  0
 26 60  1  0
 27 61  1  0
 27 62  1  0
 28 63  1  0
 28 64  1  0
 29 65  1  0
 29 66  1  0
 34 67  1  0
 35 68  1  0
 36 69  1  0
 37 70  1  0
M  END
>  <score>  (7) 
-11.055

$$$$
=
     RDKit          3D

 70 74  0  0  0  0  0  0  0  0999 V2000
    1.3900   64.0140   71.9010 C   0  0  0  0  0  0  0  0  0  0  0  0
    0.5750   64.3150   70.6370 C   0  0  0  0  0  0  0  0  0  0  0  0
    0.1130   65.7660   70.4950 C   0  0  0  0  0  0  0  0  0  0  0  0
    0.9340   67.2630   68.7060 C   0  0  0  0  0  0  0  0  0  0  0  0
    1.7420   67.8180   69.4480 O   0  0  0  0  0  0  0  0  0  0  0  0
    0.1400   66.2260   69.1250 N   0  0  0  0  0  0  0  0  0  0  0  0
    1.5830   69.0090   62.4660 C   0  0  0  0  0  0  0  0  0  0  0  0
    2.8380   68.7330   63.0190 C   0  0  0  0  0  0  0  0  0  0  0  0
    2.9510   68.3350   64.3590 C   0  0  0  0  0  0  0  0  0  0  0  0
    1.8110   68.2110   65.1520 C   0  0  0  0  0  0  0  0  0  0  0  0
    0.5720   68.4890   64.5900 C   0  0  0  0  0  0  0  0  0  0  0  0
    0.4440   68.8850   63.2620 C   0  0  0  0  0  0  0  0  0  0  0  0
   -0.6030   68.3770   65.3540 O   0  0  0  0  0  0  0  0  0  0  0  0
   -0.5680   67.9930   66.6900 C   0  0  0  0  0  0  0  0  0  0  0  0
   -1.6060   67.9110   67.3440 O   0  0  0  0  0  0  0  0  0  0  0  0
    0.7560   67.6920   67.2820 C   0  0  0  0  0  0  0  0  0  0  0  0
    1.8740   67.8020   66.5450 C   0  0  0  0  0  0  0  0  0  0  0  0
    0.0400   69.8960   60.8880 C   0  0  0  0  0  0  0  0  0  0  0  0
    1.3420   69.4030   61.1790 O   0  0  0  0  0  0  0  0  0  0  0  0
    0.6240   63.2000   72.9470 C   0  0  0  0  0  0  0  0  0  0  0  0
   -0.4820   62.3660   72.2930 C   0  0  0  0  0  0  0  0  0  0  0  0
   -0.8120   61.0920   73.0740 C   0  0  0  0  0  0  0  0  0  0  0  0
    0.3500   60.6690   73.8690 N   0  0  0  0  0  0  0  0  0  0  0  0
    0.8420   59.3970   73.4430 C   0  0  0  0  0  0  0  0  0  0  0  0
    1.9070   59.3060   72.5220 C   0  0  0  0  0  0  0  0  0  0  0  0
    2.6200   60.5320   72.0000 C   0  0  0  0  0  0  0  0  0  0  0  0
    3.9240   60.2360   71.2580 C   0  0  0  0  0  0  0  0  0  0  0  0
    3.7390   59.0760   70.2940 C   0  0  0  0  0  0  0  0  0  0  0  0
    3.3690   57.8190   71.0700 C   0  0  0  0  0  0  0  0  0  0  0  0
    2.2420   58.0330   72.0480 C   0  0  0  0  0  0  0  0  0  0  0  0
    1.6200   56.9010   72.4530 N   0  0  0  0  0  0  0  0  0  0  0  0
    0.6200   56.9890   73.3410 C   0  0  0  0  0  0  0  0  0  0  0  0
    0.1820   58.2140   73.8730 C   0  0  0  0  0  0  0  0  0  0  0  0
   -0.8740   58.2060   74.8180 C   0  0  0  0  0  0  0  0  0  0  0  0
   -1.4880   57.0180   75.2110 C   0  0  0  0  0  0  0  0  0  0  0  0
   -1.0530   55.8170   74.6700 C   0  0  0  0  0  0  0  0  0  0  0  0
   -0.0060   55.8160   73.7460 C   0  0  0  0  0  0  0  0  0  0  0  0
    2.2872   63.4483   71.6094 H   0  0  0  0  0  0  0  0  0  0  0  0
    1.6360   64.9814   72.3631 H   0  0  0  0  0  0  0  0  0  0  0  0
    1.1964   64.0679   69.7636 H   0  0  0  0  0  0  0  0  0  0  0  0
   -0.3391   63.7074   70.7092 H   0  0  0  0  0  0  0  0  0  0  0  0
   -0.9167   65.8466   70.8735 H   0  0  0  0  0  0  0  0  0  0  0  0
    0.8074   66.3949   71.0715 H   0  0  0  0  0  0  0  0  0  0  0  0
   -0.4622   65.7554   68.4345 H   0  0  0  0  0  0  0  0  0  0  0  0
    3.7416   68.8287   62.3991 H   0  0  0  0  0  0  0  0  0  0  0  0
    3.9419   68.1201   64.7856 H   0  0  0  0  0  0  0  0  0  0  0  0
   -0.5499   69.0991   62.8422 H   0  0  0  0  0  0  0  0  0  0  0  0
    2.8496   67.5796   67.0019 H   0  0  0  0  0  0  0  0  0  0  0  0
   -0.4941   70.0982   61.8281 H   0  0  0  0  0  0  0  0  0  0  0  0
    0.1216   70.8255   60.3054 H   0  0  0  0  0  0  0  0  0  0  0  0
   -0.5145   69.1456   60.3054 H   0  0  0  0  0  0  0  0  0  0  0  0
    1.3248   62.5268   73.4625 H   0  0  0  0  0  0  0  0  0  0  0  0
    0.1611   63.8961   73.6619 H   0  0  0  0  0  0  0  0  0  0  0  0
   -1.3914   62.9812   72.2256 H   0  0  0  0  0  0  0  0  0  0  0  0
   -0.1192   62.0589   71.3010 H   0  0  0  0  0  0  0  0  0  0  0  0
   -1.6606   61.2873   73.7462 H   0  0  0  0  0  0  0  0  0  0  0  0
   -1.0716   60.2928   72.3642 H   0  0  0  0  0  0  0  0  0  0  0  0
    0.7584   61.2206   74.6370 H   0  0  0  0  0  0  0  0  0  0  0  0
    1.9427   61.0562   71.3097 H   0  0  0  0  0  0  0  0  0  0  0  0
    2.8889   61.1369   72.8786 H   0  0  0  0  0  0  0  0  0  0  0  0
    4.2299   61.1295   70.6941 H   0  0  0  0  0  0  0  0  0  0  0  0
    4.6971   59.9668   71.9928 H   0  0  0  0  0  0  0  0  0  0  0  0
    2.9354   59.3164   69.5823 H   0  0  0  0  0  0  0  0  0  0  0  0
    4.6774   58.9036   69.7465 H   0  0  0  0  0  0  0  0  0  0  0  0
    3.0661   57.0421   70.3526 H   0  0  0  0  0  0  0  0  0  0  0  0
    4.2541   57.5227   71.6521 H   0  0  0  0  0  0  0  0  0  0  0  0
   -1.2164   59.1576   75.2506 H   0  0  0  0  0  0  0  0  0  0  0  0
   -2.3092   57.0327   75.9427 H   0  0  0  0  0  0  0  0  0  0  0  0
   -1.5299   54.8713   74.9670 H   0  0  0  0  0  0  0  0  0  0  0  0
    0.3336   54.8578   73.3259 H   0  0  0  0  0  0  0  0  0  0  0  0
  2  1  1  0
  3  2  1  0
  5  4  2  0
  6  4  1  0
  6  3  1  0
  8  7  2  0
  9  8  1  0
 10  9  2  0
 11 10  1  0
 12 11  2  0
 12  7  1  0
 13 11  1  0
 14 13  1  0
 15 14  2  0
 16 14  1  0
 16  4  1  0
 17 16  2  0
 17 10  1  0
 19 18  1  0
 19  7  1  0
 20  1  1  0
 21 20  1  0
 22 21  1  0
 23 22  1  0
 24 23  1  0
 25 24  1  0
 26 25  1  0
 27 26  1  0
 28 27  1  0
 29 28  1  0
 30 25  2  0
 30 29  1  0
 31 30  1  0
 32 31  2  0
 33 32  1  0
 33 24  2  0
 34 33  1  0
 35 34  2  0
 36 35  1  0
 37 36  2  0
 37 32  1  0
  1 38  1  0
  1 39  1  0
  2 40  1  0
  2 41  1  0
  3 42  1  0
  3 43  1  0
  6 44  1  0
  8 45  1  0
  9 46  1  0
 12 47  1  0
 17 48  1  0
 18 49  1  0
 18 50  1  0
 18 51  1  0
 20 52  1  0
 20 53  1  0
 21 54  1  0
 21 55  1  0
 22 56  1  0
 22 57  1  0
 23 58  1  0
 26 59  1  0
 26 60  1  0
 27 61  1  0
 27 62  1  0
 28 63  1  0
 28 64  1  0
 29 65  1  0
 29 66  1  0
 34 67  1  0
 35 68  1  0
 36 69  1  0
 37 70  1  0
M  END
>  <score>  (8) 
-10.592

$$$$
=
     RDKit          3D

 70 74  0  0  0  0  0  0  0  0999 V2000
    0.0110   63.5870   70.6580 C   0  0  0  0  0  0  0  0  0  0  0  0
    1.0120   64.7480   70.6260 C   0  0  0  0  0  0  0  0  0  0  0  0
    0.3860   66.1400   70.5290 C   0  0  0  0  0  0  0  0  0  0  0  0
   -0.4990   67.0260   68.3960 C   0  0  0  0  0  0  0  0  0  0  0  0
   -1.6690   66.8800   68.7430 O   0  0  0  0  0  0  0  0  0  0  0  0
    0.5560   66.7360   69.2230 N   0  0  0  0  0  0  0  0  0  0  0  0
    2.3490   68.7510   62.7990 C   0  0  0  0  0  0  0  0  0  0  0  0
    3.2850   68.1520   63.6480 C   0  0  0  0  0  0  0  0  0  0  0  0
    2.9020   67.6970   64.9180 C   0  0  0  0  0  0  0  0  0  0  0  0
    1.5820   67.8360   65.3450 C   0  0  0  0  0  0  0  0  0  0  0  0
    0.6630   68.4320   64.4910 C   0  0  0  0  0  0  0  0  0  0  0  0
    1.0280   68.8900   63.2280 C   0  0  0  0  0  0  0  0  0  0  0  0
   -0.6770   68.5940   64.8820 O   0  0  0  0  0  0  0  0  0  0  0  0
   -1.1280   68.1710   66.1280 C   0  0  0  0  0  0  0  0  0  0  0  0
   -2.3030   68.3310   66.4550 O   0  0  0  0  0  0  0  0  0  0  0  0
   -0.1440   67.5300   67.0320 C   0  0  0  0  0  0  0  0  0  0  0  0
    1.1350   67.3810   66.6500 C   0  0  0  0  0  0  0  0  0  0  0  0
    3.4730   68.4730   60.7220 C   0  0  0  0  0  0  0  0  0  0  0  0
    2.5950   69.2320   61.5440 O   0  0  0  0  0  0  0  0  0  0  0  0
    0.0160   62.8070   71.9760 C   0  0  0  0  0  0  0  0  0  0  0  0
    0.9510   63.4610   72.9980 C   0  0  0  0  0  0  0  0  0  0  0  0
    1.3070   62.5340   74.1620 C   0  0  0  0  0  0  0  0  0  0  0  0
    2.6500   61.9680   73.9680 N   0  0  0  0  0  0  0  0  0  0  0  0
    2.6320   60.8840   73.0380 C   0  0  0  0  0  0  0  0  0  0  0  0
    2.1850   59.6030   73.4280 C   0  0  0  0  0  0  0  0  0  0  0  0
    1.6430   59.3330   74.8120 C   0  0  0  0  0  0  0  0  0  0  0  0
    0.9350   57.9860   74.9600 C   0  0  0  0  0  0  0  0  0  0  0  0
    1.7440   56.8810   74.3030 C   0  0  0  0  0  0  0  0  0  0  0  0
    1.8720   57.1590   72.8110 C   0  0  0  0  0  0  0  0  0  0  0  0
    2.3250   58.5630   72.5030 C   0  0  0  0  0  0  0  0  0  0  0  0
    2.8330   58.7350   71.2600 N   0  0  0  0  0  0  0  0  0  0  0  0
    3.2400   59.9560   70.8860 C   0  0  0  0  0  0  0  0  0  0  0  0
    3.1680   61.0750   71.7350 C   0  0  0  0  0  0  0  0  0  0  0  0
    3.6100   62.3280   71.2450 C   0  0  0  0  0  0  0  0  0  0  0  0
    4.1250   62.4650   69.9580 C   0  0  0  0  0  0  0  0  0  0  0  0
    4.2020   61.3520   69.1350 C   0  0  0  0  0  0  0  0  0  0  0  0
    3.7580   60.1150   69.6060 C   0  0  0  0  0  0  0  0  0  0  0  0
   -0.9984   63.9941   70.4991 H   0  0  0  0  0  0  0  0  0  0  0  0
    0.3088   62.8835   69.8666 H   0  0  0  0  0  0  0  0  0  0  0  0
    1.6113   64.7071   71.5475 H   0  0  0  0  0  0  0  0  0  0  0  0
    1.6075   64.6148   69.7108 H   0  0  0  0  0  0  0  0  0  0  0  0
   -0.6902   66.0579   70.7415 H   0  0  0  0  0  0  0  0  0  0  0  0
    0.8955   66.7861   71.2590 H   0  0  0  0  0  0  0  0  0  0  0  0
    1.5098   66.9520   68.8998 H   0  0  0  0  0  0  0  0  0  0  0  0
    4.3279   68.0370   63.3176 H   0  0  0  0  0  0  0  0  0  0  0  0
    3.6456   67.2288   65.5797 H   0  0  0  0  0  0  0  0  0  0  0  0
    0.2797   69.3587   62.5719 H   0  0  0  0  0  0  0  0  0  0  0  0
    1.8540   66.9078   67.3350 H   0  0  0  0  0  0  0  0  0  0  0  0
    4.1528   67.8853   61.3564 H   0  0  0  0  0  0  0  0  0  0  0  0
    2.8853   67.7939   60.0869 H   0  0  0  0  0  0  0  0  0  0  0  0
    4.0600   69.1528   60.0869 H   0  0  0  0  0  0  0  0  0  0  0  0
   -1.0049   62.7853   72.3849 H   0  0  0  0  0  0  0  0  0  0  0  0
    0.3736   61.7859   71.7773 H   0  0  0  0  0  0  0  0  0  0  0  0
    1.8797   63.7537   72.4863 H   0  0  0  0  0  0  0  0  0  0  0  0
    0.4227   64.3292   73.4187 H   0  0  0  0  0  0  0  0  0  0  0  0
    1.2859   63.1058   75.1014 H   0  0  0  0  0  0  0  0  0  0  0  0
    0.5748   61.7142   74.2048 H   0  0  0  0  0  0  0  0  0  0  0  0
    3.4974   62.3102   74.4431 H   0  0  0  0  0  0  0  0  0  0  0  0
    2.4827   59.3604   75.5220 H   0  0  0  0  0  0  0  0  0  0  0  0
    0.8886   60.1084   75.0111 H   0  0  0  0  0  0  0  0  0  0  0  0
    0.8127   57.7576   76.0290 H   0  0  0  0  0  0  0  0  0  0  0  0
   -0.0473   58.0461   74.4686 H   0  0  0  0  0  0  0  0  0  0  0  0
    2.7459   56.8424   74.7554 H   0  0  0  0  0  0  0  0  0  0  0  0
    1.2349   55.9174   74.4525 H   0  0  0  0  0  0  0  0  0  0  0  0
    2.6029   56.4552   72.3861 H   0  0  0  0  0  0  0  0  0  0  0  0
    0.8721   57.0350   72.3695 H   0  0  0  0  0  0  0  0  0  0  0  0
    3.5452   63.2129   71.8952 H   0  0  0  0  0  0  0  0  0  0  0  0
    4.4672   63.4466   69.5982 H   0  0  0  0  0  0  0  0  0  0  0  0
    4.6102   61.4429   68.1176 H   0  0  0  0  0  0  0  0  0  0  0  0
    3.8200   59.2390   68.9436 H   0  0  0  0  0  0  0  0  0  0  0  0
  2  1  1  0
  3  2  1  0
  5  4  2  0
  6  4  1  0
  6  3  1  0
  8  7  2  0
  9  8  1  0
 10  9  2  0
 11 10  1  0
 12 11  2  0
 12  7  1  0
 13 11  1  0
 14 13  1  0
 15 14  2  0
 16 14  1  0
 16  4  1  0
 17 16  2  0
 17 10  1  0
 19 18  1  0
 19  7  1  0
 20  1  1  0
 21 20  1  0
 22 21  1  0
 23 22  1  0
 24 23  1  0
 25 24  1  0
 26 25  1  0
 27 26  1  0
 28 27  1  0
 29 28  1  0
 30 25  2  0
 30 29  1  0
 31 30  1  0
 32 31  2  0
 33 32  1  0
 33 24  2  0
 34 33  1  0
 35 34  2  0
 36 35  1  0
 37 36  2  0
 37 32  1  0
  1 38  1  0
  1 39  1  0
  2 40  1  0
  2 41  1  0
  3 42  1  0
  3 43  1  0
  6 44  1  0
  8 45  1  0
  9 46  1  0
 12 47  1  0
 17 48  1  0
 18 49  1  0
 18 50  1  0
 18 51  1  0
 20 52  1  0
 20 53  1  0
 21 54  1  0
 21 55  1  0
 22 56  1  0
 22 57  1  0
 23 58  1  0
 26 59  1  0
 26 60  1  0
 27 61  1  0
 27 62  1  0
 28 63  1  0
 28 64  1  0
 29 65  1  0
 29 66  1  0
 34 67  1  0
 35 68  1  0
 36 69  1  0
 37 70  1  0
M  END
>  <score>  (9) 
-10.317

$$$$
