=
     RDKit          3D

 32 33  0  0  0  0  0  0  0  0999 V2000
   -0.1250   68.1420   66.5270 S   0  0  0  0  0  6  0  0  0  0  0  0
   -0.7250   66.8240   66.5040 O   0  0  0  0  0  0  0  0  0  0  0  0
   -0.9290   69.3320   66.7280 O   0  0  0  0  0  0  0  0  0  0  0  0
    2.9450   68.7540   61.3240 C   0  0  0  0  0  0  0  0  0  0  0  0
    2.1940   68.6310   62.6180 C   0  0  0  0  0  0  0  0  0  0  0  0
    2.7780   67.9830   63.7160 C   0  0  0  0  0  0  0  0  0  0  0  0
    2.0710   67.8360   64.9090 C   0  0  0  0  0  0  0  0  0  0  0  0
    0.7710   68.3390   65.0040 C   0  0  0  0  0  0  0  0  0  0  0  0
    0.1640   68.9600   63.9100 C   0  0  0  0  0  0  0  0  0  0  0  0
    0.8790   69.1040   62.7200 C   0  0  0  0  0  0  0  0  0  0  0  0
    1.3820   68.1350   67.9690 S   0  0  0  0  0  0  0  0  0  0  0  0
    1.8440   69.8800   68.0460 C   0  0  0  0  0  0  0  0  0  0  0  0
    3.3410   70.0680   68.0560 C   0  0  0  0  0  0  0  0  0  0  0  0
    4.1050   69.7700   66.9170 C   0  0  0  0  0  0  0  0  0  0  0  0
    5.4880   69.9590   66.9250 C   0  0  0  0  0  0  0  0  0  0  0  0
    6.1080   70.4480   68.0680 C   0  0  0  0  0  0  0  0  0  0  0  0
    5.3710   70.7570   69.2040 C   0  0  0  0  0  0  0  0  0  0  0  0
    3.9870   70.5700   69.2000 C   0  0  0  0  0  0  0  0  0  0  0  0
    7.4350   70.6280   68.0740 F   0  0  0  0  0  0  0  0  0  0  0  0
    4.0106   68.9285   61.5337 H   0  0  0  0  0  0  0  0  0  0  0  0
    2.8325   67.8255   60.7451 H   0  0  0  0  0  0  0  0  0  0  0  0
    2.5422   69.5981   60.7451 H   0  0  0  0  0  0  0  0  0  0  0  0
    3.8014   67.5877   63.6356 H   0  0  0  0  0  0  0  0  0  0  0  0
    2.5331   67.3281   65.7683 H   0  0  0  0  0  0  0  0  0  0  0  0
   -0.8683   69.3323   63.9856 H   0  0  0  0  0  0  0  0  0  0  0  0
    0.4064   69.5927   61.8553 H   0  0  0  0  0  0  0  0  0  0  0  0
    1.4269   70.3969   67.1691 H   0  0  0  0  0  0  0  0  0  0  0  0
    1.4428   70.2969   68.9815 H   0  0  0  0  0  0  0  0  0  0  0  0
    3.6110   69.3852   66.0126 H   0  0  0  0  0  0  0  0  0  0  0  0
    6.0837   69.7220   66.0311 H   0  0  0  0  0  0  0  0  0  0  0  0
    5.8743   71.1466   70.1012 H   0  0  0  0  0  0  0  0  0  0  0  0
    3.3990   70.8166   70.0964 H   0  0  0  0  0  0  0  0  0  0  0  0
  2  1  2  0
  3  1  2  0
  5  4  1  0
  6  5  2  0
  7  6  1  0
  8  7  2  0
  8  1  1  0
  9  8  1  0
 10  9  2  0
 10  5  1  0
 11  1  1  0
 12 11  1  0
 13 12  1  0
 14 13  2  0
 15 14  1  0
 16 15  2  0
 17 16  1  0
 18 17  2  0
 18 13  1  0
 19 16  1  0
  4 20  1  0
  4 21  1  0
  4 22  1  0
  6 23  1  0
  7 24  1  0
  9 25  1  0
 10 26  1  0
 12 27  1  0
 12 28  1  0
 14 29  1  0
 15 30  1  0
 17 31  1  0
 18 32  1  0
M  END
>  <score>  (1) 
-9.535

$$$$
=
     RDKit          3D

 32 33  0  0  0  0  0  0  0  0999 V2000
    4.0560   67.1210   62.8440 S   0  0  0  0  0  6  0  0  0  0  0  0
    4.0300   67.9000   61.6240 O   0  0  0  0  0  0  0  0  0  0  0  0
    4.1380   65.6740   62.8110 O   0  0  0  0  0  0  0  0  0  0  0  0
   -0.9100   68.6350   65.9930 C   0  0  0  0  0  0  0  0  0  0  0  0
    0.3340   68.2770   65.2340 C   0  0  0  0  0  0  0  0  0  0  0  0
    0.6760   68.9760   64.0680 C   0  0  0  0  0  0  0  0  0  0  0  0
    1.8130   68.6230   63.3400 C   0  0  0  0  0  0  0  0  0  0  0  0
    2.6110   67.5650   63.7810 C   0  0  0  0  0  0  0  0  0  0  0  0
    2.2680   66.8400   64.9250 C   0  0  0  0  0  0  0  0  0  0  0  0
    1.1290   67.2000   65.6480 C   0  0  0  0  0  0  0  0  0  0  0  0
    5.6250   67.8260   64.0230 S   0  0  0  0  0  0  0  0  0  0  0  0
    5.1210   69.5300   64.3480 C   0  0  0  0  0  0  0  0  0  0  0  0
    5.0290   69.8190   65.8260 C   0  0  0  0  0  0  0  0  0  0  0  0
    6.1430   70.3070   66.5280 C   0  0  0  0  0  0  0  0  0  0  0  0
    6.0510   70.5880   67.8920 C   0  0  0  0  0  0  0  0  0  0  0  0
    4.8470   70.3850   68.5550 C   0  0  0  0  0  0  0  0  0  0  0  0
    3.7300   69.9110   67.8790 C   0  0  0  0  0  0  0  0  0  0  0  0
    3.8180   69.6300   66.5140 C   0  0  0  0  0  0  0  0  0  0  0  0
    4.7610   70.6540   69.8640 F   0  0  0  0  0  0  0  0  0  0  0  0
   -0.7099   68.5774   67.0731 H   0  0  0  0  0  0  0  0  0  0  0  0
   -1.2176   69.6581   65.7311 H   0  0  0  0  0  0  0  0  0  0  0  0
   -1.7144   67.9319   65.7311 H   0  0  0  0  0  0  0  0  0  0  0  0
    0.0439   69.8082   63.7246 H   0  0  0  0  0  0  0  0  0  0  0  0
    2.0787   69.1739   62.4257 H   0  0  0  0  0  0  0  0  0  0  0  0
    2.8893   65.9936   65.2530 H   0  0  0  0  0  0  0  0  0  0  0  0
    0.8536   66.6336   66.5498 H   0  0  0  0  0  0  0  0  0  0  0  0
    5.8587   70.2107   63.8981 H   0  0  0  0  0  0  0  0  0  0  0  0
    4.1233   69.6792   63.9094 H   0  0  0  0  0  0  0  0  0  0  0  0
    7.0941   70.4688   65.9996 H   0  0  0  0  0  0  0  0  0  0  0  0
    6.9265   70.9679   68.4389 H   0  0  0  0  0  0  0  0  0  0  0  0
    2.7820   69.7579   68.4156 H   0  0  0  0  0  0  0  0  0  0  0  0
    2.9345   69.2586   65.9741 H   0  0  0  0  0  0  0  0  0  0  0  0
  2  1  2  0
  3  1  2  0
  5  4  1  0
  6  5  2  0
  7  6  1  0
  8  7  2  0
  8  1  1  0
  9  8  1  0
 10  9  2  0
 10  5  1  0
 11  1  1  0
 12 11  1  0
 13 12  1  0
 14 13  2  0
 15 14  1  0
 16 15  2  0
 17 16  1  0
 18 17  2  0
 18 13  1  0
 19 16  1  0
  4 20  1  0
  4 21  1  0
  4 22  1  0
  6 23  1  0
  7 24  1  0
  9 25  1  0
 10 26  1  0
 12 27  1  0
 12 28  1  0
 14 29  1  0
 15 30  1  0
 17 31  1  0
 18 32  1  0
M  END
>  <score>  (2) 
-9.368

$$$$
=
     RDKit          3D

 32 33  0  0  0  0  0  0  0  0999 V2000
    1.5880   68.1660   64.6650 S   0  0  0  0  0  6  0  0  0  0  0  0
    0.2970   67.6270   65.0410 O   0  0  0  0  0  0  0  0  0  0  0  0
    1.7230   69.0910   63.5570 O   0  0  0  0  0  0  0  0  0  0  0  0
    5.2210   63.4150   63.6190 C   0  0  0  0  0  0  0  0  0  0  0  0
    4.3440   64.6020   63.8950 C   0  0  0  0  0  0  0  0  0  0  0  0
    3.3390   64.5270   64.8700 C   0  0  0  0  0  0  0  0  0  0  0  0
    2.5000   65.6150   65.1050 C   0  0  0  0  0  0  0  0  0  0  0  0
    2.6660   66.7860   64.3600 C   0  0  0  0  0  0  0  0  0  0  0  0
    3.6420   66.8660   63.3650 C   0  0  0  0  0  0  0  0  0  0  0  0
    4.4790   65.7730   63.1360 C   0  0  0  0  0  0  0  0  0  0  0  0
    2.4230   69.0610   66.3530 S   0  0  0  0  0  0  0  0  0  0  0  0
    4.0940   69.4540   65.7880 C   0  0  0  0  0  0  0  0  0  0  0  0
    4.9760   69.9250   66.9180 C   0  0  0  0  0  0  0  0  0  0  0  0
    6.3550   70.1000   66.7210 C   0  0  0  0  0  0  0  0  0  0  0  0
    7.1660   70.5500   67.7640 C   0  0  0  0  0  0  0  0  0  0  0  0
    6.6000   70.8300   69.0020 C   0  0  0  0  0  0  0  0  0  0  0  0
    5.2370   70.6720   69.2170 C   0  0  0  0  0  0  0  0  0  0  0  0
    4.4230   70.2230   68.1750 C   0  0  0  0  0  0  0  0  0  0  0  0
    7.3800   71.2610   70.0010 F   0  0  0  0  0  0  0  0  0  0  0  0
    5.5485   62.9718   64.5710 H   0  0  0  0  0  0  0  0  0  0  0  0
    4.6562   62.6681   63.0419 H   0  0  0  0  0  0  0  0  0  0  0  0
    6.1009   63.7355   63.0419 H   0  0  0  0  0  0  0  0  0  0  0  0
    3.2119   63.6032   65.4534 H   0  0  0  0  0  0  0  0  0  0  0  0
    1.7131   65.5526   65.8711 H   0  0  0  0  0  0  0  0  0  0  0  0
    3.7504   67.7826   62.7667 H   0  0  0  0  0  0  0  0  0  0  0  0
    5.2505   65.8307   62.3540 H   0  0  0  0  0  0  0  0  0  0  0  0
    4.5393   68.5526   65.3418 H   0  0  0  0  0  0  0  0  0  0  0  0
    4.0213   70.2678   65.0515 H   0  0  0  0  0  0  0  0  0  0  0  0
    6.7990   69.8811   65.7387 H   0  0  0  0  0  0  0  0  0  0  0  0
    8.2467   70.6822   67.6071 H   0  0  0  0  0  0  0  0  0  0  0  0
    4.8017   70.8990   70.2014 H   0  0  0  0  0  0  0  0  0  0  0  0
    3.3421   70.1018   68.3392 H   0  0  0  0  0  0  0  0  0  0  0  0
  2  1  2  0
  3  1  2  0
  5  4  1  0
  6  5  2  0
  7  6  1  0
  8  7  2  0
  8  1  1  0
  9  8  1  0
 10  9  2  0
 10  5  1  0
 11  1  1  0
 12 11  1  0
 13 12  1  0
 14 13  2  0
 15 14  1  0
 16 15  2  0
 17 16  1  0
 18 17  2  0
 18 13  1  0
 19 16  1  0
  4 20  1  0
  4 21  1  0
  4 22  1  0
  6 23  1  0
  7 24  1  0
  9 25  1  0
 10 26  1  0
 12 27  1  0
 12 28  1  0
 14 29  1  0
 15 30  1  0
 17 31  1  0
 18 32  1  0
M  END
>  <score>  (3) 
-9.18

$$$$
=
     RDKit          3D

 32 33  0  0  0  0  0  0  0  0999 V2000
    3.4360   68.1170   63.0000 S   0  0  0  0  0  6  0  0  0  0  0  0
    3.3190   68.6620   61.6630 O   0  0  0  0  0  0  0  0  0  0  0  0
    3.8730   66.7520   63.2200 O   0  0  0  0  0  0  0  0  0  0  0  0
   -1.9340   68.8270   65.7440 C   0  0  0  0  0  0  0  0  0  0  0  0
   -0.6180   68.6260   65.0520 C   0  0  0  0  0  0  0  0  0  0  0  0
    0.4400   67.9880   65.7140 C   0  0  0  0  0  0  0  0  0  0  0  0
    1.6760   67.8310   65.0870 C   0  0  0  0  0  0  0  0  0  0  0  0
    1.8550   68.3170   63.7890 C   0  0  0  0  0  0  0  0  0  0  0  0
    0.8210   68.9820   63.1270 C   0  0  0  0  0  0  0  0  0  0  0  0
   -0.4130   69.1340   63.7610 C   0  0  0  0  0  0  0  0  0  0  0  0
    4.6820   69.3760   64.1000 S   0  0  0  0  0  0  0  0  0  0  0  0
    3.8940   69.3660   65.7260 C   0  0  0  0  0  0  0  0  0  0  0  0
    4.8180   69.8760   66.8030 C   0  0  0  0  0  0  0  0  0  0  0  0
    4.3140   70.2330   68.0650 C   0  0  0  0  0  0  0  0  0  0  0  0
    5.1740   70.6900   69.0650 C   0  0  0  0  0  0  0  0  0  0  0  0
    6.5360   70.7870   68.8090 C   0  0  0  0  0  0  0  0  0  0  0  0
    7.0570   70.4310   67.5710 C   0  0  0  0  0  0  0  0  0  0  0  0
    6.2010   69.9730   66.5680 C   0  0  0  0  0  0  0  0  0  0  0  0
    7.3590   71.2260   69.7690 F   0  0  0  0  0  0  0  0  0  0  0  0
   -1.7828   68.8039   66.8333 H   0  0  0  0  0  0  0  0  0  0  0  0
   -2.3564   69.8001   65.4530 H   0  0  0  0  0  0  0  0  0  0  0  0
   -2.6276   68.0244   65.4530 H   0  0  0  0  0  0  0  0  0  0  0  0
    0.2944   67.6081   66.7360 H   0  0  0  0  0  0  0  0  0  0  0  0
    2.5032   67.3287   65.6100 H   0  0  0  0  0  0  0  0  0  0  0  0
    0.9776   69.3826   62.1146 H   0  0  0  0  0  0  0  0  0  0  0  0
   -1.2314   69.6564   63.2439 H   0  0  0  0  0  0  0  0  0  0  0  0
    3.0003   70.0065   65.6918 H   0  0  0  0  0  0  0  0  0  0  0  0
    3.6286   68.3266   65.9693 H   0  0  0  0  0  0  0  0  0  0  0  0
    3.2356   70.1519   68.2661 H   0  0  0  0  0  0  0  0  0  0  0  0
    4.7753   70.9719   70.0507 H   0  0  0  0  0  0  0  0  0  0  0  0
    8.1379   70.5097   67.3824 H   0  0  0  0  0  0  0  0  0  0  0  0
    6.6107   69.6863   65.5882 H   0  0  0  0  0  0  0  0  0  0  0  0
  2  1  2  0
  3  1  2  0
  5  4  1  0
  6  5  2  0
  7  6  1  0
  8  7  2  0
  8  1  1  0
  9  8  1  0
 10  9  2  0
 10  5  1  0
 11  1  1  0
 12 11  1  0
 13 12  1  0
 14 13  2  0
 15 14  1  0
 16 15  2  0
 17 16  1  0
 18 17  2  0
 18 13  1  0
 19 16  1  0
  4 20  1  0
  4 21  1  0
  4 22  1  0
  6 23  1  0
  7 24  1  0
  9 25  1  0
 10 26  1  0
 12 27  1  0
 12 28  1  0
 14 29  1  0
 15 30  1  0
 17 31  1  0
 18 32  1  0
M  END
>  <score>  (4) 
-8.489

$$$$
=
     RDKit          3D

 32 33  0  0  0  0  0  0  0  0999 V2000
    3.4040   68.2200   62.2960 S   0  0  0  0  0  6  0  0  0  0  0  0
    2.1500   68.8670   62.6200 O   0  0  0  0  0  0  0  0  0  0  0  0
    3.7130   67.8140   60.9390 O   0  0  0  0  0  0  0  0  0  0  0  0
    3.8120   63.3130   65.8490 C   0  0  0  0  0  0  0  0  0  0  0  0
    3.7330   64.5400   64.9880 C   0  0  0  0  0  0  0  0  0  0  0  0
    2.7170   65.4840   65.1940 C   0  0  0  0  0  0  0  0  0  0  0  0
    2.6190   66.6070   64.3730 C   0  0  0  0  0  0  0  0  0  0  0  0
    3.5410   66.7870   63.3390 C   0  0  0  0  0  0  0  0  0  0  0  0
    4.5400   65.8400   63.1020 C   0  0  0  0  0  0  0  0  0  0  0  0
    4.6330   64.7190   63.9280 C   0  0  0  0  0  0  0  0  0  0  0  0
    4.9500   69.4480   62.9660 S   0  0  0  0  0  0  0  0  0  0  0  0
    5.5530   68.5460   64.4110 C   0  0  0  0  0  0  0  0  0  0  0  0
    5.1550   69.2170   65.7020 C   0  0  0  0  0  0  0  0  0  0  0  0
    3.8170   69.2050   66.1290 C   0  0  0  0  0  0  0  0  0  0  0  0
    3.4530   69.8140   67.3310 C   0  0  0  0  0  0  0  0  0  0  0  0
    4.4250   70.4320   68.1090 C   0  0  0  0  0  0  0  0  0  0  0  0
    5.7550   70.4500   67.7100 C   0  0  0  0  0  0  0  0  0  0  0  0
    6.1230   69.8410   66.5080 C   0  0  0  0  0  0  0  0  0  0  0  0
    4.0740   71.0170   69.2610 F   0  0  0  0  0  0  0  0  0  0  0  0
    3.7931   63.6069   66.9088 H   0  0  0  0  0  0  0  0  0  0  0  0
    2.9541   62.6587   65.6346 H   0  0  0  0  0  0  0  0  0  0  0  0
    4.7467   62.7742   65.6346 H   0  0  0  0  0  0  0  0  0  0  0  0
    1.9924   65.3378   66.0086 H   0  0  0  0  0  0  0  0  0  0  0  0
    1.8212   67.3460   64.5384 H   0  0  0  0  0  0  0  0  0  0  0  0
    5.2477   65.9767   62.2710 H   0  0  0  0  0  0  0  0  0  0  0  0
    5.4182   63.9704   63.7461 H   0  0  0  0  0  0  0  0  0  0  0  0
    5.1339   67.5291   64.3953 H   0  0  0  0  0  0  0  0  0  0  0  0
    6.6518   68.5241   64.3639 H   0  0  0  0  0  0  0  0  0  0  0  0
    3.0510   68.7124   65.5121 H   0  0  0  0  0  0  0  0  0  0  0  0
    2.4035   69.8049   67.6605 H   0  0  0  0  0  0  0  0  0  0  0  0
    6.5141   70.9409   68.3367 H   0  0  0  0  0  0  0  0  0  0  0  0
    7.1761   69.8498   66.1904 H   0  0  0  0  0  0  0  0  0  0  0  0
  2  1  2  0
  3  1  2  0
  5  4  1  0
  6  5  2  0
  7  6  1  0
  8  7  2  0
  8  1  1  0
  9  8  1  0
 10  9  2  0
 10  5  1  0
 11  1  1  0
 12 11  1  0
 13 12  1  0
 14 13  2  0
 15 14  1  0
 16 15  2  0
 17 16  1  0
 18 17  2  0
 18 13  1  0
 19 16  1  0
  4 20  1  0
  4 21  1  0
  4 22  1  0
  6 23  1  0
  7 24  1  0
  9 25  1  0
 10 26  1  0
 12 27  1  0
 12 28  1  0
 14 29  1  0
 15 30  1  0
 17 31  1  0
 18 32  1  0
M  END
>  <score>  (5) 
-8.276

$$$$
=
     RDKit          3D

 32 33  0  0  0  0  0  0  0  0999 V2000
    1.3100   68.7360   66.9410 S   0  0  0  0  0  6  0  0  0  0  0  0
    1.3120   68.6480   65.4960 O   0  0  0  0  0  0  0  0  0  0  0  0
    0.2550   69.4330   67.6510 O   0  0  0  0  0  0  0  0  0  0  0  0
    6.6100   71.2260   68.5470 C   0  0  0  0  0  0  0  0  0  0  0  0
    5.3080   70.5850   68.1650 C   0  0  0  0  0  0  0  0  0  0  0  0
    5.1440   70.0220   66.8910 C   0  0  0  0  0  0  0  0  0  0  0  0
    3.9240   69.4570   66.5200 C   0  0  0  0  0  0  0  0  0  0  0  0
    2.8620   69.4560   67.4270 C   0  0  0  0  0  0  0  0  0  0  0  0
    3.0000   70.0390   68.6880 C   0  0  0  0  0  0  0  0  0  0  0  0
    4.2230   70.6020   69.0530 C   0  0  0  0  0  0  0  0  0  0  0  0
    1.4240   66.7980   67.7010 S   0  0  0  0  0  0  0  0  0  0  0  0
    0.7640   67.0040   69.3710 C   0  0  0  0  0  0  0  0  0  0  0  0
    0.9850   65.7770   70.2200 C   0  0  0  0  0  0  0  0  0  0  0  0
    2.0840   64.9360   69.9860 C   0  0  0  0  0  0  0  0  0  0  0  0
    2.2940   63.8090   70.7830 C   0  0  0  0  0  0  0  0  0  0  0  0
    1.4090   63.5240   71.8160 C   0  0  0  0  0  0  0  0  0  0  0  0
    0.3190   64.3470   72.0700 C   0  0  0  0  0  0  0  0  0  0  0  0
    0.1070   65.4750   71.2760 C   0  0  0  0  0  0  0  0  0  0  0  0
    1.6110   62.4430   72.5790 F   0  0  0  0  0  0  0  0  0  0  0  0
    6.6913   71.2660   69.6433 H   0  0  0  0  0  0  0  0  0  0  0  0
    7.4433   70.6351   68.1389 H   0  0  0  0  0  0  0  0  0  0  0  0
    6.6498   72.2467   68.1389 H   0  0  0  0  0  0  0  0  0  0  0  0
    5.9831   70.0261   66.1797 H   0  0  0  0  0  0  0  0  0  0  0  0
    3.7992   69.0154   65.5203 H   0  0  0  0  0  0  0  0  0  0  0  0
    2.1515   70.0543   69.3878 H   0  0  0  0  0  0  0  0  0  0  0  0
    4.3371   71.0629   70.0452 H   0  0  0  0  0  0  0  0  0  0  0  0
    1.2636   67.8604   69.8474 H   0  0  0  0  0  0  0  0  0  0  0  0
   -0.3202   67.1711   69.2902 H   0  0  0  0  0  0  0  0  0  0  0  0
    2.7843   65.1662   69.1696 H   0  0  0  0  0  0  0  0  0  0  0  0
    3.1548   63.1506   70.5944 H   0  0  0  0  0  0  0  0  0  0  0  0
   -0.3728   64.1110   72.8920 H   0  0  0  0  0  0  0  0  0  0  0  0
   -0.7521   66.1318   71.4775 H   0  0  0  0  0  0  0  0  0  0  0  0
  2  1  2  0
  3  1  2  0
  5  4  1  0
  6  5  2  0
  7  6  1  0
  8  7  2  0
  8  1  1  0
  9  8  1  0
 10  9  2  0
 10  5  1  0
 11  1  1  0
 12 11  1  0
 13 12  1  0
 14 13  2  0
 15 14  1  0
 16 15  2  0
 17 16  1  0
 18 17  2  0
 18 13  1  0
 19 16  1  0
  4 20  1  0
  4 21  1  0
  4 22  1  0
  6 23  1  0
  7 24  1  0
  9 25  1  0
 10 26  1  0
 12 27  1  0
 12 28  1  0
 14 29  1  0
 15 30  1  0
 17 31  1  0
 18 32  1  0
M  END
>  <score>  (6) 
-8.072

$$$$
=
     RDKit          3D

 32 33  0  0  0  0  0  0  0  0999 V2000
    1.2490   59.2320   74.4600 S   0  0  0  0  0  6  0  0  0  0  0  0
    0.2750   58.3090   73.9170 O   0  0  0  0  0  0  0  0  0  0  0  0
    1.3480   59.4690   75.8870 O   0  0  0  0  0  0  0  0  0  0  0  0
    0.4210   64.5870   71.7220 C   0  0  0  0  0  0  0  0  0  0  0  0
    0.6040   63.2710   72.4190 C   0  0  0  0  0  0  0  0  0  0  0  0
    1.6480   63.0970   73.3390 C   0  0  0  0  0  0  0  0  0  0  0  0
    1.8420   61.8650   73.9620 C   0  0  0  0  0  0  0  0  0  0  0  0
    0.9890   60.8000   73.6630 C   0  0  0  0  0  0  0  0  0  0  0  0
   -0.0360   60.9480   72.7270 C   0  0  0  0  0  0  0  0  0  0  0  0
   -0.2250   62.1850   72.1070 C   0  0  0  0  0  0  0  0  0  0  0  0
    3.1320   58.6540   73.7750 S   0  0  0  0  0  0  0  0  0  0  0  0
    2.9590   58.8400   71.9860 C   0  0  0  0  0  0  0  0  0  0  0  0
    3.5770   60.1240   71.4900 C   0  0  0  0  0  0  0  0  0  0  0  0
    2.9830   60.8420   70.4400 C   0  0  0  0  0  0  0  0  0  0  0  0
    3.5490   62.0380   69.9930 C   0  0  0  0  0  0  0  0  0  0  0  0
    4.7040   62.5180   70.5960 C   0  0  0  0  0  0  0  0  0  0  0  0
    5.3050   61.8280   71.6410 C   0  0  0  0  0  0  0  0  0  0  0  0
    4.7420   60.6320   72.0920 C   0  0  0  0  0  0  0  0  0  0  0  0
    5.2460   63.6640   70.1650 F   0  0  0  0  0  0  0  0  0  0  0  0
    0.3099   65.3858   72.4701 H   0  0  0  0  0  0  0  0  0  0  0  0
    1.2990   64.7937   71.0925 H   0  0  0  0  0  0  0  0  0  0  0  0
   -0.4801   64.5463   71.0925 H   0  0  0  0  0  0  0  0  0  0  0  0
    2.3181   63.9380   73.5706 H   0  0  0  0  0  0  0  0  0  0  0  0
    2.6612   61.7325   74.6841 H   0  0  0  0  0  0  0  0  0  0  0  0
   -0.6890   60.0979   72.4800 H   0  0  0  0  0  0  0  0  0  0  0  0
   -1.0306   62.3079   71.3682 H   0  0  0  0  0  0  0  0  0  0  0  0
    3.4553   57.9923   71.4910 H   0  0  0  0  0  0  0  0  0  0  0  0
    1.8852   58.8654   71.7488 H   0  0  0  0  0  0  0  0  0  0  0  0
    2.0664   60.4604   69.9665 H   0  0  0  0  0  0  0  0  0  0  0  0
    3.0825   62.5965   69.1681 H   0  0  0  0  0  0  0  0  0  0  0  0
    6.2188   62.2211   72.1105 H   0  0  0  0  0  0  0  0  0  0  0  0
    5.2122   60.0847   72.9223 H   0  0  0  0  0  0  0  0  0  0  0  0
  2  1  2  0
  3  1  2  0
  5  4  1  0
  6  5  2  0
  7  6  1  0
  8  7  2  0
  8  1  1  0
  9  8  1  0
 10  9  2  0
 10  5  1  0
 11  1  1  0
 12 11  1  0
 13 12  1  0
 14 13  2  0
 15 14  1  0
 16 15  2  0
 17 16  1  0
 18 17  2  0
 18 13  1  0
 19 16  1  0
  4 20  1  0
  4 21  1  0
  4 22  1  0
  6 23  1  0
  7 24  1  0
  9 25  1  0
 10 26  1  0
 12 27  1  0
 12 28  1  0
 14 29  1  0
 15 30  1  0
 17 31  1  0
 18 32  1  0
M  END
>  <score>  (7) 
-7.71

$$$$
=
     RDKit          3D

 32 33  0  0  0  0  0  0  0  0999 V2000
    1.9800   69.0990   66.3500 S   0  0  0  0  0  6  0  0  0  0  0  0
    2.1240   69.3030   64.9230 O   0  0  0  0  0  0  0  0  0  0  0  0
    0.8650   69.6680   67.0820 O   0  0  0  0  0  0  0  0  0  0  0  0
    7.1200   71.0590   68.9200 C   0  0  0  0  0  0  0  0  0  0  0  0
    5.8530   70.5470   68.2980 C   0  0  0  0  0  0  0  0  0  0  0  0
    5.8520   70.0860   66.9740 C   0  0  0  0  0  0  0  0  0  0  0  0
    4.6700   69.6430   66.3810 C   0  0  0  0  0  0  0  0  0  0  0  0
    3.4820   69.6620   67.1160 C   0  0  0  0  0  0  0  0  0  0  0  0
    3.4610   70.1470   68.4260 C   0  0  0  0  0  0  0  0  0  0  0  0
    4.6480   70.5880   69.0130 C   0  0  0  0  0  0  0  0  0  0  0  0
    2.0010   67.0450   66.7080 S   0  0  0  0  0  0  0  0  0  0  0  0
    1.7350   66.3670   65.0550 C   0  0  0  0  0  0  0  0  0  0  0  0
    2.8910   65.5080   64.6040 C   0  0  0  0  0  0  0  0  0  0  0  0
    3.8940   66.0390   63.7770 C   0  0  0  0  0  0  0  0  0  0  0  0
    4.9690   65.2460   63.3730 C   0  0  0  0  0  0  0  0  0  0  0  0
    5.0470   63.9260   63.7990 C   0  0  0  0  0  0  0  0  0  0  0  0
    4.0710   63.3830   64.6250 C   0  0  0  0  0  0  0  0  0  0  0  0
    2.9940   64.1730   65.0310 C   0  0  0  0  0  0  0  0  0  0  0  0
    6.0800   63.1670   63.4100 F   0  0  0  0  0  0  0  0  0  0  0  0
    7.0311   71.0231   70.0158 H   0  0  0  0  0  0  0  0  0  0  0  0
    7.9651   70.4318   68.5999 H   0  0  0  0  0  0  0  0  0  0  0  0
    7.2921   72.0972   68.5999 H   0  0  0  0  0  0  0  0  0  0  0  0
    6.7897   70.0736   66.3991 H   0  0  0  0  0  0  0  0  0  0  0  0
    4.6731   69.2813   65.3422 H   0  0  0  0  0  0  0  0  0  0  0  0
    2.5172   70.1810   68.9899 H   0  0  0  0  0  0  0  0  0  0  0  0
    4.6378   70.9705   70.0443 H   0  0  0  0  0  0  0  0  0  0  0  0
    0.8207   65.7555   65.0648 H   0  0  0  0  0  0  0  0  0  0  0  0
    1.6429   67.2089   64.3530 H   0  0  0  0  0  0  0  0  0  0  0  0
    3.8320   67.0861   63.4457 H   0  0  0  0  0  0  0  0  0  0  0  0
    5.7502   65.6638   62.7209 H   0  0  0  0  0  0  0  0  0  0  0  0
    4.1463   62.3370   64.9571 H   0  0  0  0  0  0  0  0  0  0  0  0
    2.2216   63.7482   65.6889 H   0  0  0  0  0  0  0  0  0  0  0  0
  2  1  2  0
  3  1  2  0
  5  4  1  0
  6  5  2  0
  7  6  1  0
  8  7  2  0
  8  1  1  0
  9  8  1  0
 10  9  2  0
 10  5  1  0
 11  1  1  0
 12 11  1  0
 13 12  1  0
 14 13  2  0
 15 14  1  0
 16 15  2  0
 17 16  1  0
 18 17  2  0
 18 13  1  0
 19 16  1  0
  4 20  1  0
  4 21  1  0
  4 22  1  0
  6 23  1  0
  7 24  1  0
  9 25  1  0
 10 26  1  0
 12 27  1  0
 12 28  1  0
 14 29  1  0
 15 30  1  0
 17 31  1  0
 18 32  1  0
M  END
>  <score>  (8) 
-7.562

$$$$
=
     RDKit          3D

 32 33  0  0  0  0  0  0  0  0999 V2000
    4.4810   60.3510   70.9500 S   0  0  0  0  0  6  0  0  0  0  0  0
    5.8330   60.8290   71.1550 O   0  0  0  0  0  0  0  0  0  0  0  0
    4.1540   59.4720   69.8440 O   0  0  0  0  0  0  0  0  0  0  0  0
    0.8610   65.2150   70.6340 C   0  0  0  0  0  0  0  0  0  0  0  0
    1.7560   64.0110   70.6820 C   0  0  0  0  0  0  0  0  0  0  0  0
    1.2180   62.7400   70.9300 C   0  0  0  0  0  0  0  0  0  0  0  0
    2.0510   61.6240   71.0090 C   0  0  0  0  0  0  0  0  0  0  0  0
    3.4290   61.7790   70.8420 C   0  0  0  0  0  0  0  0  0  0  0  0
    3.9830   63.0430   70.6240 C   0  0  0  0  0  0  0  0  0  0  0  0
    3.1430   64.1550   70.5440 C   0  0  0  0  0  0  0  0  0  0  0  0
    3.8540   59.4270   72.7110 S   0  0  0  0  0  0  0  0  0  0  0  0
    2.7950   58.1020   72.0890 C   0  0  0  0  0  0  0  0  0  0  0  0
    1.4900   58.0220   72.8420 C   0  0  0  0  0  0  0  0  0  0  0  0
    0.9470   56.7780   73.1990 C   0  0  0  0  0  0  0  0  0  0  0  0
   -0.2530   56.7080   73.9090 C   0  0  0  0  0  0  0  0  0  0  0  0
   -0.9100   57.8790   74.2650 C   0  0  0  0  0  0  0  0  0  0  0  0
   -0.3870   59.1210   73.9280 C   0  0  0  0  0  0  0  0  0  0  0  0
    0.8130   59.1960   73.2190 C   0  0  0  0  0  0  0  0  0  0  0  0
   -2.0620   57.8100   74.9440 F   0  0  0  0  0  0  0  0  0  0  0  0
    0.6226   65.5357   71.6588 H   0  0  0  0  0  0  0  0  0  0  0  0
    1.3731   66.0316   70.1040 H   0  0  0  0  0  0  0  0  0  0  0  0
   -0.0686   64.9600   70.1040 H   0  0  0  0  0  0  0  0  0  0  0  0
    0.1324   62.6224   71.0631 H   0  0  0  0  0  0  0  0  0  0  0  0
    1.6254   60.6281   71.2016 H   0  0  0  0  0  0  0  0  0  0  0  0
    5.0714   63.1608   70.5164 H   0  0  0  0  0  0  0  0  0  0  0  0
    3.5734   65.1525   70.3712 H   0  0  0  0  0  0  0  0  0  0  0  0
    2.5811   58.2875   71.0261 H   0  0  0  0  0  0  0  0  0  0  0  0
    3.3263   57.1488   72.2270 H   0  0  0  0  0  0  0  0  0  0  0  0
    1.4703   55.8523   72.9176 H   0  0  0  0  0  0  0  0  0  0  0  0
   -0.6760   55.7308   74.1850 H   0  0  0  0  0  0  0  0  0  0  0  0
   -0.9159   60.0408   74.2184 H   0  0  0  0  0  0  0  0  0  0  0  0
    1.2314   60.1781   72.9537 H   0  0  0  0  0  0  0  0  0  0  0  0
  2  1  2  0
  3  1  2  0
  5  4  1  0
  6  5  2  0
  7  6  1  0
  8  7  2  0
  8  1  1  0
  9  8  1  0
 10  9  2  0
 10  5  1  0
 11  1  1  0
 12 11  1  0
 13 12  1  0
 14 13  2  0
 15 14  1  0
 16 15  2  0
 17 16  1  0
 18 17  2  0
 18 13  1  0
 19 16  1  0
  4 20  1  0
  4 21  1  0
  4 22  1  0
  6 23  1  0
  7 24  1  0
  9 25  1  0
 10 26  1  0
 12 27  1  0
 12 28  1  0
 14 29  1  0
 15 30  1  0
 17 31  1  0
 18 32  1  0
M  END
>  <score>  (9) 
-7.519

$$$$
