=
     RDKit          3D

 67 71  0  0  0  0  0  0  0  0999 V2000
    2.5000   62.4210   71.2950 C   0  0  2  0  0  0  0  0  0  0  0  0
    2.3280   61.6050   70.1330 O   0  0  0  0  0  0  0  0  0  0  0  0
    3.6220   61.4170   69.5520 C   0  0  0  0  0  0  0  0  0  0  0  0
    4.6370   61.7460   70.4950 O   0  0  0  0  0  0  0  0  0  0  0  0
    3.9900   62.2720   71.6520 C   0  0  2  0  0  0  0  0  0  0  0  0
    4.0830   61.2560   72.8080 C   0  0  0  0  0  0  0  0  0  0  0  0
    2.6920   60.6280   72.8540 C   0  0  2  0  0  0  0  0  0  0  0  0
    1.7510   61.8130   72.5260 C   0  0  1  0  0  0  0  0  0  0  0  0
    1.6750   62.8630   73.6660 C   0  0  0  0  0  0  0  0  0  0  0  0
    0.3570   61.2120   72.2460 C   0  0  0  0  0  0  0  0  0  0  0  0
   -0.1730   60.3210   73.3970 C   0  0  1  0  0  0  0  0  0  0  0  0
    0.8470   59.2360   73.8600 C   0  0  1  0  0  0  0  0  0  0  0  0
    2.2730   59.8360   74.1010 C   0  0  1  0  0  0  0  0  0  0  0  0
    3.2930   58.7240   74.4020 C   0  0  0  0  0  0  0  0  0  0  0  0
    2.8590   57.8380   75.5620 C   0  0  1  0  0  0  0  0  0  0  0  0
    1.4820   57.2770   75.3220 C   0  0  0  0  0  0  0  0  0  0  0  0
    1.2740   55.9480   75.2890 C   0  0  0  0  0  0  0  0  0  0  0  0
   -0.0530   55.3710   74.9970 C   0  0  0  0  0  0  0  0  0  0  0  0
   -0.2380   54.1610   74.9910 O   0  0  0  0  0  0  0  0  0  0  0  0
   -1.1510   56.3140   74.7140 C   0  0  0  0  0  0  0  0  0  0  0  0
   -0.9500   57.6380   74.7460 C   0  0  0  0  0  0  0  0  0  0  0  0
    0.3790   58.3210   75.0680 C   0  0  2  0  0  0  0  0  0  0  0  0
    0.1490   59.0950   76.3860 C   0  0  0  0  0  0  0  0  0  0  0  0
    3.7860   56.8460   75.6940 F   0  0  0  0  0  0  0  0  0  0  0  0
    0.9810   58.3900   72.7690 F   0  0  0  0  0  0  0  0  0  0  0  0
    3.7710   59.9570   69.1440 C   0  0  0  0  0  0  0  0  0  0  0  0
    3.7720   62.3280   68.3370 C   0  0  0  0  0  0  0  0  0  0  0  0
    2.1140   63.8790   70.9780 C   0  0  0  0  0  0  0  0  0  0  0  0
    2.9450   64.7910   71.0160 O   0  0  0  0  0  0  0  0  0  0  0  0
    0.6440   64.1430   70.6700 C   0  0  0  0  0  0  0  0  0  0  0  0
    0.3440   65.5330   70.8100 O   0  0  0  0  0  0  0  0  0  0  0  0
    1.2560   67.1900   69.4270 C   0  0  0  0  0  0  0  0  0  0  0  0
    0.1690   66.1810   69.6290 C   0  0  0  0  0  0  0  0  0  0  0  0
   -0.7440   65.9740   68.8430 O   0  0  0  0  0  0  0  0  0  0  0  0
   -0.6030   61.1510   74.4690 O   0  0  0  0  0  0  0  0  0  0  0  0
    4.4538   63.2233   71.9518 H   0  0  0  0  0  0  0  0  0  0  0  0
    4.8498   60.4951   72.6002 H   0  0  0  0  0  0  0  0  0  0  0  0
    4.3709   61.7222   73.7618 H   0  0  0  0  0  0  0  0  0  0  0  0
    2.6537   59.7956   72.1359 H   0  0  0  0  0  0  0  0  0  0  0  0
    1.7120   62.3512   74.6390 H   0  0  0  0  0  0  0  0  0  0  0  0
    2.5253   63.5559   73.5836 H   0  0  0  0  0  0  0  0  0  0  0  0
    0.7337   63.4262   73.5836 H   0  0  0  0  0  0  0  0  0  0  0  0
   -0.3531   62.0373   72.0890 H   0  0  0  0  0  0  0  0  0  0  0  0
    0.4532   60.5705   71.3576 H   0  0  0  0  0  0  0  0  0  0  0  0
   -1.0315   59.7481   73.0165 H   0  0  0  0  0  0  0  0  0  0  0  0
    2.2446   60.5047   74.9740 H   0  0  0  0  0  0  0  0  0  0  0  0
    3.4097   58.0990   73.5043 H   0  0  0  0  0  0  0  0  0  0  0  0
    4.2412   59.2053   74.6835 H   0  0  0  0  0  0  0  0  0  0  0  0
    2.8022   58.4224   76.4922 H   0  0  0  0  0  0  0  0  0  0  0  0
    2.1184   55.2710   75.4856 H   0  0  0  0  0  0  0  0  0  0  0  0
   -2.1509   55.9240   74.4728 H   0  0  0  0  0  0  0  0  0  0  0  0
   -1.8105   58.2858   74.5226 H   0  0  0  0  0  0  0  0  0  0  0  0
    0.3463   58.4309   77.2404 H   0  0  0  0  0  0  0  0  0  0  0  0
    0.8294   59.9583   76.4278 H   0  0  0  0  0  0  0  0  0  0  0  0
   -0.8924   59.4466   76.4278 H   0  0  0  0  0  0  0  0  0  0  0  0
    3.8351   59.3292   70.0450 H   0  0  0  0  0  0  0  0  0  0  0  0
    2.8993   59.6525   68.5462 H   0  0  0  0  0  0  0  0  0  0  0  0
    4.6863   59.8349   68.5462 H   0  0  0  0  0  0  0  0  0  0  0  0
    3.9422   63.3617   68.6725 H   0  0  0  0  0  0  0  0  0  0  0  0
    4.6272   61.9936   67.7313 H   0  0  0  0  0  0  0  0  0  0  0  0
    2.8548   62.2854   67.7313 H   0  0  0  0  0  0  0  0  0  0  0  0
    0.4284   63.8285   69.6382 H   0  0  0  0  0  0  0  0  0  0  0  0
    0.0247   63.5728   71.3781 H   0  0  0  0  0  0  0  0  0  0  0  0
    1.6249   67.5324   70.4051 H   0  0  0  0  0  0  0  0  0  0  0  0
    2.0820   66.7313   68.8637 H   0  0  0  0  0  0  0  0  0  0  0  0
    0.8600   68.0478   68.8637 H   0  0  0  0  0  0  0  0  0  0  0  0
   -0.3792   60.7189   75.3312 H   0  0  0  0  0  0  0  0  0  0  0  0
  2  1  1  0
  3  2  1  0
  4  3  1  0
  5  4  1  0
  5  1  1  0
  6  5  1  0
  7  6  1  0
  8  7  1  0
  8  1  1  0
  8  9  1  1
 10  8  1  0
 11 10  1  0
 12 11  1  0
 13 12  1  0
 13  7  1  0
 14 13  1  0
 15 14  1  0
 16 15  1  0
 17 16  2  0
 18 17  1  0
 19 18  2  0
 20 18  1  0
 21 20  2  0
 22 21  1  0
 22 16  1  0
 22 12  1  0
 22 23  1  1
 24 15  1  0
 12 25  1  6
 26  3  1  0
 27  3  1  0
  1 28  1  6
 29 28  2  0
 30 28  1  0
 31 30  1  0
 33 32  1  0
 33 31  1  0
 34 33  2  0
 35 11  1  0
  5 36  1  1
  6 37  1  0
  6 38  1  0
  7 39  1  6
  9 40  1  0
  9 41  1  0
  9 42  1  0
 10 43  1  0
 10 44  1  0
 11 45  1  6
 13 46  1  1
 14 47  1  0
 14 48  1  0
 15 49  1  1
 17 50  1  0
 20 51  1  0
 21 52  1  0
 23 53  1  0
 23 54  1  0
 23 55  1  0
 26 56  1  0
 26 57  1  0
 26 58  1  0
 27 59  1  0
 27 60  1  0
 27 61  1  0
 30 62  1  0
 30 63  1  0
 32 64  1  0
 32 65  1  0
 32 66  1  0
 35 67  1  0
M  END
>  <score>  (1) 
-9.364

$$$$
=
     RDKit          3D

 67 71  0  0  0  0  0  0  0  0999 V2000
   -0.5800   57.1480   75.6270 C   0  0  2  0  0  0  0  0  0  0  0  0
   -1.7470   57.3090   74.8170 O   0  0  0  0  0  0  0  0  0  0  0  0
   -2.7740   57.8470   75.6570 C   0  0  0  0  0  0  0  0  0  0  0  0
   -2.2040   58.3900   76.8440 O   0  0  0  0  0  0  0  0  0  0  0  0
   -0.8110   58.0840   76.8270 C   0  0  2  0  0  0  0  0  0  0  0  0
    0.0010   59.3690   76.5660 C   0  0  0  0  0  0  0  0  0  0  0  0
    0.4040   59.2540   75.0980 C   0  0  2  0  0  0  0  0  0  0  0  0
    0.6820   57.7420   74.9190 C   0  0  1  0  0  0  0  0  0  0  0  0
    1.9670   57.2680   75.6500 C   0  0  0  0  0  0  0  0  0  0  0  0
    0.7960   57.4850   73.4000 C   0  0  0  0  0  0  0  0  0  0  0  0
    1.8480   58.3800   72.7000 C   0  0  1  0  0  0  0  0  0  0  0  0
    1.6860   59.8970   73.0250 C   0  0  1  0  0  0  0  0  0  0  0  0
    1.5260   60.1540   74.5610 C   0  0  1  0  0  0  0  0  0  0  0  0
    1.2110   61.6340   74.8390 C   0  0  0  0  0  0  0  0  0  0  0  0
    2.2390   62.5730   74.2220 C   0  0  1  0  0  0  0  0  0  0  0  0
    2.3900   62.3060   72.7480 C   0  0  0  0  0  0  0  0  0  0  0  0
    2.1590   63.2760   71.8430 C   0  0  0  0  0  0  0  0  0  0  0  0
    2.2420   63.0270   70.3910 C   0  0  0  0  0  0  0  0  0  0  0  0
    2.0510   63.9200   69.5760 O   0  0  0  0  0  0  0  0  0  0  0  0
    2.5670   61.6540   69.9600 C   0  0  0  0  0  0  0  0  0  0  0  0
    2.7990   60.6850   70.8550 C   0  0  0  0  0  0  0  0  0  0  0  0
    2.7640   60.8600   72.3740 C   0  0  2  0  0  0  0  0  0  0  0  0
    4.2080   60.6040   72.8620 C   0  0  0  0  0  0  0  0  0  0  0  0
    1.8270   63.8510   74.4590 F   0  0  0  0  0  0  0  0  0  0  0  0
    0.4680   60.2490   72.4620 F   0  0  0  0  0  0  0  0  0  0  0  0
   -3.5000   58.9510   74.9010 C   0  0  0  0  0  0  0  0  0  0  0  0
   -3.7470   56.7380   76.0470 C   0  0  0  0  0  0  0  0  0  0  0  0
   -0.4310   55.6740   76.0510 C   0  0  0  0  0  0  0  0  0  0  0  0
    0.1000   55.3590   77.1200 O   0  0  0  0  0  0  0  0  0  0  0  0
   -0.9230   54.6260   75.0580 C   0  0  0  0  0  0  0  0  0  0  0  0
    0.0220   54.4560   74.0000 O   0  0  0  0  0  0  0  0  0  0  0  0
    0.6780   52.4010   74.9140 C   0  0  0  0  0  0  0  0  0  0  0  0
    1.1080   53.7160   74.3430 C   0  0  0  0  0  0  0  0  0  0  0  0
    2.2700   54.0690   74.2090 O   0  0  0  0  0  0  0  0  0  0  0  0
    3.1500   57.8980   73.0110 O   0  0  0  0  0  0  0  0  0  0  0  0
   -0.5047   57.6352   77.7834 H   0  0  0  0  0  0  0  0  0  0  0  0
   -0.6167   60.2636   76.7338 H   0  0  0  0  0  0  0  0  0  0  0  0
    0.8662   59.4690   77.2378 H   0  0  0  0  0  0  0  0  0  0  0  0
   -0.4098   59.6510   74.4734 H   0  0  0  0  0  0  0  0  0  0  0  0
    1.8123   57.3250   76.7376 H   0  0  0  0  0  0  0  0  0  0  0  0
    2.1887   56.2289   75.3652 H   0  0  0  0  0  0  0  0  0  0  0  0
    2.8104   57.9142   75.3652 H   0  0  0  0  0  0  0  0  0  0  0  0
    1.0755   56.4325   73.2449 H   0  0  0  0  0  0  0  0  0  0  0  0
   -0.1812   57.7265   72.9565 H   0  0  0  0  0  0  0  0  0  0  0  0
    1.6851   58.3111   71.6143 H   0  0  0  0  0  0  0  0  0  0  0  0
    2.4703   59.9142   75.0717 H   0  0  0  0  0  0  0  0  0  0  0  0
    0.2215   61.8692   74.4199 H   0  0  0  0  0  0  0  0  0  0  0  0
    1.2332   61.7823   75.9287 H   0  0  0  0  0  0  0  0  0  0  0  0
    3.2289   62.4112   74.6736 H   0  0  0  0  0  0  0  0  0  0  0  0
    1.9005   64.2849   72.1970 H   0  0  0  0  0  0  0  0  0  0  0  0
    2.6196   61.4223   68.8860 H   0  0  0  0  0  0  0  0  0  0  0  0
    3.0335   59.6830   70.4664 H   0  0  0  0  0  0  0  0  0  0  0  0
    4.2281   60.6004   73.9618 H   0  0  0  0  0  0  0  0  0  0  0  0
    4.5550   59.6303   72.4858 H   0  0  0  0  0  0  0  0  0  0  0  0
    4.8686   61.3990   72.4858 H   0  0  0  0  0  0  0  0  0  0  0  0
   -3.9578   59.6472   75.6191 H   0  0  0  0  0  0  0  0  0  0  0  0
   -2.7829   59.4952   74.2688 H   0  0  0  0  0  0  0  0  0  0  0  0
   -4.2838   58.5083   74.2688 H   0  0  0  0  0  0  0  0  0  0  0  0
   -3.8060   56.6708   77.1434 H   0  0  0  0  0  0  0  0  0  0  0  0
   -4.7433   56.9643   75.6394 H   0  0  0  0  0  0  0  0  0  0  0  0
   -3.3931   55.7796   75.6394 H   0  0  0  0  0  0  0  0  0  0  0  0
   -1.0577   53.6674   75.5805 H   0  0  0  0  0  0  0  0  0  0  0  0
   -1.8789   54.9625   74.6303 H   0  0  0  0  0  0  0  0  0  0  0  0
    0.6956   52.4549   76.0125 H   0  0  0  0  0  0  0  0  0  0  0  0
   -0.3425   52.1700   74.5746 H   0  0  0  0  0  0  0  0  0  0  0  0
    1.3648   51.6117   74.5746 H   0  0  0  0  0  0  0  0  0  0  0  0
    3.2607   57.8570   73.9939 H   0  0  0  0  0  0  0  0  0  0  0  0
  2  1  1  0
  3  2  1  0
  4  3  1  0
  5  4  1  0
  5  1  1  0
  6  5  1  0
  7  6  1  0
  8  7  1  0
  8  1  1  0
  8  9  1  1
 10  8  1  0
 11 10  1  0
 12 11  1  0
 13 12  1  0
 13  7  1  0
 14 13  1  0
 15 14  1  0
 16 15  1  0
 17 16  2  0
 18 17  1  0
 19 18  2  0
 20 18  1  0
 21 20  2  0
 22 21  1  0
 22 16  1  0
 22 12  1  0
 22 23  1  1
 24 15  1  0
 12 25  1  6
 26  3  1  0
 27  3  1  0
  1 28  1  1
 29 28  2  0
 30 28  1  0
 31 30  1  0
 33 32  1  0
 33 31  1  0
 34 33  2  0
 35 11  1  0
  5 36  1  1
  6 37  1  0
  6 38  1  0
  7 39  1  6
  9 40  1  0
  9 41  1  0
  9 42  1  0
 10 43  1  0
 10 44  1  0
 11 45  1  6
 13 46  1  1
 14 47  1  0
 14 48  1  0
 15 49  1  1
 17 50  1  0
 20 51  1  0
 21 52  1  0
 23 53  1  0
 23 54  1  0
 23 55  1  0
 26 56  1  0
 26 57  1  0
 26 58  1  0
 27 59  1  0
 27 60  1  0
 27 61  1  0
 30 62  1  0
 30 63  1  0
 32 64  1  0
 32 65  1  0
 32 66  1  0
 35 67  1  0
M  END
>  <score>  (2) 
-8.858

$$$$
=
     RDKit          3D

 67 71  0  0  0  0  0  0  0  0999 V2000
    2.4360   61.7350   71.8800 C   0  0  2  0  0  0  0  0  0  0  0  0
    2.2830   60.6700   70.9370 O   0  0  0  0  0  0  0  0  0  0  0  0
    3.5530   60.0220   70.8210 C   0  0  0  0  0  0  0  0  0  0  0  0
    4.3880   60.3740   71.9200 O   0  0  0  0  0  0  0  0  0  0  0  0
    3.6940   61.3580   72.6840 C   0  0  2  0  0  0  0  0  0  0  0  0
    3.2180   60.7440   74.0160 C   0  0  0  0  0  0  0  0  0  0  0  0
    1.7280   60.5000   73.7930 C   0  0  2  0  0  0  0  0  0  0  0  0
    1.2870   61.7160   72.9420 C   0  0  1  0  0  0  0  0  0  0  0  0
    1.2860   63.0480   73.7390 C   0  0  0  0  0  0  0  0  0  0  0  0
   -0.1270   61.4000   72.4090 C   0  0  0  0  0  0  0  0  0  0  0  0
   -1.1410   61.0440   73.5240 C   0  0  1  0  0  0  0  0  0  0  0  0
   -0.6260   59.9420   74.5020 C   0  0  1  0  0  0  0  0  0  0  0  0
    0.8260   60.2390   75.0080 C   0  0  1  0  0  0  0  0  0  0  0  0
    1.3670   59.0640   75.8400 C   0  0  0  0  0  0  0  0  0  0  0  0
    0.4420   58.6940   76.9920 C   0  0  1  0  0  0  0  0  0  0  0  0
   -0.9520   58.4230   76.4920 C   0  0  0  0  0  0  0  0  0  0  0  0
   -1.5430   57.2310   76.7030 C   0  0  0  0  0  0  0  0  0  0  0  0
   -2.8840   56.9180   76.1740 C   0  0  0  0  0  0  0  0  0  0  0  0
   -3.4210   55.8400   76.3890 O   0  0  0  0  0  0  0  0  0  0  0  0
   -3.5540   57.9600   75.3730 C   0  0  0  0  0  0  0  0  0  0  0  0
   -2.9720   59.1490   75.1600 C   0  0  0  0  0  0  0  0  0  0  0  0
   -1.6020   59.5680   75.6940 C   0  0  2  0  0  0  0  0  0  0  0  0
   -1.8690   60.7340   76.6740 C   0  0  0  0  0  0  0  0  0  0  0  0
    0.9710   57.6010   77.6120 F   0  0  0  0  0  0  0  0  0  0  0  0
   -0.5200   58.8010   73.7210 F   0  0  0  0  0  0  0  0  0  0  0  0
    3.3370   58.5140   70.8190 C   0  0  0  0  0  0  0  0  0  0  0  0
    4.2350   60.4650   69.5290 C   0  0  0  0  0  0  0  0  0  0  0  0
    2.5910   63.0780   71.1410 C   0  0  0  0  0  0  0  0  0  0  0  0
    3.6190   63.7540   71.2350 O   0  0  0  0  0  0  0  0  0  0  0  0
    1.3870   63.5520   70.3330 C   0  0  0  0  0  0  0  0  0  0  0  0
    1.5740   64.9020   69.9010 O   0  0  0  0  0  0  0  0  0  0  0  0
    0.0440   65.7620   71.4530 C   0  0  0  0  0  0  0  0  0  0  0  0
    0.4660   65.6780   70.0200 C   0  0  0  0  0  0  0  0  0  0  0  0
   -0.1080   66.2290   69.0920 O   0  0  0  0  0  0  0  0  0  0  0  0
   -1.5220   62.2340   74.2050 O   0  0  0  0  0  0  0  0  0  0  0  0
    4.3474   62.2204   72.8824 H   0  0  0  0  0  0  0  0  0  0  0  0
    3.7432   59.7996   74.2219 H   0  0  0  0  0  0  0  0  0  0  0  0
    3.4177   61.3952   74.8798 H   0  0  0  0  0  0  0  0  0  0  0  0
    1.5969   59.5232   73.3045 H   0  0  0  0  0  0  0  0  0  0  0  0
    1.2862   62.8301   74.8172 H   0  0  0  0  0  0  0  0  0  0  0  0
    2.1837   63.6296   73.4823 H   0  0  0  0  0  0  0  0  0  0  0  0
    0.3874   63.6282   73.4823 H   0  0  0  0  0  0  0  0  0  0  0  0
   -0.5002   62.2816   71.8673 H   0  0  0  0  0  0  0  0  0  0  0  0
   -0.0382   60.5177   71.7580 H   0  0  0  0  0  0  0  0  0  0  0  0
   -2.0272   60.5990   73.0480 H   0  0  0  0  0  0  0  0  0  0  0  0
    0.8124   61.1267   75.6575 H   0  0  0  0  0  0  0  0  0  0  0  0
    1.4808   58.1889   75.1833 H   0  0  0  0  0  0  0  0  0  0  0  0
    2.3311   59.3733   76.2700 H   0  0  0  0  0  0  0  0  0  0  0  0
    0.3637   59.5268   77.7064 H   0  0  0  0  0  0  0  0  0  0  0  0
   -1.0091   56.4675   77.2878 H   0  0  0  0  0  0  0  0  0  0  0  0
   -4.5465   57.7584   74.9438 H   0  0  0  0  0  0  0  0  0  0  0  0
   -3.5242   59.8813   74.5527 H   0  0  0  0  0  0  0  0  0  0  0  0
   -1.7856   60.3698   77.7086 H   0  0  0  0  0  0  0  0  0  0  0  0
   -1.1302   61.5313   76.5053 H   0  0  0  0  0  0  0  0  0  0  0  0
   -2.8811   61.1303   76.5053 H   0  0  0  0  0  0  0  0  0  0  0  0
    3.2848   58.1497   71.8556 H   0  0  0  0  0  0  0  0  0  0  0  0
    2.3960   58.2791   70.3000 H   0  0  0  0  0  0  0  0  0  0  0  0
    4.1742   58.0244   70.3000 H   0  0  0  0  0  0  0  0  0  0  0  0
    5.1348   61.0495   69.7712 H   0  0  0  0  0  0  0  0  0  0  0  0
    4.5200   59.5792   68.9425 H   0  0  0  0  0  0  0  0  0  0  0  0
    3.5415   61.0855   68.9425 H   0  0  0  0  0  0  0  0  0  0  0  0
    1.2640   62.9040   69.4527 H   0  0  0  0  0  0  0  0  0  0  0  0
    0.4904   63.5027   70.9684 H   0  0  0  0  0  0  0  0  0  0  0  0
    0.9148   65.5887   72.1024 H   0  0  0  0  0  0  0  0  0  0  0  0
   -0.3712   66.7604   71.6551 H   0  0  0  0  0  0  0  0  0  0  0  0
   -0.7218   64.9987   71.6551 H   0  0  0  0  0  0  0  0  0  0  0  0
   -1.4742   62.0846   75.1825 H   0  0  0  0  0  0  0  0  0  0  0  0
  2  1  1  0
  3  2  1  0
  4  3  1  0
  5  4  1  0
  5  1  1  0
  6  5  1  0
  7  6  1  0
  8  7  1  0
  8  1  1  0
  8  9  1  1
 10  8  1  0
 11 10  1  0
 12 11  1  0
 13 12  1  0
 13  7  1  0
 14 13  1  0
 15 14  1  0
 16 15  1  0
 17 16  2  0
 18 17  1  0
 19 18  2  0
 20 18  1  0
 21 20  2  0
 22 21  1  0
 22 16  1  0
 22 12  1  0
 22 23  1  1
 24 15  1  0
 12 25  1  6
 26  3  1  0
 27  3  1  0
  1 28  1  6
 29 28  2  0
 30 28  1  0
 31 30  1  0
 33 32  1  0
 33 31  1  0
 34 33  2  0
 35 11  1  0
  5 36  1  1
  6 37  1  0
  6 38  1  0
  7 39  1  6
  9 40  1  0
  9 41  1  0
  9 42  1  0
 10 43  1  0
 10 44  1  0
 11 45  1  6
 13 46  1  1
 14 47  1  0
 14 48  1  0
 15 49  1  1
 17 50  1  0
 20 51  1  0
 21 52  1  0
 23 53  1  0
 23 54  1  0
 23 55  1  0
 26 56  1  0
 26 57  1  0
 26 58  1  0
 27 59  1  0
 27 60  1  0
 27 61  1  0
 30 62  1  0
 30 63  1  0
 32 64  1  0
 32 65  1  0
 32 66  1  0
 35 67  1  0
M  END
>  <score>  (3) 
-8.852

$$$$
=
     RDKit          3D

 67 71  0  0  0  0  0  0  0  0999 V2000
    1.1350   61.6740   73.7200 C   0  0  2  0  0  0  0  0  0  0  0  0
    1.0840   62.1740   75.0590 O   0  0  0  0  0  0  0  0  0  0  0  0
   -0.0940   62.9810   75.1640 C   0  0  0  0  0  0  0  0  0  0  0  0
   -0.9800   62.7020   74.0850 O   0  0  0  0  0  0  0  0  0  0  0  0
   -0.3110   61.7980   73.2070 C   0  0  2  0  0  0  0  0  0  0  0  0
   -0.9540   60.4000   73.3080 C   0  0  0  0  0  0  0  0  0  0  0  0
    0.0310   59.6080   74.1650 C   0  0  2  0  0  0  0  0  0  0  0  0
    1.4120   60.1340   73.7050 C   0  0  1  0  0  0  0  0  0  0  0  0
    1.7880   59.6820   72.2680 C   0  0  0  0  0  0  0  0  0  0  0  0
    2.4500   59.6180   74.7260 C   0  0  0  0  0  0  0  0  0  0  0  0
    2.4210   58.0810   74.9120 C   0  0  1  0  0  0  0  0  0  0  0  0
    0.9930   57.5190   75.1950 C   0  0  1  0  0  0  0  0  0  0  0  0
   -0.0680   58.0760   74.1880 C   0  0  1  0  0  0  0  0  0  0  0  0
   -1.4870   57.6320   74.5840 C   0  0  0  0  0  0  0  0  0  0  0  0
   -1.6010   56.1210   74.7340 C   0  0  1  0  0  0  0  0  0  0  0  0
   -0.5680   55.5980   75.6960 C   0  0  0  0  0  0  0  0  0  0  0  0
   -0.9320   54.9210   76.8010 C   0  0  0  0  0  0  0  0  0  0  0  0
    0.0550   54.4490   77.7910 C   0  0  0  0  0  0  0  0  0  0  0  0
   -0.2840   53.8150   78.7820 O   0  0  0  0  0  0  0  0  0  0  0  0
    1.4720   54.7720   77.5370 C   0  0  0  0  0  0  0  0  0  0  0  0
    1.8410   55.4440   76.4390 C   0  0  0  0  0  0  0  0  0  0  0  0
    0.8920   55.9440   75.3490 C   0  0  2  0  0  0  0  0  0  0  0  0
    1.2700   55.1640   74.0690 C   0  0  0  0  0  0  0  0  0  0  0  0
   -2.8660   55.8430   75.1600 F   0  0  0  0  0  0  0  0  0  0  0  0
    0.6460   58.0470   76.4300 F   0  0  0  0  0  0  0  0  0  0  0  0
   -0.7910   62.6640   76.4800 C   0  0  0  0  0  0  0  0  0  0  0  0
    0.2940   64.4560   75.1080 C   0  0  0  0  0  0  0  0  0  0  0  0
    2.1300   62.5030   72.8840 C   0  0  0  0  0  0  0  0  0  0  0  0
    3.3350   62.5230   73.1460 O   0  0  0  0  0  0  0  0  0  0  0  0
    1.5380   63.3380   71.7530 C   0  0  0  0  0  0  0  0  0  0  0  0
    2.5770   63.9350   70.9750 O   0  0  0  0  0  0  0  0  0  0  0  0
    4.4940   63.1390   69.8900 C   0  0  0  0  0  0  0  0  0  0  0  0
    2.9980   63.1690   69.9360 C   0  0  0  0  0  0  0  0  0  0  0  0
    2.2660   62.5880   69.1490 O   0  0  0  0  0  0  0  0  0  0  0  0
    3.0300   57.4640   73.7840 O   0  0  0  0  0  0  0  0  0  0  0  0
   -0.3658   62.1596   72.1696 H   0  0  0  0  0  0  0  0  0  0  0  0
   -1.9394   60.4559   73.7937 H   0  0  0  0  0  0  0  0  0  0  0  0
   -1.1284   59.9396   72.3244 H   0  0  0  0  0  0  0  0  0  0  0  0
   -0.1990   59.7833   75.2263 H   0  0  0  0  0  0  0  0  0  0  0  0
    2.4906   58.8373   72.3214 H   0  0  0  0  0  0  0  0  0  0  0  0
    0.8794   59.3698   71.7323 H   0  0  0  0  0  0  0  0  0  0  0  0
    2.2603   60.5186   71.7323 H   0  0  0  0  0  0  0  0  0  0  0  0
    3.4530   59.9081   74.3799 H   0  0  0  0  0  0  0  0  0  0  0  0
    2.1987   60.0667   75.6984 H   0  0  0  0  0  0  0  0  0  0  0  0
    2.9991   57.8357   75.8151 H   0  0  0  0  0  0  0  0  0  0  0  0
    0.1359   57.6754   73.1840 H   0  0  0  0  0  0  0  0  0  0  0  0
   -1.7501   58.1031   75.5425 H   0  0  0  0  0  0  0  0  0  0  0  0
   -2.1721   57.9423   73.7813 H   0  0  0  0  0  0  0  0  0  0  0  0
   -1.4128   55.6233   73.7713 H   0  0  0  0  0  0  0  0  0  0  0  0
   -1.9987   54.7131   76.9713 H   0  0  0  0  0  0  0  0  0  0  0  0
    2.2375   54.4558   78.2610 H   0  0  0  0  0  0  0  0  0  0  0  0
    2.9133   55.6532   76.3108 H   0  0  0  0  0  0  0  0  0  0  0  0
    1.7342   54.2062   74.3469 H   0  0  0  0  0  0  0  0  0  0  0  0
    0.3642   54.9737   73.4746 H   0  0  0  0  0  0  0  0  0  0  0  0
    1.9806   55.7571   73.4746 H   0  0  0  0  0  0  0  0  0  0  0  0
   -0.1429   62.9588   77.3185 H   0  0  0  0  0  0  0  0  0  0  0  0
   -1.7387   63.2197   76.5361 H   0  0  0  0  0  0  0  0  0  0  0  0
   -0.9950   61.5845   76.5361 H   0  0  0  0  0  0  0  0  0  0  0  0
    0.3969   64.8472   76.1309 H   0  0  0  0  0  0  0  0  0  0  0  0
    1.2510   64.5635   74.5763 H   0  0  0  0  0  0  0  0  0  0  0  0
   -0.4862   65.0205   74.5763 H   0  0  0  0  0  0  0  0  0  0  0  0
    0.9279   62.6905   71.1061 H   0  0  0  0  0  0  0  0  0  0  0  0
    0.9160   64.1347   72.1870 H   0  0  0  0  0  0  0  0  0  0  0  0
    4.8923   63.1310   70.9153 H   0  0  0  0  0  0  0  0  0  0  0  0
    4.8265   62.2340   69.3604 H   0  0  0  0  0  0  0  0  0  0  0  0
    4.8625   64.0299   69.3604 H   0  0  0  0  0  0  0  0  0  0  0  0
    3.6911   56.7942   74.0911 H   0  0  0  0  0  0  0  0  0  0  0  0
  2  1  1  0
  3  2  1  0
  4  3  1  0
  5  4  1  0
  5  1  1  0
  6  5  1  0
  7  6  1  0
  8  7  1  0
  8  1  1  0
  8  9  1  6
 10  8  1  0
 11 10  1  0
 12 11  1  0
 13 12  1  0
 13  7  1  0
 14 13  1  0
 15 14  1  0
 16 15  1  0
 17 16  2  0
 18 17  1  0
 19 18  2  0
 20 18  1  0
 21 20  2  0
 22 21  1  0
 22 16  1  0
 22 12  1  0
 22 23  1  6
 24 15  1  0
 12 25  1  1
 26  3  1  0
 27  3  1  0
  1 28  1  6
 29 28  2  0
 30 28  1  0
 31 30  1  0
 33 32  1  0
 33 31  1  0
 34 33  2  0
 35 11  1  0
  5 36  1  6
  6 37  1  0
  6 38  1  0
  7 39  1  1
  9 40  1  0
  9 41  1  0
  9 42  1  0
 10 43  1  0
 10 44  1  0
 11 45  1  1
 13 46  1  6
 14 47  1  0
 14 48  1  0
 15 49  1  6
 17 50  1  0
 20 51  1  0
 21 52  1  0
 23 53  1  0
 23 54  1  0
 23 55  1  0
 26 56  1  0
 26 57  1  0
 26 58  1  0
 27 59  1  0
 27 60  1  0
 27 61  1  0
 30 62  1  0
 30 63  1  0
 32 64  1  0
 32 65  1  0
 32 66  1  0
 35 67  1  0
M  END
>  <score>  (4) 
-8.389

$$$$
=
     RDKit          3D

 67 71  0  0  0  0  0  0  0  0999 V2000
    2.3670   60.4760   72.7490 C   0  0  2  0  0  0  0  0  0  0  0  0
    2.1930   59.7450   71.5320 O   0  0  0  0  0  0  0  0  0  0  0  0
    3.4900   59.3060   71.1130 C   0  0  0  0  0  0  0  0  0  0  0  0
    4.4120   59.3910   72.1950 O   0  0  0  0  0  0  0  0  0  0  0  0
    3.7320   60.0100   73.2860 C   0  0  2  0  0  0  0  0  0  0  0  0
    3.4570   58.9670   74.3880 C   0  0  0  0  0  0  0  0  0  0  0  0
    1.9750   58.6420   74.2210 C   0  0  2  0  0  0  0  0  0  0  0  0
    1.3490   60.0060   73.8380 C   0  0  1  0  0  0  0  0  0  0  0  0
    1.3320   61.0190   75.0150 C   0  0  0  0  0  0  0  0  0  0  0  0
   -0.0870   59.7170   73.3500 C   0  0  0  0  0  0  0  0  0  0  0  0
   -0.9400   58.9260   74.3720 C   0  0  1  0  0  0  0  0  0  0  0  0
   -0.2340   57.6400   74.9040 C   0  0  1  0  0  0  0  0  0  0  0  0
    1.2370   57.9230   75.3580 C   0  0  1  0  0  0  0  0  0  0  0  0
    1.9580   56.6150   75.7280 C   0  0  0  0  0  0  0  0  0  0  0  0
    1.1980   55.8090   76.7730 C   0  0  1  0  0  0  0  0  0  0  0  0
   -0.2180   55.5550   76.3270 C   0  0  0  0  0  0  0  0  0  0  0  0
   -0.6860   54.2990   76.1960 C   0  0  0  0  0  0  0  0  0  0  0  0
   -2.0490   54.0190   75.7050 C   0  0  0  0  0  0  0  0  0  0  0  0
   -2.4730   52.8750   75.6100 O   0  0  0  0  0  0  0  0  0  0  0  0
   -2.8830   55.1780   75.3340 C   0  0  0  0  0  0  0  0  0  0  0  0
   -2.4230   56.4300   75.4640 C   0  0  0  0  0  0  0  0  0  0  0  0
   -1.0400   56.8120   75.9900 C   0  0  2  0  0  0  0  0  0  0  0  0
   -1.2860   57.5820   77.3080 C   0  0  0  0  0  0  0  0  0  0  0  0
    1.8770   54.6420   76.9690 F   0  0  0  0  0  0  0  0  0  0  0  0
   -0.1280   56.8140   73.7950 F   0  0  0  0  0  0  0  0  0  0  0  0
    3.3930   57.8590   70.6500 C   0  0  0  0  0  0  0  0  0  0  0  0
    3.9870   60.1980   69.9780 C   0  0  0  0  0  0  0  0  0  0  0  0
    2.3330   61.9910   72.4650 C   0  0  0  0  0  0  0  0  0  0  0  0
    3.1450   62.7640   72.9800 O   0  0  0  0  0  0  0  0  0  0  0  0
    1.2120   62.4880   71.5580 C   0  0  0  0  0  0  0  0  0  0  0  0
    1.0350   63.8980   71.7070 O   0  0  0  0  0  0  0  0  0  0  0  0
    0.4520   65.8310   70.5180 C   0  0  0  0  0  0  0  0  0  0  0  0
    1.3170   64.6110   70.5860 C   0  0  0  0  0  0  0  0  0  0  0  0
    2.1530   64.3040   69.7490 O   0  0  0  0  0  0  0  0  0  0  0  0
   -1.3340   59.7990   75.4250 O   0  0  0  0  0  0  0  0  0  0  0  0
    4.3338   60.8355   73.6938 H   0  0  0  0  0  0  0  0  0  0  0  0
    4.0742   58.0686   74.2399 H   0  0  0  0  0  0  0  0  0  0  0  0
    3.7001   59.3379   75.3946 H   0  0  0  0  0  0  0  0  0  0  0  0
    1.8669   57.8543   73.4608 H   0  0  0  0  0  0  0  0  0  0  0  0
    1.3412   60.4723   75.9695 H   0  0  0  0  0  0  0  0  0  0  0  0
    2.2194   61.6662   74.9546 H   0  0  0  0  0  0  0  0  0  0  0  0
    0.4234   61.6360   74.9546 H   0  0  0  0  0  0  0  0  0  0  0  0
   -0.5859   60.6765   73.1488 H   0  0  0  0  0  0  0  0  0  0  0  0
   -0.0024   59.0931   72.4480 H   0  0  0  0  0  0  0  0  0  0  0  0
   -1.8364   58.5558   73.8529 H   0  0  0  0  0  0  0  0  0  0  0  0
    1.2259   58.5605   76.2544 H   0  0  0  0  0  0  0  0  0  0  0  0
    2.0673   56.0030   74.8206 H   0  0  0  0  0  0  0  0  0  0  0  0
    2.9363   56.8804   76.1553 H   0  0  0  0  0  0  0  0  0  0  0  0
    1.1342   56.3670   77.7188 H   0  0  0  0  0  0  0  0  0  0  0  0
   -0.0320   53.4559   76.4633 H   0  0  0  0  0  0  0  0  0  0  0  0
   -3.8983   55.0119   74.9446 H   0  0  0  0  0  0  0  0  0  0  0  0
   -3.0953   57.2489   75.1682 H   0  0  0  0  0  0  0  0  0  0  0  0
   -1.0753   56.9225   78.1628 H   0  0  0  0  0  0  0  0  0  0  0  0
   -0.6233   58.4590   77.3495 H   0  0  0  0  0  0  0  0  0  0  0  0
   -2.3344   57.9123   77.3495 H   0  0  0  0  0  0  0  0  0  0  0  0
    3.3485   57.1958   71.5264 H   0  0  0  0  0  0  0  0  0  0  0  0
    2.4841   57.7279   70.0445 H   0  0  0  0  0  0  0  0  0  0  0  0
    4.2763   57.6078   70.0445 H   0  0  0  0  0  0  0  0  0  0  0  0
    4.4816   61.0857   70.3990 H   0  0  0  0  0  0  0  0  0  0  0  0
    4.7033   59.6383   69.3586 H   0  0  0  0  0  0  0  0  0  0  0  0
    3.1342   60.5126   69.3586 H   0  0  0  0  0  0  0  0  0  0  0  0
    1.4668   62.2638   70.5117 H   0  0  0  0  0  0  0  0  0  0  0  0
    0.2769   61.9808   71.8379 H   0  0  0  0  0  0  0  0  0  0  0  0
    0.2129   66.1682   71.5374 H   0  0  0  0  0  0  0  0  0  0  0  0
    0.9864   66.6301   69.9833 H   0  0  0  0  0  0  0  0  0  0  0  0
   -0.4789   65.5911   69.9833 H   0  0  0  0  0  0  0  0  0  0  0  0
   -1.1413   59.3720   76.2972 H   0  0  0  0  0  0  0  0  0  0  0  0
  2  1  1  0
  3  2  1  0
  4  3  1  0
  5  4  1  0
  5  1  1  0
  6  5  1  0
  7  6  1  0
  8  7  1  0
  8  1  1  0
  8  9  1  1
 10  8  1  0
 11 10  1  0
 12 11  1  0
 13 12  1  0
 13  7  1  0
 14 13  1  0
 15 14  1  0
 16 15  1  0
 17 16  2  0
 18 17  1  0
 19 18  2  0
 20 18  1  0
 21 20  2  0
 22 21  1  0
 22 16  1  0
 22 12  1  0
 22 23  1  1
 24 15  1  0
 12 25  1  6
 26  3  1  0
 27  3  1  0
  1 28  1  6
 29 28  2  0
 30 28  1  0
 31 30  1  0
 33 32  1  0
 33 31  1  0
 34 33  2  0
 35 11  1  0
  5 36  1  1
  6 37  1  0
  6 38  1  0
  7 39  1  6
  9 40  1  0
  9 41  1  0
  9 42  1  0
 10 43  1  0
 10 44  1  0
 11 45  1  6
 13 46  1  1
 14 47  1  0
 14 48  1  0
 15 49  1  1
 17 50  1  0
 20 51  1  0
 21 52  1  0
 23 53  1  0
 23 54  1  0
 23 55  1  0
 26 56  1  0
 26 57  1  0
 26 58  1  0
 27 59  1  0
 27 60  1  0
 27 61  1  0
 30 62  1  0
 30 63  1  0
 32 64  1  0
 32 65  1  0
 32 66  1  0
 35 67  1  0
M  END
>  <score>  (5) 
-8.379

$$$$
=
     RDKit          3D

 67 71  0  0  0  0  0  0  0  0999 V2000
    1.4440   60.0310   73.5100 C   0  0  2  0  0  0  0  0  0  0  0  0
    1.1170   58.9710   72.6060 O   0  0  0  0  0  0  0  0  0  0  0  0
    2.0280   57.8980   72.8670 C   0  0  0  0  0  0  0  0  0  0  0  0
    2.6510   58.0770   74.1340 O   0  0  0  0  0  0  0  0  0  0  0  0
    2.2340   59.3440   74.6390 C   0  0  2  0  0  0  0  0  0  0  0  0
    1.2600   59.1400   75.8180 C   0  0  0  0  0  0  0  0  0  0  0  0
   -0.1120   59.4220   75.2100 C   0  0  2  0  0  0  0  0  0  0  0  0
    0.1640   60.5800   74.2200 C   0  0  1  0  0  0  0  0  0  0  0  0
    0.4900   61.9220   74.9290 C   0  0  0  0  0  0  0  0  0  0  0  0
   -1.0960   60.7240   73.3390 C   0  0  0  0  0  0  0  0  0  0  0  0
   -2.3990   60.9210   74.1520 C   0  0  1  0  0  0  0  0  0  0  0  0
   -2.5930   59.8590   75.2780 C   0  0  1  0  0  0  0  0  0  0  0  0
   -1.3010   59.6800   76.1450 C   0  0  1  0  0  0  0  0  0  0  0  0
   -1.4670   58.5210   77.1430 C   0  0  0  0  0  0  0  0  0  0  0  0
   -2.7050   58.6780   78.0150 C   0  0  1  0  0  0  0  0  0  0  0  0
   -3.9370   58.8610   77.1690 C   0  0  0  0  0  0  0  0  0  0  0  0
   -4.9730   58.0060   77.2630 C   0  0  0  0  0  0  0  0  0  0  0  0
   -6.1660   58.1260   76.4040 C   0  0  0  0  0  0  0  0  0  0  0  0
   -7.1130   57.3580   76.5120 O   0  0  0  0  0  0  0  0  0  0  0  0
   -6.1740   59.2150   75.4090 C   0  0  0  0  0  0  0  0  0  0  0  0
   -5.1470   60.0690   75.3110 C   0  0  0  0  0  0  0  0  0  0  0  0
   -3.8870   60.0370   76.1760 C   0  0  2  0  0  0  0  0  0  0  0  0
   -3.9050   61.3470   76.9970 C   0  0  0  0  0  0  0  0  0  0  0  0
   -2.7990   57.5680   78.8020 F   0  0  0  0  0  0  0  0  0  0  0  0
   -2.7570   58.6580   74.6050 F   0  0  0  0  0  0  0  0  0  0  0  0
    1.2530   56.5860   72.8700 C   0  0  0  0  0  0  0  0  0  0  0  0
    3.1090   57.8750   71.7900 C   0  0  0  0  0  0  0  0  0  0  0  0
    2.2740   61.1070   72.7830 C   0  0  0  0  0  0  0  0  0  0  0  0
    1.7900   61.7980   71.8820 O   0  0  0  0  0  0  0  0  0  0  0  0
    3.7360   61.2350   73.1980 C   0  0  0  0  0  0  0  0  0  0  0  0
    4.3390   62.3660   72.5660 O   0  0  0  0  0  0  0  0  0  0  0  0
    4.8960   63.1590   70.4320 C   0  0  0  0  0  0  0  0  0  0  0  0
    5.0380   62.0630   71.4420 C   0  0  0  0  0  0  0  0  0  0  0  0
    5.6900   61.0420   71.2730 O   0  0  0  0  0  0  0  0  0  0  0  0
   -2.4380   62.2520   74.6530 O   0  0  0  0  0  0  0  0  0  0  0  0
    3.1041   59.9306   74.9690 H   0  0  0  0  0  0  0  0  0  0  0  0
    1.3157   58.1094   76.1985 H   0  0  0  0  0  0  0  0  0  0  0  0
    1.4874   59.7909   76.6751 H   0  0  0  0  0  0  0  0  0  0  0  0
   -0.4926   58.5001   74.7460 H   0  0  0  0  0  0  0  0  0  0  0  0
    0.4552   61.7787   76.0191 H   0  0  0  0  0  0  0  0  0  0  0  0
    1.4957   62.2571   74.6352 H   0  0  0  0  0  0  0  0  0  0  0  0
   -0.2499   62.6811   74.6352 H   0  0  0  0  0  0  0  0  0  0  0  0
   -0.9622   61.5942   72.6796 H   0  0  0  0  0  0  0  0  0  0  0  0
   -1.2053   59.7860   72.7750 H   0  0  0  0  0  0  0  0  0  0  0  0
   -3.2508   60.7635   73.4741 H   0  0  0  0  0  0  0  0  0  0  0  0
   -1.1219   60.5954   76.7281 H   0  0  0  0  0  0  0  0  0  0  0  0
   -1.5485   57.5794   76.5803 H   0  0  0  0  0  0  0  0  0  0  0  0
   -0.5886   58.5205   77.8051 H   0  0  0  0  0  0  0  0  0  0  0  0
   -2.6215   59.5761   78.6446 H   0  0  0  0  0  0  0  0  0  0  0  0
   -4.9282   57.1933   78.0029 H   0  0  0  0  0  0  0  0  0  0  0  0
   -7.0374   59.3274   74.7367 H   0  0  0  0  0  0  0  0  0  0  0  0
   -5.2157   60.8569   74.5465 H   0  0  0  0  0  0  0  0  0  0  0  0
   -3.9017   61.1070   78.0705 H   0  0  0  0  0  0  0  0  0  0  0  0
   -3.0150   61.9453   76.7523 H   0  0  0  0  0  0  0  0  0  0  0  0
   -4.8111   61.9207   76.7523 H   0  0  0  0  0  0  0  0  0  0  0  0
    1.0676   56.2721   73.9078 H   0  0  0  0  0  0  0  0  0  0  0  0
    0.2927   56.7262   72.3522 H   0  0  0  0  0  0  0  0  0  0  0  0
    1.8393   55.8126   72.3522 H   0  0  0  0  0  0  0  0  0  0  0  0
    4.1004   57.8539   72.2660 H   0  0  0  0  0  0  0  0  0  0  0  0
    2.9838   56.9793   71.1638 H   0  0  0  0  0  0  0  0  0  0  0  0
    3.0220   58.7752   71.1638 H   0  0  0  0  0  0  0  0  0  0  0  0
    3.7929   61.3574   74.2897 H   0  0  0  0  0  0  0  0  0  0  0  0
    4.2740   60.3265   72.8895 H   0  0  0  0  0  0  0  0  0  0  0  0
    4.7713   64.1213   70.9502 H   0  0  0  0  0  0  0  0  0  0  0  0
    5.7969   63.1959   69.8019 H   0  0  0  0  0  0  0  0  0  0  0  0
    4.0155   62.9651   69.8019 H   0  0  0  0  0  0  0  0  0  0  0  0
   -2.4374   62.2322   75.6428 H   0  0  0  0  0  0  0  0  0  0  0  0
  2  1  1  0
  3  2  1  0
  4  3  1  0
  5  4  1  0
  5  1  1  0
  6  5  1  0
  7  6  1  0
  8  7  1  0
  8  1  1  0
  8  9  1  1
 10  8  1  0
 11 10  1  0
 12 11  1  0
 13 12  1  0
 13  7  1  0
 14 13  1  0
 15 14  1  0
 16 15  1  0
 17 16  2  0
 18 17  1  0
 19 18  2  0
 20 18  1  0
 21 20  2  0
 22 21  1  0
 22 16  1  0
 22 12  1  0
 22 23  1  1
 24 15  1  0
 12 25  1  6
 26  3  1  0
 27  3  1  0
  1 28  1  6
 29 28  2  0
 30 28  1  0
 31 30  1  0
 33 32  1  0
 33 31  1  0
 34 33  2  0
 35 11  1  0
  5 36  1  1
  6 37  1  0
  6 38  1  0
  7 39  1  6
  9 40  1  0
  9 41  1  0
  9 42  1  0
 10 43  1  0
 10 44  1  0
 11 45  1  6
 13 46  1  1
 14 47  1  0
 14 48  1  0
 15 49  1  1
 17 50  1  0
 20 51  1  0
 21 52  1  0
 23 53  1  0
 23 54  1  0
 23 55  1  0
 26 56  1  0
 26 57  1  0
 26 58  1  0
 27 59  1  0
 27 60  1  0
 27 61  1  0
 30 62  1  0
 30 63  1  0
 32 64  1  0
 32 65  1  0
 32 66  1  0
 35 67  1  0
M  END
>  <score>  (6) 
-7.37

$$$$
=
     RDKit          3D

 67 71  0  0  0  0  0  0  0  0999 V2000
   -1.7520   59.9850   76.7500 C   0  0  2  0  0  0  0  0  0  0  0  0
   -2.7040   59.6300   75.7430 O   0  0  0  0  0  0  0  0  0  0  0  0
   -3.5660   60.7580   75.5600 C   0  0  0  0  0  0  0  0  0  0  0  0
   -2.9710   61.9280   76.1140 O   0  0  0  0  0  0  0  0  0  0  0  0
   -1.7720   61.5240   76.7730 C   0  0  2  0  0  0  0  0  0  0  0  0
   -0.5480   62.0090   75.9710 C   0  0  0  0  0  0  0  0  0  0  0  0
   -0.0590   60.7510   75.2570 C   0  0  2  0  0  0  0  0  0  0  0  0
   -0.2970   59.6310   76.2980 C   0  0  1  0  0  0  0  0  0  0  0  0
    0.6650   59.7140   77.5140 C   0  0  0  0  0  0  0  0  0  0  0  0
   -0.1220   58.2880   75.5570 C   0  0  0  0  0  0  0  0  0  0  0  0
    1.2390   58.1570   74.8300 C   0  0  1  0  0  0  0  0  0  0  0  0
    1.5720   59.3760   73.9160 C   0  0  1  0  0  0  0  0  0  0  0  0
    1.3520   60.7400   74.6520 C   0  0  1  0  0  0  0  0  0  0  0  0
    1.5350   61.9220   73.6840 C   0  0  0  0  0  0  0  0  0  0  0  0
    2.8800   61.8850   72.9710 C   0  0  1  0  0  0  0  0  0  0  0  0
    3.0820   60.5640   72.2770 C   0  0  0  0  0  0  0  0  0  0  0  0
    3.2910   60.5060   70.9480 C   0  0  0  0  0  0  0  0  0  0  0  0
    3.4340   59.2230   70.2340 C   0  0  0  0  0  0  0  0  0  0  0  0
    3.6450   59.1810   69.0290 O   0  0  0  0  0  0  0  0  0  0  0  0
    3.3130   57.9890   71.0330 C   0  0  0  0  0  0  0  0  0  0  0  0
    3.1060   58.0400   72.3560 C   0  0  0  0  0  0  0  0  0  0  0  0
    2.9760   59.3210   73.1800 C   0  0  2  0  0  0  0  0  0  0  0  0
    4.1870   59.3310   74.1410 C   0  0  0  0  0  0  0  0  0  0  0  0
    2.9070   62.9230   72.0860 F   0  0  0  0  0  0  0  0  0  0  0  0
    0.6140   59.3360   72.9140 F   0  0  0  0  0  0  0  0  0  0  0  0
   -3.7890   60.9690   74.0680 C   0  0  0  0  0  0  0  0  0  0  0  0
   -4.8940   60.5050   76.2670 C   0  0  0  0  0  0  0  0  0  0  0  0
   -2.1610   59.3710   78.1030 C   0  0  0  0  0  0  0  0  0  0  0  0
   -2.1660   60.0380   79.1410 O   0  0  0  0  0  0  0  0  0  0  0  0
   -2.5040   57.8850   78.1000 C   0  0  0  0  0  0  0  0  0  0  0  0
   -3.9030   57.6940   78.3180 O   0  0  0  0  0  0  0  0  0  0  0  0
   -3.5830   56.3530   76.4230 C   0  0  0  0  0  0  0  0  0  0  0  0
   -4.4350   56.6610   77.6150 C   0  0  0  0  0  0  0  0  0  0  0  0
   -5.4630   56.0670   77.9070 O   0  0  0  0  0  0  0  0  0  0  0  0
    2.2590   57.9090   75.7910 O   0  0  0  0  0  0  0  0  0  0  0  0
   -1.7377   61.9351   77.7927 H   0  0  0  0  0  0  0  0  0  0  0  0
   -0.8367   62.7841   75.2458 H   0  0  0  0  0  0  0  0  0  0  0  0
    0.2247   62.4644   76.6078 H   0  0  0  0  0  0  0  0  0  0  0  0
   -0.6192   60.6340   74.3176 H   0  0  0  0  0  0  0  0  0  0  0  0
    0.0830   59.6638   78.4461 H   0  0  0  0  0  0  0  0  0  0  0  0
    1.3740   58.8737   77.4787 H   0  0  0  0  0  0  0  0  0  0  0  0
    1.2196   60.6633   77.4787 H   0  0  0  0  0  0  0  0  0  0  0  0
   -0.2051   57.4723   76.2902 H   0  0  0  0  0  0  0  0  0  0  0  0
   -0.9063   58.2383   74.7873 H   0  0  0  0  0  0  0  0  0  0  0  0
    1.1756   57.3025   74.1402 H   0  0  0  0  0  0  0  0  0  0  0  0
    2.0997   60.8488   75.4514 H   0  0  0  0  0  0  0  0  0  0  0  0
    0.7345   61.8886   72.9303 H   0  0  0  0  0  0  0  0  0  0  0  0
    1.4937   62.8490   74.2747 H   0  0  0  0  0  0  0  0  0  0  0  0
    3.7024   61.9889   73.6941 H   0  0  0  0  0  0  0  0  0  0  0  0
    3.3571   61.4440   70.3773 H   0  0  0  0  0  0  0  0  0  0  0  0
    3.3940   57.0115   70.5350 H   0  0  0  0  0  0  0  0  0  0  0  0
    3.0229   57.0831   72.8922 H   0  0  0  0  0  0  0  0  0  0  0  0
    3.8296   59.3280   75.1813 H   0  0  0  0  0  0  0  0  0  0  0  0
    4.8039   58.4379   73.9627 H   0  0  0  0  0  0  0  0  0  0  0  0
    4.7891   60.2341   73.9627 H   0  0  0  0  0  0  0  0  0  0  0  0
   -4.5805   61.7179   73.9179 H   0  0  0  0  0  0  0  0  0  0  0  0
   -2.8565   61.3231   73.6043 H   0  0  0  0  0  0  0  0  0  0  0  0
   -4.0910   60.0183   73.6043 H   0  0  0  0  0  0  0  0  0  0  0  0
   -4.7410   60.5341   77.3559 H   0  0  0  0  0  0  0  0  0  0  0  0
   -5.6173   61.2815   75.9774 H   0  0  0  0  0  0  0  0  0  0  0  0
   -5.2812   59.5169   75.9774 H   0  0  0  0  0  0  0  0  0  0  0  0
   -2.2266   57.4514   77.1279 H   0  0  0  0  0  0  0  0  0  0  0  0
   -1.9470   57.3897   78.9089 H   0  0  0  0  0  0  0  0  0  0  0  0
   -2.5978   55.9969   76.7586 H   0  0  0  0  0  0  0  0  0  0  0  0
   -4.0679   55.5733   75.8173 H   0  0  0  0  0  0  0  0  0  0  0  0
   -3.4573   57.2626   75.8173 H   0  0  0  0  0  0  0  0  0  0  0  0
    1.8831   58.0004   76.7023 H   0  0  0  0  0  0  0  0  0  0  0  0
  2  1  1  0
  3  2  1  0
  4  3  1  0
  5  4  1  0
  5  1  1  0
  6  5  1  0
  7  6  1  0
  8  7  1  0
  8  1  1  0
  8  9  1  1
 10  8  1  0
 11 10  1  0
 12 11  1  0
 13 12  1  0
 13  7  1  0
 14 13  1  0
 15 14  1  0
 16 15  1  0
 17 16  2  0
 18 17  1  0
 19 18  2  0
 20 18  1  0
 21 20  2  0
 22 21  1  0
 22 16  1  0
 22 12  1  0
 22 23  1  1
 24 15  1  0
 12 25  1  6
 26  3  1  0
 27  3  1  0
  1 28  1  1
 29 28  2  0
 30 28  1  0
 31 30  1  0
 33 32  1  0
 33 31  1  0
 34 33  2  0
 35 11  1  0
  5 36  1  1
  6 37  1  0
  6 38  1  0
  7 39  1  6
  9 40  1  0
  9 41  1  0
  9 42  1  0
 10 43  1  0
 10 44  1  0
 11 45  1  6
 13 46  1  1
 14 47  1  0
 14 48  1  0
 15 49  1  1
 17 50  1  0
 20 51  1  0
 21 52  1  0
 23 53  1  0
 23 54  1  0
 23 55  1  0
 26 56  1  0
 26 57  1  0
 26 58  1  0
 27 59  1  0
 27 60  1  0
 27 61  1  0
 30 62  1  0
 30 63  1  0
 32 64  1  0
 32 65  1  0
 32 66  1  0
 35 67  1  0
M  END
>  <score>  (7) 
-6.802

$$$$
=
     RDKit          3D

 67 71  0  0  0  0  0  0  0  0999 V2000
    1.7410   60.2600   74.6600 C   0  0  2  0  0  0  0  0  0  0  0  0
    1.8580   58.8400   74.7870 O   0  0  0  0  0  0  0  0  0  0  0  0
    2.7570   58.5850   75.8710 C   0  0  0  0  0  0  0  0  0  0  0  0
    2.9080   59.7530   76.6720 O   0  0  0  0  0  0  0  0  0  0  0  0
    2.1970   60.8070   76.0240 C   0  0  2  0  0  0  0  0  0  0  0  0
    0.9250   61.1480   76.8270 C   0  0  0  0  0  0  0  0  0  0  0  0
   -0.1970   60.4920   76.0280 C   0  0  2  0  0  0  0  0  0  0  0  0
    0.2420   60.6940   74.5570 C   0  0  1  0  0  0  0  0  0  0  0  0
    0.1540   62.1730   74.0940 C   0  0  0  0  0  0  0  0  0  0  0  0
   -0.6690   59.7980   73.6910 C   0  0  0  0  0  0  0  0  0  0  0  0
   -2.1800   60.0590   73.9110 C   0  0  1  0  0  0  0  0  0  0  0  0
   -2.5990   60.0380   75.4140 C   0  0  1  0  0  0  0  0  0  0  0  0
   -1.6480   60.9110   76.3000 C   0  0  1  0  0  0  0  0  0  0  0  0
   -1.9870   60.7490   77.7920 C   0  0  0  0  0  0  0  0  0  0  0  0
   -3.4510   61.0430   78.0900 C   0  0  1  0  0  0  0  0  0  0  0  0
   -4.3530   60.2040   77.2230 C   0  0  0  0  0  0  0  0  0  0  0  0
   -5.2510   59.3630   77.7690 C   0  0  0  0  0  0  0  0  0  0  0  0
   -6.1050   58.4880   76.9450 C   0  0  0  0  0  0  0  0  0  0  0  0
   -6.9340   57.7420   77.4490 O   0  0  0  0  0  0  0  0  0  0  0  0
   -5.9210   58.5490   75.4820 C   0  0  0  0  0  0  0  0  0  0  0  0
   -5.0300   59.3850   74.9320 C   0  0  0  0  0  0  0  0  0  0  0  0
   -4.1270   60.3450   75.7060 C   0  0  2  0  0  0  0  0  0  0  0  0
   -4.5700   61.7670   75.2930 C   0  0  0  0  0  0  0  0  0  0  0  0
   -3.6610   60.7940   79.4150 F   0  0  0  0  0  0  0  0  0  0  0  0
   -2.3870   58.7290   75.8200 F   0  0  0  0  0  0  0  0  0  0  0  0
    2.1900   57.4600   76.7270 C   0  0  0  0  0  0  0  0  0  0  0  0
    4.1250   58.1950   75.3160 C   0  0  0  0  0  0  0  0  0  0  0  0
    2.6250   60.7600   73.5010 C   0  0  0  0  0  0  0  0  0  0  0  0
    3.4650   61.6490   73.6650 O   0  0  0  0  0  0  0  0  0  0  0  0
    2.3670   60.1390   72.1310 C   0  0  0  0  0  0  0  0  0  0  0  0
    3.0900   58.9150   71.9930 O   0  0  0  0  0  0  0  0  0  0  0  0
    3.4820   59.9210   69.9130 C   0  0  0  0  0  0  0  0  0  0  0  0
    3.5160   58.6650   70.7280 C   0  0  0  0  0  0  0  0  0  0  0  0
    3.8750   57.5750   70.3090 O   0  0  0  0  0  0  0  0  0  0  0  0
   -2.5420   61.2740   73.2660 O   0  0  0  0  0  0  0  0  0  0  0  0
    2.8337   61.6995   75.9338 H   0  0  0  0  0  0  0  0  0  0  0  0
    0.9790   60.7295   77.8429 H   0  0  0  0  0  0  0  0  0  0  0  0
    0.7797   62.2310   76.9538 H   0  0  0  0  0  0  0  0  0  0  0  0
   -0.2895   59.4418   76.3419 H   0  0  0  0  0  0  0  0  0  0  0  0
    0.1148   62.8311   74.9745 H   0  0  0  0  0  0  0  0  0  0  0  0
    1.0390   62.4213   73.4897 H   0  0  0  0  0  0  0  0  0  0  0  0
   -0.7542   62.3146   73.4897 H   0  0  0  0  0  0  0  0  0  0  0  0
   -0.4342   59.9823   72.6323 H   0  0  0  0  0  0  0  0  0  0  0  0
   -0.4738   58.7564   73.9858 H   0  0  0  0  0  0  0  0  0  0  0  0
   -2.7393   59.2280   73.4564 H   0  0  0  0  0  0  0  0  0  0  0  0
   -1.7816   61.9722   76.0431 H   0  0  0  0  0  0  0  0  0  0  0  0
   -1.7658   59.7147   78.0942 H   0  0  0  0  0  0  0  0  0  0  0  0
   -1.3785   61.4723   78.3546 H   0  0  0  0  0  0  0  0  0  0  0  0
   -3.6862   62.0937   77.8648 H   0  0  0  0  0  0  0  0  0  0  0  0
   -5.3508   59.3274   78.8639 H   0  0  0  0  0  0  0  0  0  0  0  0
   -6.5248   57.8979   74.8328 H   0  0  0  0  0  0  0  0  0  0  0  0
   -4.9413   59.3800   73.8356 H   0  0  0  0  0  0  0  0  0  0  0  0
   -4.7575   62.3689   76.1944 H   0  0  0  0  0  0  0  0  0  0  0  0
   -3.7764   62.2392   74.6953 H   0  0  0  0  0  0  0  0  0  0  0  0
   -5.4914   61.7049   74.6953 H   0  0  0  0  0  0  0  0  0  0  0  0
    2.3158   57.7097   77.7909 H   0  0  0  0  0  0  0  0  0  0  0  0
    1.1203   57.3332   76.5042 H   0  0  0  0  0  0  0  0  0  0  0  0
    2.7244   56.5247   76.5042 H   0  0  0  0  0  0  0  0  0  0  0  0
    4.8160   57.9980   76.1489 H   0  0  0  0  0  0  0  0  0  0  0  0
    4.0260   57.2893   74.6996 H   0  0  0  0  0  0  0  0  0  0  0  0
    4.5185   59.0168   74.6996 H   0  0  0  0  0  0  0  0  0  0  0  0
    1.2910   59.9383   72.0212 H   0  0  0  0  0  0  0  0  0  0  0  0
    2.7029   60.8405   71.3532 H   0  0  0  0  0  0  0  0  0  0  0  0
    3.4584   60.7927   70.5835 H   0  0  0  0  0  0  0  0  0  0  0  0
    4.3791   59.9707   69.2784 H   0  0  0  0  0  0  0  0  0  0  0  0
    2.5835   59.9221   69.2784 H   0  0  0  0  0  0  0  0  0  0  0  0
   -2.7468   61.9615   73.9483 H   0  0  0  0  0  0  0  0  0  0  0  0
  2  1  1  0
  3  2  1  0
  4  3  1  0
  5  4  1  0
  5  1  1  0
  6  5  1  0
  7  6  1  0
  8  7  1  0
  8  1  1  0
  8  9  1  6
 10  8  1  0
 11 10  1  0
 12 11  1  0
 13 12  1  0
 13  7  1  0
 14 13  1  0
 15 14  1  0
 16 15  1  0
 17 16  2  0
 18 17  1  0
 19 18  2  0
 20 18  1  0
 21 20  2  0
 22 21  1  0
 22 16  1  0
 22 12  1  0
 22 23  1  6
 24 15  1  0
 12 25  1  1
 26  3  1  0
 27  3  1  0
  1 28  1  6
 29 28  2  0
 30 28  1  0
 31 30  1  0
 33 32  1  0
 33 31  1  0
 34 33  2  0
 35 11  1  0
  5 36  1  6
  6 37  1  0
  6 38  1  0
  7 39  1  1
  9 40  1  0
  9 41  1  0
  9 42  1  0
 10 43  1  0
 10 44  1  0
 11 45  1  6
 13 46  1  6
 14 47  1  0
 14 48  1  0
 15 49  1  1
 17 50  1  0
 20 51  1  0
 21 52  1  0
 23 53  1  0
 23 54  1  0
 23 55  1  0
 26 56  1  0
 26 57  1  0
 26 58  1  0
 27 59  1  0
 27 60  1  0
 27 61  1  0
 30 62  1  0
 30 63  1  0
 32 64  1  0
 32 65  1  0
 32 66  1  0
 35 67  1  0
M  END
>  <score>  (8) 
-6.793

$$$$
=
     RDKit          3D

 67 71  0  0  0  0  0  0  0  0999 V2000
   -1.2400   62.3300   75.8080 C   0  0  2  0  0  0  0  0  0  0  0  0
   -0.6790   62.5960   74.5200 O   0  0  0  0  0  0  0  0  0  0  0  0
    0.3980   63.5180   74.7090 C   0  0  0  0  0  0  0  0  0  0  0  0
    0.7880   63.5450   76.0780 O   0  0  0  0  0  0  0  0  0  0  0  0
   -0.1310   62.7270   76.7990 C   0  0  2  0  0  0  0  0  0  0  0  0
    0.5690   61.4270   77.2470 C   0  0  0  0  0  0  0  0  0  0  0  0
    0.0530   60.3790   76.2640 C   0  0  2  0  0  0  0  0  0  0  0  0
   -1.4210   60.7930   76.0370 C   0  0  1  0  0  0  0  0  0  0  0  0
   -2.3200   60.5490   77.2790 C   0  0  0  0  0  0  0  0  0  0  0  0
   -1.9330   59.9800   74.8280 C   0  0  0  0  0  0  0  0  0  0  0  0
   -1.7530   58.4510   74.9920 C   0  0  1  0  0  0  0  0  0  0  0  0
   -0.3050   58.0380   75.4030 C   0  0  1  0  0  0  0  0  0  0  0  0
    0.2310   58.8920   76.6000 C   0  0  1  0  0  0  0  0  0  0  0  0
    1.7100   58.5740   76.8810 C   0  0  0  0  0  0  0  0  0  0  0  0
    1.9510   57.0870   77.1060 C   0  0  1  0  0  0  0  0  0  0  0  0
    1.4200   56.2790   75.9520 C   0  0  0  0  0  0  0  0  0  0  0  0
    2.2330   55.4750   75.2400 C   0  0  0  0  0  0  0  0  0  0  0  0
    1.7520   54.7170   74.0690 C   0  0  0  0  0  0  0  0  0  0  0  0
    2.4930   53.9720   73.4400 O   0  0  0  0  0  0  0  0  0  0  0  0
    0.3380   54.8920   73.6860 C   0  0  0  0  0  0  0  0  0  0  0  0
   -0.4750   55.6890   74.3910 C   0  0  0  0  0  0  0  0  0  0  0  0
   -0.0710   56.4860   75.6310 C   0  0  2  0  0  0  0  0  0  0  0  0
   -0.8920   55.8950   76.8000 C   0  0  0  0  0  0  0  0  0  0  0  0
    3.2930   56.9070   77.2670 F   0  0  0  0  0  0  0  0  0  0  0  0
    0.4820   58.3880   74.3160 F   0  0  0  0  0  0  0  0  0  0  0  0
    1.5810   63.0740   73.8590 C   0  0  0  0  0  0  0  0  0  0  0  0
   -0.0540   64.9190   74.3030 C   0  0  0  0  0  0  0  0  0  0  0  0
   -2.5270   63.1540   76.0050 C   0  0  0  0  0  0  0  0  0  0  0  0
   -3.5640   62.8910   75.3890 O   0  0  0  0  0  0  0  0  0  0  0  0
   -2.4360   64.3410   76.9580 C   0  0  0  0  0  0  0  0  0  0  0  0
   -2.5770   65.5700   76.2420 O   0  0  0  0  0  0  0  0  0  0  0  0
   -4.8220   66.1770   75.9530 C   0  0  0  0  0  0  0  0  0  0  0  0
   -3.5540   66.3800   76.7240 C   0  0  0  0  0  0  0  0  0  0  0  0
   -3.4230   67.1650   77.6510 O   0  0  0  0  0  0  0  0  0  0  0  0
   -2.7320   57.9610   75.9000 O   0  0  0  0  0  0  0  0  0  0  0  0
   -0.5171   63.2655   77.6771 H   0  0  0  0  0  0  0  0  0  0  0  0
    1.6622   61.5261   77.1763 H   0  0  0  0  0  0  0  0  0  0  0  0
    0.3568   61.1686   78.2950 H   0  0  0  0  0  0  0  0  0  0  0  0
    0.6813   60.3978   75.3613 H   0  0  0  0  0  0  0  0  0  0  0  0
   -1.7316   60.7087   78.1946 H   0  0  0  0  0  0  0  0  0  0  0  0
   -3.1679   61.2495   77.2612 H   0  0  0  0  0  0  0  0  0  0  0  0
   -2.6974   59.5159   77.2612 H   0  0  0  0  0  0  0  0  0  0  0  0
   -3.0040   60.1922   74.6939 H   0  0  0  0  0  0  0  0  0  0  0  0
   -1.3353   60.2848   73.9563 H   0  0  0  0  0  0  0  0  0  0  0  0
   -1.9052   57.9831   74.0082 H   0  0  0  0  0  0  0  0  0  0  0  0
   -0.3390   58.6466   77.5082 H   0  0  0  0  0  0  0  0  0  0  0  0
    2.3118   58.9034   76.0211 H   0  0  0  0  0  0  0  0  0  0  0  0
    1.9983   59.1037   77.8009 H   0  0  0  0  0  0  0  0  0  0  0  0
    1.4176   56.7403   78.0034 H   0  0  0  0  0  0  0  0  0  0  0  0
    3.2870   55.3807   75.5405 H   0  0  0  0  0  0  0  0  0  0  0  0
   -0.0547   54.3593   72.8073 H   0  0  0  0  0  0  0  0  0  0  0  0
   -1.5172   55.7772   74.0504 H   0  0  0  0  0  0  0  0  0  0  0  0
   -0.4503   56.2130   77.7559 H   0  0  0  0  0  0  0  0  0  0  0  0
   -1.9297   56.2547   76.7380 H   0  0  0  0  0  0  0  0  0  0  0  0
   -0.8802   54.7968   76.7380 H   0  0  0  0  0  0  0  0  0  0  0  0
    2.4078   62.7637   74.5149 H   0  0  0  0  0  0  0  0  0  0  0  0
    1.2793   62.2279   73.2241 H   0  0  0  0  0  0  0  0  0  0  0  0
    1.9105   63.9097   73.2241 H   0  0  0  0  0  0  0  0  0  0  0  0
   -0.2472   65.5178   75.2053 H   0  0  0  0  0  0  0  0  0  0  0  0
    0.7346   65.4000   73.7056 H   0  0  0  0  0  0  0  0  0  0  0  0
   -0.9750   64.8484   73.7056 H   0  0  0  0  0  0  0  0  0  0  0  0
   -3.2370   64.2652   77.7081 H   0  0  0  0  0  0  0  0  0  0  0  0
   -1.4525   64.3271   77.4505 H   0  0  0  0  0  0  0  0  0  0  0  0
   -5.6595   66.0429   76.6534 H   0  0  0  0  0  0  0  0  0  0  0  0
   -5.0108   67.0564   75.3197 H   0  0  0  0  0  0  0  0  0  0  0  0
   -4.7269   65.2826   75.3197 H   0  0  0  0  0  0  0  0  0  0  0  0
   -2.4263   58.1140   76.8291 H   0  0  0  0  0  0  0  0  0  0  0  0
  2  1  1  0
  3  2  1  0
  4  3  1  0
  5  4  1  0
  5  1  1  0
  6  5  1  0
  7  6  1  0
  8  7  1  0
  8  1  1  0
  8  9  1  1
 10  8  1  0
 11 10  1  0
 12 11  1  0
 13 12  1  0
 13  7  1  0
 14 13  1  0
 15 14  1  0
 16 15  1  0
 17 16  2  0
 18 17  1  0
 19 18  2  0
 20 18  1  0
 21 20  2  0
 22 21  1  0
 22 16  1  0
 22 12  1  0
 22 23  1  1
 24 15  1  0
 12 25  1  6
 26  3  1  0
 27  3  1  0
  1 28  1  1
 29 28  2  0
 30 28  1  0
 31 30  1  0
 33 32  1  0
 33 31  1  0
 34 33  2  0
 35 11  1  0
  5 36  1  1
  6 37  1  0
  6 38  1  0
  7 39  1  6
  9 40  1  0
  9 41  1  0
  9 42  1  0
 10 43  1  0
 10 44  1  0
 11 45  1  6
 13 46  1  1
 14 47  1  0
 14 48  1  0
 15 49  1  1
 17 50  1  0
 20 51  1  0
 21 52  1  0
 23 53  1  0
 23 54  1  0
 23 55  1  0
 26 56  1  0
 26 57  1  0
 26 58  1  0
 27 59  1  0
 27 60  1  0
 27 61  1  0
 30 62  1  0
 30 63  1  0
 32 64  1  0
 32 65  1  0
 32 66  1  0
 35 67  1  0
M  END
>  <score>  (9) 
-6.562

$$$$
