=
     RDKit          3D

 22 23  0  0  0  0  0  0  0  0999 V2000
    4.9470   70.1820   67.5780 C   0  0  0  0  0  0  0  0  0  0  0  0
    3.6150   69.7770   67.5780 C   0  0  0  0  0  0  0  0  0  0  0  0
    3.0510   69.2280   66.4250 C   0  0  0  0  0  0  0  0  0  0  0  0
    3.8170   69.0790   65.2580 C   0  0  0  0  0  0  0  0  0  0  0  0
    5.1580   69.4920   65.2720 C   0  0  0  0  0  0  0  0  0  0  0  0
    5.7180   70.0400   66.4270 C   0  0  0  0  0  0  0  0  0  0  0  0
    3.2110   68.4880   64.0100 C   0  0  0  0  0  0  0  0  0  0  0  0
    3.6110   67.1060   63.8150 N   0  0  0  0  0  0  0  0  0  0  0  0
    4.5310   66.6580   62.9110 C   0  0  0  0  0  0  0  0  0  0  0  0
    4.7190   65.3620   63.0170 N   0  0  0  0  0  0  0  0  0  0  0  0
    3.8830   64.9580   64.0260 C   0  0  0  0  0  0  0  0  0  0  0  0
    3.1880   66.0270   64.5430 C   0  0  0  0  0  0  0  0  0  0  0  0
    5.3904   70.6142   68.4872 H   0  0  0  0  0  0  0  0  0  0  0  0
    3.0064   69.8897   68.4873 H   0  0  0  0  0  0  0  0  0  0  0  0
    1.9981   68.9097   66.4309 H   0  0  0  0  0  0  0  0  0  0  0  0
    5.7723   69.3831   64.3661 H   0  0  0  0  0  0  0  0  0  0  0  0
    6.7703   70.3603   66.4282 H   0  0  0  0  0  0  0  0  0  0  0  0
    2.1149   68.5327   64.0916 H   0  0  0  0  0  0  0  0  0  0  0  0
    3.5691   69.0709   63.1486 H   0  0  0  0  0  0  0  0  0  0  0  0
    5.0497   67.3014   62.1851 H   0  0  0  0  0  0  0  0  0  0  0  0
    3.7817   63.9197   64.3749 H   0  0  0  0  0  0  0  0  0  0  0  0
    2.4535   66.0167   65.3618 H   0  0  0  0  0  0  0  0  0  0  0  0
  2  1  2  0
  3  2  1  0
  4  3  2  0
  5  4  1  0
  6  5  2  0
  6  1  1  0
  7  4  1  0
  8  7  1  0
  9  8  1  0
 10  9  2  0
 11 10  1  0
 12 11  2  0
 12  8  1  0
  1 13  1  0
  2 14  1  0
  3 15  1  0
  5 16  1  0
  6 17  1  0
  7 18  1  0
  7 19  1  0
  9 20  1  0
 11 21  1  0
 12 22  1  0
M  END
>  <score>  (1) 
-7.367

$$$$
=
     RDKit          3D

 22 23  0  0  0  0  0  0  0  0999 V2000
    5.2870   69.8970   66.9070 C   0  0  0  0  0  0  0  0  0  0  0  0
    5.4540   69.5750   65.5620 C   0  0  0  0  0  0  0  0  0  0  0  0
    4.3540   69.1930   64.7920 C   0  0  0  0  0  0  0  0  0  0  0  0
    3.0730   69.1300   65.3620 C   0  0  0  0  0  0  0  0  0  0  0  0
    2.9180   69.4570   66.7170 C   0  0  0  0  0  0  0  0  0  0  0  0
    4.0200   69.8380   67.4840 C   0  0  0  0  0  0  0  0  0  0  0  0
    1.8820   68.7170   64.5340 C   0  0  0  0  0  0  0  0  0  0  0  0
    0.7850   68.2420   65.3580 N   0  0  0  0  0  0  0  0  0  0  0  0
    0.7900   67.1110   66.1240 C   0  0  0  0  0  0  0  0  0  0  0  0
   -0.3280   66.9840   66.8020 N   0  0  0  0  0  0  0  0  0  0  0  0
   -1.0860   68.0730   66.4550 C   0  0  0  0  0  0  0  0  0  0  0  0
   -0.4100   68.8750   65.5640 C   0  0  0  0  0  0  0  0  0  0  0  0
    6.1545   70.1975   67.5130 H   0  0  0  0  0  0  0  0  0  0  0  0
    6.4540   69.6218   65.1061 H   0  0  0  0  0  0  0  0  0  0  0  0
    4.4923   68.9395   63.7306 H   0  0  0  0  0  0  0  0  0  0  0  0
    1.9205   69.4129   67.1786 H   0  0  0  0  0  0  0  0  0  0  0  0
    3.8881   70.0922   68.5461 H   0  0  0  0  0  0  0  0  0  0  0  0
    1.5381   69.5833   63.9498 H   0  0  0  0  0  0  0  0  0  0  0  0
    2.1948   67.8925   63.8765 H   0  0  0  0  0  0  0  0  0  0  0  0
    1.6252   66.3964   66.1676 H   0  0  0  0  0  0  0  0  0  0  0  0
   -2.0970   68.2777   66.8370 H   0  0  0  0  0  0  0  0  0  0  0  0
   -0.7551   69.8184   65.1157 H   0  0  0  0  0  0  0  0  0  0  0  0
  2  1  2  0
  3  2  1  0
  4  3  2  0
  5  4  1  0
  6  5  2  0
  6  1  1  0
  7  4  1  0
  8  7  1  0
  9  8  1  0
 10  9  2  0
 11 10  1  0
 12 11  2  0
 12  8  1  0
  1 13  1  0
  2 14  1  0
  3 15  1  0
  5 16  1  0
  6 17  1  0
  7 18  1  0
  7 19  1  0
  9 20  1  0
 11 21  1  0
 12 22  1  0
M  END
>  <score>  (2) 
-6.542

$$$$
=
     RDKit          3D

 22 23  0  0  0  0  0  0  0  0999 V2000
    4.0700   70.2000   67.8930 C   0  0  0  0  0  0  0  0  0  0  0  0
    2.9170   69.7890   68.5570 C   0  0  0  0  0  0  0  0  0  0  0  0
    2.0190   68.9230   67.9310 C   0  0  0  0  0  0  0  0  0  0  0  0
    2.2680   68.4580   66.6300 C   0  0  0  0  0  0  0  0  0  0  0  0
    3.4330   68.8790   65.9720 C   0  0  0  0  0  0  0  0  0  0  0  0
    4.3280   69.7450   66.6020 C   0  0  0  0  0  0  0  0  0  0  0  0
    1.3010   67.5230   65.9490 C   0  0  0  0  0  0  0  0  0  0  0  0
   -0.0810   67.8670   66.2360 N   0  0  0  0  0  0  0  0  0  0  0  0
   -0.8090   68.8410   65.6130 C   0  0  0  0  0  0  0  0  0  0  0  0
   -2.0470   68.8700   66.0530 N   0  0  0  0  0  0  0  0  0  0  0  0
   -2.1180   67.8800   66.9990 C   0  0  0  0  0  0  0  0  0  0  0  0
   -0.9080   67.2370   67.1250 C   0  0  0  0  0  0  0  0  0  0  0  0
    4.7762   70.8832   68.3874 H   0  0  0  0  0  0  0  0  0  0  0  0
    2.7135   70.1475   69.5768 H   0  0  0  0  0  0  0  0  0  0  0  0
    1.1098   68.6026   68.4608 H   0  0  0  0  0  0  0  0  0  0  0  0
    3.6427   68.5241   64.9522 H   0  0  0  0  0  0  0  0  0  0  0  0
    5.2392   70.0690   66.0778 H   0  0  0  0  0  0  0  0  0  0  0  0
    1.4618   67.5754   64.8621 H   0  0  0  0  0  0  0  0  0  0  0  0
    1.4848   66.5074   66.3295 H   0  0  0  0  0  0  0  0  0  0  0  0
   -0.4096   69.5153   64.8411 H   0  0  0  0  0  0  0  0  0  0  0  0
   -3.0198   67.6333   67.5785 H   0  0  0  0  0  0  0  0  0  0  0  0
   -0.6601   66.3998   67.7940 H   0  0  0  0  0  0  0  0  0  0  0  0
  2  1  2  0
  3  2  1  0
  4  3  2  0
  5  4  1  0
  6  5  2  0
  6  1  1  0
  7  4  1  0
  8  7  1  0
  9  8  1  0
 10  9  2  0
 11 10  1  0
 12 11  2  0
 12  8  1  0
  1 13  1  0
  2 14  1  0
  3 15  1  0
  5 16  1  0
  6 17  1  0
  7 18  1  0
  7 19  1  0
  9 20  1  0
 11 21  1  0
 12 22  1  0
M  END
>  <score>  (3) 
-6.432

$$$$
=
     RDKit          3D

 22 23  0  0  0  0  0  0  0  0999 V2000
    5.5860   69.5430   65.7630 C   0  0  0  0  0  0  0  0  0  0  0  0
    5.6570   68.7610   64.6130 C   0  0  0  0  0  0  0  0  0  0  0  0
    4.5030   68.1720   64.0950 C   0  0  0  0  0  0  0  0  0  0  0  0
    3.2630   68.3590   64.7250 C   0  0  0  0  0  0  0  0  0  0  0  0
    3.2050   69.1480   65.8830 C   0  0  0  0  0  0  0  0  0  0  0  0
    4.3610   69.7360   66.3980 C   0  0  0  0  0  0  0  0  0  0  0  0
    2.0140   67.7230   64.1700 C   0  0  0  0  0  0  0  0  0  0  0  0
    1.4030   68.5380   63.1350 N   0  0  0  0  0  0  0  0  0  0  0  0
    1.9430   68.8190   61.9130 C   0  0  0  0  0  0  0  0  0  0  0  0
    1.1220   69.5320   61.1760 N   0  0  0  0  0  0  0  0  0  0  0  0
    0.0110   69.7230   61.9560 C   0  0  0  0  0  0  0  0  0  0  0  0
    0.1590   69.1070   63.1780 C   0  0  0  0  0  0  0  0  0  0  0  0
    6.4962   70.0079   66.1697 H   0  0  0  0  0  0  0  0  0  0  0  0
    6.6243   68.6074   64.1122 H   0  0  0  0  0  0  0  0  0  0  0  0
    4.5657   67.5562   63.1857 H   0  0  0  0  0  0  0  0  0  0  0  0
    2.2410   69.3045   66.3891 H   0  0  0  0  0  0  0  0  0  0  0  0
    4.3050   70.3530   67.3069 H   0  0  0  0  0  0  0  0  0  0  0  0
    2.2739   66.7430   63.7433 H   0  0  0  0  0  0  0  0  0  0  0  0
    1.2909   67.6195   64.9924 H   0  0  0  0  0  0  0  0  0  0  0  0
    2.9405   68.4897   61.5865 H   0  0  0  0  0  0  0  0  0  0  0  0
   -0.8785   70.2917   61.6471 H   0  0  0  0  0  0  0  0  0  0  0  0
   -0.5636   69.0783   64.0068 H   0  0  0  0  0  0  0  0  0  0  0  0
  2  1  2  0
  3  2  1  0
  4  3  2  0
  5  4  1  0
  6  5  2  0
  6  1  1  0
  7  4  1  0
  8  7  1  0
  9  8  1  0
 10  9  2  0
 11 10  1  0
 12 11  2  0
 12  8  1  0
  1 13  1  0
  2 14  1  0
  3 15  1  0
  5 16  1  0
  6 17  1  0
  7 18  1  0
  7 19  1  0
  9 20  1  0
 11 21  1  0
 12 22  1  0
M  END
>  <score>  (4) 
-6.357

$$$$
=
     RDKit          3D

 22 23  0  0  0  0  0  0  0  0999 V2000
    5.3150   70.7020   68.4420 C   0  0  0  0  0  0  0  0  0  0  0  0
    4.0770   70.5860   69.0690 C   0  0  0  0  0  0  0  0  0  0  0  0
    3.0070   69.9880   68.4010 C   0  0  0  0  0  0  0  0  0  0  0  0
    3.1670   69.4980   67.0950 C   0  0  0  0  0  0  0  0  0  0  0  0
    4.4180   69.6200   66.4750 C   0  0  0  0  0  0  0  0  0  0  0  0
    5.4860   70.2190   67.1460 C   0  0  0  0  0  0  0  0  0  0  0  0
    2.0130   68.8530   66.3700 C   0  0  0  0  0  0  0  0  0  0  0  0
    2.4370   68.2100   65.1380 N   0  0  0  0  0  0  0  0  0  0  0  0
    2.4580   68.7870   63.9000 C   0  0  0  0  0  0  0  0  0  0  0  0
    2.9510   67.9690   62.9970 N   0  0  0  0  0  0  0  0  0  0  0  0
    3.2530   66.8180   63.6790 C   0  0  0  0  0  0  0  0  0  0  0  0
    2.9490   66.9470   65.0150 C   0  0  0  0  0  0  0  0  0  0  0  0
    6.1570   71.1744   68.9691 H   0  0  0  0  0  0  0  0  0  0  0  0
    3.9420   70.9662   70.0923 H   0  0  0  0  0  0  0  0  0  0  0  0
    2.0314   69.9000   68.9015 H   0  0  0  0  0  0  0  0  0  0  0  0
    4.5596   69.2410   65.4521 H   0  0  0  0  0  0  0  0  0  0  0  0
    6.4640   70.3098   66.6508 H   0  0  0  0  0  0  0  0  0  0  0  0
    1.5583   68.0971   67.0272 H   0  0  0  0  0  0  0  0  0  0  0  0
    1.2903   69.6409   66.1115 H   0  0  0  0  0  0  0  0  0  0  0  0
    2.1067   69.8072   63.6859 H   0  0  0  0  0  0  0  0  0  0  0  0
    3.6803   65.9142   63.2202 H   0  0  0  0  0  0  0  0  0  0  0  0
    3.0873   66.1990   65.8096 H   0  0  0  0  0  0  0  0  0  0  0  0
  2  1  2  0
  3  2  1  0
  4  3  2  0
  5  4  1  0
  6  5  2  0
  6  1  1  0
  7  4  1  0
  8  7  1  0
  9  8  1  0
 10  9  2  0
 11 10  1  0
 12 11  2  0
 12  8  1  0
  1 13  1  0
  2 14  1  0
  3 15  1  0
  5 16  1  0
  6 17  1  0
  7 18  1  0
  7 19  1  0
  9 20  1  0
 11 21  1  0
 12 22  1  0
M  END
>  <score>  (5) 
-6.329

$$$$
=
     RDKit          3D

 22 23  0  0  0  0  0  0  0  0999 V2000
    2.2610   69.4750   67.8340 C   0  0  0  0  0  0  0  0  0  0  0  0
    3.5720   69.8890   68.0550 C   0  0  0  0  0  0  0  0  0  0  0  0
    4.4920   69.8940   67.0050 C   0  0  0  0  0  0  0  0  0  0  0  0
    4.1060   69.4840   65.7190 C   0  0  0  0  0  0  0  0  0  0  0  0
    2.7830   69.0700   65.5090 C   0  0  0  0  0  0  0  0  0  0  0  0
    1.8670   69.0660   66.5620 C   0  0  0  0  0  0  0  0  0  0  0  0
    5.0970   69.4870   64.5820 C   0  0  0  0  0  0  0  0  0  0  0  0
    4.8100   68.4480   63.6090 N   0  0  0  0  0  0  0  0  0  0  0  0
    4.9110   67.1030   63.8200 C   0  0  0  0  0  0  0  0  0  0  0  0
    4.5240   66.4200   62.7660 N   0  0  0  0  0  0  0  0  0  0  0  0
    4.1650   67.3620   61.8380 C   0  0  0  0  0  0  0  0  0  0  0  0
    4.3270   68.6320   62.3420 C   0  0  0  0  0  0  0  0  0  0  0  0
    1.5376   69.4709   68.6626 H   0  0  0  0  0  0  0  0  0  0  0  0
    3.8834   70.2128   69.0591 H   0  0  0  0  0  0  0  0  0  0  0  0
    5.5263   70.2214   67.1865 H   0  0  0  0  0  0  0  0  0  0  0  0
    2.4647   68.7460   64.5071 H   0  0  0  0  0  0  0  0  0  0  0  0
    0.8314   68.7391   66.3871 H   0  0  0  0  0  0  0  0  0  0  0  0
    5.0584   70.4648   64.0796 H   0  0  0  0  0  0  0  0  0  0  0  0
    6.0958   69.2946   65.0007 H   0  0  0  0  0  0  0  0  0  0  0  0
    5.2710   66.6482   64.7546 H   0  0  0  0  0  0  0  0  0  0  0  0
    3.7970   67.1338   60.8268 H   0  0  0  0  0  0  0  0  0  0  0  0
    4.1148   69.5860   61.8372 H   0  0  0  0  0  0  0  0  0  0  0  0
  2  1  2  0
  3  2  1  0
  4  3  2  0
  5  4  1  0
  6  5  2  0
  6  1  1  0
  7  4  1  0
  8  7  1  0
  9  8  1  0
 10  9  2  0
 11 10  1  0
 12 11  2  0
 12  8  1  0
  1 13  1  0
  2 14  1  0
  3 15  1  0
  5 16  1  0
  6 17  1  0
  7 18  1  0
  7 19  1  0
  9 20  1  0
 11 21  1  0
 12 22  1  0
M  END
>  <score>  (6) 
-6.297

$$$$
=
     RDKit          3D

 22 23  0  0  0  0  0  0  0  0999 V2000
   -0.0330   69.3670   62.4200 C   0  0  0  0  0  0  0  0  0  0  0  0
    1.0930   69.1640   61.6270 C   0  0  0  0  0  0  0  0  0  0  0  0
    2.2670   68.6630   62.1930 C   0  0  0  0  0  0  0  0  0  0  0  0
    2.3250   68.3610   63.5620 C   0  0  0  0  0  0  0  0  0  0  0  0
    1.1830   68.5700   64.3500 C   0  0  0  0  0  0  0  0  0  0  0  0
    0.0110   69.0700   63.7800 C   0  0  0  0  0  0  0  0  0  0  0  0
    3.5910   67.8220   64.1780 C   0  0  0  0  0  0  0  0  0  0  0  0
    3.6690   66.3750   64.0810 N   0  0  0  0  0  0  0  0  0  0  0  0
    4.3890   65.6720   63.1570 C   0  0  0  0  0  0  0  0  0  0  0  0
    4.3060   64.3780   63.3670 N   0  0  0  0  0  0  0  0  0  0  0  0
    3.4980   64.2410   64.4660 C   0  0  0  0  0  0  0  0  0  0  0  0
    3.0950   65.4710   64.9320 C   0  0  0  0  0  0  0  0  0  0  0  0
   -0.9571   69.7618   61.9727 H   0  0  0  0  0  0  0  0  0  0  0  0
    1.0578   69.3986   60.5529 H   0  0  0  0  0  0  0  0  0  0  0  0
    3.1531   68.5039   61.5609 H   0  0  0  0  0  0  0  0  0  0  0  0
    1.2115   68.3381   65.4249 H   0  0  0  0  0  0  0  0  0  0  0  0
   -0.8793   69.2297   64.4060 H   0  0  0  0  0  0  0  0  0  0  0  0
    4.4545   68.2601   63.6562 H   0  0  0  0  0  0  0  0  0  0  0  0
    3.5921   68.0920   65.2444 H   0  0  0  0  0  0  0  0  0  0  0  0
    4.9653   66.1315   62.3405 H   0  0  0  0  0  0  0  0  0  0  0  0
    3.2109   63.2784   64.9143 H   0  0  0  0  0  0  0  0  0  0  0  0
    2.4519   65.6815   65.7992 H   0  0  0  0  0  0  0  0  0  0  0  0
  2  1  2  0
  3  2  1  0
  4  3  2  0
  5  4  1  0
  6  5  2  0
  6  1  1  0
  7  4  1  0
  8  7  1  0
  9  8  1  0
 10  9  2  0
 11 10  1  0
 12 11  2  0
 12  8  1  0
  1 13  1  0
  2 14  1  0
  3 15  1  0
  5 16  1  0
  6 17  1  0
  7 18  1  0
  7 19  1  0
  9 20  1  0
 11 21  1  0
 12 22  1  0
M  END
>  <score>  (7) 
-6.148

$$$$
=
     RDKit          3D

 22 23  0  0  0  0  0  0  0  0999 V2000
    4.6980   70.5110   67.8720 C   0  0  0  0  0  0  0  0  0  0  0  0
    3.4360   69.9430   68.0340 C   0  0  0  0  0  0  0  0  0  0  0  0
    2.9080   69.1170   67.0410 C   0  0  0  0  0  0  0  0  0  0  0  0
    3.6390   68.8500   65.8730 C   0  0  0  0  0  0  0  0  0  0  0  0
    4.9090   69.4280   65.7220 C   0  0  0  0  0  0  0  0  0  0  0  0
    5.4330   70.2530   66.7180 C   0  0  0  0  0  0  0  0  0  0  0  0
    3.0720   67.9590   64.7970 C   0  0  0  0  0  0  0  0  0  0  0  0
    1.7030   68.3130   64.4640 N   0  0  0  0  0  0  0  0  0  0  0  0
    0.6180   68.1700   65.2810 C   0  0  0  0  0  0  0  0  0  0  0  0
   -0.4730   68.6370   64.7170 N   0  0  0  0  0  0  0  0  0  0  0  0
   -0.0760   69.0940   63.4860 C   0  0  0  0  0  0  0  0  0  0  0  0
    1.2760   68.9100   63.3090 C   0  0  0  0  0  0  0  0  0  0  0  0
    5.1132   71.1626   68.6550 H   0  0  0  0  0  0  0  0  0  0  0  0
    2.8552   70.1460   68.9458 H   0  0  0  0  0  0  0  0  0  0  0  0
    1.9111   68.6717   67.1747 H   0  0  0  0  0  0  0  0  0  0  0  0
    5.4951   69.2294   64.8126 H   0  0  0  0  0  0  0  0  0  0  0  0
    6.4297   70.7008   66.5910 H   0  0  0  0  0  0  0  0  0  0  0  0
    3.6930   68.0531   63.8940 H   0  0  0  0  0  0  0  0  0  0  0  0
    3.0739   66.9259   65.1748 H   0  0  0  0  0  0  0  0  0  0  0  0
    0.6530   67.7206   66.2844 H   0  0  0  0  0  0  0  0  0  0  0  0
   -0.7475   69.5463   62.7413 H   0  0  0  0  0  0  0  0  0  0  0  0
    1.8809   69.1829   62.4317 H   0  0  0  0  0  0  0  0  0  0  0  0
  2  1  2  0
  3  2  1  0
  4  3  2  0
  5  4  1  0
  6  5  2  0
  6  1  1  0
  7  4  1  0
  8  7  1  0
  9  8  1  0
 10  9  2  0
 11 10  1  0
 12 11  2  0
 12  8  1  0
  1 13  1  0
  2 14  1  0
  3 15  1  0
  5 16  1  0
  6 17  1  0
  7 18  1  0
  7 19  1  0
  9 20  1  0
 11 21  1  0
 12 22  1  0
M  END
>  <score>  (8) 
-6.078

$$$$
=
     RDKit          3D

 22 23  0  0  0  0  0  0  0  0999 V2000
    0.5360   69.4550   61.8040 C   0  0  0  0  0  0  0  0  0  0  0  0
    0.0640   69.2600   63.0990 C   0  0  0  0  0  0  0  0  0  0  0  0
    0.8940   68.6980   64.0700 C   0  0  0  0  0  0  0  0  0  0  0  0
    2.2100   68.3250   63.7530 C   0  0  0  0  0  0  0  0  0  0  0  0
    2.6740   68.5270   62.4450 C   0  0  0  0  0  0  0  0  0  0  0  0
    1.8400   69.0890   61.4770 C   0  0  0  0  0  0  0  0  0  0  0  0
    3.1100   67.7170   64.7980 C   0  0  0  0  0  0  0  0  0  0  0  0
    3.9410   68.7160   65.4470 N   0  0  0  0  0  0  0  0  0  0  0  0
    3.6130   69.4280   66.5650 C   0  0  0  0  0  0  0  0  0  0  0  0
    4.5980   70.2100   66.9440 N   0  0  0  0  0  0  0  0  0  0  0  0
    5.5990   69.9980   66.0310 C   0  0  0  0  0  0  0  0  0  0  0  0
    5.2160   69.0660   65.0940 C   0  0  0  0  0  0  0  0  0  0  0  0
   -0.1198   69.8975   61.0397 H   0  0  0  0  0  0  0  0  0  0  0  0
   -0.9653   69.5495   63.3575 H   0  0  0  0  0  0  0  0  0  0  0  0
    0.5144   68.5461   65.0912 H   0  0  0  0  0  0  0  0  0  0  0  0
    3.7025   68.2405   62.1801 H   0  0  0  0  0  0  0  0  0  0  0  0
    2.2131   69.2433   60.4538 H   0  0  0  0  0  0  0  0  0  0  0  0
    2.4879   67.2234   65.5591 H   0  0  0  0  0  0  0  0  0  0  0  0
    3.7731   66.9957   64.2979 H   0  0  0  0  0  0  0  0  0  0  0  0
    2.6454   69.3558   67.0832 H   0  0  0  0  0  0  0  0  0  0  0  0
    6.5755   70.5042   66.0457 H   0  0  0  0  0  0  0  0  0  0  0  0
    5.8055   68.6856   64.2468 H   0  0  0  0  0  0  0  0  0  0  0  0
  2  1  2  0
  3  2  1  0
  4  3  2  0
  5  4  1  0
  6  5  2  0
  6  1  1  0
  7  4  1  0
  8  7  1  0
  9  8  1  0
 10  9  2  0
 11 10  1  0
 12 11  2  0
 12  8  1  0
  1 13  1  0
  2 14  1  0
  3 15  1  0
  5 16  1  0
  6 17  1  0
  7 18  1  0
  7 19  1  0
  9 20  1  0
 11 21  1  0
 12 22  1  0
M  END
>  <score>  (9) 
-5.931

$$$$
