=
     RDKit          3D

 20 21  0  0  0  0  0  0  0  0999 V2000
    2.6930   69.0760   63.1350 O   0  0  0  0  0  0  0  0  0  0  0  0
    3.5860   68.4450   63.6940 C   0  0  0  0  0  0  0  0  0  0  0  0
    3.6230   67.0110   63.9240 C   0  0  0  0  0  0  0  0  0  0  0  0
    2.3680   66.2860   64.8490 S   0  0  0  0  0  0  0  0  0  0  0  0
    3.0450   64.7240   64.6810 C   0  0  0  0  0  0  0  0  0  0  0  0
    4.1980   64.7620   63.9420 C   0  0  0  0  0  0  0  0  0  0  0  0
    4.5440   66.0650   63.5020 C   0  0  0  0  0  0  0  0  0  0  0  0
    5.2550   63.2570   63.5270 Br  0  0  0  0  0  0  0  0  0  0  0  0
    4.7930   69.2150   64.1990 C   0  0  0  0  0  0  0  0  0  0  0  0
    5.6680   69.5070   63.3880 O   0  0  0  0  0  0  0  0  0  0  0  0
    4.8240   69.5800   65.6050 C   0  0  0  0  0  0  0  0  0  0  0  0
    3.4420   69.4830   66.6160 S   0  0  0  0  0  0  0  0  0  0  0  0
    4.3020   70.0650   67.9750 C   0  0  0  0  0  0  0  0  0  0  0  0
    5.6080   70.3320   67.6560 C   0  0  0  0  0  0  0  0  0  0  0  0
    5.9200   70.0630   66.3020 C   0  0  0  0  0  0  0  0  0  0  0  0
    6.8940   70.9950   68.8640 Br  0  0  0  0  0  0  0  0  0  0  0  0
    2.6113   63.8088   65.1102 H   0  0  0  0  0  0  0  0  0  0  0  0
    5.4346   66.2967   62.8994 H   0  0  0  0  0  0  0  0  0  0  0  0
    3.8643   70.2065   68.9742 H   0  0  0  0  0  0  0  0  0  0  0  0
    6.9135   70.2187   65.8563 H   0  0  0  0  0  0  0  0  0  0  0  0
  2  1  2  0
  3  2  1  0
  4  3  1  0
  5  4  1  0
  6  5  2  0
  7  6  1  0
  7  3  2  0
  8  6  1  0
  9  2  1  0
 10  9  2  0
 11  9  1  0
 12 11  1  0
 13 12  1  0
 14 13  2  0
 15 11  2  0
 15 14  1  0
 16 14  1  0
  5 17  1  0
  7 18  1  0
 13 19  1  0
 15 20  1  0
M  END
>  <score>  (1) 
-7.377

$$$$
=
     RDKit          3D

 20 21  0  0  0  0  0  0  0  0999 V2000
    0.3770   68.2800   66.5380 O   0  0  0  0  0  0  0  0  0  0  0  0
    1.4520   68.6300   66.0600 C   0  0  0  0  0  0  0  0  0  0  0  0
    2.5660   69.2300   66.7740 C   0  0  0  0  0  0  0  0  0  0  0  0
    2.3290   69.7490   68.3960 S   0  0  0  0  0  0  0  0  0  0  0  0
    3.9480   70.2820   68.5400 C   0  0  0  0  0  0  0  0  0  0  0  0
    4.6430   70.0710   67.3790 C   0  0  0  0  0  0  0  0  0  0  0  0
    3.8650   69.4710   66.3570 C   0  0  0  0  0  0  0  0  0  0  0  0
    6.4550   70.5200   67.1180 Br  0  0  0  0  0  0  0  0  0  0  0  0
    1.6730   68.4170   64.5730 C   0  0  0  0  0  0  0  0  0  0  0  0
    1.0550   69.1360   63.7920 O   0  0  0  0  0  0  0  0  0  0  0  0
    2.6220   67.3940   64.1690 C   0  0  0  0  0  0  0  0  0  0  0  0
    3.7760   67.6430   62.9260 S   0  0  0  0  0  0  0  0  0  0  0  0
    4.4070   66.0620   63.0900 C   0  0  0  0  0  0  0  0  0  0  0  0
    3.7430   65.3640   64.0660 C   0  0  0  0  0  0  0  0  0  0  0  0
    2.7170   66.1130   64.6890 C   0  0  0  0  0  0  0  0  0  0  0  0
    4.1220   63.5850   64.5590 Br  0  0  0  0  0  0  0  0  0  0  0  0
    4.3751   70.7351   69.4468 H   0  0  0  0  0  0  0  0  0  0  0  0
    4.2464   69.2265   65.3546 H   0  0  0  0  0  0  0  0  0  0  0  0
    5.2366   65.6580   62.4912 H   0  0  0  0  0  0  0  0  0  0  0  0
    2.0716   65.7247   65.4907 H   0  0  0  0  0  0  0  0  0  0  0  0
  2  1  2  0
  3  2  1  0
  4  3  1  0
  5  4  1  0
  6  5  2  0
  7  6  1  0
  7  3  2  0
  8  6  1  0
  9  2  1  0
 10  9  2  0
 11  9  1  0
 12 11  1  0
 13 12  1  0
 14 13  2  0
 15 11  2  0
 15 14  1  0
 16 14  1  0
  5 17  1  0
  7 18  1  0
 13 19  1  0
 15 20  1  0
M  END
>  <score>  (2) 
-7.354

$$$$
=
     RDKit          3D

 20 21  0  0  0  0  0  0  0  0999 V2000
    0.4860   68.8030   67.0810 O   0  0  0  0  0  0  0  0  0  0  0  0
    1.6480   68.6440   66.7190 C   0  0  0  0  0  0  0  0  0  0  0  0
    2.8190   69.3390   67.2280 C   0  0  0  0  0  0  0  0  0  0  0  0
    2.7110   70.1450   68.7430 S   0  0  0  0  0  0  0  0  0  0  0  0
    4.3400   70.6610   68.6680 C   0  0  0  0  0  0  0  0  0  0  0  0
    4.9420   70.2310   67.5140 C   0  0  0  0  0  0  0  0  0  0  0  0
    4.0830   69.4740   66.6780 C   0  0  0  0  0  0  0  0  0  0  0  0
    6.7320   70.5890   67.0420 Br  0  0  0  0  0  0  0  0  0  0  0  0
    1.9240   67.6150   65.6380 C   0  0  0  0  0  0  0  0  0  0  0  0
    2.1210   66.4540   65.9870 O   0  0  0  0  0  0  0  0  0  0  0  0
    1.9100   68.0640   64.2560 C   0  0  0  0  0  0  0  0  0  0  0  0
    3.2420   67.8410   63.1990 S   0  0  0  0  0  0  0  0  0  0  0  0
    2.4380   68.6130   61.9010 C   0  0  0  0  0  0  0  0  0  0  0  0
    1.1880   69.0350   62.2750 C   0  0  0  0  0  0  0  0  0  0  0  0
    0.8740   68.7300   63.6210 C   0  0  0  0  0  0  0  0  0  0  0  0
   -0.0230   69.9350   61.1460 Br  0  0  0  0  0  0  0  0  0  0  0  0
    4.8392   71.2596   69.4442 H   0  0  0  0  0  0  0  0  0  0  0  0
    4.3837   69.0460   65.7103 H   0  0  0  0  0  0  0  0  0  0  0  0
    2.8675   68.7525   60.8980 H   0  0  0  0  0  0  0  0  0  0  0  0
   -0.0787   68.9906   64.1052 H   0  0  0  0  0  0  0  0  0  0  0  0
  2  1  2  0
  3  2  1  0
  4  3  1  0
  5  4  1  0
  6  5  2  0
  7  6  1  0
  7  3  2  0
  8  6  1  0
  9  2  1  0
 10  9  2  0
 11  9  1  0
 12 11  1  0
 13 12  1  0
 14 13  2  0
 15 11  2  0
 15 14  1  0
 16 14  1  0
  5 17  1  0
  7 18  1  0
 13 19  1  0
 15 20  1  0
M  END
>  <score>  (3) 
-7.173

$$$$
=
     RDKit          3D

 20 21  0  0  0  0  0  0  0  0999 V2000
    1.7390   69.4300   63.6980 O   0  0  0  0  0  0  0  0  0  0  0  0
    2.1310   68.5530   64.4630 C   0  0  0  0  0  0  0  0  0  0  0  0
    2.8990   67.3720   64.1100 C   0  0  0  0  0  0  0  0  0  0  0  0
    3.9820   67.4550   62.7770 S   0  0  0  0  0  0  0  0  0  0  0  0
    4.4780   65.8310   62.9830 C   0  0  0  0  0  0  0  0  0  0  0  0
    3.8280   65.2460   64.0390 C   0  0  0  0  0  0  0  0  0  0  0  0
    2.9190   66.1150   64.6930 C   0  0  0  0  0  0  0  0  0  0  0  0
    4.0820   63.4640   64.5990 Br  0  0  0  0  0  0  0  0  0  0  0  0
    1.8020   68.6970   65.9380 C   0  0  0  0  0  0  0  0  0  0  0  0
    0.7170   68.2720   66.3300 O   0  0  0  0  0  0  0  0  0  0  0  0
    2.8040   69.3020   66.8000 C   0  0  0  0  0  0  0  0  0  0  0  0
    2.4520   69.8430   68.3890 S   0  0  0  0  0  0  0  0  0  0  0  0
    4.0550   70.3800   68.6430 C   0  0  0  0  0  0  0  0  0  0  0  0
    4.8320   70.1580   67.5360 C   0  0  0  0  0  0  0  0  0  0  0  0
    4.1280   69.5440   66.4720 C   0  0  0  0  0  0  0  0  0  0  0  0
    6.6570   70.6070   67.3970 Br  0  0  0  0  0  0  0  0  0  0  0  0
    5.2211   65.3226   62.3511 H   0  0  0  0  0  0  0  0  0  0  0  0
    2.3041   65.8266   65.5583 H   0  0  0  0  0  0  0  0  0  0  0  0
    4.4157   70.8432   69.5733 H   0  0  0  0  0  0  0  0  0  0  0  0
    4.5784   69.2896   65.5012 H   0  0  0  0  0  0  0  0  0  0  0  0
  2  1  2  0
  3  2  1  0
  4  3  1  0
  5  4  1  0
  6  5  2  0
  7  6  1  0
  7  3  2  0
  8  6  1  0
  9  2  1  0
 10  9  2  0
 11  9  1  0
 12 11  1  0
 13 12  1  0
 14 13  2  0
 15 11  2  0
 15 14  1  0
 16 14  1  0
  5 17  1  0
  7 18  1  0
 13 19  1  0
 15 20  1  0
M  END
>  <score>  (4) 
-7.122

$$$$
=
     RDKit          3D

 20 21  0  0  0  0  0  0  0  0999 V2000
    0.6270   69.3820   63.6350 O   0  0  0  0  0  0  0  0  0  0  0  0
    0.9800   68.6240   64.5340 C   0  0  0  0  0  0  0  0  0  0  0  0
    0.2090   68.2500   65.7080 C   0  0  0  0  0  0  0  0  0  0  0  0
   -1.4320   68.7510   65.8160 S   0  0  0  0  0  0  0  0  0  0  0  0
   -1.6430   67.9860   67.3320 C   0  0  0  0  0  0  0  0  0  0  0  0
   -0.4880   67.3700   67.7390 C   0  0  0  0  0  0  0  0  0  0  0  0
    0.5830   67.5140   66.8200 C   0  0  0  0  0  0  0  0  0  0  0  0
   -0.2930   66.4180   69.3540 Br  0  0  0  0  0  0  0  0  0  0  0  0
    2.3540   67.9890   64.4300 C   0  0  0  0  0  0  0  0  0  0  0  0
    2.4380   66.8820   63.9020 O   0  0  0  0  0  0  0  0  0  0  0  0
    3.4890   68.7410   64.9390 C   0  0  0  0  0  0  0  0  0  0  0  0
    4.8290   69.1690   63.9570 S   0  0  0  0  0  0  0  0  0  0  0  0
    5.6230   69.9530   65.2530 C   0  0  0  0  0  0  0  0  0  0  0  0
    4.8830   69.8800   66.4040 C   0  0  0  0  0  0  0  0  0  0  0  0
    3.6600   69.1860   66.2400 C   0  0  0  0  0  0  0  0  0  0  0  0
    5.4010   70.6110   68.0620 Br  0  0  0  0  0  0  0  0  0  0  0  0
   -2.5821   67.9882   67.9047 H   0  0  0  0  0  0  0  0  0  0  0  0
    1.5877   67.0926   66.9720 H   0  0  0  0  0  0  0  0  0  0  0  0
    6.6005   70.4511   65.1730 H   0  0  0  0  0  0  0  0  0  0  0  0
    2.9328   69.0200   67.0484 H   0  0  0  0  0  0  0  0  0  0  0  0
  2  1  2  0
  3  2  1  0
  4  3  1  0
  5  4  1  0
  6  5  2  0
  7  6  1  0
  7  3  2  0
  8  6  1  0
  9  2  1  0
 10  9  2  0
 11  9  1  0
 12 11  1  0
 13 12  1  0
 14 13  2  0
 15 11  2  0
 15 14  1  0
 16 14  1  0
  5 17  1  0
  7 18  1  0
 13 19  1  0
 15 20  1  0
M  END
>  <score>  (5) 
-6.888

$$$$
=
     RDKit          3D

 20 21  0  0  0  0  0  0  0  0999 V2000
   -0.0200   69.2410   64.7890 O   0  0  0  0  0  0  0  0  0  0  0  0
    0.4760   68.2980   65.4000 C   0  0  0  0  0  0  0  0  0  0  0  0
    0.0080   67.7330   66.6540 C   0  0  0  0  0  0  0  0  0  0  0  0
   -1.6840   67.5630   66.9070 S   0  0  0  0  0  0  0  0  0  0  0  0
   -1.4590   66.8780   68.4580 C   0  0  0  0  0  0  0  0  0  0  0  0
   -0.1280   66.7880   68.7700 C   0  0  0  0  0  0  0  0  0  0  0  0
    0.7250   67.2760   67.7480 C   0  0  0  0  0  0  0  0  0  0  0  0
    0.5490   66.0960   70.3870 Br  0  0  0  0  0  0  0  0  0  0  0  0
    1.6990   67.6260   64.8020 C   0  0  0  0  0  0  0  0  0  0  0  0
    1.5650   66.4970   64.3360 O   0  0  0  0  0  0  0  0  0  0  0  0
    2.9460   68.3730   64.7940 C   0  0  0  0  0  0  0  0  0  0  0  0
    3.8200   68.6960   63.3550 S   0  0  0  0  0  0  0  0  0  0  0  0
    5.0490   69.5330   64.2000 C   0  0  0  0  0  0  0  0  0  0  0  0
    4.7960   69.5550   65.5470 C   0  0  0  0  0  0  0  0  0  0  0  0
    3.5970   68.8920   65.9010 C   0  0  0  0  0  0  0  0  0  0  0  0
    5.9040   70.3720   66.8340 Br  0  0  0  0  0  0  0  0  0  0  0  0
   -2.2761   66.5523   69.1186 H   0  0  0  0  0  0  0  0  0  0  0  0
    1.8228   67.2901   67.8154 H   0  0  0  0  0  0  0  0  0  0  0  0
    5.9276   69.9935   63.7247 H   0  0  0  0  0  0  0  0  0  0  0  0
    3.2261   68.7998   66.9325 H   0  0  0  0  0  0  0  0  0  0  0  0
  2  1  2  0
  3  2  1  0
  4  3  1  0
  5  4  1  0
  6  5  2  0
  7  6  1  0
  7  3  2  0
  8  6  1  0
  9  2  1  0
 10  9  2  0
 11  9  1  0
 12 11  1  0
 13 12  1  0
 14 13  2  0
 15 11  2  0
 15 14  1  0
 16 14  1  0
  5 17  1  0
  7 18  1  0
 13 19  1  0
 15 20  1  0
M  END
>  <score>  (6) 
-6.881

$$$$
=
     RDKit          3D

 20 21  0  0  0  0  0  0  0  0999 V2000
    0.0150   68.4820   64.2900 O   0  0  0  0  0  0  0  0  0  0  0  0
    0.6800   68.2250   65.2890 C   0  0  0  0  0  0  0  0  0  0  0  0
    0.1870   67.6980   66.5500 C   0  0  0  0  0  0  0  0  0  0  0  0
   -1.5110   67.6290   66.8110 S   0  0  0  0  0  0  0  0  0  0  0  0
   -1.3190   66.9450   68.3670 C   0  0  0  0  0  0  0  0  0  0  0  0
    0.0070   66.7800   68.6740 C   0  0  0  0  0  0  0  0  0  0  0  0
    0.8820   67.2090   67.6440 C   0  0  0  0  0  0  0  0  0  0  0  0
    0.6500   66.0620   70.2940 Br  0  0  0  0  0  0  0  0  0  0  0  0
    2.1790   68.4630   65.2280 C   0  0  0  0  0  0  0  0  0  0  0  0
    2.6340   69.4230   65.8450 O   0  0  0  0  0  0  0  0  0  0  0  0
    2.9830   67.5240   64.4640 C   0  0  0  0  0  0  0  0  0  0  0  0
    3.7210   67.9380   62.9730 S   0  0  0  0  0  0  0  0  0  0  0  0
    4.3940   66.3770   62.7850 C   0  0  0  0  0  0  0  0  0  0  0  0
    4.0530   65.5620   63.8340 C   0  0  0  0  0  0  0  0  0  0  0  0
    3.2430   66.2050   64.8010 C   0  0  0  0  0  0  0  0  0  0  0  0
    4.5830   63.7630   64.0130 Br  0  0  0  0  0  0  0  0  0  0  0  0
   -2.1504   66.6731   69.0339 H   0  0  0  0  0  0  0  0  0  0  0  0
    1.9791   67.1595   67.7061 H   0  0  0  0  0  0  0  0  0  0  0  0
    5.0186   66.0672   61.9341 H   0  0  0  0  0  0  0  0  0  0  0  0
    2.8652   65.7161   65.7111 H   0  0  0  0  0  0  0  0  0  0  0  0
  2  1  2  0
  3  2  1  0
  4  3  1  0
  5  4  1  0
  6  5  2  0
  7  6  1  0
  7  3  2  0
  8  6  1  0
  9  2  1  0
 10  9  2  0
 11  9  1  0
 12 11  1  0
 13 12  1  0
 14 13  2  0
 15 11  2  0
 15 14  1  0
 16 14  1  0
  5 17  1  0
  7 18  1  0
 13 19  1  0
 15 20  1  0
M  END
>  <score>  (7) 
-6.67

$$$$
=
     RDKit          3D

 20 21  0  0  0  0  0  0  0  0999 V2000
    2.4940   69.2760   65.5580 O   0  0  0  0  0  0  0  0  0  0  0  0
    3.6910   69.4100   65.7940 C   0  0  0  0  0  0  0  0  0  0  0  0
    4.2860   69.8680   67.0380 C   0  0  0  0  0  0  0  0  0  0  0  0
    3.2690   70.1110   68.4030 S   0  0  0  0  0  0  0  0  0  0  0  0
    4.5810   70.5910   69.3890 C   0  0  0  0  0  0  0  0  0  0  0  0
    5.7590   70.5680   68.6890 C   0  0  0  0  0  0  0  0  0  0  0  0
    5.6070   70.1580   67.3410 C   0  0  0  0  0  0  0  0  0  0  0  0
    7.4400   71.0310   69.4060 Br  0  0  0  0  0  0  0  0  0  0  0  0
    4.6780   69.0600   64.6940 C   0  0  0  0  0  0  0  0  0  0  0  0
    5.5350   69.8920   64.4050 O   0  0  0  0  0  0  0  0  0  0  0  0
    4.5620   67.7520   64.0710 C   0  0  0  0  0  0  0  0  0  0  0  0
    4.4790   67.5420   62.3710 S   0  0  0  0  0  0  0  0  0  0  0  0
    4.3530   65.8420   62.5120 C   0  0  0  0  0  0  0  0  0  0  0  0
    4.3660   65.4520   63.8270 C   0  0  0  0  0  0  0  0  0  0  0  0
    4.4820   66.5360   64.7300 C   0  0  0  0  0  0  0  0  0  0  0  0
    4.2430   63.6670   64.4190 Br  0  0  0  0  0  0  0  0  0  0  0  0
    4.4913   70.8803   70.4465 H   0  0  0  0  0  0  0  0  0  0  0  0
    6.4364   70.0795   66.6227 H   0  0  0  0  0  0  0  0  0  0  0  0
    4.2721   65.1516   61.6594 H   0  0  0  0  0  0  0  0  0  0  0  0
    4.5058   66.4260   65.8242 H   0  0  0  0  0  0  0  0  0  0  0  0
  2  1  2  0
  3  2  1  0
  4  3  1  0
  5  4  1  0
  6  5  2  0
  7  6  1  0
  7  3  2  0
  8  6  1  0
  9  2  1  0
 10  9  2  0
 11  9  1  0
 12 11  1  0
 13 12  1  0
 14 13  2  0
 15 11  2  0
 15 14  1  0
 16 14  1  0
  5 17  1  0
  7 18  1  0
 13 19  1  0
 15 20  1  0
M  END
>  <score>  (8) 
-6.613

$$$$
=
     RDKit          3D

 20 21  0  0  0  0  0  0  0  0999 V2000
    5.8080   60.5170   71.0220 O   0  0  0  0  0  0  0  0  0  0  0  0
    4.5900   60.5340   70.8730 C   0  0  0  0  0  0  0  0  0  0  0  0
    3.7430   61.7100   70.7700 C   0  0  0  0  0  0  0  0  0  0  0  0
    4.4730   63.2290   70.4290 S   0  0  0  0  0  0  0  0  0  0  0  0
    2.9680   64.0410   70.4500 C   0  0  0  0  0  0  0  0  0  0  0  0
    1.9410   63.1720   70.7140 C   0  0  0  0  0  0  0  0  0  0  0  0
    2.3700   61.8340   70.9020 C   0  0  0  0  0  0  0  0  0  0  0  0
    0.1250   63.6630   70.8290 Br  0  0  0  0  0  0  0  0  0  0  0  0
    3.8660   59.2030   70.7730 C   0  0  0  0  0  0  0  0  0  0  0  0
    3.8770   58.6230   69.6910 O   0  0  0  0  0  0  0  0  0  0  0  0
    3.2280   58.6870   71.9730 C   0  0  0  0  0  0  0  0  0  0  0  0
    3.6930   59.1750   73.5500 S   0  0  0  0  0  0  0  0  0  0  0  0
    2.5360   58.1550   74.2880 C   0  0  0  0  0  0  0  0  0  0  0  0
    1.8220   57.4560   73.3500 C   0  0  0  0  0  0  0  0  0  0  0  0
    2.2100   57.7490   72.0200 C   0  0  0  0  0  0  0  0  0  0  0  0
    0.4550   56.2190   73.7420 Br  0  0  0  0  0  0  0  0  0  0  0  0
    2.8407   65.1194   70.2746 H   0  0  0  0  0  0  0  0  0  0  0  0
    1.6940   60.9956   71.1257 H   0  0  0  0  0  0  0  0  0  0  0  0
    2.3845   58.0708   75.3743 H   0  0  0  0  0  0  0  0  0  0  0  0
    1.7570   57.2869   71.1305 H   0  0  0  0  0  0  0  0  0  0  0  0
  2  1  2  0
  3  2  1  0
  4  3  1  0
  5  4  1  0
  6  5  2  0
  7  6  1  0
  7  3  2  0
  8  6  1  0
  9  2  1  0
 10  9  2  0
 11  9  1  0
 12 11  1  0
 13 12  1  0
 14 13  2  0
 15 11  2  0
 15 14  1  0
 16 14  1  0
  5 17  1  0
  7 18  1  0
 13 19  1  0
 15 20  1  0
M  END
>  <score>  (9) 
-6.408

$$$$
