=
     RDKit          3D

 34 36  0  0  0  0  0  0  0  0999 V2000
    0.0020   66.8190   67.3840 O   0  0  0  0  0  0  0  0  0  0  0  0
    0.6540   67.6260   68.0410 C   0  0  0  0  0  0  0  0  0  0  0  0
    1.1700   67.4170   69.3140 N   0  0  0  0  0  0  0  0  0  0  0  0
    1.0700   66.2490   70.1000 C   0  0  0  0  0  0  0  0  0  0  0  0
    2.0640   65.2760   69.9240 C   0  0  0  0  0  0  0  0  0  0  0  0
    2.0420   64.0920   70.6650 C   0  0  0  0  0  0  0  0  0  0  0  0
    1.0250   63.8770   71.5840 C   0  0  0  0  0  0  0  0  0  0  0  0
    0.0300   64.8270   71.7730 C   0  0  0  0  0  0  0  0  0  0  0  0
    0.0540   66.0140   71.0300 C   0  0  0  0  0  0  0  0  0  0  0  0
    1.0390   62.7090   72.2860 O   0  0  0  0  0  0  0  0  0  0  0  0
    0.9210   69.0520   67.5340 C   0  0  0  0  0  0  0  0  0  0  0  0
    2.2600   69.2090   67.0200 N   0  0  0  0  0  0  0  0  0  0  0  0
    3.3470   69.7620   67.7180 C   0  0  0  0  0  0  0  0  0  0  0  0
    3.4100   70.1910   69.0300 C   0  0  0  0  0  0  0  0  0  0  0  0
    4.6290   70.7050   69.4940 C   0  0  0  0  0  0  0  0  0  0  0  0
    5.7550   70.7830   68.6520 C   0  0  0  0  0  0  0  0  0  0  0  0
    5.6830   70.3540   67.3270 C   0  0  0  0  0  0  0  0  0  0  0  0
    4.4700   69.8540   66.8950 C   0  0  0  0  0  0  0  0  0  0  0  0
    4.0900   69.3490   65.5760 C   0  0  0  0  0  0  0  0  0  0  0  0
    4.7950   69.2500   64.5990 O   0  0  0  0  0  0  0  0  0  0  0  0
    2.5950   68.9560   65.7010 C   0  0  0  0  0  0  0  0  0  0  0  0
    1.9000   68.5150   64.8120 O   0  0  0  0  0  0  0  0  0  0  0  0
    1.6847   68.2051   69.7322 H   0  0  0  0  0  0  0  0  0  0  0  0
    2.8696   65.4467   69.1948 H   0  0  0  0  0  0  0  0  0  0  0  0
    2.8264   63.3345   70.5207 H   0  0  0  0  0  0  0  0  0  0  0  0
   -0.7733   64.6481   72.5029 H   0  0  0  0  0  0  0  0  0  0  0  0
   -0.7334   66.7674   71.1798 H   0  0  0  0  0  0  0  0  0  0  0  0
    0.3290   62.5221   72.9501 H   0  0  0  0  0  0  0  0  0  0  0  0
    0.2048   69.2819   66.7313 H   0  0  0  0  0  0  0  0  0  0  0  0
    0.8048   69.7389   68.3852 H   0  0  0  0  0  0  0  0  0  0  0  0
    2.5316   70.1311   69.6894 H   0  0  0  0  0  0  0  0  0  0  0  0
    4.7073   71.0536   70.5344 H   0  0  0  0  0  0  0  0  0  0  0  0
    6.7007   71.1863   69.0432 H   0  0  0  0  0  0  0  0  0  0  0  0
    6.5529   70.4112   66.6562 H   0  0  0  0  0  0  0  0  0  0  0  0
  2  1  2  0
  3  2  1  0
  4  3  1  0
  5  4  2  0
  6  5  1  0
  7  6  2  0
  8  7  1  0
  9  8  2  0
  9  4  1  0
 10  7  1  0
 11  2  1  0
 12 11  1  0
 13 12  1  0
 14 13  2  0
 15 14  1  0
 16 15  2  0
 17 16  1  0
 18 13  1  0
 18 17  2  0
 19 18  1  0
 20 19  2  0
 21 19  1  0
 21 12  1  0
 22 21  2  0
  3 23  1  0
  5 24  1  0
  6 25  1  0
  8 26  1  0
  9 27  1  0
 10 28  1  0
 11 29  1  0
 11 30  1  0
 14 31  1  0
 15 32  1  0
 16 33  1  0
 17 34  1  0
M  END
>  <score>  (1) 
-10.103

$$$$
=
     RDKit          3D

 34 36  0  0  0  0  0  0  0  0999 V2000
    0.8440   66.8280   67.2400 O   0  0  0  0  0  0  0  0  0  0  0  0
    1.1100   67.6860   68.0780 C   0  0  0  0  0  0  0  0  0  0  0  0
    1.2600   67.4750   69.4430 N   0  0  0  0  0  0  0  0  0  0  0  0
    1.1580   66.2530   70.1400 C   0  0  0  0  0  0  0  0  0  0  0  0
    2.2010   65.3320   69.9690 C   0  0  0  0  0  0  0  0  0  0  0  0
    2.1790   64.1000   70.6260 C   0  0  0  0  0  0  0  0  0  0  0  0
    1.1150   63.7840   71.4560 C   0  0  0  0  0  0  0  0  0  0  0  0
    0.0700   64.6810   71.6400 C   0  0  0  0  0  0  0  0  0  0  0  0
    0.0940   65.9160   70.9810 C   0  0  0  0  0  0  0  0  0  0  0  0
    1.1300   62.5710   72.0790 O   0  0  0  0  0  0  0  0  0  0  0  0
    1.2380   69.1690   67.7010 C   0  0  0  0  0  0  0  0  0  0  0  0
    2.6000   69.5430   67.4050 N   0  0  0  0  0  0  0  0  0  0  0  0
    3.2440   69.3850   66.1660 C   0  0  0  0  0  0  0  0  0  0  0  0
    2.7250   68.9310   64.9690 C   0  0  0  0  0  0  0  0  0  0  0  0
    3.5840   68.8710   63.8630 C   0  0  0  0  0  0  0  0  0  0  0  0
    4.9340   69.2610   63.9660 C   0  0  0  0  0  0  0  0  0  0  0  0
    5.4530   69.7120   65.1780 C   0  0  0  0  0  0  0  0  0  0  0  0
    4.5860   69.7590   66.2530 C   0  0  0  0  0  0  0  0  0  0  0  0
    4.8380   70.1680   67.6350 C   0  0  0  0  0  0  0  0  0  0  0  0
    5.8780   70.5760   68.0990 O   0  0  0  0  0  0  0  0  0  0  0  0
    3.4890   69.9800   68.3730 C   0  0  0  0  0  0  0  0  0  0  0  0
    3.2880   70.1880   69.5500 O   0  0  0  0  0  0  0  0  0  0  0  0
    1.4701   68.3075   70.0120 H   0  0  0  0  0  0  0  0  0  0  0  0
    3.0456   65.5825   69.3103 H   0  0  0  0  0  0  0  0  0  0  0  0
    3.0021   63.3839   70.4855 H   0  0  0  0  0  0  0  0  0  0  0  0
   -0.7714   64.4223   72.2997 H   0  0  0  0  0  0  0  0  0  0  0  0
   -0.7322   66.6275   71.1265 H   0  0  0  0  0  0  0  0  0  0  0  0
    0.3857   62.3133   72.6787 H   0  0  0  0  0  0  0  0  0  0  0  0
    0.6170   69.3635   66.8141 H   0  0  0  0  0  0  0  0  0  0  0  0
    0.9049   69.7655   68.5631 H   0  0  0  0  0  0  0  0  0  0  0  0
    1.6713   68.6263   64.8864 H   0  0  0  0  0  0  0  0  0  0  0  0
    3.1973   68.5131   62.8974 H   0  0  0  0  0  0  0  0  0  0  0  0
    5.5848   69.2089   63.0807 H   0  0  0  0  0  0  0  0  0  0  0  0
    6.5055   70.0169   65.2747 H   0  0  0  0  0  0  0  0  0  0  0  0
  2  1  2  0
  3  2  1  0
  4  3  1  0
  5  4  2  0
  6  5  1  0
  7  6  2  0
  8  7  1  0
  9  8  2  0
  9  4  1  0
 10  7  1  0
 11  2  1  0
 12 11  1  0
 13 12  1  0
 14 13  2  0
 15 14  1  0
 16 15  2  0
 17 16  1  0
 18 13  1  0
 18 17  2  0
 19 18  1  0
 20 19  2  0
 21 19  1  0
 21 12  1  0
 22 21  2  0
  3 23  1  0
  5 24  1  0
  6 25  1  0
  8 26  1  0
  9 27  1  0
 10 28  1  0
 11 29  1  0
 11 30  1  0
 14 31  1  0
 15 32  1  0
 16 33  1  0
 17 34  1  0
M  END
>  <score>  (2) 
-10.07

$$$$
=
     RDKit          3D

 34 36  0  0  0  0  0  0  0  0999 V2000
    5.4650   69.8100   63.5590 O   0  0  0  0  0  0  0  0  0  0  0  0
    4.6680   69.0360   64.0820 C   0  0  0  0  0  0  0  0  0  0  0  0
    4.4460   68.8910   65.4460 N   0  0  0  0  0  0  0  0  0  0  0  0
    5.0660   69.6000   66.4970 C   0  0  0  0  0  0  0  0  0  0  0  0
    6.4540   69.7790   66.4140 C   0  0  0  0  0  0  0  0  0  0  0  0
    7.1440   70.4730   67.4110 C   0  0  0  0  0  0  0  0  0  0  0  0
    6.4500   70.9890   68.4940 C   0  0  0  0  0  0  0  0  0  0  0  0
    5.0740   70.8230   68.5970 C   0  0  0  0  0  0  0  0  0  0  0  0
    4.3840   70.1280   67.5970 C   0  0  0  0  0  0  0  0  0  0  0  0
    7.1600   71.6580   69.4460 O   0  0  0  0  0  0  0  0  0  0  0  0
    3.8410   68.0430   63.2520 C   0  0  0  0  0  0  0  0  0  0  0  0
    2.5500   68.5740   62.8880 N   0  0  0  0  0  0  0  0  0  0  0  0
    1.4100   68.5930   63.7100 C   0  0  0  0  0  0  0  0  0  0  0  0
    1.2820   68.2010   65.0280 C   0  0  0  0  0  0  0  0  0  0  0  0
    0.0230   68.3260   65.6310 C   0  0  0  0  0  0  0  0  0  0  0  0
   -1.0800   68.8350   64.9170 C   0  0  0  0  0  0  0  0  0  0  0  0
   -0.9460   69.2230   63.5840 C   0  0  0  0  0  0  0  0  0  0  0  0
    0.3050   69.0860   63.0140 C   0  0  0  0  0  0  0  0  0  0  0  0
    0.7450   69.3910   61.6530 C   0  0  0  0  0  0  0  0  0  0  0  0
    0.0800   69.8550   60.7560 O   0  0  0  0  0  0  0  0  0  0  0  0
    2.2450   69.0050   61.6090 C   0  0  0  0  0  0  0  0  0  0  0  0
    2.9710   69.0850   60.6410 O   0  0  0  0  0  0  0  0  0  0  0  0
    3.7487   68.1848   65.7217 H   0  0  0  0  0  0  0  0  0  0  0  0
    7.0054   69.3688   65.5551 H   0  0  0  0  0  0  0  0  0  0  0  0
    8.2330   70.6093   67.3368 H   0  0  0  0  0  0  0  0  0  0  0  0
    4.5302   71.2355   69.4596 H   0  0  0  0  0  0  0  0  0  0  0  0
    3.2949   69.9961   67.6775 H   0  0  0  0  0  0  0  0  0  0  0  0
    6.6958   72.0394   70.2329 H   0  0  0  0  0  0  0  0  0  0  0  0
    4.3959   67.8019   62.3333 H   0  0  0  0  0  0  0  0  0  0  0  0
    3.6743   67.1471   63.8681 H   0  0  0  0  0  0  0  0  0  0  0  0
    2.1416   67.8030   65.5872 H   0  0  0  0  0  0  0  0  0  0  0  0
   -0.1063   68.0214   66.6800 H   0  0  0  0  0  0  0  0  0  0  0  0
   -2.0561   68.9272   65.4157 H   0  0  0  0  0  0  0  0  0  0  0  0
   -1.7978   69.6201   63.0124 H   0  0  0  0  0  0  0  0  0  0  0  0
  2  1  2  0
  3  2  1  0
  4  3  1  0
  5  4  2  0
  6  5  1  0
  7  6  2  0
  8  7  1  0
  9  8  2  0
  9  4  1  0
 10  7  1  0
 11  2  1  0
 12 11  1  0
 13 12  1  0
 14 13  2  0
 15 14  1  0
 16 15  2  0
 17 16  1  0
 18 13  1  0
 18 17  2  0
 19 18  1  0
 20 19  2  0
 21 19  1  0
 21 12  1  0
 22 21  2  0
  3 23  1  0
  5 24  1  0
  6 25  1  0
  8 26  1  0
  9 27  1  0
 10 28  1  0
 11 29  1  0
 11 30  1  0
 14 31  1  0
 15 32  1  0
 16 33  1  0
 17 34  1  0
M  END
>  <score>  (3) 
-9.119

$$$$
=
     RDKit          3D

 34 36  0  0  0  0  0  0  0  0999 V2000
    1.2620   69.4610   67.5250 O   0  0  0  0  0  0  0  0  0  0  0  0
    1.8880   68.7210   66.7710 C   0  0  0  0  0  0  0  0  0  0  0  0
    3.2600   68.7450   66.5570 N   0  0  0  0  0  0  0  0  0  0  0  0
    4.2090   69.5970   67.1600 C   0  0  0  0  0  0  0  0  0  0  0  0
    5.3990   69.8280   66.4540 C   0  0  0  0  0  0  0  0  0  0  0  0
    6.3890   70.6620   66.9790 C   0  0  0  0  0  0  0  0  0  0  0  0
    6.1940   71.2670   68.2120 C   0  0  0  0  0  0  0  0  0  0  0  0
    5.0230   71.0520   68.9280 C   0  0  0  0  0  0  0  0  0  0  0  0
    4.0310   70.2160   68.4000 C   0  0  0  0  0  0  0  0  0  0  0  0
    7.1840   72.0730   68.6900 O   0  0  0  0  0  0  0  0  0  0  0  0
    1.1800   67.6870   65.8840 C   0  0  0  0  0  0  0  0  0  0  0  0
    0.9230   68.1890   64.5550 N   0  0  0  0  0  0  0  0  0  0  0  0
    1.8660   68.2850   63.5180 C   0  0  0  0  0  0  0  0  0  0  0  0
    3.1820   67.8650   63.4990 C   0  0  0  0  0  0  0  0  0  0  0  0
    3.9210   68.0730   62.3250 C   0  0  0  0  0  0  0  0  0  0  0  0
    3.3410   68.6930   61.2000 C   0  0  0  0  0  0  0  0  0  0  0  0
    2.0150   69.1210   61.2290 C   0  0  0  0  0  0  0  0  0  0  0  0
    1.3110   68.9050   62.3980 C   0  0  0  0  0  0  0  0  0  0  0  0
   -0.0710   69.2500   62.7290 C   0  0  0  0  0  0  0  0  0  0  0  0
   -0.8850   69.7830   62.0100 O   0  0  0  0  0  0  0  0  0  0  0  0
   -0.2750   68.7770   64.1910 C   0  0  0  0  0  0  0  0  0  0  0  0
   -1.2880   68.9060   64.8440 O   0  0  0  0  0  0  0  0  0  0  0  0
    3.6272   68.0615   65.8795 H   0  0  0  0  0  0  0  0  0  0  0  0
    5.5541   69.3474   65.4768 H   0  0  0  0  0  0  0  0  0  0  0  0
    7.3184   70.8381   66.4176 H   0  0  0  0  0  0  0  0  0  0  0  0
    4.8756   71.5359   69.9048 H   0  0  0  0  0  0  0  0  0  0  0  0
    3.1037   70.0452   68.9665 H   0  0  0  0  0  0  0  0  0  0  0  0
    7.0779   72.5206   69.5666 H   0  0  0  0  0  0  0  0  0  0  0  0
    1.8155   66.7924   65.8074 H   0  0  0  0  0  0  0  0  0  0  0  0
    0.2107   67.4529   66.3484 H   0  0  0  0  0  0  0  0  0  0  0  0
    3.6361   67.3825   64.3771 H   0  0  0  0  0  0  0  0  0  0  0  0
    4.9706   67.7468   62.2817 H   0  0  0  0  0  0  0  0  0  0  0  0
    3.9410   68.8406   60.2899 H   0  0  0  0  0  0  0  0  0  0  0  0
    1.5497   69.6090   60.3599 H   0  0  0  0  0  0  0  0  0  0  0  0
  2  1  2  0
  3  2  1  0
  4  3  1  0
  5  4  2  0
  6  5  1  0
  7  6  2  0
  8  7  1  0
  9  8  2  0
  9  4  1  0
 10  7  1  0
 11  2  1  0
 12 11  1  0
 13 12  1  0
 14 13  2  0
 15 14  1  0
 16 15  2  0
 17 16  1  0
 18 13  1  0
 18 17  2  0
 19 18  1  0
 20 19  2  0
 21 19  1  0
 21 12  1  0
 22 21  2  0
  3 23  1  0
  5 24  1  0
  6 25  1  0
  8 26  1  0
  9 27  1  0
 10 28  1  0
 11 29  1  0
 11 30  1  0
 14 31  1  0
 15 32  1  0
 16 33  1  0
 17 34  1  0
M  END
>  <score>  (4) 
-9.087

$$$$
=
     RDKit          3D

 34 36  0  0  0  0  0  0  0  0999 V2000
    1.7870   68.3060   68.1640 O   0  0  0  0  0  0  0  0  0  0  0  0
    2.0960   68.3370   66.9760 C   0  0  0  0  0  0  0  0  0  0  0  0
    3.1970   68.9910   66.4360 N   0  0  0  0  0  0  0  0  0  0  0  0
    4.1810   69.7300   67.1250 C   0  0  0  0  0  0  0  0  0  0  0  0
    5.4420   69.8320   66.5200 C   0  0  0  0  0  0  0  0  0  0  0  0
    6.4720   70.5480   67.1350 C   0  0  0  0  0  0  0  0  0  0  0  0
    6.2450   71.1640   68.3570 C   0  0  0  0  0  0  0  0  0  0  0  0
    5.0040   71.0750   68.9750 C   0  0  0  0  0  0  0  0  0  0  0  0
    3.9720   70.3570   68.3560 C   0  0  0  0  0  0  0  0  0  0  0  0
    7.2760   71.8520   68.9240 O   0  0  0  0  0  0  0  0  0  0  0  0
    1.2190   67.6880   65.8950 C   0  0  0  0  0  0  0  0  0  0  0  0
    1.7530   67.8780   64.5680 N   0  0  0  0  0  0  0  0  0  0  0  0
    1.1340   68.5940   63.5300 C   0  0  0  0  0  0  0  0  0  0  0  0
   -0.0400   69.3220   63.5550 C   0  0  0  0  0  0  0  0  0  0  0  0
   -0.4450   69.9570   62.3730 C   0  0  0  0  0  0  0  0  0  0  0  0
    0.3200   69.8570   61.1930 C   0  0  0  0  0  0  0  0  0  0  0  0
    1.5000   69.1150   61.1720 C   0  0  0  0  0  0  0  0  0  0  0  0
    1.8740   68.4980   62.3510 C   0  0  0  0  0  0  0  0  0  0  0  0
    3.0360   67.6550   62.6300 C   0  0  0  0  0  0  0  0  0  0  0  0
    3.9230   67.3530   61.8650 O   0  0  0  0  0  0  0  0  0  0  0  0
    2.8960   67.2410   64.1180 C   0  0  0  0  0  0  0  0  0  0  0  0
    3.6520   66.5170   64.7270 O   0  0  0  0  0  0  0  0  0  0  0  0
    3.3071   68.9288   65.4138 H   0  0  0  0  0  0  0  0  0  0  0  0
    5.6220   69.3432   65.5512 H   0  0  0  0  0  0  0  0  0  0  0  0
    7.4578   70.6229   66.6527 H   0  0  0  0  0  0  0  0  0  0  0  0
    4.8324   71.5653   69.9446 H   0  0  0  0  0  0  0  0  0  0  0  0
    2.9885   70.2864   68.8436 H   0  0  0  0  0  0  0  0  0  0  0  0
    7.1494   72.3039   69.7957 H   0  0  0  0  0  0  0  0  0  0  0  0
    1.1495   66.6089   66.0969 H   0  0  0  0  0  0  0  0  0  0  0  0
    0.2302   68.1686   65.9313 H   0  0  0  0  0  0  0  0  0  0  0  0
   -0.6386   69.4008   64.4745 H   0  0  0  0  0  0  0  0  0  0  0  0
   -1.3756   70.5434   62.3659 H   0  0  0  0  0  0  0  0  0  0  0  0
   -0.0175   70.3694   60.2800 H   0  0  0  0  0  0  0  0  0  0  0  0
    2.1061   69.0246   60.2585 H   0  0  0  0  0  0  0  0  0  0  0  0
  2  1  2  0
  3  2  1  0
  4  3  1  0
  5  4  2  0
  6  5  1  0
  7  6  2  0
  8  7  1  0
  9  8  2  0
  9  4  1  0
 10  7  1  0
 11  2  1  0
 12 11  1  0
 13 12  1  0
 14 13  2  0
 15 14  1  0
 16 15  2  0
 17 16  1  0
 18 13  1  0
 18 17  2  0
 19 18  1  0
 20 19  2  0
 21 19  1  0
 21 12  1  0
 22 21  2  0
  3 23  1  0
  5 24  1  0
  6 25  1  0
  8 26  1  0
  9 27  1  0
 10 28  1  0
 11 29  1  0
 11 30  1  0
 14 31  1  0
 15 32  1  0
 16 33  1  0
 17 34  1  0
M  END
>  <score>  (5) 
-8.815

$$$$
=
     RDKit          3D

 34 36  0  0  0  0  0  0  0  0999 V2000
    4.0300   69.7940   67.4220 O   0  0  0  0  0  0  0  0  0  0  0  0
    2.8980   69.4270   67.1180 C   0  0  0  0  0  0  0  0  0  0  0  0
    2.5350   68.7940   65.9360 N   0  0  0  0  0  0  0  0  0  0  0  0
    3.3760   68.4300   64.8620 C   0  0  0  0  0  0  0  0  0  0  0  0
    3.2980   67.1050   64.4120 C   0  0  0  0  0  0  0  0  0  0  0  0
    4.0930   66.6650   63.3520 C   0  0  0  0  0  0  0  0  0  0  0  0
    4.9690   67.5470   62.7380 C   0  0  0  0  0  0  0  0  0  0  0  0
    5.0630   68.8650   63.1680 C   0  0  0  0  0  0  0  0  0  0  0  0
    4.2640   69.3050   64.2310 C   0  0  0  0  0  0  0  0  0  0  0  0
    5.7280   67.0780   61.7080 O   0  0  0  0  0  0  0  0  0  0  0  0
    1.6880   69.7070   68.0220 C   0  0  0  0  0  0  0  0  0  0  0  0
    0.7870   68.5820   68.0950 N   0  0  0  0  0  0  0  0  0  0  0  0
   -0.4510   68.4790   67.4380 C   0  0  0  0  0  0  0  0  0  0  0  0
   -1.0350   69.3540   66.5420 C   0  0  0  0  0  0  0  0  0  0  0  0
   -2.2900   69.0160   66.0170 C   0  0  0  0  0  0  0  0  0  0  0  0
   -2.9380   67.8210   66.3890 C   0  0  0  0  0  0  0  0  0  0  0  0
   -2.3460   66.9460   67.2990 C   0  0  0  0  0  0  0  0  0  0  0  0
   -1.1110   67.3050   67.8030 C   0  0  0  0  0  0  0  0  0  0  0  0
   -0.2620   66.6080   68.7690 C   0  0  0  0  0  0  0  0  0  0  0  0
   -0.4810   65.5450   69.3030 O   0  0  0  0  0  0  0  0  0  0  0  0
    0.9820   67.5150   68.9530 C   0  0  0  0  0  0  0  0  0  0  0  0
    1.9140   67.2980   69.6970 O   0  0  0  0  0  0  0  0  0  0  0  0
    1.5366   68.5635   65.8309 H   0  0  0  0  0  0  0  0  0  0  0  0
    2.6034   66.4046   64.8989 H   0  0  0  0  0  0  0  0  0  0  0  0
    4.0247   65.6232   63.0055 H   0  0  0  0  0  0  0  0  0  0  0  0
    5.7609   69.5588   62.6764 H   0  0  0  0  0  0  0  0  0  0  0  0
    4.3362   70.3483   64.5720 H   0  0  0  0  0  0  0  0  0  0  0  0
    6.3639   67.6808   61.2472 H   0  0  0  0  0  0  0  0  0  0  0  0
    2.0491   69.9373   69.0352 H   0  0  0  0  0  0  0  0  0  0  0  0
    1.1345   70.5541   67.5906 H   0  0  0  0  0  0  0  0  0  0  0  0
   -0.5307   70.2869   66.2498 H   0  0  0  0  0  0  0  0  0  0  0  0
   -2.7776   69.6953   65.3022 H   0  0  0  0  0  0  0  0  0  0  0  0
   -3.9198   67.5764   65.9575 H   0  0  0  0  0  0  0  0  0  0  0  0
   -2.8405   66.0113   67.6021 H   0  0  0  0  0  0  0  0  0  0  0  0
  2  1  2  0
  3  2  1  0
  4  3  1  0
  5  4  2  0
  6  5  1  0
  7  6  2  0
  8  7  1  0
  9  8  2  0
  9  4  1  0
 10  7  1  0
 11  2  1  0
 12 11  1  0
 13 12  1  0
 14 13  2  0
 15 14  1  0
 16 15  2  0
 17 16  1  0
 18 13  1  0
 18 17  2  0
 19 18  1  0
 20 19  2  0
 21 19  1  0
 21 12  1  0
 22 21  2  0
  3 23  1  0
  5 24  1  0
  6 25  1  0
  8 26  1  0
  9 27  1  0
 10 28  1  0
 11 29  1  0
 11 30  1  0
 14 31  1  0
 15 32  1  0
 16 33  1  0
 17 34  1  0
M  END
>  <score>  (6) 
-8.727

$$$$
=
     RDKit          3D

 34 36  0  0  0  0  0  0  0  0999 V2000
    5.2630   67.5040   64.2350 O   0  0  0  0  0  0  0  0  0  0  0  0
    4.1210   67.6680   64.6560 C   0  0  0  0  0  0  0  0  0  0  0  0
    3.7370   68.5620   65.6480 N   0  0  0  0  0  0  0  0  0  0  0  0
    4.5580   69.4660   66.3550 C   0  0  0  0  0  0  0  0  0  0  0  0
    4.1320   69.8450   67.6360 C   0  0  0  0  0  0  0  0  0  0  0  0
    4.8890   70.7330   68.4050 C   0  0  0  0  0  0  0  0  0  0  0  0
    6.0720   71.2450   67.8960 C   0  0  0  0  0  0  0  0  0  0  0  0
    6.5130   70.8830   66.6280 C   0  0  0  0  0  0  0  0  0  0  0  0
    5.7530   69.9920   65.8590 C   0  0  0  0  0  0  0  0  0  0  0  0
    6.7810   72.1090   68.6760 O   0  0  0  0  0  0  0  0  0  0  0  0
    2.9470   66.8090   64.1620 C   0  0  0  0  0  0  0  0  0  0  0  0
    1.7040   67.5400   64.1410 N   0  0  0  0  0  0  0  0  0  0  0  0
    1.2630   68.3820   63.1060 C   0  0  0  0  0  0  0  0  0  0  0  0
    1.8520   68.6320   61.8810 C   0  0  0  0  0  0  0  0  0  0  0  0
    1.2020   69.5190   61.0110 C   0  0  0  0  0  0  0  0  0  0  0  0
   -0.0120   70.1370   61.3710 C   0  0  0  0  0  0  0  0  0  0  0  0
   -0.5960   69.8850   62.6110 C   0  0  0  0  0  0  0  0  0  0  0  0
    0.0660   69.0090   63.4500 C   0  0  0  0  0  0  0  0  0  0  0  0
   -0.2890   68.5650   64.7980 C   0  0  0  0  0  0  0  0  0  0  0  0
   -1.2690   68.8740   65.4360 O   0  0  0  0  0  0  0  0  0  0  0  0
    0.8500   67.6070   65.2290 C   0  0  0  0  0  0  0  0  0  0  0  0
    0.9390   67.0450   66.3000 O   0  0  0  0  0  0  0  0  0  0  0  0
    2.7373   68.5652   65.8960 H   0  0  0  0  0  0  0  0  0  0  0  0
    3.1926   69.4393   68.0397 H   0  0  0  0  0  0  0  0  0  0  0  0
    4.5476   71.0242   69.4093 H   0  0  0  0  0  0  0  0  0  0  0  0
    7.4530   71.2938   66.2310 H   0  0  0  0  0  0  0  0  0  0  0  0
    6.1005   69.7042   64.8558 H   0  0  0  0  0  0  0  0  0  0  0  0
    7.6304   72.4934   68.3431 H   0  0  0  0  0  0  0  0  0  0  0  0
    3.1689   66.4594   63.1429 H   0  0  0  0  0  0  0  0  0  0  0  0
    2.8299   65.9665   64.8595 H   0  0  0  0  0  0  0  0  0  0  0  0
    2.7998   68.1509   61.5977 H   0  0  0  0  0  0  0  0  0  0  0  0
    1.6481   69.7364   60.0293 H   0  0  0  0  0  0  0  0  0  0  0  0
   -0.5033   70.8246   60.6669 H   0  0  0  0  0  0  0  0  0  0  0  0
   -1.5415   70.3620   62.9085 H   0  0  0  0  0  0  0  0  0  0  0  0
  2  1  2  0
  3  2  1  0
  4  3  1  0
  5  4  2  0
  6  5  1  0
  7  6  2  0
  8  7  1  0
  9  8  2  0
  9  4  1  0
 10  7  1  0
 11  2  1  0
 12 11  1  0
 13 12  1  0
 14 13  2  0
 15 14  1  0
 16 15  2  0
 17 16  1  0
 18 13  1  0
 18 17  2  0
 19 18  1  0
 20 19  2  0
 21 19  1  0
 21 12  1  0
 22 21  2  0
  3 23  1  0
  5 24  1  0
  6 25  1  0
  8 26  1  0
  9 27  1  0
 10 28  1  0
 11 29  1  0
 11 30  1  0
 14 31  1  0
 15 32  1  0
 16 33  1  0
 17 34  1  0
M  END
>  <score>  (7) 
-8.39

$$$$
=
     RDKit          3D

 34 36  0  0  0  0  0  0  0  0999 V2000
   -0.0360   64.5520   69.8850 O   0  0  0  0  0  0  0  0  0  0  0  0
    0.9800   65.2420   69.8860 C   0  0  0  0  0  0  0  0  0  0  0  0
    1.1450   66.4530   69.2240 N   0  0  0  0  0  0  0  0  0  0  0  0
    0.1940   67.1410   68.4410 C   0  0  0  0  0  0  0  0  0  0  0  0
    0.6170   68.3230   67.8180 C   0  0  0  0  0  0  0  0  0  0  0  0
   -0.2610   69.0630   67.0230 C   0  0  0  0  0  0  0  0  0  0  0  0
   -1.5650   68.6230   66.8470 C   0  0  0  0  0  0  0  0  0  0  0  0
   -2.0050   67.4540   67.4560 C   0  0  0  0  0  0  0  0  0  0  0  0
   -1.1230   66.7130   68.2520 C   0  0  0  0  0  0  0  0  0  0  0  0
   -2.3900   69.3740   66.0650 O   0  0  0  0  0  0  0  0  0  0  0  0
    2.2660   64.7850   70.5900 C   0  0  0  0  0  0  0  0  0  0  0  0
    2.4090   63.3490   70.5920 N   0  0  0  0  0  0  0  0  0  0  0  0
    2.1470   62.4990   71.6800 C   0  0  0  0  0  0  0  0  0  0  0  0
    1.6360   62.8140   72.9240 C   0  0  0  0  0  0  0  0  0  0  0  0
    1.4610   61.7710   73.8440 C   0  0  0  0  0  0  0  0  0  0  0  0
    1.7970   60.4430   73.5140 C   0  0  0  0  0  0  0  0  0  0  0  0
    2.3190   60.1330   72.2590 C   0  0  0  0  0  0  0  0  0  0  0  0
    2.4830   61.1800   71.3720 C   0  0  0  0  0  0  0  0  0  0  0  0
    3.0120   61.1700   70.0090 C   0  0  0  0  0  0  0  0  0  0  0  0
    3.3930   60.2100   69.3780 O   0  0  0  0  0  0  0  0  0  0  0  0
    2.9690   62.6460   69.5390 C   0  0  0  0  0  0  0  0  0  0  0  0
    3.3490   63.0610   68.4650 O   0  0  0  0  0  0  0  0  0  0  0  0
    2.0685   66.8999   69.3156 H   0  0  0  0  0  0  0  0  0  0  0  0
    1.6511   68.6714   67.9566 H   0  0  0  0  0  0  0  0  0  0  0  0
    0.0796   69.9901   66.5388 H   0  0  0  0  0  0  0  0  0  0  0  0
   -3.0409   67.1125   67.3135 H   0  0  0  0  0  0  0  0  0  0  0  0
   -1.4696   65.7862   68.7326 H   0  0  0  0  0  0  0  0  0  0  0  0
   -3.3268   69.0897   65.9179 H   0  0  0  0  0  0  0  0  0  0  0  0
    3.1295   65.2257   70.0702 H   0  0  0  0  0  0  0  0  0  0  0  0
    2.2135   65.1193   71.6367 H   0  0  0  0  0  0  0  0  0  0  0  0
    1.3747   63.8503   73.1844 H   0  0  0  0  0  0  0  0  0  0  0  0
    1.0541   61.9932   74.8415 H   0  0  0  0  0  0  0  0  0  0  0  0
    1.6460   59.6431   74.2538 H   0  0  0  0  0  0  0  0  0  0  0  0
    2.5882   59.1017   71.9871 H   0  0  0  0  0  0  0  0  0  0  0  0
  2  1  2  0
  3  2  1  0
  4  3  1  0
  5  4  2  0
  6  5  1  0
  7  6  2  0
  8  7  1  0
  9  8  2  0
  9  4  1  0
 10  7  1  0
 11  2  1  0
 12 11  1  0
 13 12  1  0
 14 13  2  0
 15 14  1  0
 16 15  2  0
 17 16  1  0
 18 13  1  0
 18 17  2  0
 19 18  1  0
 20 19  2  0
 21 19  1  0
 21 12  1  0
 22 21  2  0
  3 23  1  0
  5 24  1  0
  6 25  1  0
  8 26  1  0
  9 27  1  0
 10 28  1  0
 11 29  1  0
 11 30  1  0
 14 31  1  0
 15 32  1  0
 16 33  1  0
 17 34  1  0
M  END
>  <score>  (8) 
-8.379

$$$$
=
     RDKit          3D

 34 36  0  0  0  0  0  0  0  0999 V2000
   -0.0720   63.7720   69.8500 O   0  0  0  0  0  0  0  0  0  0  0  0
    0.3400   64.6220   70.6360 C   0  0  0  0  0  0  0  0  0  0  0  0
    0.4690   65.9800   70.3760 N   0  0  0  0  0  0  0  0  0  0  0  0
    0.1450   66.6610   69.1830 C   0  0  0  0  0  0  0  0  0  0  0  0
    1.1370   67.4840   68.6300 C   0  0  0  0  0  0  0  0  0  0  0  0
    0.8990   68.1900   67.4490 C   0  0  0  0  0  0  0  0  0  0  0  0
   -0.3290   68.0770   66.8160 C   0  0  0  0  0  0  0  0  0  0  0  0
   -1.3260   67.2680   67.3470 C   0  0  0  0  0  0  0  0  0  0  0  0
   -1.0860   66.5600   68.5310 C   0  0  0  0  0  0  0  0  0  0  0  0
   -0.5220   68.7830   65.6660 O   0  0  0  0  0  0  0  0  0  0  0  0
    0.8510   64.2470   72.0350 C   0  0  0  0  0  0  0  0  0  0  0  0
    1.4210   62.9220   72.0740 N   0  0  0  0  0  0  0  0  0  0  0  0
    2.6860   62.5580   71.5820 C   0  0  0  0  0  0  0  0  0  0  0  0
    3.6730   63.3610   71.0440 C   0  0  0  0  0  0  0  0  0  0  0  0
    4.8620   62.7480   70.6260 C   0  0  0  0  0  0  0  0  0  0  0  0
    5.0480   61.3560   70.7500 C   0  0  0  0  0  0  0  0  0  0  0  0
    4.0450   60.5510   71.2870 C   0  0  0  0  0  0  0  0  0  0  0  0
    2.8820   61.1810   71.6890 C   0  0  0  0  0  0  0  0  0  0  0  0
    1.6670   60.6080   72.2680 C   0  0  0  0  0  0  0  0  0  0  0  0
    1.4590   59.4470   72.5330 O   0  0  0  0  0  0  0  0  0  0  0  0
    0.7090   61.8080   72.4820 C   0  0  0  0  0  0  0  0  0  0  0  0
   -0.4190   61.7460   72.9230 O   0  0  0  0  0  0  0  0  0  0  0  0
    0.8445   66.5569   71.1422 H   0  0  0  0  0  0  0  0  0  0  0  0
    2.1119   67.5742   69.1315 H   0  0  0  0  0  0  0  0  0  0  0  0
    1.6829   68.8333   67.0227 H   0  0  0  0  0  0  0  0  0  0  0  0
   -2.2986   67.1841   66.8400 H   0  0  0  0  0  0  0  0  0  0  0  0
   -1.8743   65.9183   68.9515 H   0  0  0  0  0  0  0  0  0  0  0  0
   -1.3874   68.7248   65.1888 H   0  0  0  0  0  0  0  0  0  0  0  0
    1.6213   64.9722   72.3362 H   0  0  0  0  0  0  0  0  0  0  0  0
   -0.0079   64.2637   72.7221 H   0  0  0  0  0  0  0  0  0  0  0  0
    3.5302   64.4473   70.9467 H   0  0  0  0  0  0  0  0  0  0  0  0
    5.6643   63.3639   70.1935 H   0  0  0  0  0  0  0  0  0  0  0  0
    5.9935   60.9011   70.4199 H   0  0  0  0  0  0  0  0  0  0  0  0
    4.1730   59.4630   71.3865 H   0  0  0  0  0  0  0  0  0  0  0  0
  2  1  2  0
  3  2  1  0
  4  3  1  0
  5  4  2  0
  6  5  1  0
  7  6  2  0
  8  7  1  0
  9  8  2  0
  9  4  1  0
 10  7  1  0
 11  2  1  0
 12 11  1  0
 13 12  1  0
 14 13  2  0
 15 14  1  0
 16 15  2  0
 17 16  1  0
 18 13  1  0
 18 17  2  0
 19 18  1  0
 20 19  2  0
 21 19  1  0
 21 12  1  0
 22 21  2  0
  3 23  1  0
  5 24  1  0
  6 25  1  0
  8 26  1  0
  9 27  1  0
 10 28  1  0
 11 29  1  0
 11 30  1  0
 14 31  1  0
 15 32  1  0
 16 33  1  0
 17 34  1  0
M  END
>  <score>  (9) 
-8.267

$$$$
