=
     RDKit          3D

 59 61  0  0  0  0  0  0  0  0999 V2000
    0.5430   67.5040   68.3960 C   0  0  1  0  0  0  0  0  0  0  0  0
    1.4130   66.9760   67.3770 O   0  0  0  0  0  0  0  0  0  0  0  0
    1.2490   67.4880   66.0600 C   0  0  2  0  0  0  0  0  0  0  0  0
   -0.1950   67.9060   65.7460 C   0  0  1  0  0  0  0  0  0  0  0  0
   -0.6830   68.9840   66.7190 C   0  0  2  0  0  0  0  0  0  0  0  0
    0.0270   68.9150   68.0780 C   0  0  2  0  0  0  0  0  0  0  0  0
    1.1580   69.8050   68.0240 O   0  0  0  0  0  0  0  0  0  0  0  0
   -2.0980   68.8290   66.9050 O   0  0  0  0  0  0  0  0  0  0  0  0
   -0.3350   68.3850   64.3980 O   0  0  0  0  0  0  0  0  0  0  0  0
   -0.5810   66.4980   68.7050 C   0  0  0  0  0  0  0  0  0  0  0  0
   -0.0370   65.3410   69.3510 O   0  0  0  0  0  0  0  0  0  0  0  0
    2.4370   64.0130   70.8640 C   0  0  1  0  0  0  0  0  0  0  0  0
    2.0350   65.3250   70.4530 O   0  0  0  0  0  0  0  0  0  0  0  0
    0.6440   65.6290   70.5740 C   0  0  2  0  0  0  0  0  0  0  0  0
   -0.1080   64.8890   71.7090 C   0  0  1  0  0  0  0  0  0  0  0  0
    0.2190   63.3880   71.7530 C   0  0  2  0  0  0  0  0  0  0  0  0
    1.3020   62.9870   70.7510 C   0  0  2  0  0  0  0  0  0  0  0  0
    1.7460   61.6540   71.0390 O   0  0  0  0  0  0  0  0  0  0  0  0
   -0.9530   62.5800   71.5730 O   0  0  0  0  0  0  0  0  0  0  0  0
    0.2330   65.4790   72.9770 O   0  0  0  0  0  0  0  0  0  0  0  0
    3.6680   63.5920   70.0480 C   0  0  0  0  0  0  0  0  0  0  0  0
    3.3260   63.1100   68.7530 O   0  0  0  0  0  0  0  0  0  0  0  0
    1.5810   66.4750   65.0970 O   0  0  0  0  0  0  0  0  0  0  0  0
    2.9960   66.2200   65.0350 C   0  0  2  0  0  0  0  0  0  0  0  0
    3.5970   67.2370   64.0770 C   0  0  0  0  0  0  0  0  0  0  0  0
    2.8980   67.6600   62.9320 C   0  0  0  0  0  0  0  0  0  0  0  0
    3.4640   68.5840   62.0530 C   0  0  0  0  0  0  0  0  0  0  0  0
    4.7350   69.0970   62.3030 C   0  0  0  0  0  0  0  0  0  0  0  0
    5.4420   68.6860   63.4310 C   0  0  0  0  0  0  0  0  0  0  0  0
    4.8790   67.7600   64.3130 C   0  0  0  0  0  0  0  0  0  0  0  0
    3.2650   64.8300   64.5870 C   0  0  0  0  0  0  0  0  0  0  0  0
    3.4970   63.7460   64.2300 N   0  0  0  0  0  0  0  0  0  0  0  0
    1.1363   67.6339   69.3131 H   0  0  0  0  0  0  0  0  0  0  0  0
    1.9076   68.3673   66.0034 H   0  0  0  0  0  0  0  0  0  0  0  0
   -0.8136   67.0038   65.8619 H   0  0  0  0  0  0  0  0  0  0  0  0
   -0.4484   69.9664   66.2833 H   0  0  0  0  0  0  0  0  0  0  0  0
   -0.6933   69.1948   68.8608 H   0  0  0  0  0  0  0  0  0  0  0  0
    1.4447   70.0306   68.9444 H   0  0  0  0  0  0  0  0  0  0  0  0
   -2.3031   68.8065   67.8733 H   0  0  0  0  0  0  0  0  0  0  0  0
   -0.6127   69.3351   64.4126 H   0  0  0  0  0  0  0  0  0  0  0  0
   -1.3215   66.9707   69.3669 H   0  0  0  0  0  0  0  0  0  0  0  0
   -1.0630   66.1939   67.7642 H   0  0  0  0  0  0  0  0  0  0  0  0
    2.6991   64.0453   71.9318 H   0  0  0  0  0  0  0  0  0  0  0  0
    0.6300   66.7002   70.8238 H   0  0  0  0  0  0  0  0  0  0  0  0
   -1.1841   64.9918   71.5052 H   0  0  0  0  0  0  0  0  0  0  0  0
    0.6188   63.1997   72.7603 H   0  0  0  0  0  0  0  0  0  0  0  0
    0.9232   62.9852   69.7183 H   0  0  0  0  0  0  0  0  0  0  0  0
    1.7889   61.5251   72.0196 H   0  0  0  0  0  0  0  0  0  0  0  0
   -1.3189   62.3277   72.4576 H   0  0  0  0  0  0  0  0  0  0  0  0
   -0.1002   64.9024   73.7095 H   0  0  0  0  0  0  0  0  0  0  0  0
    4.3315   64.4622   69.9364 H   0  0  0  0  0  0  0  0  0  0  0  0
    4.1629   62.7722   70.5893 H   0  0  0  0  0  0  0  0  0  0  0  0
    2.7553   62.3057   68.8403 H   0  0  0  0  0  0  0  0  0  0  0  0
    3.4521   66.3211   66.0309 H   0  0  0  0  0  0  0  0  0  0  0  0
    1.8947   67.2581   62.7274 H   0  0  0  0  0  0  0  0  0  0  0  0
    2.9063   68.9077   61.1619 H   0  0  0  0  0  0  0  0  0  0  0  0
    5.1801   69.8262   61.6101 H   0  0  0  0  0  0  0  0  0  0  0  0
    6.4455   69.0913   63.6276 H   0  0  0  0  0  0  0  0  0  0  0  0
    5.4446   67.4379   65.1997 H   0  0  0  0  0  0  0  0  0  0  0  0
  2  1  1  0
  3  2  1  0
  4  3  1  0
  5  4  1  0
  6  5  1  0
  6  1  1  0
  7  6  1  0
  8  5  1  0
  9  4  1  0
 10  1  1  0
 11 10  1  0
 13 12  1  0
 14 13  1  0
 14 11  1  0
 15 14  1  0
 16 15  1  0
 17 16  1  0
 17 12  1  0
 18 17  1  0
 19 16  1  0
 20 15  1  0
 21 12  1  0
 22 21  1  0
 23  3  1  0
 24 23  1  0
 25 24  1  0
 26 25  2  0
 27 26  1  0
 28 27  2  0
 29 28  1  0
 30 29  2  0
 30 25  1  0
 31 24  1  0
 32 31  3  0
  1 33  1  1
  3 34  1  1
  4 35  1  6
  5 36  1  6
  6 37  1  1
  7 38  1  0
  8 39  1  0
  9 40  1  0
 10 41  1  0
 10 42  1  0
 12 43  1  1
 14 44  1  1
 15 45  1  6
 16 46  1  1
 17 47  1  6
 18 48  1  0
 19 49  1  0
 20 50  1  0
 21 51  1  0
 21 52  1  0
 22 53  1  0
 24 54  1  1
 26 55  1  0
 27 56  1  0
 28 57  1  0
 29 58  1  0
 30 59  1  0
M  END
>  <score>  (1) 
-8.271

$$$$
=
     RDKit          3D

 59 61  0  0  0  0  0  0  0  0999 V2000
    0.5930   67.8950   65.5230 C   0  0  1  0  0  0  0  0  0  0  0  0
    1.4900   68.5190   66.4620 O   0  0  0  0  0  0  0  0  0  0  0  0
    0.9010   69.2830   67.5070 C   0  0  2  0  0  0  0  0  0  0  0  0
   -0.4250   69.9430   67.1050 C   0  0  1  0  0  0  0  0  0  0  0  0
   -1.4540   68.8950   66.6690 C   0  0  2  0  0  0  0  0  0  0  0  0
   -0.8010   67.6250   66.1080 C   0  0  2  0  0  0  0  0  0  0  0  0
   -0.6580   66.6930   67.1960 O   0  0  0  0  0  0  0  0  0  0  0  0
   -2.3090   69.4780   65.6740 O   0  0  0  0  0  0  0  0  0  0  0  0
   -0.9760   70.7360   68.1690 O   0  0  0  0  0  0  0  0  0  0  0  0
    0.5590   68.7000   64.2110 C   0  0  0  0  0  0  0  0  0  0  0  0
    1.8940   68.9750   63.7710 O   0  0  0  0  0  0  0  0  0  0  0  0
    3.7610   66.4940   63.0440 C   0  0  1  0  0  0  0  0  0  0  0  0
    2.4250   66.9260   62.7590 O   0  0  0  0  0  0  0  0  0  0  0  0
    2.2440   68.3280   62.5460 C   0  0  2  0  0  0  0  0  0  0  0  0
    3.4640   69.0790   61.9560 C   0  0  1  0  0  0  0  0  0  0  0  0
    4.7810   68.7090   62.6560 C   0  0  2  0  0  0  0  0  0  0  0  0
    4.6110   67.5950   63.6890 C   0  0  2  0  0  0  0  0  0  0  0  0
    5.9030   67.1180   64.0900 O   0  0  0  0  0  0  0  0  0  0  0  0
    5.4100   69.8530   63.2520 O   0  0  0  0  0  0  0  0  0  0  0  0
    3.5800   68.7810   60.5530 O   0  0  0  0  0  0  0  0  0  0  0  0
    3.6990   65.2350   63.9220 C   0  0  0  0  0  0  0  0  0  0  0  0
    4.2200   64.0850   63.2650 O   0  0  0  0  0  0  0  0  0  0  0  0
    1.7780   70.3590   67.8790 O   0  0  0  0  0  0  0  0  0  0  0  0
    2.6470   70.0070   68.9700 C   0  0  2  0  0  0  0  0  0  0  0  0
    4.0770   70.1590   68.4760 C   0  0  0  0  0  0  0  0  0  0  0  0
    5.0830   70.6790   69.3100 C   0  0  0  0  0  0  0  0  0  0  0  0
    6.3900   70.8260   68.8430 C   0  0  0  0  0  0  0  0  0  0  0  0
    6.7090   70.4610   67.5370 C   0  0  0  0  0  0  0  0  0  0  0  0
    5.7230   69.9490   66.6960 C   0  0  0  0  0  0  0  0  0  0  0  0
    4.4140   69.8000   67.1600 C   0  0  0  0  0  0  0  0  0  0  0  0
    2.3790   68.6220   69.4360 C   0  0  0  0  0  0  0  0  0  0  0  0
    2.1480   67.5400   69.7980 N   0  0  0  0  0  0  0  0  0  0  0  0
    0.9870   66.8944   65.2914 H   0  0  0  0  0  0  0  0  0  0  0  0
    0.7229   68.5708   68.3261 H   0  0  0  0  0  0  0  0  0  0  0  0
   -0.1993   70.6068   66.2574 H   0  0  0  0  0  0  0  0  0  0  0  0
   -2.0294   68.5940   67.5569 H   0  0  0  0  0  0  0  0  0  0  0  0
   -1.4364   67.2357   65.2989 H   0  0  0  0  0  0  0  0  0  0  0  0
   -0.7322   67.1766   68.0567 H   0  0  0  0  0  0  0  0  0  0  0  0
   -3.0400   69.9765   66.1181 H   0  0  0  0  0  0  0  0  0  0  0  0
   -0.7082   70.3505   69.0406 H   0  0  0  0  0  0  0  0  0  0  0  0
    0.0338   68.1176   63.4397 H   0  0  0  0  0  0  0  0  0  0  0  0
    0.0325   69.6502   64.3836 H   0  0  0  0  0  0  0  0  0  0  0  0
    4.2619   66.2545   62.0944 H   0  0  0  0  0  0  0  0  0  0  0  0
    1.4413   68.3798   61.7956 H   0  0  0  0  0  0  0  0  0  0  0  0
    3.2909   70.1535   62.1158 H   0  0  0  0  0  0  0  0  0  0  0  0
    5.4409   68.3240   61.8646 H   0  0  0  0  0  0  0  0  0  0  0  0
    4.1027   67.9527   64.5966 H   0  0  0  0  0  0  0  0  0  0  0  0
    5.9554   67.0986   65.0784 H   0  0  0  0  0  0  0  0  0  0  0  0
    5.3679   69.7764   64.2381 H   0  0  0  0  0  0  0  0  0  0  0  0
    3.9367   67.8646   60.4387 H   0  0  0  0  0  0  0  0  0  0  0  0
    4.2836   65.4138   64.8365 H   0  0  0  0  0  0  0  0  0  0  0  0
    2.6409   65.0386   64.1497 H   0  0  0  0  0  0  0  0  0  0  0  0
    4.5186   63.4259   63.9406 H   0  0  0  0  0  0  0  0  0  0  0  0
    2.4721   70.6660   69.8332 H   0  0  0  0  0  0  0  0  0  0  0  0
    4.8372   70.9729   70.3411 H   0  0  0  0  0  0  0  0  0  0  0  0
    7.1686   71.2303   69.5065 H   0  0  0  0  0  0  0  0  0  0  0  0
    7.7393   70.5770   67.1696 H   0  0  0  0  0  0  0  0  0  0  0  0
    5.9760   69.6616   65.6648 H   0  0  0  0  0  0  0  0  0  0  0  0
    3.6402   69.3981   66.4893 H   0  0  0  0  0  0  0  0  0  0  0  0
  2  1  1  0
  3  2  1  0
  4  3  1  0
  5  4  1  0
  6  5  1  0
  6  1  1  0
  7  6  1  0
  8  5  1  0
  9  4  1  0
 10  1  1  0
 11 10  1  0
 13 12  1  0
 14 13  1  0
 14 11  1  0
 15 14  1  0
 16 15  1  0
 17 16  1  0
 17 12  1  0
 18 17  1  0
 19 16  1  0
 20 15  1  0
 21 12  1  0
 22 21  1  0
 23  3  1  0
 24 23  1  0
 25 24  1  0
 26 25  2  0
 27 26  1  0
 28 27  2  0
 29 28  1  0
 30 29  2  0
 30 25  1  0
 31 24  1  0
 32 31  3  0
  1 33  1  6
  3 34  1  1
  4 35  1  6
  5 36  1  1
  6 37  1  6
  7 38  1  0
  8 39  1  0
  9 40  1  0
 10 41  1  0
 10 42  1  0
 12 43  1  6
 14 44  1  6
 15 45  1  6
 16 46  1  6
 17 47  1  1
 18 48  1  0
 19 49  1  0
 20 50  1  0
 21 51  1  0
 21 52  1  0
 22 53  1  0
 24 54  1  1
 26 55  1  0
 27 56  1  0
 28 57  1  0
 29 58  1  0
 30 59  1  0
M  END
>  <score>  (2) 
-7.891

$$$$
=
     RDKit          3D

 59 61  0  0  0  0  0  0  0  0999 V2000
    0.9220   60.0950   75.4520 C   0  0  1  0  0  0  0  0  0  0  0  0
    1.7540   59.7870   74.3170 O   0  0  0  0  0  0  0  0  0  0  0  0
    1.6640   60.6560   73.1950 C   0  0  2  0  0  0  0  0  0  0  0  0
    0.2740   61.2850   73.0230 C   0  0  1  0  0  0  0  0  0  0  0  0
   -0.1240   62.0940   74.2620 C   0  0  2  0  0  0  0  0  0  0  0  0
    0.5510   61.5830   75.5410 C   0  0  2  0  0  0  0  0  0  0  0  0
    1.7640   62.3380   75.7250 O   0  0  0  0  0  0  0  0  0  0  0  0
   -1.5500   62.0330   74.4110 O   0  0  0  0  0  0  0  0  0  0  0  0
    0.2040   62.1290   71.8630 O   0  0  0  0  0  0  0  0  0  0  0  0
   -0.2990   59.1580   75.4810 C   0  0  0  0  0  0  0  0  0  0  0  0
    0.0570   57.9100   76.0880 O   0  0  0  0  0  0  0  0  0  0  0  0
    0.8330   54.8190   75.9610 C   0  0  1  0  0  0  0  0  0  0  0  0
   -0.3320   55.6020   76.2470 O   0  0  0  0  0  0  0  0  0  0  0  0
   -0.5240   56.7710   75.4480 C   0  0  2  0  0  0  0  0  0  0  0  0
    0.0520   56.7030   74.0110 C   0  0  1  0  0  0  0  0  0  0  0  0
    1.4800   56.1350   73.9730 C   0  0  2  0  0  0  0  0  0  0  0  0
    1.9620   55.6510   75.3400 C   0  0  2  0  0  0  0  0  0  0  0  0
    3.1680   54.8910   75.1780 O   0  0  0  0  0  0  0  0  0  0  0  0
    2.4130   57.0710   73.4150 O   0  0  0  0  0  0  0  0  0  0  0  0
   -0.8000   55.8830   73.1900 O   0  0  0  0  0  0  0  0  0  0  0  0
    1.2860   54.1130   77.2470 C   0  0  0  0  0  0  0  0  0  0  0  0
    2.2670   54.8570   77.9620 O   0  0  0  0  0  0  0  0  0  0  0  0
    1.9140   59.9210   71.9860 O   0  0  0  0  0  0  0  0  0  0  0  0
    3.3150   59.8450   71.6690 C   0  0  2  0  0  0  0  0  0  0  0  0
    3.6580   61.0720   70.8390 C   0  0  0  0  0  0  0  0  0  0  0  0
    4.5560   62.0440   71.3140 C   0  0  0  0  0  0  0  0  0  0  0  0
    4.8550   63.1730   70.5500 C   0  0  0  0  0  0  0  0  0  0  0  0
    4.2590   63.3490   69.3030 C   0  0  0  0  0  0  0  0  0  0  0  0
    3.3630   62.3970   68.8190 C   0  0  0  0  0  0  0  0  0  0  0  0
    3.0620   61.2660   69.5820 C   0  0  0  0  0  0  0  0  0  0  0  0
    3.6260   58.5910   70.9370 C   0  0  0  0  0  0  0  0  0  0  0  0
    3.8490   57.6030   70.3620 N   0  0  0  0  0  0  0  0  0  0  0  0
    1.5082   59.9076   76.3638 H   0  0  0  0  0  0  0  0  0  0  0  0
    2.4057   61.4476   73.3776 H   0  0  0  0  0  0  0  0  0  0  0  0
   -0.4310   60.4512   72.8896 H   0  0  0  0  0  0  0  0  0  0  0  0
    0.2131   63.1305   74.1139 H   0  0  0  0  0  0  0  0  0  0  0  0
   -0.1532   61.7049   76.3772 H   0  0  0  0  0  0  0  0  0  0  0  0
    1.9407   62.4480   76.6929 H   0  0  0  0  0  0  0  0  0  0  0  0
   -1.7811   62.0231   75.3736 H   0  0  0  0  0  0  0  0  0  0  0  0
    0.1256   63.0742   72.1469 H   0  0  0  0  0  0  0  0  0  0  0  0
   -1.1060   59.6287   76.0617 H   0  0  0  0  0  0  0  0  0  0  0  0
   -0.6391   58.9752   74.4510 H   0  0  0  0  0  0  0  0  0  0  0  0
    0.5720   54.0653   75.2035 H   0  0  0  0  0  0  0  0  0  0  0  0
   -1.6171   56.8493   75.3528 H   0  0  0  0  0  0  0  0  0  0  0  0
    0.0919   57.7336   73.6285 H   0  0  0  0  0  0  0  0  0  0  0  0
    1.4341   55.2566   73.3125 H   0  0  0  0  0  0  0  0  0  0  0  0
    2.1965   56.4912   76.0101 H   0  0  0  0  0  0  0  0  0  0  0  0
    3.5346   54.6600   76.0682 H   0  0  0  0  0  0  0  0  0  0  0  0
    2.8839   57.5434   74.1465 H   0  0  0  0  0  0  0  0  0  0  0  0
   -1.3788   55.3259   73.7685 H   0  0  0  0  0  0  0  0  0  0  0  0
    0.4104   53.9682   77.8969 H   0  0  0  0  0  0  0  0  0  0  0  0
    1.7395   53.1532   76.9588 H   0  0  0  0  0  0  0  0  0  0  0  0
    2.1209   54.7462   78.9349 H   0  0  0  0  0  0  0  0  0  0  0  0
    3.9199   59.8278   72.5876 H   0  0  0  0  0  0  0  0  0  0  0  0
    5.0282   61.9131   72.2988 H   0  0  0  0  0  0  0  0  0  0  0  0
    5.5616   63.9243   70.9325 H   0  0  0  0  0  0  0  0  0  0  0  0
    4.4953   64.2386   68.7007 H   0  0  0  0  0  0  0  0  0  0  0  0
    2.8922   62.5365   67.8347 H   0  0  0  0  0  0  0  0  0  0  0  0
    2.3517   60.5206   69.1948 H   0  0  0  0  0  0  0  0  0  0  0  0
  2  1  1  0
  3  2  1  0
  4  3  1  0
  5  4  1  0
  6  5  1  0
  6  1  1  0
  7  6  1  0
  8  5  1  0
  9  4  1  0
 10  1  1  0
 11 10  1  0
 13 12  1  0
 14 13  1  0
 14 11  1  0
 15 14  1  0
 16 15  1  0
 17 16  1  0
 17 12  1  0
 18 17  1  0
 19 16  1  0
 20 15  1  0
 21 12  1  0
 22 21  1  0
 23  3  1  0
 24 23  1  0
 25 24  1  0
 26 25  2  0
 27 26  1  0
 28 27  2  0
 29 28  1  0
 30 29  2  0
 30 25  1  0
 31 24  1  0
 32 31  3  0
  1 33  1  1
  3 34  1  1
  4 35  1  6
  5 36  1  6
  6 37  1  1
  7 38  1  0
  8 39  1  0
  9 40  1  0
 10 41  1  0
 10 42  1  0
 12 43  1  6
 14 44  1  6
 15 45  1  6
 16 46  1  6
 17 47  1  1
 18 48  1  0
 19 49  1  0
 20 50  1  0
 21 51  1  0
 21 52  1  0
 22 53  1  0
 24 54  1  1
 26 55  1  0
 27 56  1  0
 28 57  1  0
 29 58  1  0
 30 59  1  0
M  END
>  <score>  (3) 
-7.566

$$$$
=
     RDKit          3D

 59 61  0  0  0  0  0  0  0  0999 V2000
    0.2960   67.6070   68.2330 C   0  0  1  0  0  0  0  0  0  0  0  0
    1.1190   67.2210   67.1160 O   0  0  0  0  0  0  0  0  0  0  0  0
    0.8370   67.8340   65.8640 C   0  0  2  0  0  0  0  0  0  0  0  0
   -0.6450   68.1920   65.6830 C   0  0  1  0  0  0  0  0  0  0  0  0
   -1.1200   69.1510   66.7790 C   0  0  2  0  0  0  0  0  0  0  0  0
   -0.3150   69.0070   68.0770 C   0  0  2  0  0  0  0  0  0  0  0  0
    0.7600   69.9640   68.0310 O   0  0  0  0  0  0  0  0  0  0  0  0
   -2.5090   68.8970   67.0410 O   0  0  0  0  0  0  0  0  0  0  0  0
   -0.9040   68.7760   64.3960 O   0  0  0  0  0  0  0  0  0  0  0  0
   -0.7490   66.5140   68.5220 C   0  0  0  0  0  0  0  0  0  0  0  0
   -0.1270   65.4070   69.1860 O   0  0  0  0  0  0  0  0  0  0  0  0
    2.3450   64.2040   70.8040 C   0  0  1  0  0  0  0  0  0  0  0  0
    1.9170   65.4890   70.3360 O   0  0  0  0  0  0  0  0  0  0  0  0
    0.5150   65.7580   70.4140 C   0  0  2  0  0  0  0  0  0  0  0  0
   -0.2430   65.0380   71.5570 C   0  0  1  0  0  0  0  0  0  0  0  0
    0.1240   63.5490   71.6630 C   0  0  2  0  0  0  0  0  0  0  0  0
    1.2420   63.1440   70.7020 C   0  0  2  0  0  0  0  0  0  0  0  0
    1.7150   61.8340   71.0480 O   0  0  0  0  0  0  0  0  0  0  0  0
   -1.0210   62.7020   71.4860 O   0  0  0  0  0  0  0  0  0  0  0  0
    0.0510   65.6820   72.8100 O   0  0  0  0  0  0  0  0  0  0  0  0
    3.6060   63.7900   70.0320 C   0  0  0  0  0  0  0  0  0  0  0  0
    3.3050   63.1440   68.8000 O   0  0  0  0  0  0  0  0  0  0  0  0
    1.1560   66.9300   64.7940 O   0  0  0  0  0  0  0  0  0  0  0  0
    2.4280   67.2200   64.1900 C   0  0  2  0  0  0  0  0  0  0  0  0
    3.2330   65.9300   64.1900 C   0  0  0  0  0  0  0  0  0  0  0  0
    3.0630   64.9660   65.2000 C   0  0  0  0  0  0  0  0  0  0  0  0
    3.8160   63.7910   65.1980 C   0  0  0  0  0  0  0  0  0  0  0  0
    4.7510   63.5640   64.1900 C   0  0  0  0  0  0  0  0  0  0  0  0
    4.9350   64.5110   63.1840 C   0  0  0  0  0  0  0  0  0  0  0  0
    4.1830   65.6880   63.1830 C   0  0  0  0  0  0  0  0  0  0  0  0
    3.1330   68.2980   64.9290 C   0  0  0  0  0  0  0  0  0  0  0  0
    3.7020   69.1420   65.4950 N   0  0  0  0  0  0  0  0  0  0  0  0
    0.9442   67.6919   69.1176 H   0  0  0  0  0  0  0  0  0  0  0  0
    1.4421   68.7524   65.8445 H   0  0  0  0  0  0  0  0  0  0  0  0
   -1.2056   67.2484   65.7566 H   0  0  0  0  0  0  0  0  0  0  0  0
   -0.9682   70.1796   66.4199 H   0  0  0  0  0  0  0  0  0  0  0  0
   -0.9932   69.1748   68.9267 H   0  0  0  0  0  0  0  0  0  0  0  0
    1.0286   70.2031   68.9534 H   0  0  0  0  0  0  0  0  0  0  0  0
   -2.6607   68.8693   68.0189 H   0  0  0  0  0  0  0  0  0  0  0  0
   -1.3024   69.6744   64.5154 H   0  0  0  0  0  0  0  0  0  0  0  0
   -1.5403   66.9270   69.1649 H   0  0  0  0  0  0  0  0  0  0  0  0
   -1.1835   66.1686   67.5723 H   0  0  0  0  0  0  0  0  0  0  0  0
    2.5805   64.2809   71.8757 H   0  0  0  0  0  0  0  0  0  0  0  0
    0.4644   66.8364   70.6249 H   0  0  0  0  0  0  0  0  0  0  0  0
   -1.3163   65.1028   71.3248 H   0  0  0  0  0  0  0  0  0  0  0  0
    0.5043   63.4075   72.6854 H   0  0  0  0  0  0  0  0  0  0  0  0
    0.8888   63.0957   69.6614 H   0  0  0  0  0  0  0  0  0  0  0  0
    1.7473   61.7444   72.0334 H   0  0  0  0  0  0  0  0  0  0  0  0
   -1.3768   62.4388   72.3716 H   0  0  0  0  0  0  0  0  0  0  0  0
   -0.2191   65.0904   73.5564 H   0  0  0  0  0  0  0  0  0  0  0  0
    4.2019   64.6903   69.8215 H   0  0  0  0  0  0  0  0  0  0  0  0
    4.1600   63.0744   70.6573 H   0  0  0  0  0  0  0  0  0  0  0  0
    2.8940   62.2619   68.9817 H   0  0  0  0  0  0  0  0  0  0  0  0
    2.2941   67.5836   63.1605 H   0  0  0  0  0  0  0  0  0  0  0  0
    2.3285   65.1401   66.0002 H   0  0  0  0  0  0  0  0  0  0  0  0
    3.6714   63.0439   65.9923 H   0  0  0  0  0  0  0  0  0  0  0  0
    5.3439   62.6374   64.1882 H   0  0  0  0  0  0  0  0  0  0  0  0
    5.6739   64.3311   62.3893 H   0  0  0  0  0  0  0  0  0  0  0  0
    4.3356   66.4319   62.3872 H   0  0  0  0  0  0  0  0  0  0  0  0
  2  1  1  0
  3  2  1  0
  4  3  1  0
  5  4  1  0
  6  5  1  0
  6  1  1  0
  7  6  1  0
  8  5  1  0
  9  4  1  0
 10  1  1  0
 11 10  1  0
 13 12  1  0
 14 13  1  0
 14 11  1  0
 15 14  1  0
 16 15  1  0
 17 16  1  0
 17 12  1  0
 18 17  1  0
 19 16  1  0
 20 15  1  0
 21 12  1  0
 22 21  1  0
 23  3  1  0
 24 23  1  0
 25 24  1  0
 26 25  2  0
 27 26  1  0
 28 27  2  0
 29 28  1  0
 30 29  2  0
 30 25  1  0
 31 24  1  0
 32 31  3  0
  1 33  1  1
  3 34  1  6
  4 35  1  6
  5 36  1  6
  6 37  1  1
  7 38  1  0
  8 39  1  0
  9 40  1  0
 10 41  1  0
 10 42  1  0
 12 43  1  1
 14 44  1  1
 15 45  1  6
 16 46  1  1
 17 47  1  6
 18 48  1  0
 19 49  1  0
 20 50  1  0
 21 51  1  0
 21 52  1  0
 22 53  1  0
 24 54  1  6
 26 55  1  0
 27 56  1  0
 28 57  1  0
 29 58  1  0
 30 59  1  0
M  END
>  <score>  (4) 
-7.565

$$$$
=
     RDKit          3D

 59 61  0  0  0  0  0  0  0  0999 V2000
    1.0840   61.9280   76.6710 C   0  0  1  0  0  0  0  0  0  0  0  0
    1.8950   61.7420   75.4950 O   0  0  0  0  0  0  0  0  0  0  0  0
    1.5330   62.4840   74.3360 C   0  0  2  0  0  0  0  0  0  0  0  0
    0.0250   62.7550   74.2360 C   0  0  1  0  0  0  0  0  0  0  0  0
   -0.4790   63.5350   75.4550 C   0  0  2  0  0  0  0  0  0  0  0  0
    0.3750   63.2900   76.7050 C   0  0  2  0  0  0  0  0  0  0  0  0
    1.3810   64.3190   76.7540 O   0  0  0  0  0  0  0  0  0  0  0  0
   -1.8380   63.1530   75.7150 O   0  0  0  0  0  0  0  0  0  0  0  0
   -0.3140   63.4730   73.0390 O   0  0  0  0  0  0  0  0  0  0  0  0
    0.1250   60.7360   76.8440 C   0  0  0  0  0  0  0  0  0  0  0  0
    0.8350   59.5060   76.6520 O   0  0  0  0  0  0  0  0  0  0  0  0
    1.3430   56.5840   75.4780 C   0  0  1  0  0  0  0  0  0  0  0  0
    0.6940   57.1640   76.6160 O   0  0  0  0  0  0  0  0  0  0  0  0
   -0.0130   58.3860   76.3890 C   0  0  2  0  0  0  0  0  0  0  0  0
   -0.5960   58.5690   74.9650 C   0  0  1  0  0  0  0  0  0  0  0  0
    0.4120   58.2050   73.8630 C   0  0  2  0  0  0  0  0  0  0  0  0
    1.7140   57.6280   74.4180 C   0  0  2  0  0  0  0  0  0  0  0  0
    2.4790   57.0610   73.3440 O   0  0  0  0  0  0  0  0  0  0  0  0
    0.6850   59.3170   72.9990 O   0  0  0  0  0  0  0  0  0  0  0  0
   -1.7690   57.7480   74.8160 O   0  0  0  0  0  0  0  0  0  0  0  0
    2.5710   55.7950   75.9560 C   0  0  0  0  0  0  0  0  0  0  0  0
    2.9900   54.8140   75.0140 O   0  0  0  0  0  0  0  0  0  0  0  0
    1.8770   61.7430   73.1550 O   0  0  0  0  0  0  0  0  0  0  0  0
    3.2860   61.7910   72.8680 C   0  0  2  0  0  0  0  0  0  0  0  0
    3.4350   62.1320   71.3940 C   0  0  0  0  0  0  0  0  0  0  0  0
    2.5810   61.5720   70.4270 C   0  0  0  0  0  0  0  0  0  0  0  0
    2.7350   61.8820   69.0750 C   0  0  0  0  0  0  0  0  0  0  0  0
    3.7450   62.7510   68.6700 C   0  0  0  0  0  0  0  0  0  0  0  0
    4.6030   63.3120   69.6140 C   0  0  0  0  0  0  0  0  0  0  0  0
    4.4520   63.0040   70.9680 C   0  0  0  0  0  0  0  0  0  0  0  0
    3.9380   60.4960   73.1930 C   0  0  0  0  0  0  0  0  0  0  0  0
    4.4600   59.4820   73.4290 N   0  0  0  0  0  0  0  0  0  0  0  0
    1.7522   61.9492   77.5445 H   0  0  0  0  0  0  0  0  0  0  0  0
    2.0741   63.4383   74.4170 H   0  0  0  0  0  0  0  0  0  0  0  0
   -0.4677   61.7721   74.2038 H   0  0  0  0  0  0  0  0  0  0  0  0
   -0.4090   64.6083   75.2245 H   0  0  0  0  0  0  0  0  0  0  0  0
   -0.2857   63.3036   77.5844 H   0  0  0  0  0  0  0  0  0  0  0  0
    1.5894   64.5321   77.6981 H   0  0  0  0  0  0  0  0  0  0  0  0
   -1.9877   63.1109   76.6927 H   0  0  0  0  0  0  0  0  0  0  0  0
   -0.7240   64.3413   73.2800 H   0  0  0  0  0  0  0  0  0  0  0  0
   -0.3023   60.7560   77.8574 H   0  0  0  0  0  0  0  0  0  0  0  0
   -0.6808   60.8088   76.0988 H   0  0  0  0  0  0  0  0  0  0  0  0
    0.6388   55.8996   74.9823 H   0  0  0  0  0  0  0  0  0  0  0  0
   -0.8667   58.3294   77.0803 H   0  0  0  0  0  0  0  0  0  0  0  0
   -0.8460   59.6342   74.8515 H   0  0  0  0  0  0  0  0  0  0  0  0
   -0.0693   57.4148   73.2681 H   0  0  0  0  0  0  0  0  0  0  0  0
    2.3376   58.4045   74.8851 H   0  0  0  0  0  0  0  0  0  0  0  0
    3.2160   56.5148   73.7163 H   0  0  0  0  0  0  0  0  0  0  0  0
    0.8818   60.1188   73.5453 H   0  0  0  0  0  0  0  0  0  0  0  0
   -2.1171   57.5044   75.7102 H   0  0  0  0  0  0  0  0  0  0  0  0
    3.3992   56.4992   76.1237 H   0  0  0  0  0  0  0  0  0  0  0  0
    2.2914   55.2709   76.8818 H   0  0  0  0  0  0  0  0  0  0  0  0
    3.3298   54.0184   75.4952 H   0  0  0  0  0  0  0  0  0  0  0  0
    3.7820   62.5539   73.4860 H   0  0  0  0  0  0  0  0  0  0  0  0
    1.7832   60.8823   70.7397 H   0  0  0  0  0  0  0  0  0  0  0  0
    2.0583   61.4397   68.3290 H   0  0  0  0  0  0  0  0  0  0  0  0
    3.8656   62.9948   67.6042 H   0  0  0  0  0  0  0  0  0  0  0  0
    5.4002   63.9983   69.2924 H   0  0  0  0  0  0  0  0  0  0  0  0
    5.1349   63.4477   71.7075 H   0  0  0  0  0  0  0  0  0  0  0  0
  2  1  1  0
  3  2  1  0
  4  3  1  0
  5  4  1  0
  6  5  1  0
  6  1  1  0
  7  6  1  0
  8  5  1  0
  9  4  1  0
 10  1  1  0
 11 10  1  0
 13 12  1  0
 14 13  1  0
 14 11  1  0
 15 14  1  0
 16 15  1  0
 17 16  1  0
 17 12  1  0
 18 17  1  0
 19 16  1  0
 20 15  1  0
 21 12  1  0
 22 21  1  0
 23  3  1  0
 24 23  1  0
 25 24  1  0
 26 25  2  0
 27 26  1  0
 28 27  2  0
 29 28  1  0
 30 29  2  0
 30 25  1  0
 31 24  1  0
 32 31  3  0
  1 33  1  1
  3 34  1  6
  4 35  1  6
  5 36  1  6
  6 37  1  1
  7 38  1  0
  8 39  1  0
  9 40  1  0
 10 41  1  0
 10 42  1  0
 12 43  1  6
 14 44  1  1
 15 45  1  6
 16 46  1  6
 17 47  1  1
 18 48  1  0
 19 49  1  0
 20 50  1  0
 21 51  1  0
 21 52  1  0
 22 53  1  0
 24 54  1  1
 26 55  1  0
 27 56  1  0
 28 57  1  0
 29 58  1  0
 30 59  1  0
M  END
>  <score>  (5) 
-7.257

$$$$
=
     RDKit          3D

 59 61  0  0  0  0  0  0  0  0999 V2000
    2.7170   58.0360   73.9390 C   0  0  1  0  0  0  0  0  0  0  0  0
    2.8930   59.3260   73.3220 O   0  0  0  0  0  0  0  0  0  0  0  0
    2.9830   60.4500   74.1900 C   0  0  2  0  0  0  0  0  0  0  0  0
    2.1750   60.2830   75.4850 C   0  0  1  0  0  0  0  0  0  0  0  0
    2.6430   59.0570   76.2750 C   0  0  2  0  0  0  0  0  0  0  0  0
    3.2560   57.9760   75.3760 C   0  0  2  0  0  0  0  0  0  0  0  0
    4.6780   58.2000   75.3310 O   0  0  0  0  0  0  0  0  0  0  0  0
    1.5220   58.5140   76.9870 O   0  0  0  0  0  0  0  0  0  0  0  0
    2.2570   61.4480   76.3230 O   0  0  0  0  0  0  0  0  0  0  0  0
    1.2480   57.5900   73.8190 C   0  0  0  0  0  0  0  0  0  0  0  0
    1.1230   56.2150   74.2000 O   0  0  0  0  0  0  0  0  0  0  0  0
    0.5000   54.9520   77.0620 C   0  0  1  0  0  0  0  0  0  0  0  0
    0.1070   56.1080   76.3130 O   0  0  0  0  0  0  0  0  0  0  0  0
   -0.0830   55.9200   74.9090 C   0  0  2  0  0  0  0  0  0  0  0  0
   -0.5400   54.5030   74.4780 C   0  0  1  0  0  0  0  0  0  0  0  0
    0.2660   53.3880   75.1640 C   0  0  2  0  0  0  0  0  0  0  0  0
    1.2490   53.9230   76.2060 C   0  0  2  0  0  0  0  0  0  0  0  0
    1.7520   52.8310   76.9890 O   0  0  0  0  0  0  0  0  0  0  0  0
    0.9480   52.5580   74.2120 O   0  0  0  0  0  0  0  0  0  0  0  0
   -1.9340   54.3310   74.7890 O   0  0  0  0  0  0  0  0  0  0  0  0
    1.3330   55.4030   78.2700 C   0  0  0  0  0  0  0  0  0  0  0  0
    2.6880   55.6760   77.9280 O   0  0  0  0  0  0  0  0  0  0  0  0
    2.4460   61.6130   73.5390 O   0  0  0  0  0  0  0  0  0  0  0  0
    1.6700   61.2820   72.3740 C   0  0  2  0  0  0  0  0  0  0  0  0
    2.3920   61.8650   71.1700 C   0  0  0  0  0  0  0  0  0  0  0  0
    3.0240   61.0340   70.2280 C   0  0  0  0  0  0  0  0  0  0  0  0
    3.6950   61.5790   69.1320 C   0  0  0  0  0  0  0  0  0  0  0  0
    3.7470   62.9610   68.9640 C   0  0  0  0  0  0  0  0  0  0  0  0
    3.1300   63.7990   69.8910 C   0  0  0  0  0  0  0  0  0  0  0  0
    2.4580   63.2560   70.9880 C   0  0  0  0  0  0  0  0  0  0  0  0
    0.2880   61.8140   72.4870 C   0  0  0  0  0  0  0  0  0  0  0  0
   -0.7890   62.2440   72.5940 N   0  0  0  0  0  0  0  0  0  0  0  0
    3.3333   57.3098   73.3887 H   0  0  0  0  0  0  0  0  0  0  0  0
    4.0511   60.5490   74.4336 H   0  0  0  0  0  0  0  0  0  0  0  0
    1.1264   60.1428   75.1837 H   0  0  0  0  0  0  0  0  0  0  0  0
    3.4315   59.3816   76.9699 H   0  0  0  0  0  0  0  0  0  0  0  0
    2.9969   56.9915   75.7927 H   0  0  0  0  0  0  0  0  0  0  0  0
    5.0326   58.2559   76.2536 H   0  0  0  0  0  0  0  0  0  0  0  0
    1.6810   58.5910   77.9611 H   0  0  0  0  0  0  0  0  0  0  0  0
    2.2376   61.1726   77.2737 H   0  0  0  0  0  0  0  0  0  0  0  0
    0.6237   58.2096   74.4795 H   0  0  0  0  0  0  0  0  0  0  0  0
    0.9178   57.7082   72.7764 H   0  0  0  0  0  0  0  0  0  0  0  0
   -0.4060   54.4371   77.4142 H   0  0  0  0  0  0  0  0  0  0  0  0
   -0.9010   56.6116   74.6589 H   0  0  0  0  0  0  0  0  0  0  0  0
   -0.3673   54.4231   73.3946 H   0  0  0  0  0  0  0  0  0  0  0  0
   -0.4722   52.7701   75.6962 H   0  0  0  0  0  0  0  0  0  0  0  0
    2.1157   54.4117   75.7370 H   0  0  0  0  0  0  0  0  0  0  0  0
    1.6546   53.0425   77.9512 H   0  0  0  0  0  0  0  0  0  0  0  0
    1.4978   51.8889   74.6917 H   0  0  0  0  0  0  0  0  0  0  0  0
   -2.0535   54.3163   75.7717 H   0  0  0  0  0  0  0  0  0  0  0  0
    0.8837   56.3164   78.6868 H   0  0  0  0  0  0  0  0  0  0  0  0
    1.3324   54.5813   79.0013 H   0  0  0  0  0  0  0  0  0  0  0  0
    3.2218   55.7835   78.7548 H   0  0  0  0  0  0  0  0  0  0  0  0
    1.5758   60.1911   72.2685 H   0  0  0  0  0  0  0  0  0  0  0  0
    2.9892   59.9421   70.3563 H   0  0  0  0  0  0  0  0  0  0  0  0
    4.1827   60.9173   68.4010 H   0  0  0  0  0  0  0  0  0  0  0  0
    4.2749   63.3907   68.0999 H   0  0  0  0  0  0  0  0  0  0  0  0
    3.1725   64.8901   69.7583 H   0  0  0  0  0  0  0  0  0  0  0  0
    1.9757   63.9242   71.7166 H   0  0  0  0  0  0  0  0  0  0  0  0
  2  1  1  0
  3  2  1  0
  4  3  1  0
  5  4  1  0
  6  5  1  0
  6  1  1  0
  7  6  1  0
  8  5  1  0
  9  4  1  0
 10  1  1  0
 11 10  1  0
 13 12  1  0
 14 13  1  0
 14 11  1  0
 15 14  1  0
 16 15  1  0
 17 16  1  0
 17 12  1  0
 18 17  1  0
 19 16  1  0
 20 15  1  0
 21 12  1  0
 22 21  1  0
 23  3  1  0
 24 23  1  0
 25 24  1  0
 26 25  2  0
 27 26  1  0
 28 27  2  0
 29 28  1  0
 30 29  2  0
 30 25  1  0
 31 24  1  0
 32 31  3  0
  1 33  1  6
  3 34  1  1
  4 35  1  6
  5 36  1  1
  6 37  1  1
  7 38  1  0
  8 39  1  0
  9 40  1  0
 10 41  1  0
 10 42  1  0
 12 43  1  1
 14 44  1  6
 15 45  1  6
 16 46  1  1
 17 47  1  6
 18 48  1  0
 19 49  1  0
 20 50  1  0
 21 51  1  0
 21 52  1  0
 22 53  1  0
 24 54  1  6
 26 55  1  0
 27 56  1  0
 28 57  1  0
 29 58  1  0
 30 59  1  0
M  END
>  <score>  (6) 
-7.148

$$$$
=
     RDKit          3D

 59 61  0  0  0  0  0  0  0  0999 V2000
    1.7770   59.2860   75.6540 C   0  0  1  0  0  0  0  0  0  0  0  0
    2.3690   59.3590   74.3430 O   0  0  0  0  0  0  0  0  0  0  0  0
    1.7540   60.2330   73.4040 C   0  0  2  0  0  0  0  0  0  0  0  0
    0.2390   60.3770   73.6100 C   0  0  1  0  0  0  0  0  0  0  0  0
   -0.0800   60.9110   75.0100 C   0  0  2  0  0  0  0  0  0  0  0  0
    1.0020   60.5560   76.0370 C   0  0  2  0  0  0  0  0  0  0  0  0
    1.9330   61.6530   76.0850 O   0  0  0  0  0  0  0  0  0  0  0  0
   -1.3420   60.3700   75.4300 O   0  0  0  0  0  0  0  0  0  0  0  0
   -0.3580   61.2370   72.6260 O   0  0  0  0  0  0  0  0  0  0  0  0
    0.9430   57.9990   75.7870 C   0  0  0  0  0  0  0  0  0  0  0  0
    1.7960   56.8520   75.6900 O   0  0  0  0  0  0  0  0  0  0  0  0
   -0.6890   55.0290   74.8680 C   0  0  1  0  0  0  0  0  0  0  0  0
    0.1170   56.0470   74.2620 O   0  0  0  0  0  0  0  0  0  0  0  0
    1.5140   56.0160   74.5660 C   0  0  2  0  0  0  0  0  0  0  0  0
    2.1020   54.6150   74.8710 C   0  0  1  0  0  0  0  0  0  0  0  0
    1.2240   53.8020   75.8360 C   0  0  2  0  0  0  0  0  0  0  0  0
   -0.0880   54.5070   76.1790 C   0  0  2  0  0  0  0  0  0  0  0  0
   -0.9630   53.5850   76.8460 O   0  0  0  0  0  0  0  0  0  0  0  0
    1.9310   53.4500   77.0340 O   0  0  0  0  0  0  0  0  0  0  0  0
    2.2520   53.8780   73.6430 O   0  0  0  0  0  0  0  0  0  0  0  0
   -2.1100   55.5760   75.0700 C   0  0  0  0  0  0  0  0  0  0  0  0
   -3.0800   54.5420   75.1970 O   0  0  0  0  0  0  0  0  0  0  0  0
    1.9220   59.7170   72.0740 O   0  0  0  0  0  0  0  0  0  0  0  0
    3.3050   59.6360   71.6870 C   0  0  2  0  0  0  0  0  0  0  0  0
    3.6200   60.8810   70.8720 C   0  0  0  0  0  0  0  0  0  0  0  0
    4.4700   61.8830   71.3730 C   0  0  0  0  0  0  0  0  0  0  0  0
    4.7430   63.0270   70.6230 C   0  0  0  0  0  0  0  0  0  0  0  0
    4.1690   63.1880   69.3640 C   0  0  0  0  0  0  0  0  0  0  0  0
    3.3210   62.2070   68.8540 C   0  0  0  0  0  0  0  0  0  0  0  0
    3.0460   61.0600   69.6030 C   0  0  0  0  0  0  0  0  0  0  0  0
    3.5670   58.3980   70.9090 C   0  0  0  0  0  0  0  0  0  0  0  0
    3.7880   57.4230   70.3120 N   0  0  0  0  0  0  0  0  0  0  0  0
    2.5919   59.2330   76.3910 H   0  0  0  0  0  0  0  0  0  0  0  0
    2.2392   61.2093   73.5501 H   0  0  0  0  0  0  0  0  0  0  0  0
   -0.1891   59.3699   73.4981 H   0  0  0  0  0  0  0  0  0  0  0  0
   -0.1201   62.0089   74.9545 H   0  0  0  0  0  0  0  0  0  0  0  0
    0.5145   60.3734   77.0060 H   0  0  0  0  0  0  0  0  0  0  0  0
    2.1263   61.8807   77.0289 H   0  0  0  0  0  0  0  0  0  0  0  0
   -1.3811   60.3532   76.4191 H   0  0  0  0  0  0  0  0  0  0  0  0
   -0.8597   61.9597   73.0801 H   0  0  0  0  0  0  0  0  0  0  0  0
    0.4341   57.9935   76.7622 H   0  0  0  0  0  0  0  0  0  0  0  0
    0.1982   57.9654   74.9782 H   0  0  0  0  0  0  0  0  0  0  0  0
   -0.7239   54.1603   74.1941 H   0  0  0  0  0  0  0  0  0  0  0  0
    1.9935   56.3723   73.6423 H   0  0  0  0  0  0  0  0  0  0  0  0
    3.0764   54.7723   75.3566 H   0  0  0  0  0  0  0  0  0  0  0  0
    0.9686   52.8762   75.2996 H   0  0  0  0  0  0  0  0  0  0  0  0
    0.0708   55.3548   76.8616 H   0  0  0  0  0  0  0  0  0  0  0  0
   -0.8656   53.6876   77.8258 H   0  0  0  0  0  0  0  0  0  0  0  0
    1.3960   53.7164   77.8233 H   0  0  0  0  0  0  0  0  0  0  0  0
    2.4451   52.9291   73.8491 H   0  0  0  0  0  0  0  0  0  0  0  0
   -2.1256   56.1883   75.9837 H   0  0  0  0  0  0  0  0  0  0  0  0
   -2.3689   56.1693   74.1806 H   0  0  0  0  0  0  0  0  0  0  0  0
   -3.2479   54.3630   76.1561 H   0  0  0  0  0  0  0  0  0  0  0  0
    3.9537   59.5895   72.5742 H   0  0  0  0  0  0  0  0  0  0  0  0
    4.9247   61.7633   72.3674 H   0  0  0  0  0  0  0  0  0  0  0  0
    5.4116   63.8021   71.0258 H   0  0  0  0  0  0  0  0  0  0  0  0
    4.3852   64.0898   68.7723 H   0  0  0  0  0  0  0  0  0  0  0  0
    2.8674   62.3358   67.8602 H   0  0  0  0  0  0  0  0  0  0  0  0
    2.3740   60.2905   69.1951 H   0  0  0  0  0  0  0  0  0  0  0  0
  2  1  1  0
  3  2  1  0
  4  3  1  0
  5  4  1  0
  6  5  1  0
  6  1  1  0
  7  6  1  0
  8  5  1  0
  9  4  1  0
 10  1  1  0
 11 10  1  0
 13 12  1  0
 14 13  1  0
 14 11  1  0
 15 14  1  0
 16 15  1  0
 17 16  1  0
 17 12  1  0
 18 17  1  0
 19 16  1  0
 20 15  1  0
 21 12  1  0
 22 21  1  0
 23  3  1  0
 24 23  1  0
 25 24  1  0
 26 25  2  0
 27 26  1  0
 28 27  2  0
 29 28  1  0
 30 29  2  0
 30 25  1  0
 31 24  1  0
 32 31  3  0
  1 33  1  1
  3 34  1  6
  4 35  1  1
  5 36  1  6
  6 37  1  1
  7 38  1  0
  8 39  1  0
  9 40  1  0
 10 41  1  0
 10 42  1  0
 12 43  1  6
 14 44  1  6
 15 45  1  1
 16 46  1  6
 17 47  1  1
 18 48  1  0
 19 49  1  0
 20 50  1  0
 21 51  1  0
 21 52  1  0
 22 53  1  0
 24 54  1  1
 26 55  1  0
 27 56  1  0
 28 57  1  0
 29 58  1  0
 30 59  1  0
M  END
>  <score>  (7) 
-7.132

$$$$
=
     RDKit          3D

 59 61  0  0  0  0  0  0  0  0999 V2000
    2.2800   58.5790   74.5700 C   0  0  1  0  0  0  0  0  0  0  0  0
    0.9180   59.0470   74.6110 O   0  0  0  0  0  0  0  0  0  0  0  0
   -0.1050   58.0610   74.5370 C   0  0  2  0  0  0  0  0  0  0  0  0
    0.2960   56.8300   73.7120 C   0  0  1  0  0  0  0  0  0  0  0  0
    1.5400   56.1540   74.2980 C   0  0  2  0  0  0  0  0  0  0  0  0
    2.4370   57.1330   75.0650 C   0  0  2  0  0  0  0  0  0  0  0  0
    2.0460   57.0880   76.4510 O   0  0  0  0  0  0  0  0  0  0  0  0
    2.2850   55.5550   73.2260 O   0  0  0  0  0  0  0  0  0  0  0  0
   -0.7690   55.8700   73.6250 O   0  0  0  0  0  0  0  0  0  0  0  0
    2.8770   58.8140   73.1710 C   0  0  0  0  0  0  0  0  0  0  0  0
    2.4230   60.0690   72.6500 O   0  0  0  0  0  0  0  0  0  0  0  0
    2.7160   63.0100   71.4510 C   0  0  1  0  0  0  0  0  0  0  0  0
    2.6350   62.4040   72.7470 O   0  0  0  0  0  0  0  0  0  0  0  0
    3.3140   61.1560   72.9070 C   0  0  2  0  0  0  0  0  0  0  0  0
    4.5640   60.9530   72.0130 C   0  0  1  0  0  0  0  0  0  0  0  0
    4.3160   61.3570   70.5500 C   0  0  2  0  0  0  0  0  0  0  0  0
    2.9370   61.9830   70.3340 C   0  0  2  0  0  0  0  0  0  0  0  0
    2.8860   62.5800   69.0310 O   0  0  0  0  0  0  0  0  0  0  0  0
    4.5130   60.2580   69.6510 O   0  0  0  0  0  0  0  0  0  0  0  0
    5.6590   61.7290   72.5320 O   0  0  0  0  0  0  0  0  0  0  0  0
    1.4490   63.8450   71.2140 C   0  0  0  0  0  0  0  0  0  0  0  0
    0.4470   63.1280   70.5010 O   0  0  0  0  0  0  0  0  0  0  0  0
   -1.2630   58.6080   73.8860 O   0  0  0  0  0  0  0  0  0  0  0  0
   -1.6790   59.8580   74.4640 C   0  0  2  0  0  0  0  0  0  0  0  0
   -3.1730   59.7600   74.7270 C   0  0  0  0  0  0  0  0  0  0  0  0
   -4.0360   60.8310   74.4320 C   0  0  0  0  0  0  0  0  0  0  0  0
   -5.4040   60.7350   74.6890 C   0  0  0  0  0  0  0  0  0  0  0  0
   -5.9290   59.5720   75.2470 C   0  0  0  0  0  0  0  0  0  0  0  0
   -5.0880   58.5030   75.5500 C   0  0  0  0  0  0  0  0  0  0  0  0
   -3.7180   58.5950   75.2940 C   0  0  0  0  0  0  0  0  0  0  0  0
   -1.3620   60.9930   73.5590 C   0  0  0  0  0  0  0  0  0  0  0  0
   -1.0950   61.8720   72.8430 N   0  0  0  0  0  0  0  0  0  0  0  0
    2.8646   59.1743   75.2869 H   0  0  0  0  0  0  0  0  0  0  0  0
   -0.2981   57.7596   75.5771 H   0  0  0  0  0  0  0  0  0  0  0  0
    0.5211   57.1929   72.6983 H   0  0  0  0  0  0  0  0  0  0  0  0
    1.2052   55.3938   75.0192 H   0  0  0  0  0  0  0  0  0  0  0  0
    3.4851   56.8362   74.9124 H   0  0  0  0  0  0  0  0  0  0  0  0
    2.8484   57.1804   77.0234 H   0  0  0  0  0  0  0  0  0  0  0  0
    2.9991   54.9809   73.6009 H   0  0  0  0  0  0  0  0  0  0  0  0
   -1.0557   55.6116   74.5367 H   0  0  0  0  0  0  0  0  0  0  0  0
    3.9748   58.8238   73.2402 H   0  0  0  0  0  0  0  0  0  0  0  0
    2.5532   58.0053   72.4993 H   0  0  0  0  0  0  0  0  0  0  0  0
    3.5981   63.6667   71.4251 H   0  0  0  0  0  0  0  0  0  0  0  0
    3.6646   61.1786   73.9494 H   0  0  0  0  0  0  0  0  0  0  0  0
    4.8019   59.8791   72.0290 H   0  0  0  0  0  0  0  0  0  0  0  0
    5.0661   62.1287   70.3223 H   0  0  0  0  0  0  0  0  0  0  0  0
    2.1352   61.2311   70.3772 H   0  0  0  0  0  0  0  0  0  0  0  0
    2.8021   63.5623   69.1211 H   0  0  0  0  0  0  0  0  0  0  0  0
    4.6616   59.4288   70.1710 H   0  0  0  0  0  0  0  0  0  0  0  0
    5.6354   61.7123   73.5216 H   0  0  0  0  0  0  0  0  0  0  0  0
    1.0392   64.1480   72.1888 H   0  0  0  0  0  0  0  0  0  0  0  0
    1.7328   64.7160   70.6051 H   0  0  0  0  0  0  0  0  0  0  0  0
   -0.1655   62.6897   71.1436 H   0  0  0  0  0  0  0  0  0  0  0  0
   -1.1402   60.0481   75.4040 H   0  0  0  0  0  0  0  0  0  0  0  0
   -3.6280   61.7539   73.9941 H   0  0  0  0  0  0  0  0  0  0  0  0
   -6.0684   61.5786   74.4507 H   0  0  0  0  0  0  0  0  0  0  0  0
   -7.0078   59.4972   75.4486 H   0  0  0  0  0  0  0  0  0  0  0  0
   -5.5037   57.5853   75.9915 H   0  0  0  0  0  0  0  0  0  0  0  0
   -3.0597   57.7482   75.5383 H   0  0  0  0  0  0  0  0  0  0  0  0
  2  1  1  0
  3  2  1  0
  4  3  1  0
  5  4  1  0
  6  5  1  0
  6  1  1  0
  7  6  1  0
  8  5  1  0
  9  4  1  0
 10  1  1  0
 11 10  1  0
 13 12  1  0
 14 13  1  0
 14 11  1  0
 15 14  1  0
 16 15  1  0
 17 16  1  0
 17 12  1  0
 18 17  1  0
 19 16  1  0
 20 15  1  0
 21 12  1  0
 22 21  1  0
 23  3  1  0
 24 23  1  0
 25 24  1  0
 26 25  2  0
 27 26  1  0
 28 27  2  0
 29 28  1  0
 30 29  2  0
 30 25  1  0
 31 24  1  0
 32 31  3  0
  1 33  1  1
  3 34  1  1
  4 35  1  6
  5 36  1  1
  6 37  1  1
  7 38  1  0
  8 39  1  0
  9 40  1  0
 10 41  1  0
 10 42  1  0
 12 43  1  1
 14 44  1  1
 15 45  1  6
 16 46  1  6
 17 47  1  6
 18 48  1  0
 19 49  1  0
 20 50  1  0
 21 51  1  0
 21 52  1  0
 22 53  1  0
 24 54  1  1
 26 55  1  0
 27 56  1  0
 28 57  1  0
 29 58  1  0
 30 59  1  0
M  END
>  <score>  (8) 
-7.05

$$$$
=
     RDKit          3D

 59 61  0  0  0  0  0  0  0  0999 V2000
    0.5730   60.6240   76.0310 C   0  0  1  0  0  0  0  0  0  0  0  0
    1.3330   60.3360   74.8420 O   0  0  0  0  0  0  0  0  0  0  0  0
    1.1850   61.2340   73.7480 C   0  0  2  0  0  0  0  0  0  0  0  0
   -0.2070   61.8780   73.6750 C   0  0  1  0  0  0  0  0  0  0  0  0
   -0.5230   62.6600   74.9550 C   0  0  2  0  0  0  0  0  0  0  0  0
    0.2230   62.1120   76.1780 C   0  0  2  0  0  0  0  0  0  0  0  0
    1.4520   62.8520   76.3070 O   0  0  0  0  0  0  0  0  0  0  0  0
   -1.9380   62.6070   75.1870 O   0  0  0  0  0  0  0  0  0  0  0  0
   -0.3370   62.7500   72.5410 O   0  0  0  0  0  0  0  0  0  0  0  0
   -0.6530   59.6970   76.1110 C   0  0  0  0  0  0  0  0  0  0  0  0
   -0.4000   58.4880   75.3860 O   0  0  0  0  0  0  0  0  0  0  0  0
    1.9170   56.3250   75.7420 C   0  0  1  0  0  0  0  0  0  0  0  0
    1.1300   57.1740   76.5860 O   0  0  0  0  0  0  0  0  0  0  0  0
   -0.2420   57.3370   76.2190 C   0  0  2  0  0  0  0  0  0  0  0  0
   -0.8860   56.1370   75.4810 C   0  0  1  0  0  0  0  0  0  0  0  0
    0.0080   55.5840   74.3590 C   0  0  2  0  0  0  0  0  0  0  0  0
    1.3790   56.2600   74.3070 C   0  0  2  0  0  0  0  0  0  0  0  0
    2.2430   55.5150   73.4370 O   0  0  0  0  0  0  0  0  0  0  0  0
   -0.6340   55.6550   73.0780 O   0  0  0  0  0  0  0  0  0  0  0  0
   -1.1600   55.0830   76.4220 O   0  0  0  0  0  0  0  0  0  0  0  0
    3.3770   56.8000   75.7820 C   0  0  0  0  0  0  0  0  0  0  0  0
    4.3040   55.7220   75.7330 O   0  0  0  0  0  0  0  0  0  0  0  0
    1.3550   60.5260   72.5100 O   0  0  0  0  0  0  0  0  0  0  0  0
    2.7290   60.1840   72.2570 C   0  0  2  0  0  0  0  0  0  0  0  0
    3.2840   61.2220   71.2950 C   0  0  0  0  0  0  0  0  0  0  0  0
    4.4170   61.9870   71.6250 C   0  0  0  0  0  0  0  0  0  0  0  0
    4.9120   62.9470   70.7400 C   0  0  0  0  0  0  0  0  0  0  0  0
    4.2800   63.1580   69.5170 C   0  0  0  0  0  0  0  0  0  0  0  0
    3.1540   62.4110   69.1760 C   0  0  0  0  0  0  0  0  0  0  0  0
    2.6560   61.4500   70.0590 C   0  0  0  0  0  0  0  0  0  0  0  0
    2.8400   58.8130   71.6970 C   0  0  0  0  0  0  0  0  0  0  0  0
    2.9410   57.7320   71.2740 N   0  0  0  0  0  0  0  0  0  0  0  0
    1.2108   60.4100   76.9013 H   0  0  0  0  0  0  0  0  0  0  0  0
    1.9436   62.0152   73.9041 H   0  0  0  0  0  0  0  0  0  0  0  0
   -0.9273   61.0539   73.5651 H   0  0  0  0  0  0  0  0  0  0  0  0
   -0.1862   63.6974   74.8127 H   0  0  0  0  0  0  0  0  0  0  0  0
   -0.4283   62.2192   77.0579 H   0  0  0  0  0  0  0  0  0  0  0  0
    1.6620   62.9784   77.2662 H   0  0  0  0  0  0  0  0  0  0  0  0
   -2.1126   62.6005   76.1615 H   0  0  0  0  0  0  0  0  0  0  0  0
   -0.4755   63.6792   72.8534 H   0  0  0  0  0  0  0  0  0  0  0  0
   -0.8583   59.4543   77.1641 H   0  0  0  0  0  0  0  0  0  0  0  0
   -1.5218   60.2078   75.6702 H   0  0  0  0  0  0  0  0  0  0  0  0
    1.8565   55.2958   76.1256 H   0  0  0  0  0  0  0  0  0  0  0  0
   -0.7626   57.4374   77.1828 H   0  0  0  0  0  0  0  0  0  0  0  0
   -1.8153   56.5025   75.0197 H   0  0  0  0  0  0  0  0  0  0  0  0
    0.1730   54.5245   74.6044 H   0  0  0  0  0  0  0  0  0  0  0  0
    1.3161   57.2813   73.9034 H   0  0  0  0  0  0  0  0  0  0  0  0
    2.8704   54.9740   73.9791 H   0  0  0  0  0  0  0  0  0  0  0  0
   -1.6101   55.7629   73.2036 H   0  0  0  0  0  0  0  0  0  0  0  0
   -1.0693   55.4320   77.3440 H   0  0  0  0  0  0  0  0  0  0  0  0
    3.5569   57.4590   74.9198 H   0  0  0  0  0  0  0  0  0  0  0  0
    3.5298   57.3281   76.7348 H   0  0  0  0  0  0  0  0  0  0  0  0
    4.5400   55.4476   76.6545 H   0  0  0  0  0  0  0  0  0  0  0  0
    3.3073   60.1869   73.1927 H   0  0  0  0  0  0  0  0  0  0  0  0
    4.9187   61.8274   72.5908 H   0  0  0  0  0  0  0  0  0  0  0  0
    5.8010   63.5365   71.0087 H   0  0  0  0  0  0  0  0  0  0  0  0
    4.6697   63.9145   68.8200 H   0  0  0  0  0  0  0  0  0  0  0  0
    2.6563   62.5785   68.2094 H   0  0  0  0  0  0  0  0  0  0  0  0
    1.7647   60.8668   69.7844 H   0  0  0  0  0  0  0  0  0  0  0  0
  2  1  1  0
  3  2  1  0
  4  3  1  0
  5  4  1  0
  6  5  1  0
  6  1  1  0
  7  6  1  0
  8  5  1  0
  9  4  1  0
 10  1  1  0
 11 10  1  0
 13 12  1  0
 14 13  1  0
 14 11  1  0
 15 14  1  0
 16 15  1  0
 17 16  1  0
 17 12  1  0
 18 17  1  0
 19 16  1  0
 20 15  1  0
 21 12  1  0
 22 21  1  0
 23  3  1  0
 24 23  1  0
 25 24  1  0
 26 25  2  0
 27 26  1  0
 28 27  2  0
 29 28  1  0
 30 29  2  0
 30 25  1  0
 31 24  1  0
 32 31  3  0
  1 33  1  1
  3 34  1  1
  4 35  1  6
  5 36  1  6
  6 37  1  1
  7 38  1  0
  8 39  1  0
  9 40  1  0
 10 41  1  0
 10 42  1  0
 12 43  1  1
 14 44  1  1
 15 45  1  6
 16 46  1  1
 17 47  1  6
 18 48  1  0
 19 49  1  0
 20 50  1  0
 21 51  1  0
 21 52  1  0
 22 53  1  0
 24 54  1  1
 26 55  1  0
 27 56  1  0
 28 57  1  0
 29 58  1  0
 30 59  1  0
M  END
>  <score>  (9) 
-7.047

$$$$
