=
     RDKit          3D

 54 58  0  0  0  0  0  0  0  0999 V2000
    1.1240   67.8290   64.1030 C   0  0  0  0  0  0  0  0  0  0  0  0
    6.6000   71.0310   69.1900 O   0  0  0  0  0  0  0  0  0  0  0  0
    6.1070   70.6380   68.1470 C   0  0  0  0  0  0  0  0  0  0  0  0
    6.7490   70.6710   66.7570 C   0  0  0  0  0  0  0  0  0  0  0  0
    5.6730   70.0710   65.8960 C   0  0  0  0  0  0  0  0  0  0  0  0
    4.5760   69.7400   66.6930 C   0  0  0  0  0  0  0  0  0  0  0  0
    4.8420   70.0770   68.0100 N   0  0  0  0  0  0  0  0  0  0  0  0
    3.4170   69.1620   66.2000 C   0  0  0  0  0  0  0  0  0  0  0  0
    3.4010   68.9200   64.8120 C   0  0  0  0  0  0  0  0  0  0  0  0
    4.5080   69.2600   64.0410 C   0  0  0  0  0  0  0  0  0  0  0  0
    5.6810   69.8410   64.5280 C   0  0  0  0  0  0  0  0  0  0  0  0
    4.2630   68.9390   62.7410 O   0  0  0  0  0  0  0  0  0  0  0  0
    3.0010   68.3820   62.6270 N   0  0  0  0  0  0  0  0  0  0  0  0
    2.4930   68.3720   63.8680 C   0  0  0  0  0  0  0  0  0  0  0  0
    0.4040   68.4640   65.3030 C   0  0  0  0  0  0  0  0  0  0  0  0
    0.4410   67.6520   66.6140 C   0  0  0  0  0  0  0  0  0  0  0  0
   -0.9580   67.1030   66.9550 C   0  0  0  0  0  0  0  0  0  0  0  0
   -1.1430   66.7680   68.4340 C   0  0  0  0  0  0  0  0  0  0  0  0
    0.1780   66.3950   69.0410 N   0  0  0  0  0  4  0  0  0  0  0  0
    1.1620   67.5490   69.0440 C   0  0  0  0  0  0  0  0  0  0  0  0
    0.9820   68.4390   67.8120 C   0  0  0  0  0  0  0  0  0  0  0  0
    0.0230   65.7600   70.4060 C   0  0  0  0  0  0  0  0  0  0  0  0
    0.9290   64.5760   70.6090 C   0  0  0  0  0  0  0  0  0  0  0  0
    0.4190   63.3670   71.1060 C   0  0  0  0  0  0  0  0  0  0  0  0
    1.2530   62.2600   71.2640 C   0  0  0  0  0  0  0  0  0  0  0  0
    2.6020   62.3490   70.9280 C   0  0  0  0  0  0  0  0  0  0  0  0
    3.1200   63.5450   70.4380 C   0  0  0  0  0  0  0  0  0  0  0  0
    2.2900   64.6540   70.2770 C   0  0  0  0  0  0  0  0  0  0  0  0
    0.5200   68.0082   63.2013 H   0  0  0  0  0  0  0  0  0  0  0  0
    1.2375   66.7580   64.3268 H   0  0  0  0  0  0  0  0  0  0  0  0
    6.9787   71.7015   66.4481 H   0  0  0  0  0  0  0  0  0  0  0  0
    7.7087   70.1364   66.7011 H   0  0  0  0  0  0  0  0  0  0  0  0
    4.1853   69.9305   68.7898 H   0  0  0  0  0  0  0  0  0  0  0  0
    2.5659   68.9089   66.8493 H   0  0  0  0  0  0  0  0  0  0  0  0
    6.5359   70.0939   63.8836 H   0  0  0  0  0  0  0  0  0  0  0  0
    0.8700   69.4412   65.4979 H   0  0  0  0  0  0  0  0  0  0  0  0
   -0.6568   68.5234   65.0180 H   0  0  0  0  0  0  0  0  0  0  0  0
    1.1414   66.8243   66.4284 H   0  0  0  0  0  0  0  0  0  0  0  0
   -1.7057   67.8593   66.6742 H   0  0  0  0  0  0  0  0  0  0  0  0
   -1.0798   66.1640   66.3952 H   0  0  0  0  0  0  0  0  0  0  0  0
   -1.5512   67.6445   68.9585 H   0  0  0  0  0  0  0  0  0  0  0  0
   -1.8383   65.9210   68.5299 H   0  0  0  0  0  0  0  0  0  0  0  0
    0.5863   65.6733   68.4299 H   0  0  0  0  0  0  0  0  0  0  0  0
    1.0019   68.1536   69.9489 H   0  0  0  0  0  0  0  0  0  0  0  0
    2.1811   67.1353   69.0265 H   0  0  0  0  0  0  0  0  0  0  0  0
    0.2753   69.2458   68.0561 H   0  0  0  0  0  0  0  0  0  0  0  0
    1.9668   68.8447   67.5372 H   0  0  0  0  0  0  0  0  0  0  0  0
    0.2549   66.5145   71.1721 H   0  0  0  0  0  0  0  0  0  0  0  0
   -1.0132   65.3994   70.4858 H   0  0  0  0  0  0  0  0  0  0  0  0
   -0.6455   63.2916   71.3728 H   0  0  0  0  0  0  0  0  0  0  0  0
    0.8451   61.3159   71.6543 H   0  0  0  0  0  0  0  0  0  0  0  0
    3.2580   61.4744   71.0498 H   0  0  0  0  0  0  0  0  0  0  0  0
    4.1864   63.6152   70.1773 H   0  0  0  0  0  0  0  0  0  0  0  0
    2.7047   65.5954   69.8875 H   0  0  0  0  0  0  0  0  0  0  0  0
  3  2  2  0
  4  3  1  0
  5  4  1  0
  6  5  2  0
  7  6  1  0
  7  3  1  0
  8  6  1  0
  9  8  2  0
 10  9  1  0
 11 10  2  0
 11  5  1  0
 12 10  1  0
 13 12  1  0
 14 13  2  0
 14  9  1  0
 14  1  1  0
 15  1  1  0
 16 15  1  0
 17 16  1  0
 18 17  1  0
 19 18  1  0
 20 19  1  0
 21 20  1  0
 21 16  1  0
 22 19  1  0
 23 22  1  0
 24 23  2  0
 25 24  1  0
 26 25  2  0
 27 26  1  0
 28 27  2  0
 28 23  1  0
  1 29  1  0
  1 30  1  0
  4 31  1  0
  4 32  1  0
  7 33  1  0
  8 34  1  0
 11 35  1  0
 15 36  1  0
 15 37  1  0
 16 38  1  0
 17 39  1  0
 17 40  1  0
 18 41  1  0
 18 42  1  0
 19 43  1  0
 20 44  1  0
 20 45  1  0
 21 46  1  0
 21 47  1  0
 22 48  1  0
 22 49  1  0
 24 50  1  0
 25 51  1  0
 26 52  1  0
 27 53  1  0
 28 54  1  0
M  CHG  1  19   1
M  END
>  <score>  (1) 
-11.797

$$$$
=
     RDKit          3D

 54 58  0  0  0  0  0  0  0  0999 V2000
    0.4480   68.5330   66.3140 C   0  0  0  0  0  0  0  0  0  0  0  0
    7.4320   71.4810   69.2540 O   0  0  0  0  0  0  0  0  0  0  0  0
    6.6510   70.9710   68.4700 C   0  0  0  0  0  0  0  0  0  0  0  0
    6.9560   70.5010   67.0450 C   0  0  0  0  0  0  0  0  0  0  0  0
    5.6210   69.9840   66.5890 C   0  0  0  0  0  0  0  0  0  0  0  0
    4.6910   70.1370   67.6180 C   0  0  0  0  0  0  0  0  0  0  0  0
    5.3070   70.7170   68.7160 N   0  0  0  0  0  0  0  0  0  0  0  0
    3.3640   69.7520   67.5160 C   0  0  0  0  0  0  0  0  0  0  0  0
    2.9890   69.1830   66.2830 C   0  0  0  0  0  0  0  0  0  0  0  0
    3.9350   69.0420   65.2740 C   0  0  0  0  0  0  0  0  0  0  0  0
    5.2750   69.4250   65.3670 C   0  0  0  0  0  0  0  0  0  0  0  0
    3.3470   68.4760   64.1850 O   0  0  0  0  0  0  0  0  0  0  0  0
    2.0110   68.2310   64.4500 N   0  0  0  0  0  0  0  0  0  0  0  0
    1.8050   68.6530   65.7060 C   0  0  0  0  0  0  0  0  0  0  0  0
    0.4590   68.4940   67.8500 C   0  0  0  0  0  0  0  0  0  0  0  0
    0.6540   67.1000   68.4840 C   0  0  0  0  0  0  0  0  0  0  0  0
   -0.7070   66.4570   68.8130 C   0  0  0  0  0  0  0  0  0  0  0  0
   -0.6300   65.3730   69.8880 C   0  0  0  0  0  0  0  0  0  0  0  0
    0.7250   64.7290   69.8670 N   0  0  0  0  0  4  0  0  0  0  0  0
    1.8330   65.6960   70.2360 C   0  0  0  0  0  0  0  0  0  0  0  0
    1.5260   67.1110   69.7430 C   0  0  0  0  0  0  0  0  0  0  0  0
    0.7680   63.4560   70.6840 C   0  0  0  0  0  0  0  0  0  0  0  0
    2.0770   62.7240   70.5620 C   0  0  0  0  0  0  0  0  0  0  0  0
    2.5300   62.2790   69.3110 C   0  0  0  0  0  0  0  0  0  0  0  0
    3.7580   61.6290   69.1960 C   0  0  0  0  0  0  0  0  0  0  0  0
    4.5450   61.4160   70.3250 C   0  0  0  0  0  0  0  0  0  0  0  0
    4.1040   61.8490   71.5730 C   0  0  0  0  0  0  0  0  0  0  0  0
    2.8760   62.5000   71.6940 C   0  0  0  0  0  0  0  0  0  0  0  0
   -0.1536   69.3962   65.9931 H   0  0  0  0  0  0  0  0  0  0  0  0
    0.0266   67.5763   65.9718 H   0  0  0  0  0  0  0  0  0  0  0  0
    7.2973   71.3351   66.4143 H   0  0  0  0  0  0  0  0  0  0  0  0
    7.7614   69.7539   66.9892 H   0  0  0  0  0  0  0  0  0  0  0  0
    4.8289   70.9326   69.6025 H   0  0  0  0  0  0  0  0  0  0  0  0
    2.6505   69.8820   68.3430 H   0  0  0  0  0  0  0  0  0  0  0  0
    5.9930   69.2949   64.5438 H   0  0  0  0  0  0  0  0  0  0  0  0
    1.2775   69.1410   68.1984 H   0  0  0  0  0  0  0  0  0  0  0  0
   -0.5402   68.8290   68.1651 H   0  0  0  0  0  0  0  0  0  0  0  0
    1.1865   66.5039   67.7282 H   0  0  0  0  0  0  0  0  0  0  0  0
   -1.3884   67.2462   69.1636 H   0  0  0  0  0  0  0  0  0  0  0  0
   -1.0648   65.9725   67.8926 H   0  0  0  0  0  0  0  0  0  0  0  0
   -0.8036   65.8255   70.8755 H   0  0  0  0  0  0  0  0  0  0  0  0
   -1.3970   64.6100   69.6888 H   0  0  0  0  0  0  0  0  0  0  0  0
    0.9012   64.4525   68.8906 H   0  0  0  0  0  0  0  0  0  0  0  0
    1.9424   65.7142   71.3304 H   0  0  0  0  0  0  0  0  0  0  0  0
    2.7628   65.3564   69.7563 H   0  0  0  0  0  0  0  0  0  0  0  0
    0.9967   67.6575   70.5375 H   0  0  0  0  0  0  0  0  0  0  0  0
    2.4794   67.5996   69.4933 H   0  0  0  0  0  0  0  0  0  0  0  0
    0.6068   63.7124   71.7415 H   0  0  0  0  0  0  0  0  0  0  0  0
   -0.0186   62.7906   70.2987 H   0  0  0  0  0  0  0  0  0  0  0  0
    1.9127   62.4439   68.4156 H   0  0  0  0  0  0  0  0  0  0  0  0
    4.1060   61.2836   68.2113 H   0  0  0  0  0  0  0  0  0  0  0  0
    5.5150   60.9058   70.2310 H   0  0  0  0  0  0  0  0  0  0  0  0
    4.7248   61.6775   72.4647 H   0  0  0  0  0  0  0  0  0  0  0  0
    2.5320   62.8396   72.6821 H   0  0  0  0  0  0  0  0  0  0  0  0
  3  2  2  0
  4  3  1  0
  5  4  1  0
  6  5  2  0
  7  6  1  0
  7  3  1  0
  8  6  1  0
  9  8  2  0
 10  9  1  0
 11 10  2  0
 11  5  1  0
 12 10  1  0
 13 12  1  0
 14 13  2  0
 14  9  1  0
 14  1  1  0
 15  1  1  0
 16 15  1  0
 17 16  1  0
 18 17  1  0
 19 18  1  0
 20 19  1  0
 21 20  1  0
 21 16  1  0
 22 19  1  0
 23 22  1  0
 24 23  2  0
 25 24  1  0
 26 25  2  0
 27 26  1  0
 28 27  2  0
 28 23  1  0
  1 29  1  0
  1 30  1  0
  4 31  1  0
  4 32  1  0
  7 33  1  0
  8 34  1  0
 11 35  1  0
 15 36  1  0
 15 37  1  0
 16 38  1  0
 17 39  1  0
 17 40  1  0
 18 41  1  0
 18 42  1  0
 19 43  1  0
 20 44  1  0
 20 45  1  0
 21 46  1  0
 21 47  1  0
 22 48  1  0
 22 49  1  0
 24 50  1  0
 25 51  1  0
 26 52  1  0
 27 53  1  0
 28 54  1  0
M  CHG  1  19   1
M  END
>  <score>  (2) 
-11.669

$$$$
=
     RDKit          3D

 54 58  0  0  0  0  0  0  0  0999 V2000
   -0.0390   65.8680   70.6280 C   0  0  0  0  0  0  0  0  0  0  0  0
    4.0770   58.9450   69.5140 O   0  0  0  0  0  0  0  0  0  0  0  0
    3.4620   59.8240   70.0910 C   0  0  0  0  0  0  0  0  0  0  0  0
    3.1020   59.8680   71.5800 C   0  0  0  0  0  0  0  0  0  0  0  0
    2.3490   61.1650   71.6850 C   0  0  0  0  0  0  0  0  0  0  0  0
    2.2960   61.7710   70.4290 C   0  0  0  0  0  0  0  0  0  0  0  0
    2.9510   60.9750   69.5030 N   0  0  0  0  0  0  0  0  0  0  0  0
    1.6720   62.9850   70.1890 C   0  0  0  0  0  0  0  0  0  0  0  0
    1.0760   63.5940   71.3110 C   0  0  0  0  0  0  0  0  0  0  0  0
    1.1440   62.9690   72.5510 C   0  0  0  0  0  0  0  0  0  0  0  0
    1.7710   61.7470   72.8040 C   0  0  0  0  0  0  0  0  0  0  0  0
    0.5020   63.7360   73.4740 O   0  0  0  0  0  0  0  0  0  0  0  0
    0.0020   64.8760   72.8680 N   0  0  0  0  0  0  0  0  0  0  0  0
    0.3510   64.7860   71.5770 C   0  0  0  0  0  0  0  0  0  0  0  0
    1.1550   66.6450   70.0500 C   0  0  0  0  0  0  0  0  0  0  0  0
    1.0270   67.0720   68.5730 C   0  0  0  0  0  0  0  0  0  0  0  0
    1.6280   68.4740   68.3580 C   0  0  0  0  0  0  0  0  0  0  0  0
    1.0920   69.1880   67.1170 C   0  0  0  0  0  0  0  0  0  0  0  0
    0.6860   68.1790   66.0840 N   0  0  0  0  0  4  0  0  0  0  0  0
   -0.4710   67.3130   66.5410 C   0  0  0  0  0  0  0  0  0  0  0  0
   -0.4120   67.0510   68.0470 C   0  0  0  0  0  0  0  0  0  0  0  0
    0.4410   68.8100   64.7300 C   0  0  0  0  0  0  0  0  0  0  0  0
    1.6500   68.7730   63.8370 C   0  0  0  0  0  0  0  0  0  0  0  0
    1.5040   68.7510   62.4410 C   0  0  0  0  0  0  0  0  0  0  0  0
    2.6270   68.7490   61.6140 C   0  0  0  0  0  0  0  0  0  0  0  0
    3.9030   68.7690   62.1690 C   0  0  0  0  0  0  0  0  0  0  0  0
    4.0610   68.7870   63.5520 C   0  0  0  0  0  0  0  0  0  0  0  0
    2.9420   68.7900   64.3850 C   0  0  0  0  0  0  0  0  0  0  0  0
   -0.5944   65.4144   69.7939 H   0  0  0  0  0  0  0  0  0  0  0  0
   -0.6465   66.5886   71.1951 H   0  0  0  0  0  0  0  0  0  0  0  0
    2.4682   59.0146   71.8627 H   0  0  0  0  0  0  0  0  0  0  0  0
    3.9741   59.8078   72.2477 H   0  0  0  0  0  0  0  0  0  0  0  0
    3.0471   61.2072   68.5041 H   0  0  0  0  0  0  0  0  0  0  0  0
    1.6439   63.4426   69.1891 H   0  0  0  0  0  0  0  0  0  0  0  0
    1.8037   61.2865   73.8024 H   0  0  0  0  0  0  0  0  0  0  0  0
    1.2898   67.5546   70.6537 H   0  0  0  0  0  0  0  0  0  0  0  0
    2.0086   65.9522   70.0877 H   0  0  0  0  0  0  0  0  0  0  0  0
    1.5909   66.3222   67.9988 H   0  0  0  0  0  0  0  0  0  0  0  0
    1.3974   69.0898   69.2398 H   0  0  0  0  0  0  0  0  0  0  0  0
    2.7099   68.3411   68.2106 H   0  0  0  0  0  0  0  0  0  0  0  0
    0.2192   69.7971   67.3949 H   0  0  0  0  0  0  0  0  0  0  0  0
    1.8794   69.8346   66.7024 H   0  0  0  0  0  0  0  0  0  0  0  0
    1.4883   67.5438   65.9667 H   0  0  0  0  0  0  0  0  0  0  0  0
   -1.4158   67.8237   66.3034 H   0  0  0  0  0  0  0  0  0  0  0  0
   -0.4072   66.3468   66.0190 H   0  0  0  0  0  0  0  0  0  0  0  0
   -0.9922   67.8279   68.5664 H   0  0  0  0  0  0  0  0  0  0  0  0
   -0.8304   66.0515   68.2365 H   0  0  0  0  0  0  0  0  0  0  0  0
   -0.3779   68.2684   64.2339 H   0  0  0  0  0  0  0  0  0  0  0  0
    0.1901   69.8674   64.9004 H   0  0  0  0  0  0  0  0  0  0  0  0
    0.4978   68.7352   61.9967 H   0  0  0  0  0  0  0  0  0  0  0  0
    2.5039   68.7316   60.5210 H   0  0  0  0  0  0  0  0  0  0  0  0
    4.7872   68.7706   61.5146 H   0  0  0  0  0  0  0  0  0  0  0  0
    5.0704   68.7989   63.9889 H   0  0  0  0  0  0  0  0  0  0  0  0
    3.0729   68.8058   65.4771 H   0  0  0  0  0  0  0  0  0  0  0  0
  3  2  2  0
  4  3  1  0
  5  4  1  0
  6  5  2  0
  7  6  1  0
  7  3  1  0
  8  6  1  0
  9  8  2  0
 10  9  1  0
 11 10  2  0
 11  5  1  0
 12 10  1  0
 13 12  1  0
 14 13  2  0
 14  9  1  0
 14  1  1  0
 15  1  1  0
 16 15  1  0
 17 16  1  0
 18 17  1  0
 19 18  1  0
 20 19  1  0
 21 20  1  0
 21 16  1  0
 22 19  1  0
 23 22  1  0
 24 23  2  0
 25 24  1  0
 26 25  2  0
 27 26  1  0
 28 27  2  0
 28 23  1  0
  1 29  1  0
  1 30  1  0
  4 31  1  0
  4 32  1  0
  7 33  1  0
  8 34  1  0
 11 35  1  0
 15 36  1  0
 15 37  1  0
 16 38  1  0
 17 39  1  0
 17 40  1  0
 18 41  1  0
 18 42  1  0
 19 43  1  0
 20 44  1  0
 20 45  1  0
 21 46  1  0
 21 47  1  0
 22 48  1  0
 22 49  1  0
 24 50  1  0
 25 51  1  0
 26 52  1  0
 27 53  1  0
 28 54  1  0
M  CHG  1  19   1
M  END
>  <score>  (3) 
-11.437

$$$$
=
     RDKit          3D

 54 58  0  0  0  0  0  0  0  0999 V2000
   -0.8140   68.6950   66.9390 C   0  0  0  0  0  0  0  0  0  0  0  0
    5.9040   68.7630   62.3590 O   0  0  0  0  0  0  0  0  0  0  0  0
    4.7200   68.7420   62.6440 C   0  0  0  0  0  0  0  0  0  0  0  0
    3.5410   68.7110   61.6660 C   0  0  0  0  0  0  0  0  0  0  0  0
    2.3590   68.7050   62.5950 C   0  0  0  0  0  0  0  0  0  0  0  0
    2.8100   68.7250   63.9150 C   0  0  0  0  0  0  0  0  0  0  0  0
    4.1950   68.7470   63.9310 N   0  0  0  0  0  0  0  0  0  0  0  0
    1.9660   68.7210   65.0150 C   0  0  0  0  0  0  0  0  0  0  0  0
    0.5880   68.6970   64.7220 C   0  0  0  0  0  0  0  0  0  0  0  0
    0.1650   68.6780   63.3970 C   0  0  0  0  0  0  0  0  0  0  0  0
    1.0070   68.6790   62.2830 C   0  0  0  0  0  0  0  0  0  0  0  0
   -1.1950   68.6590   63.3620 O   0  0  0  0  0  0  0  0  0  0  0  0
   -1.6960   68.6640   64.6520 N   0  0  0  0  0  0  0  0  0  0  0  0
   -0.6260   68.6840   65.4600 C   0  0  0  0  0  0  0  0  0  0  0  0
    0.4920   68.5280   67.7310 C   0  0  0  0  0  0  0  0  0  0  0  0
    0.6900   67.1610   68.4190 C   0  0  0  0  0  0  0  0  0  0  0  0
   -0.6700   66.5130   68.7430 C   0  0  0  0  0  0  0  0  0  0  0  0
   -0.6020   65.4710   69.8590 C   0  0  0  0  0  0  0  0  0  0  0  0
    0.7600   64.8430   69.8880 N   0  0  0  0  0  4  0  0  0  0  0  0
    1.8490   65.8360   70.2450 C   0  0  0  0  0  0  0  0  0  0  0  0
    1.5360   67.2290   69.6940 C   0  0  0  0  0  0  0  0  0  0  0  0
    0.8010   63.6010   70.7520 C   0  0  0  0  0  0  0  0  0  0  0  0
    2.0770   62.8200   70.5980 C   0  0  0  0  0  0  0  0  0  0  0  0
    2.8160   62.4350   71.7270 C   0  0  0  0  0  0  0  0  0  0  0  0
    3.9830   61.6830   71.5850 C   0  0  0  0  0  0  0  0  0  0  0  0
    4.4230   61.3100   70.3170 C   0  0  0  0  0  0  0  0  0  0  0  0
    3.7000   61.6900   69.1890 C   0  0  0  0  0  0  0  0  0  0  0  0
    2.5320   62.4410   69.3260 C   0  0  0  0  0  0  0  0  0  0  0  0
   -1.2719   69.6539   67.2233 H   0  0  0  0  0  0  0  0  0  0  0  0
   -1.4519   67.8340   67.1874 H   0  0  0  0  0  0  0  0  0  0  0  0
    3.5356   69.6008   61.0192 H   0  0  0  0  0  0  0  0  0  0  0  0
    3.5634   67.8564   60.9738 H   0  0  0  0  0  0  0  0  0  0  0  0
    4.7644   68.7648   64.7891 H   0  0  0  0  0  0  0  0  0  0  0  0
    2.3466   68.7356   66.0470 H   0  0  0  0  0  0  0  0  0  0  0  0
    0.6317   68.6608   61.2492 H   0  0  0  0  0  0  0  0  0  0  0  0
    1.3304   68.6803   67.0354 H   0  0  0  0  0  0  0  0  0  0  0  0
    0.4451   69.2676   68.5439 H   0  0  0  0  0  0  0  0  0  0  0  0
    1.2449   66.5442   67.6968 H   0  0  0  0  0  0  0  0  0  0  0  0
   -1.3684   67.3056   69.0496 H   0  0  0  0  0  0  0  0  0  0  0  0
   -1.0025   65.9903   67.8340 H   0  0  0  0  0  0  0  0  0  0  0  0
   -0.7999   65.9579   70.8253 H   0  0  0  0  0  0  0  0  0  0  0  0
   -1.3564   64.6921   69.6740 H   0  0  0  0  0  0  0  0  0  0  0  0
    0.9589   64.5338   68.9258 H   0  0  0  0  0  0  0  0  0  0  0  0
    1.9347   65.8951   71.3401 H   0  0  0  0  0  0  0  0  0  0  0  0
    2.7929   65.4906   69.7980 H   0  0  0  0  0  0  0  0  0  0  0  0
    0.9844   67.7978   70.4571 H   0  0  0  0  0  0  0  0  0  0  0  0
    2.4886   67.7198   69.4458 H   0  0  0  0  0  0  0  0  0  0  0  0
    0.6997   63.9029   71.8049 H   0  0  0  0  0  0  0  0  0  0  0  0
   -0.0247   62.9491   70.4305 H   0  0  0  0  0  0  0  0  0  0  0  0
    2.4733   62.7278   72.7304 H   0  0  0  0  0  0  0  0  0  0  0  0
    4.5560   61.3845   72.4753 H   0  0  0  0  0  0  0  0  0  0  0  0
    5.3417   60.7152   70.2067 H   0  0  0  0  0  0  0  0  0  0  0  0
    4.0504   61.3976   68.1881 H   0  0  0  0  0  0  0  0  0  0  0  0
    1.9646   62.7376   68.4315 H   0  0  0  0  0  0  0  0  0  0  0  0
  3  2  2  0
  4  3  1  0
  5  4  1  0
  6  5  2  0
  7  6  1  0
  7  3  1  0
  8  6  1  0
  9  8  2  0
 10  9  1  0
 11 10  2  0
 11  5  1  0
 12 10  1  0
 13 12  1  0
 14 13  2  0
 14  9  1  0
 14  1  1  0
 15  1  1  0
 16 15  1  0
 17 16  1  0
 18 17  1  0
 19 18  1  0
 20 19  1  0
 21 20  1  0
 21 16  1  0
 22 19  1  0
 23 22  1  0
 24 23  2  0
 25 24  1  0
 26 25  2  0
 27 26  1  0
 28 27  2  0
 28 23  1  0
  1 29  1  0
  1 30  1  0
  4 31  1  0
  4 32  1  0
  7 33  1  0
  8 34  1  0
 11 35  1  0
 15 36  1  0
 15 37  1  0
 16 38  1  0
 17 39  1  0
 17 40  1  0
 18 41  1  0
 18 42  1  0
 19 43  1  0
 20 44  1  0
 20 45  1  0
 21 46  1  0
 21 47  1  0
 22 48  1  0
 22 49  1  0
 24 50  1  0
 25 51  1  0
 26 52  1  0
 27 53  1  0
 28 54  1  0
M  CHG  1  19   1
M  END
>  <score>  (4) 
-10.958

$$$$
=
     RDKit          3D

 54 58  0  0  0  0  0  0  0  0999 V2000
    0.6790   64.7510   70.6030 C   0  0  0  0  0  0  0  0  0  0  0  0
    1.4020   57.3850   73.9690 O   0  0  0  0  0  0  0  0  0  0  0  0
    1.6460   58.3380   73.2500 C   0  0  0  0  0  0  0  0  0  0  0  0
    2.7930   58.4580   72.2410 C   0  0  0  0  0  0  0  0  0  0  0  0
    2.5810   59.8360   71.6810 C   0  0  0  0  0  0  0  0  0  0  0  0
    1.4640   60.4130   72.2880 C   0  0  0  0  0  0  0  0  0  0  0  0
    0.9250   59.5260   73.2060 N   0  0  0  0  0  0  0  0  0  0  0  0
    0.9980   61.6830   71.9870 C   0  0  0  0  0  0  0  0  0  0  0  0
    1.7330   62.3840   71.0100 C   0  0  0  0  0  0  0  0  0  0  0  0
    2.8420   61.7860   70.4210 C   0  0  0  0  0  0  0  0  0  0  0  0
    3.3170   60.5060   70.7160 C   0  0  0  0  0  0  0  0  0  0  0  0
    3.3860   62.6460   69.5180 O   0  0  0  0  0  0  0  0  0  0  0  0
    2.6540   63.8200   69.4890 N   0  0  0  0  0  0  0  0  0  0  0  0
    1.6660   63.6560   70.3810 C   0  0  0  0  0  0  0  0  0  0  0  0
    1.2110   66.1470   70.2380 C   0  0  0  0  0  0  0  0  0  0  0  0
    0.7640   66.6980   68.8680 C   0  0  0  0  0  0  0  0  0  0  0  0
    1.3200   68.1180   68.6450 C   0  0  0  0  0  0  0  0  0  0  0  0
    0.5310   68.9310   67.6200 C   0  0  0  0  0  0  0  0  0  0  0  0
   -0.1060   68.0120   66.6200 N   0  0  0  0  0  4  0  0  0  0  0  0
   -1.1440   67.1020   67.2460 C   0  0  0  0  0  0  0  0  0  0  0  0
   -0.7550   66.7130   68.6740 C   0  0  0  0  0  0  0  0  0  0  0  0
   -0.6370   68.7560   65.4130 C   0  0  0  0  0  0  0  0  0  0  0  0
    0.3300   68.7720   64.2610 C   0  0  0  0  0  0  0  0  0  0  0  0
    1.6760   68.4270   64.4560 C   0  0  0  0  0  0  0  0  0  0  0  0
    2.5650   68.4120   63.3810 C   0  0  0  0  0  0  0  0  0  0  0  0
    2.1200   68.7410   62.1030 C   0  0  0  0  0  0  0  0  0  0  0  0
    0.7870   69.0890   61.8970 C   0  0  0  0  0  0  0  0  0  0  0  0
   -0.1060   69.1050   62.9690 C   0  0  0  0  0  0  0  0  0  0  0  0
   -0.2102   64.5467   69.9885 H   0  0  0  0  0  0  0  0  0  0  0  0
    0.4516   64.7652   71.6792 H   0  0  0  0  0  0  0  0  0  0  0  0
    3.7711   58.3755   72.7375 H   0  0  0  0  0  0  0  0  0  0  0  0
    2.7935   57.6665   71.4772 H   0  0  0  0  0  0  0  0  0  0  0  0
    0.0947   59.7221   73.7831 H   0  0  0  0  0  0  0  0  0  0  0  0
    0.1135   62.1150   72.4779 H   0  0  0  0  0  0  0  0  0  0  0  0
    4.1985   60.0677   70.2252 H   0  0  0  0  0  0  0  0  0  0  0  0
    0.8713   66.8508   71.0121 H   0  0  0  0  0  0  0  0  0  0  0  0
    2.3044   66.0437   70.1765 H   0  0  0  0  0  0  0  0  0  0  0  0
    1.1771   66.0034   68.1218 H   0  0  0  0  0  0  0  0  0  0  0  0
    1.2984   68.6544   69.6051 H   0  0  0  0  0  0  0  0  0  0  0  0
    2.3407   68.0060   68.2505 H   0  0  0  0  0  0  0  0  0  0  0  0
   -0.2512   69.5073   68.1357 H   0  0  0  0  0  0  0  0  0  0  0  0
    1.2147   69.6164   67.0977 H   0  0  0  0  0  0  0  0  0  0  0  0
    0.6425   67.3949   66.2739 H   0  0  0  0  0  0  0  0  0  0  0  0
   -2.1117   67.6245   67.2681 H   0  0  0  0  0  0  0  0  0  0  0  0
   -1.2102   66.1847   66.6425 H   0  0  0  0  0  0  0  0  0  0  0  0
   -1.1956   67.4391   69.3730 H   0  0  0  0  0  0  0  0  0  0  0  0
   -1.1333   65.6981   68.8659 H   0  0  0  0  0  0  0  0  0  0  0  0
   -1.5673   68.2705   65.0832 H   0  0  0  0  0  0  0  0  0  0  0  0
   -0.8044   69.7998   65.7170 H   0  0  0  0  0  0  0  0  0  0  0  0
    2.0327   68.1666   65.4634 H   0  0  0  0  0  0  0  0  0  0  0  0
    3.6185   68.1400   63.5429 H   0  0  0  0  0  0  0  0  0  0  0  0
    2.8215   68.7260   61.2558 H   0  0  0  0  0  0  0  0  0  0  0  0
    0.4378   69.3516   60.8875 H   0  0  0  0  0  0  0  0  0  0  0  0
   -1.1576   69.3801   62.8007 H   0  0  0  0  0  0  0  0  0  0  0  0
  3  2  2  0
  4  3  1  0
  5  4  1  0
  6  5  2  0
  7  6  1  0
  7  3  1  0
  8  6  1  0
  9  8  2  0
 10  9  1  0
 11 10  2  0
 11  5  1  0
 12 10  1  0
 13 12  1  0
 14 13  2  0
 14  9  1  0
 14  1  1  0
 15  1  1  0
 16 15  1  0
 17 16  1  0
 18 17  1  0
 19 18  1  0
 20 19  1  0
 21 20  1  0
 21 16  1  0
 22 19  1  0
 23 22  1  0
 24 23  2  0
 25 24  1  0
 26 25  2  0
 27 26  1  0
 28 27  2  0
 28 23  1  0
  1 29  1  0
  1 30  1  0
  4 31  1  0
  4 32  1  0
  7 33  1  0
  8 34  1  0
 11 35  1  0
 15 36  1  0
 15 37  1  0
 16 38  1  0
 17 39  1  0
 17 40  1  0
 18 41  1  0
 18 42  1  0
 19 43  1  0
 20 44  1  0
 20 45  1  0
 21 46  1  0
 21 47  1  0
 22 48  1  0
 22 49  1  0
 24 50  1  0
 25 51  1  0
 26 52  1  0
 27 53  1  0
 28 54  1  0
M  CHG  1  19   1
M  END
>  <score>  (5) 
-10.952

$$$$
=
     RDKit          3D

 54 58  0  0  0  0  0  0  0  0999 V2000
    0.6750   67.0690   68.5080 C   0  0  0  0  0  0  0  0  0  0  0  0
    2.9500   68.8600   60.9110 O   0  0  0  0  0  0  0  0  0  0  0  0
    2.2370   68.7660   61.8940 C   0  0  0  0  0  0  0  0  0  0  0  0
    0.7790   69.2200   62.0180 C   0  0  0  0  0  0  0  0  0  0  0  0
    0.4540   68.8560   63.4390 C   0  0  0  0  0  0  0  0  0  0  0  0
    1.5740   68.2720   64.0340 C   0  0  0  0  0  0  0  0  0  0  0  0
    2.6120   68.2260   63.1180 N   0  0  0  0  0  0  0  0  0  0  0  0
    1.5980   67.8210   65.3440 C   0  0  0  0  0  0  0  0  0  0  0  0
    0.4010   67.9880   66.0670 C   0  0  0  0  0  0  0  0  0  0  0  0
   -0.7000   68.5730   65.4510 C   0  0  0  0  0  0  0  0  0  0  0  0
   -0.7360   69.0290   64.1310 C   0  0  0  0  0  0  0  0  0  0  0  0
   -1.7310   68.6300   66.3370 O   0  0  0  0  0  0  0  0  0  0  0  0
   -1.3370   68.0870   67.5480 N   0  0  0  0  0  0  0  0  0  0  0  0
   -0.0640   67.7030   67.3790 C   0  0  0  0  0  0  0  0  0  0  0  0
   -0.2320   66.3250   69.5010 C   0  0  0  0  0  0  0  0  0  0  0  0
    0.4750   65.3150   70.4290 C   0  0  0  0  0  0  0  0  0  0  0  0
    2.0040   65.3890   70.2500 C   0  0  0  0  0  0  0  0  0  0  0  0
    2.7360   64.1220   70.6910 C   0  0  0  0  0  0  0  0  0  0  0  0
    1.9560   63.4330   71.7720 N   0  0  0  0  0  4  0  0  0  0  0  0
    0.6100   62.9320   71.2870 C   0  0  0  0  0  0  0  0  0  0  0  0
    0.0120   63.8680   70.2350 C   0  0  0  0  0  0  0  0  0  0  0  0
    2.7640   62.3550   72.4630 C   0  0  0  0  0  0  0  0  0  0  0  0
    3.0280   61.1640   71.5820 C   0  0  0  0  0  0  0  0  0  0  0  0
    3.6890   61.3200   70.3540 C   0  0  0  0  0  0  0  0  0  0  0  0
    3.9620   60.2110   69.5540 C   0  0  0  0  0  0  0  0  0  0  0  0
    3.5790   58.9380   69.9700 C   0  0  0  0  0  0  0  0  0  0  0  0
    2.9200   58.7710   71.1850 C   0  0  0  0  0  0  0  0  0  0  0  0
    2.6450   59.8770   71.9900 C   0  0  0  0  0  0  0  0  0  0  0  0
    1.3960   66.3505   68.0909 H   0  0  0  0  0  0  0  0  0  0  0  0
    1.1652   67.8800   69.0665 H   0  0  0  0  0  0  0  0  0  0  0  0
    0.6828   70.3031   61.8516 H   0  0  0  0  0  0  0  0  0  0  0  0
    0.1079   68.7580   61.2789 H   0  0  0  0  0  0  0  0  0  0  0  0
    3.5454   67.8397   63.3191 H   0  0  0  0  0  0  0  0  0  0  0  0
    2.4931   67.3627   65.7899 H   0  0  0  0  0  0  0  0  0  0  0  0
   -1.6295   69.4852   63.6798 H   0  0  0  0  0  0  0  0  0  0  0  0
   -0.7269   67.0761   70.1342 H   0  0  0  0  0  0  0  0  0  0  0  0
   -0.9249   65.7317   68.8862 H   0  0  0  0  0  0  0  0  0  0  0  0
    0.1945   65.6083   71.4514 H   0  0  0  0  0  0  0  0  0  0  0  0
    2.2211   65.5629   69.1857 H   0  0  0  0  0  0  0  0  0  0  0  0
    2.3635   66.2076   70.8908 H   0  0  0  0  0  0  0  0  0  0  0  0
    2.8441   63.4449   69.8309 H   0  0  0  0  0  0  0  0  0  0  0  0
    3.7296   64.3931   71.0773 H   0  0  0  0  0  0  0  0  0  0  0  0
    1.7535   64.1467   72.4865 H   0  0  0  0  0  0  0  0  0  0  0  0
    0.7380   61.9326   70.8455 H   0  0  0  0  0  0  0  0  0  0  0  0
   -0.0755   62.8942   72.1465 H   0  0  0  0  0  0  0  0  0  0  0  0
    0.3228   63.5259   69.2368 H   0  0  0  0  0  0  0  0  0  0  0  0
   -1.0827   63.8434   70.3395 H   0  0  0  0  0  0  0  0  0  0  0  0
    3.7289   62.7835   72.7719 H   0  0  0  0  0  0  0  0  0  0  0  0
    2.1767   62.0040   73.3243 H   0  0  0  0  0  0  0  0  0  0  0  0
    3.9936   62.3230   70.0205 H   0  0  0  0  0  0  0  0  0  0  0  0
    4.4807   60.3417   68.5928 H   0  0  0  0  0  0  0  0  0  0  0  0
    3.7973   58.0643   69.3383 H   0  0  0  0  0  0  0  0  0  0  0  0
    2.6156   57.7654   71.5109 H   0  0  0  0  0  0  0  0  0  0  0  0
    2.1252   59.7394   72.9496 H   0  0  0  0  0  0  0  0  0  0  0  0
  3  2  2  0
  4  3  1  0
  5  4  1  0
  6  5  2  0
  7  6  1  0
  7  3  1  0
  8  6  1  0
  9  8  2  0
 10  9  1  0
 11 10  2  0
 11  5  1  0
 12 10  1  0
 13 12  1  0
 14 13  2  0
 14  9  1  0
 14  1  1  0
 15  1  1  0
 16 15  1  0
 17 16  1  0
 18 17  1  0
 19 18  1  0
 20 19  1  0
 21 20  1  0
 21 16  1  0
 22 19  1  0
 23 22  1  0
 24 23  2  0
 25 24  1  0
 26 25  2  0
 27 26  1  0
 28 27  2  0
 28 23  1  0
  1 29  1  0
  1 30  1  0
  4 31  1  0
  4 32  1  0
  7 33  1  0
  8 34  1  0
 11 35  1  0
 15 36  1  0
 15 37  1  0
 16 38  1  0
 17 39  1  0
 17 40  1  0
 18 41  1  0
 18 42  1  0
 19 43  1  0
 20 44  1  0
 20 45  1  0
 21 46  1  0
 21 47  1  0
 22 48  1  0
 22 49  1  0
 24 50  1  0
 25 51  1  0
 26 52  1  0
 27 53  1  0
 28 54  1  0
M  CHG  1  19   1
M  END
>  <score>  (6) 
-10.802

$$$$
=
     RDKit          3D

 54 58  0  0  0  0  0  0  0  0999 V2000
    0.4040   63.4640   70.4500 C   0  0  0  0  0  0  0  0  0  0  0  0
    2.6060   57.3380   75.3220 O   0  0  0  0  0  0  0  0  0  0  0  0
    2.7130   58.3040   74.5870 C   0  0  0  0  0  0  0  0  0  0  0  0
    4.0120   58.9980   74.1650 C   0  0  0  0  0  0  0  0  0  0  0  0
    3.5080   60.1040   73.2820 C   0  0  0  0  0  0  0  0  0  0  0  0
    2.1150   60.0400   73.2120 C   0  0  0  0  0  0  0  0  0  0  0  0
    1.6610   58.9810   73.9810 N   0  0  0  0  0  0  0  0  0  0  0  0
    1.3430   60.9220   72.4720 C   0  0  0  0  0  0  0  0  0  0  0  0
    2.0560   61.9170   71.7740 C   0  0  0  0  0  0  0  0  0  0  0  0
    3.4440   61.9580   71.8610 C   0  0  0  0  0  0  0  0  0  0  0  0
    4.2310   61.0740   72.6020 C   0  0  0  0  0  0  0  0  0  0  0  0
    3.9080   62.9960   71.1130 O   0  0  0  0  0  0  0  0  0  0  0  0
    2.8460   63.6560   70.5190 N   0  0  0  0  0  0  0  0  0  0  0  0
    1.7430   63.0040   70.9160 C   0  0  0  0  0  0  0  0  0  0  0  0
    0.1620   64.9690   70.6490 C   0  0  0  0  0  0  0  0  0  0  0  0
    0.5170   65.8700   69.4490 C   0  0  0  0  0  0  0  0  0  0  0  0
    1.5230   66.9610   69.8660 C   0  0  0  0  0  0  0  0  0  0  0  0
    1.5240   68.1800   68.9440 C   0  0  0  0  0  0  0  0  0  0  0  0
    1.1100   67.7740   67.5610 N   0  0  0  0  0  4  0  0  0  0  0  0
   -0.3190   67.2700   67.5070 C   0  0  0  0  0  0  0  0  0  0  0  0
   -0.6990   66.5280   68.7900 C   0  0  0  0  0  0  0  0  0  0  0  0
    1.3850   68.8560   66.5390 C   0  0  0  0  0  0  0  0  0  0  0  0
    2.8390   69.2290   66.4550 C   0  0  0  0  0  0  0  0  0  0  0  0
    3.4950   69.7870   67.5630 C   0  0  0  0  0  0  0  0  0  0  0  0
    4.8520   70.1030   67.4940 C   0  0  0  0  0  0  0  0  0  0  0  0
    5.5660   69.8670   66.3220 C   0  0  0  0  0  0  0  0  0  0  0  0
    4.9250   69.3170   65.2150 C   0  0  0  0  0  0  0  0  0  0  0  0
    3.5690   68.9980   65.2780 C   0  0  0  0  0  0  0  0  0  0  0  0
    0.3129   63.2368   69.3776 H   0  0  0  0  0  0  0  0  0  0  0  0
   -0.3458   62.9356   71.0571 H   0  0  0  0  0  0  0  0  0  0  0  0
    4.5519   59.3976   75.0361 H   0  0  0  0  0  0  0  0  0  0  0  0
    4.7294   58.3283   73.6682 H   0  0  0  0  0  0  0  0  0  0  0  0
    0.6687   58.7272   74.0900 H   0  0  0  0  0  0  0  0  0  0  0  0
    0.2461   60.8499   72.4323 H   0  0  0  0  0  0  0  0  0  0  0  0
    5.3282   61.1406   72.6431 H   0  0  0  0  0  0  0  0  0  0  0  0
   -0.9050   65.1124   70.8747 H   0  0  0  0  0  0  0  0  0  0  0  0
    0.8363   65.2751   71.4624 H   0  0  0  0  0  0  0  0  0  0  0  0
    0.9666   65.2008   68.7006 H   0  0  0  0  0  0  0  0  0  0  0  0
    1.2712   67.2951   70.8833 H   0  0  0  0  0  0  0  0  0  0  0  0
    2.5259   66.5129   69.8078 H   0  0  0  0  0  0  0  0  0  0  0  0
    0.8185   68.9303   69.3305 H   0  0  0  0  0  0  0  0  0  0  0  0
    2.5374   68.6063   68.9083 H   0  0  0  0  0  0  0  0  0  0  0  0
    1.7040   66.9734   67.3019 H   0  0  0  0  0  0  0  0  0  0  0  0
   -0.9959   68.1271   67.3756 H   0  0  0  0  0  0  0  0  0  0  0  0
   -0.4070   66.5696   66.6634 H   0  0  0  0  0  0  0  0  0  0  0  0
   -1.1429   67.2442   69.4971 H   0  0  0  0  0  0  0  0  0  0  0  0
   -1.4153   65.7357   68.5269 H   0  0  0  0  0  0  0  0  0  0  0  0
    1.0576   68.4973   65.5520 H   0  0  0  0  0  0  0  0  0  0  0  0
    0.8327   69.7538   66.8536 H   0  0  0  0  0  0  0  0  0  0  0  0
    2.9360   69.9763   68.4912 H   0  0  0  0  0  0  0  0  0  0  0  0
    5.3590   70.5395   68.3672 H   0  0  0  0  0  0  0  0  0  0  0  0
    6.6364   70.1151   66.2707 H   0  0  0  0  0  0  0  0  0  0  0  0
    5.4895   69.1338   64.2888 H   0  0  0  0  0  0  0  0  0  0  0  0
    3.0683   68.5629   64.4005 H   0  0  0  0  0  0  0  0  0  0  0  0
  3  2  2  0
  4  3  1  0
  5  4  1  0
  6  5  2  0
  7  6  1  0
  7  3  1  0
  8  6  1  0
  9  8  2  0
 10  9  1  0
 11 10  2  0
 11  5  1  0
 12 10  1  0
 13 12  1  0
 14 13  2  0
 14  9  1  0
 14  1  1  0
 15  1  1  0
 16 15  1  0
 17 16  1  0
 18 17  1  0
 19 18  1  0
 20 19  1  0
 21 20  1  0
 21 16  1  0
 22 19  1  0
 23 22  1  0
 24 23  2  0
 25 24  1  0
 26 25  2  0
 27 26  1  0
 28 27  2  0
 28 23  1  0
  1 29  1  0
  1 30  1  0
  4 31  1  0
  4 32  1  0
  7 33  1  0
  8 34  1  0
 11 35  1  0
 15 36  1  0
 15 37  1  0
 16 38  1  0
 17 39  1  0
 17 40  1  0
 18 41  1  0
 18 42  1  0
 19 43  1  0
 20 44  1  0
 20 45  1  0
 21 46  1  0
 21 47  1  0
 22 48  1  0
 22 49  1  0
 24 50  1  0
 25 51  1  0
 26 52  1  0
 27 53  1  0
 28 54  1  0
M  CHG  1  19   1
M  END
>  <score>  (7) 
-10.426

$$$$
=
     RDKit          3D

 54 58  0  0  0  0  0  0  0  0999 V2000
    1.0940   64.3760   71.7210 C   0  0  0  0  0  0  0  0  0  0  0  0
    4.0210   56.8960   70.4620 O   0  0  0  0  0  0  0  0  0  0  0  0
    3.3600   57.7920   70.9560 C   0  0  0  0  0  0  0  0  0  0  0  0
    2.3440   57.6630   72.0950 C   0  0  0  0  0  0  0  0  0  0  0  0
    1.8600   59.0780   72.2500 C   0  0  0  0  0  0  0  0  0  0  0  0
    2.5180   59.8940   71.3270 C   0  0  0  0  0  0  0  0  0  0  0  0
    3.3940   59.1280   70.5750 N   0  0  0  0  0  0  0  0  0  0  0  0
    2.2980   61.2580   71.2160 C   0  0  0  0  0  0  0  0  0  0  0  0
    1.3480   61.7950   72.1070 C   0  0  0  0  0  0  0  0  0  0  0  0
    0.7070   60.9590   73.0160 C   0  0  0  0  0  0  0  0  0  0  0  0
    0.9230   59.5850   73.1380 C   0  0  0  0  0  0  0  0  0  0  0  0
   -0.1610   61.6940   73.7640 O   0  0  0  0  0  0  0  0  0  0  0  0
   -0.1120   63.0200   73.3690 N   0  0  0  0  0  0  0  0  0  0  0  0
    0.7940   63.0730   72.3810 C   0  0  0  0  0  0  0  0  0  0  0  0
   -0.1050   64.9840   70.9760 C   0  0  0  0  0  0  0  0  0  0  0  0
    0.1760   66.2890   70.2030 C   0  0  0  0  0  0  0  0  0  0  0  0
   -0.6330   66.3320   68.8930 C   0  0  0  0  0  0  0  0  0  0  0  0
   -0.0480   67.2730   67.8400 C   0  0  0  0  0  0  0  0  0  0  0  0
    0.6990   68.3870   68.5110 N   0  0  0  0  0  4  0  0  0  0  0  0
    1.9090   67.8950   69.2800 C   0  0  0  0  0  0  0  0  0  0  0  0
    1.6590   66.5150   69.8900 C   0  0  0  0  0  0  0  0  0  0  0  0
    1.0360   69.5100   67.5540 C   0  0  0  0  0  0  0  0  0  0  0  0
    2.5050   69.5950   67.2410 C   0  0  0  0  0  0  0  0  0  0  0  0
    2.9950   69.1520   66.0020 C   0  0  0  0  0  0  0  0  0  0  0  0
    4.3530   69.2610   65.7010 C   0  0  0  0  0  0  0  0  0  0  0  0
    5.2330   69.8100   66.6310 C   0  0  0  0  0  0  0  0  0  0  0  0
    4.7590   70.2480   67.8640 C   0  0  0  0  0  0  0  0  0  0  0  0
    3.4020   70.1430   68.1710 C   0  0  0  0  0  0  0  0  0  0  0  0
    1.4206   65.0887   72.4927 H   0  0  0  0  0  0  0  0  0  0  0  0
    1.8738   64.1827   70.9696 H   0  0  0  0  0  0  0  0  0  0  0  0
    1.5204   56.9875   71.8203 H   0  0  0  0  0  0  0  0  0  0  0  0
    2.7660   57.2369   73.0172 H   0  0  0  0  0  0  0  0  0  0  0  0
    3.9953   59.5020   69.8270 H   0  0  0  0  0  0  0  0  0  0  0  0
    2.8299   61.8799   70.4810 H   0  0  0  0  0  0  0  0  0  0  0  0
    0.3963   58.9595   73.8738 H   0  0  0  0  0  0  0  0  0  0  0  0
   -0.4688   64.2367   70.2555 H   0  0  0  0  0  0  0  0  0  0  0  0
   -0.8364   65.2492   71.7536 H   0  0  0  0  0  0  0  0  0  0  0  0
   -0.1395   67.1016   70.8739 H   0  0  0  0  0  0  0  0  0  0  0  0
   -0.6656   65.3165   68.4715 H   0  0  0  0  0  0  0  0  0  0  0  0
   -1.6332   66.7140   69.1453 H   0  0  0  0  0  0  0  0  0  0  0  0
    0.6399   66.7116   67.1907 H   0  0  0  0  0  0  0  0  0  0  0  0
   -0.8654   67.6959   67.2375 H   0  0  0  0  0  0  0  0  0  0  0  0
    0.0585   68.7856   69.2122 H   0  0  0  0  0  0  0  0  0  0  0  0
    2.7676   67.8334   68.5951 H   0  0  0  0  0  0  0  0  0  0  0  0
    2.1115   68.6032   70.0970 H   0  0  0  0  0  0  0  0  0  0  0  0
    1.9936   65.7457   69.1785 H   0  0  0  0  0  0  0  0  0  0  0  0
    2.2201   66.4527   70.8341 H   0  0  0  0  0  0  0  0  0  0  0  0
    0.4865   69.3471   66.6151 H   0  0  0  0  0  0  0  0  0  0  0  0
    0.7481   70.4539   68.0401 H   0  0  0  0  0  0  0  0  0  0  0  0
    2.3045   68.7167   65.2647 H   0  0  0  0  0  0  0  0  0  0  0  0
    4.7294   68.9129   64.7278 H   0  0  0  0  0  0  0  0  0  0  0  0
    6.3029   69.8973   66.3907 H   0  0  0  0  0  0  0  0  0  0  0  0
    5.4559   70.6781   68.5984 H   0  0  0  0  0  0  0  0  0  0  0  0
    3.0333   70.4915   69.1470 H   0  0  0  0  0  0  0  0  0  0  0  0
  3  2  2  0
  4  3  1  0
  5  4  1  0
  6  5  2  0
  7  6  1  0
  7  3  1  0
  8  6  1  0
  9  8  2  0
 10  9  1  0
 11 10  2  0
 11  5  1  0
 12 10  1  0
 13 12  1  0
 14 13  2  0
 14  9  1  0
 14  1  1  0
 15  1  1  0
 16 15  1  0
 17 16  1  0
 18 17  1  0
 19 18  1  0
 20 19  1  0
 21 20  1  0
 21 16  1  0
 22 19  1  0
 23 22  1  0
 24 23  2  0
 25 24  1  0
 26 25  2  0
 27 26  1  0
 28 27  2  0
 28 23  1  0
  1 29  1  0
  1 30  1  0
  4 31  1  0
  4 32  1  0
  7 33  1  0
  8 34  1  0
 11 35  1  0
 15 36  1  0
 15 37  1  0
 16 38  1  0
 17 39  1  0
 17 40  1  0
 18 41  1  0
 18 42  1  0
 19 43  1  0
 20 44  1  0
 20 45  1  0
 21 46  1  0
 21 47  1  0
 22 48  1  0
 22 49  1  0
 24 50  1  0
 25 51  1  0
 26 52  1  0
 27 53  1  0
 28 54  1  0
M  CHG  1  19   1
M  END
>  <score>  (8) 
-10.184

$$$$
=
     RDKit          3D

 54 58  0  0  0  0  0  0  0  0999 V2000
    3.3740   60.5910   71.5390 C   0  0  0  0  0  0  0  0  0  0  0  0
   -2.8990   58.2620   76.1580 O   0  0  0  0  0  0  0  0  0  0  0  0
   -1.9410   58.1760   75.4100 C   0  0  0  0  0  0  0  0  0  0  0  0
   -1.3390   56.8900   74.8340 C   0  0  0  0  0  0  0  0  0  0  0  0
   -0.1990   57.4170   74.0090 C   0  0  0  0  0  0  0  0  0  0  0  0
   -0.1660   58.8090   74.1030 C   0  0  0  0  0  0  0  0  0  0  0  0
   -1.1910   59.2420   74.9270 N   0  0  0  0  0  0  0  0  0  0  0  0
    0.7690   59.6000   73.4530 C   0  0  0  0  0  0  0  0  0  0  0  0
    1.7130   58.9060   72.6700 C   0  0  0  0  0  0  0  0  0  0  0  0
    1.6580   57.5180   72.5940 C   0  0  0  0  0  0  0  0  0  0  0  0
    0.7190   56.7130   73.2430 C   0  0  0  0  0  0  0  0  0  0  0  0
    2.6620   57.0740   71.7890 O   0  0  0  0  0  0  0  0  0  0  0  0
    3.3950   58.1500   71.3200 N   0  0  0  0  0  0  0  0  0  0  0  0
    2.8210   59.2410   71.8470 C   0  0  0  0  0  0  0  0  0  0  0  0
    3.0520   61.0830   70.1190 C   0  0  0  0  0  0  0  0  0  0  0  0
    2.1820   62.3550   70.0310 C   0  0  0  0  0  0  0  0  0  0  0  0
    3.0620   63.6190   70.0540 C   0  0  0  0  0  0  0  0  0  0  0  0
    2.3190   64.8770   70.5030 C   0  0  0  0  0  0  0  0  0  0  0  0
    0.8640   64.7600   70.1550 N   0  0  0  0  0  4  0  0  0  0  0  0
    0.1760   63.6360   70.9060 C   0  0  0  0  0  0  0  0  0  0  0  0
    1.1220   62.4550   71.1320 C   0  0  0  0  0  0  0  0  0  0  0  0
    0.1340   66.0800   70.2880 C   0  0  0  0  0  0  0  0  0  0  0  0
    0.0230   66.8230   68.9850 C   0  0  0  0  0  0  0  0  0  0  0  0
    1.1120   67.5580   68.4900 C   0  0  0  0  0  0  0  0  0  0  0  0
    1.0180   68.2200   67.2660 C   0  0  0  0  0  0  0  0  0  0  0  0
   -0.1600   68.1560   66.5260 C   0  0  0  0  0  0  0  0  0  0  0  0
   -1.2480   67.4340   67.0090 C   0  0  0  0  0  0  0  0  0  0  0  0
   -1.1600   66.7690   68.2310 C   0  0  0  0  0  0  0  0  0  0  0  0
    2.9553   61.3099   72.2586 H   0  0  0  0  0  0  0  0  0  0  0  0
    4.4689   60.5132   71.6110 H   0  0  0  0  0  0  0  0  0  0  0  0
   -0.9794   56.2249   75.6330 H   0  0  0  0  0  0  0  0  0  0  0  0
   -2.0563   56.2839   74.2612 H   0  0  0  0  0  0  0  0  0  0  0  0
   -1.3747   60.2298   75.1536 H   0  0  0  0  0  0  0  0  0  0  0  0
    0.7736   60.6963   73.5426 H   0  0  0  0  0  0  0  0  0  0  0  0
    0.7082   55.6166   73.1545 H   0  0  0  0  0  0  0  0  0  0  0  0
    4.0045   61.2894   69.6090 H   0  0  0  0  0  0  0  0  0  0  0  0
    2.4595   60.2824   69.6521 H   0  0  0  0  0  0  0  0  0  0  0  0
    1.6458   62.2801   69.0735 H   0  0  0  0  0  0  0  0  0  0  0  0
    3.9005   63.4458   70.7446 H   0  0  0  0  0  0  0  0  0  0  0  0
    3.3981   63.7955   69.0216 H   0  0  0  0  0  0  0  0  0  0  0  0
    2.4257   64.9951   71.5914 H   0  0  0  0  0  0  0  0  0  0  0  0
    2.7454   65.7525   69.9914 H   0  0  0  0  0  0  0  0  0  0  0  0
    0.8225   64.5047   69.1580 H   0  0  0  0  0  0  0  0  0  0  0  0
   -0.1649   64.0133   71.8814 H   0  0  0  0  0  0  0  0  0  0  0  0
   -0.6755   63.2872   70.3033 H   0  0  0  0  0  0  0  0  0  0  0  0
    1.6265   62.5835   72.1010 H   0  0  0  0  0  0  0  0  0  0  0  0
    0.5249   61.5313   71.1159 H   0  0  0  0  0  0  0  0  0  0  0  0
   -0.8797   65.8835   70.6671 H   0  0  0  0  0  0  0  0  0  0  0  0
    0.7150   66.7097   70.9779 H   0  0  0  0  0  0  0  0  0  0  0  0
    2.0446   67.6121   69.0708 H   0  0  0  0  0  0  0  0  0  0  0  0
    1.8757   68.7935   66.8846 H   0  0  0  0  0  0  0  0  0  0  0  0
   -0.2309   68.6762   65.5594 H   0  0  0  0  0  0  0  0  0  0  0  0
   -2.1791   67.3882   66.4251 H   0  0  0  0  0  0  0  0  0  0  0  0
   -2.0224   66.1987   68.6066 H   0  0  0  0  0  0  0  0  0  0  0  0
  3  2  2  0
  4  3  1  0
  5  4  1  0
  6  5  2  0
  7  6  1  0
  7  3  1  0
  8  6  1  0
  9  8  2  0
 10  9  1  0
 11 10  2  0
 11  5  1  0
 12 10  1  0
 13 12  1  0
 14 13  2  0
 14  9  1  0
 14  1  1  0
 15  1  1  0
 16 15  1  0
 17 16  1  0
 18 17  1  0
 19 18  1  0
 20 19  1  0
 21 20  1  0
 21 16  1  0
 22 19  1  0
 23 22  1  0
 24 23  2  0
 25 24  1  0
 26 25  2  0
 27 26  1  0
 28 27  2  0
 28 23  1  0
  1 29  1  0
  1 30  1  0
  4 31  1  0
  4 32  1  0
  7 33  1  0
  8 34  1  0
 11 35  1  0
 15 36  1  0
 15 37  1  0
 16 38  1  0
 17 39  1  0
 17 40  1  0
 18 41  1  0
 18 42  1  0
 19 43  1  0
 20 44  1  0
 20 45  1  0
 21 46  1  0
 21 47  1  0
 22 48  1  0
 22 49  1  0
 24 50  1  0
 25 51  1  0
 26 52  1  0
 27 53  1  0
 28 54  1  0
M  CHG  1  19   1
M  END
>  <score>  (9) 
-10.084

$$$$
