=
     RDKit          3D

 35 36  0  0  0  0  0  0  0  0999 V2000
    1.8440   68.8390   66.8880 C   0  0  1  0  0  0  0  0  0  0  0  0
    2.5720   69.2350   65.6060 C   0  0  0  0  0  0  0  0  0  0  0  0
    4.0830   69.1120   65.7890 C   0  0  0  0  0  0  0  0  0  0  0  0
    4.6000   69.7620   67.0480 C   0  0  0  0  0  0  0  0  0  0  0  0
    3.7220   70.0660   68.1100 C   0  0  0  0  0  0  0  0  0  0  0  0
    2.2370   69.7990   68.0230 C   0  0  0  0  0  0  0  0  0  0  0  0
    4.2180   70.6790   69.2730 C   0  0  0  0  0  0  0  0  0  0  0  0
    5.5730   70.9730   69.4010 C   0  0  0  0  0  0  0  0  0  0  0  0
    6.4480   70.6530   68.3700 C   0  0  0  0  0  0  0  0  0  0  0  0
    5.9670   70.0430   67.2140 C   0  0  0  0  0  0  0  0  0  0  0  0
    0.0840   66.8870   67.7940 O   0  0  0  0  0  0  0  0  0  0  0  0
   -0.3850   67.8280   67.1600 C   0  0  0  0  0  0  0  0  0  0  0  0
   -1.7410   67.9720   66.9010 N   0  0  0  0  0  0  0  0  0  0  0  0
   -2.6210   66.9450   67.4360 C   0  0  0  0  0  0  0  0  0  0  0  0
   -2.2720   68.7190   65.7690 C   0  0  0  0  0  0  0  0  0  0  0  0
    0.4010   68.8350   66.6570 N   0  0  0  0  0  0  0  0  0  0  0  0
    6.9080   69.7410   66.2690 O   0  0  0  0  0  0  0  0  0  0  0  0
    2.1382   67.8223   67.1877 H   0  0  0  0  0  0  0  0  0  0  0  0
    2.2513   68.5727   64.7883 H   0  0  0  0  0  0  0  0  0  0  0  0
    2.3267   70.2801   65.3660 H   0  0  0  0  0  0  0  0  0  0  0  0
    4.3426   68.0435   65.8189 H   0  0  0  0  0  0  0  0  0  0  0  0
    4.5513   69.6363   64.9429 H   0  0  0  0  0  0  0  0  0  0  0  0
    1.9069   69.3617   68.9768 H   0  0  0  0  0  0  0  0  0  0  0  0
    1.7504   70.7623   67.8104 H   0  0  0  0  0  0  0  0  0  0  0  0
    3.5277   70.9296   70.0920 H   0  0  0  0  0  0  0  0  0  0  0  0
    5.9493   71.4566   70.3145 H   0  0  0  0  0  0  0  0  0  0  0  0
    7.5197   70.8813   68.4668 H   0  0  0  0  0  0  0  0  0  0  0  0
   -2.5946   66.9758   68.5353 H   0  0  0  0  0  0  0  0  0  0  0  0
   -3.6490   67.1256   67.0887 H   0  0  0  0  0  0  0  0  0  0  0  0
   -2.2849   65.9568   67.0887 H   0  0  0  0  0  0  0  0  0  0  0  0
   -2.8727   69.5640   66.1366 H   0  0  0  0  0  0  0  0  0  0  0  0
   -1.4401   69.0989   65.1577 H   0  0  0  0  0  0  0  0  0  0  0  0
   -2.9042   68.0582   65.1577 H   0  0  0  0  0  0  0  0  0  0  0  0
   -0.0304   69.5948   66.1117 H   0  0  0  0  0  0  0  0  0  0  0  0
    7.8601   69.9585   66.4313 H   0  0  0  0  0  0  0  0  0  0  0  0
  2  1  1  0
  3  2  1  0
  4  3  1  0
  5  4  2  0
  6  5  1  0
  6  1  1  0
  7  5  1  0
  8  7  2  0
  9  8  1  0
 10  4  1  0
 10  9  2  0
 12 11  2  0
 13 12  1  0
 14 13  1  0
 15 13  1  0
 16 12  1  0
 16  1  1  0
 17 10  1  0
  1 18  1  1
  2 19  1  0
  2 20  1  0
  3 21  1  0
  3 22  1  0
  6 23  1  0
  6 24  1  0
  7 25  1  0
  8 26  1  0
  9 27  1  0
 14 28  1  0
 14 29  1  0
 14 30  1  0
 15 31  1  0
 15 32  1  0
 15 33  1  0
 16 34  1  0
 17 35  1  0
M  END
>  <score>  (1) 
-9.618

$$$$
=
     RDKit          3D

 35 36  0  0  0  0  0  0  0  0999 V2000
    0.9830   68.2950   64.8860 C   0  0  1  0  0  0  0  0  0  0  0  0
    1.0720   68.8900   63.4830 C   0  0  0  0  0  0  0  0  0  0  0  0
    2.4550   68.6420   62.8850 C   0  0  0  0  0  0  0  0  0  0  0  0
    3.5930   69.0000   63.8070 C   0  0  0  0  0  0  0  0  0  0  0  0
    3.3730   69.1420   65.1940 C   0  0  0  0  0  0  0  0  0  0  0  0
    2.0000   68.9880   65.8070 C   0  0  0  0  0  0  0  0  0  0  0  0
    4.4420   69.4840   66.0400 C   0  0  0  0  0  0  0  0  0  0  0  0
    5.7250   69.6640   65.5290 C   0  0  0  0  0  0  0  0  0  0  0  0
    5.9550   69.4990   64.1680 C   0  0  0  0  0  0  0  0  0  0  0  0
    4.9020   69.1580   63.3220 C   0  0  0  0  0  0  0  0  0  0  0  0
   -0.1190   66.7610   66.9250 O   0  0  0  0  0  0  0  0  0  0  0  0
   -0.8270   67.6250   66.4150 C   0  0  0  0  0  0  0  0  0  0  0  0
   -2.1280   67.8830   66.8250 N   0  0  0  0  0  0  0  0  0  0  0  0
   -2.6390   67.0810   67.9240 C   0  0  0  0  0  0  0  0  0  0  0  0
   -3.1420   68.4780   65.9640 C   0  0  0  0  0  0  0  0  0  0  0  0
   -0.3820   68.4250   65.3930 N   0  0  0  0  0  0  0  0  0  0  0  0
    5.2320   68.9910   62.0060 O   0  0  0  0  0  0  0  0  0  0  0  0
    1.2295   67.2234   64.8550 H   0  0  0  0  0  0  0  0  0  0  0  0
    0.3108   68.4214   62.8419 H   0  0  0  0  0  0  0  0  0  0  0  0
    0.8997   69.9747   63.5444 H   0  0  0  0  0  0  0  0  0  0  0  0
    2.5367   67.5745   62.6325 H   0  0  0  0  0  0  0  0  0  0  0  0
    2.5424   69.2929   62.0026 H   0  0  0  0  0  0  0  0  0  0  0  0
    2.0959   68.3932   66.7273 H   0  0  0  0  0  0  0  0  0  0  0  0
    1.6194   70.0021   65.9986 H   0  0  0  0  0  0  0  0  0  0  0  0
    4.2633   69.6109   67.1179 H   0  0  0  0  0  0  0  0  0  0  0  0
    6.5533   69.9357   66.1999 H   0  0  0  0  0  0  0  0  0  0  0  0
    6.9670   69.6375   63.7596 H   0  0  0  0  0  0  0  0  0  0  0  0
   -2.3465   67.5401   68.8799 H   0  0  0  0  0  0  0  0  0  0  0  0
   -3.7361   67.0306   67.8620 H   0  0  0  0  0  0  0  0  0  0  0  0
   -2.2212   66.0653   67.8620 H   0  0  0  0  0  0  0  0  0  0  0  0
   -3.9256   68.9378   66.5841 H   0  0  0  0  0  0  0  0  0  0  0  0
   -2.6784   69.2473   65.3290 H   0  0  0  0  0  0  0  0  0  0  0  0
   -3.5874   67.6980   65.3290 H   0  0  0  0  0  0  0  0  0  0  0  0
   -1.0156   69.1237   64.9791 H   0  0  0  0  0  0  0  0  0  0  0  0
    6.1692   69.1132   61.7113 H   0  0  0  0  0  0  0  0  0  0  0  0
  2  1  1  0
  3  2  1  0
  4  3  1  0
  5  4  2  0
  6  5  1  0
  6  1  1  0
  7  5  1  0
  8  7  2  0
  9  8  1  0
 10  4  1  0
 10  9  2  0
 12 11  2  0
 13 12  1  0
 14 13  1  0
 15 13  1  0
 16 12  1  0
 16  1  1  0
 17 10  1  0
  1 18  1  6
  2 19  1  0
  2 20  1  0
  3 21  1  0
  3 22  1  0
  6 23  1  0
  6 24  1  0
  7 25  1  0
  8 26  1  0
  9 27  1  0
 14 28  1  0
 14 29  1  0
 14 30  1  0
 15 31  1  0
 15 32  1  0
 15 33  1  0
 16 34  1  0
 17 35  1  0
M  END
>  <score>  (2) 
-8.689

$$$$
=
     RDKit          3D

 35 36  0  0  0  0  0  0  0  0999 V2000
    1.4030   69.1780   67.4010 C   0  0  1  0  0  0  0  0  0  0  0  0
    2.0710   68.9910   68.7610 C   0  0  0  0  0  0  0  0  0  0  0  0
    3.2460   69.9530   68.9160 C   0  0  0  0  0  0  0  0  0  0  0  0
    4.1850   69.9650   67.7360 C   0  0  0  0  0  0  0  0  0  0  0  0
    3.7720   69.4570   66.4860 C   0  0  0  0  0  0  0  0  0  0  0  0
    2.4050   68.8450   66.2830 C   0  0  0  0  0  0  0  0  0  0  0  0
    4.6620   69.4670   65.3990 C   0  0  0  0  0  0  0  0  0  0  0  0
    5.9440   69.9950   65.5320 C   0  0  0  0  0  0  0  0  0  0  0  0
    6.3490   70.5220   66.7530 C   0  0  0  0  0  0  0  0  0  0  0  0
    5.4730   70.5180   67.8370 C   0  0  0  0  0  0  0  0  0  0  0  0
   -1.1080   70.0640   66.6030 O   0  0  0  0  0  0  0  0  0  0  0  0
   -0.9890   68.8780   66.8990 C   0  0  0  0  0  0  0  0  0  0  0  0
   -2.0340   67.9670   66.8290 N   0  0  0  0  0  0  0  0  0  0  0  0
   -3.3140   68.4750   66.3640 C   0  0  0  0  0  0  0  0  0  0  0  0
   -2.1000   66.7520   67.6300 C   0  0  0  0  0  0  0  0  0  0  0  0
    0.2040   68.3460   67.3190 N   0  0  0  0  0  0  0  0  0  0  0  0
    5.9520   71.0830   68.9850 O   0  0  0  0  0  0  0  0  0  0  0  0
    1.0928   70.2260   67.2767 H   0  0  0  0  0  0  0  0  0  0  0  0
    1.3357   69.1866   69.5554 H   0  0  0  0  0  0  0  0  0  0  0  0
    2.4439   67.9588   68.8354 H   0  0  0  0  0  0  0  0  0  0  0  0
    2.8465   70.9689   69.0512 H   0  0  0  0  0  0  0  0  0  0  0  0
    3.8279   69.6094   69.7839 H   0  0  0  0  0  0  0  0  0  0  0  0
    1.9974   69.2150   65.3306 H   0  0  0  0  0  0  0  0  0  0  0  0
    2.5391   67.7532   66.2881 H   0  0  0  0  0  0  0  0  0  0  0  0
    4.3426   69.0529   64.4313 H   0  0  0  0  0  0  0  0  0  0  0  0
    6.6331   69.9950   64.6746 H   0  0  0  0  0  0  0  0  0  0  0  0
    7.3598   70.9417   66.8635 H   0  0  0  0  0  0  0  0  0  0  0  0
   -3.9453   68.7255   67.2293 H   0  0  0  0  0  0  0  0  0  0  0  0
   -3.1514   69.3768   65.7554 H   0  0  0  0  0  0  0  0  0  0  0  0
   -3.8140   67.7072   65.7554 H   0  0  0  0  0  0  0  0  0  0  0  0
   -2.0857   67.0156   68.6979 H   0  0  0  0  0  0  0  0  0  0  0  0
   -3.0289   66.2102   67.3985 H   0  0  0  0  0  0  0  0  0  0  0  0
   -1.2353   66.1128   67.3985 H   0  0  0  0  0  0  0  0  0  0  0  0
    0.2552   67.3507   67.5790 H   0  0  0  0  0  0  0  0  0  0  0  0
    6.8672   71.4598   69.0068 H   0  0  0  0  0  0  0  0  0  0  0  0
  2  1  1  0
  3  2  1  0
  4  3  1  0
  5  4  2  0
  6  5  1  0
  6  1  1  0
  7  5  1  0
  8  7  2  0
  9  8  1  0
 10  4  1  0
 10  9  2  0
 12 11  2  0
 13 12  1  0
 14 13  1  0
 15 13  1  0
 16 12  1  0
 16  1  1  0
 17 10  1  0
  1 18  1  6
  2 19  1  0
  2 20  1  0
  3 21  1  0
  3 22  1  0
  6 23  1  0
  6 24  1  0
  7 25  1  0
  8 26  1  0
  9 27  1  0
 14 28  1  0
 14 29  1  0
 14 30  1  0
 15 31  1  0
 15 32  1  0
 15 33  1  0
 16 34  1  0
 17 35  1  0
M  END
>  <score>  (3) 
-8.614

$$$$
=
     RDKit          3D

 35 36  0  0  0  0  0  0  0  0999 V2000
    1.2670   64.9010   70.5800 C   0  0  1  0  0  0  0  0  0  0  0  0
    0.4200   63.8920   71.3530 C   0  0  0  0  0  0  0  0  0  0  0  0
    1.2170   63.3030   72.5140 C   0  0  0  0  0  0  0  0  0  0  0  0
    2.5940   62.8230   72.1280 C   0  0  0  0  0  0  0  0  0  0  0  0
    3.1970   63.2650   70.9310 C   0  0  0  0  0  0  0  0  0  0  0  0
    2.4870   64.1920   69.9710 C   0  0  0  0  0  0  0  0  0  0  0  0
    4.4770   62.8020   70.5810 C   0  0  0  0  0  0  0  0  0  0  0  0
    5.1700   61.9270   71.4130 C   0  0  0  0  0  0  0  0  0  0  0  0
    4.5940   61.5080   72.6070 C   0  0  0  0  0  0  0  0  0  0  0  0
    3.3260   61.9630   72.9640 C   0  0  0  0  0  0  0  0  0  0  0  0
    1.6540   67.4840   69.6290 O   0  0  0  0  0  0  0  0  0  0  0  0
    0.7340   66.8290   69.1450 C   0  0  0  0  0  0  0  0  0  0  0  0
   -0.0940   67.3080   68.1380 N   0  0  0  0  0  0  0  0  0  0  0  0
    0.1810   68.6480   67.6480 C   0  0  0  0  0  0  0  0  0  0  0  0
   -1.4510   66.8280   67.9140 C   0  0  0  0  0  0  0  0  0  0  0  0
    0.4520   65.5510   69.5560 N   0  0  0  0  0  0  0  0  0  0  0  0
    2.8560   61.5180   74.1680 O   0  0  0  0  0  0  0  0  0  0  0  0
    1.6344   65.6822   71.2618 H   0  0  0  0  0  0  0  0  0  0  0  0
   -0.4744   64.3968   71.7471 H   0  0  0  0  0  0  0  0  0  0  0  0
    0.1276   63.0782   70.6732 H   0  0  0  0  0  0  0  0  0  0  0  0
    1.3243   64.0768   73.2884 H   0  0  0  0  0  0  0  0  0  0  0  0
    0.6603   62.4237   72.8703 H   0  0  0  0  0  0  0  0  0  0  0  0
    3.2018   64.9581   69.6363 H   0  0  0  0  0  0  0  0  0  0  0  0
    2.1157   63.5712   69.1423 H   0  0  0  0  0  0  0  0  0  0  0  0
    4.9366   63.1349   69.6387 H   0  0  0  0  0  0  0  0  0  0  0  0
    6.1697   61.5684   71.1267 H   0  0  0  0  0  0  0  0  0  0  0  0
    5.1383   60.8184   73.2689 H   0  0  0  0  0  0  0  0  0  0  0  0
    0.3207   69.3287   68.5007 H   0  0  0  0  0  0  0  0  0  0  0  0
    1.0950   68.6343   67.0362 H   0  0  0  0  0  0  0  0  0  0  0  0
   -0.6646   68.9954   67.0362 H   0  0  0  0  0  0  0  0  0  0  0  0
   -1.9429   66.6540   68.8824 H   0  0  0  0  0  0  0  0  0  0  0  0
   -2.0169   67.5805   67.3452 H   0  0  0  0  0  0  0  0  0  0  0  0
   -1.4179   65.8870   67.3452 H   0  0  0  0  0  0  0  0  0  0  0  0
   -0.3420   65.0446   69.1387 H   0  0  0  0  0  0  0  0  0  0  0  0
    3.4094   60.9124   74.7222 H   0  0  0  0  0  0  0  0  0  0  0  0
  2  1  1  0
  3  2  1  0
  4  3  1  0
  5  4  2  0
  6  5  1  0
  6  1  1  0
  7  5  1  0
  8  7  2  0
  9  8  1  0
 10  4  1  0
 10  9  2  0
 12 11  2  0
 13 12  1  0
 14 13  1  0
 15 13  1  0
 16 12  1  0
 16  1  1  0
 17 10  1  0
  1 18  1  1
  2 19  1  0
  2 20  1  0
  3 21  1  0
  3 22  1  0
  6 23  1  0
  6 24  1  0
  7 25  1  0
  8 26  1  0
  9 27  1  0
 14 28  1  0
 14 29  1  0
 14 30  1  0
 15 31  1  0
 15 32  1  0
 15 33  1  0
 16 34  1  0
 17 35  1  0
M  END
>  <score>  (4) 
-7.994

$$$$
=
     RDKit          3D

 35 36  0  0  0  0  0  0  0  0999 V2000
    1.2880   68.7150   66.1160 C   0  0  1  0  0  0  0  0  0  0  0  0
    2.4450   68.6190   67.1070 C   0  0  0  0  0  0  0  0  0  0  0  0
    3.6210   69.4740   66.6420 C   0  0  0  0  0  0  0  0  0  0  0  0
    3.9950   69.2620   65.1960 C   0  0  0  0  0  0  0  0  0  0  0  0
    3.0860   68.6580   64.3010 C   0  0  0  0  0  0  0  0  0  0  0  0
    1.7300   68.1620   64.7500 C   0  0  0  0  0  0  0  0  0  0  0  0
    3.4530   68.4590   62.9600 C   0  0  0  0  0  0  0  0  0  0  0  0
    4.6980   68.8720   62.4930 C   0  0  0  0  0  0  0  0  0  0  0  0
    5.5890   69.4920   63.3620 C   0  0  0  0  0  0  0  0  0  0  0  0
    5.2340   69.6950   64.6930 C   0  0  0  0  0  0  0  0  0  0  0  0
   -1.3630   69.4140   65.6560 O   0  0  0  0  0  0  0  0  0  0  0  0
   -1.1460   68.4190   66.3420 C   0  0  0  0  0  0  0  0  0  0  0  0
   -2.1540   67.6230   66.8690 N   0  0  0  0  0  0  0  0  0  0  0  0
   -3.5210   68.0100   66.5620 C   0  0  0  0  0  0  0  0  0  0  0  0
   -1.9920   66.8010   68.0620 C   0  0  0  0  0  0  0  0  0  0  0  0
    0.1270   67.9990   66.6380 N   0  0  0  0  0  0  0  0  0  0  0  0
    6.1640   70.3370   65.4620 O   0  0  0  0  0  0  0  0  0  0  0  0
    0.9993   69.7675   65.9790 H   0  0  0  0  0  0  0  0  0  0  0  0
    2.1077   68.9729   68.0924 H   0  0  0  0  0  0  0  0  0  0  0  0
    2.7715   67.5706   67.1714 H   0  0  0  0  0  0  0  0  0  0  0  0
    3.3558   70.5326   66.7798 H   0  0  0  0  0  0  0  0  0  0  0  0
    4.4915   69.1756   67.2447 H   0  0  0  0  0  0  0  0  0  0  0  0
    0.9850   68.4601   63.9976 H   0  0  0  0  0  0  0  0  0  0  0  0
    1.8072   67.0699   64.8561 H   0  0  0  0  0  0  0  0  0  0  0  0
    2.7485   67.9710   62.2704 H   0  0  0  0  0  0  0  0  0  0  0  0
    4.9755   68.7085   61.4412 H   0  0  0  0  0  0  0  0  0  0  0  0
    6.5734   69.8218   62.9983 H   0  0  0  0  0  0  0  0  0  0  0  0
   -4.0766   68.1673   67.4983 H   0  0  0  0  0  0  0  0  0  0  0  0
   -3.5158   68.9420   65.9777 H   0  0  0  0  0  0  0  0  0  0  0  0
   -4.0051   67.2136   65.9777 H   0  0  0  0  0  0  0  0  0  0  0  0
   -2.1154   67.4269   68.9581 H   0  0  0  0  0  0  0  0  0  0  0  0
   -2.7504   66.0042   68.0641 H   0  0  0  0  0  0  0  0  0  0  0  0
   -0.9880   66.3516   68.0641 H   0  0  0  0  0  0  0  0  0  0  0  0
    0.2647   67.1705   67.2343 H   0  0  0  0  0  0  0  0  0  0  0  0
    7.0236   70.6236   65.0631 H   0  0  0  0  0  0  0  0  0  0  0  0
  2  1  1  0
  3  2  1  0
  4  3  1  0
  5  4  2  0
  6  5  1  0
  6  1  1  0
  7  5  1  0
  8  7  2  0
  9  8  1  0
 10  4  1  0
 10  9  2  0
 12 11  2  0
 13 12  1  0
 14 13  1  0
 15 13  1  0
 16 12  1  0
 16  1  1  0
 17 10  1  0
  1 18  1  6
  2 19  1  0
  2 20  1  0
  3 21  1  0
  3 22  1  0
  6 23  1  0
  6 24  1  0
  7 25  1  0
  8 26  1  0
  9 27  1  0
 14 28  1  0
 14 29  1  0
 14 30  1  0
 15 31  1  0
 15 32  1  0
 15 33  1  0
 16 34  1  0
 17 35  1  0
M  END
>  <score>  (5) 
-7.977

$$$$
=
     RDKit          3D

 35 36  0  0  0  0  0  0  0  0999 V2000
    4.3200   69.1280   65.1380 C   0  0  1  0  0  0  0  0  0  0  0  0
    5.5850   69.9750   65.0170 C   0  0  0  0  0  0  0  0  0  0  0  0
    6.3940   69.9150   66.3100 C   0  0  0  0  0  0  0  0  0  0  0  0
    5.5760   70.1580   67.5540 C   0  0  0  0  0  0  0  0  0  0  0  0
    4.1710   70.0300   67.5240 C   0  0  0  0  0  0  0  0  0  0  0  0
    3.4250   69.6930   66.2530 C   0  0  0  0  0  0  0  0  0  0  0  0
    3.4220   70.2680   68.6890 C   0  0  0  0  0  0  0  0  0  0  0  0
    4.0520   70.6070   69.8840 C   0  0  0  0  0  0  0  0  0  0  0  0
    5.4380   70.7080   69.9280 C   0  0  0  0  0  0  0  0  0  0  0  0
    6.1890   70.4730   68.7790 C   0  0  0  0  0  0  0  0  0  0  0  0
    1.6750   68.3560   64.7740 O   0  0  0  0  0  0  0  0  0  0  0  0
    2.3100   68.7040   63.7820 C   0  0  0  0  0  0  0  0  0  0  0  0
    1.7630   68.7530   62.5060 N   0  0  0  0  0  0  0  0  0  0  0  0
    0.3640   68.3800   62.3800 C   0  0  0  0  0  0  0  0  0  0  0  0
    2.5510   68.6380   61.2860 C   0  0  0  0  0  0  0  0  0  0  0  0
    3.6250   69.0890   63.8530 N   0  0  0  0  0  0  0  0  0  0  0  0
    7.5440   70.5680   68.9290 O   0  0  0  0  0  0  0  0  0  0  0  0
    4.5847   68.0948   65.4071 H   0  0  0  0  0  0  0  0  0  0  0  0
    6.1987   69.5928   64.1879 H   0  0  0  0  0  0  0  0  0  0  0  0
    5.2971   71.0192   64.8255 H   0  0  0  0  0  0  0  0  0  0  0  0
    6.8523   68.9179   66.3860 H   0  0  0  0  0  0  0  0  0  0  0  0
    7.1416   70.7201   66.2568 H   0  0  0  0  0  0  0  0  0  0  0  0
    2.6544   68.9450   66.4914 H   0  0  0  0  0  0  0  0  0  0  0  0
    2.9973   70.6331   65.8743 H   0  0  0  0  0  0  0  0  0  0  0  0
    2.3256   70.1856   68.6567 H   0  0  0  0  0  0  0  0  0  0  0  0
    3.4556   70.7940   70.7891 H   0  0  0  0  0  0  0  0  0  0  0  0
    5.9409   70.9733   70.8696 H   0  0  0  0  0  0  0  0  0  0  0  0
   -0.0758   68.2627   63.3814 H   0  0  0  0  0  0  0  0  0  0  0  0
   -0.1769   69.1653   61.8316 H   0  0  0  0  0  0  0  0  0  0  0  0
    0.2859   67.4296   61.8316 H   0  0  0  0  0  0  0  0  0  0  0  0
    3.6087   68.4836   61.5458 H   0  0  0  0  0  0  0  0  0  0  0  0
    2.1899   67.7830   60.6955 H   0  0  0  0  0  0  0  0  0  0  0  0
    2.4493   69.5605   60.6955 H   0  0  0  0  0  0  0  0  0  0  0  0
    4.1268   69.3529   62.9931 H   0  0  0  0  0  0  0  0  0  0  0  0
    7.9297   70.7927   69.8127 H   0  0  0  0  0  0  0  0  0  0  0  0
  2  1  1  0
  3  2  1  0
  4  3  1  0
  5  4  2  0
  6  5  1  0
  6  1  1  0
  7  5  1  0
  8  7  2  0
  9  8  1  0
 10  4  1  0
 10  9  2  0
 12 11  2  0
 13 12  1  0
 14 13  1  0
 15 13  1  0
 16 12  1  0
 16  1  1  0
 17 10  1  0
  1 18  1  1
  2 19  1  0
  2 20  1  0
  3 21  1  0
  3 22  1  0
  6 23  1  0
  6 24  1  0
  7 25  1  0
  8 26  1  0
  9 27  1  0
 14 28  1  0
 14 29  1  0
 14 30  1  0
 15 31  1  0
 15 32  1  0
 15 33  1  0
 16 34  1  0
 17 35  1  0
M  END
>  <score>  (6) 
-7.217

$$$$
=
     RDKit          3D

 35 36  0  0  0  0  0  0  0  0999 V2000
    1.8690   59.6070   72.6190 C   0  0  1  0  0  0  0  0  0  0  0  0
    0.8850   60.7420   72.8920 C   0  0  0  0  0  0  0  0  0  0  0  0
    0.9300   61.7710   71.7660 C   0  0  0  0  0  0  0  0  0  0  0  0
    2.3250   62.2080   71.3930 C   0  0  0  0  0  0  0  0  0  0  0  0
    3.4420   61.4300   71.7650 C   0  0  0  0  0  0  0  0  0  0  0  0
    3.3020   60.1640   72.5790 C   0  0  0  0  0  0  0  0  0  0  0  0
    4.7360   61.8550   71.4170 C   0  0  0  0  0  0  0  0  0  0  0  0
    4.9300   63.0260   70.6890 C   0  0  0  0  0  0  0  0  0  0  0  0
    3.8320   63.7830   70.2970 C   0  0  0  0  0  0  0  0  0  0  0  0
    2.5450   63.3700   70.6350 C   0  0  0  0  0  0  0  0  0  0  0  0
    2.0960   56.8760   72.1570 O   0  0  0  0  0  0  0  0  0  0  0  0
    1.8660   57.2430   73.3060 C   0  0  0  0  0  0  0  0  0  0  0  0
    1.7410   56.3650   74.3750 N   0  0  0  0  0  0  0  0  0  0  0  0
    1.9120   54.9520   74.0840 C   0  0  0  0  0  0  0  0  0  0  0  0
    0.9790   56.6660   75.5800 C   0  0  0  0  0  0  0  0  0  0  0  0
    1.7220   58.5670   73.6350 N   0  0  0  0  0  0  0  0  0  0  0  0
    1.5300   64.1650   70.1800 O   0  0  0  0  0  0  0  0  0  0  0  0
    1.6537   59.1526   71.6407 H   0  0  0  0  0  0  0  0  0  0  0  0
   -0.1321   60.3295   72.9650 H   0  0  0  0  0  0  0  0  0  0  0  0
    1.1631   61.2347   73.8354 H   0  0  0  0  0  0  0  0  0  0  0  0
    0.4550   61.3319   70.8763 H   0  0  0  0  0  0  0  0  0  0  0  0
    0.4016   62.6649   72.1289 H   0  0  0  0  0  0  0  0  0  0  0  0
    3.9600   59.3974   72.1439 H   0  0  0  0  0  0  0  0  0  0  0  0
    3.5766   60.4165   73.6138 H   0  0  0  0  0  0  0  0  0  0  0  0
    5.6057   61.2553   71.7235 H   0  0  0  0  0  0  0  0  0  0  0  0
    5.9474   63.3505   70.4253 H   0  0  0  0  0  0  0  0  0  0  0  0
    3.9792   64.7079   69.7201 H   0  0  0  0  0  0  0  0  0  0  0  0
    1.9801   54.3891   75.0266 H   0  0  0  0  0  0  0  0  0  0  0  0
    1.0510   54.5906   73.5025 H   0  0  0  0  0  0  0  0  0  0  0  0
    2.8343   54.8064   73.5025 H   0  0  0  0  0  0  0  0  0  0  0  0
    1.5849   56.4267   76.4663 H   0  0  0  0  0  0  0  0  0  0  0  0
    0.7184   57.7346   75.5917 H   0  0  0  0  0  0  0  0  0  0  0  0
    0.0585   56.0639   75.5917 H   0  0  0  0  0  0  0  0  0  0  0  0
    1.5082   58.8306   74.6075 H   0  0  0  0  0  0  0  0  0  0  0  0
    1.7356   64.9748   69.6489 H   0  0  0  0  0  0  0  0  0  0  0  0
  2  1  1  0
  3  2  1  0
  4  3  1  0
  5  4  2  0
  6  5  1  0
  6  1  1  0
  7  5  1  0
  8  7  2  0
  9  8  1  0
 10  4  1  0
 10  9  2  0
 12 11  2  0
 13 12  1  0
 14 13  1  0
 15 13  1  0
 16 12  1  0
 16  1  1  0
 17 10  1  0
  1 18  1  6
  2 19  1  0
  2 20  1  0
  3 21  1  0
  3 22  1  0
  6 23  1  0
  6 24  1  0
  7 25  1  0
  8 26  1  0
  9 27  1  0
 14 28  1  0
 14 29  1  0
 14 30  1  0
 15 31  1  0
 15 32  1  0
 15 33  1  0
 16 34  1  0
 17 35  1  0
M  END
>  <score>  (7) 
-6.648

$$$$
