=
     RDKit          3D

 19 20  0  0  0  0  0  0  0  0999 V2000
    5.6370   69.3980   63.7930 O   0  0  0  0  0  0  0  0  0  0  0  0
    5.2600   69.6030   64.9250 C   0  0  0  0  0  0  0  0  0  0  0  0
    5.9980   70.0610   65.9950 N   0  0  0  0  0  0  0  0  0  0  0  0
    5.2110   70.1700   67.1400 C   0  0  0  0  0  0  0  0  0  0  0  0
    3.8910   69.7830   66.8890 C   0  0  0  0  0  0  0  0  0  0  0  0
    3.8250   69.3980   65.4740 C   0  0  0  0  0  0  0  0  0  0  0  0
    2.8720   69.0020   64.8440 O   0  0  0  0  0  0  0  0  0  0  0  0
    2.9290   69.8080   67.8760 C   0  0  0  0  0  0  0  0  0  0  0  0
    1.3000   69.3450   67.6100 Cl  0  0  0  0  0  0  0  0  0  0  0  0
    3.3210   70.2360   69.1490 C   0  0  0  0  0  0  0  0  0  0  0  0
    4.6510   70.6250   69.4030 C   0  0  0  0  0  0  0  0  0  0  0  0
    5.6250   70.5970   68.3930 C   0  0  0  0  0  0  0  0  0  0  0  0
    7.0360   71.0120   68.6700 C   0  0  0  0  0  0  0  0  0  0  0  0
    7.0008   70.2926   65.9538 H   0  0  0  0  0  0  0  0  0  0  0  0
    2.5810   70.2692   69.9622 H   0  0  0  0  0  0  0  0  0  0  0  0
    4.9317   70.9574   70.4133 H   0  0  0  0  0  0  0  0  0  0  0  0
    7.1975   71.0595   69.7570 H   0  0  0  0  0  0  0  0  0  0  0  0
    7.7272   70.2791   68.2283 H   0  0  0  0  0  0  0  0  0  0  0  0
    7.2203   72.0024   68.2283 H   0  0  0  0  0  0  0  0  0  0  0  0
  2  1  2  0
  3  2  1  0
  4  3  1  0
  5  4  2  0
  6  2  1  0
  6  5  1  0
  7  6  2  0
  8  5  1  0
  9  8  1  0
 10  8  2  0
 11 10  1  0
 12 11  2  0
 12  4  1  0
 13 12  1  0
  3 14  1  0
 10 15  1  0
 11 16  1  0
 13 17  1  0
 13 18  1  0
 13 19  1  0
M  END
>  <score>  (1) 
-8.55

$$$$
=
     RDKit          3D

 19 20  0  0  0  0  0  0  0  0999 V2000
   -0.0400   68.0510   62.7750 O   0  0  0  0  0  0  0  0  0  0  0  0
    0.9810   68.3590   63.3480 C   0  0  0  0  0  0  0  0  0  0  0  0
    1.1610   68.5890   64.6950 N   0  0  0  0  0  0  0  0  0  0  0  0
    2.4840   68.9230   64.9770 C   0  0  0  0  0  0  0  0  0  0  0  0
    3.2640   68.9340   63.8160 C   0  0  0  0  0  0  0  0  0  0  0  0
    2.3730   68.5790   62.7040 C   0  0  0  0  0  0  0  0  0  0  0  0
    2.6380   68.4740   61.5290 O   0  0  0  0  0  0  0  0  0  0  0  0
    4.6080   69.2380   63.8500 C   0  0  0  0  0  0  0  0  0  0  0  0
    5.6000   69.2620   62.4510 Cl  0  0  0  0  0  0  0  0  0  0  0  0
    5.1710   69.5380   65.0940 C   0  0  0  0  0  0  0  0  0  0  0  0
    4.3870   69.5280   66.2650 C   0  0  0  0  0  0  0  0  0  0  0  0
    3.0190   69.2170   66.2220 C   0  0  0  0  0  0  0  0  0  0  0  0
    2.1910   69.2070   67.4690 C   0  0  0  0  0  0  0  0  0  0  0  0
    0.4144   68.5226   65.4015 H   0  0  0  0  0  0  0  0  0  0  0  0
    6.2408   69.7853   65.1597 H   0  0  0  0  0  0  0  0  0  0  0  0
    4.8559   69.7684   67.2306 H   0  0  0  0  0  0  0  0  0  0  0  0
    2.8521   69.2150   68.3482 H   0  0  0  0  0  0  0  0  0  0  0  0
    1.5454   70.0974   67.4876 H   0  0  0  0  0  0  0  0  0  0  0  0
    1.5671   68.3013   67.4876 H   0  0  0  0  0  0  0  0  0  0  0  0
  2  1  2  0
  3  2  1  0
  4  3  1  0
  5  4  2  0
  6  2  1  0
  6  5  1  0
  7  6  2  0
  8  5  1  0
  9  8  1  0
 10  8  2  0
 11 10  1  0
 12 11  2  0
 12  4  1  0
 13 12  1  0
  3 14  1  0
 10 15  1  0
 11 16  1  0
 13 17  1  0
 13 18  1  0
 13 19  1  0
M  END
>  <score>  (2) 
-8.204

$$$$
=
     RDKit          3D

 19 20  0  0  0  0  0  0  0  0999 V2000
    7.1360   71.2200   68.3930 O   0  0  0  0  0  0  0  0  0  0  0  0
    6.2370   70.7320   67.7450 C   0  0  0  0  0  0  0  0  0  0  0  0
    6.2430   70.3870   66.4110 N   0  0  0  0  0  0  0  0  0  0  0  0
    5.0180   69.8510   66.0230 C   0  0  0  0  0  0  0  0  0  0  0  0
    4.1180   69.8130   67.0930 C   0  0  0  0  0  0  0  0  0  0  0  0
    4.8210   70.3650   68.2570 C   0  0  0  0  0  0  0  0  0  0  0  0
    4.4120   70.5150   69.3850 O   0  0  0  0  0  0  0  0  0  0  0  0
    2.8380   69.3210   66.9460 C   0  0  0  0  0  0  0  0  0  0  0  0
    1.7060   69.2550   68.2310 Cl  0  0  0  0  0  0  0  0  0  0  0  0
    2.4660   68.8590   65.6800 C   0  0  0  0  0  0  0  0  0  0  0  0
    3.3710   68.8970   64.6000 C   0  0  0  0  0  0  0  0  0  0  0  0
    4.6720   69.3990   64.7580 C   0  0  0  0  0  0  0  0  0  0  0  0
    5.6290   69.4370   63.6080 C   0  0  0  0  0  0  0  0  0  0  0  0
    7.0495   70.5098   65.7822 H   0  0  0  0  0  0  0  0  0  0  0  0
    1.4527   68.4602   65.5245 H   0  0  0  0  0  0  0  0  0  0  0  0
    3.0515   68.5262   63.6149 H   0  0  0  0  0  0  0  0  0  0  0  0
    6.6597   69.4779   63.9899 H   0  0  0  0  0  0  0  0  0  0  0  0
    5.5010   68.5331   62.9944 H   0  0  0  0  0  0  0  0  0  0  0  0
    5.4297   70.3279   62.9944 H   0  0  0  0  0  0  0  0  0  0  0  0
  2  1  2  0
  3  2  1  0
  4  3  1  0
  5  4  2  0
  6  2  1  0
  6  5  1  0
  7  6  2  0
  8  5  1  0
  9  8  1  0
 10  8  2  0
 11 10  1  0
 12 11  2  0
 12  4  1  0
 13 12  1  0
  3 14  1  0
 10 15  1  0
 11 16  1  0
 13 17  1  0
 13 18  1  0
 13 19  1  0
M  END
>  <score>  (3) 
-8.127

$$$$
=
     RDKit          3D

 19 20  0  0  0  0  0  0  0  0999 V2000
    0.2760   67.9550   64.9040 O   0  0  0  0  0  0  0  0  0  0  0  0
    1.3330   68.4040   65.2880 C   0  0  0  0  0  0  0  0  0  0  0  0
    2.4950   68.5720   64.5660 N   0  0  0  0  0  0  0  0  0  0  0  0
    3.5030   69.1220   65.3550 C   0  0  0  0  0  0  0  0  0  0  0  0
    3.0590   69.3510   66.6610 C   0  0  0  0  0  0  0  0  0  0  0  0
    1.6580   68.9160   66.7140 C   0  0  0  0  0  0  0  0  0  0  0  0
    0.8960   68.9370   67.6530 O   0  0  0  0  0  0  0  0  0  0  0  0
    3.8860   69.8910   67.6220 C   0  0  0  0  0  0  0  0  0  0  0  0
    3.3810   70.1890   69.2330 Cl  0  0  0  0  0  0  0  0  0  0  0  0
    5.1950   70.2050   67.2450 C   0  0  0  0  0  0  0  0  0  0  0  0
    5.6450   69.9750   65.9300 C   0  0  0  0  0  0  0  0  0  0  0  0
    4.7960   69.4240   64.9560 C   0  0  0  0  0  0  0  0  0  0  0  0
    5.2790   69.1820   63.5600 C   0  0  0  0  0  0  0  0  0  0  0  0
    2.6040   68.3233   63.5724 H   0  0  0  0  0  0  0  0  0  0  0  0
    5.8835   70.6378   67.9857 H   0  0  0  0  0  0  0  0  0  0  0  0
    6.6803   70.2316   65.6610 H   0  0  0  0  0  0  0  0  0  0  0  0
    6.2620   68.6895   63.5923 H   0  0  0  0  0  0  0  0  0  0  0  0
    4.5626   68.5364   63.0309 H   0  0  0  0  0  0  0  0  0  0  0  0
    5.3673   70.1423   63.0309 H   0  0  0  0  0  0  0  0  0  0  0  0
  2  1  2  0
  3  2  1  0
  4  3  1  0
  5  4  2  0
  6  2  1  0
  6  5  1  0
  7  6  2  0
  8  5  1  0
  9  8  1  0
 10  8  2  0
 11 10  1  0
 12 11  2  0
 12  4  1  0
 13 12  1  0
  3 14  1  0
 10 15  1  0
 11 16  1  0
 13 17  1  0
 13 18  1  0
 13 19  1  0
M  END
>  <score>  (4) 
-8.112

$$$$
=
     RDKit          3D

 19 20  0  0  0  0  0  0  0  0999 V2000
    0.1390   67.9590   65.3480 O   0  0  0  0  0  0  0  0  0  0  0  0
    1.2400   68.4070   65.5800 C   0  0  0  0  0  0  0  0  0  0  0  0
    1.7180   68.9060   66.7720 N   0  0  0  0  0  0  0  0  0  0  0  0
    3.0390   69.3310   66.6460 C   0  0  0  0  0  0  0  0  0  0  0  0
    3.5140   69.1360   65.3460 C   0  0  0  0  0  0  0  0  0  0  0  0
    2.4150   68.5380   64.5790 C   0  0  0  0  0  0  0  0  0  0  0  0
    2.3980   68.2090   63.4150 O   0  0  0  0  0  0  0  0  0  0  0  0
    4.7990   69.4830   64.9850 C   0  0  0  0  0  0  0  0  0  0  0  0
    5.4210   69.2590   63.4030 Cl  0  0  0  0  0  0  0  0  0  0  0  0
    5.6180   70.0430   65.9700 C   0  0  0  0  0  0  0  0  0  0  0  0
    5.1400   70.2410   67.2810 C   0  0  0  0  0  0  0  0  0  0  0  0
    3.8310   69.8840   67.6410 C   0  0  0  0  0  0  0  0  0  0  0  0
    3.3300   70.0970   69.0360 C   0  0  0  0  0  0  0  0  0  0  0  0
    1.1703   68.9581   67.6427 H   0  0  0  0  0  0  0  0  0  0  0  0
    6.6489   70.3329   65.7185 H   0  0  0  0  0  0  0  0  0  0  0  0
    5.8055   70.6838   68.0367 H   0  0  0  0  0  0  0  0  0  0  0  0
    4.0964   69.7711   69.7546 H   0  0  0  0  0  0  0  0  0  0  0  0
    3.1142   71.1647   69.1891 H   0  0  0  0  0  0  0  0  0  0  0  0
    2.4114   69.5116   69.1891 H   0  0  0  0  0  0  0  0  0  0  0  0
  2  1  2  0
  3  2  1  0
  4  3  1  0
  5  4  2  0
  6  2  1  0
  6  5  1  0
  7  6  2  0
  8  5  1  0
  9  8  1  0
 10  8  2  0
 11 10  1  0
 12 11  2  0
 12  4  1  0
 13 12  1  0
  3 14  1  0
 10 15  1  0
 11 16  1  0
 13 17  1  0
 13 18  1  0
 13 19  1  0
M  END
>  <score>  (5) 
-8.07

$$$$
=
     RDKit          3D

 19 20  0  0  0  0  0  0  0  0999 V2000
    0.6310   68.7910   68.0090 O   0  0  0  0  0  0  0  0  0  0  0  0
    1.7220   69.0570   67.5540 C   0  0  0  0  0  0  0  0  0  0  0  0
    2.1620   68.8980   66.2580 N   0  0  0  0  0  0  0  0  0  0  0  0
    3.4820   69.3180   66.1190 C   0  0  0  0  0  0  0  0  0  0  0  0
    3.9980   69.7830   67.3330 C   0  0  0  0  0  0  0  0  0  0  0  0
    2.9260   69.6530   68.3260 C   0  0  0  0  0  0  0  0  0  0  0  0
    2.9470   69.9390   69.5010 O   0  0  0  0  0  0  0  0  0  0  0  0
    5.2910   70.2510   67.4380 C   0  0  0  0  0  0  0  0  0  0  0  0
    5.9610   70.8320   68.9050 Cl  0  0  0  0  0  0  0  0  0  0  0  0
    6.0760   70.2450   66.2810 C   0  0  0  0  0  0  0  0  0  0  0  0
    5.5580   69.7760   65.0570 C   0  0  0  0  0  0  0  0  0  0  0  0
    4.2410   69.3010   64.9580 C   0  0  0  0  0  0  0  0  0  0  0  0
    3.6960   68.8050   63.6550 C   0  0  0  0  0  0  0  0  0  0  0  0
    1.5887   68.5177   65.4915 H   0  0  0  0  0  0  0  0  0  0  0  0
    7.1122   70.6114   66.3267 H   0  0  0  0  0  0  0  0  0  0  0  0
    6.1980   69.7824   64.1624 H   0  0  0  0  0  0  0  0  0  0  0  0
    2.8949   68.0759   63.8464 H   0  0  0  0  0  0  0  0  0  0  0  0
    3.2918   69.6516   63.0806 H   0  0  0  0  0  0  0  0  0  0  0  0
    4.5008   68.3231   63.0806 H   0  0  0  0  0  0  0  0  0  0  0  0
  2  1  2  0
  3  2  1  0
  4  3  1  0
  5  4  2  0
  6  2  1  0
  6  5  1  0
  7  6  2  0
  8  5  1  0
  9  8  1  0
 10  8  2  0
 11 10  1  0
 12 11  2  0
 12  4  1  0
 13 12  1  0
  3 14  1  0
 10 15  1  0
 11 16  1  0
 13 17  1  0
 13 18  1  0
 13 19  1  0
M  END
>  <score>  (6) 
-8.055

$$$$
=
     RDKit          3D

 19 20  0  0  0  0  0  0  0  0999 V2000
   -0.3060   68.2780   65.7460 O   0  0  0  0  0  0  0  0  0  0  0  0
    0.8150   68.5140   65.3520 C   0  0  0  0  0  0  0  0  0  0  0  0
    1.9030   68.9260   66.0890 N   0  0  0  0  0  0  0  0  0  0  0  0
    3.0250   69.0940   65.2810 C   0  0  0  0  0  0  0  0  0  0  0  0
    2.7370   68.8000   63.9440 C   0  0  0  0  0  0  0  0  0  0  0  0
    1.3220   68.4120   63.8920 C   0  0  0  0  0  0  0  0  0  0  0  0
    0.6660   68.0810   62.9320 O   0  0  0  0  0  0  0  0  0  0  0  0
    3.6960   68.8970   62.9590 C   0  0  0  0  0  0  0  0  0  0  0  0
    3.3860   68.5440   61.3100 Cl  0  0  0  0  0  0  0  0  0  0  0  0
    4.9780   69.3020   63.3430 C   0  0  0  0  0  0  0  0  0  0  0  0
    5.2700   69.5990   64.6890 C   0  0  0  0  0  0  0  0  0  0  0  0
    4.2880   69.4990   65.6870 C   0  0  0  0  0  0  0  0  0  0  0  0
    4.6050   69.8150   67.1150 C   0  0  0  0  0  0  0  0  0  0  0  0
    1.8888   69.0888   67.1060 H   0  0  0  0  0  0  0  0  0  0  0  0
    5.7693   69.3899   62.5840 H   0  0  0  0  0  0  0  0  0  0  0  0
    6.2872   69.9154   64.9631 H   0  0  0  0  0  0  0  0  0  0  0  0
    3.9818   69.1938   67.7751 H   0  0  0  0  0  0  0  0  0  0  0  0
    5.6672   69.6057   67.3098 H   0  0  0  0  0  0  0  0  0  0  0  0
    4.3990   70.8778   67.3098 H   0  0  0  0  0  0  0  0  0  0  0  0
  2  1  2  0
  3  2  1  0
  4  3  1  0
  5  4  2  0
  6  2  1  0
  6  5  1  0
  7  6  2  0
  8  5  1  0
  9  8  1  0
 10  8  2  0
 11 10  1  0
 12 11  2  0
 12  4  1  0
 13 12  1  0
  3 14  1  0
 10 15  1  0
 11 16  1  0
 13 17  1  0
 13 18  1  0
 13 19  1  0
M  END
>  <score>  (7) 
-7.836

$$$$
=
     RDKit          3D

 19 20  0  0  0  0  0  0  0  0999 V2000
    3.8080   70.8090   69.9370 O   0  0  0  0  0  0  0  0  0  0  0  0
    3.4790   70.2940   68.8920 C   0  0  0  0  0  0  0  0  0  0  0  0
    2.3040   69.6350   68.6030 N   0  0  0  0  0  0  0  0  0  0  0  0
    2.2920   69.1780   67.2870 C   0  0  0  0  0  0  0  0  0  0  0  0
    3.4760   69.5120   66.6230 C   0  0  0  0  0  0  0  0  0  0  0  0
    4.3110   70.2400   67.5850 C   0  0  0  0  0  0  0  0  0  0  0  0
    5.4140   70.7080   67.4250 O   0  0  0  0  0  0  0  0  0  0  0  0
    3.6910   69.1620   65.3060 C   0  0  0  0  0  0  0  0  0  0  0  0
    5.1260   69.5520   64.4550 Cl  0  0  0  0  0  0  0  0  0  0  0  0
    2.6770   68.4550   64.6520 C   0  0  0  0  0  0  0  0  0  0  0  0
    1.4830   68.1180   65.3210 C   0  0  0  0  0  0  0  0  0  0  0  0
    1.2720   68.4780   66.6610 C   0  0  0  0  0  0  0  0  0  0  0  0
    0.0010   68.1170   67.3660 C   0  0  0  0  0  0  0  0  0  0  0  0
    1.5340   69.4980   69.2733 H   0  0  0  0  0  0  0  0  0  0  0  0
    2.8130   68.1580   63.6016 H   0  0  0  0  0  0  0  0  0  0  0  0
    0.7014   67.5621   64.7824 H   0  0  0  0  0  0  0  0  0  0  0  0
    0.1595   68.1620   68.4536 H   0  0  0  0  0  0  0  0  0  0  0  0
   -0.7904   68.8259   67.0811 H   0  0  0  0  0  0  0  0  0  0  0  0
   -0.2996   67.0979   67.0811 H   0  0  0  0  0  0  0  0  0  0  0  0
  2  1  2  0
  3  2  1  0
  4  3  1  0
  5  4  2  0
  6  2  1  0
  6  5  1  0
  7  6  2  0
  8  5  1  0
  9  8  1  0
 10  8  2  0
 11 10  1  0
 12 11  2  0
 12  4  1  0
 13 12  1  0
  3 14  1  0
 10 15  1  0
 11 16  1  0
 13 17  1  0
 13 18  1  0
 13 19  1  0
M  END
>  <score>  (8) 
-7.705

$$$$
=
     RDKit          3D

 19 20  0  0  0  0  0  0  0  0999 V2000
    4.2590   68.5680   62.1350 O   0  0  0  0  0  0  0  0  0  0  0  0
    4.0440   68.8030   63.3040 C   0  0  0  0  0  0  0  0  0  0  0  0
    4.9210   69.2970   64.2450 N   0  0  0  0  0  0  0  0  0  0  0  0
    4.3040   69.4350   65.4860 C   0  0  0  0  0  0  0  0  0  0  0  0
    2.9660   69.0320   65.4360 C   0  0  0  0  0  0  0  0  0  0  0  0
    2.7030   68.6060   64.0560 C   0  0  0  0  0  0  0  0  0  0  0  0
    1.6750   68.1850   63.5790 O   0  0  0  0  0  0  0  0  0  0  0  0
    2.1530   69.0800   66.5480 C   0  0  0  0  0  0  0  0  0  0  0  0
    0.5080   68.5990   66.5290 Cl  0  0  0  0  0  0  0  0  0  0  0  0
    2.7160   69.5470   67.7400 C   0  0  0  0  0  0  0  0  0  0  0  0
    4.0650   69.9520   67.7930 C   0  0  0  0  0  0  0  0  0  0  0  0
    4.8860   69.9010   66.6550 C   0  0  0  0  0  0  0  0  0  0  0  0
    6.3180   70.3330   66.7170 C   0  0  0  0  0  0  0  0  0  0  0  0
    5.9053   69.5336   64.0552 H   0  0  0  0  0  0  0  0  0  0  0  0
    2.0977   69.5989   68.6483 H   0  0  0  0  0  0  0  0  0  0  0  0
    4.4825   70.3149   68.7438 H   0  0  0  0  0  0  0  0  0  0  0  0
    6.6276   70.4264   67.7684 H   0  0  0  0  0  0  0  0  0  0  0  0
    6.9487   69.5851   66.2141 H   0  0  0  0  0  0  0  0  0  0  0  0
    6.4299   71.3049   66.2141 H   0  0  0  0  0  0  0  0  0  0  0  0
  2  1  2  0
  3  2  1  0
  4  3  1  0
  5  4  2  0
  6  2  1  0
  6  5  1  0
  7  6  2  0
  8  5  1  0
  9  8  1  0
 10  8  2  0
 11 10  1  0
 12 11  2  0
 12  4  1  0
 13 12  1  0
  3 14  1  0
 10 15  1  0
 11 16  1  0
 13 17  1  0
 13 18  1  0
 13 19  1  0
M  END
>  <score>  (9) 
-7.638

$$$$
