=
     RDKit          3D

 86 89  0  0  0  0  0  0  0  0999 V2000
    0.2550   66.4630   68.8670 C   0  0  1  0  0  0  0  0  0  0  0  0
   -1.0820   66.4570   69.4180 O   0  0  0  0  0  0  0  0  0  0  0  0
    0.5130   67.6870   67.9390 C   0  0  1  0  0  0  0  0  0  0  0  0
    1.9000   68.1890   67.9400 N   0  0  0  0  0  0  0  0  0  0  0  0
    2.2390   69.5200   67.8380 C   0  0  0  0  0  0  0  0  0  0  0  0
    1.4430   70.4270   68.0520 O   0  0  0  0  0  0  0  0  0  0  0  0
    3.6540   69.8010   67.4840 C   0  0  0  0  0  0  0  0  0  0  0  0
    4.0930   69.4350   66.1990 C   0  0  0  0  0  0  0  0  0  0  0  0
    5.4190   69.6410   65.8310 C   0  0  0  0  0  0  0  0  0  0  0  0
    6.3100   70.1880   66.7480 C   0  0  0  0  0  0  0  0  0  0  0  0
    5.8770   70.5380   68.0280 C   0  0  0  0  0  0  0  0  0  0  0  0
    4.5380   70.3840   68.4180 C   0  0  0  0  0  0  0  0  0  0  0  0
    4.0670   70.8090   69.7820 C   0  0  0  0  0  0  0  0  0  0  0  0
    6.8450   71.0360   68.8530 O   0  0  0  0  0  0  0  0  0  0  0  0
    0.0760   67.3380   66.4970 C   0  0  0  0  0  0  0  0  0  0  0  0
   -0.8030   68.7060   65.6480 S   0  0  0  0  0  0  0  0  0  0  0  0
    0.1560   68.8280   64.1500 C   0  0  0  0  0  0  0  0  0  0  0  0
   -0.4110   69.2870   62.9560 C   0  0  0  0  0  0  0  0  0  0  0  0
    0.3660   69.3840   61.8000 C   0  0  0  0  0  0  0  0  0  0  0  0
    1.7100   69.0140   61.8290 C   0  0  0  0  0  0  0  0  0  0  0  0
    2.2750   68.5380   63.0100 C   0  0  0  0  0  0  0  0  0  0  0  0
    1.4990   68.4390   64.1660 C   0  0  0  0  0  0  0  0  0  0  0  0
    1.2350   66.3330   70.0500 C   0  0  0  0  0  0  0  0  0  0  0  0
    1.5810   64.8470   70.1900 N   0  0  1  0  0  4  0  0  0  0  0  0
    2.9900   64.5860   70.6150 C   0  0  0  0  0  0  0  0  0  0  0  0
    3.3590   63.1610   70.1910 C   0  0  1  0  0  0  0  0  0  0  0  0
    4.6110   62.6850   70.9340 C   0  0  0  0  0  0  0  0  0  0  0  0
    5.0900   61.3180   70.4430 C   0  0  0  0  0  0  0  0  0  0  0  0
    3.9550   60.3930   70.0010 C   0  0  0  0  0  0  0  0  0  0  0  0
    2.6420   60.7400   70.6900 C   0  0  0  0  0  0  0  0  0  0  0  0
    2.1790   62.1630   70.3300 C   0  0  1  0  0  0  0  0  0  0  0  0
    1.1220   62.6520   71.3280 C   0  0  0  0  0  0  0  0  0  0  0  0
    0.5600   64.0470   71.0070 C   0  0  1  0  0  0  0  0  0  0  0  0
    0.1270   64.7400   72.3250 C   0  0  0  0  0  0  0  0  0  0  0  0
   -0.3880   65.8560   72.3160 O   0  0  0  0  0  0  0  0  0  0  0  0
    0.3560   64.0030   73.4670 N   0  0  0  0  0  0  0  0  0  0  0  0
    0.0020   64.4390   74.8340 C   0  0  0  0  0  0  0  0  0  0  0  0
   -0.7530   65.7760   74.8060 C   0  0  0  0  0  0  0  0  0  0  0  0
    1.3090   64.6380   75.6240 C   0  0  0  0  0  0  0  0  0  0  0  0
   -0.8370   63.3670   75.5470 C   0  0  0  0  0  0  0  0  0  0  0  0
    0.4059   65.6090   68.1903 H   0  0  0  0  0  0  0  0  0  0  0  0
   -1.0315   66.4572   70.4067 H   0  0  0  0  0  0  0  0  0  0  0  0
   -0.0902   68.5096   68.3506 H   0  0  0  0  0  0  0  0  0  0  0  0
    2.6624   67.5014   68.0221 H   0  0  0  0  0  0  0  0  0  0  0  0
    3.3877   68.9856   65.4844 H   0  0  0  0  0  0  0  0  0  0  0  0
    5.7606   69.3727   64.8204 H   0  0  0  0  0  0  0  0  0  0  0  0
    7.3608   70.3456   66.4633 H   0  0  0  0  0  0  0  0  0  0  0  0
    4.6503   70.2826   70.5518 H   0  0  0  0  0  0  0  0  0  0  0  0
    4.2048   71.8944   69.8958 H   0  0  0  0  0  0  0  0  0  0  0  0
    3.0014   70.5608   69.8958 H   0  0  0  0  0  0  0  0  0  0  0  0
    6.6163   71.3071   69.7773 H   0  0  0  0  0  0  0  0  0  0  0  0
    0.9731   67.0849   65.9129 H   0  0  0  0  0  0  0  0  0  0  0  0
   -0.6275   66.4953   66.5669 H   0  0  0  0  0  0  0  0  0  0  0  0
   -1.4729   69.5725   62.9280 H   0  0  0  0  0  0  0  0  0  0  0  0
   -0.0825   69.7526   60.8657 H   0  0  0  0  0  0  0  0  0  0  0  0
    2.3237   69.0979   60.9200 H   0  0  0  0  0  0  0  0  0  0  0  0
    3.3336   68.2399   63.0316 H   0  0  0  0  0  0  0  0  0  0  0  0
    1.9461   68.0531   65.0940 H   0  0  0  0  0  0  0  0  0  0  0  0
    2.1467   66.9151   69.8500 H   0  0  0  0  0  0  0  0  0  0  0  0
    0.7827   66.7177   70.9760 H   0  0  0  0  0  0  0  0  0  0  0  0
    1.5137   64.4848   69.2281 H   0  0  0  0  0  0  0  0  0  0  0  0
    3.6653   65.3060   70.1296 H   0  0  0  0  0  0  0  0  0  0  0  0
    3.0856   64.6959   71.7053 H   0  0  0  0  0  0  0  0  0  0  0  0
    3.5912   63.1909   69.1162 H   0  0  0  0  0  0  0  0  0  0  0  0
    5.4155   63.4189   70.7787 H   0  0  0  0  0  0  0  0  0  0  0  0
    4.3555   62.5903   71.9997 H   0  0  0  0  0  0  0  0  0  0  0  0
    5.7652   61.4726   69.5884 H   0  0  0  0  0  0  0  0  0  0  0  0
    5.5925   60.8291   71.2907 H   0  0  0  0  0  0  0  0  0  0  0  0
    3.8220   60.4872   68.9131 H   0  0  0  0  0  0  0  0  0  0  0  0
    4.2252   59.3634   70.2785 H   0  0  0  0  0  0  0  0  0  0  0  0
    1.8710   60.0219   70.3739 H   0  0  0  0  0  0  0  0  0  0  0  0
    2.7979   60.6910   71.7778 H   0  0  0  0  0  0  0  0  0  0  0  0
    1.7131   62.1161   69.3346 H   0  0  0  0  0  0  0  0  0  0  0  0
    0.2882   61.9345   71.3287 H   0  0  0  0  0  0  0  0  0  0  0  0
    1.6173   62.7250   72.3075 H   0  0  0  0  0  0  0  0  0  0  0  0
   -0.3396   63.9733   70.3783 H   0  0  0  0  0  0  0  0  0  0  0  0
    0.8060   63.0827   73.3600 H   0  0  0  0  0  0  0  0  0  0  0  0
   -0.9426   66.1117   75.8362 H   0  0  0  0  0  0  0  0  0  0  0  0
   -0.1466   66.5286   74.2809 H   0  0  0  0  0  0  0  0  0  0  0  0
   -1.7107   65.6454   74.2809 H   0  0  0  0  0  0  0  0  0  0  0  0
    1.0942   64.6053   76.7023 H   0  0  0  0  0  0  0  0  0  0  0  0
    2.0183   63.8375   75.3670 H   0  0  0  0  0  0  0  0  0  0  0  0
    1.7479   65.6133   75.3670 H   0  0  0  0  0  0  0  0  0  0  0  0
   -0.7406   63.4901   76.6358 H   0  0  0  0  0  0  0  0  0  0  0  0
   -1.8928   63.4753   75.2578 H   0  0  0  0  0  0  0  0  0  0  0  0
   -0.4782   62.3682   75.2578 H   0  0  0  0  0  0  0  0  0  0  0  0
  2  1  1  0
  3  1  1  0
  4  3  1  0
  5  4  1  0
  6  5  2  0
  7  5  1  0
  8  7  2  0
  9  8  1  0
 10  9  2  0
 11 10  1  0
 12  7  1  0
 12 11  2  0
 13 12  1  0
 14 11  1  0
 15  3  1  0
 16 15  1  0
 17 16  1  0
 18 17  2  0
 19 18  1  0
 20 19  2  0
 21 20  1  0
 22 21  2  0
 22 17  1  0
 23  1  1  0
 24 23  1  0
 25 24  1  0
 26 25  1  0
 27 26  1  0
 28 27  1  0
 29 28  1  0
 30 29  1  0
 31 30  1  0
 31 26  1  0
 32 31  1  0
 33 24  1  0
 33 32  1  0
 34 33  1  0
 35 34  2  0
 36 34  1  0
 37 36  1  0
 38 37  1  0
 39 37  1  0
 40 37  1  0
  1 41  1  6
  2 42  1  0
  3 43  1  1
  4 44  1  0
  8 45  1  0
  9 46  1  0
 10 47  1  0
 13 48  1  0
 13 49  1  0
 13 50  1  0
 14 51  1  0
 15 52  1  0
 15 53  1  0
 18 54  1  0
 19 55  1  0
 20 56  1  0
 21 57  1  0
 22 58  1  0
 23 59  1  0
 23 60  1  0
 24 61  1  6
 25 62  1  0
 25 63  1  0
 26 64  1  6
 27 65  1  0
 27 66  1  0
 28 67  1  0
 28 68  1  0
 29 69  1  0
 29 70  1  0
 30 71  1  0
 30 72  1  0
 31 73  1  6
 32 74  1  0
 32 75  1  0
 33 76  1  6
 36 77  1  0
 38 78  1  0
 38 79  1  0
 38 80  1  0
 39 81  1  0
 39 82  1  0
 39 83  1  0
 40 84  1  0
 40 85  1  0
 40 86  1  0
M  CHG  1  24   1
M  END
>  <score>  (1) 
-11.899

$$$$
=
     RDKit          3D

 86 89  0  0  0  0  0  0  0  0999 V2000
    0.2630   66.3650   68.7360 C   0  0  1  0  0  0  0  0  0  0  0  0
   -0.9690   67.1050   68.5740 O   0  0  0  0  0  0  0  0  0  0  0  0
    1.4770   67.0740   68.0660 C   0  0  1  0  0  0  0  0  0  0  0  0
    1.2720   67.4640   66.6590 N   0  0  0  0  0  0  0  0  0  0  0  0
    1.9470   66.9040   65.5960 C   0  0  0  0  0  0  0  0  0  0  0  0
    2.5380   65.8330   65.6750 O   0  0  0  0  0  0  0  0  0  0  0  0
    1.8880   67.6630   64.3210 C   0  0  0  0  0  0  0  0  0  0  0  0
    0.7050   68.3660   64.0300 C   0  0  0  0  0  0  0  0  0  0  0  0
    0.5840   69.0610   62.8310 C   0  0  0  0  0  0  0  0  0  0  0  0
    1.6300   69.0380   61.9160 C   0  0  0  0  0  0  0  0  0  0  0  0
    2.7990   68.3300   62.1990 C   0  0  0  0  0  0  0  0  0  0  0  0
    2.9710   67.6530   63.4150 C   0  0  0  0  0  0  0  0  0  0  0  0
    4.2530   66.9340   63.7350 C   0  0  0  0  0  0  0  0  0  0  0  0
    3.7450   68.3520   61.2130 O   0  0  0  0  0  0  0  0  0  0  0  0
    1.8780   68.3090   68.9060 C   0  0  0  0  0  0  0  0  0  0  0  0
    1.9130   69.8690   67.9410 S   0  0  0  0  0  0  0  0  0  0  0  0
    3.6670   70.0480   67.6770 C   0  0  0  0  0  0  0  0  0  0  0  0
    4.5030   70.5810   68.6640 C   0  0  0  0  0  0  0  0  0  0  0  0
    5.8750   70.6980   68.4360 C   0  0  0  0  0  0  0  0  0  0  0  0
    6.4170   70.2930   67.2170 C   0  0  0  0  0  0  0  0  0  0  0  0
    5.5880   69.7790   66.2230 C   0  0  0  0  0  0  0  0  0  0  0  0
    4.2150   69.6620   66.4490 C   0  0  0  0  0  0  0  0  0  0  0  0
    0.4310   66.0840   70.2430 C   0  0  0  0  0  0  0  0  0  0  0  0
    0.9930   64.6660   70.3800 N   0  0  1  0  0  4  0  0  0  0  0  0
    2.4770   64.6100   70.5400 C   0  0  0  0  0  0  0  0  0  0  0  0
    2.9520   63.2170   70.1160 C   0  0  1  0  0  0  0  0  0  0  0  0
    4.3710   62.9510   70.6280 C   0  0  0  0  0  0  0  0  0  0  0  0
    4.9300   61.6240   70.1150 C   0  0  0  0  0  0  0  0  0  0  0  0
    3.8690   60.5380   69.9370 C   0  0  0  0  0  0  0  0  0  0  0  0
    2.6700   60.7660   70.8470 C   0  0  0  0  0  0  0  0  0  0  0  0
    1.9620   62.0920   70.5200 C   0  0  1  0  0  0  0  0  0  0  0  0
    1.0480   62.5130   71.6780 C   0  0  0  0  0  0  0  0  0  0  0  0
    0.2550   63.8020   71.4090 C   0  0  1  0  0  0  0  0  0  0  0  0
   -0.0190   64.5250   72.7540 C   0  0  0  0  0  0  0  0  0  0  0  0
   -0.3960   65.6940   72.7820 O   0  0  0  0  0  0  0  0  0  0  0  0
    0.1810   63.7500   73.8770 N   0  0  0  0  0  0  0  0  0  0  0  0
   -0.0420   64.2060   75.2640 C   0  0  0  0  0  0  0  0  0  0  0  0
    1.2810   64.6270   75.9240 C   0  0  0  0  0  0  0  0  0  0  0  0
   -0.6280   63.0290   76.0650 C   0  0  0  0  0  0  0  0  0  0  0  0
   -1.0480   65.3670   75.3000 C   0  0  0  0  0  0  0  0  0  0  0  0
    0.2182   65.4037   68.2031 H   0  0  0  0  0  0  0  0  0  0  0  0
   -1.3397   67.3277   69.4645 H   0  0  0  0  0  0  0  0  0  0  0  0
    2.2855   66.3285   68.0426 H   0  0  0  0  0  0  0  0  0  0  0  0
    0.5811   68.2010   66.4580 H   0  0  0  0  0  0  0  0  0  0  0  0
   -0.1255   68.3662   64.7513 H   0  0  0  0  0  0  0  0  0  0  0  0
   -0.3337   69.6252   62.6085 H   0  0  0  0  0  0  0  0  0  0  0  0
    1.5360   69.5807   60.9638 H   0  0  0  0  0  0  0  0  0  0  0  0
    4.3731   66.8667   64.8264 H   0  0  0  0  0  0  0  0  0  0  0  0
    4.2224   65.9214   63.3063 H   0  0  0  0  0  0  0  0  0  0  0  0
    5.1010   67.4881   63.3063 H   0  0  0  0  0  0  0  0  0  0  0  0
    4.6022   67.8729   61.3387 H   0  0  0  0  0  0  0  0  0  0  0  0
    1.1536   68.4228   69.7259 H   0  0  0  0  0  0  0  0  0  0  0  0
    2.8995   68.1327   69.2740 H   0  0  0  0  0  0  0  0  0  0  0  0
    4.0773   70.9092   69.6237 H   0  0  0  0  0  0  0  0  0  0  0  0
    6.5291   71.1100   69.2186 H   0  0  0  0  0  0  0  0  0  0  0  0
    7.4993   70.3794   67.0404 H   0  0  0  0  0  0  0  0  0  0  0  0
    6.0151   69.4650   65.2592 H   0  0  0  0  0  0  0  0  0  0  0  0
    3.5616   69.2647   65.6583 H   0  0  0  0  0  0  0  0  0  0  0  0
    1.1284   66.8101   70.6862 H   0  0  0  0  0  0  0  0  0  0  0  0
   -0.5322   66.1743   70.7665 H   0  0  0  0  0  0  0  0  0  0  0  0
    0.8002   64.2345   69.4648 H   0  0  0  0  0  0  0  0  0  0  0  0
    2.9491   65.3738   69.9046 H   0  0  0  0  0  0  0  0  0  0  0  0
    2.7538   64.8034   71.5869 H   0  0  0  0  0  0  0  0  0  0  0  0
    2.9793   63.2031   69.0164 H   0  0  0  0  0  0  0  0  0  0  0  0
    5.0280   63.7663   70.2909 H   0  0  0  0  0  0  0  0  0  0  0  0
    4.3298   62.8985   71.7260 H   0  0  0  0  0  0  0  0  0  0  0  0
    5.4107   61.8027   69.1419 H   0  0  0  0  0  0  0  0  0  0  0  0
    5.6391   61.2595   70.8728 H   0  0  0  0  0  0  0  0  0  0  0  0
    3.5281   60.5410   68.8911 H   0  0  0  0  0  0  0  0  0  0  0  0
    4.3211   59.5709   70.2022 H   0  0  0  0  0  0  0  0  0  0  0  0
    1.9580   59.9380   70.7152 H   0  0  0  0  0  0  0  0  0  0  0  0
    3.0275   60.8113   71.8863 H   0  0  0  0  0  0  0  0  0  0  0  0
    1.3328   61.9200   69.6343 H   0  0  0  0  0  0  0  0  0  0  0  0
    0.3324   61.6994   71.8677 H   0  0  0  0  0  0  0  0  0  0  0  0
    1.6989   62.7131   72.5418 H   0  0  0  0  0  0  0  0  0  0  0  0
   -0.7256   63.5737   70.9660 H   0  0  0  0  0  0  0  0  0  0  0  0
    0.5095   62.7837   73.7385 H   0  0  0  0  0  0  0  0  0  0  0  0
    1.1723   64.5924   77.0181 H   0  0  0  0  0  0  0  0  0  0  0  0
    2.0811   63.9391   75.6131 H   0  0  0  0  0  0  0  0  0  0  0  0
    1.5364   65.6508   75.6131 H   0  0  0  0  0  0  0  0  0  0  0  0
   -0.5271   63.2317   77.1414 H   0  0  0  0  0  0  0  0  0  0  0  0
   -1.6918   62.9075   75.8129 H   0  0  0  0  0  0  0  0  0  0  0  0
   -0.0838   62.1069   75.8129 H   0  0  0  0  0  0  0  0  0  0  0  0
   -1.2721   65.6257   76.3454 H   0  0  0  0  0  0  0  0  0  0  0  0
   -0.6172   66.2414   74.7902 H   0  0  0  0  0  0  0  0  0  0  0  0
   -1.9748   65.0651   74.7902 H   0  0  0  0  0  0  0  0  0  0  0  0
  2  1  1  0
  3  1  1  0
  4  3  1  0
  5  4  1  0
  6  5  2  0
  7  5  1  0
  8  7  2  0
  9  8  1  0
 10  9  2  0
 11 10  1  0
 12  7  1  0
 12 11  2  0
 13 12  1  0
 14 11  1  0
 15  3  1  0
 16 15  1  0
 17 16  1  0
 18 17  2  0
 19 18  1  0
 20 19  2  0
 21 20  1  0
 22 21  2  0
 22 17  1  0
 23  1  1  0
 24 23  1  0
 25 24  1  0
 26 25  1  0
 27 26  1  0
 28 27  1  0
 29 28  1  0
 30 29  1  0
 31 30  1  0
 31 26  1  0
 32 31  1  0
 33 24  1  0
 33 32  1  0
 34 33  1  0
 35 34  2  0
 36 34  1  0
 37 36  1  0
 38 37  1  0
 39 37  1  0
 40 37  1  0
  1 41  1  6
  2 42  1  0
  3 43  1  6
  4 44  1  0
  8 45  1  0
  9 46  1  0
 10 47  1  0
 13 48  1  0
 13 49  1  0
 13 50  1  0
 14 51  1  0
 15 52  1  0
 15 53  1  0
 18 54  1  0
 19 55  1  0
 20 56  1  0
 21 57  1  0
 22 58  1  0
 23 59  1  0
 23 60  1  0
 24 61  1  6
 25 62  1  0
 25 63  1  0
 26 64  1  6
 27 65  1  0
 27 66  1  0
 28 67  1  0
 28 68  1  0
 29 69  1  0
 29 70  1  0
 30 71  1  0
 30 72  1  0
 31 73  1  6
 32 74  1  0
 32 75  1  0
 33 76  1  6
 36 77  1  0
 38 78  1  0
 38 79  1  0
 38 80  1  0
 39 81  1  0
 39 82  1  0
 39 83  1  0
 40 84  1  0
 40 85  1  0
 40 86  1  0
M  CHG  1  24   1
M  END
>  <score>  (2) 
-11.344

$$$$
=
     RDKit          3D

 86 89  0  0  0  0  0  0  0  0999 V2000
    2.6990   58.6390   74.9010 C   0  0  1  0  0  0  0  0  0  0  0  0
    3.5030   57.4390   74.9720 O   0  0  0  0  0  0  0  0  0  0  0  0
    2.4950   59.1360   73.4400 C   0  0  1  0  0  0  0  0  0  0  0  0
    2.0130   60.5240   73.3160 N   0  0  0  0  0  0  0  0  0  0  0  0
    0.7400   60.8670   72.9120 C   0  0  0  0  0  0  0  0  0  0  0  0
   -0.1950   60.0750   72.9210 O   0  0  0  0  0  0  0  0  0  0  0  0
    0.5540   62.2800   72.4920 C   0  0  0  0  0  0  0  0  0  0  0  0
    0.8640   62.6140   71.1610 C   0  0  0  0  0  0  0  0  0  0  0  0
    0.7440   63.9310   70.7270 C   0  0  0  0  0  0  0  0  0  0  0  0
    0.3380   64.9140   71.6230 C   0  0  0  0  0  0  0  0  0  0  0  0
    0.0440   64.5840   72.9470 C   0  0  0  0  0  0  0  0  0  0  0  0
    0.1130   63.2600   73.4060 C   0  0  0  0  0  0  0  0  0  0  0  0
   -0.2530   62.9030   74.8210 C   0  0  0  0  0  0  0  0  0  0  0  0
   -0.3130   65.6350   73.7420 O   0  0  0  0  0  0  0  0  0  0  0  0
    3.8120   58.9590   72.6490 C   0  0  0  0  0  0  0  0  0  0  0  0
    3.5680   58.8710   70.8330 S   0  0  0  0  0  0  0  0  0  0  0  0
    3.8910   60.5650   70.3800 C   0  0  0  0  0  0  0  0  0  0  0  0
    3.4120   61.1040   69.1810 C   0  0  0  0  0  0  0  0  0  0  0  0
    3.6690   62.4380   68.8570 C   0  0  0  0  0  0  0  0  0  0  0  0
    4.4130   63.2360   69.7250 C   0  0  0  0  0  0  0  0  0  0  0  0
    4.9080   62.7010   70.9120 C   0  0  0  0  0  0  0  0  0  0  0  0
    4.6530   61.3670   71.2370 C   0  0  0  0  0  0  0  0  0  0  0  0
    1.3950   58.3600   75.6760 C   0  0  0  0  0  0  0  0  0  0  0  0
    0.9110   56.9670   75.2610 N   0  0  1  0  0  4  0  0  0  0  0  0
    1.0570   55.9280   76.3250 C   0  0  0  0  0  0  0  0  0  0  0  0
    1.0770   54.5530   75.6490 C   0  0  1  0  0  0  0  0  0  0  0  0
    0.8170   53.4450   76.6740 C   0  0  0  0  0  0  0  0  0  0  0  0
    0.9590   52.0500   76.0640 C   0  0  0  0  0  0  0  0  0  0  0  0
    0.5330   51.9750   74.5980 C   0  0  0  0  0  0  0  0  0  0  0  0
   -0.4780   53.0580   74.2470 C   0  0  0  0  0  0  0  0  0  0  0  0
    0.1200   54.4630   74.4310 C   0  0  1  0  0  0  0  0  0  0  0  0
   -0.9940   55.5170   74.4910 C   0  0  0  0  0  0  0  0  0  0  0  0
   -0.4800   56.9610   74.6170 C   0  0  1  0  0  0  0  0  0  0  0  0
   -1.5290   57.8140   75.3770 C   0  0  0  0  0  0  0  0  0  0  0  0
   -1.8490   57.5470   76.5330 O   0  0  0  0  0  0  0  0  0  0  0  0
   -2.0410   58.8730   74.6580 N   0  0  0  0  0  0  0  0  0  0  0  0
   -3.0280   59.8420   75.1760 C   0  0  0  0  0  0  0  0  0  0  0  0
   -4.3930   59.1710   75.3970 C   0  0  0  0  0  0  0  0  0  0  0  0
   -3.2020   60.9550   74.1260 C   0  0  0  0  0  0  0  0  0  0  0  0
   -2.5310   60.4810   76.4820 C   0  0  0  0  0  0  0  0  0  0  0  0
    3.2147   59.4868   75.3756 H   0  0  0  0  0  0  0  0  0  0  0  0
    3.6610   57.2032   75.9205 H   0  0  0  0  0  0  0  0  0  0  0  0
    1.6912   58.5138   73.0196 H   0  0  0  0  0  0  0  0  0  0  0  0
    2.6682   61.2849   73.5455 H   0  0  0  0  0  0  0  0  0  0  0  0
    1.2014   61.8338   70.4628 H   0  0  0  0  0  0  0  0  0  0  0  0
    0.9688   64.1925   69.6824 H   0  0  0  0  0  0  0  0  0  0  0  0
    0.2481   65.9574   71.2865 H   0  0  0  0  0  0  0  0  0  0  0  0
    0.3560   63.4971   75.5183 H   0  0  0  0  0  0  0  0  0  0  0  0
   -1.3184   63.1184   74.9896 H   0  0  0  0  0  0  0  0  0  0  0  0
   -0.0642   61.8325   74.9896 H   0  0  0  0  0  0  0  0  0  0  0  0
   -0.5366   65.4818   74.6942 H   0  0  0  0  0  0  0  0  0  0  0  0
    4.4691   59.8127   72.8711 H   0  0  0  0  0  0  0  0  0  0  0  0
    4.2522   58.0012   72.9633 H   0  0  0  0  0  0  0  0  0  0  0  0
    2.8308   60.4747   68.4909 H   0  0  0  0  0  0  0  0  0  0  0  0
    3.2842   62.8593   67.9165 H   0  0  0  0  0  0  0  0  0  0  0  0
    4.6092   64.2885   69.4724 H   0  0  0  0  0  0  0  0  0  0  0  0
    5.5000   63.3295   71.5936 H   0  0  0  0  0  0  0  0  0  0  0  0
    5.0529   60.9448   72.1707 H   0  0  0  0  0  0  0  0  0  0  0  0
    1.5873   58.3851   76.7588 H   0  0  0  0  0  0  0  0  0  0  0  0
    0.6347   59.1216   75.4483 H   0  0  0  0  0  0  0  0  0  0  0  0
    1.5651   56.6888   74.5156 H   0  0  0  0  0  0  0  0  0  0  0  0
    1.9965   56.0868   76.8747 H   0  0  0  0  0  0  0  0  0  0  0  0
    0.2200   55.9907   77.0359 H   0  0  0  0  0  0  0  0  0  0  0  0
    2.0868   54.4066   75.2381 H   0  0  0  0  0  0  0  0  0  0  0  0
    1.5395   53.5471   77.4972 H   0  0  0  0  0  0  0  0  0  0  0  0
   -0.2169   53.5530   77.0336 H   0  0  0  0  0  0  0  0  0  0  0  0
    2.0135   51.7453   76.1354 H   0  0  0  0  0  0  0  0  0  0  0  0
    0.2906   51.3827   76.6279 H   0  0  0  0  0  0  0  0  0  0  0  0
    1.4221   52.0982   73.9621 H   0  0  0  0  0  0  0  0  0  0  0  0
    0.0588   50.9969   74.4293 H   0  0  0  0  0  0  0  0  0  0  0  0
   -0.7857   52.9343   73.1982 H   0  0  0  0  0  0  0  0  0  0  0  0
   -1.3416   52.9577   74.9209 H   0  0  0  0  0  0  0  0  0  0  0  0
    0.7431   54.6742   73.5494 H   0  0  0  0  0  0  0  0  0  0  0  0
   -1.5922   55.4414   73.5709 H   0  0  0  0  0  0  0  0  0  0  0  0
   -1.5829   55.3077   75.3962 H   0  0  0  0  0  0  0  0  0  0  0  0
   -0.3566   57.4218   73.6258 H   0  0  0  0  0  0  0  0  0  0  0  0
   -1.7116   58.9974   73.6901 H   0  0  0  0  0  0  0  0  0  0  0  0
   -4.5848   59.0767   76.4760 H   0  0  0  0  0  0  0  0  0  0  0  0
   -5.1818   59.7841   74.9366 H   0  0  0  0  0  0  0  0  0  0  0  0
   -4.3893   58.1720   74.9366 H   0  0  0  0  0  0  0  0  0  0  0  0
   -3.3526   61.9186   74.6346 H   0  0  0  0  0  0  0  0  0  0  0  0
   -2.3015   61.0094   73.4967 H   0  0  0  0  0  0  0  0  0  0  0  0
   -4.0762   60.7320   73.4967 H   0  0  0  0  0  0  0  0  0  0  0  0
   -2.9536   59.9377   77.3400 H   0  0  0  0  0  0  0  0  0  0  0  0
   -1.4329   60.4300   76.5205 H   0  0  0  0  0  0  0  0  0  0  0  0
   -2.8508   61.5328   76.5205 H   0  0  0  0  0  0  0  0  0  0  0  0
  2  1  1  0
  3  1  1  0
  4  3  1  0
  5  4  1  0
  6  5  2  0
  7  5  1  0
  8  7  2  0
  9  8  1  0
 10  9  2  0
 11 10  1  0
 12  7  1  0
 12 11  2  0
 13 12  1  0
 14 11  1  0
 15  3  1  0
 16 15  1  0
 17 16  1  0
 18 17  2  0
 19 18  1  0
 20 19  2  0
 21 20  1  0
 22 21  2  0
 22 17  1  0
 23  1  1  0
 24 23  1  0
 25 24  1  0
 26 25  1  0
 27 26  1  0
 28 27  1  0
 29 28  1  0
 30 29  1  0
 31 30  1  0
 31 26  1  0
 32 31  1  0
 33 24  1  0
 33 32  1  0
 34 33  1  0
 35 34  2  0
 36 34  1  0
 37 36  1  0
 38 37  1  0
 39 37  1  0
 40 37  1  0
  1 41  1  1
  2 42  1  0
  3 43  1  6
  4 44  1  0
  8 45  1  0
  9 46  1  0
 10 47  1  0
 13 48  1  0
 13 49  1  0
 13 50  1  0
 14 51  1  0
 15 52  1  0
 15 53  1  0
 18 54  1  0
 19 55  1  0
 20 56  1  0
 21 57  1  0
 22 58  1  0
 23 59  1  0
 23 60  1  0
 24 61  1  6
 25 62  1  0
 25 63  1  0
 26 64  1  6
 27 65  1  0
 27 66  1  0
 28 67  1  0
 28 68  1  0
 29 69  1  0
 29 70  1  0
 30 71  1  0
 30 72  1  0
 31 73  1  6
 32 74  1  0
 32 75  1  0
 33 76  1  6
 36 77  1  0
 38 78  1  0
 38 79  1  0
 38 80  1  0
 39 81  1  0
 39 82  1  0
 39 83  1  0
 40 84  1  0
 40 85  1  0
 40 86  1  0
M  CHG  1  24   1
M  END
>  <score>  (3) 
-9.764

$$$$
=
     RDKit          3D

 86 89  0  0  0  0  0  0  0  0999 V2000
    0.6660   65.9070   69.4290 C   0  0  1  0  0  0  0  0  0  0  0  0
    0.3900   66.3920   70.7630 O   0  0  0  0  0  0  0  0  0  0  0  0
    1.5200   66.9070   68.5940 C   0  0  1  0  0  0  0  0  0  0  0  0
    0.9330   67.2960   67.2980 N   0  0  0  0  0  0  0  0  0  0  0  0
    1.5180   67.0360   66.0770 C   0  0  0  0  0  0  0  0  0  0  0  0
    2.4000   66.1980   65.9280 O   0  0  0  0  0  0  0  0  0  0  0  0
    0.9860   67.8130   64.9280 C   0  0  0  0  0  0  0  0  0  0  0  0
   -0.3200   68.3250   65.0310 C   0  0  0  0  0  0  0  0  0  0  0  0
   -0.8790   69.0270   63.9680 C   0  0  0  0  0  0  0  0  0  0  0  0
   -0.1460   69.1990   62.7980 C   0  0  0  0  0  0  0  0  0  0  0  0
    1.1450   68.6800   62.6920 C   0  0  0  0  0  0  0  0  0  0  0  0
    1.7540   68.0040   63.7600 C   0  0  0  0  0  0  0  0  0  0  0  0
    3.1640   67.4910   63.6570 C   0  0  0  0  0  0  0  0  0  0  0  0
    1.7560   68.8830   61.4870 O   0  0  0  0  0  0  0  0  0  0  0  0
    1.8110   68.1660   69.4440 C   0  0  0  0  0  0  0  0  0  0  0  0
    1.7170   69.7300   68.4900 S   0  0  0  0  0  0  0  0  0  0  0  0
    3.4450   70.0030   68.1420 C   0  0  0  0  0  0  0  0  0  0  0  0
    4.2930   70.5970   69.0820 C   0  0  0  0  0  0  0  0  0  0  0  0
    5.6450   70.7870   68.7890 C   0  0  0  0  0  0  0  0  0  0  0  0
    6.1530   70.3930   67.5510 C   0  0  0  0  0  0  0  0  0  0  0  0
    5.3090   69.8170   66.6040 C   0  0  0  0  0  0  0  0  0  0  0  0
    3.9570   69.6270   66.8960 C   0  0  0  0  0  0  0  0  0  0  0  0
    1.2790   64.5000   69.5740 C   0  0  0  0  0  0  0  0  0  0  0  0
    1.0030   64.0310   71.0060 N   0  0  1  0  0  4  0  0  0  0  0  0
    0.0380   62.8940   71.1010 C   0  0  0  0  0  0  0  0  0  0  0  0
   -0.5610   62.8920   72.5100 C   0  0  1  0  0  0  0  0  0  0  0  0
   -1.2310   61.5470   72.8090 C   0  0  0  0  0  0  0  0  0  0  0  0
   -1.9550   61.5500   74.1560 C   0  0  0  0  0  0  0  0  0  0  0  0
   -1.2790   62.4220   75.2150 C   0  0  0  0  0  0  0  0  0  0  0  0
    0.2110   62.5850   74.9460 C   0  0  0  0  0  0  0  0  0  0  0  0
    0.4640   63.2930   73.6040 C   0  0  1  0  0  0  0  0  0  0  0  0
    1.9120   63.0760   73.1480 C   0  0  0  0  0  0  0  0  0  0  0  0
    2.2690   63.8010   71.8400 C   0  0  1  0  0  0  0  0  0  0  0  0
    3.3750   63.0060   71.0970 C   0  0  0  0  0  0  0  0  0  0  0  0
    4.2390   63.5820   70.4410 O   0  0  0  0  0  0  0  0  0  0  0  0
    3.3030   61.6380   71.2500 N   0  0  0  0  0  0  0  0  0  0  0  0
    4.2570   60.6750   70.6650 C   0  0  0  0  0  0  0  0  0  0  0  0
    4.2410   60.7490   69.1300 C   0  0  0  0  0  0  0  0  0  0  0  0
    3.8240   59.2580   71.0840 C   0  0  0  0  0  0  0  0  0  0  0  0
    5.6770   60.9250   71.1960 C   0  0  0  0  0  0  0  0  0  0  0  0
   -0.2596   65.8277   68.8399 H   0  0  0  0  0  0  0  0  0  0  0  0
    0.7529   65.7543   71.4276 H   0  0  0  0  0  0  0  0  0  0  0  0
    2.4480   66.3735   68.3407 H   0  0  0  0  0  0  0  0  0  0  0  0
    0.0305   67.7924   67.3057 H   0  0  0  0  0  0  0  0  0  0  0  0
   -0.8998   68.1702   65.9529 H   0  0  0  0  0  0  0  0  0  0  0  0
   -1.8937   69.4433   64.0519 H   0  0  0  0  0  0  0  0  0  0  0  0
   -0.5865   69.7470   61.9520 H   0  0  0  0  0  0  0  0  0  0  0  0
    3.5745   67.3416   64.6665 H   0  0  0  0  0  0  0  0  0  0  0  0
    3.1673   66.5341   63.1146 H   0  0  0  0  0  0  0  0  0  0  0  0
    3.7815   68.2221   63.1146 H   0  0  0  0  0  0  0  0  0  0  0  0
    2.6736   68.5443   61.3340 H   0  0  0  0  0  0  0  0  0  0  0  0
    1.0762   68.2119   70.2613 H   0  0  0  0  0  0  0  0  0  0  0  0
    2.8424   68.0747   69.8153 H   0  0  0  0  0  0  0  0  0  0  0  0
    3.8934   70.9158   70.0560 H   0  0  0  0  0  0  0  0  0  0  0  0
    6.3097   71.2475   69.5347 H   0  0  0  0  0  0  0  0  0  0  0  0
    7.2194   70.5370   67.3226 H   0  0  0  0  0  0  0  0  0  0  0  0
    5.7081   69.5117   65.6255 H   0  0  0  0  0  0  0  0  0  0  0  0
    3.2917   69.1797   66.1429 H   0  0  0  0  0  0  0  0  0  0  0  0
    0.8131   63.8100   68.8551 H   0  0  0  0  0  0  0  0  0  0  0  0
    2.3601   64.5224   69.3720 H   0  0  0  0  0  0  0  0  0  0  0  0
    0.5252   64.8335   71.4403 H   0  0  0  0  0  0  0  0  0  0  0  0
   -0.7617   63.0210   70.3565 H   0  0  0  0  0  0  0  0  0  0  0  0
    0.5523   61.9415   70.9052 H   0  0  0  0  0  0  0  0  0  0  0  0
   -1.3362   63.6720   72.5354 H   0  0  0  0  0  0  0  0  0  0  0  0
   -1.9607   61.3303   72.0149 H   0  0  0  0  0  0  0  0  0  0  0  0
   -0.4444   60.7791   72.8497 H   0  0  0  0  0  0  0  0  0  0  0  0
   -2.9778   61.9235   73.9998 H   0  0  0  0  0  0  0  0  0  0  0  0
   -1.9387   60.5165   74.5322 H   0  0  0  0  0  0  0  0  0  0  0  0
   -1.7519   63.4152   75.2133 H   0  0  0  0  0  0  0  0  0  0  0  0
   -1.3984   61.9290   76.1911 H   0  0  0  0  0  0  0  0  0  0  0  0
    0.6578   63.1813   75.7552 H   0  0  0  0  0  0  0  0  0  0  0  0
    0.6666   61.5848   74.9014 H   0  0  0  0  0  0  0  0  0  0  0  0
    0.3146   64.3706   73.7667 H   0  0  0  0  0  0  0  0  0  0  0  0
    2.5827   63.4404   73.9400 H   0  0  0  0  0  0  0  0  0  0  0  0
    2.0286   61.9989   72.9579 H   0  0  0  0  0  0  0  0  0  0  0  0
    2.6821   64.7995   72.0460 H   0  0  0  0  0  0  0  0  0  0  0  0
    2.5276   61.2603   71.8131 H   0  0  0  0  0  0  0  0  0  0  0  0
    4.0183   61.7791   68.8149 H   0  0  0  0  0  0  0  0  0  0  0  0
    5.2245   60.4502   68.7382 H   0  0  0  0  0  0  0  0  0  0  0  0
    3.4688   60.0706   68.7382 H   0  0  0  0  0  0  0  0  0  0  0  0
    3.8034   59.1905   72.1817 H   0  0  0  0  0  0  0  0  0  0  0  0
    2.8207   59.0481   70.6848 H   0  0  0  0  0  0  0  0  0  0  0  0
    4.5386   58.5232   70.6848 H   0  0  0  0  0  0  0  0  0  0  0  0
    5.6629   60.9225   72.2959 H   0  0  0  0  0  0  0  0  0  0  0  0
    6.3481   60.1312   70.8361 H   0  0  0  0  0  0  0  0  0  0  0  0
    6.0366   61.9003   70.8361 H   0  0  0  0  0  0  0  0  0  0  0  0
  2  1  1  0
  3  1  1  0
  4  3  1  0
  5  4  1  0
  6  5  2  0
  7  5  1  0
  8  7  2  0
  9  8  1  0
 10  9  2  0
 11 10  1  0
 12  7  1  0
 12 11  2  0
 13 12  1  0
 14 11  1  0
 15  3  1  0
 16 15  1  0
 17 16  1  0
 18 17  2  0
 19 18  1  0
 20 19  2  0
 21 20  1  0
 22 21  2  0
 22 17  1  0
 23  1  1  0
 24 23  1  0
 25 24  1  0
 26 25  1  0
 27 26  1  0
 28 27  1  0
 29 28  1  0
 30 29  1  0
 31 30  1  0
 31 26  1  0
 32 31  1  0
 33 24  1  0
 33 32  1  0
 34 33  1  0
 35 34  2  0
 36 34  1  0
 37 36  1  0
 38 37  1  0
 39 37  1  0
 40 37  1  0
  1 41  1  6
  2 42  1  0
  3 43  1  6
  4 44  1  0
  8 45  1  0
  9 46  1  0
 10 47  1  0
 13 48  1  0
 13 49  1  0
 13 50  1  0
 14 51  1  0
 15 52  1  0
 15 53  1  0
 18 54  1  0
 19 55  1  0
 20 56  1  0
 21 57  1  0
 22 58  1  0
 23 59  1  0
 23 60  1  0
 24 61  1  1
 25 62  1  0
 25 63  1  0
 26 64  1  6
 27 65  1  0
 27 66  1  0
 28 67  1  0
 28 68  1  0
 29 69  1  0
 29 70  1  0
 30 71  1  0
 30 72  1  0
 31 73  1  1
 32 74  1  0
 32 75  1  0
 33 76  1  1
 36 77  1  0
 38 78  1  0
 38 79  1  0
 38 80  1  0
 39 81  1  0
 39 82  1  0
 39 83  1  0
 40 84  1  0
 40 85  1  0
 40 86  1  0
M  CHG  1  24   1
M  END
>  <score>  (4) 
-9.588

$$$$
=
     RDKit          3D

 86 89  0  0  0  0  0  0  0  0999 V2000
    0.4540   66.3070   69.8140 C   0  0  1  0  0  0  0  0  0  0  0  0
    0.3170   66.8590   71.1440 O   0  0  0  0  0  0  0  0  0  0  0  0
    0.7590   67.3960   68.7440 C   0  0  1  0  0  0  0  0  0  0  0  0
    1.9870   68.1760   68.9820 N   0  0  0  0  0  0  0  0  0  0  0  0
    2.2290   69.4200   68.4390 C   0  0  0  0  0  0  0  0  0  0  0  0
    1.3420   70.1260   67.9760 O   0  0  0  0  0  0  0  0  0  0  0  0
    3.6420   69.8790   68.4800 C   0  0  0  0  0  0  0  0  0  0  0  0
    4.1560   70.3060   69.7180 C   0  0  0  0  0  0  0  0  0  0  0  0
    5.4610   70.7820   69.8030 C   0  0  0  0  0  0  0  0  0  0  0  0
    6.2420   70.8530   68.6550 C   0  0  0  0  0  0  0  0  0  0  0  0
    5.7260   70.4410   67.4250 C   0  0  0  0  0  0  0  0  0  0  0  0
    4.4310   69.9170   67.3110 C   0  0  0  0  0  0  0  0  0  0  0  0
    3.8980   69.4290   65.9910 C   0  0  0  0  0  0  0  0  0  0  0  0
    6.5730   70.5860   66.3630 O   0  0  0  0  0  0  0  0  0  0  0  0
    0.8100   66.7390   67.3440 C   0  0  0  0  0  0  0  0  0  0  0  0
   -0.0540   67.7100   66.0500 S   0  0  0  0  0  0  0  0  0  0  0  0
    1.1750   67.6950   64.7580 C   0  0  0  0  0  0  0  0  0  0  0  0
    2.2190   66.7640   64.7540 C   0  0  0  0  0  0  0  0  0  0  0  0
    3.1600   66.7670   63.7230 C   0  0  0  0  0  0  0  0  0  0  0  0
    3.0690   67.7060   62.6970 C   0  0  0  0  0  0  0  0  0  0  0  0
    2.0420   68.6480   62.7040 C   0  0  0  0  0  0  0  0  0  0  0  0
    1.1000   68.6470   63.7350 C   0  0  0  0  0  0  0  0  0  0  0  0
    1.4970   65.1740   69.8970 C   0  0  0  0  0  0  0  0  0  0  0  0
    1.2300   64.4070   71.1960 N   0  0  1  0  0  4  0  0  0  0  0  0
    0.1540   63.3760   71.0860 C   0  0  0  0  0  0  0  0  0  0  0  0
   -0.3850   63.0960   72.4920 C   0  0  1  0  0  0  0  0  0  0  0  0
   -1.1830   61.7890   72.5130 C   0  0  0  0  0  0  0  0  0  0  0  0
   -1.8470   61.5400   73.8680 C   0  0  0  0  0  0  0  0  0  0  0  0
   -1.0400   62.0680   75.0540 C   0  0  0  0  0  0  0  0  0  0  0  0
    0.4470   62.1480   74.7350 C   0  0  0  0  0  0  0  0  0  0  0  0
    0.7200   63.1270   73.5810 C   0  0  1  0  0  0  0  0  0  0  0  0
    2.1170   62.8890   72.9940 C   0  0  0  0  0  0  0  0  0  0  0  0
    2.4970   63.8670   71.8700 C   0  0  1  0  0  0  0  0  0  0  0  0
    3.4800   63.1700   70.8940 C   0  0  0  0  0  0  0  0  0  0  0  0
    4.3570   63.8060   70.3140 O   0  0  0  0  0  0  0  0  0  0  0  0
    3.2880   61.8110   70.7540 N   0  0  0  0  0  0  0  0  0  0  0  0
    4.1150   60.9290   69.9060 C   0  0  0  0  0  0  0  0  0  0  0  0
    4.1820   61.4570   68.4650 C   0  0  0  0  0  0  0  0  0  0  0  0
    3.4560   59.5380   69.8800 C   0  0  0  0  0  0  0  0  0  0  0  0
    5.5300   60.7840   70.4870 C   0  0  0  0  0  0  0  0  0  0  0  0
   -0.4984   65.8826   69.4636 H   0  0  0  0  0  0  0  0  0  0  0  0
    0.4925   66.1520   71.8144 H   0  0  0  0  0  0  0  0  0  0  0  0
   -0.0620   68.1249   68.8127 H   0  0  0  0  0  0  0  0  0  0  0  0
    2.7090   67.7663   69.5917 H   0  0  0  0  0  0  0  0  0  0  0  0
    3.5263   70.2636   70.6190 H   0  0  0  0  0  0  0  0  0  0  0  0
    5.8720   71.1001   70.7725 H   0  0  0  0  0  0  0  0  0  0  0  0
    7.2715   71.2357   68.7162 H   0  0  0  0  0  0  0  0  0  0  0  0
    3.0972   68.6958   66.1674 H   0  0  0  0  0  0  0  0  0  0  0  0
    3.4971   70.2797   65.4204 H   0  0  0  0  0  0  0  0  0  0  0  0
    4.7101   68.9548   65.4204 H   0  0  0  0  0  0  0  0  0  0  0  0
    6.2807   70.3164   65.4563 H   0  0  0  0  0  0  0  0  0  0  0  0
    1.8640   66.6269   67.0499 H   0  0  0  0  0  0  0  0  0  0  0  0
    0.2939   65.7707   67.4214 H   0  0  0  0  0  0  0  0  0  0  0  0
    2.2987   66.0267   65.5664 H   0  0  0  0  0  0  0  0  0  0  0  0
    3.9743   66.0275   63.7203 H   0  0  0  0  0  0  0  0  0  0  0  0
    3.8077   67.7035   61.8819 H   0  0  0  0  0  0  0  0  0  0  0  0
    1.9733   69.3926   61.8972 H   0  0  0  0  0  0  0  0  0  0  0  0
    0.2958   69.3975   63.7430 H   0  0  0  0  0  0  0  0  0  0  0  0
    1.3918   64.5008   69.0334 H   0  0  0  0  0  0  0  0  0  0  0  0
    2.5185   65.5820   69.8873 H   0  0  0  0  0  0  0  0  0  0  0  0
    0.8583   65.1245   71.8347 H   0  0  0  0  0  0  0  0  0  0  0  0
   -0.6568   63.7508   70.4440 H   0  0  0  0  0  0  0  0  0  0  0  0
    0.5555   62.4532   70.6419 H   0  0  0  0  0  0  0  0  0  0  0  0
   -1.0705   63.9174   72.7477 H   0  0  0  0  0  0  0  0  0  0  0  0
   -1.9636   61.8379   71.7395 H   0  0  0  0  0  0  0  0  0  0  0  0
   -0.4827   60.9623   72.3228 H   0  0  0  0  0  0  0  0  0  0  0  0
   -2.8298   62.0341   73.8692 H   0  0  0  0  0  0  0  0  0  0  0  0
   -1.9252   60.4498   73.9922 H   0  0  0  0  0  0  0  0  0  0  0  0
   -1.4034   63.0735   75.3126 H   0  0  0  0  0  0  0  0  0  0  0  0
   -1.1724   61.3716   75.8951 H   0  0  0  0  0  0  0  0  0  0  0  0
    0.9874   62.4898   75.6301 H   0  0  0  0  0  0  0  0  0  0  0  0
    0.7906   61.1484   74.4304 H   0  0  0  0  0  0  0  0  0  0  0  0
    0.6935   64.1440   73.9995 H   0  0  0  0  0  0  0  0  0  0  0  0
    2.8544   62.9893   73.8040 H   0  0  0  0  0  0  0  0  0  0  0  0
    2.1093   61.8821   72.5512 H   0  0  0  0  0  0  0  0  0  0  0  0
    3.0229   64.7445   72.2744 H   0  0  0  0  0  0  0  0  0  0  0  0
    2.5127   61.3809   71.2782 H   0  0  0  0  0  0  0  0  0  0  0  0
    4.3205   62.5481   68.4804 H   0  0  0  0  0  0  0  0  0  0  0  0
    5.0278   60.9874   67.9414 H   0  0  0  0  0  0  0  0  0  0  0  0
    3.2458   61.2135   67.9414 H   0  0  0  0  0  0  0  0  0  0  0  0
    3.2915   59.1909   70.9108 H   0  0  0  0  0  0  0  0  0  0  0  0
    2.4911   59.5991   69.3553 H   0  0  0  0  0  0  0  0  0  0  0  0
    4.1144   58.8301   69.3553 H   0  0  0  0  0  0  0  0  0  0  0  0
    5.4776   60.7894   71.5857 H   0  0  0  0  0  0  0  0  0  0  0  0
    5.9712   59.8359   70.1456 H   0  0  0  0  0  0  0  0  0  0  0  0
    6.1543   61.6229   70.1456 H   0  0  0  0  0  0  0  0  0  0  0  0
  2  1  1  0
  3  1  1  0
  4  3  1  0
  5  4  1  0
  6  5  2  0
  7  5  1  0
  8  7  2  0
  9  8  1  0
 10  9  2  0
 11 10  1  0
 12  7  1  0
 12 11  2  0
 13 12  1  0
 14 11  1  0
 15  3  1  0
 16 15  1  0
 17 16  1  0
 18 17  2  0
 19 18  1  0
 20 19  2  0
 21 20  1  0
 22 21  2  0
 22 17  1  0
 23  1  1  0
 24 23  1  0
 25 24  1  0
 26 25  1  0
 27 26  1  0
 28 27  1  0
 29 28  1  0
 30 29  1  0
 31 30  1  0
 31 26  1  0
 32 31  1  0
 33 24  1  0
 33 32  1  0
 34 33  1  0
 35 34  2  0
 36 34  1  0
 37 36  1  0
 38 37  1  0
 39 37  1  0
 40 37  1  0
  1 41  1  6
  2 42  1  0
  3 43  1  6
  4 44  1  0
  8 45  1  0
  9 46  1  0
 10 47  1  0
 13 48  1  0
 13 49  1  0
 13 50  1  0
 14 51  1  0
 15 52  1  0
 15 53  1  0
 18 54  1  0
 19 55  1  0
 20 56  1  0
 21 57  1  0
 22 58  1  0
 23 59  1  0
 23 60  1  0
 24 61  1  1
 25 62  1  0
 25 63  1  0
 26 64  1  1
 27 65  1  0
 27 66  1  0
 28 67  1  0
 28 68  1  0
 29 69  1  0
 29 70  1  0
 30 71  1  0
 30 72  1  0
 31 73  1  1
 32 74  1  0
 32 75  1  0
 33 76  1  1
 36 77  1  0
 38 78  1  0
 38 79  1  0
 38 80  1  0
 39 81  1  0
 39 82  1  0
 39 83  1  0
 40 84  1  0
 40 85  1  0
 40 86  1  0
M  CHG  1  24   1
M  END
>  <score>  (5) 
-9.475

$$$$
=
     RDKit          3D

 86 89  0  0  0  0  0  0  0  0999 V2000
    2.8460   58.6840   74.6000 C   0  0  1  0  0  0  0  0  0  0  0  0
    4.1460   58.1040   74.8540 O   0  0  0  0  0  0  0  0  0  0  0  0
    2.7180   59.2560   73.1570 C   0  0  1  0  0  0  0  0  0  0  0  0
    2.1910   60.6310   73.0770 N   0  0  0  0  0  0  0  0  0  0  0  0
    0.8850   60.9400   72.7660 C   0  0  0  0  0  0  0  0  0  0  0  0
   -0.0260   60.1230   72.8360 O   0  0  0  0  0  0  0  0  0  0  0  0
    0.6310   62.3490   72.3700 C   0  0  0  0  0  0  0  0  0  0  0  0
    0.9110   62.7170   71.0410 C   0  0  0  0  0  0  0  0  0  0  0  0
    0.7280   64.0330   70.6290 C   0  0  0  0  0  0  0  0  0  0  0  0
    0.2880   64.9840   71.5440 C   0  0  0  0  0  0  0  0  0  0  0  0
    0.0230   64.6210   72.8660 C   0  0  0  0  0  0  0  0  0  0  0  0
    0.1560   63.2950   73.3030 C   0  0  0  0  0  0  0  0  0  0  0  0
   -0.1790   62.9010   74.7160 C   0  0  0  0  0  0  0  0  0  0  0  0
   -0.3730   65.6430   73.6800 O   0  0  0  0  0  0  0  0  0  0  0  0
    4.0900   59.1720   72.4490 C   0  0  0  0  0  0  0  0  0  0  0  0
    5.0350   60.7430   72.4960 S   0  0  0  0  0  0  0  0  0  0  0  0
    4.5080   61.4850   70.9620 C   0  0  0  0  0  0  0  0  0  0  0  0
    3.9170   60.7230   69.9490 C   0  0  0  0  0  0  0  0  0  0  0  0
    3.5020   61.3320   68.7630 C   0  0  0  0  0  0  0  0  0  0  0  0
    3.6840   62.7030   68.5800 C   0  0  0  0  0  0  0  0  0  0  0  0
    4.2890   63.4630   69.5780 C   0  0  0  0  0  0  0  0  0  0  0  0
    4.7060   62.8560   70.7640 C   0  0  0  0  0  0  0  0  0  0  0  0
    1.7930   57.6190   74.9680 C   0  0  0  0  0  0  0  0  0  0  0  0
    0.4880   58.3600   75.2770 N   0  0  1  0  0  4  0  0  0  0  0  0
   -0.7110   57.4740   75.3650 C   0  0  0  0  0  0  0  0  0  0  0  0
   -1.9570   58.3320   75.1220 C   0  0  1  0  0  0  0  0  0  0  0  0
   -3.2170   57.5970   75.5910 C   0  0  0  0  0  0  0  0  0  0  0  0
   -4.4940   58.3640   75.2460 C   0  0  0  0  0  0  0  0  0  0  0  0
   -4.3270   59.8830   75.2830 C   0  0  0  0  0  0  0  0  0  0  0  0
   -3.1970   60.3050   76.2130 C   0  0  0  0  0  0  0  0  0  0  0  0
   -1.8430   59.7520   75.7360 C   0  0  1  0  0  0  0  0  0  0  0  0
   -0.8100   59.8130   76.8680 C   0  0  0  0  0  0  0  0  0  0  0  0
    0.5920   59.3320   76.4590 C   0  0  1  0  0  0  0  0  0  0  0  0
    1.3140   58.7400   77.6980 C   0  0  0  0  0  0  0  0  0  0  0  0
    0.8920   57.7300   78.2560 O   0  0  0  0  0  0  0  0  0  0  0  0
    2.4430   59.4280   78.0910 N   0  0  0  0  0  0  0  0  0  0  0  0
    3.3110   59.0410   79.2210 C   0  0  0  0  0  0  0  0  0  0  0  0
    2.5060   58.9570   80.5280 C   0  0  0  0  0  0  0  0  0  0  0  0
    4.3890   60.1280   79.3880 C   0  0  0  0  0  0  0  0  0  0  0  0
    4.0110   57.7030   78.9380 C   0  0  0  0  0  0  0  0  0  0  0  0
    2.6816   59.5721   75.2279 H   0  0  0  0  0  0  0  0  0  0  0  0
    4.2929   58.0384   75.8308 H   0  0  0  0  0  0  0  0  0  0  0  0
    1.9686   58.6307   72.6498 H   0  0  0  0  0  0  0  0  0  0  0  0
    2.8396   61.4086   73.2653 H   0  0  0  0  0  0  0  0  0  0  0  0
    1.2749   61.9633   70.3272 H   0  0  0  0  0  0  0  0  0  0  0  0
    0.9299   64.3198   69.5864 H   0  0  0  0  0  0  0  0  0  0  0  0
    0.1481   66.0272   71.2244 H   0  0  0  0  0  0  0  0  0  0  0  0
    0.3702   63.5470   75.4168 H   0  0  0  0  0  0  0  0  0  0  0  0
   -1.2603   63.0158   74.8821 H   0  0  0  0  0  0  0  0  0  0  0  0
    0.1082   61.8522   74.8821 H   0  0  0  0  0  0  0  0  0  0  0  0
   -0.5796   65.4660   74.6319 H   0  0  0  0  0  0  0  0  0  0  0  0
    4.6884   58.3909   72.9409 H   0  0  0  0  0  0  0  0  0  0  0  0
    3.8946   58.9436   71.3909 H   0  0  0  0  0  0  0  0  0  0  0  0
    3.7787   59.6405   70.0870 H   0  0  0  0  0  0  0  0  0  0  0  0
    3.0310   60.7300   67.9720 H   0  0  0  0  0  0  0  0  0  0  0  0
    3.3500   63.1832   67.6484 H   0  0  0  0  0  0  0  0  0  0  0  0
    4.4385   64.5429   69.4316 H   0  0  0  0  0  0  0  0  0  0  0  0
    5.1921   63.4579   71.5459 H   0  0  0  0  0  0  0  0  0  0  0  0
    1.6440   56.9291   74.1243 H   0  0  0  0  0  0  0  0  0  0  0  0
    2.1217   57.0285   75.8359 H   0  0  0  0  0  0  0  0  0  0  0  0
    0.3334   58.9473   74.4451 H   0  0  0  0  0  0  0  0  0  0  0  0
   -0.6477   56.6843   74.6019 H   0  0  0  0  0  0  0  0  0  0  0  0
   -0.7624   57.0004   76.3565 H   0  0  0  0  0  0  0  0  0  0  0  0
   -2.0382   58.4888   74.0363 H   0  0  0  0  0  0  0  0  0  0  0  0
   -3.2536   56.6108   75.1051 H   0  0  0  0  0  0  0  0  0  0  0  0
   -3.1651   57.5017   76.6856 H   0  0  0  0  0  0  0  0  0  0  0  0
   -4.8105   58.0739   74.2332 H   0  0  0  0  0  0  0  0  0  0  0  0
   -5.2416   58.1039   76.0098 H   0  0  0  0  0  0  0  0  0  0  0  0
   -4.1049   60.2417   74.2671 H   0  0  0  0  0  0  0  0  0  0  0  0
   -5.2626   60.3209   75.6610 H   0  0  0  0  0  0  0  0  0  0  0  0
   -3.1460   61.4035   76.2391 H   0  0  0  0  0  0  0  0  0  0  0  0
   -3.4032   59.9005   77.2149 H   0  0  0  0  0  0  0  0  0  0  0  0
   -1.4920   60.3989   74.9185 H   0  0  0  0  0  0  0  0  0  0  0  0
   -0.7323   60.8556   77.2101 H   0  0  0  0  0  0  0  0  0  0  0  0
   -1.1623   59.1341   77.6585 H   0  0  0  0  0  0  0  0  0  0  0  0
    1.2076   60.1729   76.1070 H   0  0  0  0  0  0  0  0  0  0  0  0
    2.6988   60.2717   77.5584 H   0  0  0  0  0  0  0  0  0  0  0  0
    3.1910   59.0285   81.3857 H   0  0  0  0  0  0  0  0  0  0  0  0
    1.7823   59.7845   80.5667 H   0  0  0  0  0  0  0  0  0  0  0  0
    1.9687   57.9979   80.5667 H   0  0  0  0  0  0  0  0  0  0  0  0
    4.5665   60.3070   80.4587 H   0  0  0  0  0  0  0  0  0  0  0  0
    5.3230   59.7943   78.9123 H   0  0  0  0  0  0  0  0  0  0  0  0
    4.0475   61.0592   78.9123 H   0  0  0  0  0  0  0  0  0  0  0  0
    4.2666   57.2144   79.8898 H   0  0  0  0  0  0  0  0  0  0  0  0
    3.3380   57.0520   78.3608 H   0  0  0  0  0  0  0  0  0  0  0  0
    4.9296   57.8846   78.3608 H   0  0  0  0  0  0  0  0  0  0  0  0
  2  1  1  0
  3  1  1  0
  4  3  1  0
  5  4  1  0
  6  5  2  0
  7  5  1  0
  8  7  2  0
  9  8  1  0
 10  9  2  0
 11 10  1  0
 12  7  1  0
 12 11  2  0
 13 12  1  0
 14 11  1  0
 15  3  1  0
 16 15  1  0
 17 16  1  0
 18 17  2  0
 19 18  1  0
 20 19  2  0
 21 20  1  0
 22 21  2  0
 22 17  1  0
 23  1  1  0
 24 23  1  0
 25 24  1  0
 26 25  1  0
 27 26  1  0
 28 27  1  0
 29 28  1  0
 30 29  1  0
 31 30  1  0
 31 26  1  0
 32 31  1  0
 33 24  1  0
 33 32  1  0
 34 33  1  0
 35 34  2  0
 36 34  1  0
 37 36  1  0
 38 37  1  0
 39 37  1  0
 40 37  1  0
  1 41  1  1
  2 42  1  0
  3 43  1  6
  4 44  1  0
  8 45  1  0
  9 46  1  0
 10 47  1  0
 13 48  1  0
 13 49  1  0
 13 50  1  0
 14 51  1  0
 15 52  1  0
 15 53  1  0
 18 54  1  0
 19 55  1  0
 20 56  1  0
 21 57  1  0
 22 58  1  0
 23 59  1  0
 23 60  1  0
 24 61  1  6
 25 62  1  0
 25 63  1  0
 26 64  1  6
 27 65  1  0
 27 66  1  0
 28 67  1  0
 28 68  1  0
 29 69  1  0
 29 70  1  0
 30 71  1  0
 30 72  1  0
 31 73  1  6
 32 74  1  0
 32 75  1  0
 33 76  1  6
 36 77  1  0
 38 78  1  0
 38 79  1  0
 38 80  1  0
 39 81  1  0
 39 82  1  0
 39 83  1  0
 40 84  1  0
 40 85  1  0
 40 86  1  0
M  CHG  1  24   1
M  END
>  <score>  (6) 
-9.155

$$$$
=
     RDKit          3D

 86 89  0  0  0  0  0  0  0  0999 V2000
    3.0160   59.9320   75.3530 C   0  0  1  0  0  0  0  0  0  0  0  0
    3.5910   59.7450   76.6670 O   0  0  0  0  0  0  0  0  0  0  0  0
    3.3010   58.7350   74.4000 C   0  0  1  0  0  0  0  0  0  0  0  0
    2.2620   57.6880   74.3870 N   0  0  0  0  0  0  0  0  0  0  0  0
    2.1430   56.7060   75.3460 C   0  0  0  0  0  0  0  0  0  0  0  0
    2.6720   56.7870   76.4490 O   0  0  0  0  0  0  0  0  0  0  0  0
    1.2950   55.5430   74.9780 C   0  0  0  0  0  0  0  0  0  0  0  0
    1.9270   54.4320   74.3910 C   0  0  0  0  0  0  0  0  0  0  0  0
    1.1730   53.3320   73.9930 C   0  0  0  0  0  0  0  0  0  0  0  0
   -0.2070   53.3490   74.1590 C   0  0  0  0  0  0  0  0  0  0  0  0
   -0.8350   54.4580   74.7290 C   0  0  0  0  0  0  0  0  0  0  0  0
   -0.1010   55.5650   75.1810 C   0  0  0  0  0  0  0  0  0  0  0  0
   -0.7780   56.7350   75.8400 C   0  0  0  0  0  0  0  0  0  0  0  0
   -2.1960   54.3770   74.8130 O   0  0  0  0  0  0  0  0  0  0  0  0
    3.5390   59.2650   72.9670 C   0  0  0  0  0  0  0  0  0  0  0  0
    4.5610   60.7870   72.9100 S   0  0  0  0  0  0  0  0  0  0  0  0
    4.1000   61.4290   71.3120 C   0  0  0  0  0  0  0  0  0  0  0  0
    3.3630   60.6620   70.4030 C   0  0  0  0  0  0  0  0  0  0  0  0
    3.0040   61.1950   69.1630 C   0  0  0  0  0  0  0  0  0  0  0  0
    3.3880   62.4910   68.8220 C   0  0  0  0  0  0  0  0  0  0  0  0
    4.1380   63.2530   69.7160 C   0  0  0  0  0  0  0  0  0  0  0  0
    4.4980   62.7220   70.9560 C   0  0  0  0  0  0  0  0  0  0  0  0
    1.5220   60.2570   75.5530 C   0  0  0  0  0  0  0  0  0  0  0  0
    1.2220   61.5260   74.7490 N   0  0  1  0  0  4  0  0  0  0  0  0
    0.6010   61.2710   73.4140 C   0  0  0  0  0  0  0  0  0  0  0  0
    0.8610   62.4910   72.5250 C   0  0  1  0  0  0  0  0  0  0  0  0
   -0.0720   62.4810   71.3100 C   0  0  0  0  0  0  0  0  0  0  0  0
    0.2450   63.6110   70.3300 C   0  0  0  0  0  0  0  0  0  0  0  0
    0.7550   64.8840   71.0060 C   0  0  0  0  0  0  0  0  0  0  0  0
    0.2710   64.9940   72.4450 C   0  0  0  0  0  0  0  0  0  0  0  0
    0.7970   63.8310   73.3040 C   0  0  1  0  0  0  0  0  0  0  0  0
   -0.0150   63.7110   74.5990 C   0  0  0  0  0  0  0  0  0  0  0  0
    0.4840   62.6070   75.5470 C   0  0  1  0  0  0  0  0  0  0  0  0
   -0.7090   62.0680   76.3790 C   0  0  0  0  0  0  0  0  0  0  0  0
   -0.5700   61.7520   77.5590 O   0  0  0  0  0  0  0  0  0  0  0  0
   -1.9030   61.9920   75.6940 N   0  0  0  0  0  0  0  0  0  0  0  0
   -3.1810   61.5400   76.2800 C   0  0  0  0  0  0  0  0  0  0  0  0
   -3.0430   60.1310   76.8780 C   0  0  0  0  0  0  0  0  0  0  0  0
   -4.2300   61.4860   75.1540 C   0  0  0  0  0  0  0  0  0  0  0  0
   -3.6700   62.5280   77.3510 C   0  0  0  0  0  0  0  0  0  0  0  0
    3.4920   60.7751   74.8309 H   0  0  0  0  0  0  0  0  0  0  0  0
    2.9158   59.9646   77.3570 H   0  0  0  0  0  0  0  0  0  0  0  0
    4.2008   58.2418   74.7965 H   0  0  0  0  0  0  0  0  0  0  0  0
    1.5830   57.6913   73.6125 H   0  0  0  0  0  0  0  0  0  0  0  0
    3.0175   54.4325   74.2465 H   0  0  0  0  0  0  0  0  0  0  0  0
    1.6662   52.4543   73.5497 H   0  0  0  0  0  0  0  0  0  0  0  0
   -0.8073   52.4843   73.8397 H   0  0  0  0  0  0  0  0  0  0  0  0
   -0.7155   56.6269   76.9329 H   0  0  0  0  0  0  0  0  0  0  0  0
   -0.2795   57.6668   75.5346 H   0  0  0  0  0  0  0  0  0  0  0  0
   -1.8343   56.7671   75.5346 H   0  0  0  0  0  0  0  0  0  0  0  0
   -2.7131   55.1244   75.2055 H   0  0  0  0  0  0  0  0  0  0  0  0
    4.0482   58.4818   72.3862 H   0  0  0  0  0  0  0  0  0  0  0  0
    2.5542   59.5208   72.5490 H   0  0  0  0  0  0  0  0  0  0  0  0
    3.0655   59.6361   70.6658 H   0  0  0  0  0  0  0  0  0  0  0  0
    2.4176   60.5915   68.4546 H   0  0  0  0  0  0  0  0  0  0  0  0
    3.0992   62.9121   67.8477 H   0  0  0  0  0  0  0  0  0  0  0  0
    4.4465   64.2733   69.4445 H   0  0  0  0  0  0  0  0  0  0  0  0
    5.0971   63.3229   71.6560 H   0  0  0  0  0  0  0  0  0  0  0  0
    0.9031   59.4243   75.1875 H   0  0  0  0  0  0  0  0  0  0  0  0
    1.2948   60.4075   76.6187 H   0  0  0  0  0  0  0  0  0  0  0  0
    2.1535   61.9164   74.5471 H   0  0  0  0  0  0  0  0  0  0  0  0
    1.0504   60.3760   72.9590 H   0  0  0  0  0  0  0  0  0  0  0  0
   -0.4807   61.1039   73.5235 H   0  0  0  0  0  0  0  0  0  0  0  0
    1.8958   62.4143   72.1598 H   0  0  0  0  0  0  0  0  0  0  0  0
    0.0359   61.5187   70.7882 H   0  0  0  0  0  0  0  0  0  0  0  0
   -1.1004   62.6264   71.6723 H   0  0  0  0  0  0  0  0  0  0  0  0
    1.0154   63.2572   69.6290 H   0  0  0  0  0  0  0  0  0  0  0  0
   -0.6958   63.8706   69.8225 H   0  0  0  0  0  0  0  0  0  0  0  0
    1.8549   64.8737   71.0003 H   0  0  0  0  0  0  0  0  0  0  0  0
    0.3642   65.7473   70.4474 H   0  0  0  0  0  0  0  0  0  0  0  0
    0.6274   65.9435   72.8710 H   0  0  0  0  0  0  0  0  0  0  0  0
   -0.8283   64.9549   72.4447 H   0  0  0  0  0  0  0  0  0  0  0  0
    1.8374   64.0643   73.5745 H   0  0  0  0  0  0  0  0  0  0  0  0
    0.0359   64.6729   75.1302 H   0  0  0  0  0  0  0  0  0  0  0  0
   -1.0416   63.4430   74.3087 H   0  0  0  0  0  0  0  0  0  0  0  0
    1.2154   63.0073   76.2645 H   0  0  0  0  0  0  0  0  0  0  0  0
   -1.9038   62.2704   74.7024 H   0  0  0  0  0  0  0  0  0  0  0  0
   -3.0494   60.1965   77.9760 H   0  0  0  0  0  0  0  0  0  0  0  0
   -3.8843   59.5065   76.5430 H   0  0  0  0  0  0  0  0  0  0  0  0
   -2.0965   59.6816   76.5430 H   0  0  0  0  0  0  0  0  0  0  0  0
   -5.2371   61.4342   75.5933 H   0  0  0  0  0  0  0  0  0  0  0  0
   -4.1473   62.3896   74.5322 H   0  0  0  0  0  0  0  0  0  0  0  0
   -4.0549   60.5957   74.5322 H   0  0  0  0  0  0  0  0  0  0  0  0
   -3.4661   62.1160   78.3503 H   0  0  0  0  0  0  0  0  0  0  0  0
   -3.1420   63.4859   77.2346 H   0  0  0  0  0  0  0  0  0  0  0  0
   -4.7519   62.6891   77.2346 H   0  0  0  0  0  0  0  0  0  0  0  0
  2  1  1  0
  3  1  1  0
  4  3  1  0
  5  4  1  0
  6  5  2  0
  7  5  1  0
  8  7  2  0
  9  8  1  0
 10  9  2  0
 11 10  1  0
 12  7  1  0
 12 11  2  0
 13 12  1  0
 14 11  1  0
 15  3  1  0
 16 15  1  0
 17 16  1  0
 18 17  2  0
 19 18  1  0
 20 19  2  0
 21 20  1  0
 22 21  2  0
 22 17  1  0
 23  1  1  0
 24 23  1  0
 25 24  1  0
 26 25  1  0
 27 26  1  0
 28 27  1  0
 29 28  1  0
 30 29  1  0
 31 30  1  0
 31 26  1  0
 32 31  1  0
 33 24  1  0
 33 32  1  0
 34 33  1  0
 35 34  2  0
 36 34  1  0
 37 36  1  0
 38 37  1  0
 39 37  1  0
 40 37  1  0
  1 41  1  6
  2 42  1  0
  3 43  1  1
  4 44  1  0
  8 45  1  0
  9 46  1  0
 10 47  1  0
 13 48  1  0
 13 49  1  0
 13 50  1  0
 14 51  1  0
 15 52  1  0
 15 53  1  0
 18 54  1  0
 19 55  1  0
 20 56  1  0
 21 57  1  0
 22 58  1  0
 23 59  1  0
 23 60  1  0
 24 61  1  6
 25 62  1  0
 25 63  1  0
 26 64  1  6
 27 65  1  0
 27 66  1  0
 28 67  1  0
 28 68  1  0
 29 69  1  0
 29 70  1  0
 30 71  1  0
 30 72  1  0
 31 73  1  1
 32 74  1  0
 32 75  1  0
 33 76  1  1
 36 77  1  0
 38 78  1  0
 38 79  1  0
 38 80  1  0
 39 81  1  0
 39 82  1  0
 39 83  1  0
 40 84  1  0
 40 85  1  0
 40 86  1  0
M  CHG  1  24   1
M  END
>  <score>  (7) 
-9.066

$$$$
=
     RDKit          3D

 86 89  0  0  0  0  0  0  0  0999 V2000
    3.2030   59.8040   75.4820 C   0  0  1  0  0  0  0  0  0  0  0  0
    3.6580   59.5710   76.8340 O   0  0  0  0  0  0  0  0  0  0  0  0
    3.7370   58.7380   74.4800 C   0  0  1  0  0  0  0  0  0  0  0  0
    3.0070   57.4560   74.4880 N   0  0  0  0  0  0  0  0  0  0  0  0
    2.0550   57.1040   73.5560 C   0  0  0  0  0  0  0  0  0  0  0  0
    1.9470   57.6660   72.4720 O   0  0  0  0  0  0  0  0  0  0  0  0
    1.1770   55.9660   73.9290 C   0  0  0  0  0  0  0  0  0  0  0  0
    1.7320   54.6740   73.9030 C   0  0  0  0  0  0  0  0  0  0  0  0
    0.9410   53.5690   74.2060 C   0  0  0  0  0  0  0  0  0  0  0  0
   -0.4030   53.7500   74.5120 C   0  0  0  0  0  0  0  0  0  0  0  0
   -0.9570   55.0320   74.5230 C   0  0  0  0  0  0  0  0  0  0  0  0
   -0.1790   56.1700   74.2650 C   0  0  0  0  0  0  0  0  0  0  0  0
   -0.7700   57.5520   74.3280 C   0  0  0  0  0  0  0  0  0  0  0  0
   -2.2920   55.0850   74.8060 O   0  0  0  0  0  0  0  0  0  0  0  0
    3.7470   59.3340   73.0530 C   0  0  0  0  0  0  0  0  0  0  0  0
    4.7960   60.8310   72.8930 S   0  0  0  0  0  0  0  0  0  0  0  0
    4.2310   61.4570   71.3220 C   0  0  0  0  0  0  0  0  0  0  0  0
    4.5530   62.7490   70.8930 C   0  0  0  0  0  0  0  0  0  0  0  0
    4.1080   63.2080   69.6510 C   0  0  0  0  0  0  0  0  0  0  0  0
    3.3330   62.3830   68.8380 C   0  0  0  0  0  0  0  0  0  0  0  0
    2.9940   61.1020   69.2680 C   0  0  0  0  0  0  0  0  0  0  0  0
    3.4370   60.6410   70.5090 C   0  0  0  0  0  0  0  0  0  0  0  0
    1.6670   59.9300   75.5330 C   0  0  0  0  0  0  0  0  0  0  0  0
    1.2950   61.2350   74.8220 N   0  0  1  0  0  4  0  0  0  0  0  0
    0.7590   61.0460   73.4400 C   0  0  0  0  0  0  0  0  0  0  0  0
    0.9520   62.3550   72.6690 C   0  0  1  0  0  0  0  0  0  0  0  0
    0.0790   62.3740   71.4110 C   0  0  0  0  0  0  0  0  0  0  0  0
    0.3410   63.6070   70.5450 C   0  0  0  0  0  0  0  0  0  0  0  0
    0.7080   64.8550   71.3490 C   0  0  0  0  0  0  0  0  0  0  0  0
    0.1510   64.7990   72.7650 C   0  0  0  0  0  0  0  0  0  0  0  0
    0.7370   63.6140   73.5520 C   0  0  1  0  0  0  0  0  0  0  0  0
   -0.1190   63.3140   74.7890 C   0  0  0  0  0  0  0  0  0  0  0  0
    0.4300   62.1770   75.6670 C   0  0  1  0  0  0  0  0  0  0  0  0
   -0.7470   61.4720   76.3880 C   0  0  0  0  0  0  0  0  0  0  0  0
   -0.7140   61.2570   77.5980 O   0  0  0  0  0  0  0  0  0  0  0  0
   -1.8050   61.1330   75.5710 N   0  0  0  0  0  0  0  0  0  0  0  0
   -3.0480   60.4810   76.0320 C   0  0  0  0  0  0  0  0  0  0  0  0
   -3.9030   60.0250   74.8390 C   0  0  0  0  0  0  0  0  0  0  0  0
   -3.8560   61.5130   76.8390 C   0  0  0  0  0  0  0  0  0  0  0  0
   -2.7310   59.2890   76.9470 C   0  0  0  0  0  0  0  0  0  0  0  0
    3.6182   60.7413   75.0832 H   0  0  0  0  0  0  0  0  0  0  0  0
    2.9848   59.9157   77.4728 H   0  0  0  0  0  0  0  0  0  0  0  0
    4.7553   58.4919   74.8156 H   0  0  0  0  0  0  0  0  0  0  0  0
    3.2223   56.7822   75.2367 H   0  0  0  0  0  0  0  0  0  0  0  0
    2.7919   54.5364   73.6431 H   0  0  0  0  0  0  0  0  0  0  0  0
    1.3768   52.5590   74.2033 H   0  0  0  0  0  0  0  0  0  0  0  0
   -1.0331   52.8794   74.7466 H   0  0  0  0  0  0  0  0  0  0  0  0
   -0.8970   57.8489   75.3795 H   0  0  0  0  0  0  0  0  0  0  0  0
   -0.0968   58.2620   73.8253 H   0  0  0  0  0  0  0  0  0  0  0  0
   -1.7484   57.5557   73.8253 H   0  0  0  0  0  0  0  0  0  0  0  0
   -2.7581   55.9580   74.8326 H   0  0  0  0  0  0  0  0  0  0  0  0
    4.1240   58.5687   72.3586 H   0  0  0  0  0  0  0  0  0  0  0  0
    2.7149   59.6355   72.8208 H   0  0  0  0  0  0  0  0  0  0  0  0
    5.1583   63.4053   71.5355 H   0  0  0  0  0  0  0  0  0  0  0  0
    4.3696   64.2220   69.3142 H   0  0  0  0  0  0  0  0  0  0  0  0
    2.9891   62.7431   67.8572 H   0  0  0  0  0  0  0  0  0  0  0  0
    2.3768   60.4532   68.6291 H   0  0  0  0  0  0  0  0  0  0  0  0
    3.1606   59.6320   70.8490 H   0  0  0  0  0  0  0  0  0  0  0  0
    1.2016   59.0755   75.0199 H   0  0  0  0  0  0  0  0  0  0  0  0
    1.3104   59.9372   76.5736 H   0  0  0  0  0  0  0  0  0  0  0  0
    2.1971   61.7175   74.7019 H   0  0  0  0  0  0  0  0  0  0  0  0
    1.3041   60.2337   72.9370 H   0  0  0  0  0  0  0  0  0  0  0  0
   -0.3081   60.7817   73.4791 H   0  0  0  0  0  0  0  0  0  0  0  0
    2.0048   62.3948   72.3528 H   0  0  0  0  0  0  0  0  0  0  0  0
    0.2926   61.4726   70.8179 H   0  0  0  0  0  0  0  0  0  0  0  0
   -0.9732   62.4029   71.7304 H   0  0  0  0  0  0  0  0  0  0  0  0
    1.1699   63.3797   69.8586 H   0  0  0  0  0  0  0  0  0  0  0  0
   -0.5950   63.8310   70.0123 H   0  0  0  0  0  0  0  0  0  0  0  0
    1.8038   64.9361   71.4003 H   0  0  0  0  0  0  0  0  0  0  0  0
    0.2703   65.7285   70.8436 H   0  0  0  0  0  0  0  0  0  0  0  0
    0.4031   65.7344   73.2860 H   0  0  0  0  0  0  0  0  0  0  0  0
   -0.9395   64.6684   72.7033 H   0  0  0  0  0  0  0  0  0  0  0  0
    1.7395   63.9098   73.8949 H   0  0  0  0  0  0  0  0  0  0  0  0
   -0.1759   64.2268   75.4003 H   0  0  0  0  0  0  0  0  0  0  0  0
   -1.1039   62.9877   74.4237 H   0  0  0  0  0  0  0  0  0  0  0  0
    1.0905   62.5719   76.4530 H   0  0  0  0  0  0  0  0  0  0  0  0
   -1.7227   61.3499   74.5675 H   0  0  0  0  0  0  0  0  0  0  0  0
   -4.8173   59.5374   75.2082 H   0  0  0  0  0  0  0  0  0  0  0  0
   -4.1745   60.8981   74.2275 H   0  0  0  0  0  0  0  0  0  0  0  0
   -3.3292   59.3131   74.2275 H   0  0  0  0  0  0  0  0  0  0  0  0
   -3.7133   61.3307   77.9144 H   0  0  0  0  0  0  0  0  0  0  0  0
   -3.5089   62.5266   76.5897 H   0  0  0  0  0  0  0  0  0  0  0  0
   -4.9233   61.4192   76.5897 H   0  0  0  0  0  0  0  0  0  0  0  0
   -2.8141   59.6015   77.9984 H   0  0  0  0  0  0  0  0  0  0  0  0
   -3.4439   58.4750   76.7490 H   0  0  0  0  0  0  0  0  0  0  0  0
   -1.7079   58.9367   76.7490 H   0  0  0  0  0  0  0  0  0  0  0  0
  2  1  1  0
  3  1  1  0
  4  3  1  0
  5  4  1  0
  6  5  2  0
  7  5  1  0
  8  7  2  0
  9  8  1  0
 10  9  2  0
 11 10  1  0
 12  7  1  0
 12 11  2  0
 13 12  1  0
 14 11  1  0
 15  3  1  0
 16 15  1  0
 17 16  1  0
 18 17  2  0
 19 18  1  0
 20 19  2  0
 21 20  1  0
 22 21  2  0
 22 17  1  0
 23  1  1  0
 24 23  1  0
 25 24  1  0
 26 25  1  0
 27 26  1  0
 28 27  1  0
 29 28  1  0
 30 29  1  0
 31 30  1  0
 31 26  1  0
 32 31  1  0
 33 24  1  0
 33 32  1  0
 34 33  1  0
 35 34  2  0
 36 34  1  0
 37 36  1  0
 38 37  1  0
 39 37  1  0
 40 37  1  0
  1 41  1  6
  2 42  1  0
  3 43  1  1
  4 44  1  0
  8 45  1  0
  9 46  1  0
 10 47  1  0
 13 48  1  0
 13 49  1  0
 13 50  1  0
 14 51  1  0
 15 52  1  0
 15 53  1  0
 18 54  1  0
 19 55  1  0
 20 56  1  0
 21 57  1  0
 22 58  1  0
 23 59  1  0
 23 60  1  0
 24 61  1  6
 25 62  1  0
 25 63  1  0
 26 64  1  6
 27 65  1  0
 27 66  1  0
 28 67  1  0
 28 68  1  0
 29 69  1  0
 29 70  1  0
 30 71  1  0
 30 72  1  0
 31 73  1  1
 32 74  1  0
 32 75  1  0
 33 76  1  1
 36 77  1  0
 38 78  1  0
 38 79  1  0
 38 80  1  0
 39 81  1  0
 39 82  1  0
 39 83  1  0
 40 84  1  0
 40 85  1  0
 40 86  1  0
M  CHG  1  24   1
M  END
>  <score>  (8) 
-9.044

$$$$
=
     RDKit          3D

 86 89  0  0  0  0  0  0  0  0999 V2000
    0.0720   60.8870   75.6020 C   0  0  1  0  0  0  0  0  0  0  0  0
   -1.0380   60.4480   76.4190 O   0  0  0  0  0  0  0  0  0  0  0  0
    0.6280   62.2720   76.0440 C   0  0  1  0  0  0  0  0  0  0  0  0
    1.8000   62.2170   76.9380 N   0  0  0  0  0  0  0  0  0  0  0  0
    1.7200   62.0800   78.3070 C   0  0  0  0  0  0  0  0  0  0  0  0
    0.7120   61.6790   78.8770 O   0  0  0  0  0  0  0  0  0  0  0  0
    2.9550   62.4150   79.0620 C   0  0  0  0  0  0  0  0  0  0  0  0
    3.1160   63.7430   79.4990 C   0  0  0  0  0  0  0  0  0  0  0  0
    4.2720   64.1180   80.1770 C   0  0  0  0  0  0  0  0  0  0  0  0
    5.2730   63.1790   80.3990 C   0  0  0  0  0  0  0  0  0  0  0  0
    5.1180   61.8650   79.9530 C   0  0  0  0  0  0  0  0  0  0  0  0
    3.9490   61.4430   79.3040 C   0  0  0  0  0  0  0  0  0  0  0  0
    3.7670   60.0140   78.8710 C   0  0  0  0  0  0  0  0  0  0  0  0
    6.1790   61.0400   80.1980 O   0  0  0  0  0  0  0  0  0  0  0  0
    0.9560   63.1170   74.7910 C   0  0  0  0  0  0  0  0  0  0  0  0
   -0.0450   62.6650   73.3210 S   0  0  0  0  0  0  0  0  0  0  0  0
    0.7060   63.7070   72.0840 C   0  0  0  0  0  0  0  0  0  0  0  0
    0.0490   64.8370   71.5850 C   0  0  0  0  0  0  0  0  0  0  0  0
    0.6650   65.6430   70.6260 C   0  0  0  0  0  0  0  0  0  0  0  0
    1.9370   65.3180   70.1540 C   0  0  0  0  0  0  0  0  0  0  0  0
    2.5890   64.1840   70.6340 C   0  0  0  0  0  0  0  0  0  0  0  0
    1.9730   63.3770   71.5920 C   0  0  0  0  0  0  0  0  0  0  0  0
    1.1110   59.7470   75.5950 C   0  0  0  0  0  0  0  0  0  0  0  0
    1.7320   59.7090   74.1950 N   0  0  1  0  0  4  0  0  0  0  0  0
    3.1670   60.1230   74.1530 C   0  0  0  0  0  0  0  0  0  0  0  0
    3.4940   60.5700   72.7250 C   0  0  1  0  0  0  0  0  0  0  0  0
    5.0100   60.6160   72.5080 C   0  0  0  0  0  0  0  0  0  0  0  0
    5.3790   61.1830   71.1370 C   0  0  0  0  0  0  0  0  0  0  0  0
    4.3690   60.8440   70.0400 C   0  0  0  0  0  0  0  0  0  0  0  0
    3.5980   59.5700   70.3560 C   0  0  0  0  0  0  0  0  0  0  0  0
    2.7720   59.7200   71.6450 C   0  0  1  0  0  0  0  0  0  0  0  0
    2.3530   58.3430   72.1770 C   0  0  0  0  0  0  0  0  0  0  0  0
    1.4720   58.4030   73.4360 C   0  0  1  0  0  0  0  0  0  0  0  0
    1.7030   57.1260   74.2850 C   0  0  0  0  0  0  0  0  0  0  0  0
    2.7280   56.9790   74.9470 O   0  0  0  0  0  0  0  0  0  0  0  0
    0.6760   56.2060   74.2350 N   0  0  0  0  0  0  0  0  0  0  0  0
    0.6540   54.9310   74.9800 C   0  0  0  0  0  0  0  0  0  0  0  0
   -0.6600   54.1740   74.7320 C   0  0  0  0  0  0  0  0  0  0  0  0
    0.7490   55.2540   76.4820 C   0  0  0  0  0  0  0  0  0  0  0  0
    1.8550   54.0540   74.5950 C   0  0  0  0  0  0  0  0  0  0  0  0
   -0.2509   61.0742   74.5673 H   0  0  0  0  0  0  0  0  0  0  0  0
   -0.8010   60.5417   77.3756 H   0  0  0  0  0  0  0  0  0  0  0  0
   -0.1682   62.7388   76.6425 H   0  0  0  0  0  0  0  0  0  0  0  0
    2.7357   62.2852   76.5130 H   0  0  0  0  0  0  0  0  0  0  0  0
    2.3276   64.4851   79.3045 H   0  0  0  0  0  0  0  0  0  0  0  0
    4.3930   65.1510   80.5351 H   0  0  0  0  0  0  0  0  0  0  0  0
    6.1914   63.4726   80.9285 H   0  0  0  0  0  0  0  0  0  0  0  0
    3.6849   59.3695   79.7586 H   0  0  0  0  0  0  0  0  0  0  0  0
    2.8505   59.9272   78.2689 H   0  0  0  0  0  0  0  0  0  0  0  0
    4.6324   59.7003   78.2689 H   0  0  0  0  0  0  0  0  0  0  0  0
    6.1458   60.0928   79.9121 H   0  0  0  0  0  0  0  0  0  0  0  0
    0.7706   64.1754   75.0265 H   0  0  0  0  0  0  0  0  0  0  0  0
    2.0089   62.9244   74.5373 H   0  0  0  0  0  0  0  0  0  0  0  0
   -0.9571   65.0914   71.9499 H   0  0  0  0  0  0  0  0  0  0  0  0
    0.1474   66.5346   70.2424 H   0  0  0  0  0  0  0  0  0  0  0  0
    2.4250   65.9568   69.4032 H   0  0  0  0  0  0  0  0  0  0  0  0
    3.5896   63.9246   70.2578 H   0  0  0  0  0  0  0  0  0  0  0  0
    2.4865   62.4772   71.9618 H   0  0  0  0  0  0  0  0  0  0  0  0
    1.8894   59.9418   76.3474 H   0  0  0  0  0  0  0  0  0  0  0  0
    0.6367   58.7848   75.8382 H   0  0  0  0  0  0  0  0  0  0  0  0
    1.2211   60.4383   73.6773 H   0  0  0  0  0  0  0  0  0  0  0  0
    3.3350   60.9559   74.8517 H   0  0  0  0  0  0  0  0  0  0  0  0
    3.8138   59.2828   74.4459 H   0  0  0  0  0  0  0  0  0  0  0  0
    3.1019   61.5907   72.6051 H   0  0  0  0  0  0  0  0  0  0  0  0
    5.4604   61.2493   73.2864 H   0  0  0  0  0  0  0  0  0  0  0  0
    5.3907   59.5854   72.5614 H   0  0  0  0  0  0  0  0  0  0  0  0
    5.4467   62.2777   71.2206 H   0  0  0  0  0  0  0  0  0  0  0  0
    6.3357   60.7246   70.8462 H   0  0  0  0  0  0  0  0  0  0  0  0
    3.6566   61.6764   69.9422 H   0  0  0  0  0  0  0  0  0  0  0  0
    4.9224   60.6853   69.1027 H   0  0  0  0  0  0  0  0  0  0  0  0
    2.9193   59.3455   69.5199 H   0  0  0  0  0  0  0  0  0  0  0  0
    4.3214   58.7541   70.5009 H   0  0  0  0  0  0  0  0  0  0  0  0
    1.8601   60.2796   71.3893 H   0  0  0  0  0  0  0  0  0  0  0  0
    1.7926   57.8222   71.3866 H   0  0  0  0  0  0  0  0  0  0  0  0
    3.2761   57.8150   72.4582 H   0  0  0  0  0  0  0  0  0  0  0  0
    0.4052   58.4155   73.1680 H   0  0  0  0  0  0  0  0  0  0  0  0
   -0.1328   56.4239   73.6355 H   0  0  0  0  0  0  0  0  0  0  0  0
   -1.1186   53.9098   75.6963 H   0  0  0  0  0  0  0  0  0  0  0  0
   -1.3494   54.8134   74.1611 H   0  0  0  0  0  0  0  0  0  0  0  0
   -0.4527   53.2569   74.1611 H   0  0  0  0  0  0  0  0  0  0  0  0
    0.4861   54.3601   77.0666 H   0  0  0  0  0  0  0  0  0  0  0  0
    1.7761   55.5629   76.7264 H   0  0  0  0  0  0  0  0  0  0  0  0
    0.0528   56.0698   76.7264 H   0  0  0  0  0  0  0  0  0  0  0  0
    2.3516   53.6914   75.5071 H   0  0  0  0  0  0  0  0  0  0  0  0
    1.5071   53.1960   74.0011 H   0  0  0  0  0  0  0  0  0  0  0  0
    2.5664   54.6467   74.0011 H   0  0  0  0  0  0  0  0  0  0  0  0
  2  1  1  0
  3  1  1  0
  4  3  1  0
  5  4  1  0
  6  5  2  0
  7  5  1  0
  8  7  2  0
  9  8  1  0
 10  9  2  0
 11 10  1  0
 12  7  1  0
 12 11  2  0
 13 12  1  0
 14 11  1  0
 15  3  1  0
 16 15  1  0
 17 16  1  0
 18 17  2  0
 19 18  1  0
 20 19  2  0
 21 20  1  0
 22 21  2  0
 22 17  1  0
 23  1  1  0
 24 23  1  0
 25 24  1  0
 26 25  1  0
 27 26  1  0
 28 27  1  0
 29 28  1  0
 30 29  1  0
 31 30  1  0
 31 26  1  0
 32 31  1  0
 33 24  1  0
 33 32  1  0
 34 33  1  0
 35 34  2  0
 36 34  1  0
 37 36  1  0
 38 37  1  0
 39 37  1  0
 40 37  1  0
  1 41  1  6
  2 42  1  0
  3 43  1  1
  4 44  1  0
  8 45  1  0
  9 46  1  0
 10 47  1  0
 13 48  1  0
 13 49  1  0
 13 50  1  0
 14 51  1  0
 15 52  1  0
 15 53  1  0
 18 54  1  0
 19 55  1  0
 20 56  1  0
 21 57  1  0
 22 58  1  0
 23 59  1  0
 23 60  1  0
 24 61  1  6
 25 62  1  0
 25 63  1  0
 26 64  1  1
 27 65  1  0
 27 66  1  0
 28 67  1  0
 28 68  1  0
 29 69  1  0
 29 70  1  0
 30 71  1  0
 30 72  1  0
 31 73  1  6
 32 74  1  0
 32 75  1  0
 33 76  1  6
 36 77  1  0
 38 78  1  0
 38 79  1  0
 38 80  1  0
 39 81  1  0
 39 82  1  0
 39 83  1  0
 40 84  1  0
 40 85  1  0
 40 86  1  0
M  CHG  1  24   1
M  END
>  <score>  (9) 
-8.936

$$$$
