=
     RDKit          3D

 32 34  0  0  0  0  0  0  0  0999 V2000
    2.7660   68.5020   66.2430 N   0  0  2  0  0  4  0  0  0  0  0  0
    1.9860   69.3820   67.2110 C   0  0  0  0  0  0  0  0  0  0  0  0
    2.8490   69.7210   68.4390 C   0  0  0  0  0  0  0  0  0  0  0  0
    4.2220   70.1260   68.0010 C   0  0  0  0  0  0  0  0  0  0  0  0
    4.7700   69.8640   66.7580 C   0  0  0  0  0  0  0  0  0  0  0  0
    4.0130   69.1570   65.6820 C   0  0  0  0  0  0  0  0  0  0  0  0
    6.1040   70.3680   66.6700 C   0  0  0  0  0  0  0  0  0  0  0  0
    6.5080   70.9800   67.8380 C   0  0  0  0  0  0  0  0  0  0  0  0
    5.2890   70.9470   69.0370 S   0  0  0  0  0  0  0  0  0  0  0  0
    1.9360   67.7480   65.2340 C   0  0  0  0  0  0  0  0  0  0  0  0
   -0.9010   68.8390   65.1810 Cl  0  0  0  0  0  0  0  0  0  0  0  0
    0.1920   68.9030   63.8390 C   0  0  0  0  0  0  0  0  0  0  0  0
   -0.2820   69.4880   62.6620 C   0  0  0  0  0  0  0  0  0  0  0  0
    0.5360   69.5550   61.5410 C   0  0  0  0  0  0  0  0  0  0  0  0
    1.8220   69.0320   61.5980 C   0  0  0  0  0  0  0  0  0  0  0  0
    2.2990   68.4450   62.7760 C   0  0  0  0  0  0  0  0  0  0  0  0
    1.5020   68.3770   63.9310 C   0  0  0  0  0  0  0  0  0  0  0  0
    3.1225   67.7441   66.8425 H   0  0  0  0  0  0  0  0  0  0  0  0
    1.6971   70.3135   66.7023 H   0  0  0  0  0  0  0  0  0  0  0  0
    1.0884   68.8399   67.5433 H   0  0  0  0  0  0  0  0  0  0  0  0
    2.3841   70.5492   68.9940 H   0  0  0  0  0  0  0  0  0  0  0  0
    2.9222   68.8344   69.0860 H   0  0  0  0  0  0  0  0  0  0  0  0
    3.7222   69.8833   64.9087 H   0  0  0  0  0  0  0  0  0  0  0  0
    4.6579   68.3769   65.2512 H   0  0  0  0  0  0  0  0  0  0  0  0
    6.7359   70.2783   65.7741 H   0  0  0  0  0  0  0  0  0  0  0  0
    7.4986   71.4361   67.9816 H   0  0  0  0  0  0  0  0  0  0  0  0
    2.5143   66.8513   64.9666 H   0  0  0  0  0  0  0  0  0  0  0  0
    0.9797   67.6255   65.7636 H   0  0  0  0  0  0  0  0  0  0  0  0
   -1.3030   69.8956   62.6229 H   0  0  0  0  0  0  0  0  0  0  0  0
    0.1679   70.0192   60.6142 H   0  0  0  0  0  0  0  0  0  0  0  0
    2.4703   69.0796   60.7106 H   0  0  0  0  0  0  0  0  0  0  0  0
    3.3171   68.0291   62.7977 H   0  0  0  0  0  0  0  0  0  0  0  0
  2  1  1  0
  3  2  1  0
  4  3  1  0
  5  4  2  0
  6  5  1  0
  6  1  1  0
  7  5  1  0
  8  7  2  0
  9  4  1  0
  9  8  1  0
 10  1  1  0
 12 11  1  0
 13 12  2  0
 14 13  1  0
 15 14  2  0
 16 15  1  0
 17 16  2  0
 17 12  1  0
 17 10  1  0
  1 18  1  1
  2 19  1  0
  2 20  1  0
  3 21  1  0
  3 22  1  0
  6 23  1  0
  6 24  1  0
  7 25  1  0
  8 26  1  0
 10 27  1  0
 10 28  1  0
 13 29  1  0
 14 30  1  0
 15 31  1  0
 16 32  1  0
M  CHG  1   1   1
M  END
>  <score>  (1) 
-8.748

$$$$
=
     RDKit          3D

 32 34  0  0  0  0  0  0  0  0999 V2000
    2.9380   68.3830   65.9890 N   0  0  2  0  0  4  0  0  0  0  0  0
    1.9560   69.1690   66.8470 C   0  0  0  0  0  0  0  0  0  0  0  0
    2.5900   69.5110   68.2070 C   0  0  0  0  0  0  0  0  0  0  0  0
    3.9830   70.0230   68.0060 C   0  0  0  0  0  0  0  0  0  0  0  0
    4.7350   69.8500   66.8580 C   0  0  0  0  0  0  0  0  0  0  0  0
    4.2080   69.1410   65.6530 C   0  0  0  0  0  0  0  0  0  0  0  0
    6.0280   70.4420   66.9990 C   0  0  0  0  0  0  0  0  0  0  0  0
    6.2000   71.0300   68.2350 C   0  0  0  0  0  0  0  0  0  0  0  0
    4.8140   70.8680   69.2230 S   0  0  0  0  0  0  0  0  0  0  0  0
    2.3320   67.6190   64.8380 C   0  0  0  0  0  0  0  0  0  0  0  0
    3.9690   67.9270   62.2940 Cl  0  0  0  0  0  0  0  0  0  0  0  0
    2.3450   68.4990   62.4820 C   0  0  0  0  0  0  0  0  0  0  0  0
    1.7710   69.1500   61.3870 C   0  0  0  0  0  0  0  0  0  0  0  0
    0.4780   69.6510   61.4760 C   0  0  0  0  0  0  0  0  0  0  0  0
   -0.2350   69.5050   62.6590 C   0  0  0  0  0  0  0  0  0  0  0  0
    0.3390   68.8530   63.7580 C   0  0  0  0  0  0  0  0  0  0  0  0
    1.6370   68.3220   63.6940 C   0  0  0  0  0  0  0  0  0  0  0  0
    3.2490   67.6260   66.6144 H   0  0  0  0  0  0  0  0  0  0  0  0
    1.6856   70.1005   66.3282 H   0  0  0  0  0  0  0  0  0  0  0  0
    1.0577   68.5567   67.0148 H   0  0  0  0  0  0  0  0  0  0  0  0
    1.9864   70.2828   68.7070 H   0  0  0  0  0  0  0  0  0  0  0  0
    2.6238   68.6043   68.8289 H   0  0  0  0  0  0  0  0  0  0  0  0
    3.9908   69.8786   64.8664 H   0  0  0  0  0  0  0  0  0  0  0  0
    4.9661   68.4238   65.3052 H   0  0  0  0  0  0  0  0  0  0  0  0
    6.7972   70.4302   66.2128 H   0  0  0  0  0  0  0  0  0  0  0  0
    7.1212   71.5431   68.5483 H   0  0  0  0  0  0  0  0  0  0  0  0
    3.1494   67.0345   64.3906 H   0  0  0  0  0  0  0  0  0  0  0  0
    1.5014   67.0856   65.3234 H   0  0  0  0  0  0  0  0  0  0  0  0
    2.3427   69.2659   60.4544 H   0  0  0  0  0  0  0  0  0  0  0  0
    0.0217   70.1604   60.6144 H   0  0  0  0  0  0  0  0  0  0  0  0
   -1.2574   69.9041   62.7334 H   0  0  0  0  0  0  0  0  0  0  0  0
   -0.2385   68.7552   64.6891 H   0  0  0  0  0  0  0  0  0  0  0  0
  2  1  1  0
  3  2  1  0
  4  3  1  0
  5  4  2  0
  6  5  1  0
  6  1  1  0
  7  5  1  0
  8  7  2  0
  9  4  1  0
  9  8  1  0
 10  1  1  0
 12 11  1  0
 13 12  2  0
 14 13  1  0
 15 14  2  0
 16 15  1  0
 17 16  2  0
 17 12  1  0
 17 10  1  0
  1 18  1  1
  2 19  1  0
  2 20  1  0
  3 21  1  0
  3 22  1  0
  6 23  1  0
  6 24  1  0
  7 25  1  0
  8 26  1  0
 10 27  1  0
 10 28  1  0
 13 29  1  0
 14 30  1  0
 15 31  1  0
 16 32  1  0
M  CHG  1   1   1
M  END
>  <score>  (2) 
-8.62

$$$$
=
     RDKit          3D

 32 34  0  0  0  0  0  0  0  0999 V2000
    2.4430   68.3010   66.8350 N   0  0  2  0  0  4  0  0  0  0  0  0
    1.9040   69.3520   67.7970 C   0  0  0  0  0  0  0  0  0  0  0  0
    3.0330   69.8750   68.7030 C   0  0  0  0  0  0  0  0  0  0  0  0
    4.2520   70.1660   67.8840 C   0  0  0  0  0  0  0  0  0  0  0  0
    4.4870   69.6820   66.6090 C   0  0  0  0  0  0  0  0  0  0  0  0
    3.5050   68.8200   65.8850 C   0  0  0  0  0  0  0  0  0  0  0  0
    5.7510   70.1310   66.1160 C   0  0  0  0  0  0  0  0  0  0  0  0
    6.4140   70.9240   67.0300 C   0  0  0  0  0  0  0  0  0  0  0  0
    5.5220   71.1260   68.4740 S   0  0  0  0  0  0  0  0  0  0  0  0
    1.4070   67.4050   66.2010 C   0  0  0  0  0  0  0  0  0  0  0  0
    0.1760   69.2580   64.1290 Cl  0  0  0  0  0  0  0  0  0  0  0  0
   -0.7070   68.5220   65.4240 C   0  0  0  0  0  0  0  0  0  0  0  0
   -2.0700   68.8190   65.5130 C   0  0  0  0  0  0  0  0  0  0  0  0
   -2.8340   68.2790   66.5390 C   0  0  0  0  0  0  0  0  0  0  0  0
   -2.2340   67.4480   67.4770 C   0  0  0  0  0  0  0  0  0  0  0  0
   -0.8690   67.1490   67.3910 C   0  0  0  0  0  0  0  0  0  0  0  0
   -0.0730   67.6670   66.3560 C   0  0  0  0  0  0  0  0  0  0  0  0
    2.9483   67.6491   67.4519 H   0  0  0  0  0  0  0  0  0  0  0  0
    1.4833   70.1895   67.2211 H   0  0  0  0  0  0  0  0  0  0  0  0
    1.1234   68.8966   68.4242 H   0  0  0  0  0  0  0  0  0  0  0  0
    2.7014   70.7968   69.2033 H   0  0  0  0  0  0  0  0  0  0  0  0
    3.2768   69.1101   69.4550 H   0  0  0  0  0  0  0  0  0  0  0  0
    3.0225   69.4103   65.0920 H   0  0  0  0  0  0  0  0  0  0  0  0
    4.0403   67.9625   65.4512 H   0  0  0  0  0  0  0  0  0  0  0  0
    6.1491   69.8742   65.1232 H   0  0  0  0  0  0  0  0  0  0  0  0
    7.4016   71.3738   66.8503 H   0  0  0  0  0  0  0  0  0  0  0  0
    1.6108   67.4135   65.1201 H   0  0  0  0  0  0  0  0  0  0  0  0
    1.5376   66.4659   66.7586 H   0  0  0  0  0  0  0  0  0  0  0  0
   -2.5378   69.4811   64.7695 H   0  0  0  0  0  0  0  0  0  0  0  0
   -3.9077   68.5077   66.6088 H   0  0  0  0  0  0  0  0  0  0  0  0
   -2.8359   67.0219   68.2932 H   0  0  0  0  0  0  0  0  0  0  0  0
   -0.4111   66.4959   68.1485 H   0  0  0  0  0  0  0  0  0  0  0  0
  2  1  1  0
  3  2  1  0
  4  3  1  0
  5  4  2  0
  6  5  1  0
  6  1  1  0
  7  5  1  0
  8  7  2  0
  9  4  1  0
  9  8  1  0
 10  1  1  0
 12 11  1  0
 13 12  2  0
 14 13  1  0
 15 14  2  0
 16 15  1  0
 17 16  2  0
 17 12  1  0
 17 10  1  0
  1 18  1  1
  2 19  1  0
  2 20  1  0
  3 21  1  0
  3 22  1  0
  6 23  1  0
  6 24  1  0
  7 25  1  0
  8 26  1  0
 10 27  1  0
 10 28  1  0
 13 29  1  0
 14 30  1  0
 15 31  1  0
 16 32  1  0
M  CHG  1   1   1
M  END
>  <score>  (3) 
-8.551

$$$$
=
     RDKit          3D

 32 34  0  0  0  0  0  0  0  0999 V2000
    1.4220   69.1080   68.3010 N   0  0  2  0  0  4  0  0  0  0  0  0
    1.4780   67.5960   68.4720 C   0  0  0  0  0  0  0  0  0  0  0  0
    0.0670   67.0330   68.7160 C   0  0  0  0  0  0  0  0  0  0  0  0
   -0.8980   67.6400   67.7450 C   0  0  0  0  0  0  0  0  0  0  0  0
   -0.6750   68.7970   67.0200 C   0  0  0  0  0  0  0  0  0  0  0  0
    0.6040   69.5640   67.1080 C   0  0  0  0  0  0  0  0  0  0  0  0
   -1.8030   69.1140   66.2010 C   0  0  0  0  0  0  0  0  0  0  0  0
   -2.8230   68.1960   66.3430 C   0  0  0  0  0  0  0  0  0  0  0  0
   -2.4280   66.9600   67.4560 S   0  0  0  0  0  0  0  0  0  0  0  0
    2.7310   69.8340   68.4870 C   0  0  0  0  0  0  0  0  0  0  0  0
    5.4880   70.7120   69.4230 Cl  0  0  0  0  0  0  0  0  0  0  0  0
    5.1270   70.1890   67.8110 C   0  0  0  0  0  0  0  0  0  0  0  0
    6.1810   70.1870   66.8940 C   0  0  0  0  0  0  0  0  0  0  0  0
    5.9580   69.7980   65.5790 C   0  0  0  0  0  0  0  0  0  0  0  0
    4.6810   69.4170   65.1840 C   0  0  0  0  0  0  0  0  0  0  0  0
    3.6230   69.4190   66.1010 C   0  0  0  0  0  0  0  0  0  0  0  0
    3.8210   69.7920   67.4410 C   0  0  0  0  0  0  0  0  0  0  0  0
    0.8798   69.4212   69.1188 H   0  0  0  0  0  0  0  0  0  0  0  0
    1.8968   67.1432   67.5612 H   0  0  0  0  0  0  0  0  0  0  0  0
    2.1129   67.3574   69.3380 H   0  0  0  0  0  0  0  0  0  0  0  0
    0.0815   65.9413   68.5819 H   0  0  0  0  0  0  0  0  0  0  0  0
   -0.2484   67.2771   69.7411 H   0  0  0  0  0  0  0  0  0  0  0  0
    1.1857   69.4026   66.1885 H   0  0  0  0  0  0  0  0  0  0  0  0
    0.3683   70.6317   67.2283 H   0  0  0  0  0  0  0  0  0  0  0  0
   -1.8520   69.9882   65.5351 H   0  0  0  0  0  0  0  0  0  0  0  0
   -3.7795   68.2528   65.8027 H   0  0  0  0  0  0  0  0  0  0  0  0
    2.4783   70.8954   68.6271 H   0  0  0  0  0  0  0  0  0  0  0  0
    3.1874   69.2813   69.3214 H   0  0  0  0  0  0  0  0  0  0  0  0
    7.1880   70.4936   67.2133 H   0  0  0  0  0  0  0  0  0  0  0  0
    6.7864   69.7916   64.8554 H   0  0  0  0  0  0  0  0  0  0  0  0
    4.5002   69.1115   64.1428 H   0  0  0  0  0  0  0  0  0  0  0  0
    2.6179   69.1230   65.7660 H   0  0  0  0  0  0  0  0  0  0  0  0
  2  1  1  0
  3  2  1  0
  4  3  1  0
  5  4  2  0
  6  5  1  0
  6  1  1  0
  7  5  1  0
  8  7  2  0
  9  4  1  0
  9  8  1  0
 10  1  1  0
 12 11  1  0
 13 12  2  0
 14 13  1  0
 15 14  2  0
 16 15  1  0
 17 16  2  0
 17 12  1  0
 17 10  1  0
  1 18  1  1
  2 19  1  0
  2 20  1  0
  3 21  1  0
  3 22  1  0
  6 23  1  0
  6 24  1  0
  7 25  1  0
  8 26  1  0
 10 27  1  0
 10 28  1  0
 13 29  1  0
 14 30  1  0
 15 31  1  0
 16 32  1  0
M  CHG  1   1   1
M  END
>  <score>  (4) 
-8.489

$$$$
=
     RDKit          3D

 32 34  0  0  0  0  0  0  0  0999 V2000
    3.6980   68.9230   65.0970 N   0  0  2  0  0  4  0  0  0  0  0  0
    5.2130   68.7870   65.1740 C   0  0  0  0  0  0  0  0  0  0  0  0
    5.8140   69.9590   65.9710 C   0  0  0  0  0  0  0  0  0  0  0  0
    5.0190   70.1870   67.2190 C   0  0  0  0  0  0  0  0  0  0  0  0
    3.7380   69.7170   67.4420 C   0  0  0  0  0  0  0  0  0  0  0  0
    3.0050   68.8810   66.4450 C   0  0  0  0  0  0  0  0  0  0  0  0
    3.2580   70.1280   68.7250 C   0  0  0  0  0  0  0  0  0  0  0  0
    4.1850   70.8870   69.4090 C   0  0  0  0  0  0  0  0  0  0  0  0
    5.6250   71.1060   68.5130 S   0  0  0  0  0  0  0  0  0  0  0  0
    3.0260   68.1170   64.0120 C   0  0  0  0  0  0  0  0  0  0  0  0
    3.3960   68.8950   61.0960 Cl  0  0  0  0  0  0  0  0  0  0  0  0
    1.8900   68.9920   61.9460 C   0  0  0  0  0  0  0  0  0  0  0  0
    0.7880   69.4710   61.2330 C   0  0  0  0  0  0  0  0  0  0  0  0
   -0.4460   69.5930   61.8590 C   0  0  0  0  0  0  0  0  0  0  0  0
   -0.5740   69.2420   63.1970 C   0  0  0  0  0  0  0  0  0  0  0  0
    0.5290   68.7630   63.9150 C   0  0  0  0  0  0  0  0  0  0  0  0
    1.7850   68.6130   63.3050 C   0  0  0  0  0  0  0  0  0  0  0  0
    3.5606   69.8897   64.7691 H   0  0  0  0  0  0  0  0  0  0  0  0
    5.4676   67.8403   65.6729 H   0  0  0  0  0  0  0  0  0  0  0  0
    5.6259   68.7981   64.1545 H   0  0  0  0  0  0  0  0  0  0  0  0
    6.8542   69.7223   66.2393 H   0  0  0  0  0  0  0  0  0  0  0  0
    5.7872   70.8687   65.3532 H   0  0  0  0  0  0  0  0  0  0  0  0
    2.9712   67.8409   66.8013 H   0  0  0  0  0  0  0  0  0  0  0  0
    1.9858   69.2789   66.3311 H   0  0  0  0  0  0  0  0  0  0  0  0
    2.2648   69.8690   69.1206 H   0  0  0  0  0  0  0  0  0  0  0  0
    4.0174   71.3028   70.4135 H   0  0  0  0  0  0  0  0  0  0  0  0
    3.7839   67.9578   63.2308 H   0  0  0  0  0  0  0  0  0  0  0  0
    2.6461   67.2474   64.5683 H   0  0  0  0  0  0  0  0  0  0  0  0
    0.8977   69.7517   60.1751 H   0  0  0  0  0  0  0  0  0  0  0  0
   -1.3164   69.9652   61.2988 H   0  0  0  0  0  0  0  0  0  0  0  0
   -1.5491   69.3410   63.6964 H   0  0  0  0  0  0  0  0  0  0  0  0
    0.4093   68.4994   64.9762 H   0  0  0  0  0  0  0  0  0  0  0  0
  2  1  1  0
  3  2  1  0
  4  3  1  0
  5  4  2  0
  6  5  1  0
  6  1  1  0
  7  5  1  0
  8  7  2  0
  9  4  1  0
  9  8  1  0
 10  1  1  0
 12 11  1  0
 13 12  2  0
 14 13  1  0
 15 14  2  0
 16 15  1  0
 17 16  2  0
 17 12  1  0
 17 10  1  0
  1 18  1  6
  2 19  1  0
  2 20  1  0
  3 21  1  0
  3 22  1  0
  6 23  1  0
  6 24  1  0
  7 25  1  0
  8 26  1  0
 10 27  1  0
 10 28  1  0
 13 29  1  0
 14 30  1  0
 15 31  1  0
 16 32  1  0
M  CHG  1   1   1
M  END
>  <score>  (5) 
-8.335

$$$$
=
     RDKit          3D

 32 34  0  0  0  0  0  0  0  0999 V2000
    3.2540   68.4240   65.9630 N   0  0  2  0  0  4  0  0  0  0  0  0
    2.1820   69.2070   66.7100 C   0  0  0  0  0  0  0  0  0  0  0  0
    2.7050   69.6480   68.0880 C   0  0  0  0  0  0  0  0  0  0  0  0
    4.0850   70.2120   67.9530 C   0  0  0  0  0  0  0  0  0  0  0  0
    4.9220   70.0150   66.8690 C   0  0  0  0  0  0  0  0  0  0  0  0
    4.5110   69.2210   65.6720 C   0  0  0  0  0  0  0  0  0  0  0  0
    6.1760   70.6730   67.0630 C   0  0  0  0  0  0  0  0  0  0  0  0
    6.2360   71.3310   68.2740 C   0  0  0  0  0  0  0  0  0  0  0  0
    4.7930   71.1570   69.1750 S   0  0  0  0  0  0  0  0  0  0  0  0
    2.7620   67.5740   64.8180 C   0  0  0  0  0  0  0  0  0  0  0  0
    4.4790   67.3470   62.3190 Cl  0  0  0  0  0  0  0  0  0  0  0  0
    4.1410   66.0300   63.3910 C   0  0  0  0  0  0  0  0  0  0  0  0
    4.6930   64.7880   63.0650 C   0  0  0  0  0  0  0  0  0  0  0  0
    4.4460   63.6840   63.8710 C   0  0  0  0  0  0  0  0  0  0  0  0
    3.6430   63.8220   64.9970 C   0  0  0  0  0  0  0  0  0  0  0  0
    3.0890   65.0650   65.3250 C   0  0  0  0  0  0  0  0  0  0  0  0
    3.3330   66.2030   64.5400 C   0  0  0  0  0  0  0  0  0  0  0  0
    3.5532   67.7156   66.6482 H   0  0  0  0  0  0  0  0  0  0  0  0
    1.9082   70.0968   66.1241 H   0  0  0  0  0  0  0  0  0  0  0  0
    1.3016   68.5628   66.8510 H   0  0  0  0  0  0  0  0  0  0  0  0
    2.0361   70.4163   68.5031 H   0  0  0  0  0  0  0  0  0  0  0  0
    2.7339   68.7774   68.7598 H   0  0  0  0  0  0  0  0  0  0  0  0
    4.3181   69.9060   64.8332 H   0  0  0  0  0  0  0  0  0  0  0  0
    5.3212   68.5225   65.4158 H   0  0  0  0  0  0  0  0  0  0  0  0
    6.9976   70.6566   66.3318 H   0  0  0  0  0  0  0  0  0  0  0  0
    7.1106   71.9014   68.6199 H   0  0  0  0  0  0  0  0  0  0  0  0
    1.6833   67.4320   64.9803 H   0  0  0  0  0  0  0  0  0  0  0  0
    3.0974   68.1478   63.9415 H   0  0  0  0  0  0  0  0  0  0  0  0
    5.3235   64.6847   62.1695 H   0  0  0  0  0  0  0  0  0  0  0  0
    4.8833   62.7064   63.6196 H   0  0  0  0  0  0  0  0  0  0  0  0
    3.4415   62.9486   65.6347 H   0  0  0  0  0  0  0  0  0  0  0  0
    2.4496   65.1518   66.2158 H   0  0  0  0  0  0  0  0  0  0  0  0
  2  1  1  0
  3  2  1  0
  4  3  1  0
  5  4  2  0
  6  5  1  0
  6  1  1  0
  7  5  1  0
  8  7  2  0
  9  4  1  0
  9  8  1  0
 10  1  1  0
 12 11  1  0
 13 12  2  0
 14 13  1  0
 15 14  2  0
 16 15  1  0
 17 16  2  0
 17 12  1  0
 17 10  1  0
  1 18  1  1
  2 19  1  0
  2 20  1  0
  3 21  1  0
  3 22  1  0
  6 23  1  0
  6 24  1  0
  7 25  1  0
  8 26  1  0
 10 27  1  0
 10 28  1  0
 13 29  1  0
 14 30  1  0
 15 31  1  0
 16 32  1  0
M  CHG  1   1   1
M  END
>  <score>  (6) 
-8.159

$$$$
=
     RDKit          3D

 32 34  0  0  0  0  0  0  0  0999 V2000
    2.5640   69.5210   66.6950 N   0  0  2  0  0  4  0  0  0  0  0  0
    3.5220   68.6830   65.8570 C   0  0  0  0  0  0  0  0  0  0  0  0
    4.8520   69.4310   65.6590 C   0  0  0  0  0  0  0  0  0  0  0  0
    5.3100   70.0100   66.9620 C   0  0  0  0  0  0  0  0  0  0  0  0
    4.5070   70.2040   68.0710 C   0  0  0  0  0  0  0  0  0  0  0  0
    3.0650   69.8130   68.0960 C   0  0  0  0  0  0  0  0  0  0  0  0
    5.2460   70.7940   69.1420 C   0  0  0  0  0  0  0  0  0  0  0  0
    6.5630   71.0240   68.8010 C   0  0  0  0  0  0  0  0  0  0  0  0
    6.9080   70.5340   67.2000 S   0  0  0  0  0  0  0  0  0  0  0  0
    1.1100   69.1280   66.6090 C   0  0  0  0  0  0  0  0  0  0  0  0
   -1.7970   68.4170   66.0710 Cl  0  0  0  0  0  0  0  0  0  0  0  0
   -0.8410   67.7170   67.3350 C   0  0  0  0  0  0  0  0  0  0  0  0
   -1.4660   66.7750   68.1560 C   0  0  0  0  0  0  0  0  0  0  0  0
   -0.7630   66.1890   69.2020 C   0  0  0  0  0  0  0  0  0  0  0  0
    0.5600   66.5500   69.4270 C   0  0  0  0  0  0  0  0  0  0  0  0
    1.1880   67.4950   68.6060 C   0  0  0  0  0  0  0  0  0  0  0  0
    0.5090   68.0920   67.5310 C   0  0  0  0  0  0  0  0  0  0  0  0
    2.5710   70.4374   66.2247 H   0  0  0  0  0  0  0  0  0  0  0  0
    3.7148   67.7296   66.3707 H   0  0  0  0  0  0  0  0  0  0  0  0
    3.0669   68.4955   64.8733 H   0  0  0  0  0  0  0  0  0  0  0  0
    5.6123   68.7301   65.2840 H   0  0  0  0  0  0  0  0  0  0  0  0
    4.7056   70.2442   64.9329 H   0  0  0  0  0  0  0  0  0  0  0  0
    2.9457   68.9129   68.7169 H   0  0  0  0  0  0  0  0  0  0  0  0
    2.4802   70.6456   68.5141 H   0  0  0  0  0  0  0  0  0  0  0  0
    4.8150   71.0367   70.1245 H   0  0  0  0  0  0  0  0  0  0  0  0
    7.3044   71.4705   69.4800 H   0  0  0  0  0  0  0  0  0  0  0  0
    0.5311   70.0507   66.7621 H   0  0  0  0  0  0  0  0  0  0  0  0
    1.0616   68.6261   65.6314 H   0  0  0  0  0  0  0  0  0  0  0  0
   -2.5147   66.4971   67.9745 H   0  0  0  0  0  0  0  0  0  0  0  0
   -1.2508   65.4440   69.8478 H   0  0  0  0  0  0  0  0  0  0  0  0
    1.1180   66.0902   70.2560 H   0  0  0  0  0  0  0  0  0  0  0  0
    2.2326   67.7750   68.8068 H   0  0  0  0  0  0  0  0  0  0  0  0
  2  1  1  0
  3  2  1  0
  4  3  1  0
  5  4  2  0
  6  5  1  0
  6  1  1  0
  7  5  1  0
  8  7  2  0
  9  4  1  0
  9  8  1  0
 10  1  1  0
 12 11  1  0
 13 12  2  0
 14 13  1  0
 15 14  2  0
 16 15  1  0
 17 16  2  0
 17 12  1  0
 17 10  1  0
  1 18  1  6
  2 19  1  0
  2 20  1  0
  3 21  1  0
  3 22  1  0
  6 23  1  0
  6 24  1  0
  7 25  1  0
  8 26  1  0
 10 27  1  0
 10 28  1  0
 13 29  1  0
 14 30  1  0
 15 31  1  0
 16 32  1  0
M  CHG  1   1   1
M  END
>  <score>  (7) 
-7.85

$$$$
=
     RDKit          3D

 32 34  0  0  0  0  0  0  0  0999 V2000
    2.0670   68.2880   65.8950 N   0  0  2  0  0  4  0  0  0  0  0  0
    2.1580   69.0380   64.5720 C   0  0  0  0  0  0  0  0  0  0  0  0
    3.4530   68.6610   63.8320 C   0  0  0  0  0  0  0  0  0  0  0  0
    3.6460   67.1770   63.8640 C   0  0  0  0  0  0  0  0  0  0  0  0
    3.0110   66.3120   64.7370 C   0  0  0  0  0  0  0  0  0  0  0  0
    2.0140   66.7800   65.7470 C   0  0  0  0  0  0  0  0  0  0  0  0
    3.4310   64.9630   64.5180 C   0  0  0  0  0  0  0  0  0  0  0  0
    4.3590   64.8660   63.5030 C   0  0  0  0  0  0  0  0  0  0  0  0
    4.7260   66.3880   62.8160 S   0  0  0  0  0  0  0  0  0  0  0  0
    1.1040   68.8610   66.9040 C   0  0  0  0  0  0  0  0  0  0  0  0
    0.3150   66.7590   68.9540 Cl  0  0  0  0  0  0  0  0  0  0  0  0
   -0.7900   67.5020   67.8470 C   0  0  0  0  0  0  0  0  0  0  0  0
   -2.1230   67.0890   67.9080 C   0  0  0  0  0  0  0  0  0  0  0  0
   -3.0600   67.6300   67.0350 C   0  0  0  0  0  0  0  0  0  0  0  0
   -2.6600   68.5780   66.1010 C   0  0  0  0  0  0  0  0  0  0  0  0
   -1.3240   68.9930   66.0380 C   0  0  0  0  0  0  0  0  0  0  0  0
   -0.3580   68.4770   66.9170 C   0  0  0  0  0  0  0  0  0  0  0  0
    2.9797   68.4699   66.3364 H   0  0  0  0  0  0  0  0  0  0  0  0
    1.2927   68.7753   63.9458 H   0  0  0  0  0  0  0  0  0  0  0  0
    2.1631   70.1194   64.7735 H   0  0  0  0  0  0  0  0  0  0  0  0
    3.3867   68.9975   62.7868 H   0  0  0  0  0  0  0  0  0  0  0  0
    4.3067   69.1474   64.3265 H   0  0  0  0  0  0  0  0  0  0  0  0
    1.0054   66.4845   65.4223 H   0  0  0  0  0  0  0  0  0  0  0  0
    2.2527   66.3212   66.7178 H   0  0  0  0  0  0  0  0  0  0  0  0
    3.0572   64.1026   65.0925 H   0  0  0  0  0  0  0  0  0  0  0  0
    4.8110   63.9189   63.1733 H   0  0  0  0  0  0  0  0  0  0  0  0
    1.5016   68.5969   67.8951 H   0  0  0  0  0  0  0  0  0  0  0  0
    1.0641   69.9209   66.6125 H   0  0  0  0  0  0  0  0  0  0  0  0
   -2.4316   66.3352   68.6473 H   0  0  0  0  0  0  0  0  0  0  0  0
   -4.1112   67.3097   67.0833 H   0  0  0  0  0  0  0  0  0  0  0  0
   -3.3980   69.0054   65.4063 H   0  0  0  0  0  0  0  0  0  0  0  0
   -1.0255   69.7376   65.2854 H   0  0  0  0  0  0  0  0  0  0  0  0
  2  1  1  0
  3  2  1  0
  4  3  1  0
  5  4  2  0
  6  5  1  0
  6  1  1  0
  7  5  1  0
  8  7  2  0
  9  4  1  0
  9  8  1  0
 10  1  1  0
 12 11  1  0
 13 12  2  0
 14 13  1  0
 15 14  2  0
 16 15  1  0
 17 16  2  0
 17 12  1  0
 17 10  1  0
  1 18  1  1
  2 19  1  0
  2 20  1  0
  3 21  1  0
  3 22  1  0
  6 23  1  0
  6 24  1  0
  7 25  1  0
  8 26  1  0
 10 27  1  0
 10 28  1  0
 13 29  1  0
 14 30  1  0
 15 31  1  0
 16 32  1  0
M  CHG  1   1   1
M  END
>  <score>  (8) 
-7.513

$$$$
=
     RDKit          3D

 32 34  0  0  0  0  0  0  0  0999 V2000
    0.7780   66.0440   69.4850 N   0  0  2  0  0  4  0  0  0  0  0  0
    1.5260   67.3640   69.3410 C   0  0  0  0  0  0  0  0  0  0  0  0
    1.3280   67.9380   67.9270 C   0  0  0  0  0  0  0  0  0  0  0  0
   -0.1150   67.8490   67.5370 C   0  0  0  0  0  0  0  0  0  0  0  0
   -1.0540   67.0370   68.1470 C   0  0  0  0  0  0  0  0  0  0  0  0
   -0.7230   66.1630   69.3120 C   0  0  0  0  0  0  0  0  0  0  0  0
   -2.3320   67.1750   67.5230 C   0  0  0  0  0  0  0  0  0  0  0  0
   -2.3060   68.0720   66.4750 C   0  0  0  0  0  0  0  0  0  0  0  0
   -0.7520   68.7450   66.2420 S   0  0  0  0  0  0  0  0  0  0  0  0
    1.2180   65.1680   70.6320 C   0  0  0  0  0  0  0  0  0  0  0  0
    0.0080   62.6820   71.8960 Cl  0  0  0  0  0  0  0  0  0  0  0  0
    1.4710   62.6890   70.9680 C   0  0  0  0  0  0  0  0  0  0  0  0
    2.1280   61.4660   70.8100 C   0  0  0  0  0  0  0  0  0  0  0  0
    3.3170   61.4030   70.0940 C   0  0  0  0  0  0  0  0  0  0  0  0
    3.8490   62.5630   69.5440 C   0  0  0  0  0  0  0  0  0  0  0  0
    3.1920   63.7900   69.7010 C   0  0  0  0  0  0  0  0  0  0  0  0
    1.9800   63.8830   70.4050 C   0  0  0  0  0  0  0  0  0  0  0  0
    1.0871   65.5027   68.6650 H   0  0  0  0  0  0  0  0  0  0  0  0
    1.1419   68.0815   70.0811 H   0  0  0  0  0  0  0  0  0  0  0  0
    2.5987   67.1878   69.5089 H   0  0  0  0  0  0  0  0  0  0  0  0
    1.6450   68.9913   67.9135 H   0  0  0  0  0  0  0  0  0  0  0  0
    1.9319   67.3582   67.2135 H   0  0  0  0  0  0  0  0  0  0  0  0
   -1.1580   66.5975   70.2241 H   0  0  0  0  0  0  0  0  0  0  0  0
   -1.1380   65.1606   69.1304 H   0  0  0  0  0  0  0  0  0  0  0  0
   -3.2324   66.6292   67.8413 H   0  0  0  0  0  0  0  0  0  0  0  0
   -3.1830   68.3246   65.8610 H   0  0  0  0  0  0  0  0  0  0  0  0
    1.8543   65.7954   71.2735 H   0  0  0  0  0  0  0  0  0  0  0  0
    0.2589   64.8037   71.0287 H   0  0  0  0  0  0  0  0  0  0  0  0
    1.7037   60.5527   71.2526 H   0  0  0  0  0  0  0  0  0  0  0  0
    3.8340   60.4409   69.9633 H   0  0  0  0  0  0  0  0  0  0  0  0
    4.7930   62.5173   68.9812 H   0  0  0  0  0  0  0  0  0  0  0  0
    3.6335   64.6981   69.2647 H   0  0  0  0  0  0  0  0  0  0  0  0
  2  1  1  0
  3  2  1  0
  4  3  1  0
  5  4  2  0
  6  5  1  0
  6  1  1  0
  7  5  1  0
  8  7  2  0
  9  4  1  0
  9  8  1  0
 10  1  1  0
 12 11  1  0
 13 12  2  0
 14 13  1  0
 15 14  2  0
 16 15  1  0
 17 16  2  0
 17 12  1  0
 17 10  1  0
  1 18  1  6
  2 19  1  0
  2 20  1  0
  3 21  1  0
  3 22  1  0
  6 23  1  0
  6 24  1  0
  7 25  1  0
  8 26  1  0
 10 27  1  0
 10 28  1  0
 13 29  1  0
 14 30  1  0
 15 31  1  0
 16 32  1  0
M  CHG  1   1   1
M  END
>  <score>  (9) 
-7.484

$$$$
