=
     RDKit          3D

 40 41  0  0  0  0  0  0  0  0999 V2000
    1.5640   64.7220   70.7420 C   0  0  0  0  0  0  0  0  0  0  0  0
    0.8300   65.7780   70.3310 C   0  0  0  0  0  0  0  0  0  0  0  0
    1.1070   63.6820   71.7440 C   0  0  0  0  0  0  0  0  0  0  0  0
    2.9340   59.9320   70.9290 C   0  0  0  0  0  0  0  0  0  0  0  0
    2.1210   60.0890   72.0500 C   0  0  0  0  0  0  0  0  0  0  0  0
    1.5320   61.3230   72.2970 C   0  0  0  0  0  0  0  0  0  0  0  0
    1.7340   62.3670   71.4540 N   0  0  0  0  0  4  0  0  0  0  0  0
    2.5390   62.2270   70.3690 C   0  0  0  0  0  0  0  0  0  0  0  0
    3.1460   61.0110   70.0880 C   0  0  0  0  0  0  0  0  0  0  0  0
    3.9180   60.9070   69.0010 F   0  0  0  0  0  0  0  0  0  0  0  0
    2.9960   57.5320   70.9730 N   0  0  0  0  0  0  0  0  0  0  0  0
    3.5660   58.6400   70.6260 C   0  0  0  0  0  0  0  0  0  0  0  0
    3.8080   56.4720   70.5580 O   0  0  0  0  0  0  0  0  0  0  0  0
    1.3250   66.8900   69.4280 C   0  0  0  0  0  0  0  0  0  0  0  0
    0.2490   67.3240   68.5030 N   0  0  0  0  0  4  0  0  0  0  0  0
    0.4720   68.3580   67.6580 C   0  0  0  0  0  0  0  0  0  0  0  0
   -0.5080   68.7700   66.7700 C   0  0  0  0  0  0  0  0  0  0  0  0
   -1.7440   68.1250   66.7630 C   0  0  0  0  0  0  0  0  0  0  0  0
   -1.9720   67.0800   67.6530 C   0  0  0  0  0  0  0  0  0  0  0  0
   -0.9550   66.6980   68.5220 C   0  0  0  0  0  0  0  0  0  0  0  0
   -2.7370   68.5440   65.7460 C   0  0  0  0  0  0  0  0  0  0  0  0
   -2.3750   68.7350   64.5940 O   0  0  0  0  0  0  0  0  0  0  0  0
   -4.0320   68.7080   66.1360 N   0  0  0  0  0  0  0  0  0  0  0  0
    2.5719   64.6081   70.3163 H   0  0  0  0  0  0  0  0  0  0  0  0
   -0.2116   65.8360   70.6798 H   0  0  0  0  0  0  0  0  0  0  0  0
    1.3938   64.0041   72.7559 H   0  0  0  0  0  0  0  0  0  0  0  0
    0.0142   63.5775   71.6739 H   0  0  0  0  0  0  0  0  0  0  0  0
    1.9473   59.2442   72.7327 H   0  0  0  0  0  0  0  0  0  0  0  0
    0.8957   61.4549   73.1846 H   0  0  0  0  0  0  0  0  0  0  0  0
    2.7118   63.0872   69.7055 H   0  0  0  0  0  0  0  0  0  0  0  0
    4.5317   58.6152   70.0998 H   0  0  0  0  0  0  0  0  0  0  0  0
    3.5329   55.5381   70.7375 H   0  0  0  0  0  0  0  0  0  0  0  0
    1.6391   67.7449   70.0449 H   0  0  0  0  0  0  0  0  0  0  0  0
    2.1745   66.5175   68.8368 H   0  0  0  0  0  0  0  0  0  0  0  0
    1.4419   68.8766   67.6768 H   0  0  0  0  0  0  0  0  0  0  0  0
   -0.3125   69.6002   66.0753 H   0  0  0  0  0  0  0  0  0  0  0  0
   -2.9429   66.5631   67.6692 H   0  0  0  0  0  0  0  0  0  0  0  0
   -1.1290   65.8777   69.2339 H   0  0  0  0  0  0  0  0  0  0  0  0
   -4.7435   68.9986   65.4503 H   0  0  0  0  0  0  0  0  0  0  0  0
   -4.2996   68.5413   67.1166 H   0  0  0  0  0  0  0  0  0  0  0  0
  2  1  2  0
  3  1  1  0
  5  4  2  0
  6  5  1  0
  7  6  2  0
  7  3  1  0
  8  7  1  0
  9  4  1  0
  9  8  2  0
 10  9  1  0
 12 11  2  0
 12  4  1  0
 13 11  1  0
 14  2  1  0
 15 14  1  0
 16 15  2  0
 17 16  1  0
 18 17  2  0
 19 18  1  0
 20 19  2  0
 20 15  1  0
 21 18  1  0
 22 21  2  0
 23 21  1  0
  1 24  1  0
  2 25  1  0
  3 26  1  0
  3 27  1  0
  5 28  1  0
  6 29  1  0
  8 30  1  0
 12 31  1  0
 13 32  1  0
 14 33  1  0
 14 34  1  0
 16 35  1  0
 17 36  1  0
 19 37  1  0
 20 38  1  0
 23 39  1  0
 23 40  1  0
M  CHG  2   7   1  15   1
M  END
>  <score>  (1) 
-9.284

$$$$
=
     RDKit          3D

 40 41  0  0  0  0  0  0  0  0999 V2000
    0.9560   66.7390   68.8990 C   0  0  0  0  0  0  0  0  0  0  0  0
    0.5800   67.8530   68.2340 C   0  0  0  0  0  0  0  0  0  0  0  0
    0.3580   66.2620   70.2060 C   0  0  0  0  0  0  0  0  0  0  0  0
    2.3440   62.7650   71.5800 C   0  0  0  0  0  0  0  0  0  0  0  0
    1.0350   63.0330   71.9790 C   0  0  0  0  0  0  0  0  0  0  0  0
    0.4040   64.1810   71.5170 C   0  0  0  0  0  0  0  0  0  0  0  0
    1.0450   65.0330   70.6770 N   0  0  0  0  0  4  0  0  0  0  0  0
    2.3260   64.7880   70.2990 C   0  0  0  0  0  0  0  0  0  0  0  0
    2.9920   63.6530   70.7390 C   0  0  0  0  0  0  0  0  0  0  0  0
    4.2470   63.4360   70.3310 F   0  0  0  0  0  0  0  0  0  0  0  0
    4.0570   61.6440   72.8360 N   0  0  0  0  0  0  0  0  0  0  0  0
    3.0430   61.5560   72.0380 C   0  0  0  0  0  0  0  0  0  0  0  0
    4.5150   60.3510   73.1070 O   0  0  0  0  0  0  0  0  0  0  0  0
    1.2570   68.4030   66.9950 C   0  0  0  0  0  0  0  0  0  0  0  0
    2.4840   69.1510   67.3640 N   0  0  0  0  0  4  0  0  0  0  0  0
    3.5320   69.1790   66.5070 C   0  0  0  0  0  0  0  0  0  0  0  0
    4.6820   69.8880   66.8180 C   0  0  0  0  0  0  0  0  0  0  0  0
    4.7670   70.5590   68.0370 C   0  0  0  0  0  0  0  0  0  0  0  0
    3.6950   70.5020   68.9220 C   0  0  0  0  0  0  0  0  0  0  0  0
    2.5590   69.7830   68.5630 C   0  0  0  0  0  0  0  0  0  0  0  0
    5.9800   71.3680   68.2970 C   0  0  0  0  0  0  0  0  0  0  0  0
    5.9660   72.5670   68.0640 O   0  0  0  0  0  0  0  0  0  0  0  0
    7.0840   70.7370   68.7890 N   0  0  0  0  0  0  0  0  0  0  0  0
    1.7590   66.1310   68.4568 H   0  0  0  0  0  0  0  0  0  0  0  0
   -0.2878   68.4056   68.6234 H   0  0  0  0  0  0  0  0  0  0  0  0
    0.4692   67.0514   70.9639 H   0  0  0  0  0  0  0  0  0  0  0  0
   -0.7064   66.0346   70.0470 H   0  0  0  0  0  0  0  0  0  0  0  0
    0.5073   62.3421   72.6530 H   0  0  0  0  0  0  0  0  0  0  0  0
   -0.6256   64.4019   71.8351 H   0  0  0  0  0  0  0  0  0  0  0  0
    2.8420   65.4979   69.6359 H   0  0  0  0  0  0  0  0  0  0  0  0
    2.7006   60.5672   71.6990 H   0  0  0  0  0  0  0  0  0  0  0  0
    5.2923   60.2164   73.7052 H   0  0  0  0  0  0  0  0  0  0  0  0
    1.5270   67.5697   66.3296 H   0  0  0  0  0  0  0  0  0  0  0  0
    0.5633   69.0863   66.4833 H   0  0  0  0  0  0  0  0  0  0  0  0
    3.4702   68.6334   65.5539 H   0  0  0  0  0  0  0  0  0  0  0  0
    5.5215   69.9209   66.1079 H   0  0  0  0  0  0  0  0  0  0  0  0
    3.7448   71.0182   69.8921 H   0  0  0  0  0  0  0  0  0  0  0  0
    1.7102   69.7260   69.2603 H   0  0  0  0  0  0  0  0  0  0  0  0
    7.9421   71.2740   68.9795 H   0  0  0  0  0  0  0  0  0  0  0  0
    7.0599   69.7233   68.9702 H   0  0  0  0  0  0  0  0  0  0  0  0
  2  1  2  0
  3  1  1  0
  5  4  2  0
  6  5  1  0
  7  6  2  0
  7  3  1  0
  8  7  1  0
  9  4  1  0
  9  8  2  0
 10  9  1  0
 12 11  2  0
 12  4  1  0
 13 11  1  0
 14  2  1  0
 15 14  1  0
 16 15  2  0
 17 16  1  0
 18 17  2  0
 19 18  1  0
 20 19  2  0
 20 15  1  0
 21 18  1  0
 22 21  2  0
 23 21  1  0
  1 24  1  0
  2 25  1  0
  3 26  1  0
  3 27  1  0
  5 28  1  0
  6 29  1  0
  8 30  1  0
 12 31  1  0
 13 32  1  0
 14 33  1  0
 14 34  1  0
 16 35  1  0
 17 36  1  0
 19 37  1  0
 20 38  1  0
 23 39  1  0
 23 40  1  0
M  CHG  2   7   1  15   1
M  END
>  <score>  (2) 
-8.903

$$$$
=
     RDKit          3D

 40 41  0  0  0  0  0  0  0  0999 V2000
    0.0680   66.1390   69.7080 C   0  0  0  0  0  0  0  0  0  0  0  0
    0.7040   67.1470   69.0750 C   0  0  0  0  0  0  0  0  0  0  0  0
    0.4330   65.6030   71.0770 C   0  0  0  0  0  0  0  0  0  0  0  0
    2.4000   61.8480   70.7640 C   0  0  0  0  0  0  0  0  0  0  0  0
    1.2230   61.9650   71.5020 C   0  0  0  0  0  0  0  0  0  0  0  0
    0.5960   63.2020   71.5900 C   0  0  0  0  0  0  0  0  0  0  0  0
    1.1120   64.2870   70.9580 N   0  0  0  0  0  4  0  0  0  0  0  0
    2.2670   64.1840   70.2520 C   0  0  0  0  0  0  0  0  0  0  0  0
    2.9250   62.9670   70.1400 C   0  0  0  0  0  0  0  0  0  0  0  0
    4.0520   62.9010   69.4220 F   0  0  0  0  0  0  0  0  0  0  0  0
    3.2360   60.0010   69.4770 N   0  0  0  0  0  0  0  0  0  0  0  0
    3.0890   60.5550   70.6360 C   0  0  0  0  0  0  0  0  0  0  0  0
    3.9240   58.7950   69.6520 O   0  0  0  0  0  0  0  0  0  0  0  0
    0.4250   67.6040   67.6570 C   0  0  0  0  0  0  0  0  0  0  0  0
    1.6430   68.2020   67.0570 N   0  0  0  0  0  4  0  0  0  0  0  0
    2.3300   69.1460   67.7420 C   0  0  0  0  0  0  0  0  0  0  0  0
    3.4830   69.7050   67.2140 C   0  0  0  0  0  0  0  0  0  0  0  0
    3.9260   69.3050   65.9530 C   0  0  0  0  0  0  0  0  0  0  0  0
    3.1990   68.3530   65.2470 C   0  0  0  0  0  0  0  0  0  0  0  0
    2.0510   67.8160   65.8210 C   0  0  0  0  0  0  0  0  0  0  0  0
    5.2030   69.8690   65.4590 C   0  0  0  0  0  0  0  0  0  0  0  0
    5.8370   70.6380   66.1670 O   0  0  0  0  0  0  0  0  0  0  0  0
    5.6300   69.5090   64.2150 N   0  0  0  0  0  0  0  0  0  0  0  0
   -0.7814   65.6702   69.1896 H   0  0  0  0  0  0  0  0  0  0  0  0
    1.4880   67.6799   69.6331 H   0  0  0  0  0  0  0  0  0  0  0  0
    1.1076   66.3143   71.5759 H   0  0  0  0  0  0  0  0  0  0  0  0
   -0.4875   65.4757   71.6656 H   0  0  0  0  0  0  0  0  0  0  0  0
    0.7953   61.0876   72.0092 H   0  0  0  0  0  0  0  0  0  0  0  0
   -0.3282   63.3031   72.1780 H   0  0  0  0  0  0  0  0  0  0  0  0
    2.6864   65.0756   69.7629 H   0  0  0  0  0  0  0  0  0  0  0  0
    3.4824   60.0552   71.5335 H   0  0  0  0  0  0  0  0  0  0  0  0
    4.1311   58.2252   68.8694 H   0  0  0  0  0  0  0  0  0  0  0  0
    0.1102   66.7401   67.0531 H   0  0  0  0  0  0  0  0  0  0  0  0
   -0.3719   68.3620   67.6768 H   0  0  0  0  0  0  0  0  0  0  0  0
    1.9692   69.4730   68.7284 H   0  0  0  0  0  0  0  0  0  0  0  0
    4.0449   70.4587   67.7851 H   0  0  0  0  0  0  0  0  0  0  0  0
    3.5270   68.0288   64.2483 H   0  0  0  0  0  0  0  0  0  0  0  0
    1.4658   67.0683   65.2656 H   0  0  0  0  0  0  0  0  0  0  0  0
    6.5145   69.8855   63.8451 H   0  0  0  0  0  0  0  0  0  0  0  0
    5.0681   68.8605   63.6452 H   0  0  0  0  0  0  0  0  0  0  0  0
  2  1  2  0
  3  1  1  0
  5  4  2  0
  6  5  1  0
  7  6  2  0
  7  3  1  0
  8  7  1  0
  9  4  1  0
  9  8  2  0
 10  9  1  0
 12 11  2  0
 12  4  1  0
 13 11  1  0
 14  2  1  0
 15 14  1  0
 16 15  2  0
 17 16  1  0
 18 17  2  0
 19 18  1  0
 20 19  2  0
 20 15  1  0
 21 18  1  0
 22 21  2  0
 23 21  1  0
  1 24  1  0
  2 25  1  0
  3 26  1  0
  3 27  1  0
  5 28  1  0
  6 29  1  0
  8 30  1  0
 12 31  1  0
 13 32  1  0
 14 33  1  0
 14 34  1  0
 16 35  1  0
 17 36  1  0
 19 37  1  0
 20 38  1  0
 23 39  1  0
 23 40  1  0
M  CHG  2   7   1  15   1
M  END
>  <score>  (3) 
-8.877

$$$$
=
     RDKit          3D

 40 41  0  0  0  0  0  0  0  0999 V2000
    0.7680   66.9190   68.7930 C   0  0  0  0  0  0  0  0  0  0  0  0
    1.1000   66.3370   69.9650 C   0  0  0  0  0  0  0  0  0  0  0  0
    1.2490   68.2780   68.3300 C   0  0  0  0  0  0  0  0  0  0  0  0
    2.9940   68.0000   64.4650 C   0  0  0  0  0  0  0  0  0  0  0  0
    2.0000   67.1020   64.8540 C   0  0  0  0  0  0  0  0  0  0  0  0
    1.4420   67.2120   66.1220 C   0  0  0  0  0  0  0  0  0  0  0  0
    1.8480   68.1870   66.9740 N   0  0  0  0  0  4  0  0  0  0  0  0
    2.8270   69.0530   66.6090 C   0  0  0  0  0  0  0  0  0  0  0  0
    3.4100   68.9770   65.3520 C   0  0  0  0  0  0  0  0  0  0  0  0
    4.3600   69.8590   65.0210 F   0  0  0  0  0  0  0  0  0  0  0  0
    2.8650   68.0000   62.0670 N   0  0  0  0  0  0  0  0  0  0  0  0
    3.6010   67.9250   63.1280 C   0  0  0  0  0  0  0  0  0  0  0  0
    3.7000   67.9070   60.9480 O   0  0  0  0  0  0  0  0  0  0  0  0
    0.5250   65.0370   70.4910 C   0  0  0  0  0  0  0  0  0  0  0  0
    1.5850   64.0040   70.5870 N   0  0  0  0  0  4  0  0  0  0  0  0
    2.8730   64.3440   70.3400 C   0  0  0  0  0  0  0  0  0  0  0  0
    3.8850   63.4030   70.4440 C   0  0  0  0  0  0  0  0  0  0  0  0
    3.5700   62.0880   70.7830 C   0  0  0  0  0  0  0  0  0  0  0  0
    2.2410   61.7430   71.0100 C   0  0  0  0  0  0  0  0  0  0  0  0
    1.2600   62.7240   70.9000 C   0  0  0  0  0  0  0  0  0  0  0  0
    4.6880   61.1320   70.9600 C   0  0  0  0  0  0  0  0  0  0  0  0
    4.8060   60.1940   70.1860 O   0  0  0  0  0  0  0  0  0  0  0  0
    5.5530   61.3340   71.9940 N   0  0  0  0  0  0  0  0  0  0  0  0
    0.0961   66.3630   68.1226 H   0  0  0  0  0  0  0  0  0  0  0  0
    1.8485   66.8476   70.5888 H   0  0  0  0  0  0  0  0  0  0  0  0
    0.3968   68.9730   68.3028 H   0  0  0  0  0  0  0  0  0  0  0  0
    2.0142   68.6411   69.0318 H   0  0  0  0  0  0  0  0  0  0  0  0
    1.6613   66.3149   64.1642 H   0  0  0  0  0  0  0  0  0  0  0  0
    0.6637   66.5018   66.4381 H   0  0  0  0  0  0  0  0  0  0  0  0
    3.1624   69.8243   67.3179 H   0  0  0  0  0  0  0  0  0  0  0  0
    4.6899   67.8041   63.0292 H   0  0  0  0  0  0  0  0  0  0  0  0
    3.3134   67.9452   60.0374 H   0  0  0  0  0  0  0  0  0  0  0  0
    0.0946   65.2085   71.4887 H   0  0  0  0  0  0  0  0  0  0  0  0
   -0.2541   64.6855   69.7985 H   0  0  0  0  0  0  0  0  0  0  0  0
    3.1180   65.3775   70.0540 H   0  0  0  0  0  0  0  0  0  0  0  0
    4.9303   63.6919   70.2602 H   0  0  0  0  0  0  0  0  0  0  0  0
    1.9698   60.7098   71.2726 H   0  0  0  0  0  0  0  0  0  0  0  0
    0.2061   62.4581   71.0692 H   0  0  0  0  0  0  0  0  0  0  0  0
    6.3396   60.6856   72.1416 H   0  0  0  0  0  0  0  0  0  0  0  0
    5.4200   62.1350   72.6277 H   0  0  0  0  0  0  0  0  0  0  0  0
  2  1  2  0
  3  1  1  0
  5  4  2  0
  6  5  1  0
  7  6  2  0
  7  3  1  0
  8  7  1  0
  9  4  1  0
  9  8  2  0
 10  9  1  0
 12 11  2  0
 12  4  1  0
 13 11  1  0
 14  2  1  0
 15 14  1  0
 16 15  2  0
 17 16  1  0
 18 17  2  0
 19 18  1  0
 20 19  2  0
 20 15  1  0
 21 18  1  0
 22 21  2  0
 23 21  1  0
  1 24  1  0
  2 25  1  0
  3 26  1  0
  3 27  1  0
  5 28  1  0
  6 29  1  0
  8 30  1  0
 12 31  1  0
 13 32  1  0
 14 33  1  0
 14 34  1  0
 16 35  1  0
 17 36  1  0
 19 37  1  0
 20 38  1  0
 23 39  1  0
 23 40  1  0
M  CHG  2   7   1  15   1
M  END
>  <score>  (4) 
-8.647

$$$$
=
     RDKit          3D

 40 41  0  0  0  0  0  0  0  0999 V2000
    0.4290   65.7590   70.4660 C   0  0  0  0  0  0  0  0  0  0  0  0
    0.9380   64.5530   70.7980 C   0  0  0  0  0  0  0  0  0  0  0  0
    1.1680   66.8310   69.6910 C   0  0  0  0  0  0  0  0  0  0  0  0
   -1.2930   68.3760   66.5890 C   0  0  0  0  0  0  0  0  0  0  0  0
   -0.1050   69.0210   66.9310 C   0  0  0  0  0  0  0  0  0  0  0  0
    0.6860   68.4980   67.9480 C   0  0  0  0  0  0  0  0  0  0  0  0
    0.3160   67.3650   68.5980 N   0  0  0  0  0  4  0  0  0  0  0  0
   -0.8480   66.7420   68.2830 C   0  0  0  0  0  0  0  0  0  0  0  0
   -1.6660   67.2320   67.2740 C   0  0  0  0  0  0  0  0  0  0  0  0
   -2.7960   66.5810   66.9800 F   0  0  0  0  0  0  0  0  0  0  0  0
   -1.9720   68.5070   64.2890 N   0  0  0  0  0  0  0  0  0  0  0  0
   -2.1510   68.8900   65.5120 C   0  0  0  0  0  0  0  0  0  0  0  0
   -2.9230   69.1450   63.4870 O   0  0  0  0  0  0  0  0  0  0  0  0
    0.2530   63.5270   71.6790 C   0  0  0  0  0  0  0  0  0  0  0  0
    1.0280   62.2620   71.6980 N   0  0  0  0  0  4  0  0  0  0  0  0
    2.1100   62.1300   70.8950 C   0  0  0  0  0  0  0  0  0  0  0  0
    2.8640   60.9670   70.9090 C   0  0  0  0  0  0  0  0  0  0  0  0
    2.4890   59.9150   71.7440 C   0  0  0  0  0  0  0  0  0  0  0  0
    1.3610   60.0510   72.5470 C   0  0  0  0  0  0  0  0  0  0  0  0
    0.6390   61.2410   72.5030 C   0  0  0  0  0  0  0  0  0  0  0  0
    3.3650   58.7210   71.7870 C   0  0  0  0  0  0  0  0  0  0  0  0
    3.7410   58.2120   70.7420 O   0  0  0  0  0  0  0  0  0  0  0  0
    3.7190   58.2240   73.0060 N   0  0  0  0  0  0  0  0  0  0  0  0
   -0.6010   65.9800   70.7825 H   0  0  0  0  0  0  0  0  0  0  0  0
    1.9291   64.2944   70.3970 H   0  0  0  0  0  0  0  0  0  0  0  0
    1.4366   67.6507   70.3736 H   0  0  0  0  0  0  0  0  0  0  0  0
    2.0749   66.3902   69.2514 H   0  0  0  0  0  0  0  0  0  0  0  0
    0.2034   69.9345   66.4015 H   0  0  0  0  0  0  0  0  0  0  0  0
    1.6200   69.0069   68.2284 H   0  0  0  0  0  0  0  0  0  0  0  0
   -1.1468   65.8380   68.8338 H   0  0  0  0  0  0  0  0  0  0  0  0
   -2.9520   69.6062   65.7476 H   0  0  0  0  0  0  0  0  0  0  0  0
   -2.9426   68.9748   62.5119 H   0  0  0  0  0  0  0  0  0  0  0  0
    0.1775   63.9212   72.7031 H   0  0  0  0  0  0  0  0  0  0  0  0
   -0.7507   63.3246   71.2770 H   0  0  0  0  0  0  0  0  0  0  0  0
    2.3938   62.9544   70.2243 H   0  0  0  0  0  0  0  0  0  0  0  0
    3.7518   60.8746   70.2661 H   0  0  0  0  0  0  0  0  0  0  0  0
    1.0440   59.2303   73.2072 H   0  0  0  0  0  0  0  0  0  0  0  0
   -0.2584   61.3549   73.1289 H   0  0  0  0  0  0  0  0  0  0  0  0
    4.3270   57.3949   73.0673 H   0  0  0  0  0  0  0  0  0  0  0  0
    3.3785   58.6776   73.8658 H   0  0  0  0  0  0  0  0  0  0  0  0
  2  1  2  0
  3  1  1  0
  5  4  2  0
  6  5  1  0
  7  6  2  0
  7  3  1  0
  8  7  1  0
  9  4  1  0
  9  8  2  0
 10  9  1  0
 12 11  2  0
 12  4  1  0
 13 11  1  0
 14  2  1  0
 15 14  1  0
 16 15  2  0
 17 16  1  0
 18 17  2  0
 19 18  1  0
 20 19  2  0
 20 15  1  0
 21 18  1  0
 22 21  2  0
 23 21  1  0
  1 24  1  0
  2 25  1  0
  3 26  1  0
  3 27  1  0
  5 28  1  0
  6 29  1  0
  8 30  1  0
 12 31  1  0
 13 32  1  0
 14 33  1  0
 14 34  1  0
 16 35  1  0
 17 36  1  0
 19 37  1  0
 20 38  1  0
 23 39  1  0
 23 40  1  0
M  CHG  2   7   1  15   1
M  END
>  <score>  (5) 
-8.645

$$$$
=
     RDKit          3D

 40 41  0  0  0  0  0  0  0  0999 V2000
    0.6490   67.8990   68.3610 C   0  0  0  0  0  0  0  0  0  0  0  0
    0.9600   66.7150   68.9320 C   0  0  0  0  0  0  0  0  0  0  0  0
    1.2660   68.4380   67.0870 C   0  0  0  0  0  0  0  0  0  0  0  0
    4.8360   70.5690   67.9700 C   0  0  0  0  0  0  0  0  0  0  0  0
    4.7210   69.8530   66.7790 C   0  0  0  0  0  0  0  0  0  0  0  0
    3.5440   69.1640   66.5100 C   0  0  0  0  0  0  0  0  0  0  0  0
    2.5090   69.1930   67.3870 N   0  0  0  0  0  4  0  0  0  0  0  0
    2.6210   69.8730   68.5570 C   0  0  0  0  0  0  0  0  0  0  0  0
    3.7790   70.5730   68.8640 C   0  0  0  0  0  0  0  0  0  0  0  0
    3.8460   71.2460   70.0180 F   0  0  0  0  0  0  0  0  0  0  0  0
    6.9340   70.8350   69.1080 N   0  0  0  0  0  0  0  0  0  0  0  0
    6.0590   71.3200   68.2870 C   0  0  0  0  0  0  0  0  0  0  0  0
    7.9860   71.7500   69.2170 O   0  0  0  0  0  0  0  0  0  0  0  0
    0.4420   66.2260   70.2690 C   0  0  0  0  0  0  0  0  0  0  0  0
    0.9920   64.8840   70.5780 N   0  0  0  0  0  4  0  0  0  0  0  0
    2.2850   64.6090   70.2860 C   0  0  0  0  0  0  0  0  0  0  0  0
    2.8300   63.3700   70.5830 C   0  0  0  0  0  0  0  0  0  0  0  0
    2.0300   62.3900   71.1690 C   0  0  0  0  0  0  0  0  0  0  0  0
    0.6960   62.6730   71.4410 C   0  0  0  0  0  0  0  0  0  0  0  0
    0.1950   63.9340   71.1300 C   0  0  0  0  0  0  0  0  0  0  0  0
    2.6700   61.1070   71.5420 C   0  0  0  0  0  0  0  0  0  0  0  0
    2.3280   60.5390   72.5680 O   0  0  0  0  0  0  0  0  0  0  0  0
    3.6340   60.6030   70.7200 N   0  0  0  0  0  0  0  0  0  0  0  0
   -0.1105   68.5193   68.8594 H   0  0  0  0  0  0  0  0  0  0  0  0
    1.6445   66.0525   68.3819 H   0  0  0  0  0  0  0  0  0  0  0  0
    1.5056   67.5983   66.4180 H   0  0  0  0  0  0  0  0  0  0  0  0
    0.5470   69.1161   66.6041 H   0  0  0  0  0  0  0  0  0  0  0  0
    5.5530   69.8336   66.0598 H   0  0  0  0  0  0  0  0  0  0  0  0
    3.4507   68.5894   65.5766 H   0  0  0  0  0  0  0  0  0  0  0  0
    1.7835   69.8689   69.2701 H   0  0  0  0  0  0  0  0  0  0  0  0
    6.2320   72.3021   67.8227 H   0  0  0  0  0  0  0  0  0  0  0  0
    8.7562   71.5508   69.8062 H   0  0  0  0  0  0  0  0  0  0  0  0
    0.7463   66.9321   71.0556 H   0  0  0  0  0  0  0  0  0  0  0  0
   -0.6551   66.1598   70.2236 H   0  0  0  0  0  0  0  0  0  0  0  0
    2.9099   65.3776   69.8077 H   0  0  0  0  0  0  0  0  0  0  0  0
    3.8863   63.1612   70.3580 H   0  0  0  0  0  0  0  0  0  0  0  0
    0.0457   61.9111   71.8956 H   0  0  0  0  0  0  0  0  0  0  0  0
   -0.8612   64.1637   71.3344 H   0  0  0  0  0  0  0  0  0  0  0  0
    4.0964   59.7128   70.9538 H   0  0  0  0  0  0  0  0  0  0  0  0
    3.8998   61.1124   69.8652 H   0  0  0  0  0  0  0  0  0  0  0  0
  2  1  2  0
  3  1  1  0
  5  4  2  0
  6  5  1  0
  7  6  2  0
  7  3  1  0
  8  7  1  0
  9  4  1  0
  9  8  2  0
 10  9  1  0
 12 11  2  0
 12  4  1  0
 13 11  1  0
 14  2  1  0
 15 14  1  0
 16 15  2  0
 17 16  1  0
 18 17  2  0
 19 18  1  0
 20 19  2  0
 20 15  1  0
 21 18  1  0
 22 21  2  0
 23 21  1  0
  1 24  1  0
  2 25  1  0
  3 26  1  0
  3 27  1  0
  5 28  1  0
  6 29  1  0
  8 30  1  0
 12 31  1  0
 13 32  1  0
 14 33  1  0
 14 34  1  0
 16 35  1  0
 17 36  1  0
 19 37  1  0
 20 38  1  0
 23 39  1  0
 23 40  1  0
M  CHG  2   7   1  15   1
M  END
>  <score>  (6) 
-8.482

$$$$
=
     RDKit          3D

 40 41  0  0  0  0  0  0  0  0999 V2000
    1.9490   65.3030   69.8840 C   0  0  0  0  0  0  0  0  0  0  0  0
    2.4330   64.2100   70.5100 C   0  0  0  0  0  0  0  0  0  0  0  0
    0.7410   66.0990   70.3330 C   0  0  0  0  0  0  0  0  0  0  0  0
   -1.0970   67.9740   66.9910 C   0  0  0  0  0  0  0  0  0  0  0  0
   -1.7810   66.9970   67.7130 C   0  0  0  0  0  0  0  0  0  0  0  0
   -1.1620   66.3980   68.8030 C   0  0  0  0  0  0  0  0  0  0  0  0
    0.0910   66.7620   69.1730 N   0  0  0  0  0  4  0  0  0  0  0  0
    0.7710   67.7000   68.4640 C   0  0  0  0  0  0  0  0  0  0  0  0
    0.1880   68.3220   67.3690 C   0  0  0  0  0  0  0  0  0  0  0  0
    0.8820   69.2540   66.7050 F   0  0  0  0  0  0  0  0  0  0  0  0
   -3.0060   68.6360   65.6930 N   0  0  0  0  0  0  0  0  0  0  0  0
   -1.7210   68.6400   65.8380 C   0  0  0  0  0  0  0  0  0  0  0  0
   -3.3180   69.3410   64.5260 O   0  0  0  0  0  0  0  0  0  0  0  0
    3.5610   63.3360   69.9980 C   0  0  0  0  0  0  0  0  0  0  0  0
    3.3460   61.9250   70.4010 N   0  0  0  0  0  4  0  0  0  0  0  0
    4.0190   60.9390   69.7610 C   0  0  0  0  0  0  0  0  0  0  0  0
    3.8520   59.6140   70.1310 C   0  0  0  0  0  0  0  0  0  0  0  0
    2.9650   59.2930   71.1570 C   0  0  0  0  0  0  0  0  0  0  0  0
    2.2590   60.3110   71.7910 C   0  0  0  0  0  0  0  0  0  0  0  0
    2.4650   61.6270   71.3890 C   0  0  0  0  0  0  0  0  0  0  0  0
    2.8740   57.8740   71.5740 C   0  0  0  0  0  0  0  0  0  0  0  0
    2.3160   57.5890   72.6240 O   0  0  0  0  0  0  0  0  0  0  0  0
    3.4270   56.9270   70.7650 N   0  0  0  0  0  0  0  0  0  0  0  0
    2.4720   65.6421   68.9777 H   0  0  0  0  0  0  0  0  0  0  0  0
    1.9721   63.9307   71.4689 H   0  0  0  0  0  0  0  0  0  0  0  0
    0.0196   65.4214   70.8130 H   0  0  0  0  0  0  0  0  0  0  0  0
    1.0694   66.8710   71.0444 H   0  0  0  0  0  0  0  0  0  0  0  0
   -2.8005   66.7034   67.4225 H   0  0  0  0  0  0  0  0  0  0  0  0
   -1.6935   65.6207   69.3716 H   0  0  0  0  0  0  0  0  0  0  0  0
    1.7952   67.9696   68.7611 H   0  0  0  0  0  0  0  0  0  0  0  0
   -1.0895   69.1458   65.0927 H   0  0  0  0  0  0  0  0  0  0  0  0
   -4.2625   69.4450   64.2480 H   0  0  0  0  0  0  0  0  0  0  0  0
    3.5977   63.3978   68.9004 H   0  0  0  0  0  0  0  0  0  0  0  0
    4.5096   63.6893   70.4286 H   0  0  0  0  0  0  0  0  0  0  0  0
    4.7050   61.1926   68.9393 H   0  0  0  0  0  0  0  0  0  0  0  0
    4.4158   58.8208   69.6183 H   0  0  0  0  0  0  0  0  0  0  0  0
    1.5486   60.0787   72.5980 H   0  0  0  0  0  0  0  0  0  0  0  0
    1.9056   62.4375   71.8792 H   0  0  0  0  0  0  0  0  0  0  0  0
    3.3792   55.9325   71.0289 H   0  0  0  0  0  0  0  0  0  0  0  0
    3.8928   57.2057   69.8896 H   0  0  0  0  0  0  0  0  0  0  0  0
  2  1  2  0
  3  1  1  0
  5  4  2  0
  6  5  1  0
  7  6  2  0
  7  3  1  0
  8  7  1  0
  9  4  1  0
  9  8  2  0
 10  9  1  0
 12 11  2  0
 12  4  1  0
 13 11  1  0
 14  2  1  0
 15 14  1  0
 16 15  2  0
 17 16  1  0
 18 17  2  0
 19 18  1  0
 20 19  2  0
 20 15  1  0
 21 18  1  0
 22 21  2  0
 23 21  1  0
  1 24  1  0
  2 25  1  0
  3 26  1  0
  3 27  1  0
  5 28  1  0
  6 29  1  0
  8 30  1  0
 12 31  1  0
 13 32  1  0
 14 33  1  0
 14 34  1  0
 16 35  1  0
 17 36  1  0
 19 37  1  0
 20 38  1  0
 23 39  1  0
 23 40  1  0
M  CHG  2   7   1  15   1
M  END
>  <score>  (7) 
-8.48

$$$$
=
     RDKit          3D

 40 41  0  0  0  0  0  0  0  0999 V2000
    1.0270   66.9640   69.4810 C   0  0  0  0  0  0  0  0  0  0  0  0
    0.9640   67.5270   68.2560 C   0  0  0  0  0  0  0  0  0  0  0  0
    0.1340   65.8430   69.9700 C   0  0  0  0  0  0  0  0  0  0  0  0
    2.4760   62.5930   71.3910 C   0  0  0  0  0  0  0  0  0  0  0  0
    1.0920   62.5910   71.5640 C   0  0  0  0  0  0  0  0  0  0  0  0
    0.3450   63.6630   71.0900 C   0  0  0  0  0  0  0  0  0  0  0  0
    0.9480   64.7000   70.4560 N   0  0  0  0  0  4  0  0  0  0  0  0
    2.2970   64.7180   70.3000 C   0  0  0  0  0  0  0  0  0  0  0  0
    3.0790   63.6660   70.7590 C   0  0  0  0  0  0  0  0  0  0  0  0
    4.4030   63.7110   70.5720 F   0  0  0  0  0  0  0  0  0  0  0  0
    3.8010   61.4860   73.0600 N   0  0  0  0  0  0  0  0  0  0  0  0
    3.3000   61.4730   71.8670 C   0  0  0  0  0  0  0  0  0  0  0  0
    4.5280   60.3050   73.2430 O   0  0  0  0  0  0  0  0  0  0  0  0
    1.7670   68.7300   67.8030 C   0  0  0  0  0  0  0  0  0  0  0  0
    1.9100   68.7310   66.3260 N   0  0  0  0  0  4  0  0  0  0  0  0
    3.1410   68.8560   65.7750 C   0  0  0  0  0  0  0  0  0  0  0  0
    3.3050   68.8390   64.3990 C   0  0  0  0  0  0  0  0  0  0  0  0
    2.1870   68.7130   63.5750 C   0  0  0  0  0  0  0  0  0  0  0  0
    0.9250   68.6100   64.1510 C   0  0  0  0  0  0  0  0  0  0  0  0
    0.8100   68.6260   65.5370 C   0  0  0  0  0  0  0  0  0  0  0  0
    2.4130   68.6210   62.1140 C   0  0  0  0  0  0  0  0  0  0  0  0
    3.4410   68.1100   61.6950 O   0  0  0  0  0  0  0  0  0  0  0  0
    1.4570   69.1190   61.2800 N   0  0  0  0  0  0  0  0  0  0  0  0
    1.7857   67.3492   70.1781 H   0  0  0  0  0  0  0  0  0  0  0  0
    0.2740   67.0763   67.5274 H   0  0  0  0  0  0  0  0  0  0  0  0
   -0.4948   66.2145   70.7925 H   0  0  0  0  0  0  0  0  0  0  0  0
   -0.4947   65.5007   69.1348 H   0  0  0  0  0  0  0  0  0  0  0  0
    0.5967   61.7495   72.0705 H   0  0  0  0  0  0  0  0  0  0  0  0
   -0.7460   63.6708   71.2303 H   0  0  0  0  0  0  0  0  0  0  0  0
    2.7757   65.5755   69.8045 H   0  0  0  0  0  0  0  0  0  0  0  0
    3.4924   60.6168   71.2038 H   0  0  0  0  0  0  0  0  0  0  0  0
    4.9878   60.1350   74.1031 H   0  0  0  0  0  0  0  0  0  0  0  0
    1.2513   69.6492   68.1177 H   0  0  0  0  0  0  0  0  0  0  0  0
    2.7674   68.6827   68.2580 H   0  0  0  0  0  0  0  0  0  0  0  0
    4.0197   68.9722   66.4265 H   0  0  0  0  0  0  0  0  0  0  0  0
    4.3099   68.9243   63.9599 H   0  0  0  0  0  0  0  0  0  0  0  0
    0.0298   68.5171   63.5186 H   0  0  0  0  0  0  0  0  0  0  0  0
   -0.1851   68.5526   66.0000 H   0  0  0  0  0  0  0  0  0  0  0  0
    1.5870   69.0689   60.2595 H   0  0  0  0  0  0  0  0  0  0  0  0
    0.6045   69.5455   61.6702 H   0  0  0  0  0  0  0  0  0  0  0  0
  2  1  2  0
  3  1  1  0
  5  4  2  0
  6  5  1  0
  7  6  2  0
  7  3  1  0
  8  7  1  0
  9  4  1  0
  9  8  2  0
 10  9  1  0
 12 11  2  0
 12  4  1  0
 13 11  1  0
 14  2  1  0
 15 14  1  0
 16 15  2  0
 17 16  1  0
 18 17  2  0
 19 18  1  0
 20 19  2  0
 20 15  1  0
 21 18  1  0
 22 21  2  0
 23 21  1  0
  1 24  1  0
  2 25  1  0
  3 26  1  0
  3 27  1  0
  5 28  1  0
  6 29  1  0
  8 30  1  0
 12 31  1  0
 13 32  1  0
 14 33  1  0
 14 34  1  0
 16 35  1  0
 17 36  1  0
 19 37  1  0
 20 38  1  0
 23 39  1  0
 23 40  1  0
M  CHG  2   7   1  15   1
M  END
>  <score>  (8) 
-8.415

$$$$
=
     RDKit          3D

 40 41  0  0  0  0  0  0  0  0999 V2000
    0.8570   66.8520   69.0400 C   0  0  0  0  0  0  0  0  0  0  0  0
    1.3050   66.1370   70.0940 C   0  0  0  0  0  0  0  0  0  0  0  0
    1.4700   68.1440   68.5420 C   0  0  0  0  0  0  0  0  0  0  0  0
    0.6010   68.7540   64.4270 C   0  0  0  0  0  0  0  0  0  0  0  0
    1.9220   68.6330   64.8550 C   0  0  0  0  0  0  0  0  0  0  0  0
    2.1840   68.4330   66.2050 C   0  0  0  0  0  0  0  0  0  0  0  0
    1.1690   68.3440   67.1010 N   0  0  0  0  0  4  0  0  0  0  0  0
   -0.1200   68.4780   66.6940 C   0  0  0  0  0  0  0  0  0  0  0  0
   -0.4230   68.6800   65.3540 C   0  0  0  0  0  0  0  0  0  0  0  0
   -1.7050   68.7900   64.9880 F   0  0  0  0  0  0  0  0  0  0  0  0
    1.2250   69.1200   62.1370 N   0  0  0  0  0  0  0  0  0  0  0  0
    0.2810   68.9550   63.0060 C   0  0  0  0  0  0  0  0  0  0  0  0
    0.6380   69.2810   60.8780 O   0  0  0  0  0  0  0  0  0  0  0  0
    0.6240   64.9140   70.6750 C   0  0  0  0  0  0  0  0  0  0  0  0
    1.5690   63.7720   70.7310 N   0  0  0  0  0  4  0  0  0  0  0  0
    1.1900   62.6210   71.3350 C   0  0  0  0  0  0  0  0  0  0  0  0
    2.0470   61.5330   71.3830 C   0  0  0  0  0  0  0  0  0  0  0  0
    3.3190   61.6330   70.8210 C   0  0  0  0  0  0  0  0  0  0  0  0
    3.7070   62.8280   70.2250 C   0  0  0  0  0  0  0  0  0  0  0  0
    2.8110   63.8920   70.1960 C   0  0  0  0  0  0  0  0  0  0  0  0
    4.1730   60.4230   70.8240 C   0  0  0  0  0  0  0  0  0  0  0  0
    4.3880   59.8350   69.7750 O   0  0  0  0  0  0  0  0  0  0  0  0
    4.6910   60.0010   72.0130 N   0  0  0  0  0  0  0  0  0  0  0  0
   -0.0211   66.4662   68.5014 H   0  0  0  0  0  0  0  0  0  0  0  0
    2.2398   66.4689   70.5695 H   0  0  0  0  0  0  0  0  0  0  0  0
    1.0572   68.9855   69.1178 H   0  0  0  0  0  0  0  0  0  0  0  0
    2.5610   68.0925   68.6727 H   0  0  0  0  0  0  0  0  0  0  0  0
    2.7484   68.6952   64.1317 H   0  0  0  0  0  0  0  0  0  0  0  0
    3.2246   68.3460   66.5507 H   0  0  0  0  0  0  0  0  0  0  0  0
   -0.9324   68.4259   67.4338 H   0  0  0  0  0  0  0  0  0  0  0  0
   -0.7693   68.9651   62.6793 H   0  0  0  0  0  0  0  0  0  0  0  0
    1.2077   69.4206   60.0804 H   0  0  0  0  0  0  0  0  0  0  0  0
    0.2728   65.1437   71.6918 H   0  0  0  0  0  0  0  0  0  0  0  0
   -0.2267   64.6413   70.0332 H   0  0  0  0  0  0  0  0  0  0  0  0
    0.1921   62.5488   71.7921 H   0  0  0  0  0  0  0  0  0  0  0  0
    1.7256   60.5962   71.8616 H   0  0  0  0  0  0  0  0  0  0  0  0
    4.7088   62.9307   69.7824 H   0  0  0  0  0  0  0  0  0  0  0  0
    3.1130   64.8432   69.7334 H   0  0  0  0  0  0  0  0  0  0  0  0
    5.2884   59.1626   72.0459 H   0  0  0  0  0  0  0  0  0  0  0  0
    4.4848   60.5207   72.8780 H   0  0  0  0  0  0  0  0  0  0  0  0
  2  1  2  0
  3  1  1  0
  5  4  2  0
  6  5  1  0
  7  6  2  0
  7  3  1  0
  8  7  1  0
  9  4  1  0
  9  8  2  0
 10  9  1  0
 12 11  2  0
 12  4  1  0
 13 11  1  0
 14  2  1  0
 15 14  1  0
 16 15  2  0
 17 16  1  0
 18 17  2  0
 19 18  1  0
 20 19  2  0
 20 15  1  0
 21 18  1  0
 22 21  2  0
 23 21  1  0
  1 24  1  0
  2 25  1  0
  3 26  1  0
  3 27  1  0
  5 28  1  0
  6 29  1  0
  8 30  1  0
 12 31  1  0
 13 32  1  0
 14 33  1  0
 14 34  1  0
 16 35  1  0
 17 36  1  0
 19 37  1  0
 20 38  1  0
 23 39  1  0
 23 40  1  0
M  CHG  2   7   1  15   1
M  END
>  <score>  (9) 
-8.308

$$$$
