=
     RDKit          3D

 13 13  0  0  0  0  0  0  0  0999 V2000
    4.9410   70.4500   67.6310 C   0  0  0  0  0  0  0  0  0  0  0  0
    5.1150   69.9220   66.3460 C   0  0  0  0  0  0  0  0  0  0  0  0
    4.0910   69.1970   65.7460 C   0  0  0  0  0  0  0  0  0  0  0  0
    2.9140   69.0190   66.4560 C   0  0  0  0  0  0  0  0  0  0  0  0
    2.6970   69.5060   67.6940 N   0  0  0  0  0  0  0  0  0  0  0  0
    3.7190   70.2120   68.2510 C   0  0  0  0  0  0  0  0  0  0  0  0
    6.0300   72.4940   68.1190 O   0  0  0  0  0  1  0  0  0  0  0  0
    6.0150   71.2400   68.3230 C   0  0  0  0  0  0  0  0  0  0  0  0
    6.8250   70.5960   69.0590 O   0  0  0  0  0  0  0  0  0  0  0  0
    6.0626   70.0808   65.8104 H   0  0  0  0  0  0  0  0  0  0  0  0
    4.2117   68.7768   64.7366 H   0  0  0  0  0  0  0  0  0  0  0  0
    2.1063   68.4442   65.9793 H   0  0  0  0  0  0  0  0  0  0  0  0
    3.5680   70.6223   69.2604 H   0  0  0  0  0  0  0  0  0  0  0  0
  2  1  2  0
  3  2  1  0
  4  3  2  0
  5  4  1  0
  6  5  2  0
  6  1  1  0
  8  1  1  0
  8  7  1  0
  9  8  2  0
  2 10  1  0
  3 11  1  0
  4 12  1  0
  6 13  1  0
M  CHG  1   7  -1
M  END
>  <score>  (1) 
-5.855

$$$$
=
     RDKit          3D

 13 13  0  0  0  0  0  0  0  0999 V2000
    4.7320   70.5080   67.9560 C   0  0  0  0  0  0  0  0  0  0  0  0
    3.5860   70.3900   68.7520 C   0  0  0  0  0  0  0  0  0  0  0  0
    2.4900   69.6670   68.2930 C   0  0  0  0  0  0  0  0  0  0  0  0
    2.5740   69.0790   67.0410 C   0  0  0  0  0  0  0  0  0  0  0  0
    3.6530   69.1620   66.2370 N   0  0  0  0  0  0  0  0  0  0  0  0
    4.7070   69.8770   66.7170 C   0  0  0  0  0  0  0  0  0  0  0  0
    5.9980   72.5040   68.0810 O   0  0  0  0  0  1  0  0  0  0  0  0
    5.9420   71.2770   68.4050 C   0  0  0  0  0  0  0  0  0  0  0  0
    6.8150   70.6430   69.0750 O   0  0  0  0  0  0  0  0  0  0  0  0
    3.5525   70.8696   69.7414 H   0  0  0  0  0  0  0  0  0  0  0  0
    1.5825   69.5649   68.9063 H   0  0  0  0  0  0  0  0  0  0  0  0
    1.7054   68.5085   66.6804 H   0  0  0  0  0  0  0  0  0  0  0  0
    5.6006   69.9616   66.0811 H   0  0  0  0  0  0  0  0  0  0  0  0
  2  1  2  0
  3  2  1  0
  4  3  2  0
  5  4  1  0
  6  5  2  0
  6  1  1  0
  8  1  1  0
  8  7  1  0
  9  8  2  0
  2 10  1  0
  3 11  1  0
  4 12  1  0
  6 13  1  0
M  CHG  1   7  -1
M  END
>  <score>  (2) 
-5.651

$$$$
=
     RDKit          3D

 13 13  0  0  0  0  0  0  0  0999 V2000
    4.4060   70.0690   67.5610 C   0  0  0  0  0  0  0  0  0  0  0  0
    5.3330   69.9900   66.5150 C   0  0  0  0  0  0  0  0  0  0  0  0
    4.9500   69.4780   65.2800 C   0  0  0  0  0  0  0  0  0  0  0  0
    3.6380   69.0570   65.1280 C   0  0  0  0  0  0  0  0  0  0  0  0
    2.7080   69.1120   66.1020 N   0  0  0  0  0  0  0  0  0  0  0  0
    3.1180   69.6190   67.2980 C   0  0  0  0  0  0  0  0  0  0  0  0
    3.8220   70.7860   69.7410 O   0  0  0  0  0  1  0  0  0  0  0  0
    4.7710   70.6130   68.9130 C   0  0  0  0  0  0  0  0  0  0  0  0
    5.9990   70.8590   69.1260 O   0  0  0  0  0  0  0  0  0  0  0  0
    6.3664   70.3336   66.6702 H   0  0  0  0  0  0  0  0  0  0  0  0
    5.6668   69.4091   64.4485 H   0  0  0  0  0  0  0  0  0  0  0  0
    3.3368   68.6524   64.1505 H   0  0  0  0  0  0  0  0  0  0  0  0
    2.3791   69.6760   68.1109 H   0  0  0  0  0  0  0  0  0  0  0  0
  2  1  2  0
  3  2  1  0
  4  3  2  0
  5  4  1  0
  6  5  2  0
  6  1  1  0
  8  1  1  0
  8  7  1  0
  9  8  2  0
  2 10  1  0
  3 11  1  0
  4 12  1  0
  6 13  1  0
M  CHG  1   7  -1
M  END
>  <score>  (3) 
-5.609

$$$$
=
     RDKit          3D

 13 13  0  0  0  0  0  0  0  0999 V2000
    3.6690   68.7800   63.3410 C   0  0  0  0  0  0  0  0  0  0  0  0
    4.9360   69.2390   63.7200 C   0  0  0  0  0  0  0  0  0  0  0  0
    5.1740   69.6210   65.0360 C   0  0  0  0  0  0  0  0  0  0  0  0
    4.1280   69.5330   65.9400 C   0  0  0  0  0  0  0  0  0  0  0  0
    2.8910   69.0980   65.6260 N   0  0  0  0  0  0  0  0  0  0  0  0
    2.6930   68.7320   64.3300 C   0  0  0  0  0  0  0  0  0  0  0  0
    2.5680   69.0930   61.2680 O   0  0  0  0  0  1  0  0  0  0  0  0
    3.3610   68.3550   61.9330 C   0  0  0  0  0  0  0  0  0  0  0  0
    3.9160   67.2920   61.5150 O   0  0  0  0  0  0  0  0  0  0  0  0
    5.7443   69.2976   62.9762 H   0  0  0  0  0  0  0  0  0  0  0  0
    6.1643   69.9826   65.3500 H   0  0  0  0  0  0  0  0  0  0  0  0
    4.3187   69.8373   66.9798 H   0  0  0  0  0  0  0  0  0  0  0  0
    1.6925   68.3738   64.0458 H   0  0  0  0  0  0  0  0  0  0  0  0
  2  1  2  0
  3  2  1  0
  4  3  2  0
  5  4  1  0
  6  5  2  0
  6  1  1  0
  8  1  1  0
  8  7  1  0
  9  8  2  0
  2 10  1  0
  3 11  1  0
  4 12  1  0
  6 13  1  0
M  CHG  1   7  -1
M  END
>  <score>  (4) 
-5.481

$$$$
=
     RDKit          3D

 13 13  0  0  0  0  0  0  0  0999 V2000
    4.6040   69.8010   66.7810 C   0  0  0  0  0  0  0  0  0  0  0  0
    4.0080   70.1660   67.9940 C   0  0  0  0  0  0  0  0  0  0  0  0
    4.7830   70.6860   69.0250 C   0  0  0  0  0  0  0  0  0  0  0  0
    6.1450   70.8270   68.8090 C   0  0  0  0  0  0  0  0  0  0  0  0
    6.7680   70.4920   67.6610 N   0  0  0  0  0  0  0  0  0  0  0  0
    5.9780   69.9860   66.6740 C   0  0  0  0  0  0  0  0  0  0  0  0
    4.2420   69.4670   64.4660 O   0  0  0  0  0  1  0  0  0  0  0  0
    3.8110   69.2360   65.6380 C   0  0  0  0  0  0  0  0  0  0  0  0
    2.7700   68.5690   65.9300 O   0  0  0  0  0  0  0  0  0  0  0  0
    2.9239   70.0412   68.1320 H   0  0  0  0  0  0  0  0  0  0  0  0
    4.3286   70.9768   69.9836 H   0  0  0  0  0  0  0  0  0  0  0  0
    6.7563   71.2382   69.6258 H   0  0  0  0  0  0  0  0  0  0  0  0
    6.4602   69.7041   65.7264 H   0  0  0  0  0  0  0  0  0  0  0  0
  2  1  2  0
  3  2  1  0
  4  3  2  0
  5  4  1  0
  6  5  2  0
  6  1  1  0
  8  1  1  0
  8  7  1  0
  9  8  2  0
  2 10  1  0
  3 11  1  0
  4 12  1  0
  6 13  1  0
M  CHG  1   7  -1
M  END
>  <score>  (5) 
-5.391

$$$$
=
     RDKit          3D

 13 13  0  0  0  0  0  0  0  0999 V2000
    4.9000   69.7860   66.3510 C   0  0  0  0  0  0  0  0  0  0  0  0
    3.5780   69.3280   66.4030 C   0  0  0  0  0  0  0  0  0  0  0  0
    2.9380   68.9120   65.2400 C   0  0  0  0  0  0  0  0  0  0  0  0
    3.6460   68.9670   64.0500 C   0  0  0  0  0  0  0  0  0  0  0  0
    4.9190   69.3980   63.9470 N   0  0  0  0  0  0  0  0  0  0  0  0
    5.5150   69.7980   65.1040 C   0  0  0  0  0  0  0  0  0  0  0  0
    4.9320   70.5450   68.5930 O   0  0  0  0  0  1  0  0  0  0  0  0
    5.6350   70.2470   67.5770 C   0  0  0  0  0  0  0  0  0  0  0  0
    6.9020   70.3020   67.5060 O   0  0  0  0  0  0  0  0  0  0  0  0
    3.0448   69.2971   67.3646 H   0  0  0  0  0  0  0  0  0  0  0  0
    1.8996   68.5498   65.2643 H   0  0  0  0  0  0  0  0  0  0  0  0
    3.1372   68.6383   63.1318 H   0  0  0  0  0  0  0  0  0  0  0  0
    6.5540   70.1550   65.0484 H   0  0  0  0  0  0  0  0  0  0  0  0
  2  1  2  0
  3  2  1  0
  4  3  2  0
  5  4  1  0
  6  5  2  0
  6  1  1  0
  8  1  1  0
  8  7  1  0
  9  8  2  0
  2 10  1  0
  3 11  1  0
  4 12  1  0
  6 13  1  0
M  CHG  1   7  -1
M  END
>  <score>  (6) 
-5.344

$$$$
=
     RDKit          3D

 13 13  0  0  0  0  0  0  0  0999 V2000
    4.2380   69.4640   65.5090 C   0  0  0  0  0  0  0  0  0  0  0  0
    5.5380   69.9190   65.7610 C   0  0  0  0  0  0  0  0  0  0  0  0
    5.8960   70.3350   67.0390 C   0  0  0  0  0  0  0  0  0  0  0  0
    4.9330   70.2830   68.0350 C   0  0  0  0  0  0  0  0  0  0  0  0
    3.6690   69.8540   67.8440 N   0  0  0  0  0  0  0  0  0  0  0  0
    3.3540   69.4540   66.5810 C   0  0  0  0  0  0  0  0  0  0  0  0
    2.6050   68.5960   64.0310 O   0  0  0  0  0  1  0  0  0  0  0  0
    3.8030   69.0040   64.1470 C   0  0  0  0  0  0  0  0  0  0  0  0
    4.6640   69.0590   63.2140 O   0  0  0  0  0  0  0  0  0  0  0  0
    6.2773   69.9475   64.9470 H   0  0  0  0  0  0  0  0  0  0  0  0
    6.9132   70.6947   67.2532 H   0  0  0  0  0  0  0  0  0  0  0  0
    5.2181   70.6126   69.0450 H   0  0  0  0  0  0  0  0  0  0  0  0
    2.3294   69.0986   66.3968 H   0  0  0  0  0  0  0  0  0  0  0  0
  2  1  2  0
  3  2  1  0
  4  3  2  0
  5  4  1  0
  6  5  2  0
  6  1  1  0
  8  1  1  0
  8  7  1  0
  9  8  2  0
  2 10  1  0
  3 11  1  0
  4 12  1  0
  6 13  1  0
M  CHG  1   7  -1
M  END
>  <score>  (7) 
-5.265

$$$$
=
     RDKit          3D

 13 13  0  0  0  0  0  0  0  0999 V2000
    3.6570   66.8710   64.0400 C   0  0  0  0  0  0  0  0  0  0  0  0
    3.8920   68.2120   64.3680 C   0  0  0  0  0  0  0  0  0  0  0  0
    3.1810   68.8120   65.4020 C   0  0  0  0  0  0  0  0  0  0  0  0
    2.2480   68.0460   66.0820 C   0  0  0  0  0  0  0  0  0  0  0  0
    1.9850   66.7530   65.8060 N   0  0  0  0  0  0  0  0  0  0  0  0
    2.6990   66.1970   64.7890 C   0  0  0  0  0  0  0  0  0  0  0  0
    5.2150   66.8790   62.2570 O   0  0  0  0  0  1  0  0  0  0  0  0
    4.3980   66.1780   62.9330 C   0  0  0  0  0  0  0  0  0  0  0  0
    4.1530   64.9440   62.7570 O   0  0  0  0  0  0  0  0  0  0  0  0
    4.6399   68.7917   63.8071 H   0  0  0  0  0  0  0  0  0  0  0  0
    3.3544   69.8641   65.6720 H   0  0  0  0  0  0  0  0  0  0  0  0
    1.6864   68.5231   66.8987 H   0  0  0  0  0  0  0  0  0  0  0  0
    2.5047   65.1426   64.5431 H   0  0  0  0  0  0  0  0  0  0  0  0
  2  1  2  0
  3  2  1  0
  4  3  2  0
  5  4  1  0
  6  5  2  0
  6  1  1  0
  8  1  1  0
  8  7  1  0
  9  8  2  0
  2 10  1  0
  3 11  1  0
  4 12  1  0
  6 13  1  0
M  CHG  1   7  -1
M  END
>  <score>  (8) 
-5.189

$$$$
=
     RDKit          3D

 13 13  0  0  0  0  0  0  0  0999 V2000
    4.2700   69.3570   65.2440 C   0  0  0  0  0  0  0  0  0  0  0  0
    3.0890   69.1380   65.9620 C   0  0  0  0  0  0  0  0  0  0  0  0
    3.0040   69.5180   67.2970 C   0  0  0  0  0  0  0  0  0  0  0  0
    4.1140   70.1110   67.8790 C   0  0  0  0  0  0  0  0  0  0  0  0
    5.2730   70.3440   67.2310 N   0  0  0  0  0  0  0  0  0  0  0  0
    5.3210   69.9600   65.9260 C   0  0  0  0  0  0  0  0  0  0  0  0
    5.3360   69.5320   63.1370 O   0  0  0  0  0  1  0  0  0  0  0  0
    4.4120   68.9650   63.8010 C   0  0  0  0  0  0  0  0  0  0  0  0
    3.6000   68.0970   63.3540 O   0  0  0  0  0  0  0  0  0  0  0  0
    2.2267   68.6646   65.4697 H   0  0  0  0  0  0  0  0  0  0  0  0
    2.0826   69.3529   67.8747 H   0  0  0  0  0  0  0  0  0  0  0  0
    4.0446   70.4100   68.9353 H   0  0  0  0  0  0  0  0  0  0  0  0
    6.2550   70.1389   65.3732 H   0  0  0  0  0  0  0  0  0  0  0  0
  2  1  2  0
  3  2  1  0
  4  3  2  0
  5  4  1  0
  6  5  2  0
  6  1  1  0
  8  1  1  0
  8  7  1  0
  9  8  2  0
  2 10  1  0
  3 11  1  0
  4 12  1  0
  6 13  1  0
M  CHG  1   7  -1
M  END
>  <score>  (9) 
-5.107

$$$$
