=
     RDKit          3D

 52 56  0  0  0  0  0  0  0  0999 V2000
    2.9980   62.7590   70.3710 C   0  0  2  0  0  0  0  0  0  0  0  0
    3.3650   61.8360   69.1790 C   0  0  0  0  0  0  0  0  0  0  0  0
    3.3790   60.3910   69.7220 C   0  0  0  0  0  0  0  0  0  0  0  0
    2.8570   60.5080   71.1540 C   0  0  2  0  0  0  0  0  0  0  0  0
    3.3810   61.8940   71.6100 C   0  0  1  0  0  0  0  0  0  0  0  0
    4.9270   61.9470   71.8080 C   0  0  0  0  0  0  0  0  0  0  0  0
    2.7230   62.2550   72.9570 C   0  0  0  0  0  0  0  0  0  0  0  0
    2.9360   61.1560   74.0190 C   0  0  0  0  0  0  0  0  0  0  0  0
    2.4840   59.7630   73.5160 C   0  0  1  0  0  0  0  0  0  0  0  0
    3.1810   59.3990   72.1640 C   0  0  1  0  0  0  0  0  0  0  0  0
    2.8310   57.9790   71.6720 C   0  0  0  0  0  0  0  0  0  0  0  0
    1.7170   57.2950   72.4570 C   0  0  0  0  0  0  0  0  0  0  0  0
    1.8830   57.3580   73.9580 C   0  0  0  0  0  0  0  0  0  0  0  0
    1.3370   56.3970   74.7380 C   0  0  0  0  0  0  0  0  0  0  0  0
    1.3400   56.6060   76.1370 C   0  0  0  0  0  0  0  0  0  0  0  0
    1.6390   57.8100   76.7420 C   0  0  0  0  0  0  0  0  0  0  0  0
    1.9900   59.0120   75.9430 C   0  0  0  0  0  0  0  0  0  0  0  0
    2.6130   58.6010   74.5540 C   0  0  2  0  0  0  0  0  0  0  0  0
    4.0970   58.2240   74.8050 C   0  0  0  0  0  0  0  0  0  0  0  0
    1.5070   57.5730   78.1150 C   0  0  0  0  0  0  0  0  0  0  0  0
    1.1420   56.3110   78.3630 N   0  0  0  0  0  0  0  0  0  0  0  0
    1.0270   55.7070   77.1170 O   0  0  0  0  0  0  0  0  0  0  0  0
    0.4050   63.4340   70.2720 C   0  0  0  0  0  0  0  0  0  0  0  0
    1.5660   63.1250   70.3100 C   0  0  0  0  0  0  0  0  0  0  0  0
    3.7570   63.9570   70.2990 O   0  0  0  0  0  0  0  0  0  0  0  0
    2.6152   61.9331   68.3800 H   0  0  0  0  0  0  0  0  0  0  0  0
    4.3431   62.1081   68.7555 H   0  0  0  0  0  0  0  0  0  0  0  0
    2.7219   59.7448   69.1214 H   0  0  0  0  0  0  0  0  0  0  0  0
    4.3820   59.9412   69.6807 H   0  0  0  0  0  0  0  0  0  0  0  0
    1.7633   60.3916   71.1349 H   0  0  0  0  0  0  0  0  0  0  0  0
    5.1589   61.9549   72.8833 H   0  0  0  0  0  0  0  0  0  0  0  0
    5.3871   61.0641   71.3402 H   0  0  0  0  0  0  0  0  0  0  0  0
    5.3255   62.8593   71.3402 H   0  0  0  0  0  0  0  0  0  0  0  0
    3.1611   63.1943   73.3255 H   0  0  0  0  0  0  0  0  0  0  0  0
    1.6409   62.3589   72.7888 H   0  0  0  0  0  0  0  0  0  0  0  0
    4.0053   61.1113   74.2733 H   0  0  0  0  0  0  0  0  0  0  0  0
    2.3265   61.4124   74.8981 H   0  0  0  0  0  0  0  0  0  0  0  0
    1.4010   59.8639   73.3518 H   0  0  0  0  0  0  0  0  0  0  0  0
    4.2713   59.3556   72.3029 H   0  0  0  0  0  0  0  0  0  0  0  0
    2.5179   58.0473   70.6197 H   0  0  0  0  0  0  0  0  0  0  0  0
    3.7343   57.3673   71.8129 H   0  0  0  0  0  0  0  0  0  0  0  0
    0.7644   57.7788   72.1954 H   0  0  0  0  0  0  0  0  0  0  0  0
    1.7463   56.2304   72.1818 H   0  0  0  0  0  0  0  0  0  0  0  0
    0.9058   55.4849   74.2996 H   0  0  0  0  0  0  0  0  0  0  0  0
    1.0812   59.6066   75.7685 H   0  0  0  0  0  0  0  0  0  0  0  0
    2.7326   59.6010   76.5012 H   0  0  0  0  0  0  0  0  0  0  0  0
    4.2851   58.1762   75.8877 H   0  0  0  0  0  0  0  0  0  0  0  0
    4.3079   57.2438   74.3526 H   0  0  0  0  0  0  0  0  0  0  0  0
    4.7501   58.9847   74.3526 H   0  0  0  0  0  0  0  0  0  0  0  0
    1.6818   58.3306   78.8931 H   0  0  0  0  0  0  0  0  0  0  0  0
   -0.6575   63.7168   70.2372 H   0  0  0  0  0  0  0  0  0  0  0  0
    3.9587   64.2754   71.2144 H   0  0  0  0  0  0  0  0  0  0  0  0
  2  1  1  0
  3  2  1  0
  4  3  1  0
  5  1  1  0
  5  4  1  0
  5  6  1  1
  7  5  1  0
  8  7  1  0
  9  8  1  0
 10  9  1  0
 10  4  1  0
 11 10  1  0
 12 11  1  0
 13 12  1  0
 14 13  2  0
 15 14  1  0
 16 15  2  0
 17 16  1  0
 18 17  1  0
 18 13  1  0
 18  9  1  0
 18 19  1  1
 20 16  1  0
 21 20  2  0
 22 15  1  0
 22 21  1  0
 24 23  3  0
  1 24  1  1
 25  1  1  0
  2 26  1  0
  2 27  1  0
  3 28  1  0
  3 29  1  0
  4 30  1  6
  6 31  1  0
  6 32  1  0
  6 33  1  0
  7 34  1  0
  7 35  1  0
  8 36  1  0
  8 37  1  0
  9 38  1  6
 10 39  1  1
 11 40  1  0
 11 41  1  0
 12 42  1  0
 12 43  1  0
 14 44  1  0
 17 45  1  0
 17 46  1  0
 19 47  1  0
 19 48  1  0
 19 49  1  0
 20 50  1  0
 23 51  1  0
 25 52  1  0
M  END
>  <score>  (1) 
-8.388

$$$$
=
     RDKit          3D

 52 56  0  0  0  0  0  0  0  0999 V2000
    4.0180   60.4050   70.7820 C   0  0  2  0  0  0  0  0  0  0  0  0
    3.7390   58.8850   70.6470 C   0  0  0  0  0  0  0  0  0  0  0  0
    2.5850   58.5560   71.6180 C   0  0  0  0  0  0  0  0  0  0  0  0
    2.1250   59.9120   72.1510 C   0  0  2  0  0  0  0  0  0  0  0  0
    3.4350   60.7400   72.1890 C   0  0  1  0  0  0  0  0  0  0  0  0
    4.4440   60.2710   73.2820 C   0  0  0  0  0  0  0  0  0  0  0  0
    3.0830   62.2140   72.4760 C   0  0  0  0  0  0  0  0  0  0  0  0
    2.2410   62.3680   73.7600 C   0  0  0  0  0  0  0  0  0  0  0  0
    0.9790   61.4710   73.7420 C   0  0  1  0  0  0  0  0  0  0  0  0
    1.3550   59.9760   73.4770 C   0  0  1  0  0  0  0  0  0  0  0  0
    0.1370   59.0310   73.5420 C   0  0  0  0  0  0  0  0  0  0  0  0
   -1.2100   59.7410   73.6220 C   0  0  0  0  0  0  0  0  0  0  0  0
   -1.2770   60.8360   74.6630 C   0  0  0  0  0  0  0  0  0  0  0  0
   -2.4640   61.1640   75.2220 C   0  0  0  0  0  0  0  0  0  0  0  0
   -2.5110   62.3240   76.0300 C   0  0  0  0  0  0  0  0  0  0  0  0
   -1.5040   63.2660   76.0970 C   0  0  0  0  0  0  0  0  0  0  0  0
   -0.2590   63.1260   75.2980 C   0  0  0  0  0  0  0  0  0  0  0  0
    0.0380   61.6110   74.9830 C   0  0  2  0  0  0  0  0  0  0  0  0
    0.6770   60.9890   76.2530 C   0  0  0  0  0  0  0  0  0  0  0  0
   -1.9700   64.2360   76.9920 C   0  0  0  0  0  0  0  0  0  0  0  0
   -3.1870   63.9360   77.4540 N   0  0  0  0  0  0  0  0  0  0  0  0
   -3.5310   62.7380   76.8400 O   0  0  0  0  0  0  0  0  0  0  0  0
    2.8570   61.7550   68.7780 C   0  0  0  0  0  0  0  0  0  0  0  0
    3.3770   61.1420   69.6720 C   0  0  0  0  0  0  0  0  0  0  0  0
    5.4170   60.6410   70.7130 O   0  0  0  0  0  0  0  0  0  0  0  0
    3.4457   58.6440   69.6146 H   0  0  0  0  0  0  0  0  0  0  0  0
    4.6366   58.2959   70.8864 H   0  0  0  0  0  0  0  0  0  0  0  0
    1.7650   58.0496   71.0879 H   0  0  0  0  0  0  0  0  0  0  0  0
    2.9014   57.8784   72.4246 H   0  0  0  0  0  0  0  0  0  0  0  0
    1.3343   60.2944   71.4888 H   0  0  0  0  0  0  0  0  0  0  0  0
    4.0222   60.4671   74.2788 H   0  0  0  0  0  0  0  0  0  0  0  0
    4.6322   59.1931   73.1690 H   0  0  0  0  0  0  0  0  0  0  0  0
    5.3893   60.8220   73.1690 H   0  0  0  0  0  0  0  0  0  0  0  0
    4.0156   62.7857   72.5922 H   0  0  0  0  0  0  0  0  0  0  0  0
    2.4873   62.5916   71.6318 H   0  0  0  0  0  0  0  0  0  0  0  0
    2.8606   62.0906   74.6255 H   0  0  0  0  0  0  0  0  0  0  0  0
    1.9105   63.4152   73.8239 H   0  0  0  0  0  0  0  0  0  0  0  0
    0.3793   61.8503   72.9015 H   0  0  0  0  0  0  0  0  0  0  0  0
    2.0062   59.6040   74.2817 H   0  0  0  0  0  0  0  0  0  0  0  0
    0.1411   58.4025   72.6392 H   0  0  0  0  0  0  0  0  0  0  0  0
    0.2405   58.4504   74.4705 H   0  0  0  0  0  0  0  0  0  0  0  0
   -1.4230   60.1868   72.6392 H   0  0  0  0  0  0  0  0  0  0  0  0
   -1.9488   58.9813   73.9168 H   0  0  0  0  0  0  0  0  0  0  0  0
   -3.3613   60.5503   75.0542 H   0  0  0  0  0  0  0  0  0  0  0  0
   -0.3744   63.6749   74.3518 H   0  0  0  0  0  0  0  0  0  0  0  0
    0.5802   63.5357   75.8792 H   0  0  0  0  0  0  0  0  0  0  0  0
    0.2198   61.4340   77.1490 H   0  0  0  0  0  0  0  0  0  0  0  0
    0.5056   59.9024   76.2551 H   0  0  0  0  0  0  0  0  0  0  0  0
    1.7586   61.1896   76.2551 H   0  0  0  0  0  0  0  0  0  0  0  0
   -1.4040   65.1344   77.2794 H   0  0  0  0  0  0  0  0  0  0  0  0
    2.3812   62.3159   67.9600 H   0  0  0  0  0  0  0  0  0  0  0  0
    5.7867   60.7034   71.6293 H   0  0  0  0  0  0  0  0  0  0  0  0
  2  1  1  0
  3  2  1  0
  4  3  1  0
  5  1  1  0
  5  4  1  0
  5  6  1  1
  7  5  1  0
  8  7  1  0
  9  8  1  0
 10  9  1  0
 10  4  1  0
 11 10  1  0
 12 11  1  0
 13 12  1  0
 14 13  2  0
 15 14  1  0
 16 15  2  0
 17 16  1  0
 18 17  1  0
 18 13  1  0
 18  9  1  0
 18 19  1  1
 20 16  1  0
 21 20  2  0
 22 15  1  0
 22 21  1  0
 24 23  3  0
  1 24  1  6
 25  1  1  0
  2 26  1  0
  2 27  1  0
  3 28  1  0
  3 29  1  0
  4 30  1  6
  6 31  1  0
  6 32  1  0
  6 33  1  0
  7 34  1  0
  7 35  1  0
  8 36  1  0
  8 37  1  0
  9 38  1  6
 10 39  1  1
 11 40  1  0
 11 41  1  0
 12 42  1  0
 12 43  1  0
 14 44  1  0
 17 45  1  0
 17 46  1  0
 19 47  1  0
 19 48  1  0
 19 49  1  0
 20 50  1  0
 23 51  1  0
 25 52  1  0
M  END
>  <score>  (2) 
-7.923

$$$$
=
     RDKit          3D

 52 56  0  0  0  0  0  0  0  0999 V2000
    0.8430   56.5260   75.9850 C   0  0  2  0  0  0  0  0  0  0  0  0
    0.6020   57.4110   77.2360 C   0  0  0  0  0  0  0  0  0  0  0  0
    0.9390   58.8610   76.8290 C   0  0  0  0  0  0  0  0  0  0  0  0
    1.1970   58.7930   75.3240 C   0  0  2  0  0  0  0  0  0  0  0  0
    1.8260   57.3890   75.1360 C   0  0  1  0  0  0  0  0  0  0  0  0
    3.2620   57.2580   75.7310 C   0  0  0  0  0  0  0  0  0  0  0  0
    1.9150   57.0820   73.6270 C   0  0  0  0  0  0  0  0  0  0  0  0
    2.6700   58.1850   72.8550 C   0  0  0  0  0  0  0  0  0  0  0  0
    2.0810   59.5920   73.1200 C   0  0  1  0  0  0  0  0  0  0  0  0
    2.0230   59.8990   74.6530 C   0  0  1  0  0  0  0  0  0  0  0  0
    1.5290   61.3270   74.9600 C   0  0  0  0  0  0  0  0  0  0  0  0
    0.9810   62.0800   73.7520 C   0  0  0  0  0  0  0  0  0  0  0  0
    1.8720   62.0310   72.5320 C   0  0  0  0  0  0  0  0  0  0  0  0
    1.8240   63.0310   71.6220 C   0  0  0  0  0  0  0  0  0  0  0  0
    2.5170   62.8430   70.4030 C   0  0  0  0  0  0  0  0  0  0  0  0
    3.0320   61.6340   69.9800 C   0  0  0  0  0  0  0  0  0  0  0  0
    2.8920   60.4030   70.8010 C   0  0  0  0  0  0  0  0  0  0  0  0
    2.7540   60.7610   72.3300 C   0  0  2  0  0  0  0  0  0  0  0  0
    4.1780   61.0640   72.8660 C   0  0  0  0  0  0  0  0  0  0  0  0
    3.6110   61.8990   68.7340 C   0  0  0  0  0  0  0  0  0  0  0  0
    3.4660   63.1810   68.3870 N   0  0  0  0  0  0  0  0  0  0  0  0
    2.7690   63.7710   69.4330 O   0  0  0  0  0  0  0  0  0  0  0  0
   -1.4820   55.9820   74.7670 C   0  0  0  0  0  0  0  0  0  0  0  0
   -0.4400   56.2340   75.3100 C   0  0  0  0  0  0  0  0  0  0  0  0
    1.4200   55.2900   76.3780 O   0  0  0  0  0  0  0  0  0  0  0  0
   -0.4492   57.3412   77.5523 H   0  0  0  0  0  0  0  0  0  0  0  0
    1.2283   57.0821   78.0784 H   0  0  0  0  0  0  0  0  0  0  0  0
    0.0946   59.5312   77.0477 H   0  0  0  0  0  0  0  0  0  0  0  0
    1.8036   59.2575   77.3814 H   0  0  0  0  0  0  0  0  0  0  0  0
    0.2450   58.9659   74.8007 H   0  0  0  0  0  0  0  0  0  0  0  0
    3.2056   57.2631   76.8295 H   0  0  0  0  0  0  0  0  0  0  0  0
    3.7149   56.3148   75.3915 H   0  0  0  0  0  0  0  0  0  0  0  0
    3.8781   58.1037   75.3915 H   0  0  0  0  0  0  0  0  0  0  0  0
    2.4437   56.1272   73.4896 H   0  0  0  0  0  0  0  0  0  0  0  0
    0.8904   57.0307   73.2301 H   0  0  0  0  0  0  0  0  0  0  0  0
    3.7246   58.1778   73.1677 H   0  0  0  0  0  0  0  0  0  0  0  0
    2.5697   57.9739   71.7801 H   0  0  0  0  0  0  0  0  0  0  0  0
    1.0578   59.5454   72.7190 H   0  0  0  0  0  0  0  0  0  0  0  0
    3.0378   59.8875   75.0774 H   0  0  0  0  0  0  0  0  0  0  0  0
    0.7309   61.2598   75.7140 H   0  0  0  0  0  0  0  0  0  0  0  0
    2.4050   61.8926   75.3102 H   0  0  0  0  0  0  0  0  0  0  0  0
    0.0077   61.6422   73.4856 H   0  0  0  0  0  0  0  0  0  0  0  0
    0.9079   63.1373   74.0465 H   0  0  0  0  0  0  0  0  0  0  0  0
    1.2659   63.9574   71.8228 H   0  0  0  0  0  0  0  0  0  0  0  0
    1.9956   59.8538   70.4771 H   0  0  0  0  0  0  0  0  0  0  0  0
    3.7912   59.7844   70.6640 H   0  0  0  0  0  0  0  0  0  0  0  0
    4.1641   61.0610   73.9659 H   0  0  0  0  0  0  0  0  0  0  0  0
    4.8767   60.2944   72.5061 H   0  0  0  0  0  0  0  0  0  0  0  0
    4.5029   62.0514   72.5061 H   0  0  0  0  0  0  0  0  0  0  0  0
    4.1221   61.1454   68.1168 H   0  0  0  0  0  0  0  0  0  0  0  0
   -2.4358   55.7513   74.2700 H   0  0  0  0  0  0  0  0  0  0  0  0
    1.4448   55.2368   77.3663 H   0  0  0  0  0  0  0  0  0  0  0  0
  2  1  1  0
  3  2  1  0
  4  3  1  0
  5  1  1  0
  5  4  1  0
  5  6  1  1
  7  5  1  0
  8  7  1  0
  9  8  1  0
 10  9  1  0
 10  4  1  0
 11 10  1  0
 12 11  1  0
 13 12  1  0
 14 13  2  0
 15 14  1  0
 16 15  2  0
 17 16  1  0
 18 17  1  0
 18 13  1  0
 18  9  1  0
 18 19  1  1
 20 16  1  0
 21 20  2  0
 22 15  1  0
 22 21  1  0
 24 23  3  0
  1 24  1  6
 25  1  1  0
  2 26  1  0
  2 27  1  0
  3 28  1  0
  3 29  1  0
  4 30  1  6
  6 31  1  0
  6 32  1  0
  6 33  1  0
  7 34  1  0
  7 35  1  0
  8 36  1  0
  8 37  1  0
  9 38  1  6
 10 39  1  1
 11 40  1  0
 11 41  1  0
 12 42  1  0
 12 43  1  0
 14 44  1  0
 17 45  1  0
 17 46  1  0
 19 47  1  0
 19 48  1  0
 19 49  1  0
 20 50  1  0
 23 51  1  0
 25 52  1  0
M  END
>  <score>  (3) 
-7.83

$$$$
=
     RDKit          3D

 52 56  0  0  0  0  0  0  0  0999 V2000
    2.4810   57.2010   77.4050 C   0  0  2  0  0  0  0  0  0  0  0  0
    1.8190   55.9160   76.8450 C   0  0  0  0  0  0  0  0  0  0  0  0
    1.6040   56.1480   75.3340 C   0  0  0  0  0  0  0  0  0  0  0  0
    2.2990   57.4770   75.0410 C   0  0  2  0  0  0  0  0  0  0  0  0
    2.0910   58.2810   76.3500 C   0  0  1  0  0  0  0  0  0  0  0  0
    0.6130   58.7170   76.5920 C   0  0  0  0  0  0  0  0  0  0  0  0
    2.9530   59.5580   76.2920 C   0  0  0  0  0  0  0  0  0  0  0  0
    2.6660   60.3930   75.0260 C   0  0  0  0  0  0  0  0  0  0  0  0
    2.7970   59.5530   73.7310 C   0  0  1  0  0  0  0  0  0  0  0  0
    1.8960   58.2760   73.7940 C   0  0  1  0  0  0  0  0  0  0  0  0
    1.9230   57.4580   72.4870 C   0  0  0  0  0  0  0  0  0  0  0  0
    2.9770   57.9090   71.4810 C   0  0  0  0  0  0  0  0  0  0  0  0
    2.9970   59.3980   71.2260 C   0  0  0  0  0  0  0  0  0  0  0  0
    3.4440   59.8730   70.0410 C   0  0  0  0  0  0  0  0  0  0  0  0
    3.6390   61.2700   69.9240 C   0  0  0  0  0  0  0  0  0  0  0  0
    3.6350   62.1470   70.9910 C   0  0  0  0  0  0  0  0  0  0  0  0
    3.4200   61.6720   72.3820 C   0  0  0  0  0  0  0  0  0  0  0  0
    2.5780   60.3390   72.3970 C   0  0  2  0  0  0  0  0  0  0  0  0
    1.0890   60.7290   72.2040 C   0  0  0  0  0  0  0  0  0  0  0  0
    3.8790   63.4060   70.4300 C   0  0  0  0  0  0  0  0  0  0  0  0
    4.0340   63.3320   69.1050 N   0  0  0  0  0  0  0  0  0  0  0  0
    3.8940   61.9870   68.7900 O   0  0  0  0  0  0  0  0  0  0  0  0
    5.1210   56.8260   77.6810 C   0  0  0  0  0  0  0  0  0  0  0  0
    3.9390   57.0010   77.5530 C   0  0  0  0  0  0  0  0  0  0  0  0
    1.9490   57.4920   78.6900 O   0  0  0  0  0  0  0  0  0  0  0  0
    2.4778   55.0498   77.0053 H   0  0  0  0  0  0  0  0  0  0  0  0
    0.8652   55.7097   77.3526 H   0  0  0  0  0  0  0  0  0  0  0  0
    2.0588   55.3354   74.7485 H   0  0  0  0  0  0  0  0  0  0  0  0
    0.5378   56.1684   75.0644 H   0  0  0  0  0  0  0  0  0  0  0  0
    3.3437   57.2690   74.7666 H   0  0  0  0  0  0  0  0  0  0  0  0
    0.4199   58.7740   77.6734 H   0  0  0  0  0  0  0  0  0  0  0  0
    0.4425   59.7037   76.1366 H   0  0  0  0  0  0  0  0  0  0  0  0
   -0.0657   57.9808   76.1366 H   0  0  0  0  0  0  0  0  0  0  0  0
    2.7377   60.1722   77.1788 H   0  0  0  0  0  0  0  0  0  0  0  0
    4.0097   59.2535   76.2655 H   0  0  0  0  0  0  0  0  0  0  0  0
    1.6425   60.7912   75.0883 H   0  0  0  0  0  0  0  0  0  0  0  0
    3.4079   61.2038   74.9800 H   0  0  0  0  0  0  0  0  0  0  0  0
    3.8544   59.2513   73.7004 H   0  0  0  0  0  0  0  0  0  0  0  0
    0.8389   58.5656   73.8871 H   0  0  0  0  0  0  0  0  0  0  0  0
    2.1203   56.4067   72.7435 H   0  0  0  0  0  0  0  0  0  0  0  0
    0.9457   57.6065   72.0044 H   0  0  0  0  0  0  0  0  0  0  0  0
    3.9654   57.6114   71.8610 H   0  0  0  0  0  0  0  0  0  0  0  0
    2.7243   57.4291   70.5240 H   0  0  0  0  0  0  0  0  0  0  0  0
    3.6488   59.1971   69.1977 H   0  0  0  0  0  0  0  0  0  0  0  0
    4.3960   61.4869   72.8544 H   0  0  0  0  0  0  0  0  0  0  0  0
    2.8658   62.4443   72.9356 H   0  0  0  0  0  0  0  0  0  0  0  0
    0.6122   60.8539   73.1874 H   0  0  0  0  0  0  0  0  0  0  0  0
    1.0270   61.6737   71.6439 H   0  0  0  0  0  0  0  0  0  0  0  0
    0.5719   59.9360   71.6439 H   0  0  0  0  0  0  0  0  0  0  0  0
    3.9360   64.3401   71.0081 H   0  0  0  0  0  0  0  0  0  0  0  0
    6.2029   56.6658   77.7982 H   0  0  0  0  0  0  0  0  0  0  0  0
    2.5660   57.1545   79.3868 H   0  0  0  0  0  0  0  0  0  0  0  0
  2  1  1  0
  3  2  1  0
  4  3  1  0
  5  1  1  0
  5  4  1  0
  5  6  1  1
  7  5  1  0
  8  7  1  0
  9  8  1  0
 10  9  1  0
 10  4  1  0
 11 10  1  0
 12 11  1  0
 13 12  1  0
 14 13  2  0
 15 14  1  0
 16 15  2  0
 17 16  1  0
 18 17  1  0
 18 13  1  0
 18  9  1  0
 18 19  1  6
 20 16  1  0
 21 20  2  0
 22 15  1  0
 22 21  1  0
 24 23  3  0
  1 24  1  1
 25  1  1  0
  2 26  1  0
  2 27  1  0
  3 28  1  0
  3 29  1  0
  4 30  1  6
  6 31  1  0
  6 32  1  0
  6 33  1  0
  7 34  1  0
  7 35  1  0
  8 36  1  0
  8 37  1  0
  9 38  1  6
 10 39  1  1
 11 40  1  0
 11 41  1  0
 12 42  1  0
 12 43  1  0
 14 44  1  0
 17 45  1  0
 17 46  1  0
 19 47  1  0
 19 48  1  0
 19 49  1  0
 20 50  1  0
 23 51  1  0
 25 52  1  0
M  END
>  <score>  (4) 
-7.736

$$$$
=
     RDKit          3D

 52 56  0  0  0  0  0  0  0  0999 V2000
    2.9590   58.8770   78.0050 C   0  0  2  0  0  0  0  0  0  0  0  0
    3.9320   57.7990   77.4610 C   0  0  0  0  0  0  0  0  0  0  0  0
    4.1240   58.0890   75.9570 C   0  0  0  0  0  0  0  0  0  0  0  0
    3.3980   59.4130   75.7200 C   0  0  2  0  0  0  0  0  0  0  0  0
    2.2150   59.3520   76.7190 C   0  0  1  0  0  0  0  0  0  0  0  0
    1.1280   58.2980   76.3430 C   0  0  0  0  0  0  0  0  0  0  0  0
    1.5320   60.7340   76.7660 C   0  0  0  0  0  0  0  0  0  0  0  0
    1.1070   61.2170   75.3640 C   0  0  0  0  0  0  0  0  0  0  0  0
    2.2820   61.1920   74.3560 C   0  0  1  0  0  0  0  0  0  0  0  0
    2.9460   59.7770   74.3000 C   0  0  1  0  0  0  0  0  0  0  0  0
    4.0630   59.6810   73.2400 C   0  0  0  0  0  0  0  0  0  0  0  0
    4.4610   61.0150   72.6180 C   0  0  0  0  0  0  0  0  0  0  0  0
    3.2960   61.8550   72.1490 C   0  0  0  0  0  0  0  0  0  0  0  0
    3.4670   62.7420   71.1420 C   0  0  0  0  0  0  0  0  0  0  0  0
    2.4120   63.6470   70.8770 C   0  0  0  0  0  0  0  0  0  0  0  0
    1.3330   63.8480   71.7140 C   0  0  0  0  0  0  0  0  0  0  0  0
    1.1960   63.1060   72.9940 C   0  0  0  0  0  0  0  0  0  0  0  0
    1.9490   61.7220   72.9230 C   0  0  2  0  0  0  0  0  0  0  0  0
    1.0350   60.7360   72.1500 C   0  0  0  0  0  0  0  0  0  0  0  0
    0.5550   64.8250   71.0810 C   0  0  0  0  0  0  0  0  0  0  0  0
    1.1060   65.2210   69.9300 N   0  0  0  0  0  0  0  0  0  0  0  0
    2.2790   64.4870   69.8080 O   0  0  0  0  0  0  0  0  0  0  0  0
    4.3160   60.8160   79.2640 C   0  0  0  0  0  0  0  0  0  0  0  0
    3.7140   59.9460   78.6940 C   0  0  0  0  0  0  0  0  0  0  0  0
    2.0740   58.2900   78.9490 O   0  0  0  0  0  0  0  0  0  0  0  0
    4.8973   57.8613   77.9848 H   0  0  0  0  0  0  0  0  0  0  0  0
    3.5290   56.7878   77.6195 H   0  0  0  0  0  0  0  0  0  0  0  0
    5.1926   58.1839   75.7138 H   0  0  0  0  0  0  0  0  0  0  0  0
    3.7303   57.2800   75.3241 H   0  0  0  0  0  0  0  0  0  0  0  0
    4.1140   60.2336   75.8746 H   0  0  0  0  0  0  0  0  0  0  0  0
    0.6931   57.8763   77.2611 H   0  0  0  0  0  0  0  0  0  0  0  0
    0.3370   58.7821   75.7514 H   0  0  0  0  0  0  0  0  0  0  0  0
    1.5875   57.4925   75.7514 H   0  0  0  0  0  0  0  0  0  0  0  0
    0.6387   60.6670   77.4044 H   0  0  0  0  0  0  0  0  0  0  0  0
    2.2562   61.4572   77.1692 H   0  0  0  0  0  0  0  0  0  0  0  0
    0.3063   60.5614   74.9911 H   0  0  0  0  0  0  0  0  0  0  0  0
    0.7623   62.2576   75.4553 H   0  0  0  0  0  0  0  0  0  0  0  0
    3.0055   61.9186   74.7542 H   0  0  0  0  0  0  0  0  0  0  0  0
    2.2129   59.0301   73.9613 H   0  0  0  0  0  0  0  0  0  0  0  0
    4.9531   59.2454   73.7174 H   0  0  0  0  0  0  0  0  0  0  0  0
    3.6662   59.0609   72.4227 H   0  0  0  0  0  0  0  0  0  0  0  0
    5.0212   61.5916   73.3688 H   0  0  0  0  0  0  0  0  0  0  0  0
    5.0593   60.7801   71.7253 H   0  0  0  0  0  0  0  0  0  0  0  0
    4.3938   62.7591   70.5498 H   0  0  0  0  0  0  0  0  0  0  0  0
    1.6254   63.7087   73.8079 H   0  0  0  0  0  0  0  0  0  0  0  0
    0.1283   62.9171   73.1793 H   0  0  0  0  0  0  0  0  0  0  0  0
    0.4675   60.1238   72.8663 H   0  0  0  0  0  0  0  0  0  0  0  0
    0.3359   61.3030   71.5177 H   0  0  0  0  0  0  0  0  0  0  0  0
    1.6533   60.0818   71.5177 H   0  0  0  0  0  0  0  0  0  0  0  0
   -0.3915   65.2174   71.4812 H   0  0  0  0  0  0  0  0  0  0  0  0
    4.8670   61.6123   79.7857 H   0  0  0  0  0  0  0  0  0  0  0  0
    2.3852   58.4964   79.8659 H   0  0  0  0  0  0  0  0  0  0  0  0
  2  1  1  0
  3  2  1  0
  4  3  1  0
  5  1  1  0
  5  4  1  0
  5  6  1  6
  7  5  1  0
  8  7  1  0
  9  8  1  0
 10  9  1  0
 10  4  1  0
 11 10  1  0
 12 11  1  0
 13 12  1  0
 14 13  2  0
 15 14  1  0
 16 15  2  0
 17 16  1  0
 18 17  1  0
 18 13  1  0
 18  9  1  0
 18 19  1  6
 20 16  1  0
 21 20  2  0
 22 15  1  0
 22 21  1  0
 24 23  3  0
  1 24  1  1
 25  1  1  0
  2 26  1  0
  2 27  1  0
  3 28  1  0
  3 29  1  0
  4 30  1  1
  6 31  1  0
  6 32  1  0
  6 33  1  0
  7 34  1  0
  7 35  1  0
  8 36  1  0
  8 37  1  0
  9 38  1  1
 10 39  1  6
 11 40  1  0
 11 41  1  0
 12 42  1  0
 12 43  1  0
 14 44  1  0
 17 45  1  0
 17 46  1  0
 19 47  1  0
 19 48  1  0
 19 49  1  0
 20 50  1  0
 23 51  1  0
 25 52  1  0
M  END
>  <score>  (5) 
-7.627

$$$$
=
     RDKit          3D

 52 56  0  0  0  0  0  0  0  0999 V2000
    3.8880   61.1740   71.3730 C   0  0  2  0  0  0  0  0  0  0  0  0
    4.8420   60.4190   72.3340 C   0  0  0  0  0  0  0  0  0  0  0  0
    3.9720   59.8660   73.4830 C   0  0  0  0  0  0  0  0  0  0  0  0
    2.5340   60.1690   73.0630 C   0  0  2  0  0  0  0  0  0  0  0  0
    2.6670   61.5030   72.2850 C   0  0  1  0  0  0  0  0  0  0  0  0
    3.0200   62.7250   73.1870 C   0  0  0  0  0  0  0  0  0  0  0  0
    1.3250   61.8070   71.5880 C   0  0  0  0  0  0  0  0  0  0  0  0
    0.1440   61.8090   72.5820 C   0  0  0  0  0  0  0  0  0  0  0  0
    0.0760   60.5030   73.4110 C   0  0  1  0  0  0  0  0  0  0  0  0
    1.4350   60.2230   74.1330 C   0  0  1  0  0  0  0  0  0  0  0  0
    1.3850   58.9800   75.0450 C   0  0  0  0  0  0  0  0  0  0  0  0
    0.1200   58.1410   74.9000 C   0  0  0  0  0  0  0  0  0  0  0  0
   -1.1640   58.9370   74.9440 C   0  0  0  0  0  0  0  0  0  0  0  0
   -2.3080   58.3510   75.3660 C   0  0  0  0  0  0  0  0  0  0  0  0
   -3.5160   59.0670   75.1940 C   0  0  0  0  0  0  0  0  0  0  0  0
   -3.6420   60.2030   74.4210 C   0  0  0  0  0  0  0  0  0  0  0  0
   -2.4820   60.7750   73.6890 C   0  0  0  0  0  0  0  0  0  0  0  0
   -1.1280   60.4000   74.4040 C   0  0  2  0  0  0  0  0  0  0  0  0
   -0.9560   61.3630   75.6080 C   0  0  0  0  0  0  0  0  0  0  0  0
   -4.9900   60.5650   74.5200 C   0  0  0  0  0  0  0  0  0  0  0  0
   -5.6720   59.7160   75.2930 N   0  0  0  0  0  0  0  0  0  0  0  0
   -4.7460   58.7670   75.7090 O   0  0  0  0  0  0  0  0  0  0  0  0
    3.3060   59.6260   69.2630 C   0  0  0  0  0  0  0  0  0  0  0  0
    3.5590   60.3240   70.2070 C   0  0  0  0  0  0  0  0  0  0  0  0
    4.5260   62.3480   70.8900 O   0  0  0  0  0  0  0  0  0  0  0  0
    5.3381   59.5930   71.8034 H   0  0  0  0  0  0  0  0  0  0  0  0
    5.6252   61.0885   72.7191 H   0  0  0  0  0  0  0  0  0  0  0  0
    4.1226   58.7823   73.5963 H   0  0  0  0  0  0  0  0  0  0  0  0
    4.2263   60.3196   74.4523 H   0  0  0  0  0  0  0  0  0  0  0  0
    2.1530   59.3132   72.4864 H   0  0  0  0  0  0  0  0  0  0  0  0
    2.9365   62.4360   74.2451 H   0  0  0  0  0  0  0  0  0  0  0  0
    4.0491   63.0513   72.9761 H   0  0  0  0  0  0  0  0  0  0  0  0
    2.3234   63.5498   72.9761 H   0  0  0  0  0  0  0  0  0  0  0  0
    1.3889   62.7959   71.1106 H   0  0  0  0  0  0  0  0  0  0  0  0
    1.1419   61.0171   70.8447 H   0  0  0  0  0  0  0  0  0  0  0  0
    0.2610   62.6596   73.2697 H   0  0  0  0  0  0  0  0  0  0  0  0
   -0.7866   61.8894   72.0011 H   0  0  0  0  0  0  0  0  0  0  0  0
   -0.1128   59.7124   72.6699 H   0  0  0  0  0  0  0  0  0  0  0  0
    1.6635   61.0399   74.8333 H   0  0  0  0  0  0  0  0  0  0  0  0
    2.2493   58.3430   74.8056 H   0  0  0  0  0  0  0  0  0  0  0  0
    1.3981   59.3506   76.0806 H   0  0  0  0  0  0  0  0  0  0  0  0
    0.1653   57.6137   73.9357 H   0  0  0  0  0  0  0  0  0  0  0  0
    0.0957   57.4571   75.7612 H   0  0  0  0  0  0  0  0  0  0  0  0
   -2.2992   57.3523   75.8270 H   0  0  0  0  0  0  0  0  0  0  0  0
   -2.4707   60.3767   72.6637 H   0  0  0  0  0  0  0  0  0  0  0  0
   -2.5806   61.8705   73.6734 H   0  0  0  0  0  0  0  0  0  0  0  0
   -1.0569   60.7982   76.5466 H   0  0  0  0  0  0  0  0  0  0  0  0
    0.0396   61.8289   75.5656 H   0  0  0  0  0  0  0  0  0  0  0  0
   -1.7287   62.1447   75.5656 H   0  0  0  0  0  0  0  0  0  0  0  0
   -5.4331   61.4404   74.0227 H   0  0  0  0  0  0  0  0  0  0  0  0
    3.0743   58.9867   68.3984 H   0  0  0  0  0  0  0  0  0  0  0  0
    4.8257   62.8995   71.6556 H   0  0  0  0  0  0  0  0  0  0  0  0
  2  1  1  0
  3  2  1  0
  4  3  1  0
  5  1  1  0
  5  4  1  0
  5  6  1  1
  7  5  1  0
  8  7  1  0
  9  8  1  0
 10  9  1  0
 10  4  1  0
 11 10  1  0
 12 11  1  0
 13 12  1  0
 14 13  2  0
 15 14  1  0
 16 15  2  0
 17 16  1  0
 18 17  1  0
 18 13  1  0
 18  9  1  0
 18 19  1  1
 20 16  1  0
 21 20  2  0
 22 15  1  0
 22 21  1  0
 24 23  3  0
  1 24  1  6
 25  1  1  0
  2 26  1  0
  2 27  1  0
  3 28  1  0
  3 29  1  0
  4 30  1  6
  6 31  1  0
  6 32  1  0
  6 33  1  0
  7 34  1  0
  7 35  1  0
  8 36  1  0
  8 37  1  0
  9 38  1  6
 10 39  1  1
 11 40  1  0
 11 41  1  0
 12 42  1  0
 12 43  1  0
 14 44  1  0
 17 45  1  0
 17 46  1  0
 19 47  1  0
 19 48  1  0
 19 49  1  0
 20 50  1  0
 23 51  1  0
 25 52  1  0
M  END
>  <score>  (6) 
-7.48

$$$$
=
     RDKit          3D

 52 56  0  0  0  0  0  0  0  0999 V2000
   -1.8510   59.4420   76.3580 C   0  0  2  0  0  0  0  0  0  0  0  0
   -1.9440   60.6500   77.3260 C   0  0  0  0  0  0  0  0  0  0  0  0
   -1.1040   61.7850   76.7040 C   0  0  0  0  0  0  0  0  0  0  0  0
   -0.6970   61.2600   75.3280 C   0  0  2  0  0  0  0  0  0  0  0  0
   -0.5420   59.7360   75.5630 C   0  0  1  0  0  0  0  0  0  0  0  0
    0.6860   59.3570   76.4470 C   0  0  0  0  0  0  0  0  0  0  0  0
   -0.3710   59.0370   74.1990 C   0  0  0  0  0  0  0  0  0  0  0  0
    0.7930   59.6380   73.3830 C   0  0  0  0  0  0  0  0  0  0  0  0
    0.6670   61.1740   73.2290 C   0  0  1  0  0  0  0  0  0  0  0  0
    0.5220   61.8700   74.6220 C   0  0  1  0  0  0  0  0  0  0  0  0
    0.4860   63.4090   74.5230 C   0  0  0  0  0  0  0  0  0  0  0  0
    0.3700   63.9480   73.1010 C   0  0  0  0  0  0  0  0  0  0  0  0
    1.3410   63.3320   72.1200 C   0  0  0  0  0  0  0  0  0  0  0  0
    1.7360   64.0330   71.0330 C   0  0  0  0  0  0  0  0  0  0  0  0
    2.4760   63.3450   70.0420 C   0  0  0  0  0  0  0  0  0  0  0  0
    2.6170   61.9730   69.9900 C   0  0  0  0  0  0  0  0  0  0  0  0
    1.9820   61.0900   71.0020 C   0  0  0  0  0  0  0  0  0  0  0  0
    1.7780   61.8550   72.3650 C   0  0  2  0  0  0  0  0  0  0  0  0
    3.1440   61.8650   73.1000 C   0  0  0  0  0  0  0  0  0  0  0  0
    3.4020   61.7290   68.8570 C   0  0  0  0  0  0  0  0  0  0  0  0
    3.7280   62.8630   68.2310 N   0  0  0  0  0  0  0  0  0  0  0  0
    3.1360   63.8790   68.9710 O   0  0  0  0  0  0  0  0  0  0  0  0
   -4.0530   59.3190   74.8360 C   0  0  0  0  0  0  0  0  0  0  0  0
   -3.0640   59.3660   75.5160 C   0  0  0  0  0  0  0  0  0  0  0  0
   -1.7630   58.2370   77.1060 O   0  0  0  0  0  0  0  0  0  0  0  0
   -2.9911   60.9692   77.4338 H   0  0  0  0  0  0  0  0  0  0  0  0
   -1.5701   60.3845   78.3258 H   0  0  0  0  0  0  0  0  0  0  0  0
   -1.7033   62.7023   76.6071 H   0  0  0  0  0  0  0  0  0  0  0  0
   -0.2331   62.0446   77.3237 H   0  0  0  0  0  0  0  0  0  0  0  0
   -1.4673   61.5574   74.6012 H   0  0  0  0  0  0  0  0  0  0  0  0
    0.4131   59.4412   77.5093 H   0  0  0  0  0  0  0  0  0  0  0  0
    0.9906   58.3230   76.2276 H   0  0  0  0  0  0  0  0  0  0  0  0
    1.5203   60.0394   76.2276 H   0  0  0  0  0  0  0  0  0  0  0  0
   -0.1706   57.9690   74.3700 H   0  0  0  0  0  0  0  0  0  0  0  0
   -1.2982   59.1810   73.6249 H   0  0  0  0  0  0  0  0  0  0  0  0
    1.7395   59.4097   73.8948 H   0  0  0  0  0  0  0  0  0  0  0  0
    0.7650   59.1941   72.3769 H   0  0  0  0  0  0  0  0  0  0  0  0
   -0.2571   61.3209   72.6507 H   0  0  0  0  0  0  0  0  0  0  0  0
    1.4165   61.6784   75.2329 H   0  0  0  0  0  0  0  0  0  0  0  0
   -0.3786   63.7704   75.0991 H   0  0  0  0  0  0  0  0  0  0  0  0
    1.4469   63.7708   74.9176 H   0  0  0  0  0  0  0  0  0  0  0  0
   -0.6515   63.7546   72.7418 H   0  0  0  0  0  0  0  0  0  0  0  0
    0.6106   65.0202   73.1505 H   0  0  0  0  0  0  0  0  0  0  0  0
    1.4909   65.0997   70.9230 H   0  0  0  0  0  0  0  0  0  0  0  0
    1.0036   60.7563   70.6260 H   0  0  0  0  0  0  0  0  0  0  0  0
    2.6400   60.2263   71.1781 H   0  0  0  0  0  0  0  0  0  0  0  0
    2.9755   61.8638   74.1870 H   0  0  0  0  0  0  0  0  0  0  0  0
    3.7192   60.9710   72.8171 H   0  0  0  0  0  0  0  0  0  0  0  0
    3.7060   62.7673   72.8171 H   0  0  0  0  0  0  0  0  0  0  0  0
    3.7119   60.7276   68.5236 H   0  0  0  0  0  0  0  0  0  0  0  0
   -4.9587   59.2760   74.2133 H   0  0  0  0  0  0  0  0  0  0  0  0
   -1.7783   58.4472   78.0733 H   0  0  0  0  0  0  0  0  0  0  0  0
  2  1  1  0
  3  2  1  0
  4  3  1  0
  5  1  1  0
  5  4  1  0
  5  6  1  1
  7  5  1  0
  8  7  1  0
  9  8  1  0
 10  9  1  0
 10  4  1  0
 11 10  1  0
 12 11  1  0
 13 12  1  0
 14 13  2  0
 15 14  1  0
 16 15  2  0
 17 16  1  0
 18 17  1  0
 18 13  1  0
 18  9  1  0
 18 19  1  1
 20 16  1  0
 21 20  2  0
 22 15  1  0
 22 21  1  0
 24 23  3  0
  1 24  1  6
 25  1  1  0
  2 26  1  0
  2 27  1  0
  3 28  1  0
  3 29  1  0
  4 30  1  6
  6 31  1  0
  6 32  1  0
  6 33  1  0
  7 34  1  0
  7 35  1  0
  8 36  1  0
  8 37  1  0
  9 38  1  6
 10 39  1  1
 11 40  1  0
 11 41  1  0
 12 42  1  0
 12 43  1  0
 14 44  1  0
 17 45  1  0
 17 46  1  0
 19 47  1  0
 19 48  1  0
 19 49  1  0
 20 50  1  0
 23 51  1  0
 25 52  1  0
M  END
>  <score>  (7) 
-7.43

$$$$
=
     RDKit          3D

 52 56  0  0  0  0  0  0  0  0999 V2000
    3.6750   61.7290   71.2520 C   0  0  2  0  0  0  0  0  0  0  0  0
    5.0250   61.5880   72.0010 C   0  0  0  0  0  0  0  0  0  0  0  0
    4.7670   60.6710   73.2160 C   0  0  0  0  0  0  0  0  0  0  0  0
    3.3320   60.1790   73.0350 C   0  0  2  0  0  0  0  0  0  0  0  0
    2.6290   61.3820   72.3550 C   0  0  1  0  0  0  0  0  0  0  0  0
    2.4480   62.6160   73.2910 C   0  0  0  0  0  0  0  0  0  0  0  0
    1.2280   60.9390   71.8870 C   0  0  0  0  0  0  0  0  0  0  0  0
    0.3970   60.3340   73.0380 C   0  0  0  0  0  0  0  0  0  0  0  0
    1.1490   59.1890   73.7620 C   0  0  1  0  0  0  0  0  0  0  0  0
    2.5560   59.6620   74.2540 C   0  0  1  0  0  0  0  0  0  0  0  0
    3.3030   58.5810   75.0620 C   0  0  0  0  0  0  0  0  0  0  0  0
    2.6450   57.2050   75.0350 C   0  0  0  0  0  0  0  0  0  0  0  0
    1.1620   57.2180   75.3280 C   0  0  0  0  0  0  0  0  0  0  0  0
    0.5710   56.1250   75.8640 C   0  0  0  0  0  0  0  0  0  0  0  0
   -0.8420   56.1080   75.9270 C   0  0  0  0  0  0  0  0  0  0  0  0
   -1.6610   57.0070   75.2730 C   0  0  0  0  0  0  0  0  0  0  0  0
   -1.0980   58.0930   74.4280 C   0  0  0  0  0  0  0  0  0  0  0  0
    0.3520   58.4820   74.9070 C   0  0  2  0  0  0  0  0  0  0  0  0
    0.2010   59.4030   76.1460 C   0  0  0  0  0  0  0  0  0  0  0  0
   -2.9650   56.6160   75.5950 C   0  0  0  0  0  0  0  0  0  0  0  0
   -2.9750   55.5420   76.3880 N   0  0  0  0  0  0  0  0  0  0  0  0
   -1.6390   55.2170   76.5880 O   0  0  0  0  0  0  0  0  0  0  0  0
    3.6150   60.0750   69.1430 C   0  0  0  0  0  0  0  0  0  0  0  0
    3.6430   60.8230   70.0830 C   0  0  0  0  0  0  0  0  0  0  0  0
    3.5290   63.0590   70.7760 O   0  0  0  0  0  0  0  0  0  0  0  0
    5.7797   61.1372   71.3398 H   0  0  0  0  0  0  0  0  0  0  0  0
    5.4035   62.5701   72.3209 H   0  0  0  0  0  0  0  0  0  0  0  0
    5.4695   59.8246   73.2189 H   0  0  0  0  0  0  0  0  0  0  0  0
    4.9083   61.1976   74.1714 H   0  0  0  0  0  0  0  0  0  0  0  0
    3.3562   59.2456   72.4535 H   0  0  0  0  0  0  0  0  0  0  0  0
    2.4958   62.2902   74.3406 H   0  0  0  0  0  0  0  0  0  0  0  0
    3.2489   63.3445   73.0963 H   0  0  0  0  0  0  0  0  0  0  0  0
    1.4716   63.0838   73.0963 H   0  0  0  0  0  0  0  0  0  0  0  0
    0.6948   61.8136   71.4859 H   0  0  0  0  0  0  0  0  0  0  0  0
    1.3569   60.1634   71.1177 H   0  0  0  0  0  0  0  0  0  0  0  0
    0.1714   61.1264   73.7669 H   0  0  0  0  0  0  0  0  0  0  0  0
   -0.5235   59.9142   72.6063 H   0  0  0  0  0  0  0  0  0  0  0  0
    1.2749   58.4097   72.9959 H   0  0  0  0  0  0  0  0  0  0  0  0
    2.4447   60.4844   74.9760 H   0  0  0  0  0  0  0  0  0  0  0  0
    4.3185   58.4846   74.6504 H   0  0  0  0  0  0  0  0  0  0  0  0
    3.2943   58.9119   76.1110 H   0  0  0  0  0  0  0  0  0  0  0  0
    2.7947   56.7712   74.0353 H   0  0  0  0  0  0  0  0  0  0  0  0
    3.1183   56.6141   75.8330 H   0  0  0  0  0  0  0  0  0  0  0  0
    1.1681   55.2800   76.2374 H   0  0  0  0  0  0  0  0  0  0  0  0
   -1.0528   57.7504   73.3837 H   0  0  0  0  0  0  0  0  0  0  0  0
   -1.7462   58.9776   74.5137 H   0  0  0  0  0  0  0  0  0  0  0  0
    0.2993   58.8032   77.0629 H   0  0  0  0  0  0  0  0  0  0  0  0
    0.9846   60.1747   76.1269 H   0  0  0  0  0  0  0  0  0  0  0  0
   -0.7880   59.8841   76.1269 H   0  0  0  0  0  0  0  0  0  0  0  0
   -3.8701   57.1298   75.2389 H   0  0  0  0  0  0  0  0  0  0  0  0
    3.5894   59.3903   68.2825 H   0  0  0  0  0  0  0  0  0  0  0  0
    3.4609   63.6790   71.5448 H   0  0  0  0  0  0  0  0  0  0  0  0
  2  1  1  0
  3  2  1  0
  4  3  1  0
  5  1  1  0
  5  4  1  0
  5  6  1  1
  7  5  1  0
  8  7  1  0
  9  8  1  0
 10  9  1  0
 10  4  1  0
 11 10  1  0
 12 11  1  0
 13 12  1  0
 14 13  2  0
 15 14  1  0
 16 15  2  0
 17 16  1  0
 18 17  1  0
 18 13  1  0
 18  9  1  0
 18 19  1  1
 20 16  1  0
 21 20  2  0
 22 15  1  0
 22 21  1  0
 24 23  3  0
  1 24  1  6
 25  1  1  0
  2 26  1  0
  2 27  1  0
  3 28  1  0
  3 29  1  0
  4 30  1  6
  6 31  1  0
  6 32  1  0
  6 33  1  0
  7 34  1  0
  7 35  1  0
  8 36  1  0
  8 37  1  0
  9 38  1  6
 10 39  1  1
 11 40  1  0
 11 41  1  0
 12 42  1  0
 12 43  1  0
 14 44  1  0
 17 45  1  0
 17 46  1  0
 19 47  1  0
 19 48  1  0
 19 49  1  0
 20 50  1  0
 23 51  1  0
 25 52  1  0
M  END
>  <score>  (8) 
-7.321

$$$$
=
     RDKit          3D

 52 56  0  0  0  0  0  0  0  0999 V2000
   -3.1730   60.7780   76.3460 C   0  0  2  0  0  0  0  0  0  0  0  0
   -3.1770   62.2350   76.8770 C   0  0  0  0  0  0  0  0  0  0  0  0
   -1.9970   62.9620   76.1960 C   0  0  0  0  0  0  0  0  0  0  0  0
   -1.4600   61.9600   75.1750 C   0  0  2  0  0  0  0  0  0  0  0  0
   -1.7030   60.5910   75.8610 C   0  0  1  0  0  0  0  0  0  0  0  0
   -0.7870   60.3370   77.0980 C   0  0  0  0  0  0  0  0  0  0  0  0
   -1.4320   59.4680   74.8390 C   0  0  0  0  0  0  0  0  0  0  0  0
   -0.0260   59.5820   74.2120 C   0  0  0  0  0  0  0  0  0  0  0  0
    0.2300   60.9840   73.6050 C   0  0  1  0  0  0  0  0  0  0  0  0
   -0.0220   62.1100   74.6610 C   0  0  1  0  0  0  0  0  0  0  0  0
    0.3110   63.5180   74.1270 C   0  0  0  0  0  0  0  0  0  0  0  0
    0.5980   63.5750   72.6300 C   0  0  0  0  0  0  0  0  0  0  0  0
    1.5760   62.5300   72.1430 C   0  0  0  0  0  0  0  0  0  0  0  0
    2.3230   62.7680   71.0410 C   0  0  0  0  0  0  0  0  0  0  0  0
    3.0670   61.6890   70.5060 C   0  0  0  0  0  0  0  0  0  0  0  0
    2.9020   60.3710   70.8800 C   0  0  0  0  0  0  0  0  0  0  0  0
    1.8990   59.9760   71.9030 C   0  0  0  0  0  0  0  0  0  0  0  0
    1.6130   61.1660   72.8970 C   0  0  2  0  0  0  0  0  0  0  0  0
    2.7760   61.2030   73.9230 C   0  0  0  0  0  0  0  0  0  0  0  0
    3.8150   59.6520   70.1010 C   0  0  0  0  0  0  0  0  0  0  0  0
    4.5050   60.4550   69.2860 N   0  0  0  0  0  0  0  0  0  0  0  0
    4.0260   61.7350   69.5340 O   0  0  0  0  0  0  0  0  0  0  0  0
   -4.9980   60.5000   74.4020 C   0  0  0  0  0  0  0  0  0  0  0  0
   -4.1850   60.6200   75.2790 C   0  0  0  0  0  0  0  0  0  0  0  0
   -3.5060   59.8850   77.3980 O   0  0  0  0  0  0  0  0  0  0  0  0
   -4.1254   62.7291   76.6196 H   0  0  0  0  0  0  0  0  0  0  0  0
   -3.0742   62.2560   77.9720 H   0  0  0  0  0  0  0  0  0  0  0  0
   -2.3431   63.8782   75.6951 H   0  0  0  0  0  0  0  0  0  0  0  0
   -1.2275   63.2727   76.9181 H   0  0  0  0  0  0  0  0  0  0  0  0
   -1.9868   62.1190   74.2225 H   0  0  0  0  0  0  0  0  0  0  0  0
   -1.3641   60.4970   78.0207 H   0  0  0  0  0  0  0  0  0  0  0  0
   -0.4155   59.3019   77.0728 H   0  0  0  0  0  0  0  0  0  0  0  0
    0.0645   61.0329   77.0728 H   0  0  0  0  0  0  0  0  0  0  0  0
   -1.5157   58.4967   75.3485 H   0  0  0  0  0  0  0  0  0  0  0  0
   -2.1724   59.5591   74.0306 H   0  0  0  0  0  0  0  0  0  0  0  0
    0.7264   59.3902   74.9912 H   0  0  0  0  0  0  0  0  0  0  0  0
    0.0432   58.8436   73.3996 H   0  0  0  0  0  0  0  0  0  0  0  0
   -0.5068   61.0749   72.7933 H   0  0  0  0  0  0  0  0  0  0  0  0
    0.6695   61.9923   75.5084 H   0  0  0  0  0  0  0  0  0  0  0  0
   -0.5442   64.1767   74.3382 H   0  0  0  0  0  0  0  0  0  0  0  0
    1.2338   63.8351   74.6348 H   0  0  0  0  0  0  0  0  0  0  0  0
   -0.3512   63.4356   72.0919 H   0  0  0  0  0  0  0  0  0  0  0  0
    1.0606   64.5538   72.4353 H   0  0  0  0  0  0  0  0  0  0  0  0
    2.3515   63.7648   70.5768 H   0  0  0  0  0  0  0  0  0  0  0  0
    0.9625   59.6939   71.3995 H   0  0  0  0  0  0  0  0  0  0  0  0
    2.2970   59.1260   72.4766 H   0  0  0  0  0  0  0  0  0  0  0  0
    2.3653   61.1899   74.9434 H   0  0  0  0  0  0  0  0  0  0  0  0
    3.4222   60.3250   73.7766 H   0  0  0  0  0  0  0  0  0  0  0  0
    3.3651   62.1203   73.7766 H   0  0  0  0  0  0  0  0  0  0  0  0
    3.9482   58.5613   70.1530 H   0  0  0  0  0  0  0  0  0  0  0  0
   -5.7421   60.3902   73.5993 H   0  0  0  0  0  0  0  0  0  0  0  0
   -3.3417   60.3255   78.2692 H   0  0  0  0  0  0  0  0  0  0  0  0
  2  1  1  0
  3  2  1  0
  4  3  1  0
  5  1  1  0
  5  4  1  0
  5  6  1  1
  7  5  1  0
  8  7  1  0
  9  8  1  0
 10  9  1  0
 10  4  1  0
 11 10  1  0
 12 11  1  0
 13 12  1  0
 14 13  2  0
 15 14  1  0
 16 15  2  0
 17 16  1  0
 18 17  1  0
 18 13  1  0
 18  9  1  0
 18 19  1  1
 20 16  1  0
 21 20  2  0
 22 15  1  0
 22 21  1  0
 24 23  3  0
  1 24  1  6
 25  1  1  0
  2 26  1  0
  2 27  1  0
  3 28  1  0
  3 29  1  0
  4 30  1  6
  6 31  1  0
  6 32  1  0
  6 33  1  0
  7 34  1  0
  7 35  1  0
  8 36  1  0
  8 37  1  0
  9 38  1  6
 10 39  1  1
 11 40  1  0
 11 41  1  0
 12 42  1  0
 12 43  1  0
 14 44  1  0
 17 45  1  0
 17 46  1  0
 19 47  1  0
 19 48  1  0
 19 49  1  0
 20 50  1  0
 23 51  1  0
 25 52  1  0
M  END
>  <score>  (9) 
-7.287

$$$$
