=
     RDKit          3D

 45 49  0  0  0  0  0  0  0  0999 V2000
    0.3920   68.1980   67.1520 C   0  0  1  0  0  0  0  0  0  0  0  0
    1.0600   66.9500   66.7850 N   0  0  0  0  0  0  0  0  0  0  0  0
    2.3580   67.1600   66.3990 N   0  0  0  0  0  0  0  0  0  0  0  0
    2.4710   68.4400   66.2060 C   0  0  0  0  0  0  0  0  0  0  0  0
    1.2350   69.2560   66.4530 C   0  0  0  0  0  0  0  0  0  0  0  0
    3.7060   69.0960   65.7580 C   0  0  0  0  0  0  0  0  0  0  0  0
    4.5240   69.7370   66.7260 C   0  0  0  0  0  0  0  0  0  0  0  0
    4.1940   69.8530   68.0990 C   0  0  0  0  0  0  0  0  0  0  0  0
    5.0450   70.4880   69.0050 C   0  0  0  0  0  0  0  0  0  0  0  0
    6.2470   71.0250   68.5630 C   0  0  0  0  0  0  0  0  0  0  0  0
    6.5930   70.9300   67.2150 C   0  0  0  0  0  0  0  0  0  0  0  0
    5.7450   70.2950   66.2920 C   0  0  0  0  0  0  0  0  0  0  0  0
    6.1050   70.2110   64.9370 C   0  0  0  0  0  0  0  0  0  0  0  0
    5.2830   69.5890   63.9840 C   0  0  0  0  0  0  0  0  0  0  0  0
    4.0540   69.0220   64.3830 C   0  0  0  0  0  0  0  0  0  0  0  0
    3.2490   68.4160   63.3860 C   0  0  0  0  0  0  0  0  0  0  0  0
    3.6520   68.3680   62.0500 C   0  0  0  0  0  0  0  0  0  0  0  0
    4.8680   68.9240   61.6760 C   0  0  0  0  0  0  0  0  0  0  0  0
    5.6750   69.5320   62.6350 C   0  0  0  0  0  0  0  0  0  0  0  0
   -3.7920   68.3570   66.1200 C   0  0  0  0  0  0  0  0  0  0  0  0
   -2.8900   69.1430   65.4130 C   0  0  0  0  0  0  0  0  0  0  0  0
   -1.5330   69.0930   65.7420 C   0  0  0  0  0  0  0  0  0  0  0  0
   -1.0660   68.2530   66.7680 C   0  0  0  0  0  0  0  0  0  0  0  0
   -2.0080   67.4860   67.4690 C   0  0  0  0  0  0  0  0  0  0  0  0
   -3.3640   67.5280   67.1500 C   0  0  0  0  0  0  0  0  0  0  0  0
   -5.1260   68.3760   65.8340 O   0  0  0  0  0  0  0  0  0  0  0  0
   -1.5720   66.6870   68.4920 O   0  0  0  0  0  0  0  0  0  0  0  0
    0.3422   68.3361   68.2422 H   0  0  0  0  0  0  0  0  0  0  0  0
    0.6091   66.0244   66.8132 H   0  0  0  0  0  0  0  0  0  0  0  0
    1.4341   70.1211   67.1026 H   0  0  0  0  0  0  0  0  0  0  0  0
    0.7808   69.7115   65.5607 H   0  0  0  0  0  0  0  0  0  0  0  0
    3.2438   69.4323   68.4598 H   0  0  0  0  0  0  0  0  0  0  0  0
    4.7644   70.5629   70.0660 H   0  0  0  0  0  0  0  0  0  0  0  0
    6.9235   71.5232   69.2730 H   0  0  0  0  0  0  0  0  0  0  0  0
    7.5450   71.3591   66.8691 H   0  0  0  0  0  0  0  0  0  0  0  0
    7.0615   70.6465   64.6122 H   0  0  0  0  0  0  0  0  0  0  0  0
    2.2836   67.9729   63.6717 H   0  0  0  0  0  0  0  0  0  0  0  0
    3.0082   67.8912   61.2962 H   0  0  0  0  0  0  0  0  0  0  0  0
    5.1931   68.8845   60.6259 H   0  0  0  0  0  0  0  0  0  0  0  0
    6.6351   69.9750   62.3317 H   0  0  0  0  0  0  0  0  0  0  0  0
   -3.2410   69.7982   64.6021 H   0  0  0  0  0  0  0  0  0  0  0  0
   -0.8186   69.7209   65.1894 H   0  0  0  0  0  0  0  0  0  0  0  0
   -4.0864   66.9128   67.7065 H   0  0  0  0  0  0  0  0  0  0  0  0
   -5.7511   67.8079   66.3503 H   0  0  0  0  0  0  0  0  0  0  0  0
   -2.2191   66.1369   69.0007 H   0  0  0  0  0  0  0  0  0  0  0  0
  2  1  1  0
  3  2  1  0
  4  3  2  0
  5  4  1  0
  5  1  1  0
  6  4  1  0
  7  6  1  0
  8  7  2  0
  9  8  1  0
 10  9  2  0
 11 10  1  0
 12  7  1  0
 12 11  2  0
 13 12  1  0
 14 13  2  0
 15 14  1  0
 15  6  2  0
 16 15  1  0
 17 16  2  0
 18 17  1  0
 19 18  2  0
 19 14  1  0
 21 20  2  0
 22 21  1  0
 23 22  2  0
 23  1  1  0
 24 23  1  0
 25 24  2  0
 25 20  1  0
 26 20  1  0
 27 24  1  0
  1 28  1  1
  2 29  1  0
  5 30  1  0
  5 31  1  0
  8 32  1  0
  9 33  1  0
 10 34  1  0
 11 35  1  0
 13 36  1  0
 16 37  1  0
 17 38  1  0
 18 39  1  0
 19 40  1  0
 21 41  1  0
 22 42  1  0
 25 43  1  0
 26 44  1  0
 27 45  1  0
M  END
>  <score>  (1) 
-11.461

$$$$
=
     RDKit          3D

 45 49  0  0  0  0  0  0  0  0999 V2000
    0.3860   67.9830   67.1270 C   0  0  1  0  0  0  0  0  0  0  0  0
    1.0300   66.7350   66.7180 N   0  0  0  0  0  0  0  0  0  0  0  0
    2.3330   66.9320   66.3420 N   0  0  0  0  0  0  0  0  0  0  0  0
    2.4720   68.2150   66.1930 C   0  0  0  0  0  0  0  0  0  0  0  0
    1.2510   69.0470   66.4660 C   0  0  0  0  0  0  0  0  0  0  0  0
    3.7210   68.8620   65.7690 C   0  0  0  0  0  0  0  0  0  0  0  0
    4.1540   68.6860   64.4280 C   0  0  0  0  0  0  0  0  0  0  0  0
    3.5010   67.8610   63.4790 C   0  0  0  0  0  0  0  0  0  0  0  0
    3.9720   67.7340   62.1710 C   0  0  0  0  0  0  0  0  0  0  0  0
    5.1090   68.4270   61.7770 C   0  0  0  0  0  0  0  0  0  0  0  0
    5.7750   69.2410   62.6940 C   0  0  0  0  0  0  0  0  0  0  0  0
    5.3130   69.3750   64.0140 C   0  0  0  0  0  0  0  0  0  0  0  0
    5.9970   70.1950   64.9260 C   0  0  0  0  0  0  0  0  0  0  0  0
    5.5700   70.3520   66.2550 C   0  0  0  0  0  0  0  0  0  0  0  0
    4.4160   69.6750   66.7020 C   0  0  0  0  0  0  0  0  0  0  0  0
    4.0280   69.8500   68.0540 C   0  0  0  0  0  0  0  0  0  0  0  0
    4.7500   70.6720   68.9220 C   0  0  0  0  0  0  0  0  0  0  0  0
    5.8790   71.3370   68.4630 C   0  0  0  0  0  0  0  0  0  0  0  0
    6.2860   71.1770   67.1400 C   0  0  0  0  0  0  0  0  0  0  0  0
   -3.7920   68.2610   66.0960 C   0  0  0  0  0  0  0  0  0  0  0  0
   -2.8700   69.0370   65.4040 C   0  0  0  0  0  0  0  0  0  0  0  0
   -1.5150   68.9490   65.7330 C   0  0  0  0  0  0  0  0  0  0  0  0
   -1.0700   68.0800   66.7440 C   0  0  0  0  0  0  0  0  0  0  0  0
   -2.0300   67.3220   67.4300 C   0  0  0  0  0  0  0  0  0  0  0  0
   -3.3840   67.4030   67.1110 C   0  0  0  0  0  0  0  0  0  0  0  0
   -5.1240   68.3160   65.8100 O   0  0  0  0  0  0  0  0  0  0  0  0
   -1.6140   66.4940   68.4380 O   0  0  0  0  0  0  0  0  0  0  0  0
    0.3369   68.0847   68.2212 H   0  0  0  0  0  0  0  0  0  0  0  0
    0.5605   65.8182   66.7132 H   0  0  0  0  0  0  0  0  0  0  0  0
    1.4657   69.8854   67.1450 H   0  0  0  0  0  0  0  0  0  0  0  0
    0.8078   69.5416   65.5891 H   0  0  0  0  0  0  0  0  0  0  0  0
    2.6001   67.3065   63.7806 H   0  0  0  0  0  0  0  0  0  0  0  0
    3.4442   67.0871   61.4548 H   0  0  0  0  0  0  0  0  0  0  0  0
    5.4830   68.3347   60.7466 H   0  0  0  0  0  0  0  0  0  0  0  0
    6.6764   69.7867   62.3782 H   0  0  0  0  0  0  0  0  0  0  0  0
    6.8961   70.7316   64.5888 H   0  0  0  0  0  0  0  0  0  0  0  0
    3.1366   69.3256   68.4287 H   0  0  0  0  0  0  0  0  0  0  0  0
    4.4252   70.7922   69.9661 H   0  0  0  0  0  0  0  0  0  0  0  0
    6.4502   71.9879   69.1413 H   0  0  0  0  0  0  0  0  0  0  0  0
    7.1823   71.7049   66.7821 H   0  0  0  0  0  0  0  0  0  0  0  0
   -3.2040   69.7145   64.6043 H   0  0  0  0  0  0  0  0  0  0  0  0
   -0.7851   69.5695   65.1924 H   0  0  0  0  0  0  0  0  0  0  0  0
   -4.1214   66.7952   67.6559 H   0  0  0  0  0  0  0  0  0  0  0  0
   -5.7626   67.7539   66.3163 H   0  0  0  0  0  0  0  0  0  0  0  0
   -2.2743   65.9497   68.9358 H   0  0  0  0  0  0  0  0  0  0  0  0
  2  1  1  0
  3  2  1  0
  4  3  2  0
  5  4  1  0
  5  1  1  0
  6  4  1  0
  7  6  1  0
  8  7  2  0
  9  8  1  0
 10  9  2  0
 11 10  1  0
 12  7  1  0
 12 11  2  0
 13 12  1  0
 14 13  2  0
 15 14  1  0
 15  6  2  0
 16 15  1  0
 17 16  2  0
 18 17  1  0
 19 18  2  0
 19 14  1  0
 21 20  2  0
 22 21  1  0
 23 22  2  0
 23  1  1  0
 24 23  1  0
 25 24  2  0
 25 20  1  0
 26 20  1  0
 27 24  1  0
  1 28  1  1
  2 29  1  0
  5 30  1  0
  5 31  1  0
  8 32  1  0
  9 33  1  0
 10 34  1  0
 11 35  1  0
 13 36  1  0
 16 37  1  0
 17 38  1  0
 18 39  1  0
 19 40  1  0
 21 41  1  0
 22 42  1  0
 25 43  1  0
 26 44  1  0
 27 45  1  0
M  END
>  <score>  (2) 
-10.764

$$$$
=
     RDKit          3D

 45 49  0  0  0  0  0  0  0  0999 V2000
    0.6910   66.2070   70.2730 C   0  0  1  0  0  0  0  0  0  0  0  0
   -0.2200   66.0450   71.4060 N   0  0  0  0  0  0  0  0  0  0  0  0
    0.0390   64.8970   72.1080 N   0  0  0  0  0  0  0  0  0  0  0  0
    0.8220   64.1850   71.3540 C   0  0  0  0  0  0  0  0  0  0  0  0
    1.1930   64.7910   70.0300 C   0  0  0  0  0  0  0  0  0  0  0  0
    1.3280   62.8550   71.7200 C   0  0  0  0  0  0  0  0  0  0  0  0
    2.6950   62.5580   71.4730 C   0  0  0  0  0  0  0  0  0  0  0  0
    3.5980   63.4360   70.8240 C   0  0  0  0  0  0  0  0  0  0  0  0
    4.9350   63.0890   70.6170 C   0  0  0  0  0  0  0  0  0  0  0  0
    5.4030   61.8570   71.0520 C   0  0  0  0  0  0  0  0  0  0  0  0
    4.5320   60.9710   71.6870 C   0  0  0  0  0  0  0  0  0  0  0  0
    3.1840   61.3060   71.9000 C   0  0  0  0  0  0  0  0  0  0  0  0
    2.3200   60.4020   72.5370 C   0  0  0  0  0  0  0  0  0  0  0  0
    0.9650   60.6980   72.7640 C   0  0  0  0  0  0  0  0  0  0  0  0
    0.4420   61.9410   72.3480 C   0  0  0  0  0  0  0  0  0  0  0  0
   -0.9320   62.1930   72.5830 C   0  0  0  0  0  0  0  0  0  0  0  0
   -1.7510   61.2540   73.2150 C   0  0  0  0  0  0  0  0  0  0  0  0
   -1.2180   60.0390   73.6260 C   0  0  0  0  0  0  0  0  0  0  0  0
    0.1300   59.7640   73.3990 C   0  0  0  0  0  0  0  0  0  0  0  0
   -1.0700   67.9810   66.7590 C   0  0  0  0  0  0  0  0  0  0  0  0
   -1.7260   66.9310   67.3880 C   0  0  0  0  0  0  0  0  0  0  0  0
   -1.1610   66.3540   68.5290 C   0  0  0  0  0  0  0  0  0  0  0  0
    0.0540   66.8280   69.0530 C   0  0  0  0  0  0  0  0  0  0  0  0
    0.6950   67.8800   68.3840 C   0  0  0  0  0  0  0  0  0  0  0  0
    0.1400   68.4620   67.2450 C   0  0  0  0  0  0  0  0  0  0  0  0
   -1.5840   68.5730   65.6420 O   0  0  0  0  0  0  0  0  0  0  0  0
    1.8930   68.3310   68.8660 O   0  0  0  0  0  0  0  0  0  0  0  0
    1.4998   66.9198   70.4916 H   0  0  0  0  0  0  0  0  0  0  0  0
   -0.9660   66.7131   71.6470 H   0  0  0  0  0  0  0  0  0  0  0  0
    2.2781   64.7621   69.8518 H   0  0  0  0  0  0  0  0  0  0  0  0
    0.7801   64.2862   69.1442 H   0  0  0  0  0  0  0  0  0  0  0  0
    3.2373   64.4147   70.4747 H   0  0  0  0  0  0  0  0  0  0  0  0
    5.6149   63.7900   70.1108 H   0  0  0  0  0  0  0  0  0  0  0  0
    6.4562   61.5802   70.8968 H   0  0  0  0  0  0  0  0  0  0  0  0
    4.9067   59.9941   72.0265 H   0  0  0  0  0  0  0  0  0  0  0  0
    2.7159   59.4309   72.8692 H   0  0  0  0  0  0  0  0  0  0  0  0
   -1.3647   63.1514   72.2600 H   0  0  0  0  0  0  0  0  0  0  0  0
   -2.8146   61.4762   73.3866 H   0  0  0  0  0  0  0  0  0  0  0  0
   -1.8563   59.2972   74.1282 H   0  0  0  0  0  0  0  0  0  0  0  0
    0.5467   58.7989   73.7228 H   0  0  0  0  0  0  0  0  0  0  0  0
   -2.6816   66.5567   66.9920 H   0  0  0  0  0  0  0  0  0  0  0  0
   -1.6748   65.5168   69.0240 H   0  0  0  0  0  0  0  0  0  0  0  0
    0.6535   69.2917   66.7372 H   0  0  0  0  0  0  0  0  0  0  0  0
   -1.0990   69.3202   65.2101 H   0  0  0  0  0  0  0  0  0  0  0  0
    2.3628   69.0729   68.4089 H   0  0  0  0  0  0  0  0  0  0  0  0
  2  1  1  0
  3  2  1  0
  4  3  2  0
  5  4  1  0
  5  1  1  0
  6  4  1  0
  7  6  1  0
  8  7  2  0
  9  8  1  0
 10  9  2  0
 11 10  1  0
 12  7  1  0
 12 11  2  0
 13 12  1  0
 14 13  2  0
 15 14  1  0
 15  6  2  0
 16 15  1  0
 17 16  2  0
 18 17  1  0
 19 18  2  0
 19 14  1  0
 21 20  2  0
 22 21  1  0
 23 22  2  0
 23  1  1  0
 24 23  1  0
 25 24  2  0
 25 20  1  0
 26 20  1  0
 27 24  1  0
  1 28  1  1
  2 29  1  0
  5 30  1  0
  5 31  1  0
  8 32  1  0
  9 33  1  0
 10 34  1  0
 11 35  1  0
 13 36  1  0
 16 37  1  0
 17 38  1  0
 18 39  1  0
 19 40  1  0
 21 41  1  0
 22 42  1  0
 25 43  1  0
 26 44  1  0
 27 45  1  0
M  END
>  <score>  (3) 
-10.567

$$$$
=
     RDKit          3D

 45 49  0  0  0  0  0  0  0  0999 V2000
    0.6950   66.2240   70.2970 C   0  0  1  0  0  0  0  0  0  0  0  0
   -0.2260   66.0580   71.4210 N   0  0  0  0  0  0  0  0  0  0  0  0
    0.0390   64.9170   72.1330 N   0  0  0  0  0  0  0  0  0  0  0  0
    0.8380   64.2100   71.3920 C   0  0  0  0  0  0  0  0  0  0  0  0
    1.2160   64.8120   70.0680 C   0  0  0  0  0  0  0  0  0  0  0  0
    1.3550   62.8890   71.7710 C   0  0  0  0  0  0  0  0  0  0  0  0
    0.4670   61.9610   72.3770 C   0  0  0  0  0  0  0  0  0  0  0  0
   -0.8790   62.2480   72.7140 C   0  0  0  0  0  0  0  0  0  0  0  0
   -1.7060   61.2890   73.3020 C   0  0  0  0  0  0  0  0  0  0  0  0
   -1.2100   60.0200   73.5700 C   0  0  0  0  0  0  0  0  0  0  0  0
    0.1140   59.7150   73.2550 C   0  0  0  0  0  0  0  0  0  0  0  0
    0.9580   60.6700   72.6650 C   0  0  0  0  0  0  0  0  0  0  0  0
    2.2900   60.3480   72.3560 C   0  0  0  0  0  0  0  0  0  0  0  0
    3.1660   61.2770   71.7710 C   0  0  0  0  0  0  0  0  0  0  0  0
    2.7080   62.5770   71.4720 C   0  0  0  0  0  0  0  0  0  0  0  0
    3.6290   63.4870   70.8940 C   0  0  0  0  0  0  0  0  0  0  0  0
    4.9460   63.1170   70.6150 C   0  0  0  0  0  0  0  0  0  0  0  0
    5.3780   61.8300   70.9080 C   0  0  0  0  0  0  0  0  0  0  0  0
    4.4940   60.9180   71.4830 C   0  0  0  0  0  0  0  0  0  0  0  0
   -1.0490   67.9580   66.7540 C   0  0  0  0  0  0  0  0  0  0  0  0
   -1.6960   66.8990   67.3800 C   0  0  0  0  0  0  0  0  0  0  0  0
   -1.1370   66.3360   68.5290 C   0  0  0  0  0  0  0  0  0  0  0  0
    0.0640   66.8300   69.0670 C   0  0  0  0  0  0  0  0  0  0  0  0
    0.6970   67.8900   68.4010 C   0  0  0  0  0  0  0  0  0  0  0  0
    0.1470   68.4590   67.2540 C   0  0  0  0  0  0  0  0  0  0  0  0
   -1.5580   68.5370   65.6290 O   0  0  0  0  0  0  0  0  0  0  0  0
    1.8820   68.3610   68.8970 O   0  0  0  0  0  0  0  0  0  0  0  0
    1.4931   66.9475   70.5197 H   0  0  0  0  0  0  0  0  0  0  0  0
   -0.9823   66.7186   71.6499 H   0  0  0  0  0  0  0  0  0  0  0  0
    2.3032   64.7946   69.9013 H   0  0  0  0  0  0  0  0  0  0  0  0
    0.8183   64.2969   69.1811 H   0  0  0  0  0  0  0  0  0  0  0  0
   -1.2821   63.2504   72.5074 H   0  0  0  0  0  0  0  0  0  0  0  0
   -2.7478   61.5381   73.5523 H   0  0  0  0  0  0  0  0  0  0  0  0
   -1.8583   59.2588   74.0286 H   0  0  0  0  0  0  0  0  0  0  0  0
    0.5037   58.7096   73.4723 H   0  0  0  0  0  0  0  0  0  0  0  0
    2.6587   59.3360   72.5793 H   0  0  0  0  0  0  0  0  0  0  0  0
    3.2978   64.5094   70.6597 H   0  0  0  0  0  0  0  0  0  0  0  0
    5.6393   63.8425   70.1645 H   0  0  0  0  0  0  0  0  0  0  0  0
    6.4134   61.5314   70.6873 H   0  0  0  0  0  0  0  0  0  0  0  0
    4.8417   59.9005   71.7151 H   0  0  0  0  0  0  0  0  0  0  0  0
   -2.6404   66.5078   66.9737 H   0  0  0  0  0  0  0  0  0  0  0  0
   -1.6443   65.4929   69.0208 H   0  0  0  0  0  0  0  0  0  0  0  0
    0.6537   69.2952   66.7501 H   0  0  0  0  0  0  0  0  0  0  0  0
   -1.0797   69.2903   65.2002 H   0  0  0  0  0  0  0  0  0  0  0  0
    2.3464   69.1084   68.4433 H   0  0  0  0  0  0  0  0  0  0  0  0
  2  1  1  0
  3  2  1  0
  4  3  2  0
  5  4  1  0
  5  1  1  0
  6  4  1  0
  7  6  1  0
  8  7  2  0
  9  8  1  0
 10  9  2  0
 11 10  1  0
 12  7  1  0
 12 11  2  0
 13 12  1  0
 14 13  2  0
 15 14  1  0
 15  6  2  0
 16 15  1  0
 17 16  2  0
 18 17  1  0
 19 18  2  0
 19 14  1  0
 21 20  2  0
 22 21  1  0
 23 22  2  0
 23  1  1  0
 24 23  1  0
 25 24  2  0
 25 20  1  0
 26 20  1  0
 27 24  1  0
  1 28  1  1
  2 29  1  0
  5 30  1  0
  5 31  1  0
  8 32  1  0
  9 33  1  0
 10 34  1  0
 11 35  1  0
 13 36  1  0
 16 37  1  0
 17 38  1  0
 18 39  1  0
 19 40  1  0
 21 41  1  0
 22 42  1  0
 25 43  1  0
 26 44  1  0
 27 45  1  0
M  END
>  <score>  (4) 
-10.497

$$$$
=
     RDKit          3D

 45 49  0  0  0  0  0  0  0  0999 V2000
    0.8130   67.0710   69.1380 C   0  0  1  0  0  0  0  0  0  0  0  0
   -0.3220   66.2070   68.8110 N   0  0  0  0  0  0  0  0  0  0  0  0
   -0.4100   65.1370   69.6630 N   0  0  0  0  0  0  0  0  0  0  0  0
    0.7230   65.0890   70.2960 C   0  0  0  0  0  0  0  0  0  0  0  0
    1.7240   66.1510   69.9390 C   0  0  0  0  0  0  0  0  0  0  0  0
    1.0620   64.0690   71.2970 C   0  0  0  0  0  0  0  0  0  0  0  0
    1.8160   62.9380   70.8850 C   0  0  0  0  0  0  0  0  0  0  0  0
    2.2070   62.6840   69.5470 C   0  0  0  0  0  0  0  0  0  0  0  0
    2.9570   61.5570   69.2050 C   0  0  0  0  0  0  0  0  0  0  0  0
    3.3340   60.6550   70.1900 C   0  0  0  0  0  0  0  0  0  0  0  0
    2.9560   60.8780   71.5140 C   0  0  0  0  0  0  0  0  0  0  0  0
    2.2000   62.0070   71.8720 C   0  0  0  0  0  0  0  0  0  0  0  0
    1.8240   62.2150   73.2090 C   0  0  0  0  0  0  0  0  0  0  0  0
    1.0650   63.3290   73.6050 C   0  0  0  0  0  0  0  0  0  0  0  0
    0.6630   64.2790   72.6440 C   0  0  0  0  0  0  0  0  0  0  0  0
   -0.1140   65.3800   73.0840 C   0  0  0  0  0  0  0  0  0  0  0  0
   -0.4670   65.5350   74.4260 C   0  0  0  0  0  0  0  0  0  0  0  0
   -0.0560   64.5940   75.3610 C   0  0  0  0  0  0  0  0  0  0  0  0
    0.7020   63.4990   74.9530 C   0  0  0  0  0  0  0  0  0  0  0  0
    2.8090   68.8140   65.7360 C   0  0  0  0  0  0  0  0  0  0  0  0
    2.0400   67.6710   65.5580 C   0  0  0  0  0  0  0  0  0  0  0  0
    1.3890   67.1040   66.6560 C   0  0  0  0  0  0  0  0  0  0  0  0
    1.4920   67.6770   67.9350 C   0  0  0  0  0  0  0  0  0  0  0  0
    2.2890   68.8230   68.0800 C   0  0  0  0  0  0  0  0  0  0  0  0
    2.9430   69.3960   66.9910 C   0  0  0  0  0  0  0  0  0  0  0  0
    3.4630   69.4000   64.6930 O   0  0  0  0  0  0  0  0  0  0  0  0
    2.4240   69.3740   69.3250 O   0  0  0  0  0  0  0  0  0  0  0  0
    0.5047   67.9668   69.6970 H   0  0  0  0  0  0  0  0  0  0  0  0
   -0.9757   66.3819   68.0345 H   0  0  0  0  0  0  0  0  0  0  0  0
    2.1337   66.6489   70.8302 H   0  0  0  0  0  0  0  0  0  0  0  0
    2.6234   65.7981   69.4131 H   0  0  0  0  0  0  0  0  0  0  0  0
    1.9125   63.3920   68.7584 H   0  0  0  0  0  0  0  0  0  0  0  0
    3.2481   61.3847   68.1583 H   0  0  0  0  0  0  0  0  0  0  0  0
    3.9287   59.7676   69.9276 H   0  0  0  0  0  0  0  0  0  0  0  0
    3.2546   60.1583   72.2905 H   0  0  0  0  0  0  0  0  0  0  0  0
    2.1333   61.4831   73.9697 H   0  0  0  0  0  0  0  0  0  0  0  0
   -0.4466   66.1298   72.3510 H   0  0  0  0  0  0  0  0  0  0  0  0
   -1.0689   66.3999   74.7417 H   0  0  0  0  0  0  0  0  0  0  0  0
   -0.3281   64.7130   76.4201 H   0  0  0  0  0  0  0  0  0  0  0  0
    1.0219   62.7550   75.6974 H   0  0  0  0  0  0  0  0  0  0  0  0
    1.9445   67.2163   64.5609 H   0  0  0  0  0  0  0  0  0  0  0  0
    0.7861   66.1945   66.5174 H   0  0  0  0  0  0  0  0  0  0  0  0
    3.5581   70.2983   67.1231 H   0  0  0  0  0  0  0  0  0  0  0  0
    4.0054   70.2144   64.8436 H   0  0  0  0  0  0  0  0  0  0  0  0
    2.9813   70.1825   69.4507 H   0  0  0  0  0  0  0  0  0  0  0  0
  2  1  1  0
  3  2  1  0
  4  3  2  0
  5  4  1  0
  5  1  1  0
  6  4  1  0
  7  6  1  0
  8  7  2  0
  9  8  1  0
 10  9  2  0
 11 10  1  0
 12  7  1  0
 12 11  2  0
 13 12  1  0
 14 13  2  0
 15 14  1  0
 15  6  2  0
 16 15  1  0
 17 16  2  0
 18 17  1  0
 19 18  2  0
 19 14  1  0
 21 20  2  0
 22 21  1  0
 23 22  2  0
 23  1  1  0
 24 23  1  0
 25 24  2  0
 25 20  1  0
 26 20  1  0
 27 24  1  0
  1 28  1  1
  2 29  1  0
  5 30  1  0
  5 31  1  0
  8 32  1  0
  9 33  1  0
 10 34  1  0
 11 35  1  0
 13 36  1  0
 16 37  1  0
 17 38  1  0
 18 39  1  0
 19 40  1  0
 21 41  1  0
 22 42  1  0
 25 43  1  0
 26 44  1  0
 27 45  1  0
M  END
>  <score>  (5) 
-10.214

$$$$
=
     RDKit          3D

 45 49  0  0  0  0  0  0  0  0999 V2000
    0.8400   67.0800   69.1480 C   0  0  1  0  0  0  0  0  0  0  0  0
   -0.3030   66.2220   68.8360 N   0  0  0  0  0  0  0  0  0  0  0  0
   -0.3750   65.1410   69.6750 N   0  0  0  0  0  0  0  0  0  0  0  0
    0.7720   65.0840   70.2830 C   0  0  0  0  0  0  0  0  0  0  0  0
    1.7670   66.1490   69.9180 C   0  0  0  0  0  0  0  0  0  0  0  0
    1.1320   64.0510   71.2630 C   0  0  0  0  0  0  0  0  0  0  0  0
    0.7050   64.2140   72.6080 C   0  0  0  0  0  0  0  0  0  0  0  0
    0.0140   65.3520   73.0940 C   0  0  0  0  0  0  0  0  0  0  0  0
   -0.3860   65.4500   74.4280 C   0  0  0  0  0  0  0  0  0  0  0  0
   -0.1050   64.4160   75.3110 C   0  0  0  0  0  0  0  0  0  0  0  0
    0.5810   63.2880   74.8590 C   0  0  0  0  0  0  0  0  0  0  0  0
    0.9920   63.1770   73.5200 C   0  0  0  0  0  0  0  0  0  0  0  0
    1.6840   62.0370   73.0820 C   0  0  0  0  0  0  0  0  0  0  0  0
    2.1150   61.8900   71.7540 C   0  0  0  0  0  0  0  0  0  0  0  0
    1.8480   62.9090   70.8150 C   0  0  0  0  0  0  0  0  0  0  0  0
    2.3130   62.7270   69.4890 C   0  0  0  0  0  0  0  0  0  0  0  0
    3.0050   61.5760   69.1080 C   0  0  0  0  0  0  0  0  0  0  0  0
    3.2520   60.5790   70.0420 C   0  0  0  0  0  0  0  0  0  0  0  0
    2.8120   60.7360   71.3550 C   0  0  0  0  0  0  0  0  0  0  0  0
    2.7630   68.8640   65.7260 C   0  0  0  0  0  0  0  0  0  0  0  0
    2.0040   67.7130   65.5530 C   0  0  0  0  0  0  0  0  0  0  0  0
    1.3770   67.1330   66.6580 C   0  0  0  0  0  0  0  0  0  0  0  0
    1.4930   67.7010   67.9380 C   0  0  0  0  0  0  0  0  0  0  0  0
    2.2790   68.8550   68.0770 C   0  0  0  0  0  0  0  0  0  0  0  0
    2.9090   69.4420   66.9810 C   0  0  0  0  0  0  0  0  0  0  0  0
    3.3940   69.4640   64.6760 O   0  0  0  0  0  0  0  0  0  0  0  0
    2.4260   69.4010   69.3230 O   0  0  0  0  0  0  0  0  0  0  0  0
    0.5457   67.9694   69.7245 H   0  0  0  0  0  0  0  0  0  0  0  0
   -0.9734   66.4082   68.0766 H   0  0  0  0  0  0  0  0  0  0  0  0
    2.1964   66.6353   70.8063 H   0  0  0  0  0  0  0  0  0  0  0  0
    2.6546   65.8016   69.3688 H   0  0  0  0  0  0  0  0  0  0  0  0
   -0.2126   66.1778   72.4036 H   0  0  0  0  0  0  0  0  0  0  0  0
   -0.9224   66.3441   74.7786 H   0  0  0  0  0  0  0  0  0  0  0  0
   -0.4217   64.4857   76.3621 H   0  0  0  0  0  0  0  0  0  0  0  0
    0.8037   62.4723   75.5626 H   0  0  0  0  0  0  0  0  0  0  0  0
    1.8954   61.2330   73.8024 H   0  0  0  0  0  0  0  0  0  0  0  0
    2.1241   63.5117   68.7416 H   0  0  0  0  0  0  0  0  0  0  0  0
    3.3534   61.4594   68.0712 H   0  0  0  0  0  0  0  0  0  0  0  0
    3.7933   59.6681   69.7466 H   0  0  0  0  0  0  0  0  0  0  0  0
    3.0133   59.9440   72.0913 H   0  0  0  0  0  0  0  0  0  0  0  0
    1.8980   67.2628   64.5550 H   0  0  0  0  0  0  0  0  0  0  0  0
    0.7829   66.2170   66.5242 H   0  0  0  0  0  0  0  0  0  0  0  0
    3.5143   70.3516   67.1081 H   0  0  0  0  0  0  0  0  0  0  0  0
    3.9295   70.2836   64.8231 H   0  0  0  0  0  0  0  0  0  0  0  0
    2.9759   70.2151   69.4450 H   0  0  0  0  0  0  0  0  0  0  0  0
  2  1  1  0
  3  2  1  0
  4  3  2  0
  5  4  1  0
  5  1  1  0
  6  4  1  0
  7  6  1  0
  8  7  2  0
  9  8  1  0
 10  9  2  0
 11 10  1  0
 12  7  1  0
 12 11  2  0
 13 12  1  0
 14 13  2  0
 15 14  1  0
 15  6  2  0
 16 15  1  0
 17 16  2  0
 18 17  1  0
 19 18  2  0
 19 14  1  0
 21 20  2  0
 22 21  1  0
 23 22  2  0
 23  1  1  0
 24 23  1  0
 25 24  2  0
 25 20  1  0
 26 20  1  0
 27 24  1  0
  1 28  1  1
  2 29  1  0
  5 30  1  0
  5 31  1  0
  8 32  1  0
  9 33  1  0
 10 34  1  0
 11 35  1  0
 13 36  1  0
 16 37  1  0
 17 38  1  0
 18 39  1  0
 19 40  1  0
 21 41  1  0
 22 42  1  0
 25 43  1  0
 26 44  1  0
 27 45  1  0
M  END
>  <score>  (6) 
-10.105

$$$$
=
     RDKit          3D

 45 49  0  0  0  0  0  0  0  0999 V2000
   -0.8140   60.7330   73.9780 C   0  0  1  0  0  0  0  0  0  0  0  0
   -0.0830   61.4700   75.0080 N   0  0  0  0  0  0  0  0  0  0  0  0
    0.8370   62.3290   74.4660 N   0  0  0  0  0  0  0  0  0  0  0  0
    0.9570   61.9840   73.2190 C   0  0  0  0  0  0  0  0  0  0  0  0
    0.1060   60.8300   72.7690 C   0  0  0  0  0  0  0  0  0  0  0  0
    1.8680   62.6380   72.2700 C   0  0  0  0  0  0  0  0  0  0  0  0
    3.1220   62.0270   72.0040 C   0  0  0  0  0  0  0  0  0  0  0  0
    3.5950   60.8590   72.6510 C   0  0  0  0  0  0  0  0  0  0  0  0
    4.8360   60.3010   72.3390 C   0  0  0  0  0  0  0  0  0  0  0  0
    5.6380   60.8970   71.3750 C   0  0  0  0  0  0  0  0  0  0  0  0
    5.1990   62.0520   70.7280 C   0  0  0  0  0  0  0  0  0  0  0  0
    3.9530   62.6250   71.0330 C   0  0  0  0  0  0  0  0  0  0  0  0
    3.5270   63.7910   70.3760 C   0  0  0  0  0  0  0  0  0  0  0  0
    2.2910   64.3960   70.6560 C   0  0  0  0  0  0  0  0  0  0  0  0
    1.4360   63.8260   71.6230 C   0  0  0  0  0  0  0  0  0  0  0  0
    0.2050   64.4770   71.8850 C   0  0  0  0  0  0  0  0  0  0  0  0
   -0.1660   65.6400   71.2070 C   0  0  0  0  0  0  0  0  0  0  0  0
    0.6830   66.1830   70.2530 C   0  0  0  0  0  0  0  0  0  0  0  0
    1.9030   65.5670   69.9820 C   0  0  0  0  0  0  0  0  0  0  0  0
   -1.8310   56.6810   75.0470 C   0  0  0  0  0  0  0  0  0  0  0  0
   -0.7070   56.9140   74.2640 C   0  0  0  0  0  0  0  0  0  0  0  0
   -0.3720   58.2250   73.9170 C   0  0  0  0  0  0  0  0  0  0  0  0
   -1.1480   59.3110   74.3560 C   0  0  0  0  0  0  0  0  0  0  0  0
   -2.2830   59.0380   75.1330 C   0  0  0  0  0  0  0  0  0  0  0  0
   -2.6270   57.7330   75.4840 C   0  0  0  0  0  0  0  0  0  0  0  0
   -2.1980   55.4180   75.4070 O   0  0  0  0  0  0  0  0  0  0  0  0
   -3.0660   60.0840   75.5410 O   0  0  0  0  0  0  0  0  0  0  0  0
   -1.8126   61.1569   73.7962 H   0  0  0  0  0  0  0  0  0  0  0  0
   -0.2407   61.3570   76.0196 H   0  0  0  0  0  0  0  0  0  0  0  0
   -0.4471   61.0596   71.8463 H   0  0  0  0  0  0  0  0  0  0  0  0
    0.6512   59.9098   72.5122 H   0  0  0  0  0  0  0  0  0  0  0  0
    2.9690   60.3799   73.4182 H   0  0  0  0  0  0  0  0  0  0  0  0
    5.1775   59.3918   72.8554 H   0  0  0  0  0  0  0  0  0  0  0  0
    6.6155   60.4601   71.1226 H   0  0  0  0  0  0  0  0  0  0  0  0
    5.8388   62.5219   69.9665 H   0  0  0  0  0  0  0  0  0  0  0  0
    4.1824   64.2447   69.6180 H   0  0  0  0  0  0  0  0  0  0  0  0
   -0.4747   64.0561   72.6406 H   0  0  0  0  0  0  0  0  0  0  0  0
   -1.1285   66.1243   71.4285 H   0  0  0  0  0  0  0  0  0  0  0  0
    0.3938   67.0965   69.7127 H   0  0  0  0  0  0  0  0  0  0  0  0
    2.5739   66.0044   69.2279 H   0  0  0  0  0  0  0  0  0  0  0  0
   -0.0863   56.0734   73.9204 H   0  0  0  0  0  0  0  0  0  0  0  0
    0.5130   58.4100   73.2904 H   0  0  0  0  0  0  0  0  0  0  0  0
   -3.5178   57.5386   76.0994 H   0  0  0  0  0  0  0  0  0  0  0  0
   -3.0031   55.2767   75.9656 H   0  0  0  0  0  0  0  0  0  0  0  0
   -3.8720   59.9142   76.0903 H   0  0  0  0  0  0  0  0  0  0  0  0
  2  1  1  0
  3  2  1  0
  4  3  2  0
  5  4  1  0
  5  1  1  0
  6  4  1  0
  7  6  1  0
  8  7  2  0
  9  8  1  0
 10  9  2  0
 11 10  1  0
 12  7  1  0
 12 11  2  0
 13 12  1  0
 14 13  2  0
 15 14  1  0
 15  6  2  0
 16 15  1  0
 17 16  2  0
 18 17  1  0
 19 18  2  0
 19 14  1  0
 21 20  2  0
 22 21  1  0
 23 22  2  0
 23  1  1  0
 24 23  1  0
 25 24  2  0
 25 20  1  0
 26 20  1  0
 27 24  1  0
  1 28  1  6
  2 29  1  0
  5 30  1  0
  5 31  1  0
  8 32  1  0
  9 33  1  0
 10 34  1  0
 11 35  1  0
 13 36  1  0
 16 37  1  0
 17 38  1  0
 18 39  1  0
 19 40  1  0
 21 41  1  0
 22 42  1  0
 25 43  1  0
 26 44  1  0
 27 45  1  0
M  END
>  <score>  (7) 
-9.437

$$$$
=
     RDKit          3D

 45 49  0  0  0  0  0  0  0  0999 V2000
    2.0210   57.6970   74.7840 C   0  0  1  0  0  0  0  0  0  0  0  0
    3.4020   57.9420   74.3680 N   0  0  0  0  0  0  0  0  0  0  0  0
    3.5670   59.2070   73.8680 N   0  0  0  0  0  0  0  0  0  0  0  0
    2.3700   59.6670   73.6570 C   0  0  0  0  0  0  0  0  0  0  0  0
    1.2370   58.7450   74.0060 C   0  0  0  0  0  0  0  0  0  0  0  0
    2.0890   60.9950   73.0950 C   0  0  0  0  0  0  0  0  0  0  0  0
    2.3800   61.2280   71.7250 C   0  0  0  0  0  0  0  0  0  0  0  0
    2.9990   60.2840   70.8690 C   0  0  0  0  0  0  0  0  0  0  0  0
    3.2530   60.5710   69.5260 C   0  0  0  0  0  0  0  0  0  0  0  0
    2.8960   61.8070   69.0050 C   0  0  0  0  0  0  0  0  0  0  0  0
    2.2920   62.7570   69.8290 C   0  0  0  0  0  0  0  0  0  0  0  0
    2.0330   62.4830   71.1820 C   0  0  0  0  0  0  0  0  0  0  0  0
    1.4270   63.4510   71.9990 C   0  0  0  0  0  0  0  0  0  0  0  0
    1.1570   63.2170   73.3580 C   0  0  0  0  0  0  0  0  0  0  0  0
    1.4930   61.9740   73.9340 C   0  0  0  0  0  0  0  0  0  0  0  0
    1.2150   61.7850   75.3110 C   0  0  0  0  0  0  0  0  0  0  0  0
    0.6180   62.7860   76.0800 C   0  0  0  0  0  0  0  0  0  0  0  0
    0.2860   64.0010   75.4950 C   0  0  0  0  0  0  0  0  0  0  0  0
    0.5550   64.2140   74.1450 C   0  0  0  0  0  0  0  0  0  0  0  0
    0.6710   53.6550   74.1210 C   0  0  0  0  0  0  0  0  0  0  0  0
   -0.1460   54.7130   73.7420 C   0  0  0  0  0  0  0  0  0  0  0  0
    0.2880   56.0240   73.9530 C   0  0  0  0  0  0  0  0  0  0  0  0
    1.5410   56.2890   74.5310 C   0  0  0  0  0  0  0  0  0  0  0  0
    2.3330   55.1960   74.9140 C   0  0  0  0  0  0  0  0  0  0  0  0
    1.9100   53.8840   74.7090 C   0  0  0  0  0  0  0  0  0  0  0  0
    0.2880   52.3590   73.9370 O   0  0  0  0  0  0  0  0  0  0  0  0
    3.5430   55.4380   75.5070 O   0  0  0  0  0  0  0  0  0  0  0  0
    1.8955   57.7845   75.8733 H   0  0  0  0  0  0  0  0  0  0  0  0
    4.1589   57.2474   74.4420 H   0  0  0  0  0  0  0  0  0  0  0  0
    0.4780   59.2404   74.6293 H   0  0  0  0  0  0  0  0  0  0  0  0
    0.6532   58.3661   73.1542 H   0  0  0  0  0  0  0  0  0  0  0  0
    3.2864   59.3016   71.2717 H   0  0  0  0  0  0  0  0  0  0  0  0
    3.7346   59.8196   68.8829 H   0  0  0  0  0  0  0  0  0  0  0  0
    3.0886   62.0366   67.9466 H   0  0  0  0  0  0  0  0  0  0  0  0
    2.0141   63.7364   69.4124 H   0  0  0  0  0  0  0  0  0  0  0  0
    1.1551   64.4229   71.5615 H   0  0  0  0  0  0  0  0  0  0  0  0
    1.4757   60.8272   75.7850 H   0  0  0  0  0  0  0  0  0  0  0  0
    0.4112   62.6126   77.1464 H   0  0  0  0  0  0  0  0  0  0  0  0
   -0.1874   64.7919   76.0953 H   0  0  0  0  0  0  0  0  0  0  0  0
    0.2918   65.1789   73.6870 H   0  0  0  0  0  0  0  0  0  0  0  0
   -1.1255   54.5201   73.2801 H   0  0  0  0  0  0  0  0  0  0  0  0
   -0.3618   56.8625   73.6619 H   0  0  0  0  0  0  0  0  0  0  0  0
    2.5485   53.0399   75.0087 H   0  0  0  0  0  0  0  0  0  0  0  0
    0.8871   51.6215   74.2151 H   0  0  0  0  0  0  0  0  0  0  0  0
    4.1180   54.6816   75.7852 H   0  0  0  0  0  0  0  0  0  0  0  0
  2  1  1  0
  3  2  1  0
  4  3  2  0
  5  4  1  0
  5  1  1  0
  6  4  1  0
  7  6  1  0
  8  7  2  0
  9  8  1  0
 10  9  2  0
 11 10  1  0
 12  7  1  0
 12 11  2  0
 13 12  1  0
 14 13  2  0
 15 14  1  0
 15  6  2  0
 16 15  1  0
 17 16  2  0
 18 17  1  0
 19 18  2  0
 19 14  1  0
 21 20  2  0
 22 21  1  0
 23 22  2  0
 23  1  1  0
 24 23  1  0
 25 24  2  0
 25 20  1  0
 26 20  1  0
 27 24  1  0
  1 28  1  1
  2 29  1  0
  5 30  1  0
  5 31  1  0
  8 32  1  0
  9 33  1  0
 10 34  1  0
 11 35  1  0
 13 36  1  0
 16 37  1  0
 17 38  1  0
 18 39  1  0
 19 40  1  0
 21 41  1  0
 22 42  1  0
 25 43  1  0
 26 44  1  0
 27 45  1  0
M  END
>  <score>  (8) 
-9.32

$$$$
=
     RDKit          3D

 45 49  0  0  0  0  0  0  0  0999 V2000
    1.9210   57.6640   74.7550 C   0  0  1  0  0  0  0  0  0  0  0  0
    3.3050   57.9290   74.3610 N   0  0  0  0  0  0  0  0  0  0  0  0
    3.4560   59.1900   73.8460 N   0  0  0  0  0  0  0  0  0  0  0  0
    2.2550   59.6250   73.6070 C   0  0  0  0  0  0  0  0  0  0  0  0
    1.1330   58.6870   73.9490 C   0  0  0  0  0  0  0  0  0  0  0  0
    1.9590   60.9400   73.0230 C   0  0  0  0  0  0  0  0  0  0  0  0
    1.3290   61.9180   73.8380 C   0  0  0  0  0  0  0  0  0  0  0  0
    0.8920   61.6890   75.1670 C   0  0  0  0  0  0  0  0  0  0  0  0
    0.2850   62.6950   75.9210 C   0  0  0  0  0  0  0  0  0  0  0  0
    0.0960   63.9540   75.3670 C   0  0  0  0  0  0  0  0  0  0  0  0
    0.5100   64.2030   74.0580 C   0  0  0  0  0  0  0  0  0  0  0  0
    1.1210   63.2000   73.2880 C   0  0  0  0  0  0  0  0  0  0  0  0
    1.5290   63.4660   71.9710 C   0  0  0  0  0  0  0  0  0  0  0  0
    2.1380   62.4880   71.1670 C   0  0  0  0  0  0  0  0  0  0  0  0
    2.3590   61.1950   71.6850 C   0  0  0  0  0  0  0  0  0  0  0  0
    2.9640   60.2350   70.8350 C   0  0  0  0  0  0  0  0  0  0  0  0
    3.3440   60.5510   69.5290 C   0  0  0  0  0  0  0  0  0  0  0  0
    3.1260   61.8310   69.0370 C   0  0  0  0  0  0  0  0  0  0  0  0
    2.5270   62.7910   69.8500 C   0  0  0  0  0  0  0  0  0  0  0  0
    0.6600   53.5890   74.1210 C   0  0  0  0  0  0  0  0  0  0  0  0
   -0.1840   54.6260   73.7430 C   0  0  0  0  0  0  0  0  0  0  0  0
    0.2210   55.9480   73.9440 C   0  0  0  0  0  0  0  0  0  0  0  0
    1.4720   56.2440   74.5120 C   0  0  0  0  0  0  0  0  0  0  0  0
    2.2920   55.1720   74.8950 C   0  0  0  0  0  0  0  0  0  0  0  0
    1.8970   53.8490   74.7000 C   0  0  0  0  0  0  0  0  0  0  0  0
    0.3050   52.2840   73.9460 O   0  0  0  0  0  0  0  0  0  0  0  0
    3.4990   55.4450   75.4780 O   0  0  0  0  0  0  0  0  0  0  0  0
    1.7732   57.7634   75.8405 H   0  0  0  0  0  0  0  0  0  0  0  0
    4.0731   57.2498   74.4589 H   0  0  0  0  0  0  0  0  0  0  0  0
    0.3542   59.1769   74.5519 H   0  0  0  0  0  0  0  0  0  0  0  0
    0.5717   58.2859   73.0922 H   0  0  0  0  0  0  0  0  0  0  0  0
    1.0346   60.6945   75.6150 H   0  0  0  0  0  0  0  0  0  0  0  0
   -0.0426   62.4908   76.9510 H   0  0  0  0  0  0  0  0  0  0  0  0
   -0.3781   64.7518   75.9575 H   0  0  0  0  0  0  0  0  0  0  0  0
    0.3553   65.2010   73.6221 H   0  0  0  0  0  0  0  0  0  0  0  0
    1.3667   64.4716   71.5558 H   0  0  0  0  0  0  0  0  0  0  0  0
    3.1382   59.2169   71.2134 H   0  0  0  0  0  0  0  0  0  0  0  0
    3.8148   59.7880   68.8917 H   0  0  0  0  0  0  0  0  0  0  0  0
    3.4250   62.0861   68.0096 H   0  0  0  0  0  0  0  0  0  0  0  0
    2.3555   63.8032   69.4549 H   0  0  0  0  0  0  0  0  0  0  0  0
   -1.1622   54.4081   73.2896 H   0  0  0  0  0  0  0  0  0  0  0  0
   -0.4497   56.7699   73.6532 H   0  0  0  0  0  0  0  0  0  0  0  0
    2.5560   53.0212   75.0006 H   0  0  0  0  0  0  0  0  0  0  0  0
    0.9227   51.5616   74.2230 H   0  0  0  0  0  0  0  0  0  0  0  0
    4.0934   54.7037   75.7560 H   0  0  0  0  0  0  0  0  0  0  0  0
  2  1  1  0
  3  2  1  0
  4  3  2  0
  5  4  1  0
  5  1  1  0
  6  4  1  0
  7  6  1  0
  8  7  2  0
  9  8  1  0
 10  9  2  0
 11 10  1  0
 12  7  1  0
 12 11  2  0
 13 12  1  0
 14 13  2  0
 15 14  1  0
 15  6  2  0
 16 15  1  0
 17 16  2  0
 18 17  1  0
 19 18  2  0
 19 14  1  0
 21 20  2  0
 22 21  1  0
 23 22  2  0
 23  1  1  0
 24 23  1  0
 25 24  2  0
 25 20  1  0
 26 20  1  0
 27 24  1  0
  1 28  1  1
  2 29  1  0
  5 30  1  0
  5 31  1  0
  8 32  1  0
  9 33  1  0
 10 34  1  0
 11 35  1  0
 13 36  1  0
 16 37  1  0
 17 38  1  0
 18 39  1  0
 19 40  1  0
 21 41  1  0
 22 42  1  0
 25 43  1  0
 26 44  1  0
 27 45  1  0
M  END
>  <score>  (9) 
-9.186

$$$$
