=
     RDKit          3D

 28 31  0  0  0  0  0  0  0  0999 V2000
    0.7230   69.4580   67.6790 S   0  0  0  0  0  0  0  0  0  0  0  0
    7.0170   70.8180   68.3870 C   0  0  0  0  0  0  0  0  0  0  0  0
    6.9690   70.3030   67.0960 C   0  0  0  0  0  0  0  0  0  0  0  0
    5.7550   69.8740   66.5480 C   0  0  0  0  0  0  0  0  0  0  0  0
    4.5730   69.9650   67.3090 C   0  0  0  0  0  0  0  0  0  0  0  0
    4.6450   70.4830   68.6040 C   0  0  0  0  0  0  0  0  0  0  0  0
    5.8580   70.9180   69.1630 C   0  0  0  0  0  0  0  0  0  0  0  0
    3.0690   70.4750   69.2970 S   0  0  0  0  0  0  0  0  0  0  0  0
    2.4370   69.8120   67.8470 C   0  0  0  0  0  0  0  0  0  0  0  0
    3.3110   69.5780   66.8930 N   0  0  0  0  0  0  0  0  0  0  0  0
    0.8060   67.4880   67.0840 S   0  0  0  0  0  0  0  0  0  0  0  0
    1.5810   67.6610   65.5150 C   0  0  0  0  0  0  0  0  0  0  0  0
    2.7020   67.0490   65.2020 N   0  0  0  0  0  0  0  0  0  0  0  0
    3.0630   67.3680   63.9050 C   0  0  0  0  0  0  0  0  0  0  0  0
    2.2010   68.2440   63.2410 C   0  0  0  0  0  0  0  0  0  0  0  0
    0.9110   68.6650   64.3000 S   0  0  0  0  0  0  0  0  0  0  0  0
    2.4380   68.6580   61.9200 C   0  0  0  0  0  0  0  0  0  0  0  0
    3.5720   68.1680   61.2660 C   0  0  0  0  0  0  0  0  0  0  0  0
    4.4440   67.2950   61.9070 C   0  0  0  0  0  0  0  0  0  0  0  0
    4.2000   66.8890   63.2240 C   0  0  0  0  0  0  0  0  0  0  0  0
    7.9793   71.1510   68.8031 H   0  0  0  0  0  0  0  0  0  0  0  0
    7.8918   70.2324   66.5015 H   0  0  0  0  0  0  0  0  0  0  0  0
    5.7238   69.4671   65.5265 H   0  0  0  0  0  0  0  0  0  0  0  0
    5.8952   71.3263   70.1837 H   0  0  0  0  0  0  0  0  0  0  0  0
    1.7491   69.3499   61.4133 H   0  0  0  0  0  0  0  0  0  0  0  0
    3.7773   68.4771   60.2305 H   0  0  0  0  0  0  0  0  0  0  0  0
    5.3315   66.9210   61.3755 H   0  0  0  0  0  0  0  0  0  0  0  0
    4.8935   66.1982   63.7259 H   0  0  0  0  0  0  0  0  0  0  0  0
  3  2  2  0
  4  3  1  0
  5  4  2  0
  6  5  1  0
  7  6  2  0
  7  2  1  0
  8  6  1  0
  9  8  1  0
  9  1  1  0
 10  9  2  0
 10  5  1  0
 11  1  1  0
 12 11  1  0
 13 12  2  0
 14 13  1  0
 15 14  2  0
 16 15  1  0
 16 12  1  0
 17 15  1  0
 18 17  2  0
 19 18  1  0
 20 19  2  0
 20 14  1  0
  2 21  1  0
  3 22  1  0
  4 23  1  0
  7 24  1  0
 17 25  1  0
 18 26  1  0
 19 27  1  0
 20 28  1  0
M  END
>  <score>  (1) 
-8.883

$$$$
=
     RDKit          3D

 28 31  0  0  0  0  0  0  0  0999 V2000
   -0.6940   66.3980   68.7990 S   0  0  0  0  0  0  0  0  0  0  0  0
    3.4700   69.2220   64.7190 C   0  0  0  0  0  0  0  0  0  0  0  0
    2.6930   68.4520   63.8620 C   0  0  0  0  0  0  0  0  0  0  0  0
    1.6530   67.6620   64.3640 C   0  0  0  0  0  0  0  0  0  0  0  0
    1.3910   67.6480   65.7480 C   0  0  0  0  0  0  0  0  0  0  0  0
    2.1850   68.4280   66.5910 C   0  0  0  0  0  0  0  0  0  0  0  0
    3.2310   69.2250   66.0970 C   0  0  0  0  0  0  0  0  0  0  0  0
    1.6490   68.2200   68.2140 S   0  0  0  0  0  0  0  0  0  0  0  0
    0.4270   67.1460   67.6710 C   0  0  0  0  0  0  0  0  0  0  0  0
    0.3990   66.9150   66.3770 N   0  0  0  0  0  0  0  0  0  0  0  0
    0.4120   66.4800   70.5340 S   0  0  0  0  0  0  0  0  0  0  0  0
    1.1520   64.8860   70.5170 C   0  0  0  0  0  0  0  0  0  0  0  0
    2.0470   64.5240   69.6240 N   0  0  0  0  0  0  0  0  0  0  0  0
    2.4530   63.2240   69.8670 C   0  0  0  0  0  0  0  0  0  0  0  0
    1.8400   62.5980   70.9560 C   0  0  0  0  0  0  0  0  0  0  0  0
    0.7260   63.6960   71.6740 S   0  0  0  0  0  0  0  0  0  0  0  0
    2.1490   61.2790   71.3240 C   0  0  0  0  0  0  0  0  0  0  0  0
    3.1020   60.5870   70.5690 C   0  0  0  0  0  0  0  0  0  0  0  0
    3.7250   61.1900   69.4820 C   0  0  0  0  0  0  0  0  0  0  0  0
    3.4090   62.5050   69.1230 C   0  0  0  0  0  0  0  0  0  0  0  0
    4.2839   69.8374   64.3081 H   0  0  0  0  0  0  0  0  0  0  0  0
    2.8970   68.4636   62.7812 H   0  0  0  0  0  0  0  0  0  0  0  0
    1.0422   67.0541   63.6804 H   0  0  0  0  0  0  0  0  0  0  0  0
    3.8454   69.8349   66.7756 H   0  0  0  0  0  0  0  0  0  0  0  0
    1.6548   60.8022   72.1833 H   0  0  0  0  0  0  0  0  0  0  0  0
    3.3618   59.5527   70.8387 H   0  0  0  0  0  0  0  0  0  0  0  0
    4.4715   60.6294   68.9002 H   0  0  0  0  0  0  0  0  0  0  0  0
    3.9058   62.9761   68.2620 H   0  0  0  0  0  0  0  0  0  0  0  0
  3  2  2  0
  4  3  1  0
  5  4  2  0
  6  5  1  0
  7  6  2  0
  7  2  1  0
  8  6  1  0
  9  8  1  0
  9  1  1  0
 10  9  2  0
 10  5  1  0
 11  1  1  0
 12 11  1  0
 13 12  2  0
 14 13  1  0
 15 14  2  0
 16 15  1  0
 16 12  1  0
 17 15  1  0
 18 17  2  0
 19 18  1  0
 20 19  2  0
 20 14  1  0
  2 21  1  0
  3 22  1  0
  4 23  1  0
  7 24  1  0
 17 25  1  0
 18 26  1  0
 19 27  1  0
 20 28  1  0
M  END
>  <score>  (2) 
-8.347

$$$$
=
     RDKit          3D

 28 31  0  0  0  0  0  0  0  0999 V2000
    1.5680   66.1290   70.1200 S   0  0  0  0  0  0  0  0  0  0  0  0
   -2.2750   68.9330   65.7240 C   0  0  0  0  0  0  0  0  0  0  0  0
   -3.1230   67.9950   66.3030 C   0  0  0  0  0  0  0  0  0  0  0  0
   -2.6620   67.1560   67.3230 C   0  0  0  0  0  0  0  0  0  0  0  0
   -1.3290   67.2620   67.7670 C   0  0  0  0  0  0  0  0  0  0  0  0
   -0.4950   68.2100   67.1710 C   0  0  0  0  0  0  0  0  0  0  0  0
   -0.9470   69.0580   66.1470 C   0  0  0  0  0  0  0  0  0  0  0  0
    1.0620   68.1200   67.8990 S   0  0  0  0  0  0  0  0  0  0  0  0
    0.5060   66.8680   68.9310 C   0  0  0  0  0  0  0  0  0  0  0  0
   -0.7440   66.4980   68.7630 N   0  0  0  0  0  0  0  0  0  0  0  0
    0.3670   64.5960   70.7920 S   0  0  0  0  0  0  0  0  0  0  0  0
    1.5720   63.3490   71.0810 C   0  0  0  0  0  0  0  0  0  0  0  0
    2.8350   63.4850   70.7420 N   0  0  0  0  0  0  0  0  0  0  0  0
    3.5410   62.3510   71.1010 C   0  0  0  0  0  0  0  0  0  0  0  0
    2.7880   61.3430   71.7080 C   0  0  0  0  0  0  0  0  0  0  0  0
    1.1500   61.8610   71.8170 S   0  0  0  0  0  0  0  0  0  0  0  0
    3.3660   60.1340   72.1260 C   0  0  0  0  0  0  0  0  0  0  0  0
    4.7380   59.9510   71.9230 C   0  0  0  0  0  0  0  0  0  0  0  0
    5.5070   60.9400   71.3200 C   0  0  0  0  0  0  0  0  0  0  0  0
    4.9210   62.1410   70.9060 C   0  0  0  0  0  0  0  0  0  0  0  0
   -2.6532   69.5852   64.9230 H   0  0  0  0  0  0  0  0  0  0  0  0
   -4.1637   67.9123   65.9564 H   0  0  0  0  0  0  0  0  0  0  0  0
   -3.3378   66.4161   67.7768 H   0  0  0  0  0  0  0  0  0  0  0  0
   -0.2757   69.8000   65.6900 H   0  0  0  0  0  0  0  0  0  0  0  0
    2.7562   59.3511   72.6007 H   0  0  0  0  0  0  0  0  0  0  0  0
    5.2143   59.0130   72.2444 H   0  0  0  0  0  0  0  0  0  0  0  0
    6.5841   60.7769   71.1673 H   0  0  0  0  0  0  0  0  0  0  0  0
    5.5355   62.9192   70.4297 H   0  0  0  0  0  0  0  0  0  0  0  0
  3  2  2  0
  4  3  1  0
  5  4  2  0
  6  5  1  0
  7  6  2  0
  7  2  1  0
  8  6  1  0
  9  8  1  0
  9  1  1  0
 10  9  2  0
 10  5  1  0
 11  1  1  0
 12 11  1  0
 13 12  2  0
 14 13  1  0
 15 14  2  0
 16 15  1  0
 16 12  1  0
 17 15  1  0
 18 17  2  0
 19 18  1  0
 20 19  2  0
 20 14  1  0
  2 21  1  0
  3 22  1  0
  4 23  1  0
  7 24  1  0
 17 25  1  0
 18 26  1  0
 19 27  1  0
 20 28  1  0
M  END
>  <score>  (3) 
-8.235

$$$$
=
     RDKit          3D

 28 31  0  0  0  0  0  0  0  0999 V2000
   -0.3500   67.4190   67.8340 S   0  0  0  0  0  0  0  0  0  0  0  0
    2.2600   68.7430   62.0550 C   0  0  0  0  0  0  0  0  0  0  0  0
    0.9670   69.2310   61.9130 C   0  0  0  0  0  0  0  0  0  0  0  0
    0.0520   69.1310   62.9670 C   0  0  0  0  0  0  0  0  0  0  0  0
    0.4440   68.5330   64.1810 C   0  0  0  0  0  0  0  0  0  0  0  0
    1.7480   68.0480   64.3000 C   0  0  0  0  0  0  0  0  0  0  0  0
    2.6750   68.1430   63.2490 C   0  0  0  0  0  0  0  0  0  0  0  0
    1.9510   67.3720   65.8700 S   0  0  0  0  0  0  0  0  0  0  0  0
    0.3310   67.7840   66.2550 C   0  0  0  0  0  0  0  0  0  0  0  0
   -0.3560   68.3690   65.2990 N   0  0  0  0  0  0  0  0  0  0  0  0
    1.3500   67.4690   68.9950 S   0  0  0  0  0  0  0  0  0  0  0  0
    1.1870   65.9510   69.8660 C   0  0  0  0  0  0  0  0  0  0  0  0
    1.9740   64.9190   69.6550 N   0  0  0  0  0  0  0  0  0  0  0  0
    1.6130   63.8760   70.4890 C   0  0  0  0  0  0  0  0  0  0  0  0
    0.5280   64.1300   71.3310 C   0  0  0  0  0  0  0  0  0  0  0  0
   -0.0380   65.7300   71.0440 S   0  0  0  0  0  0  0  0  0  0  0  0
    0.0460   63.1660   72.2320 C   0  0  0  0  0  0  0  0  0  0  0  0
    0.6850   61.9230   72.2750 C   0  0  0  0  0  0  0  0  0  0  0  0
    1.7680   61.6490   71.4470 C   0  0  0  0  0  0  0  0  0  0  0  0
    2.2390   62.6150   70.5510 C   0  0  0  0  0  0  0  0  0  0  0  0
    2.9674   68.8295   61.2171 H   0  0  0  0  0  0  0  0  0  0  0  0
    0.6605   69.6990   60.9659 H   0  0  0  0  0  0  0  0  0  0  0  0
   -0.9707   69.5183   62.8480 H   0  0  0  0  0  0  0  0  0  0  0  0
    3.6987   67.7565   63.3615 H   0  0  0  0  0  0  0  0  0  0  0  0
   -0.8112   63.3832   72.8862 H   0  0  0  0  0  0  0  0  0  0  0  0
    0.3263   61.1520   72.9728 H   0  0  0  0  0  0  0  0  0  0  0  0
    2.2581   60.6655   71.4968 H   0  0  0  0  0  0  0  0  0  0  0  0
    3.0949   62.3909   69.8973 H   0  0  0  0  0  0  0  0  0  0  0  0
  3  2  2  0
  4  3  1  0
  5  4  2  0
  6  5  1  0
  7  6  2  0
  7  2  1  0
  8  6  1  0
  9  8  1  0
  9  1  1  0
 10  9  2  0
 10  5  1  0
 11  1  1  0
 12 11  1  0
 13 12  2  0
 14 13  1  0
 15 14  2  0
 16 15  1  0
 16 12  1  0
 17 15  1  0
 18 17  2  0
 19 18  1  0
 20 19  2  0
 20 14  1  0
  2 21  1  0
  3 22  1  0
  4 23  1  0
  7 24  1  0
 17 25  1  0
 18 26  1  0
 19 27  1  0
 20 28  1  0
M  END
>  <score>  (4) 
-8.226

$$$$
=
     RDKit          3D

 28 31  0  0  0  0  0  0  0  0999 V2000
    1.1480   66.7650   69.8170 S   0  0  0  0  0  0  0  0  0  0  0  0
    1.4170   60.7430   72.1870 C   0  0  0  0  0  0  0  0  0  0  0  0
    0.1490   61.1580   72.5790 C   0  0  0  0  0  0  0  0  0  0  0  0
   -0.3080   62.4410   72.2580 C   0  0  0  0  0  0  0  0  0  0  0  0
    0.5220   63.3180   71.5310 C   0  0  0  0  0  0  0  0  0  0  0  0
    1.7920   62.8800   71.1500 C   0  0  0  0  0  0  0  0  0  0  0  0
    2.2600   61.5940   71.4670 C   0  0  0  0  0  0  0  0  0  0  0  0
    2.5820   64.1430   70.2860 S   0  0  0  0  0  0  0  0  0  0  0  0
    1.1970   65.1370   70.4760 C   0  0  0  0  0  0  0  0  0  0  0  0
    0.1980   64.6080   71.1490 N   0  0  0  0  0  0  0  0  0  0  0  0
   -0.5780   66.6630   68.6970 S   0  0  0  0  0  0  0  0  0  0  0  0
    0.0100   67.2500   67.1480 C   0  0  0  0  0  0  0  0  0  0  0  0
    1.1540   66.8640   66.6270 N   0  0  0  0  0  0  0  0  0  0  0  0
    1.3440   67.4840   65.4050 C   0  0  0  0  0  0  0  0  0  0  0  0
    0.3290   68.3590   65.0120 C   0  0  0  0  0  0  0  0  0  0  0  0
   -0.8850   68.3870   66.2320 S   0  0  0  0  0  0  0  0  0  0  0  0
    0.3840   69.0620   63.7970 C   0  0  0  0  0  0  0  0  0  0  0  0
    1.4930   68.8650   62.9680 C   0  0  0  0  0  0  0  0  0  0  0  0
    2.5160   67.9980   63.3390 C   0  0  0  0  0  0  0  0  0  0  0  0
    2.4520   67.3040   64.5520 C   0  0  0  0  0  0  0  0  0  0  0  0
    1.7612   59.7312   72.4471 H   0  0  0  0  0  0  0  0  0  0  0  0
   -0.4992   60.4730   73.1453 H   0  0  0  0  0  0  0  0  0  0  0  0
   -1.3115   62.7640   72.5719 H   0  0  0  0  0  0  0  0  0  0  0  0
    3.2630   61.2656   71.1569 H   0  0  0  0  0  0  0  0  0  0  0  0
   -0.4239   69.7493   63.5054 H   0  0  0  0  0  0  0  0  0  0  0  0
    1.5573   69.4024   62.0104 H   0  0  0  0  0  0  0  0  0  0  0  0
    3.3809   67.8573   62.6741 H   0  0  0  0  0  0  0  0  0  0  0  0
    3.2639   66.6198   64.8394 H   0  0  0  0  0  0  0  0  0  0  0  0
  3  2  2  0
  4  3  1  0
  5  4  2  0
  6  5  1  0
  7  6  2  0
  7  2  1  0
  8  6  1  0
  9  8  1  0
  9  1  1  0
 10  9  2  0
 10  5  1  0
 11  1  1  0
 12 11  1  0
 13 12  2  0
 14 13  1  0
 15 14  2  0
 16 15  1  0
 16 12  1  0
 17 15  1  0
 18 17  2  0
 19 18  1  0
 20 19  2  0
 20 14  1  0
  2 21  1  0
  3 22  1  0
  4 23  1  0
  7 24  1  0
 17 25  1  0
 18 26  1  0
 19 27  1  0
 20 28  1  0
M  END
>  <score>  (5) 
-8.113

$$$$
=
     RDKit          3D

 28 31  0  0  0  0  0  0  0  0999 V2000
    2.6650   64.0600   70.5480 S   0  0  0  0  0  0  0  0  0  0  0  0
    2.8260   57.6720   71.6110 C   0  0  0  0  0  0  0  0  0  0  0  0
    1.9610   58.1160   72.6050 C   0  0  0  0  0  0  0  0  0  0  0  0
    1.6560   59.4760   72.7250 C   0  0  0  0  0  0  0  0  0  0  0  0
    2.2290   60.4030   71.8320 C   0  0  0  0  0  0  0  0  0  0  0  0
    3.0960   59.9360   70.8430 C   0  0  0  0  0  0  0  0  0  0  0  0
    3.4090   58.5720   70.7130 C   0  0  0  0  0  0  0  0  0  0  0  0
    3.6450   61.2710   69.9050 S   0  0  0  0  0  0  0  0  0  0  0  0
    2.6950   62.3310   70.8620 C   0  0  0  0  0  0  0  0  0  0  0  0
    2.0160   61.7710   71.8380 N   0  0  0  0  0  0  0  0  0  0  0  0
    0.7270   64.5030   71.0880 S   0  0  0  0  0  0  0  0  0  0  0  0
    0.3280   65.7160   69.8790 C   0  0  0  0  0  0  0  0  0  0  0  0
   -0.7940   65.6980   69.1940 N   0  0  0  0  0  0  0  0  0  0  0  0
   -0.8320   66.7760   68.3290 C   0  0  0  0  0  0  0  0  0  0  0  0
    0.2880   67.6100   68.3600 C   0  0  0  0  0  0  0  0  0  0  0  0
    1.4070   66.9960   69.5150 S   0  0  0  0  0  0  0  0  0  0  0  0
    0.3930   68.7440   67.5380 C   0  0  0  0  0  0  0  0  0  0  0  0
   -0.6660   69.0330   66.6710 C   0  0  0  0  0  0  0  0  0  0  0  0
   -1.7910   68.2170   66.6230 C   0  0  0  0  0  0  0  0  0  0  0  0
   -1.8850   67.0890   67.4450 C   0  0  0  0  0  0  0  0  0  0  0  0
    3.0547   56.5991   71.5298 H   0  0  0  0  0  0  0  0  0  0  0  0
    1.5132   57.3925   73.3022 H   0  0  0  0  0  0  0  0  0  0  0  0
    0.9711   59.8205   73.5139 H   0  0  0  0  0  0  0  0  0  0  0  0
    4.0937   58.2219   69.9265 H   0  0  0  0  0  0  0  0  0  0  0  0
    1.2842   69.3877   67.5750 H   0  0  0  0  0  0  0  0  0  0  0  0
   -0.6081   69.9170   66.0189 H   0  0  0  0  0  0  0  0  0  0  0  0
   -2.6130   68.4603   65.9337 H   0  0  0  0  0  0  0  0  0  0  0  0
   -2.7779   66.4480   67.4019 H   0  0  0  0  0  0  0  0  0  0  0  0
  3  2  2  0
  4  3  1  0
  5  4  2  0
  6  5  1  0
  7  6  2  0
  7  2  1  0
  8  6  1  0
  9  8  1  0
  9  1  1  0
 10  9  2  0
 10  5  1  0
 11  1  1  0
 12 11  1  0
 13 12  2  0
 14 13  1  0
 15 14  2  0
 16 15  1  0
 16 12  1  0
 17 15  1  0
 18 17  2  0
 19 18  1  0
 20 19  2  0
 20 14  1  0
  2 21  1  0
  3 22  1  0
  4 23  1  0
  7 24  1  0
 17 25  1  0
 18 26  1  0
 19 27  1  0
 20 28  1  0
M  END
>  <score>  (6) 
-8.008

$$$$
=
     RDKit          3D

 28 31  0  0  0  0  0  0  0  0999 V2000
    2.0300   59.3460   75.1940 S   0  0  0  0  0  0  0  0  0  0  0  0
   -0.5230   53.4320   74.5110 C   0  0  0  0  0  0  0  0  0  0  0  0
    0.7890   53.2370   74.0960 C   0  0  0  0  0  0  0  0  0  0  0  0
    1.6960   54.3020   74.0870 C   0  0  0  0  0  0  0  0  0  0  0  0
    1.2770   55.5820   74.5040 C   0  0  0  0  0  0  0  0  0  0  0  0
   -0.0460   55.7550   74.9150 C   0  0  0  0  0  0  0  0  0  0  0  0
   -0.9650   54.6920   74.9280 C   0  0  0  0  0  0  0  0  0  0  0  0
   -0.2810   57.4000   75.3620 S   0  0  0  0  0  0  0  0  0  0  0  0
    1.3610   57.7330   74.9930 C   0  0  0  0  0  0  0  0  0  0  0  0
    2.0660   56.7180   74.5450 N   0  0  0  0  0  0  0  0  0  0  0  0
    3.9370   59.0510   74.4750 S   0  0  0  0  0  0  0  0  0  0  0  0
    3.8720   59.9990   72.9960 C   0  0  0  0  0  0  0  0  0  0  0  0
    4.5550   61.1100   72.8300 N   0  0  0  0  0  0  0  0  0  0  0  0
    4.3100   61.6270   71.5710 C   0  0  0  0  0  0  0  0  0  0  0  0
    3.4180   60.8940   70.7850 C   0  0  0  0  0  0  0  0  0  0  0  0
    2.8840   59.5240   71.6790 S   0  0  0  0  0  0  0  0  0  0  0  0
    3.0720   61.2960   69.4840 C   0  0  0  0  0  0  0  0  0  0  0  0
    3.6490   62.4640   68.9770 C   0  0  0  0  0  0  0  0  0  0  0  0
    4.5400   63.2100   69.7410 C   0  0  0  0  0  0  0  0  0  0  0  0
    4.8770   62.8020   71.0360 C   0  0  0  0  0  0  0  0  0  0  0  0
   -1.2235   52.5839   74.5116 H   0  0  0  0  0  0  0  0  0  0  0  0
    1.1166   52.2380   73.7723 H   0  0  0  0  0  0  0  0  0  0  0  0
    2.7326   54.1413   73.7557 H   0  0  0  0  0  0  0  0  0  0  0  0
   -2.0032   54.8464   75.2570 H   0  0  0  0  0  0  0  0  0  0  0  0
    2.3657   60.7072   68.8803 H   0  0  0  0  0  0  0  0  0  0  0  0
    3.3949   62.7975   67.9601 H   0  0  0  0  0  0  0  0  0  0  0  0
    4.9826   64.1268   69.3243 H   0  0  0  0  0  0  0  0  0  0  0  0
    5.5825   63.3962   71.6353 H   0  0  0  0  0  0  0  0  0  0  0  0
  3  2  2  0
  4  3  1  0
  5  4  2  0
  6  5  1  0
  7  6  2  0
  7  2  1  0
  8  6  1  0
  9  8  1  0
  9  1  1  0
 10  9  2  0
 10  5  1  0
 11  1  1  0
 12 11  1  0
 13 12  2  0
 14 13  1  0
 15 14  2  0
 16 15  1  0
 16 12  1  0
 17 15  1  0
 18 17  2  0
 19 18  1  0
 20 19  2  0
 20 14  1  0
  2 21  1  0
  3 22  1  0
  4 23  1  0
  7 24  1  0
 17 25  1  0
 18 26  1  0
 19 27  1  0
 20 28  1  0
M  END
>  <score>  (7) 
-7.222

$$$$
=
     RDKit          3D

 28 31  0  0  0  0  0  0  0  0999 V2000
    2.8650   58.3020   73.3190 S   0  0  0  0  0  0  0  0  0  0  0  0
    4.5390   63.3480   69.6180 C   0  0  0  0  0  0  0  0  0  0  0  0
    3.7080   62.6230   68.7710 C   0  0  0  0  0  0  0  0  0  0  0  0
    3.1250   61.4260   69.2030 C   0  0  0  0  0  0  0  0  0  0  0  0
    3.3830   60.9520   70.5040 C   0  0  0  0  0  0  0  0  0  0  0  0
    4.2220   61.6950   71.3370 C   0  0  0  0  0  0  0  0  0  0  0  0
    4.8110   62.8980   70.9140 C   0  0  0  0  0  0  0  0  0  0  0  0
    4.3610   60.8900   72.8520 S   0  0  0  0  0  0  0  0  0  0  0  0
    3.3080   59.6570   72.2920 C   0  0  0  0  0  0  0  0  0  0  0  0
    2.8760   59.7890   71.0570 N   0  0  0  0  0  0  0  0  0  0  0  0
    0.8160   58.5070   73.3430 S   0  0  0  0  0  0  0  0  0  0  0  0
    0.6690   60.2060   73.7670 C   0  0  0  0  0  0  0  0  0  0  0  0
    1.0130   60.6810   74.9430 N   0  0  0  0  0  0  0  0  0  0  0  0
    0.7950   62.0460   74.9810 C   0  0  0  0  0  0  0  0  0  0  0  0
    0.2660   62.6000   73.8130 C   0  0  0  0  0  0  0  0  0  0  0  0
    0.0440   61.3480   72.6530 S   0  0  0  0  0  0  0  0  0  0  0  0
   -0.0100   63.9730   73.7020 C   0  0  0  0  0  0  0  0  0  0  0  0
    0.2610   64.7940   74.8010 C   0  0  0  0  0  0  0  0  0  0  0  0
    0.7880   64.2640   75.9740 C   0  0  0  0  0  0  0  0  0  0  0  0
    1.0580   62.8950   76.0750 C   0  0  0  0  0  0  0  0  0  0  0  0
    4.9883   64.2876   69.2641 H   0  0  0  0  0  0  0  0  0  0  0  0
    3.5074   62.9927   67.7546 H   0  0  0  0  0  0  0  0  0  0  0  0
    2.4676   60.8575   68.5287 H   0  0  0  0  0  0  0  0  0  0  0  0
    5.4687   63.4709   71.5842 H   0  0  0  0  0  0  0  0  0  0  0  0
   -0.4284   64.3913   72.7747 H   0  0  0  0  0  0  0  0  0  0  0  0
    0.0548   65.8726   74.7371 H   0  0  0  0  0  0  0  0  0  0  0  0
    0.9939   64.9258   76.8282 H   0  0  0  0  0  0  0  0  0  0  0  0
    1.4744   62.4823   77.0057 H   0  0  0  0  0  0  0  0  0  0  0  0
  3  2  2  0
  4  3  1  0
  5  4  2  0
  6  5  1  0
  7  6  2  0
  7  2  1  0
  8  6  1  0
  9  8  1  0
  9  1  1  0
 10  9  2  0
 10  5  1  0
 11  1  1  0
 12 11  1  0
 13 12  2  0
 14 13  1  0
 15 14  2  0
 16 15  1  0
 16 12  1  0
 17 15  1  0
 18 17  2  0
 19 18  1  0
 20 19  2  0
 20 14  1  0
  2 21  1  0
  3 22  1  0
  4 23  1  0
  7 24  1  0
 17 25  1  0
 18 26  1  0
 19 27  1  0
 20 28  1  0
M  END
>  <score>  (8) 
-7.2

$$$$
=
     RDKit          3D

 28 31  0  0  0  0  0  0  0  0999 V2000
    4.1180   58.9970   74.4950 S   0  0  0  0  0  0  0  0  0  0  0  0
    3.5920   62.3150   68.9560 C   0  0  0  0  0  0  0  0  0  0  0  0
    4.4760   63.1010   69.6880 C   0  0  0  0  0  0  0  0  0  0  0  0
    4.8560   62.7230   70.9810 C   0  0  0  0  0  0  0  0  0  0  0  0
    4.3410   61.5390   71.5440 C   0  0  0  0  0  0  0  0  0  0  0  0
    3.4530   60.7670   70.7920 C   0  0  0  0  0  0  0  0  0  0  0  0
    3.0660   61.1360   69.4930 C   0  0  0  0  0  0  0  0  0  0  0  0
    2.9850   59.3930   71.7170 S   0  0  0  0  0  0  0  0  0  0  0  0
    3.9880   59.9200   73.0050 C   0  0  0  0  0  0  0  0  0  0  0  0
    4.6300   61.0510   72.8070 N   0  0  0  0  0  0  0  0  0  0  0  0
    2.2520   59.3310   75.3030 S   0  0  0  0  0  0  0  0  0  0  0  0
    1.5130   57.7540   75.0620 C   0  0  0  0  0  0  0  0  0  0  0  0
    2.1880   56.7060   74.6430 N   0  0  0  0  0  0  0  0  0  0  0  0
    1.3480   55.6110   74.5580 C   0  0  0  0  0  0  0  0  0  0  0  0
    0.0160   55.8480   74.9090 C   0  0  0  0  0  0  0  0  0  0  0  0
   -0.1570   57.5020   75.3510 S   0  0  0  0  0  0  0  0  0  0  0  0
   -0.9530   54.8330   74.8710 C   0  0  0  0  0  0  0  0  0  0  0  0
   -0.5560   53.5530   74.4700 C   0  0  0  0  0  0  0  0  0  0  0  0
    0.7630   53.2940   74.1170 C   0  0  0  0  0  0  0  0  0  0  0  0
    1.7210   54.3130   74.1560 C   0  0  0  0  0  0  0  0  0  0  0  0
    3.3029   62.6252   67.9410 H   0  0  0  0  0  0  0  0  0  0  0  0
    4.8788   64.0252   69.2480 H   0  0  0  0  0  0  0  0  0  0  0  0
    5.5547   63.3487   71.5557 H   0  0  0  0  0  0  0  0  0  0  0  0
    2.3678   60.5140   68.9137 H   0  0  0  0  0  0  0  0  0  0  0  0
   -1.9971   55.0388   75.1493 H   0  0  0  0  0  0  0  0  0  0  0  0
   -1.2973   52.7411   74.4336 H   0  0  0  0  0  0  0  0  0  0  0  0
    1.0559   52.2807   73.8047 H   0  0  0  0  0  0  0  0  0  0  0  0
    2.7628   54.1014   73.8735 H   0  0  0  0  0  0  0  0  0  0  0  0
  3  2  2  0
  4  3  1  0
  5  4  2  0
  6  5  1  0
  7  6  2  0
  7  2  1  0
  8  6  1  0
  9  8  1  0
  9  1  1  0
 10  9  2  0
 10  5  1  0
 11  1  1  0
 12 11  1  0
 13 12  2  0
 14 13  1  0
 15 14  2  0
 16 15  1  0
 16 12  1  0
 17 15  1  0
 18 17  2  0
 19 18  1  0
 20 19  2  0
 20 14  1  0
  2 21  1  0
  3 22  1  0
  4 23  1  0
  7 24  1  0
 17 25  1  0
 18 26  1  0
 19 27  1  0
 20 28  1  0
M  END
>  <score>  (9) 
-7.187

$$$$
