=
     RDKit          3D

 54 56  0  0  0  0  0  0  0  0999 V2000
    2.4540   59.9890   72.4640 C   0  0  2  0  0  0  0  0  0  0  0  0
    2.7510   61.3510   71.8200 C   0  0  1  0  0  0  0  0  0  0  0  0
    1.6560   62.3620   72.2170 C   0  0  1  0  0  0  0  0  0  0  0  0
    1.5630   62.4230   73.7470 C   0  0  2  0  0  0  0  0  0  0  0  0
    1.3060   61.1140   74.3090 O   0  0  0  0  0  0  0  0  0  0  0  0
    2.3170   60.1640   73.9880 C   0  0  1  0  0  0  0  0  0  0  0  0
    1.9530   58.9030   74.6270 N   0  0  0  0  0  0  0  0  0  0  0  0
    1.0980   57.9500   74.1370 C   0  0  0  0  0  0  0  0  0  0  0  0
    1.0500   56.8880   74.9170 N   0  0  0  0  0  0  0  0  0  0  0  0
    1.8870   57.1800   75.9710 C   0  0  0  0  0  0  0  0  0  0  0  0
    2.4540   58.4330   75.8110 C   0  0  0  0  0  0  0  0  0  0  0  0
    3.3230   59.0360   76.6390 N   0  0  0  0  0  0  0  0  0  0  0  0
    3.6230   58.2880   77.7190 C   0  0  0  0  0  0  0  0  0  0  0  0
    4.5070   58.9260   78.5790 N   0  0  0  0  0  0  0  0  0  0  0  0
    5.0260   58.4200   79.7430 C   0  0  0  0  0  0  0  0  0  0  0  0
    4.8470   57.3030   80.2120 O   0  0  0  0  0  0  0  0  0  0  0  0
    5.9350   59.4010   80.4420 C   0  0  0  0  0  0  0  0  0  0  0  0
    3.1530   57.0640   77.9930 N   0  0  0  0  0  0  0  0  0  0  0  0
    2.2860   56.5200   77.1210 C   0  0  0  0  0  0  0  0  0  0  0  0
    1.6780   54.9700   77.4360 Cl  0  0  0  0  0  0  0  0  0  0  0  0
    0.3920   63.3700   74.1120 C   0  0  0  0  0  0  0  0  0  0  0  0
   -0.7240   63.1020   73.5830 O   0  0  0  0  0  0  0  0  0  0  0  0
    0.7030   64.3080   74.9050 O   0  0  0  0  0  1  0  0  0  0  0  0
    3.5460   59.0760   72.1850 O   0  0  0  0  0  0  0  0  0  0  0  0
    2.7350   57.1180   71.1960 C   0  0  0  0  0  0  0  0  0  0  0  0
    3.4780   58.4040   71.0060 C   0  0  0  0  0  0  0  0  0  0  0  0
    3.9450   58.7840   69.9450 O   0  0  0  0  0  0  0  0  0  0  0  0
    4.0390   61.8020   72.3380 O   0  0  0  0  0  0  0  0  0  0  0  0
    5.0810   61.8600   71.4690 C   0  0  0  0  0  0  0  0  0  0  0  0
    5.9740   61.0350   71.3530 O   0  0  0  0  0  0  0  0  0  0  0  0
    4.9920   63.1200   70.6620 C   0  0  0  0  0  0  0  0  0  0  0  0
    1.9950   63.6630   71.6990 O   0  0  0  0  0  0  0  0  0  0  0  0
    1.2450   64.0900   70.6470 C   0  0  0  0  0  0  0  0  0  0  0  0
    0.3630   63.4520   70.0900 O   0  0  0  0  0  0  0  0  0  0  0  0
    1.6790   65.4650   70.2410 C   0  0  0  0  0  0  0  0  0  0  0  0
    1.5182   59.5839   72.0516 H   0  0  0  0  0  0  0  0  0  0  0  0
    2.7733   61.2686   70.7233 H   0  0  0  0  0  0  0  0  0  0  0  0
    0.6876   62.0476   71.8006 H   0  0  0  0  0  0  0  0  0  0  0  0
    2.5172   62.7871   74.1555 H   0  0  0  0  0  0  0  0  0  0  0  0
    3.2940   60.5123   74.3543 H   0  0  0  0  0  0  0  0  0  0  0  0
    0.5220   58.0582   73.2062 H   0  0  0  0  0  0  0  0  0  0  0  0
    4.8032   59.8767   78.3156 H   0  0  0  0  0  0  0  0  0  0  0  0
    5.8294   59.2870   81.5310 H   0  0  0  0  0  0  0  0  0  0  0  0
    6.9779   59.2051   80.1523 H   0  0  0  0  0  0  0  0  0  0  0  0
    5.6603   60.4260   80.1523 H   0  0  0  0  0  0  0  0  0  0  0  0
    2.6189   56.9170   72.2712 H   0  0  0  0  0  0  0  0  0  0  0  0
    1.7425   57.1954   70.7282 H   0  0  0  0  0  0  0  0  0  0  0  0
    3.2978   56.2968   70.7282 H   0  0  0  0  0  0  0  0  0  0  0  0
    4.9309   63.9852   71.3385 H   0  0  0  0  0  0  0  0  0  0  0  0
    5.8858   63.2130   70.0276 H   0  0  0  0  0  0  0  0  0  0  0  0
    4.0940   63.0865   70.0276 H   0  0  0  0  0  0  0  0  0  0  0  0
    1.8698   66.0696   71.1399 H   0  0  0  0  0  0  0  0  0  0  0  0
    2.5994   65.3972   69.6425 H   0  0  0  0  0  0  0  0  0  0  0  0
    0.8864   65.9379   69.6425 H   0  0  0  0  0  0  0  0  0  0  0  0
  2  1  1  0
  3  2  1  0
  4  3  1  0
  5  4  1  0
  6  5  1  0
  6  1  1  0
  7  6  1  0
  8  7  1  0
  9  8  2  0
 10  9  1  0
 11 10  2  0
 11  7  1  0
 12 11  1  0
 13 12  2  0
 14 13  1  0
 15 14  1  0
 16 15  2  0
 17 15  1  0
 18 13  1  0
 19 10  1  0
 19 18  2  0
 20 19  1  0
 21  4  1  0
 22 21  2  0
 23 21  1  0
 24  1  1  0
 26 25  1  0
 26 24  1  0
 27 26  2  0
 28  2  1  0
 29 28  1  0
 30 29  2  0
 31 29  1  0
 32  3  1  0
 33 32  1  0
 34 33  2  0
 35 33  1  0
  1 36  1  6
  2 37  1  6
  3 38  1  6
  4 39  1  1
  6 40  1  1
  8 41  1  0
 14 42  1  0
 17 43  1  0
 17 44  1  0
 17 45  1  0
 25 46  1  0
 25 47  1  0
 25 48  1  0
 31 49  1  0
 31 50  1  0
 31 51  1  0
 35 52  1  0
 35 53  1  0
 35 54  1  0
M  CHG  1  23  -1
M  END
>  <score>  (1) 
-8.251

$$$$
=
     RDKit          3D

 54 56  0  0  0  0  0  0  0  0999 V2000
    2.5150   60.0970   72.4210 C   0  0  2  0  0  0  0  0  0  0  0  0
    2.7520   61.4700   71.7750 C   0  0  1  0  0  0  0  0  0  0  0  0
    1.6510   62.4520   72.2240 C   0  0  1  0  0  0  0  0  0  0  0  0
    1.6220   62.5030   73.7570 C   0  0  2  0  0  0  0  0  0  0  0  0
    1.4200   61.1850   74.3210 O   0  0  0  0  0  0  0  0  0  0  0  0
    2.4380   60.2610   73.9510 C   0  0  1  0  0  0  0  0  0  0  0  0
    2.1310   58.9880   74.5970 N   0  0  0  0  0  0  0  0  0  0  0  0
    3.0310   58.0500   75.0330 C   0  0  0  0  0  0  0  0  0  0  0  0
    2.4340   57.0500   75.6520 N   0  0  0  0  0  0  0  0  0  0  0  0
    1.0900   57.3410   75.5860 C   0  0  0  0  0  0  0  0  0  0  0  0
    0.8810   58.5410   74.9280 C   0  0  0  0  0  0  0  0  0  0  0  0
   -0.3010   59.1350   74.6900 N   0  0  0  0  0  0  0  0  0  0  0  0
   -1.3470   58.4290   75.1640 C   0  0  0  0  0  0  0  0  0  0  0  0
   -2.5640   59.0410   74.8980 N   0  0  0  0  0  0  0  0  0  0  0  0
   -3.8040   58.5930   75.2730 C   0  0  0  0  0  0  0  0  0  0  0  0
   -4.0650   57.6050   75.9480 O   0  0  0  0  0  0  0  0  0  0  0  0
   -4.9130   59.4950   74.7870 C   0  0  0  0  0  0  0  0  0  0  0  0
   -1.2870   57.2640   75.8200 N   0  0  0  0  0  0  0  0  0  0  0  0
   -0.0710   56.7250   76.0230 C   0  0  0  0  0  0  0  0  0  0  0  0
    0.0390   55.2530   76.8570 Cl  0  0  0  0  0  0  0  0  0  0  0  0
    0.4470   63.4200   74.1780 C   0  0  0  0  0  0  0  0  0  0  0  0
    0.7330   64.3570   74.9770 O   0  0  0  0  0  0  0  0  0  0  0  0
   -0.6700   63.1110   73.6660 O   0  0  0  0  0  1  0  0  0  0  0  0
    3.6140   59.2120   72.0900 O   0  0  0  0  0  0  0  0  0  0  0  0
    2.6410   57.2160   71.3570 C   0  0  0  0  0  0  0  0  0  0  0  0
    3.4420   58.4280   70.9950 C   0  0  0  0  0  0  0  0  0  0  0  0
    3.8690   58.6670   69.8760 O   0  0  0  0  0  0  0  0  0  0  0  0
    4.0490   61.9490   72.2400 O   0  0  0  0  0  0  0  0  0  0  0  0
    5.0660   61.9870   71.3400 C   0  0  0  0  0  0  0  0  0  0  0  0
    5.9420   61.1470   71.2010 O   0  0  0  0  0  0  0  0  0  0  0  0
    4.9720   63.2450   70.5300 C   0  0  0  0  0  0  0  0  0  0  0  0
    1.9370   63.7650   71.7010 O   0  0  0  0  0  0  0  0  0  0  0  0
    1.2110   64.1340   70.6120 C   0  0  0  0  0  0  0  0  0  0  0  0
    0.3810   63.4440   70.0360 O   0  0  0  0  0  0  0  0  0  0  0  0
    1.5960   65.5180   70.1920 C   0  0  0  0  0  0  0  0  0  0  0  0
    1.5729   59.6712   72.0453 H   0  0  0  0  0  0  0  0  0  0  0  0
    2.7298   61.3943   70.6778 H   0  0  0  0  0  0  0  0  0  0  0  0
    0.6740   62.1162   71.8463 H   0  0  0  0  0  0  0  0  0  0  0  0
    2.5840   62.8876   74.1267 H   0  0  0  0  0  0  0  0  0  0  0  0
    3.4211   60.6308   74.2776 H   0  0  0  0  0  0  0  0  0  0  0  0
    4.1185   58.1226   74.8846 H   0  0  0  0  0  0  0  0  0  0  0  0
   -2.5321   59.9215   74.3645 H   0  0  0  0  0  0  0  0  0  0  0  0
   -5.4413   59.9247   75.6509 H   0  0  0  0  0  0  0  0  0  0  0  0
   -4.4861   60.3055   74.1780 H   0  0  0  0  0  0  0  0  0  0  0  0
   -5.6195   58.9120   74.1780 H   0  0  0  0  0  0  0  0  0  0  0  0
    2.5831   57.1284   72.4520 H   0  0  0  0  0  0  0  0  0  0  0  0
    1.6264   57.3098   70.9425 H   0  0  0  0  0  0  0  0  0  0  0  0
    3.1250   56.3194   70.9425 H   0  0  0  0  0  0  0  0  0  0  0  0
    4.9073   64.1115   71.2046 H   0  0  0  0  0  0  0  0  0  0  0  0
    5.8655   63.3402   69.8955 H   0  0  0  0  0  0  0  0  0  0  0  0
    4.0742   63.2064   69.8955 H   0  0  0  0  0  0  0  0  0  0  0  0
    1.7683   66.1374   71.0845 H   0  0  0  0  0  0  0  0  0  0  0  0
    2.5166   65.4762   69.5914 H   0  0  0  0  0  0  0  0  0  0  0  0
    0.7860   65.9576   69.5914 H   0  0  0  0  0  0  0  0  0  0  0  0
  2  1  1  0
  3  2  1  0
  4  3  1  0
  5  4  1  0
  6  5  1  0
  6  1  1  0
  7  6  1  0
  8  7  1  0
  9  8  2  0
 10  9  1  0
 11 10  2  0
 11  7  1  0
 12 11  1  0
 13 12  2  0
 14 13  1  0
 15 14  1  0
 16 15  2  0
 17 15  1  0
 18 13  1  0
 19 10  1  0
 19 18  2  0
 20 19  1  0
 21  4  1  0
 22 21  2  0
 23 21  1  0
 24  1  1  0
 26 25  1  0
 26 24  1  0
 27 26  2  0
 28  2  1  0
 29 28  1  0
 30 29  2  0
 31 29  1  0
 32  3  1  0
 33 32  1  0
 34 33  2  0
 35 33  1  0
  1 36  1  6
  2 37  1  6
  3 38  1  6
  4 39  1  1
  6 40  1  1
  8 41  1  0
 14 42  1  0
 17 43  1  0
 17 44  1  0
 17 45  1  0
 25 46  1  0
 25 47  1  0
 25 48  1  0
 31 49  1  0
 31 50  1  0
 31 51  1  0
 35 52  1  0
 35 53  1  0
 35 54  1  0
M  CHG  1  23  -1
M  END
>  <score>  (2) 
-7.999

$$$$
=
     RDKit          3D

 54 56  0  0  0  0  0  0  0  0999 V2000
    0.9550   62.2880   73.8720 C   0  0  2  0  0  0  0  0  0  0  0  0
    1.6790   62.5490   72.5430 C   0  0  1  0  0  0  0  0  0  0  0  0
    2.7820   61.4920   72.3360 C   0  0  1  0  0  0  0  0  0  0  0  0
    2.1550   60.0930   72.4180 C   0  0  2  0  0  0  0  0  0  0  0  0
    1.4650   59.9020   73.6770 O   0  0  0  0  0  0  0  0  0  0  0  0
    0.4180   60.8450   73.8840 C   0  0  1  0  0  0  0  0  0  0  0  0
   -0.2060   60.5310   75.1660 N   0  0  0  0  0  0  0  0  0  0  0  0
    0.4300   60.3440   76.3660 C   0  0  0  0  0  0  0  0  0  0  0  0
   -0.4260   60.1600   77.3510 N   0  0  0  0  0  0  0  0  0  0  0  0
   -1.6680   60.2020   76.7580 C   0  0  0  0  0  0  0  0  0  0  0  0
   -1.5510   60.4260   75.3960 C   0  0  0  0  0  0  0  0  0  0  0  0
   -2.5540   60.5350   74.5080 N   0  0  0  0  0  0  0  0  0  0  0  0
   -3.7700   60.3930   75.0710 C   0  0  0  0  0  0  0  0  0  0  0  0
   -4.7990   60.4870   74.1430 N   0  0  0  0  0  0  0  0  0  0  0  0
   -6.1430   60.4170   74.4020 C   0  0  0  0  0  0  0  0  0  0  0  0
   -6.6840   60.3070   75.4950 O   0  0  0  0  0  0  0  0  0  0  0  0
   -6.9770   60.5300   73.1500 C   0  0  0  0  0  0  0  0  0  0  0  0
   -4.0250   60.1790   76.3680 N   0  0  0  0  0  0  0  0  0  0  0  0
   -2.9740   60.0800   77.2010 C   0  0  0  0  0  0  0  0  0  0  0  0
   -3.2640   59.8160   78.8500 Cl  0  0  0  0  0  0  0  0  0  0  0  0
    3.2990   59.0550   72.3050 C   0  0  0  0  0  0  0  0  0  0  0  0
    3.3230   58.3710   71.2420 O   0  0  0  0  0  0  0  0  0  0  0  0
    4.0760   59.0180   73.3040 O   0  0  0  0  0  1  0  0  0  0  0  0
   -0.1540   63.2110   74.0060 O   0  0  0  0  0  0  0  0  0  0  0  0
    1.0930   64.1920   75.7240 C   0  0  0  0  0  0  0  0  0  0  0  0
    0.1250   64.4000   74.6010 C   0  0  0  0  0  0  0  0  0  0  0  0
   -0.3360   65.4820   74.2750 O   0  0  0  0  0  0  0  0  0  0  0  0
    0.6870   62.4310   71.4800 O   0  0  0  0  0  0  0  0  0  0  0  0
    0.4910   63.5100   70.6790 C   0  0  0  0  0  0  0  0  0  0  0  0
   -0.3260   63.6030   69.7760 O   0  0  0  0  0  0  0  0  0  0  0  0
    1.4540   64.5960   71.0550 C   0  0  0  0  0  0  0  0  0  0  0  0
    3.3860   61.6760   71.0410 O   0  0  0  0  0  0  0  0  0  0  0  0
    4.6950   62.0460   71.0510 C   0  0  0  0  0  0  0  0  0  0  0  0
    5.6210   61.3940   71.5130 O   0  0  0  0  0  0  0  0  0  0  0  0
    4.8430   63.4010   70.4320 C   0  0  0  0  0  0  0  0  0  0  0  0
    1.6566   62.4302   74.7072 H   0  0  0  0  0  0  0  0  0  0  0  0
    2.1433   63.5462   72.5404 H   0  0  0  0  0  0  0  0  0  0  0  0
    3.5525   61.5991   73.1137 H   0  0  0  0  0  0  0  0  0  0  0  0
    1.4223   59.9737   71.6063 H   0  0  0  0  0  0  0  0  0  0  0  0
   -0.3190   60.7777   73.0702 H   0  0  0  0  0  0  0  0  0  0  0  0
    1.5228   60.3472   76.4915 H   0  0  0  0  0  0  0  0  0  0  0  0
   -4.5240   60.6232   73.1598 H   0  0  0  0  0  0  0  0  0  0  0  0
   -8.0326   60.6730   73.4243 H   0  0  0  0  0  0  0  0  0  0  0  0
   -6.6327   61.3897   72.5564 H   0  0  0  0  0  0  0  0  0  0  0  0
   -6.8738   59.6097   72.5564 H   0  0  0  0  0  0  0  0  0  0  0  0
    0.5695   64.3045   76.6849 H   0  0  0  0  0  0  0  0  0  0  0  0
    1.5217   63.1812   75.6561 H   0  0  0  0  0  0  0  0  0  0  0  0
    1.8990   64.9374   75.6561 H   0  0  0  0  0  0  0  0  0  0  0  0
    1.5169   64.6670   72.1509 H   0  0  0  0  0  0  0  0  0  0  0  0
    2.4478   64.3630   70.6450 H   0  0  0  0  0  0  0  0  0  0  0  0
    1.1038   65.5548   70.6450 H   0  0  0  0  0  0  0  0  0  0  0  0
    4.9258   64.1592   71.2247 H   0  0  0  0  0  0  0  0  0  0  0  0
    5.7488   63.4222   69.8082 H   0  0  0  0  0  0  0  0  0  0  0  0
    3.9631   63.6173   69.8082 H   0  0  0  0  0  0  0  0  0  0  0  0
  2  1  1  0
  3  2  1  0
  4  3  1  0
  5  4  1  0
  6  5  1  0
  6  1  1  0
  7  6  1  0
  8  7  1  0
  9  8  2  0
 10  9  1  0
 11 10  2  0
 11  7  1  0
 12 11  1  0
 13 12  2  0
 14 13  1  0
 15 14  1  0
 16 15  2  0
 17 15  1  0
 18 13  1  0
 19 10  1  0
 19 18  2  0
 20 19  1  0
 21  4  1  0
 22 21  2  0
 23 21  1  0
 24  1  1  0
 26 25  1  0
 26 24  1  0
 27 26  2  0
 28  2  1  0
 29 28  1  0
 30 29  2  0
 31 29  1  0
 32  3  1  0
 33 32  1  0
 34 33  2  0
 35 33  1  0
  1 36  1  1
  2 37  1  1
  3 38  1  1
  4 39  1  6
  6 40  1  6
  8 41  1  0
 14 42  1  0
 17 43  1  0
 17 44  1  0
 17 45  1  0
 25 46  1  0
 25 47  1  0
 25 48  1  0
 31 49  1  0
 31 50  1  0
 31 51  1  0
 35 52  1  0
 35 53  1  0
 35 54  1  0
M  CHG  1  23  -1
M  END
>  <score>  (3) 
-7.531

$$$$
=
     RDKit          3D

 54 56  0  0  0  0  0  0  0  0999 V2000
    2.0800   60.8140   74.1590 C   0  0  2  0  0  0  0  0  0  0  0  0
    1.7060   61.5420   72.8590 C   0  0  1  0  0  0  0  0  0  0  0  0
    2.7650   61.2500   71.7780 C   0  0  1  0  0  0  0  0  0  0  0  0
    2.8960   59.7310   71.6040 C   0  0  2  0  0  0  0  0  0  0  0  0
    3.2260   59.0860   72.8580 O   0  0  0  0  0  0  0  0  0  0  0  0
    2.2500   59.3110   73.8700 C   0  0  1  0  0  0  0  0  0  0  0  0
    2.6870   58.5960   75.0660 N   0  0  0  0  0  0  0  0  0  0  0  0
    3.8140   58.8450   75.8070 C   0  0  0  0  0  0  0  0  0  0  0  0
    3.8750   58.0780   76.8770 N   0  0  0  0  0  0  0  0  0  0  0  0
    2.7560   57.2790   76.8090 C   0  0  0  0  0  0  0  0  0  0  0  0
    2.0060   57.5830   75.6860 C   0  0  0  0  0  0  0  0  0  0  0  0
    0.8500   57.0110   75.3080 N   0  0  0  0  0  0  0  0  0  0  0  0
    0.4430   56.0460   76.1560 C   0  0  0  0  0  0  0  0  0  0  0  0
   -0.7430   55.4470   75.7480 N   0  0  0  0  0  0  0  0  0  0  0  0
   -1.4280   54.4590   76.4060 C   0  0  0  0  0  0  0  0  0  0  0  0
   -1.1520   53.9570   77.4880 O   0  0  0  0  0  0  0  0  0  0  0  0
   -2.6650   54.0220   75.6590 C   0  0  0  0  0  0  0  0  0  0  0  0
    1.0650   55.6560   77.2750 N   0  0  0  0  0  0  0  0  0  0  0  0
    2.2180   56.2710   77.5920 C   0  0  0  0  0  0  0  0  0  0  0  0
    3.0280   55.8060   79.0070 Cl  0  0  0  0  0  0  0  0  0  0  0  0
    4.0320   59.4670   70.5850 C   0  0  0  0  0  0  0  0  0  0  0  0
    3.7680   58.6500   69.6580 O   0  0  0  0  0  0  0  0  0  0  0  0
    5.1000   60.1100   70.8100 O   0  0  0  0  0  1  0  0  0  0  0  0
    1.0230   60.9970   75.1350 O   0  0  0  0  0  0  0  0  0  0  0  0
    0.8220   63.1770   75.9550 C   0  0  0  0  0  0  0  0  0  0  0  0
    1.3210   61.7870   76.1990 C   0  0  0  0  0  0  0  0  0  0  0  0
    1.9040   61.4270   77.2090 O   0  0  0  0  0  0  0  0  0  0  0  0
    0.4140   61.0200   72.4280 O   0  0  0  0  0  0  0  0  0  0  0  0
   -0.6500   61.8630   72.4640 C   0  0  0  0  0  0  0  0  0  0  0  0
   -0.7120   62.9740   71.9620 O   0  0  0  0  0  0  0  0  0  0  0  0
   -1.7650   61.2300   73.2420 C   0  0  0  0  0  0  0  0  0  0  0  0
    2.3550   61.8460   70.5320 O   0  0  0  0  0  0  0  0  0  0  0  0
    2.6330   63.1710   70.3960 C   0  0  0  0  0  0  0  0  0  0  0  0
    1.8280   64.0470   70.1110 O   0  0  0  0  0  0  0  0  0  0  0  0
    4.0950   63.4070   70.6190 C   0  0  0  0  0  0  0  0  0  0  0  0
    3.0213   61.2246   74.5532 H   0  0  0  0  0  0  0  0  0  0  0  0
    1.6583   62.6292   73.0194 H   0  0  0  0  0  0  0  0  0  0  0  0
    3.7343   61.6729   72.0807 H   0  0  0  0  0  0  0  0  0  0  0  0
    1.9374   59.3217   71.2524 H   0  0  0  0  0  0  0  0  0  0  0  0
    1.2683   58.9423   73.5378 H   0  0  0  0  0  0  0  0  0  0  0  0
    4.5745   59.5938   75.5406 H   0  0  0  0  0  0  0  0  0  0  0  0
   -1.1482   55.7793   74.8613 H   0  0  0  0  0  0  0  0  0  0  0  0
   -3.4493   53.7449   76.3788 H   0  0  0  0  0  0  0  0  0  0  0  0
   -3.0227   54.8482   75.0270 H   0  0  0  0  0  0  0  0  0  0  0  0
   -2.4243   53.1545   75.0270 H   0  0  0  0  0  0  0  0  0  0  0  0
    0.6426   63.6766   76.9185 H   0  0  0  0  0  0  0  0  0  0  0  0
    1.5737   63.7414   75.3836 H   0  0  0  0  0  0  0  0  0  0  0  0
   -0.1170   63.1345   75.3836 H   0  0  0  0  0  0  0  0  0  0  0  0
   -1.5697   61.3409   74.3188 H   0  0  0  0  0  0  0  0  0  0  0  0
   -2.7150   61.7235   72.9889 H   0  0  0  0  0  0  0  0  0  0  0  0
   -1.8281   60.1614   72.9889 H   0  0  0  0  0  0  0  0  0  0  0  0
    4.3005   63.4402   71.6991 H   0  0  0  0  0  0  0  0  0  0  0  0
    4.6723   62.5904   70.1608 H   0  0  0  0  0  0  0  0  0  0  0  0
    4.3860   64.3638   70.1608 H   0  0  0  0  0  0  0  0  0  0  0  0
  2  1  1  0
  3  2  1  0
  4  3  1  0
  5  4  1  0
  6  5  1  0
  6  1  1  0
  7  6  1  0
  8  7  1  0
  9  8  2  0
 10  9  1  0
 11 10  2  0
 11  7  1  0
 12 11  1  0
 13 12  2  0
 14 13  1  0
 15 14  1  0
 16 15  2  0
 17 15  1  0
 18 13  1  0
 19 10  1  0
 19 18  2  0
 20 19  1  0
 21  4  1  0
 22 21  2  0
 23 21  1  0
 24  1  1  0
 26 25  1  0
 26 24  1  0
 27 26  2  0
 28  2  1  0
 29 28  1  0
 30 29  2  0
 31 29  1  0
 32  3  1  0
 33 32  1  0
 34 33  2  0
 35 33  1  0
  1 36  1  1
  2 37  1  1
  3 38  1  1
  4 39  1  6
  6 40  1  6
  8 41  1  0
 14 42  1  0
 17 43  1  0
 17 44  1  0
 17 45  1  0
 25 46  1  0
 25 47  1  0
 25 48  1  0
 31 49  1  0
 31 50  1  0
 31 51  1  0
 35 52  1  0
 35 53  1  0
 35 54  1  0
M  CHG  1  23  -1
M  END
>  <score>  (4) 
-7.463

$$$$
=
     RDKit          3D

 54 56  0  0  0  0  0  0  0  0999 V2000
   -3.5750   60.2470   75.4410 C   0  0  2  0  0  0  0  0  0  0  0  0
   -4.8350   60.9300   75.9920 C   0  0  1  0  0  0  0  0  0  0  0  0
   -4.4390   62.1990   76.7730 C   0  0  1  0  0  0  0  0  0  0  0  0
   -3.6080   63.1100   75.8610 C   0  0  2  0  0  0  0  0  0  0  0  0
   -2.4450   62.4160   75.3480 O   0  0  0  0  0  0  0  0  0  0  0  0
   -2.7780   61.2560   74.5930 C   0  0  1  0  0  0  0  0  0  0  0  0
   -1.5290   60.6670   74.1190 N   0  0  0  0  0  0  0  0  0  0  0  0
   -1.0510   59.4140   74.4030 C   0  0  0  0  0  0  0  0  0  0  0  0
    0.0640   59.1550   73.7490 N   0  0  0  0  0  0  0  0  0  0  0  0
    0.3340   60.3020   73.0360 C   0  0  0  0  0  0  0  0  0  0  0  0
   -0.6430   61.2570   73.2570 C   0  0  0  0  0  0  0  0  0  0  0  0
   -0.7060   62.4870   72.7200 N   0  0  0  0  0  0  0  0  0  0  0  0
    0.3270   62.7510   71.8950 C   0  0  0  0  0  0  0  0  0  0  0  0
    0.2640   64.0300   71.3580 N   0  0  0  0  0  0  0  0  0  0  0  0
    1.1430   64.5870   70.4660 C   0  0  0  0  0  0  0  0  0  0  0  0
    2.1110   64.0490   69.9430 O   0  0  0  0  0  0  0  0  0  0  0  0
    0.7850   66.0110   70.1180 C   0  0  0  0  0  0  0  0  0  0  0  0
    1.3320   61.9210   71.5890 N   0  0  0  0  0  0  0  0  0  0  0  0
    1.3320   60.7050   72.1640 C   0  0  0  0  0  0  0  0  0  0  0  0
    2.5870   59.6280   71.7920 Cl  0  0  0  0  0  0  0  0  0  0  0  0
   -3.1440   64.3250   76.7000 C   0  0  0  0  0  0  0  0  0  0  0  0
   -3.5380   65.4580   76.3010 O   0  0  0  0  0  0  0  0  0  0  0  0
   -2.4170   64.0300   77.6950 O   0  0  0  0  0  1  0  0  0  0  0  0
   -3.9590   59.1230   74.6100 O   0  0  0  0  0  0  0  0  0  0  0  0
   -3.5530   57.4380   76.1800 C   0  0  0  0  0  0  0  0  0  0  0  0
   -4.5390   58.0760   75.2510 C   0  0  0  0  0  0  0  0  0  0  0  0
   -5.6920   57.7030   75.1030 O   0  0  0  0  0  0  0  0  0  0  0  0
   -5.6600   61.3030   74.8470 O   0  0  0  0  0  0  0  0  0  0  0  0
   -6.9410   60.8520   74.8190 C   0  0  0  0  0  0  0  0  0  0  0  0
   -7.5740   60.4130   75.7660 O   0  0  0  0  0  0  0  0  0  0  0  0
   -7.4790   60.9560   73.4240 C   0  0  0  0  0  0  0  0  0  0  0  0
   -5.6290   62.8920   77.1960 O   0  0  0  0  0  0  0  0  0  0  0  0
   -5.9810   62.7150   78.4980 C   0  0  0  0  0  0  0  0  0  0  0  0
   -6.3830   61.6720   78.9970 O   0  0  0  0  0  0  0  0  0  0  0  0
   -5.8330   64.0050   79.2430 C   0  0  0  0  0  0  0  0  0  0  0  0
   -2.9542   59.8924   76.2770 H   0  0  0  0  0  0  0  0  0  0  0  0
   -5.3799   60.2559   76.6692 H   0  0  0  0  0  0  0  0  0  0  0  0
   -3.8463   61.9230   77.6576 H   0  0  0  0  0  0  0  0  0  0  0  0
   -4.2220   63.4254   75.0046 H   0  0  0  0  0  0  0  0  0  0  0  0
   -3.4207   61.5298   73.7433 H   0  0  0  0  0  0  0  0  0  0  0  0
   -1.5388   58.7098   75.0931 H   0  0  0  0  0  0  0  0  0  0  0  0
   -0.5237   64.6204   71.6609 H   0  0  0  0  0  0  0  0  0  0  0  0
    0.6397   66.5890   71.0426 H   0  0  0  0  0  0  0  0  0  0  0  0
    1.5982   66.4600   69.5289 H   0  0  0  0  0  0  0  0  0  0  0  0
   -0.1439   66.0221   69.5289 H   0  0  0  0  0  0  0  0  0  0  0  0
   -3.8518   57.6313   77.2209 H   0  0  0  0  0  0  0  0  0  0  0  0
   -3.5294   56.3530   76.0008 H   0  0  0  0  0  0  0  0  0  0  0  0
   -2.5535   57.8611   76.0008 H   0  0  0  0  0  0  0  0  0  0  0  0
   -8.5584   61.1647   73.4619 H   0  0  0  0  0  0  0  0  0  0  0  0
   -6.9663   61.7717   72.8931 H   0  0  0  0  0  0  0  0  0  0  0  0
   -7.3072   60.0080   72.8931 H   0  0  0  0  0  0  0  0  0  0  0  0
   -5.8556   63.8082   80.3250 H   0  0  0  0  0  0  0  0  0  0  0  0
   -4.8750   64.4750   78.9757 H   0  0  0  0  0  0  0  0  0  0  0  0
   -6.6596   64.6797   78.9757 H   0  0  0  0  0  0  0  0  0  0  0  0
  2  1  1  0
  3  2  1  0
  4  3  1  0
  5  4  1  0
  6  5  1  0
  6  1  1  0
  7  6  1  0
  8  7  1  0
  9  8  2  0
 10  9  1  0
 11 10  2  0
 11  7  1  0
 12 11  1  0
 13 12  2  0
 14 13  1  0
 15 14  1  0
 16 15  2  0
 17 15  1  0
 18 13  1  0
 19 10  1  0
 19 18  2  0
 20 19  1  0
 21  4  1  0
 22 21  2  0
 23 21  1  0
 24  1  1  0
 26 25  1  0
 26 24  1  0
 27 26  2  0
 28  2  1  0
 29 28  1  0
 30 29  2  0
 31 29  1  0
 32  3  1  0
 33 32  1  0
 34 33  2  0
 35 33  1  0
  1 36  1  1
  2 37  1  1
  3 38  1  1
  4 39  1  6
  6 40  1  6
  8 41  1  0
 14 42  1  0
 17 43  1  0
 17 44  1  0
 17 45  1  0
 25 46  1  0
 25 47  1  0
 25 48  1  0
 31 49  1  0
 31 50  1  0
 31 51  1  0
 35 52  1  0
 35 53  1  0
 35 54  1  0
M  CHG  1  23  -1
M  END
>  <score>  (5) 
-5.928

$$$$
