=
     RDKit          3D

 31 31  0  0  0  0  0  0  0  0999 V2000
    0.8290   68.0940   67.2540 C   0  0  0  0  0  0  0  0  0  0  0  0
    1.2050   67.2530   68.4850 C   0  0  0  0  0  0  0  0  0  0  0  0
   -0.7070   68.2360   67.2530 C   0  0  0  0  0  0  0  0  0  0  0  0
    1.1800   67.3640   65.9380 C   0  0  0  0  0  0  0  0  0  0  0  0
    2.0070   66.4640   65.8410 O   0  0  0  0  0  0  0  0  0  0  0  0
    0.4420   67.8530   64.9000 O   0  0  0  0  0  0  0  0  0  0  0  0
    0.2140   69.0950   62.8360 C   0  0  0  0  0  0  0  0  0  0  0  0
    1.1350   68.7060   63.9780 C   0  0  0  0  0  0  0  0  0  0  0  0
    1.3180   69.4290   67.4030 O   0  0  0  0  0  0  0  0  0  0  0  0
    2.6410   69.7140   67.5650 C   0  0  0  0  0  0  0  0  0  0  0  0
    3.6710   69.4960   66.6490 C   0  0  0  0  0  0  0  0  0  0  0  0
    4.9880   69.8510   66.9710 C   0  0  0  0  0  0  0  0  0  0  0  0
    5.2760   70.4210   68.2090 C   0  0  0  0  0  0  0  0  0  0  0  0
    4.2590   70.6390   69.1310 C   0  0  0  0  0  0  0  0  0  0  0  0
    2.9480   70.2830   68.8060 C   0  0  0  0  0  0  0  0  0  0  0  0
    6.8940   70.8540   68.5960 Cl  0  0  0  0  0  0  0  0  0  0  0  0
    0.9558   67.8105   69.3999 H   0  0  0  0  0  0  0  0  0  0  0  0
    0.6442   66.3069   68.4679 H   0  0  0  0  0  0  0  0  0  0  0  0
    2.2840   67.0400   68.4679 H   0  0  0  0  0  0  0  0  0  0  0  0
   -1.0728   68.2698   68.2899 H   0  0  0  0  0  0  0  0  0  0  0  0
   -0.9891   69.1641   66.7342 H   0  0  0  0  0  0  0  0  0  0  0  0
   -1.1545   67.3754   66.7342 H   0  0  0  0  0  0  0  0  0  0  0  0
   -0.7273   69.4926   63.2433 H   0  0  0  0  0  0  0  0  0  0  0  0
    0.7004   69.8645   62.2185 H   0  0  0  0  0  0  0  0  0  0  0  0
    0.0015   68.2098   62.2185 H   0  0  0  0  0  0  0  0  0  0  0  0
    2.0090   68.1730   63.5754 H   0  0  0  0  0  0  0  0  0  0  0  0
    1.4614   69.6154   64.5037 H   0  0  0  0  0  0  0  0  0  0  0  0
    3.4485   69.0441   65.6711 H   0  0  0  0  0  0  0  0  0  0  0  0
    5.7960   69.6792   66.2446 H   0  0  0  0  0  0  0  0  0  0  0  0
    4.4849   71.0885   70.1092 H   0  0  0  0  0  0  0  0  0  0  0  0
    2.1440   70.4527   69.5373 H   0  0  0  0  0  0  0  0  0  0  0  0
  2  1  1  0
  3  1  1  0
  4  1  1  0
  5  4  2  0
  6  4  1  0
  8  7  1  0
  8  6  1  0
  9  1  1  0
 10  9  1  0
 11 10  2  0
 12 11  1  0
 13 12  2  0
 14 13  1  0
 15 14  2  0
 15 10  1  0
 16 13  1  0
  2 17  1  0
  2 18  1  0
  2 19  1  0
  3 20  1  0
  3 21  1  0
  3 22  1  0
  7 23  1  0
  7 24  1  0
  7 25  1  0
  8 26  1  0
  8 27  1  0
 11 28  1  0
 12 29  1  0
 14 30  1  0
 15 31  1  0
M  END
>  <score>  (1) 
-7.634

$$$$
=
     RDKit          3D

 31 31  0  0  0  0  0  0  0  0999 V2000
    2.6640   67.8090   64.4330 C   0  0  0  0  0  0  0  0  0  0  0  0
    2.3680   67.0210   65.7200 C   0  0  0  0  0  0  0  0  0  0  0  0
    1.3440   67.8970   63.6420 C   0  0  0  0  0  0  0  0  0  0  0  0
    3.6480   67.0490   63.5160 C   0  0  0  0  0  0  0  0  0  0  0  0
    3.7190   67.1920   62.3000 O   0  0  0  0  0  0  0  0  0  0  0  0
    4.4330   66.2010   64.2430 O   0  0  0  0  0  0  0  0  0  0  0  0
    3.8480   63.8880   64.6470 C   0  0  0  0  0  0  0  0  0  0  0  0
    4.5620   64.8660   63.7330 C   0  0  0  0  0  0  0  0  0  0  0  0
    2.9910   69.1630   64.7500 O   0  0  0  0  0  0  0  0  0  0  0  0
    3.9460   69.4950   65.6650 C   0  0  0  0  0  0  0  0  0  0  0  0
    5.3230   69.5740   65.4600 C   0  0  0  0  0  0  0  0  0  0  0  0
    6.1740   69.9350   66.5130 C   0  0  0  0  0  0  0  0  0  0  0  0
    5.6480   70.2150   67.7730 C   0  0  0  0  0  0  0  0  0  0  0  0
    4.2770   70.1360   67.9910 C   0  0  0  0  0  0  0  0  0  0  0  0
    3.4330   69.7750   66.9380 C   0  0  0  0  0  0  0  0  0  0  0  0
    6.6990   70.6580   69.0600 Cl  0  0  0  0  0  0  0  0  0  0  0  0
    2.6026   67.6456   66.5945 H   0  0  0  0  0  0  0  0  0  0  0  0
    1.3040   66.7427   65.7430 H   0  0  0  0  0  0  0  0  0  0  0  0
    2.9856   66.1110   65.7430 H   0  0  0  0  0  0  0  0  0  0  0  0
    0.4990   67.9533   64.3440 H   0  0  0  0  0  0  0  0  0  0  0  0
    1.3553   68.7964   63.0088 H   0  0  0  0  0  0  0  0  0  0  0  0
    1.2358   67.0041   63.0088 H   0  0  0  0  0  0  0  0  0  0  0  0
    4.0438   64.1563   65.6957 H   0  0  0  0  0  0  0  0  0  0  0  0
    2.7658   63.9289   64.4540 H   0  0  0  0  0  0  0  0  0  0  0  0
    4.2166   62.8697   64.4540 H   0  0  0  0  0  0  0  0  0  0  0  0
    5.6277   64.5995   63.6763 H   0  0  0  0  0  0  0  0  0  0  0  0
    4.1106   64.8180   62.7310 H   0  0  0  0  0  0  0  0  0  0  0  0
    5.7428   69.3521   64.4678 H   0  0  0  0  0  0  0  0  0  0  0  0
    7.2593   69.9975   66.3449 H   0  0  0  0  0  0  0  0  0  0  0  0
    3.8602   70.3561   68.9849 H   0  0  0  0  0  0  0  0  0  0  0  0
    2.3487   69.7096   67.1112 H   0  0  0  0  0  0  0  0  0  0  0  0
  2  1  1  0
  3  1  1  0
  4  1  1  0
  5  4  2  0
  6  4  1  0
  8  7  1  0
  8  6  1  0
  9  1  1  0
 10  9  1  0
 11 10  2  0
 12 11  1  0
 13 12  2  0
 14 13  1  0
 15 14  2  0
 15 10  1  0
 16 13  1  0
  2 17  1  0
  2 18  1  0
  2 19  1  0
  3 20  1  0
  3 21  1  0
  3 22  1  0
  7 23  1  0
  7 24  1  0
  7 25  1  0
  8 26  1  0
  8 27  1  0
 11 28  1  0
 12 29  1  0
 14 30  1  0
 15 31  1  0
M  END
>  <score>  (2) 
-7.333

$$$$
=
     RDKit          3D

 31 31  0  0  0  0  0  0  0  0999 V2000
    0.9550   67.9960   67.0540 C   0  0  0  0  0  0  0  0  0  0  0  0
    1.4560   67.1460   68.2340 C   0  0  0  0  0  0  0  0  0  0  0  0
   -0.5840   68.0220   67.1350 C   0  0  0  0  0  0  0  0  0  0  0  0
    1.2890   67.3350   65.6980 C   0  0  0  0  0  0  0  0  0  0  0  0
    0.7780   67.6470   64.6280 O   0  0  0  0  0  0  0  0  0  0  0  0
    2.2330   66.3620   65.8510 O   0  0  0  0  0  0  0  0  0  0  0  0
    3.5150   64.4940   65.0000 C   0  0  0  0  0  0  0  0  0  0  0  0
    2.6550   65.6960   64.6530 C   0  0  0  0  0  0  0  0  0  0  0  0
    1.3530   69.3570   67.2250 O   0  0  0  0  0  0  0  0  0  0  0  0
    2.6070   69.7130   67.6240 C   0  0  0  0  0  0  0  0  0  0  0  0
    2.9870   70.2220   68.8660 C   0  0  0  0  0  0  0  0  0  0  0  0
    4.3290   70.5370   69.1180 C   0  0  0  0  0  0  0  0  0  0  0  0
    5.2910   70.3470   68.1290 C   0  0  0  0  0  0  0  0  0  0  0  0
    4.9230   69.8440   66.8850 C   0  0  0  0  0  0  0  0  0  0  0  0
    3.5850   69.5320   66.6380 C   0  0  0  0  0  0  0  0  0  0  0  0
    6.9350   70.7350   68.4460 Cl  0  0  0  0  0  0  0  0  0  0  0  0
    1.1714   67.6288   69.1805 H   0  0  0  0  0  0  0  0  0  0  0  0
    1.0037   66.1446   68.1827 H   0  0  0  0  0  0  0  0  0  0  0  0
    2.5512   67.0567   68.1827 H   0  0  0  0  0  0  0  0  0  0  0  0
   -0.8956   68.0273   68.1899 H   0  0  0  0  0  0  0  0  0  0  0  0
   -0.9622   68.9267   66.6364 H   0  0  0  0  0  0  0  0  0  0  0  0
   -0.9925   67.1306   66.6364 H   0  0  0  0  0  0  0  0  0  0  0  0
    3.5848   64.3965   66.0934 H   0  0  0  0  0  0  0  0  0  0  0  0
    3.0612   63.5847   64.5790 H   0  0  0  0  0  0  0  0  0  0  0  0
    4.5221   64.6299   64.5790 H   0  0  0  0  0  0  0  0  0  0  0  0
    3.2381   66.3943   64.0346 H   0  0  0  0  0  0  0  0  0  0  0  0
    1.7680   65.3561   64.0983 H   0  0  0  0  0  0  0  0  0  0  0  0
    2.2309   70.3766   69.6499 H   0  0  0  0  0  0  0  0  0  0  0  0
    4.6236   70.9356   70.1000 H   0  0  0  0  0  0  0  0  0  0  0  0
    5.6808   69.6933   66.1020 H   0  0  0  0  0  0  0  0  0  0  0  0
    3.2941   69.1377   65.6532 H   0  0  0  0  0  0  0  0  0  0  0  0
  2  1  1  0
  3  1  1  0
  4  1  1  0
  5  4  2  0
  6  4  1  0
  8  7  1  0
  8  6  1  0
  9  1  1  0
 10  9  1  0
 11 10  2  0
 12 11  1  0
 13 12  2  0
 14 13  1  0
 15 14  2  0
 15 10  1  0
 16 13  1  0
  2 17  1  0
  2 18  1  0
  2 19  1  0
  3 20  1  0
  3 21  1  0
  3 22  1  0
  7 23  1  0
  7 24  1  0
  7 25  1  0
  8 26  1  0
  8 27  1  0
 11 28  1  0
 12 29  1  0
 14 30  1  0
 15 31  1  0
M  END
>  <score>  (3) 
-7.271

$$$$
=
     RDKit          3D

 31 31  0  0  0  0  0  0  0  0999 V2000
    1.3700   68.0810   65.7130 C   0  0  0  0  0  0  0  0  0  0  0  0
    2.4480   66.9940   65.8540 C   0  0  0  0  0  0  0  0  0  0  0  0
    0.0610   67.4980   66.2820 C   0  0  0  0  0  0  0  0  0  0  0  0
    1.0740   68.3990   64.2300 C   0  0  0  0  0  0  0  0  0  0  0  0
   -0.0290   68.2990   63.7040 O   0  0  0  0  0  0  0  0  0  0  0  0
    2.2050   68.8110   63.5870 O   0  0  0  0  0  0  0  0  0  0  0  0
    3.2100   68.8550   61.3860 C   0  0  0  0  0  0  0  0  0  0  0  0
    2.6490   67.9890   62.4990 C   0  0  0  0  0  0  0  0  0  0  0  0
    1.6750   69.1890   66.5630 O   0  0  0  0  0  0  0  0  0  0  0  0
    2.9520   69.5370   66.8870 C   0  0  0  0  0  0  0  0  0  0  0  0
    4.0610   69.5680   66.0410 C   0  0  0  0  0  0  0  0  0  0  0  0
    5.3140   69.9550   66.5340 C   0  0  0  0  0  0  0  0  0  0  0  0
    5.4600   70.3100   67.8740 C   0  0  0  0  0  0  0  0  0  0  0  0
    4.3630   70.2790   68.7270 C   0  0  0  0  0  0  0  0  0  0  0  0
    3.1160   69.8920   68.2310 C   0  0  0  0  0  0  0  0  0  0  0  0
    7.0010   70.7850   68.4710 Cl  0  0  0  0  0  0  0  0  0  0  0  0
    2.6381   66.8023   66.9203 H   0  0  0  0  0  0  0  0  0  0  0  0
    2.1009   66.0685   65.3713 H   0  0  0  0  0  0  0  0  0  0  0  0
    3.3763   67.3334   65.3713 H   0  0  0  0  0  0  0  0  0  0  0  0
    0.0993   67.5151   67.3812 H   0  0  0  0  0  0  0  0  0  0  0  0
   -0.7905   68.1019   65.9354 H   0  0  0  0  0  0  0  0  0  0  0  0
   -0.0597   66.4610   65.9354 H   0  0  0  0  0  0  0  0  0  0  0  0
    3.7590   69.7025   61.8222 H   0  0  0  0  0  0  0  0  0  0  0  0
    3.8926   68.2567   60.7646 H   0  0  0  0  0  0  0  0  0  0  0  0
    2.3850   69.2334   60.7646 H   0  0  0  0  0  0  0  0  0  0  0  0
    1.7997   67.4060   62.1133 H   0  0  0  0  0  0  0  0  0  0  0  0
    3.4364   67.3103   62.8587 H   0  0  0  0  0  0  0  0  0  0  0  0
    3.9512   69.2876   64.9830 H   0  0  0  0  0  0  0  0  0  0  0  0
    6.1846   69.9788   65.8621 H   0  0  0  0  0  0  0  0  0  0  0  0
    4.4761   70.5573   69.7852 H   0  0  0  0  0  0  0  0  0  0  0  0
    2.2489   69.8658   68.9074 H   0  0  0  0  0  0  0  0  0  0  0  0
  2  1  1  0
  3  1  1  0
  4  1  1  0
  5  4  2  0
  6  4  1  0
  8  7  1  0
  8  6  1  0
  9  1  1  0
 10  9  1  0
 11 10  2  0
 12 11  1  0
 13 12  2  0
 14 13  1  0
 15 14  2  0
 15 10  1  0
 16 13  1  0
  2 17  1  0
  2 18  1  0
  2 19  1  0
  3 20  1  0
  3 21  1  0
  3 22  1  0
  7 23  1  0
  7 24  1  0
  7 25  1  0
  8 26  1  0
  8 27  1  0
 11 28  1  0
 12 29  1  0
 14 30  1  0
 15 31  1  0
M  END
>  <score>  (4) 
-6.787

$$$$
=
     RDKit          3D

 31 31  0  0  0  0  0  0  0  0999 V2000
    1.8570   68.0310   65.7040 C   0  0  0  0  0  0  0  0  0  0  0  0
    2.3210   66.7020   65.0840 C   0  0  0  0  0  0  0  0  0  0  0  0
    1.9030   67.8580   67.2350 C   0  0  0  0  0  0  0  0  0  0  0  0
    0.3810   68.3320   65.3630 C   0  0  0  0  0  0  0  0  0  0  0  0
   -0.1160   68.2080   64.2490 O   0  0  0  0  0  0  0  0  0  0  0  0
   -0.2980   68.7490   66.4710 O   0  0  0  0  0  0  0  0  0  0  0  0
   -2.5070   67.8560   66.8960 C   0  0  0  0  0  0  0  0  0  0  0  0
   -1.7000   68.9950   66.2990 C   0  0  0  0  0  0  0  0  0  0  0  0
    2.8080   69.0610   65.4240 O   0  0  0  0  0  0  0  0  0  0  0  0
    3.6950   69.5160   66.3540 C   0  0  0  0  0  0  0  0  0  0  0  0
    3.4110   69.9680   67.6430 C   0  0  0  0  0  0  0  0  0  0  0  0
    4.4460   70.4020   68.4820 C   0  0  0  0  0  0  0  0  0  0  0  0
    5.7650   70.3870   68.0320 C   0  0  0  0  0  0  0  0  0  0  0  0
    6.0590   69.9430   66.7480 C   0  0  0  0  0  0  0  0  0  0  0  0
    5.0240   69.5110   65.9150 C   0  0  0  0  0  0  0  0  0  0  0  0
    7.0290   70.9210   69.0670 Cl  0  0  0  0  0  0  0  0  0  0  0  0
    2.5694   65.9905   65.8853 H   0  0  0  0  0  0  0  0  0  0  0  0
    1.5148   66.2865   64.4616 H   0  0  0  0  0  0  0  0  0  0  0  0
    3.2107   66.8786   64.4616 H   0  0  0  0  0  0  0  0  0  0  0  0
    1.6492   68.8123   67.7196 H   0  0  0  0  0  0  0  0  0  0  0  0
    1.1783   67.0883   67.5390 H   0  0  0  0  0  0  0  0  0  0  0  0
    2.9143   67.5499   67.5390 H   0  0  0  0  0  0  0  0  0  0  0  0
   -2.4661   67.9137   67.9937 H   0  0  0  0  0  0  0  0  0  0  0  0
   -3.5526   67.9338   66.5634 H   0  0  0  0  0  0  0  0  0  0  0  0
   -2.0869   66.8953   66.5634 H   0  0  0  0  0  0  0  0  0  0  0  0
   -1.9259   69.0773   65.2256 H   0  0  0  0  0  0  0  0  0  0  0  0
   -1.9665   69.9316   66.8106 H   0  0  0  0  0  0  0  0  0  0  0  0
    2.3713   69.9837   68.0018 H   0  0  0  0  0  0  0  0  0  0  0  0
    4.2169   70.7554   69.4982 H   0  0  0  0  0  0  0  0  0  0  0  0
    7.0992   69.9319   66.3904 H   0  0  0  0  0  0  0  0  0  0  0  0
    5.2572   69.1615   64.8984 H   0  0  0  0  0  0  0  0  0  0  0  0
  2  1  1  0
  3  1  1  0
  4  1  1  0
  5  4  2  0
  6  4  1  0
  8  7  1  0
  8  6  1  0
  9  1  1  0
 10  9  1  0
 11 10  2  0
 12 11  1  0
 13 12  2  0
 14 13  1  0
 15 14  2  0
 15 10  1  0
 16 13  1  0
  2 17  1  0
  2 18  1  0
  2 19  1  0
  3 20  1  0
  3 21  1  0
  3 22  1  0
  7 23  1  0
  7 24  1  0
  7 25  1  0
  8 26  1  0
  8 27  1  0
 11 28  1  0
 12 29  1  0
 14 30  1  0
 15 31  1  0
M  END
>  <score>  (5) 
-6.772

$$$$
=
     RDKit          3D

 31 31  0  0  0  0  0  0  0  0999 V2000
   -0.4310   67.6860   67.1400 C   0  0  0  0  0  0  0  0  0  0  0  0
   -1.8170   68.1220   66.6360 C   0  0  0  0  0  0  0  0  0  0  0  0
   -0.6600   66.7380   68.3350 C   0  0  0  0  0  0  0  0  0  0  0  0
    0.3690   68.8810   67.7050 C   0  0  0  0  0  0  0  0  0  0  0  0
   -0.0370   70.0380   67.7380 O   0  0  0  0  0  0  0  0  0  0  0  0
    1.5870   68.4740   68.1680 O   0  0  0  0  0  0  0  0  0  0  0  0
    3.4590   69.5670   67.0920 C   0  0  0  0  0  0  0  0  0  0  0  0
    2.5780   69.4990   68.3260 C   0  0  0  0  0  0  0  0  0  0  0  0
    0.2190   66.8810   66.1550 O   0  0  0  0  0  0  0  0  0  0  0  0
    1.0600   67.4020   65.2170 C   0  0  0  0  0  0  0  0  0  0  0  0
    0.8130   68.4780   64.3650 C   0  0  0  0  0  0  0  0  0  0  0  0
    1.7910   68.8940   63.4520 C   0  0  0  0  0  0  0  0  0  0  0  0
    3.0160   68.2330   63.3880 C   0  0  0  0  0  0  0  0  0  0  0  0
    3.2720   67.1560   64.2300 C   0  0  0  0  0  0  0  0  0  0  0  0
    2.2930   66.7450   65.1380 C   0  0  0  0  0  0  0  0  0  0  0  0
    4.2110   68.7500   62.2660 Cl  0  0  0  0  0  0  0  0  0  0  0  0
   -2.4717   68.3279   67.4957 H   0  0  0  0  0  0  0  0  0  0  0  0
   -1.7158   69.0317   66.0259 H   0  0  0  0  0  0  0  0  0  0  0  0
   -2.2549   67.3182   66.0259 H   0  0  0  0  0  0  0  0  0  0  0  0
   -0.5258   67.2937   69.2748 H   0  0  0  0  0  0  0  0  0  0  0  0
   -1.6818   66.3330   68.2912 H   0  0  0  0  0  0  0  0  0  0  0  0
    0.0643   65.9112   68.2912 H   0  0  0  0  0  0  0  0  0  0  0  0
    4.5125   69.6483   67.3977 H   0  0  0  0  0  0  0  0  0  0  0  0
    3.3206   68.6555   66.4920 H   0  0  0  0  0  0  0  0  0  0  0  0
    3.1824   70.4465   66.4920 H   0  0  0  0  0  0  0  0  0  0  0  0
    3.1995   69.2719   69.2047 H   0  0  0  0  0  0  0  0  0  0  0  0
    2.0754   70.4677   68.4635 H   0  0  0  0  0  0  0  0  0  0  0  0
   -0.1531   69.0020   64.4099 H   0  0  0  0  0  0  0  0  0  0  0  0
    1.5912   69.7447   62.7839 H   0  0  0  0  0  0  0  0  0  0  0  0
    4.2379   66.6318   64.1814 H   0  0  0  0  0  0  0  0  0  0  0  0
    2.4947   65.8912   65.8015 H   0  0  0  0  0  0  0  0  0  0  0  0
  2  1  1  0
  3  1  1  0
  4  1  1  0
  5  4  2  0
  6  4  1  0
  8  7  1  0
  8  6  1  0
  9  1  1  0
 10  9  1  0
 11 10  2  0
 12 11  1  0
 13 12  2  0
 14 13  1  0
 15 14  2  0
 15 10  1  0
 16 13  1  0
  2 17  1  0
  2 18  1  0
  2 19  1  0
  3 20  1  0
  3 21  1  0
  3 22  1  0
  7 23  1  0
  7 24  1  0
  7 25  1  0
  8 26  1  0
  8 27  1  0
 11 28  1  0
 12 29  1  0
 14 30  1  0
 15 31  1  0
M  END
>  <score>  (6) 
-6.572

$$$$
=
     RDKit          3D

 31 31  0  0  0  0  0  0  0  0999 V2000
    0.0730   68.3660   66.6110 C   0  0  0  0  0  0  0  0  0  0  0  0
   -0.6460   67.2800   67.4290 C   0  0  0  0  0  0  0  0  0  0  0  0
    0.0360   69.6620   67.4450 C   0  0  0  0  0  0  0  0  0  0  0  0
   -0.6860   68.6890   65.3050 C   0  0  0  0  0  0  0  0  0  0  0  0
   -1.9050   68.6550   65.1820 O   0  0  0  0  0  0  0  0  0  0  0  0
    0.1840   69.0230   64.3080 O   0  0  0  0  0  0  0  0  0  0  0  0
    0.0420   69.7620   62.0080 C   0  0  0  0  0  0  0  0  0  0  0  0
   -0.1890   68.6220   62.9820 C   0  0  0  0  0  0  0  0  0  0  0  0
    1.4620   68.0500   66.4900 O   0  0  0  0  0  0  0  0  0  0  0  0
    2.4420   68.8120   67.0550 C   0  0  0  0  0  0  0  0  0  0  0  0
    2.4730   69.3220   68.3530 C   0  0  0  0  0  0  0  0  0  0  0  0
    3.5630   70.0900   68.7820 C   0  0  0  0  0  0  0  0  0  0  0  0
    4.6210   70.3510   67.9140 C   0  0  0  0  0  0  0  0  0  0  0  0
    4.5990   69.8510   66.6170 C   0  0  0  0  0  0  0  0  0  0  0  0
    3.5100   69.0860   66.1930 C   0  0  0  0  0  0  0  0  0  0  0  0
    5.9550   71.2940   68.4490 Cl  0  0  0  0  0  0  0  0  0  0  0  0
   -0.5129   67.4810   68.5023 H   0  0  0  0  0  0  0  0  0  0  0  0
   -1.7185   67.2869   67.1849 H   0  0  0  0  0  0  0  0  0  0  0  0
   -0.2208   66.2953   67.1849 H   0  0  0  0  0  0  0  0  0  0  0  0
    0.0432   69.4094   68.5156 H   0  0  0  0  0  0  0  0  0  0  0  0
    0.9170   70.2763   67.2073 H   0  0  0  0  0  0  0  0  0  0  0  0
   -0.8786   70.2250   67.2073 H   0  0  0  0  0  0  0  0  0  0  0  0
    0.2301   70.6901   62.5677 H   0  0  0  0  0  0  0  0  0  0  0  0
    0.9120   69.5329   61.3750 H   0  0  0  0  0  0  0  0  0  0  0  0
   -0.8485   69.8896   61.3750 H   0  0  0  0  0  0  0  0  0  0  0  0
   -1.2534   68.3447   62.9717 H   0  0  0  0  0  0  0  0  0  0  0  0
    0.4252   67.7607   62.6803 H   0  0  0  0  0  0  0  0  0  0  0  0
    1.6392   69.1205   69.0415 H   0  0  0  0  0  0  0  0  0  0  0  0
    3.5837   70.4882   69.8072 H   0  0  0  0  0  0  0  0  0  0  0  0
    5.4330   70.0563   65.9298 H   0  0  0  0  0  0  0  0  0  0  0  0
    3.4915   68.6929   65.1658 H   0  0  0  0  0  0  0  0  0  0  0  0
  2  1  1  0
  3  1  1  0
  4  1  1  0
  5  4  2  0
  6  4  1  0
  8  7  1  0
  8  6  1  0
  9  1  1  0
 10  9  1  0
 11 10  2  0
 12 11  1  0
 13 12  2  0
 14 13  1  0
 15 14  2  0
 15 10  1  0
 16 13  1  0
  2 17  1  0
  2 18  1  0
  2 19  1  0
  3 20  1  0
  3 21  1  0
  3 22  1  0
  7 23  1  0
  7 24  1  0
  7 25  1  0
  8 26  1  0
  8 27  1  0
 11 28  1  0
 12 29  1  0
 14 30  1  0
 15 31  1  0
M  END
>  <score>  (7) 
-6.344

$$$$
=
     RDKit          3D

 31 31  0  0  0  0  0  0  0  0999 V2000
    3.8620   60.5740   70.8930 C   0  0  0  0  0  0  0  0  0  0  0  0
    3.5520   60.9420   69.4320 C   0  0  0  0  0  0  0  0  0  0  0  0
    5.3560   60.8750   71.1290 C   0  0  0  0  0  0  0  0  0  0  0  0
    3.6990   59.0580   71.1430 C   0  0  0  0  0  0  0  0  0  0  0  0
    3.9090   58.1870   70.3060 O   0  0  0  0  0  0  0  0  0  0  0  0
    3.2950   58.8180   72.4250 O   0  0  0  0  0  0  0  0  0  0  0  0
    1.0260   59.0370   73.2360 C   0  0  0  0  0  0  0  0  0  0  0  0
    2.0470   58.1290   72.5760 C   0  0  0  0  0  0  0  0  0  0  0  0
    3.1680   61.4540   71.7790 O   0  0  0  0  0  0  0  0  0  0  0  0
    2.5290   62.5780   71.3490 C   0  0  0  0  0  0  0  0  0  0  0  0
    3.1130   63.7500   70.8670 C   0  0  0  0  0  0  0  0  0  0  0  0
    2.3080   64.8220   70.4590 C   0  0  0  0  0  0  0  0  0  0  0  0
    0.9210   64.7250   70.5340 C   0  0  0  0  0  0  0  0  0  0  0  0
    0.3280   63.5630   71.0160 C   0  0  0  0  0  0  0  0  0  0  0  0
    1.1340   62.4970   71.4230 C   0  0  0  0  0  0  0  0  0  0  0  0
   -0.0590   66.0450   70.0310 Cl  0  0  0  0  0  0  0  0  0  0  0  0
    2.8435   61.7831   69.4082 H   0  0  0  0  0  0  0  0  0  0  0  0
    4.4823   61.2317   68.9215 H   0  0  0  0  0  0  0  0  0  0  0  0
    3.1085   60.0744   68.9215 H   0  0  0  0  0  0  0  0  0  0  0  0
    5.5556   60.9152   72.2100 H   0  0  0  0  0  0  0  0  0  0  0  0
    5.9664   60.0818   70.6727 H   0  0  0  0  0  0  0  0  0  0  0  0
    5.6116   61.8427   70.6727 H   0  0  0  0  0  0  0  0  0  0  0  0
    1.1164   58.9566   74.3293 H   0  0  0  0  0  0  0  0  0  0  0  0
    1.2076   60.0774   72.9286 H   0  0  0  0  0  0  0  0  0  0  0  0
    0.0139   58.7352   72.9286 H   0  0  0  0  0  0  0  0  0  0  0  0
    2.1976   57.2363   73.2009 H   0  0  0  0  0  0  0  0  0  0  0  0
    1.6769   57.8332   71.5833 H   0  0  0  0  0  0  0  0  0  0  0  0
    4.2083   63.8327   70.8071 H   0  0  0  0  0  0  0  0  0  0  0  0
    2.7733   65.7431   70.0782 H   0  0  0  0  0  0  0  0  0  0  0  0
   -0.7675   63.4839   71.0763 H   0  0  0  0  0  0  0  0  0  0  0  0
    0.6647   61.5795   71.8077 H   0  0  0  0  0  0  0  0  0  0  0  0
  2  1  1  0
  3  1  1  0
  4  1  1  0
  5  4  2  0
  6  4  1  0
  8  7  1  0
  8  6  1  0
  9  1  1  0
 10  9  1  0
 11 10  2  0
 12 11  1  0
 13 12  2  0
 14 13  1  0
 15 14  2  0
 15 10  1  0
 16 13  1  0
  2 17  1  0
  2 18  1  0
  2 19  1  0
  3 20  1  0
  3 21  1  0
  3 22  1  0
  7 23  1  0
  7 24  1  0
  7 25  1  0
  8 26  1  0
  8 27  1  0
 11 28  1  0
 12 29  1  0
 14 30  1  0
 15 31  1  0
M  END
>  <score>  (8) 
-6.243

$$$$
=
     RDKit          3D

 31 31  0  0  0  0  0  0  0  0999 V2000
    3.8170   62.5540   69.9030 C   0  0  0  0  0  0  0  0  0  0  0  0
    4.9160   63.4630   70.4770 C   0  0  0  0  0  0  0  0  0  0  0  0
    3.7830   62.7900   68.3790 C   0  0  0  0  0  0  0  0  0  0  0  0
    2.4170   62.9590   70.4180 C   0  0  0  0  0  0  0  0  0  0  0  0
    1.3810   62.8590   69.7700 O   0  0  0  0  0  0  0  0  0  0  0  0
    2.4900   63.4390   71.6940 O   0  0  0  0  0  0  0  0  0  0  0  0
    1.8860   62.6550   73.9020 C   0  0  0  0  0  0  0  0  0  0  0  0
    1.3830   63.1280   72.5500 C   0  0  0  0  0  0  0  0  0  0  0  0
    4.1870   61.1810   70.0500 O   0  0  0  0  0  0  0  0  0  0  0  0
    3.9330   60.4690   71.1840 C   0  0  0  0  0  0  0  0  0  0  0  0
    4.6070   60.5500   72.4030 C   0  0  0  0  0  0  0  0  0  0  0  0
    4.2160   59.7430   73.4800 C   0  0  0  0  0  0  0  0  0  0  0  0
    3.1540   58.8530   73.3390 C   0  0  0  0  0  0  0  0  0  0  0  0
    2.4770   58.7610   72.1270 C   0  0  0  0  0  0  0  0  0  0  0  0
    2.8700   59.5660   71.0570 C   0  0  0  0  0  0  0  0  0  0  0  0
    2.6800   57.8680   74.6650 Cl  0  0  0  0  0  0  0  0  0  0  0  0
    4.8797   63.4330   71.5760 H   0  0  0  0  0  0  0  0  0  0  0  0
    5.8997   63.1111   70.1329 H   0  0  0  0  0  0  0  0  0  0  0  0
    4.7549   64.4953   70.1329 H   0  0  0  0  0  0  0  0  0  0  0  0
    3.6288   63.8603   68.1771 H   0  0  0  0  0  0  0  0  0  0  0  0
    4.7369   62.4671   67.9366 H   0  0  0  0  0  0  0  0  0  0  0  0
    2.9590   62.2109   67.9366 H   0  0  0  0  0  0  0  0  0  0  0  0
    1.3346   63.1735   74.7002 H   0  0  0  0  0  0  0  0  0  0  0  0
    1.7286   61.5701   73.9927 H   0  0  0  0  0  0  0  0  0  0  0  0
    2.9592   62.8787   73.9927 H   0  0  0  0  0  0  0  0  0  0  0  0
    0.7782   62.3335   72.0885 H   0  0  0  0  0  0  0  0  0  0  0  0
    0.7708   64.0312   72.6894 H   0  0  0  0  0  0  0  0  0  0  0  0
    5.4480   61.2495   72.5191 H   0  0  0  0  0  0  0  0  0  0  0  0
    4.7494   59.8127   74.4395 H   0  0  0  0  0  0  0  0  0  0  0  0
    1.6380   58.0588   72.0130 H   0  0  0  0  0  0  0  0  0  0  0  0
    2.3362   59.4901   70.0982 H   0  0  0  0  0  0  0  0  0  0  0  0
  2  1  1  0
  3  1  1  0
  4  1  1  0
  5  4  2  0
  6  4  1  0
  8  7  1  0
  8  6  1  0
  9  1  1  0
 10  9  1  0
 11 10  2  0
 12 11  1  0
 13 12  2  0
 14 13  1  0
 15 14  2  0
 15 10  1  0
 16 13  1  0
  2 17  1  0
  2 18  1  0
  2 19  1  0
  3 20  1  0
  3 21  1  0
  3 22  1  0
  7 23  1  0
  7 24  1  0
  7 25  1  0
  8 26  1  0
  8 27  1  0
 11 28  1  0
 12 29  1  0
 14 30  1  0
 15 31  1  0
M  END
>  <score>  (9) 
-6.153

$$$$
