=
     RDKit          3D

 22 22  0  0  0  0  0  0  0  0999 V2000
    3.9620   70.2230   68.4120 C   0  0  0  0  0  0  0  0  0  0  0  0
    3.6750   70.5400   69.5660 O   0  0  0  0  0  0  0  0  0  0  0  0
    3.0490   69.6420   67.5180 N   0  0  0  0  0  0  0  0  0  0  0  0
    1.7380   69.3930   67.9120 C   0  0  0  0  0  0  0  0  0  0  0  0
    1.0480   68.8340   66.9130 C   0  0  0  0  0  0  0  0  0  0  0  0
    1.8660   68.7020   65.8160 N   0  0  0  0  0  0  0  0  0  0  0  0
    3.1740   69.1830   66.1400 C   0  0  0  0  0  0  0  0  0  0  0  0
    4.4980   69.1810   65.1320 S   0  0  0  0  0  0  0  0  0  0  0  0
    1.4480   68.0830   64.5760 C   0  0  0  0  0  0  0  0  0  0  0  0
    5.1980   70.4070   67.8790 O   0  0  0  0  0  0  0  0  0  0  0  0
    7.1680   70.9190   69.1890 C   0  0  0  0  0  0  0  0  0  0  0  0
    5.9840   71.4770   68.4230 C   0  0  0  0  0  0  0  0  0  0  0  0
    1.3271   69.6238   68.9060 H   0  0  0  0  0  0  0  0  0  0  0  0
   -0.0075   68.5280   66.9610 H   0  0  0  0  0  0  0  0  0  0  0  0
    0.8450   67.1900   64.7970 H   0  0  0  0  0  0  0  0  0  0  0  0
    0.8464   68.7970   63.9944 H   0  0  0  0  0  0  0  0  0  0  0  0
    2.3350   67.7917   63.9944 H   0  0  0  0  0  0  0  0  0  0  0  0
    6.9804   71.0074   70.2693 H   0  0  0  0  0  0  0  0  0  0  0  0
    7.3083   69.8600   68.9267 H   0  0  0  0  0  0  0  0  0  0  0  0
    8.0741   71.4849   68.9267 H   0  0  0  0  0  0  0  0  0  0  0  0
    6.3487   72.1133   67.6032 H   0  0  0  0  0  0  0  0  0  0  0  0
    5.3596   72.0691   69.1082 H   0  0  0  0  0  0  0  0  0  0  0  0
  2  1  2  0
  3  1  1  0
  4  3  1  0
  5  4  2  0
  6  5  1  0
  7  6  1  0
  7  3  1  0
  8  7  2  0
  9  6  1  0
 10  1  1  0
 12 10  1  0
 12 11  1  0
  4 13  1  0
  5 14  1  0
  9 15  1  0
  9 16  1  0
  9 17  1  0
 11 18  1  0
 11 19  1  0
 11 20  1  0
 12 21  1  0
 12 22  1  0
M  END
>  <score>  (1) 
-5.829

$$$$
=
     RDKit          3D

 22 22  0  0  0  0  0  0  0  0999 V2000
    3.3220   69.2240   66.2760 C   0  0  0  0  0  0  0  0  0  0  0  0
    2.4940   69.1900   67.1860 O   0  0  0  0  0  0  0  0  0  0  0  0
    2.9970   69.0290   64.9250 N   0  0  0  0  0  0  0  0  0  0  0  0
    1.6820   68.7820   64.5450 C   0  0  0  0  0  0  0  0  0  0  0  0
    1.6010   68.6210   63.2200 C   0  0  0  0  0  0  0  0  0  0  0  0
    2.8510   68.7680   62.6690 N   0  0  0  0  0  0  0  0  0  0  0  0
    3.8030   69.0130   63.7090 C   0  0  0  0  0  0  0  0  0  0  0  0
    5.4420   69.2120   63.5130 S   0  0  0  0  0  0  0  0  0  0  0  0
    3.1280   68.6030   61.2570 C   0  0  0  0  0  0  0  0  0  0  0  0
    4.6440   69.4600   66.4860 O   0  0  0  0  0  0  0  0  0  0  0  0
    6.4700   70.5480   67.6430 C   0  0  0  0  0  0  0  0  0  0  0  0
    4.9860   70.2390   67.6410 C   0  0  0  0  0  0  0  0  0  0  0  0
    0.8288   68.7269   65.2370 H   0  0  0  0  0  0  0  0  0  0  0  0
    0.6793   68.4050   62.6598 H   0  0  0  0  0  0  0  0  0  0  0  0
    4.0668   68.0438   61.1304 H   0  0  0  0  0  0  0  0  0  0  0  0
    2.3042   68.0483   60.7841 H   0  0  0  0  0  0  0  0  0  0  0  0
    3.2234   69.5916   60.7841 H   0  0  0  0  0  0  0  0  0  0  0  0
    6.8276   70.6225   68.6806 H   0  0  0  0  0  0  0  0  0  0  0  0
    7.0127   69.7436   67.1249 H   0  0  0  0  0  0  0  0  0  0  0  0
    6.6466   71.5022   67.1249 H   0  0  0  0  0  0  0  0  0  0  0  0
    4.4186   71.1812   67.6248 H   0  0  0  0  0  0  0  0  0  0  0  0
    4.7372   69.6665   68.5467 H   0  0  0  0  0  0  0  0  0  0  0  0
  2  1  2  0
  3  1  1  0
  4  3  1  0
  5  4  2  0
  6  5  1  0
  7  6  1  0
  7  3  1  0
  8  7  2  0
  9  6  1  0
 10  1  1  0
 12 10  1  0
 12 11  1  0
  4 13  1  0
  5 14  1  0
  9 15  1  0
  9 16  1  0
  9 17  1  0
 11 18  1  0
 11 19  1  0
 11 20  1  0
 12 21  1  0
 12 22  1  0
M  END
>  <score>  (2) 
-5.756

$$$$
=
     RDKit          3D

 22 22  0  0  0  0  0  0  0  0999 V2000
   -0.3740   68.7600   64.0670 C   0  0  0  0  0  0  0  0  0  0  0  0
   -1.3580   68.7060   63.3320 O   0  0  0  0  0  0  0  0  0  0  0  0
    0.9480   68.7810   63.5920 N   0  0  0  0  0  0  0  0  0  0  0  0
    1.2060   68.7420   62.2260 C   0  0  0  0  0  0  0  0  0  0  0  0
    2.5230   68.7660   61.9990 C   0  0  0  0  0  0  0  0  0  0  0  0
    3.1890   68.8350   63.2000 N   0  0  0  0  0  0  0  0  0  0  0  0
    2.2380   68.8280   64.2700 C   0  0  0  0  0  0  0  0  0  0  0  0
    2.5900   68.8570   65.8950 S   0  0  0  0  0  0  0  0  0  0  0  0
    4.6320   68.8230   63.3180 C   0  0  0  0  0  0  0  0  0  0  0  0
   -0.4620   68.8090   65.4230 O   0  0  0  0  0  0  0  0  0  0  0  0
   -1.8660   67.8130   67.1230 C   0  0  0  0  0  0  0  0  0  0  0  0
   -1.7820   68.8100   65.9830 C   0  0  0  0  0  0  0  0  0  0  0  0
    0.4349   68.6977   61.4428 H   0  0  0  0  0  0  0  0  0  0  0  0
    2.9990   68.7354   61.0078 H   0  0  0  0  0  0  0  0  0  0  0  0
    4.9129   68.8207   64.3815 H   0  0  0  0  0  0  0  0  0  0  0  0
    5.0322   67.9215   62.8311 H   0  0  0  0  0  0  0  0  0  0  0  0
    5.0472   69.7177   62.8311 H   0  0  0  0  0  0  0  0  0  0  0  0
   -1.8209   68.3487   68.0827 H   0  0  0  0  0  0  0  0  0  0  0  0
   -2.8140   67.2590   67.0565 H   0  0  0  0  0  0  0  0  0  0  0  0
   -1.0241   67.1082   67.0565 H   0  0  0  0  0  0  0  0  0  0  0  0
   -2.0157   69.8160   66.3617 H   0  0  0  0  0  0  0  0  0  0  0  0
   -2.5039   68.5263   65.2030 H   0  0  0  0  0  0  0  0  0  0  0  0
  2  1  2  0
  3  1  1  0
  4  3  1  0
  5  4  2  0
  6  5  1  0
  7  6  1  0
  7  3  1  0
  8  7  2  0
  9  6  1  0
 10  1  1  0
 12 10  1  0
 12 11  1  0
  4 13  1  0
  5 14  1  0
  9 15  1  0
  9 16  1  0
  9 17  1  0
 11 18  1  0
 11 19  1  0
 11 20  1  0
 12 21  1  0
 12 22  1  0
M  END
>  <score>  (3) 
-5.626

$$$$
=
     RDKit          3D

 22 22  0  0  0  0  0  0  0  0999 V2000
    2.5270   69.4360   67.6440 C   0  0  0  0  0  0  0  0  0  0  0  0
    2.7600   69.7370   68.8140 O   0  0  0  0  0  0  0  0  0  0  0  0
    3.4900   69.4850   66.6240 N   0  0  0  0  0  0  0  0  0  0  0  0
    4.7920   69.8880   66.9040 C   0  0  0  0  0  0  0  0  0  0  0  0
    5.5360   69.8660   65.7940 C   0  0  0  0  0  0  0  0  0  0  0  0
    4.7650   69.4380   64.7400 N   0  0  0  0  0  0  0  0  0  0  0  0
    3.4310   69.1930   65.1970 C   0  0  0  0  0  0  0  0  0  0  0  0
    2.1480   68.7010   64.2600 S   0  0  0  0  0  0  0  0  0  0  0  0
    5.2480   69.3490   63.3770 C   0  0  0  0  0  0  0  0  0  0  0  0
    1.3060   69.0190   67.2150 O   0  0  0  0  0  0  0  0  0  0  0  0
   -0.5450   67.4600   67.1760 C   0  0  0  0  0  0  0  0  0  0  0  0
    0.8180   67.7850   67.7580 C   0  0  0  0  0  0  0  0  0  0  0  0
    5.1574   70.1831   67.8987 H   0  0  0  0  0  0  0  0  0  0  0  0
    6.5980   70.1463   65.7336 H   0  0  0  0  0  0  0  0  0  0  0  0
    6.3298   69.1497   63.3836 H   0  0  0  0  0  0  0  0  0  0  0  0
    4.7277   68.5316   62.8563 H   0  0  0  0  0  0  0  0  0  0  0  0
    5.0532   70.2982   62.8563 H   0  0  0  0  0  0  0  0  0  0  0  0
   -1.2613   67.2892   67.9931 H   0  0  0  0  0  0  0  0  0  0  0  0
   -0.8892   68.3012   66.5565 H   0  0  0  0  0  0  0  0  0  0  0  0
   -0.4726   66.5539   66.5565 H   0  0  0  0  0  0  0  0  0  0  0  0
    1.5211   66.9759   67.5109 H   0  0  0  0  0  0  0  0  0  0  0  0
    0.7282   67.8836   68.8499 H   0  0  0  0  0  0  0  0  0  0  0  0
  2  1  2  0
  3  1  1  0
  4  3  1  0
  5  4  2  0
  6  5  1  0
  7  6  1  0
  7  3  1  0
  8  7  2  0
  9  6  1  0
 10  1  1  0
 12 10  1  0
 12 11  1  0
  4 13  1  0
  5 14  1  0
  9 15  1  0
  9 16  1  0
  9 17  1  0
 11 18  1  0
 11 19  1  0
 11 20  1  0
 12 21  1  0
 12 22  1  0
M  END
>  <score>  (4) 
-5.572

$$$$
=
     RDKit          3D

 22 22  0  0  0  0  0  0  0  0999 V2000
    1.8870   69.0910   66.9590 C   0  0  0  0  0  0  0  0  0  0  0  0
    0.8140   69.0260   67.5570 O   0  0  0  0  0  0  0  0  0  0  0  0
    3.0480   69.6550   67.5100 N   0  0  0  0  0  0  0  0  0  0  0  0
    3.0340   70.1790   68.7990 C   0  0  0  0  0  0  0  0  0  0  0  0
    4.2370   70.6660   69.1180 C   0  0  0  0  0  0  0  0  0  0  0  0
    5.0980   70.4750   68.0650 N   0  0  0  0  0  0  0  0  0  0  0  0
    4.3960   69.8460   66.9870 C   0  0  0  0  0  0  0  0  0  0  0  0
    5.0270   69.4600   65.4970 S   0  0  0  0  0  0  0  0  0  0  0  0
    6.4710   70.9350   68.0580 C   0  0  0  0  0  0  0  0  0  0  0  0
    2.0620   68.6180   65.6960 O   0  0  0  0  0  0  0  0  0  0  0  0
    2.6590   66.4090   64.9110 C   0  0  0  0  0  0  0  0  0  0  0  0
    1.5490   67.3080   65.4210 C   0  0  0  0  0  0  0  0  0  0  0  0
    2.1564   70.1907   69.4620 H   0  0  0  0  0  0  0  0  0  0  0  0
    4.4968   71.1446   70.0737 H   0  0  0  0  0  0  0  0  0  0  0  0
    6.8234   71.0531   69.0933 H   0  0  0  0  0  0  0  0  0  0  0  0
    7.1016   70.1991   67.5377 H   0  0  0  0  0  0  0  0  0  0  0  0
    6.5310   71.9023   67.5377 H   0  0  0  0  0  0  0  0  0  0  0  0
    3.1983   65.9722   65.7644 H   0  0  0  0  0  0  0  0  0  0  0  0
    2.2266   65.6035   64.2994 H   0  0  0  0  0  0  0  0  0  0  0  0
    3.3571   66.9994   64.2994 H   0  0  0  0  0  0  0  0  0  0  0  0
    1.1299   66.8805   66.3438 H   0  0  0  0  0  0  0  0  0  0  0  0
    0.7652   67.3827   64.6529 H   0  0  0  0  0  0  0  0  0  0  0  0
  2  1  2  0
  3  1  1  0
  4  3  1  0
  5  4  2  0
  6  5  1  0
  7  6  1  0
  7  3  1  0
  8  7  2  0
  9  6  1  0
 10  1  1  0
 12 10  1  0
 12 11  1  0
  4 13  1  0
  5 14  1  0
  9 15  1  0
  9 16  1  0
  9 17  1  0
 11 18  1  0
 11 19  1  0
 11 20  1  0
 12 21  1  0
 12 22  1  0
M  END
>  <score>  (5) 
-5.509

$$$$
=
     RDKit          3D

 22 22  0  0  0  0  0  0  0  0999 V2000
    0.8000   67.5420   65.8270 C   0  0  0  0  0  0  0  0  0  0  0  0
    1.1860   67.0040   66.8630 O   0  0  0  0  0  0  0  0  0  0  0  0
    1.6190   67.7420   64.7040 N   0  0  0  0  0  0  0  0  0  0  0  0
    2.9460   67.3230   64.7170 C   0  0  0  0  0  0  0  0  0  0  0  0
    3.5390   67.6150   63.5560 C   0  0  0  0  0  0  0  0  0  0  0  0
    2.6310   68.2250   62.7240 N   0  0  0  0  0  0  0  0  0  0  0  0
    1.3790   68.3570   63.4040 C   0  0  0  0  0  0  0  0  0  0  0  0
    0.0040   69.0720   62.8000 S   0  0  0  0  0  0  0  0  0  0  0  0
    2.9600   68.7200   61.4040 C   0  0  0  0  0  0  0  0  0  0  0  0
   -0.4690   68.0000   65.6580 O   0  0  0  0  0  0  0  0  0  0  0  0
   -2.2570   67.4290   67.1860 C   0  0  0  0  0  0  0  0  0  0  0  0
   -1.1650   68.4230   66.8380 C   0  0  0  0  0  0  0  0  0  0  0  0
    3.4375   66.8219   65.5640 H   0  0  0  0  0  0  0  0  0  0  0  0
    4.5885   67.4009   63.3055 H   0  0  0  0  0  0  0  0  0  0  0  0
    3.5668   69.6329   61.4955 H   0  0  0  0  0  0  0  0  0  0  0  0
    3.5296   67.9544   60.8568 H   0  0  0  0  0  0  0  0  0  0  0  0
    2.0336   68.9488   60.8568 H   0  0  0  0  0  0  0  0  0  0  0  0
   -2.3450   67.3489   68.2795 H   0  0  0  0  0  0  0  0  0  0  0  0
   -3.2135   67.7729   66.7654 H   0  0  0  0  0  0  0  0  0  0  0  0
   -2.0043   66.4445   66.7654 H   0  0  0  0  0  0  0  0  0  0  0  0
   -0.4543   68.4899   67.6749 H   0  0  0  0  0  0  0  0  0  0  0  0
   -1.6206   69.4070   66.6530 H   0  0  0  0  0  0  0  0  0  0  0  0
  2  1  2  0
  3  1  1  0
  4  3  1  0
  5  4  2  0
  6  5  1  0
  7  6  1  0
  7  3  1  0
  8  7  2  0
  9  6  1  0
 10  1  1  0
 12 10  1  0
 12 11  1  0
  4 13  1  0
  5 14  1  0
  9 15  1  0
  9 16  1  0
  9 17  1  0
 11 18  1  0
 11 19  1  0
 11 20  1  0
 12 21  1  0
 12 22  1  0
M  END
>  <score>  (6) 
-5.492

$$$$
=
     RDKit          3D

 22 22  0  0  0  0  0  0  0  0999 V2000
    4.0860   69.2600   65.1810 C   0  0  0  0  0  0  0  0  0  0  0  0
    4.7570   69.3200   64.1520 O   0  0  0  0  0  0  0  0  0  0  0  0
    2.7050   69.0070   65.1930 N   0  0  0  0  0  0  0  0  0  0  0  0
    2.0160   68.8050   64.0020 C   0  0  0  0  0  0  0  0  0  0  0  0
    0.7200   68.5870   64.2440 C   0  0  0  0  0  0  0  0  0  0  0  0
    0.4990   68.6230   65.6000 N   0  0  0  0  0  0  0  0  0  0  0  0
    1.7300   68.9080   66.2730 C   0  0  0  0  0  0  0  0  0  0  0  0
    1.9330   69.0870   67.9140 S   0  0  0  0  0  0  0  0  0  0  0  0
   -0.8090   68.4780   66.2030 C   0  0  0  0  0  0  0  0  0  0  0  0
    4.6150   69.4310   66.4220 O   0  0  0  0  0  0  0  0  0  0  0  0
    6.0710   70.6400   67.9300 C   0  0  0  0  0  0  0  0  0  0  0  0
    5.8380   70.1770   66.5050 C   0  0  0  0  0  0  0  0  0  0  0  0
    2.4734   68.8222   63.0017 H   0  0  0  0  0  0  0  0  0  0  0  0
   -0.0490   68.4070   63.4783 H   0  0  0  0  0  0  0  0  0  0  0  0
   -0.7109   68.4889   67.2986 H   0  0  0  0  0  0  0  0  0  0  0  0
   -1.4540   69.3101   65.8843 H   0  0  0  0  0  0  0  0  0  0  0  0
   -1.2560   67.5248   65.8843 H   0  0  0  0  0  0  0  0  0  0  0  0
    5.6892   69.8814   68.6291 H   0  0  0  0  0  0  0  0  0  0  0  0
    7.1487   70.7835   68.0973 H   0  0  0  0  0  0  0  0  0  0  0  0
    5.5441   71.5910   68.0973 H   0  0  0  0  0  0  0  0  0  0  0  0
    6.6758   69.5383   66.1885 H   0  0  0  0  0  0  0  0  0  0  0  0
    5.7683   71.0564   65.8479 H   0  0  0  0  0  0  0  0  0  0  0  0
  2  1  2  0
  3  1  1  0
  4  3  1  0
  5  4  2  0
  6  5  1  0
  7  6  1  0
  7  3  1  0
  8  7  2  0
  9  6  1  0
 10  1  1  0
 12 10  1  0
 12 11  1  0
  4 13  1  0
  5 14  1  0
  9 15  1  0
  9 16  1  0
  9 17  1  0
 11 18  1  0
 11 19  1  0
 11 20  1  0
 12 21  1  0
 12 22  1  0
M  END
>  <score>  (7) 
-5.42

$$$$
=
     RDKit          3D

 22 22  0  0  0  0  0  0  0  0999 V2000
   -0.0480   68.4910   65.2350 C   0  0  0  0  0  0  0  0  0  0  0  0
   -1.2560   68.6920   65.3490 O   0  0  0  0  0  0  0  0  0  0  0  0
    0.6510   68.6350   64.0260 N   0  0  0  0  0  0  0  0  0  0  0  0
   -0.0150   69.0250   62.8690 C   0  0  0  0  0  0  0  0  0  0  0  0
    0.8360   69.0930   61.8400 C   0  0  0  0  0  0  0  0  0  0  0  0
    2.0980   68.7640   62.2730 N   0  0  0  0  0  0  0  0  0  0  0  0
    2.0510   68.4380   63.6660 C   0  0  0  0  0  0  0  0  0  0  0  0
    3.3340   67.9430   64.6020 S   0  0  0  0  0  0  0  0  0  0  0  0
    3.2500   68.6860   61.4000 C   0  0  0  0  0  0  0  0  0  0  0  0
    0.7420   68.1090   66.2740 O   0  0  0  0  0  0  0  0  0  0  0  0
    2.0040   69.4670   67.8300 C   0  0  0  0  0  0  0  0  0  0  0  0
    0.6480   68.8870   67.4750 C   0  0  0  0  0  0  0  0  0  0  0  0
   -1.0908   69.2464   62.8089 H   0  0  0  0  0  0  0  0  0  0  0  0
    0.5682   69.3688   60.8094 H   0  0  0  0  0  0  0  0  0  0  0  0
    4.1658   68.6240   62.0061 H   0  0  0  0  0  0  0  0  0  0  0  0
    3.1691   67.7913   60.7652 H   0  0  0  0  0  0  0  0  0  0  0  0
    3.2905   69.5835   60.7652 H   0  0  0  0  0  0  0  0  0  0  0  0
    2.1086   69.5117   68.9241 H   0  0  0  0  0  0  0  0  0  0  0  0
    2.7965   68.8291   67.4117 H   0  0  0  0  0  0  0  0  0  0  0  0
    2.0901   70.4807   67.4117 H   0  0  0  0  0  0  0  0  0  0  0  0
   -0.0692   69.7068   67.3218 H   0  0  0  0  0  0  0  0  0  0  0  0
    0.3079   68.2396   68.2967 H   0  0  0  0  0  0  0  0  0  0  0  0
  2  1  2  0
  3  1  1  0
  4  3  1  0
  5  4  2  0
  6  5  1  0
  7  6  1  0
  7  3  1  0
  8  7  2  0
  9  6  1  0
 10  1  1  0
 12 10  1  0
 12 11  1  0
  4 13  1  0
  5 14  1  0
  9 15  1  0
  9 16  1  0
  9 17  1  0
 11 18  1  0
 11 19  1  0
 11 20  1  0
 12 21  1  0
 12 22  1  0
M  END
>  <score>  (8) 
-5.31

$$$$
=
     RDKit          3D

 22 22  0  0  0  0  0  0  0  0999 V2000
    2.7100   62.4760   69.4110 C   0  0  0  0  0  0  0  0  0  0  0  0
    3.3540   62.7230   68.3930 O   0  0  0  0  0  0  0  0  0  0  0  0
    2.8690   61.3000   70.1620 N   0  0  0  0  0  0  0  0  0  0  0  0
    3.7920   60.3350   69.7740 C   0  0  0  0  0  0  0  0  0  0  0  0
    3.7740   59.3030   70.6230 C   0  0  0  0  0  0  0  0  0  0  0  0
    2.8510   59.5460   71.6120 N   0  0  0  0  0  0  0  0  0  0  0  0
    2.2150   60.8050   71.3680 C   0  0  0  0  0  0  0  0  0  0  0  0
    1.0050   61.4870   72.2830 S   0  0  0  0  0  0  0  0  0  0  0  0
    2.5400   58.6040   72.6670 C   0  0  0  0  0  0  0  0  0  0  0  0
    1.7750   63.3210   69.9210 O   0  0  0  0  0  0  0  0  0  0  0  0
    1.1090   65.6070   70.3530 C   0  0  0  0  0  0  0  0  0  0  0  0
    2.2410   64.5980   70.3790 C   0  0  0  0  0  0  0  0  0  0  0  0
    4.4452   60.4105   68.8922 H   0  0  0  0  0  0  0  0  0  0  0  0
    4.3992   58.4015   70.5429 H   0  0  0  0  0  0  0  0  0  0  0  0
    2.6981   59.0829   73.6446 H   0  0  0  0  0  0  0  0  0  0  0  0
    1.4900   58.2883   72.5789 H   0  0  0  0  0  0  0  0  0  0  0  0
    3.1957   57.7252   72.5789 H   0  0  0  0  0  0  0  0  0  0  0  0
    0.8221   65.8628   71.3837 H   0  0  0  0  0  0  0  0  0  0  0  0
    1.4396   66.5155   69.8282 H   0  0  0  0  0  0  0  0  0  0  0  0
    0.2443   65.1746   69.8282 H   0  0  0  0  0  0  0  0  0  0  0  0
    2.6173   64.5001   71.4080 H   0  0  0  0  0  0  0  0  0  0  0  0
    3.0475   64.9452   69.7164 H   0  0  0  0  0  0  0  0  0  0  0  0
  2  1  2  0
  3  1  1  0
  4  3  1  0
  5  4  2  0
  6  5  1  0
  7  6  1  0
  7  3  1  0
  8  7  2  0
  9  6  1  0
 10  1  1  0
 12 10  1  0
 12 11  1  0
  4 13  1  0
  5 14  1  0
  9 15  1  0
  9 16  1  0
  9 17  1  0
 11 18  1  0
 11 19  1  0
 11 20  1  0
 12 21  1  0
 12 22  1  0
M  END
>  <score>  (9) 
-4.955

$$$$
