=
     RDKit          3D

 49 52  0  0  0  0  0  0  0  0999 V2000
    0.9980   59.1730   73.4530 C   0  0  0  0  0  0  0  0  0  0  0  0
    1.2950   57.7780   73.5400 C   0  0  0  0  0  0  0  0  0  0  0  0
    2.1160   57.2370   72.5360 C   0  0  0  0  0  0  0  0  0  0  0  0
    2.4910   55.9480   72.5930 F   0  0  0  0  0  0  0  0  0  0  0  0
    2.6800   58.0170   71.5450 C   0  0  0  0  0  0  0  0  0  0  0  0
    2.4630   59.3970   71.5570 C   0  0  0  0  0  0  0  0  0  0  0  0
    1.6210   60.0220   72.5050 C   0  0  0  0  0  0  0  0  0  0  0  0
    1.5030   61.4500   72.4590 N   0  0  0  0  0  0  0  0  0  0  0  0
    2.4470   62.1550   71.7250 C   0  0  0  0  0  0  0  0  0  0  0  0
    3.2940   61.6390   70.8280 C   0  0  0  0  0  0  0  0  0  0  0  0
    3.2100   60.2040   70.5620 C   0  0  0  0  0  0  0  0  0  0  0  0
    3.7090   59.6420   69.5930 O   0  0  0  0  0  0  0  0  0  0  0  0
    0.8290   57.0110   74.6350 N   0  0  0  0  0  0  0  0  0  0  0  0
    1.3980   57.4240   75.9380 C   0  0  0  0  0  0  0  0  0  0  0  0
    2.8030   56.8190   76.1590 C   0  0  0  0  0  0  0  0  0  0  0  0
    3.0320   55.5920   75.3080 N   0  0  0  0  0  4  0  0  0  0  0  0
    1.8210   54.7180   75.0680 C   0  0  2  0  0  0  0  0  0  0  0  0
    0.6340   55.5510   74.4970 C   0  0  0  0  0  0  0  0  0  0  0  0
    1.4750   53.9860   76.3600 C   0  0  0  0  0  0  0  0  0  0  0  0
    4.3600   62.5200   70.2210 C   0  0  0  0  0  0  0  0  0  0  0  0
    5.3310   62.7840   70.9890 O   0  0  0  0  0  0  0  0  0  0  0  0
    4.0990   62.9710   69.0700 O   0  0  0  0  0  1  0  0  0  0  0  0
    0.7010   62.2330   73.4230 C   0  0  0  0  0  0  0  0  0  0  0  0
    0.6260   63.7390   73.3450 C   0  0  0  0  0  0  0  0  0  0  0  0
    1.3390   63.0990   74.4900 C   0  0  0  0  0  0  0  0  0  0  0  0
   -1.2300   59.4250   73.9870 C   0  0  0  0  0  0  0  0  0  0  0  0
    0.1200   59.7020   74.3790 O   0  0  0  0  0  0  0  0  0  0  0  0
    3.2927   57.5569   70.7558 H   0  0  0  0  0  0  0  0  0  0  0  0
    2.5036   63.2399   71.8974 H   0  0  0  0  0  0  0  0  0  0  0  0
    1.4730   58.5211   75.9638 H   0  0  0  0  0  0  0  0  0  0  0  0
    0.7350   57.0583   76.7360 H   0  0  0  0  0  0  0  0  0  0  0  0
    3.5595   57.5752   75.9024 H   0  0  0  0  0  0  0  0  0  0  0  0
    2.8813   56.5194   77.2145 H   0  0  0  0  0  0  0  0  0  0  0  0
    3.3819   55.9048   74.3912 H   0  0  0  0  0  0  0  0  0  0  0  0
    3.6968   55.0079   75.8350 H   0  0  0  0  0  0  0  0  0  0  0  0
    2.0460   53.9611   74.3022 H   0  0  0  0  0  0  0  0  0  0  0  0
    0.5209   55.3125   73.4291 H   0  0  0  0  0  0  0  0  0  0  0  0
   -0.2621   55.2840   75.0763 H   0  0  0  0  0  0  0  0  0  0  0  0
    1.7673   54.6045   77.2214 H   0  0  0  0  0  0  0  0  0  0  0  0
    0.3920   53.7965   76.3953 H   0  0  0  0  0  0  0  0  0  0  0  0
    2.0160   53.0289   76.3953 H   0  0  0  0  0  0  0  0  0  0  0  0
   -0.0254   61.4069   73.4226 H   0  0  0  0  0  0  0  0  0  0  0  0
    1.1979   64.2773   72.5748 H   0  0  0  0  0  0  0  0  0  0  0  0
   -0.1909   64.4698   73.2526 H   0  0  0  0  0  0  0  0  0  0  0  0
    2.4347   63.1653   74.5610 H   0  0  0  0  0  0  0  0  0  0  0  0
    1.2631   63.1634   75.5855 H   0  0  0  0  0  0  0  0  0  0  0  0
   -1.8534   59.2971   74.8842 H   0  0  0  0  0  0  0  0  0  0  0  0
   -1.6170   60.2624   73.3879 H   0  0  0  0  0  0  0  0  0  0  0  0
   -1.2560   58.5028   73.3879 H   0  0  0  0  0  0  0  0  0  0  0  0
  2  1  2  0
  3  2  1  0
  4  3  1  0
  5  3  2  0
  6  5  1  0
  7  6  2  0
  7  1  1  0
  8  7  1  0
  9  8  1  0
 10  9  2  0
 11  6  1  0
 11 10  1  0
 12 11  2  0
 13  2  1  0
 14 13  1  0
 15 14  1  0
 16 15  1  0
 17 16  1  0
 18 17  1  0
 18 13  1  0
 19 17  1  0
 20 10  1  0
 21 20  2  0
 22 20  1  0
 23  8  1  0
 24 23  1  0
 25 24  1  0
 25 23  1  0
 27 26  1  0
 27  1  1  0
  5 28  1  0
  9 29  1  0
 14 30  1  0
 14 31  1  0
 15 32  1  0
 15 33  1  0
 16 34  1  0
 16 35  1  0
 17 36  1  6
 18 37  1  0
 18 38  1  0
 19 39  1  0
 19 40  1  0
 19 41  1  0
 23 42  1  0
 24 43  1  0
 24 44  1  0
 25 45  1  0
 25 46  1  0
 26 47  1  0
 26 48  1  0
 26 49  1  0
M  CHG  2  16   1  22  -1
M  END
>  <score>  (1) 
-7.546

$$$$
=
     RDKit          3D

 49 52  0  0  0  0  0  0  0  0999 V2000
    2.3230   68.1170   66.0790 C   0  0  0  0  0  0  0  0  0  0  0  0
    1.0600   68.0340   66.7440 C   0  0  0  0  0  0  0  0  0  0  0  0
    0.9940   68.5450   68.0520 C   0  0  0  0  0  0  0  0  0  0  0  0
   -0.1770   68.5600   68.7120 F   0  0  0  0  0  0  0  0  0  0  0  0
    2.0680   69.1700   68.6540 C   0  0  0  0  0  0  0  0  0  0  0  0
    3.2520   69.3400   67.9330 C   0  0  0  0  0  0  0  0  0  0  0  0
    3.4220   68.8240   66.6270 C   0  0  0  0  0  0  0  0  0  0  0  0
    4.6590   69.0920   65.9550 N   0  0  0  0  0  0  0  0  0  0  0  0
    5.4720   70.0930   66.4710 C   0  0  0  0  0  0  0  0  0  0  0  0
    5.3660   70.6500   67.6820 C   0  0  0  0  0  0  0  0  0  0  0  0
    4.3200   70.1470   68.5710 C   0  0  0  0  0  0  0  0  0  0  0  0
    4.2710   70.3490   69.7790 O   0  0  0  0  0  0  0  0  0  0  0  0
   -0.0740   67.5180   66.0720 N   0  0  0  0  0  0  0  0  0  0  0  0
   -0.3640   68.1940   64.7870 C   0  0  0  0  0  0  0  0  0  0  0  0
   -1.1380   69.5140   65.0040 C   0  0  0  0  0  0  0  0  0  0  0  0
   -1.8530   69.5390   66.3350 N   0  0  0  0  0  4  0  0  0  0  0  0
   -2.3940   68.2120   66.8200 C   0  0  2  0  0  0  0  0  0  0  0  0
   -1.2790   67.1230   66.8330 C   0  0  0  0  0  0  0  0  0  0  0  0
   -3.6000   67.8290   65.9700 C   0  0  0  0  0  0  0  0  0  0  0  0
    6.2390   71.8300   68.0360 C   0  0  0  0  0  0  0  0  0  0  0  0
    7.4040   71.5300   68.4280 O   0  0  0  0  0  0  0  0  0  0  0  0
    5.6660   72.9560   68.0040 O   0  0  0  0  0  1  0  0  0  0  0  0
    4.9460   68.6610   64.5710 C   0  0  0  0  0  0  0  0  0  0  0  0
    5.7150   69.5400   63.6150 C   0  0  0  0  0  0  0  0  0  0  0  0
    4.2650   69.2860   63.3710 C   0  0  0  0  0  0  0  0  0  0  0  0
    2.7100   66.1410   64.9600 C   0  0  0  0  0  0  0  0  0  0  0  0
    2.4300   67.5400   64.8290 O   0  0  0  0  0  0  0  0  0  0  0  0
    1.9919   69.5302   69.6906 H   0  0  0  0  0  0  0  0  0  0  0  0
    6.2796   70.4625   65.8219 H   0  0  0  0  0  0  0  0  0  0  0  0
    0.5853   68.4158   64.2775 H   0  0  0  0  0  0  0  0  0  0  0  0
   -0.9881   67.5239   64.1774 H   0  0  0  0  0  0  0  0  0  0  0  0
   -0.4272   70.3526   64.9670 H   0  0  0  0  0  0  0  0  0  0  0  0
   -1.8948   69.5984   64.2102 H   0  0  0  0  0  0  0  0  0  0  0  0
   -1.1904   69.8872   67.0426 H   0  0  0  0  0  0  0  0  0  0  0  0
   -2.6766   70.1420   66.1975 H   0  0  0  0  0  0  0  0  0  0  0  0
   -2.7320   68.2993   67.8632 H   0  0  0  0  0  0  0  0  0  0  0  0
   -0.9874   66.9328   67.8765 H   0  0  0  0  0  0  0  0  0  0  0  0
   -1.6919   66.2247   66.3507 H   0  0  0  0  0  0  0  0  0  0  0  0
   -4.4413   67.5618   66.6264 H   0  0  0  0  0  0  0  0  0  0  0  0
   -3.8864   68.6804   65.3351 H   0  0  0  0  0  0  0  0  0  0  0  0
   -3.3427   66.9684   65.3351 H   0  0  0  0  0  0  0  0  0  0  0  0
    5.0528   67.6376   64.9600 H   0  0  0  0  0  0  0  0  0  0  0  0
    6.0505   70.5371   63.9361 H   0  0  0  0  0  0  0  0  0  0  0  0
    6.6328   69.4199   63.0206 H   0  0  0  0  0  0  0  0  0  0  0  0
    3.5339   70.0953   63.5141 H   0  0  0  0  0  0  0  0  0  0  0  0
    3.6757   68.9018   62.5254 H   0  0  0  0  0  0  0  0  0  0  0  0
    2.7630   65.8760   66.0263 H   0  0  0  0  0  0  0  0  0  0  0  0
    1.9103   65.5602   64.4772 H   0  0  0  0  0  0  0  0  0  0  0  0
    3.6716   65.9127   64.4772 H   0  0  0  0  0  0  0  0  0  0  0  0
  2  1  2  0
  3  2  1  0
  4  3  1  0
  5  3  2  0
  6  5  1  0
  7  6  2  0
  7  1  1  0
  8  7  1  0
  9  8  1  0
 10  9  2  0
 11  6  1  0
 11 10  1  0
 12 11  2  0
 13  2  1  0
 14 13  1  0
 15 14  1  0
 16 15  1  0
 17 16  1  0
 18 17  1  0
 18 13  1  0
 19 17  1  0
 20 10  1  0
 21 20  2  0
 22 20  1  0
 23  8  1  0
 24 23  1  0
 25 24  1  0
 25 23  1  0
 27 26  1  0
 27  1  1  0
  5 28  1  0
  9 29  1  0
 14 30  1  0
 14 31  1  0
 15 32  1  0
 15 33  1  0
 16 34  1  0
 16 35  1  0
 17 36  1  1
 18 37  1  0
 18 38  1  0
 19 39  1  0
 19 40  1  0
 19 41  1  0
 23 42  1  0
 24 43  1  0
 24 44  1  0
 25 45  1  0
 25 46  1  0
 26 47  1  0
 26 48  1  0
 26 49  1  0
M  CHG  2  16   1  22  -1
M  END
>  <score>  (2) 
-7.068

$$$$
=
     RDKit          3D

 49 52  0  0  0  0  0  0  0  0999 V2000
    1.8160   59.1960   74.1680 C   0  0  0  0  0  0  0  0  0  0  0  0
    0.6960   58.4050   74.5750 C   0  0  0  0  0  0  0  0  0  0  0  0
   -0.5820   58.9330   74.3220 C   0  0  0  0  0  0  0  0  0  0  0  0
   -1.6790   58.2140   74.6170 F   0  0  0  0  0  0  0  0  0  0  0  0
   -0.7670   60.1220   73.6450 C   0  0  0  0  0  0  0  0  0  0  0  0
    0.3450   60.8110   73.1580 C   0  0  0  0  0  0  0  0  0  0  0  0
    1.6690   60.3760   73.3990 C   0  0  0  0  0  0  0  0  0  0  0  0
    2.7400   61.1300   72.8150 N   0  0  0  0  0  0  0  0  0  0  0  0
    2.4240   62.0250   71.8020 C   0  0  0  0  0  0  0  0  0  0  0  0
    1.2010   62.4690   71.4940 C   0  0  0  0  0  0  0  0  0  0  0  0
    0.0830   62.0010   72.3120 C   0  0  0  0  0  0  0  0  0  0  0  0
   -1.0290   62.5160   72.3380 O   0  0  0  0  0  0  0  0  0  0  0  0
    0.8900   57.1230   75.1440 N   0  0  0  0  0  0  0  0  0  0  0  0
    1.6520   56.1960   74.2760 C   0  0  0  0  0  0  0  0  0  0  0  0
    0.7440   55.5450   73.2080 C   0  0  0  0  0  0  0  0  0  0  0  0
   -0.7130   55.5770   73.6070 N   0  0  0  0  0  4  0  0  0  0  0  0
   -0.9970   55.4310   75.0850 C   0  0  2  0  0  0  0  0  0  0  0  0
   -0.1930   56.4760   75.9160 C   0  0  0  0  0  0  0  0  0  0  0  0
   -0.7240   53.9910   75.5020 C   0  0  0  0  0  0  0  0  0  0  0  0
    1.0100   63.3290   70.2680 C   0  0  0  0  0  0  0  0  0  0  0  0
    2.0750   63.8170   69.7900 O   0  0  0  0  0  0  0  0  0  0  0  0
   -0.1920   63.5440   69.9380 O   0  0  0  0  0  1  0  0  0  0  0  0
    4.1640   60.7550   72.9410 C   0  0  0  0  0  0  0  0  0  0  0  0
    5.2440   61.5000   72.1940 C   0  0  0  0  0  0  0  0  0  0  0  0
    4.9280   60.0910   71.8140 C   0  0  0  0  0  0  0  0  0  0  0  0
    3.3850   59.0620   75.8500 C   0  0  0  0  0  0  0  0  0  0  0  0
    3.0770   58.7350   74.4890 O   0  0  0  0  0  0  0  0  0  0  0  0
   -1.7800   60.5221   73.4910 H   0  0  0  0  0  0  0  0  0  0  0  0
    3.2590   62.4050   71.1951 H   0  0  0  0  0  0  0  0  0  0  0  0
    2.4529   56.7560   73.7711 H   0  0  0  0  0  0  0  0  0  0  0  0
    2.0702   55.3977   74.9067 H   0  0  0  0  0  0  0  0  0  0  0  0
    0.8645   56.0896   72.2599 H   0  0  0  0  0  0  0  0  0  0  0  0
    1.0442   54.4920   73.1034 H   0  0  0  0  0  0  0  0  0  0  0  0
   -1.1050   56.4779   73.2979 H   0  0  0  0  0  0  0  0  0  0  0  0
   -1.1427   54.7554   73.1584 H   0  0  0  0  0  0  0  0  0  0  0  0
   -2.0565   55.6445   75.2897 H   0  0  0  0  0  0  0  0  0  0  0  0
   -0.8873   57.2546   76.2650 H   0  0  0  0  0  0  0  0  0  0  0  0
    0.2771   55.9379   76.7523 H   0  0  0  0  0  0  0  0  0  0  0  0
   -0.7112   53.9233   76.5998 H   0  0  0  0  0  0  0  0  0  0  0  0
   -1.5143   53.3378   75.1036 H   0  0  0  0  0  0  0  0  0  0  0  0
    0.2505   53.6724   75.1036 H   0  0  0  0  0  0  0  0  0  0  0  0
    3.9603   60.5094   73.9937 H   0  0  0  0  0  0  0  0  0  0  0  0
    4.9740   62.3242   71.5173 H   0  0  0  0  0  0  0  0  0  0  0  0
    6.1586   62.0366   72.4864 H   0  0  0  0  0  0  0  0  0  0  0  0
    4.4246   59.8793   70.8591 H   0  0  0  0  0  0  0  0  0  0  0  0
    5.5124   59.1646   71.7124 H   0  0  0  0  0  0  0  0  0  0  0  0
    2.7886   58.4288   76.5232 H   0  0  0  0  0  0  0  0  0  0  0  0
    4.4552   58.8883   76.0357 H   0  0  0  0  0  0  0  0  0  0  0  0
    3.1476   60.1199   76.0357 H   0  0  0  0  0  0  0  0  0  0  0  0
  2  1  2  0
  3  2  1  0
  4  3  1  0
  5  3  2  0
  6  5  1  0
  7  6  2  0
  7  1  1  0
  8  7  1  0
  9  8  1  0
 10  9  2  0
 11  6  1  0
 11 10  1  0
 12 11  2  0
 13  2  1  0
 14 13  1  0
 15 14  1  0
 16 15  1  0
 17 16  1  0
 18 17  1  0
 18 13  1  0
 19 17  1  0
 20 10  1  0
 21 20  2  0
 22 20  1  0
 23  8  1  0
 24 23  1  0
 25 24  1  0
 25 23  1  0
 27 26  1  0
 27  1  1  0
  5 28  1  0
  9 29  1  0
 14 30  1  0
 14 31  1  0
 15 32  1  0
 15 33  1  0
 16 34  1  0
 16 35  1  0
 17 36  1  6
 18 37  1  0
 18 38  1  0
 19 39  1  0
 19 40  1  0
 19 41  1  0
 23 42  1  0
 24 43  1  0
 24 44  1  0
 25 45  1  0
 25 46  1  0
 26 47  1  0
 26 48  1  0
 26 49  1  0
M  CHG  2  16   1  22  -1
M  END
>  <score>  (3) 
-6.96

$$$$
=
     RDKit          3D

 49 52  0  0  0  0  0  0  0  0999 V2000
    2.9700   60.8710   72.8380 C   0  0  0  0  0  0  0  0  0  0  0  0
    2.4080   60.1690   73.9490 C   0  0  0  0  0  0  0  0  0  0  0  0
    1.4020   60.8280   74.6770 C   0  0  0  0  0  0  0  0  0  0  0  0
    0.7830   60.2020   75.6920 F   0  0  0  0  0  0  0  0  0  0  0  0
    0.9140   62.0650   74.3050 C   0  0  0  0  0  0  0  0  0  0  0  0
    1.4040   62.6720   73.1460 C   0  0  0  0  0  0  0  0  0  0  0  0
    2.4420   62.1010   72.3740 C   0  0  0  0  0  0  0  0  0  0  0  0
    2.8400   62.7810   71.1770 N   0  0  0  0  0  0  0  0  0  0  0  0
    1.9910   63.7570   70.6730 C   0  0  0  0  0  0  0  0  0  0  0  0
    0.9750   64.3320   71.3260 C   0  0  0  0  0  0  0  0  0  0  0  0
    0.7420   63.9260   72.7120 C   0  0  0  0  0  0  0  0  0  0  0  0
    0.0500   64.5430   73.5140 O   0  0  0  0  0  0  0  0  0  0  0  0
    2.8140   58.8450   74.2430 N   0  0  0  0  0  0  0  0  0  0  0  0
    2.6960   57.9170   73.0950 C   0  0  0  0  0  0  0  0  0  0  0  0
    1.2490   57.3990   72.9310 C   0  0  0  0  0  0  0  0  0  0  0  0
    0.4580   57.5140   74.2130 N   0  0  0  0  0  4  0  0  0  0  0  0
    1.2370   57.3020   75.4920 C   0  0  2  0  0  0  0  0  0  0  0  0
    2.4850   58.2340   75.5490 C   0  0  0  0  0  0  0  0  0  0  0  0
    1.5830   55.8230   75.6210 C   0  0  0  0  0  0  0  0  0  0  0  0
    0.0540   65.2730   70.5870 C   0  0  0  0  0  0  0  0  0  0  0  0
   -0.3450   64.8510   69.4630 O   0  0  0  0  0  0  0  0  0  0  0  0
   -0.1130   66.4030   71.1270 O   0  0  0  0  0  1  0  0  0  0  0  0
    3.8720   62.2670   70.2520 C   0  0  0  0  0  0  0  0  0  0  0  0
    3.9240   62.7050   68.8080 C   0  0  0  0  0  0  0  0  0  0  0  0
    3.5450   61.2990   69.1330 C   0  0  0  0  0  0  0  0  0  0  0  0
    5.2670   60.7250   72.7150 C   0  0  0  0  0  0  0  0  0  0  0  0
    4.0210   60.2760   72.1680 O   0  0  0  0  0  0  0  0  0  0  0  0
    0.1480   62.5669   74.9144 H   0  0  0  0  0  0  0  0  0  0  0  0
    2.1707   64.0886   69.6397 H   0  0  0  0  0  0  0  0  0  0  0  0
    2.9928   58.4450   72.1768 H   0  0  0  0  0  0  0  0  0  0  0  0
    3.3523   57.0539   73.2803 H   0  0  0  0  0  0  0  0  0  0  0  0
    0.7470   57.9888   72.1499 H   0  0  0  0  0  0  0  0  0  0  0  0
    1.2981   56.3350   72.6563 H   0  0  0  0  0  0  0  0  0  0  0  0
    0.0472   58.4580   74.2466 H   0  0  0  0  0  0  0  0  0  0  0  0
   -0.2365   56.7540   74.1808 H   0  0  0  0  0  0  0  0  0  0  0  0
    0.6223   57.5803   76.3607 H   0  0  0  0  0  0  0  0  0  0  0  0
    2.2878   59.0390   76.2722 H   0  0  0  0  0  0  0  0  0  0  0  0
    3.3436   57.6140   75.8462 H   0  0  0  0  0  0  0  0  0  0  0  0
    1.6462   55.5527   76.6854 H   0  0  0  0  0  0  0  0  0  0  0  0
    0.8017   55.2199   75.1353 H   0  0  0  0  0  0  0  0  0  0  0  0
    2.5508   55.6291   75.1353 H   0  0  0  0  0  0  0  0  0  0  0  0
    4.5709   62.2678   71.1015 H   0  0  0  0  0  0  0  0  0  0  0  0
    3.1664   63.4010   68.4186 H   0  0  0  0  0  0  0  0  0  0  0  0
    4.6865   63.1730   68.1680 H   0  0  0  0  0  0  0  0  0  0  0  0
    2.5088   60.9611   68.9843 H   0  0  0  0  0  0  0  0  0  0  0  0
    3.9128   60.3067   68.8328 H   0  0  0  0  0  0  0  0  0  0  0  0
    5.2134   60.7057   73.8135 H   0  0  0  0  0  0  0  0  0  0  0  0
    6.0765   60.0620   72.3757 H   0  0  0  0  0  0  0  0  0  0  0  0
    5.4676   61.7520   72.3757 H   0  0  0  0  0  0  0  0  0  0  0  0
  2  1  2  0
  3  2  1  0
  4  3  1  0
  5  3  2  0
  6  5  1  0
  7  6  2  0
  7  1  1  0
  8  7  1  0
  9  8  1  0
 10  9  2  0
 11  6  1  0
 11 10  1  0
 12 11  2  0
 13  2  1  0
 14 13  1  0
 15 14  1  0
 16 15  1  0
 17 16  1  0
 18 17  1  0
 18 13  1  0
 19 17  1  0
 20 10  1  0
 21 20  2  0
 22 20  1  0
 23  8  1  0
 24 23  1  0
 25 24  1  0
 25 23  1  0
 27 26  1  0
 27  1  1  0
  5 28  1  0
  9 29  1  0
 14 30  1  0
 14 31  1  0
 15 32  1  0
 15 33  1  0
 16 34  1  0
 16 35  1  0
 17 36  1  1
 18 37  1  0
 18 38  1  0
 19 39  1  0
 19 40  1  0
 19 41  1  0
 23 42  1  0
 24 43  1  0
 24 44  1  0
 25 45  1  0
 25 46  1  0
 26 47  1  0
 26 48  1  0
 26 49  1  0
M  CHG  2  16   1  22  -1
M  END
>  <score>  (4) 
-6.912

$$$$
=
     RDKit          3D

 49 52  0  0  0  0  0  0  0  0999 V2000
    1.4990   60.2620   74.0130 C   0  0  0  0  0  0  0  0  0  0  0  0
    2.1820   59.2710   74.7850 C   0  0  0  0  0  0  0  0  0  0  0  0
    3.3690   58.7490   74.2440 C   0  0  0  0  0  0  0  0  0  0  0  0
    4.0980   57.8630   74.9450 F   0  0  0  0  0  0  0  0  0  0  0  0
    3.9060   59.2130   73.0600 C   0  0  0  0  0  0  0  0  0  0  0  0
    3.2760   60.2630   72.3900 C   0  0  0  0  0  0  0  0  0  0  0  0
    2.0580   60.8240   72.8390 C   0  0  0  0  0  0  0  0  0  0  0  0
    1.5170   61.9300   72.1050 N   0  0  0  0  0  0  0  0  0  0  0  0
    2.3560   62.5900   71.2170 C   0  0  0  0  0  0  0  0  0  0  0  0
    3.5300   62.1420   70.7600 C   0  0  0  0  0  0  0  0  0  0  0  0
    3.9730   60.8220   71.2060 C   0  0  0  0  0  0  0  0  0  0  0  0
    4.8640   60.1670   70.6760 O   0  0  0  0  0  0  0  0  0  0  0  0
    1.7010   58.8980   76.0640 N   0  0  0  0  0  0  0  0  0  0  0  0
    1.6820   60.0110   77.0400 C   0  0  0  0  0  0  0  0  0  0  0  0
    3.0750   60.2370   77.6700 C   0  0  0  0  0  0  0  0  0  0  0  0
    3.9490   59.0100   77.5650 N   0  0  0  0  0  4  0  0  0  0  0  0
    3.2370   57.6790   77.6700 C   0  0  2  0  0  0  0  0  0  0  0  0
    2.0650   57.5890   76.6470 C   0  0  0  0  0  0  0  0  0  0  0  0
    2.7950   57.4680   79.1140 C   0  0  0  0  0  0  0  0  0  0  0  0
    4.3900   63.0470   69.9100 C   0  0  0  0  0  0  0  0  0  0  0  0
    4.1260   63.0220   68.6730 O   0  0  0  0  0  0  0  0  0  0  0  0
    5.3330   63.6270   70.5200 O   0  0  0  0  0  1  0  0  0  0  0  0
    0.2840   62.6440   72.4970 C   0  0  0  0  0  0  0  0  0  0  0  0
    0.0030   64.0500   72.0250 C   0  0  0  0  0  0  0  0  0  0  0  0
    0.2950   63.8060   73.4680 C   0  0  0  0  0  0  0  0  0  0  0  0
   -0.7680   59.8520   74.0510 C   0  0  0  0  0  0  0  0  0  0  0  0
    0.2860   60.7210   74.4870 O   0  0  0  0  0  0  0  0  0  0  0  0
    4.8204   58.7602   72.6490 H   0  0  0  0  0  0  0  0  0  0  0  0
    2.0235   63.5742   70.8554 H   0  0  0  0  0  0  0  0  0  0  0  0
    1.3688   60.9317   76.5259 H   0  0  0  0  0  0  0  0  0  0  0  0
    0.9778   59.7521   77.8444 H   0  0  0  0  0  0  0  0  0  0  0  0
    3.5692   61.0706   77.1496 H   0  0  0  0  0  0  0  0  0  0  0  0
    2.9328   60.4626   78.7372 H   0  0  0  0  0  0  0  0  0  0  0  0
    4.4274   59.0407   76.6534 H   0  0  0  0  0  0  0  0  0  0  0  0
    4.5839   59.0505   78.3750 H   0  0  0  0  0  0  0  0  0  0  0  0
    3.9218   56.8599   77.4050 H   0  0  0  0  0  0  0  0  0  0  0  0
    2.3634   56.9136   75.8316 H   0  0  0  0  0  0  0  0  0  0  0  0
    1.1841   57.2159   77.1900 H   0  0  0  0  0  0  0  0  0  0  0  0
    3.5750   57.8404   79.7944 H   0  0  0  0  0  0  0  0  0  0  0  0
    1.8586   58.0162   79.2947 H   0  0  0  0  0  0  0  0  0  0  0  0
    2.6325   56.3952   79.2947 H   0  0  0  0  0  0  0  0  0  0  0  0
   -0.2375   61.6768   72.4467 H   0  0  0  0  0  0  0  0  0  0  0  0
    0.7385   64.5752   71.3979 H   0  0  0  0  0  0  0  0  0  0  0  0
   -0.8165   64.5317   71.4715 H   0  0  0  0  0  0  0  0  0  0  0  0
    1.2454   64.1502   73.9019 H   0  0  0  0  0  0  0  0  0  0  0  0
   -0.2199   64.0326   74.4133 H   0  0  0  0  0  0  0  0  0  0  0  0
   -1.2808   59.4292   74.9275 H   0  0  0  0  0  0  0  0  0  0  0  0
   -1.4872   60.4231   73.4455 H   0  0  0  0  0  0  0  0  0  0  0  0
   -0.3445   59.0371   73.4455 H   0  0  0  0  0  0  0  0  0  0  0  0
  2  1  2  0
  3  2  1  0
  4  3  1  0
  5  3  2  0
  6  5  1  0
  7  6  2  0
  7  1  1  0
  8  7  1  0
  9  8  1  0
 10  9  2  0
 11  6  1  0
 11 10  1  0
 12 11  2  0
 13  2  1  0
 14 13  1  0
 15 14  1  0
 16 15  1  0
 17 16  1  0
 18 17  1  0
 18 13  1  0
 19 17  1  0
 20 10  1  0
 21 20  2  0
 22 20  1  0
 23  8  1  0
 24 23  1  0
 25 24  1  0
 25 23  1  0
 27 26  1  0
 27  1  1  0
  5 28  1  0
  9 29  1  0
 14 30  1  0
 14 31  1  0
 15 32  1  0
 15 33  1  0
 16 34  1  0
 16 35  1  0
 17 36  1  6
 18 37  1  0
 18 38  1  0
 19 39  1  0
 19 40  1  0
 19 41  1  0
 23 42  1  0
 24 43  1  0
 24 44  1  0
 25 45  1  0
 25 46  1  0
 26 47  1  0
 26 48  1  0
 26 49  1  0
M  CHG  2  16   1  22  -1
M  END
>  <score>  (5) 
-6.9

$$$$
=
     RDKit          3D

 49 52  0  0  0  0  0  0  0  0999 V2000
    0.2390   59.7720   73.9320 C   0  0  0  0  0  0  0  0  0  0  0  0
    0.1550   58.5860   74.7250 C   0  0  0  0  0  0  0  0  0  0  0  0
    0.9080   57.4790   74.2980 C   0  0  0  0  0  0  0  0  0  0  0  0
    0.9300   56.3530   75.0320 F   0  0  0  0  0  0  0  0  0  0  0  0
    1.7530   57.5390   73.2070 C   0  0  0  0  0  0  0  0  0  0  0  0
    1.9000   58.7470   72.5230 C   0  0  0  0  0  0  0  0  0  0  0  0
    1.1550   59.9010   72.8580 C   0  0  0  0  0  0  0  0  0  0  0  0
    1.4140   61.1040   72.1240 N   0  0  0  0  0  0  0  0  0  0  0  0
    2.5790   61.1650   71.3710 C   0  0  0  0  0  0  0  0  0  0  0  0
    3.3520   60.1290   71.0290 C   0  0  0  0  0  0  0  0  0  0  0  0
    2.9280   58.7960   71.4560 C   0  0  0  0  0  0  0  0  0  0  0  0
    3.3620   57.7450   70.9990 O   0  0  0  0  0  0  0  0  0  0  0  0
   -0.6030   58.5730   75.9210 N   0  0  0  0  0  0  0  0  0  0  0  0
   -0.2240   59.6360   76.8790 C   0  0  0  0  0  0  0  0  0  0  0  0
    1.0180   59.2370   77.7060 C   0  0  0  0  0  0  0  0  0  0  0  0
    1.2210   57.7400   77.7370 N   0  0  0  0  0  4  0  0  0  0  0  0
   -0.0380   56.9020   77.7420 C   0  0  2  0  0  0  0  0  0  0  0  0
   -0.9740   57.2900   76.5570 C   0  0  0  0  0  0  0  0  0  0  0  0
   -0.7100   57.0260   79.1050 C   0  0  0  0  0  0  0  0  0  0  0  0
    4.6660   60.3820   70.3290 C   0  0  0  0  0  0  0  0  0  0  0  0
    5.6380   60.6350   71.0990 O   0  0  0  0  0  0  0  0  0  0  0  0
    4.6090   60.4190   69.0670 O   0  0  0  0  0  1  0  0  0  0  0  0
    0.7470   62.3930   72.4070 C   0  0  0  0  0  0  0  0  0  0  0  0
   -0.0240   63.1330   71.3410 C   0  0  0  0  0  0  0  0  0  0  0  0
    1.2560   63.7070   71.8510 C   0  0  0  0  0  0  0  0  0  0  0  0
   -1.8590   60.6940   73.6930 C   0  0  0  0  0  0  0  0  0  0  0  0
   -0.5630   60.8390   74.2860 O   0  0  0  0  0  0  0  0  0  0  0  0
    2.3041   56.6447   72.8807 H   0  0  0  0  0  0  0  0  0  0  0  0
    2.8958   62.1593   71.0231 H   0  0  0  0  0  0  0  0  0  0  0  0
   -0.0007   60.5571   76.3207 H   0  0  0  0  0  0  0  0  0  0  0  0
   -1.0642   59.7915   77.5717 H   0  0  0  0  0  0  0  0  0  0  0  0
    1.9072   59.7067   77.2603 H   0  0  0  0  0  0  0  0  0  0  0  0
    0.8623   59.5800   78.7395 H   0  0  0  0  0  0  0  0  0  0  0  0
    1.7705   57.4789   76.9058 H   0  0  0  0  0  0  0  0  0  0  0  0
    1.6913   57.5412   78.6315 H   0  0  0  0  0  0  0  0  0  0  0  0
    0.2120   55.8423   77.5855 H   0  0  0  0  0  0  0  0  0  0  0  0
   -0.9251   56.4957   75.7976 H   0  0  0  0  0  0  0  0  0  0  0  0
   -1.9887   57.4074   76.9652 H   0  0  0  0  0  0  0  0  0  0  0  0
    0.0401   56.8876   79.8976 H   0  0  0  0  0  0  0  0  0  0  0  0
   -1.1645   58.0232   79.2004 H   0  0  0  0  0  0  0  0  0  0  0  0
   -1.4904   56.2567   79.2004 H   0  0  0  0  0  0  0  0  0  0  0  0
    0.5272   62.0064   73.4131 H   0  0  0  0  0  0  0  0  0  0  0  0
   -0.0746   62.7275   70.3197 H   0  0  0  0  0  0  0  0  0  0  0  0
   -1.0557   63.5031   71.2478 H   0  0  0  0  0  0  0  0  0  0  0  0
    2.1468   63.7222   71.2058 H   0  0  0  0  0  0  0  0  0  0  0  0
    1.5548   64.6712   72.2880 H   0  0  0  0  0  0  0  0  0  0  0  0
   -2.6173   60.6092   74.4853 H   0  0  0  0  0  0  0  0  0  0  0  0
   -2.0773   61.5733   73.0692 H   0  0  0  0  0  0  0  0  0  0  0  0
   -1.8775   59.7882   73.0692 H   0  0  0  0  0  0  0  0  0  0  0  0
  2  1  2  0
  3  2  1  0
  4  3  1  0
  5  3  2  0
  6  5  1  0
  7  6  2  0
  7  1  1  0
  8  7  1  0
  9  8  1  0
 10  9  2  0
 11  6  1  0
 11 10  1  0
 12 11  2  0
 13  2  1  0
 14 13  1  0
 15 14  1  0
 16 15  1  0
 17 16  1  0
 18 17  1  0
 18 13  1  0
 19 17  1  0
 20 10  1  0
 21 20  2  0
 22 20  1  0
 23  8  1  0
 24 23  1  0
 25 24  1  0
 25 23  1  0
 27 26  1  0
 27  1  1  0
  5 28  1  0
  9 29  1  0
 14 30  1  0
 14 31  1  0
 15 32  1  0
 15 33  1  0
 16 34  1  0
 16 35  1  0
 17 36  1  6
 18 37  1  0
 18 38  1  0
 19 39  1  0
 19 40  1  0
 19 41  1  0
 23 42  1  0
 24 43  1  0
 24 44  1  0
 25 45  1  0
 25 46  1  0
 26 47  1  0
 26 48  1  0
 26 49  1  0
M  CHG  2  16   1  22  -1
M  END
>  <score>  (6) 
-6.484

$$$$
=
     RDKit          3D

 49 52  0  0  0  0  0  0  0  0999 V2000
    1.5070   60.8210   73.8660 C   0  0  0  0  0  0  0  0  0  0  0  0
    2.8070   60.9050   73.2770 C   0  0  0  0  0  0  0  0  0  0  0  0
    3.5620   59.7210   73.2300 C   0  0  0  0  0  0  0  0  0  0  0  0
    4.7650   59.7120   72.6310 F   0  0  0  0  0  0  0  0  0  0  0  0
    3.0600   58.5080   73.6600 C   0  0  0  0  0  0  0  0  0  0  0  0
    1.7440   58.4390   74.1220 C   0  0  0  0  0  0  0  0  0  0  0  0
    0.9240   59.5850   74.2410 C   0  0  0  0  0  0  0  0  0  0  0  0
   -0.4270   59.4000   74.6810 N   0  0  0  0  0  0  0  0  0  0  0  0
   -0.9480   58.1130   74.6520 C   0  0  0  0  0  0  0  0  0  0  0  0
   -0.2470   56.9820   74.5210 C   0  0  0  0  0  0  0  0  0  0  0  0
    1.2080   57.0910   74.4300 C   0  0  0  0  0  0  0  0  0  0  0  0
    1.9910   56.1610   74.5840 O   0  0  0  0  0  0  0  0  0  0  0  0
    3.2630   62.1200   72.7120 N   0  0  0  0  0  0  0  0  0  0  0  0
    2.2510   62.8050   71.8750 C   0  0  0  0  0  0  0  0  0  0  0  0
    2.1950   62.2060   70.4520 C   0  0  0  0  0  0  0  0  0  0  0  0
    3.4700   61.4810   70.0920 N   0  0  0  0  0  4  0  0  0  0  0  0
    4.7460   62.0650   70.6570 C   0  0  2  0  0  0  0  0  0  0  0  0
    4.6460   62.2350   72.2030 C   0  0  0  0  0  0  0  0  0  0  0  0
    5.0610   63.3650   69.9260 C   0  0  0  0  0  0  0  0  0  0  0  0
   -0.9770   55.6700   74.3610 C   0  0  0  0  0  0  0  0  0  0  0  0
   -0.4270   54.8490   73.5710 O   0  0  0  0  0  0  0  0  0  0  0  0
   -2.0970   55.5990   74.9440 O   0  0  0  0  0  1  0  0  0  0  0  0
   -1.4060   60.5020   74.7960 C   0  0  0  0  0  0  0  0  0  0  0  0
   -2.8920   60.2470   74.7210 C   0  0  0  0  0  0  0  0  0  0  0  0
   -2.2190   60.9880   73.6140 C   0  0  0  0  0  0  0  0  0  0  0  0
    1.0950   62.6120   75.2570 C   0  0  0  0  0  0  0  0  0  0  0  0
    0.7870   61.9920   74.0020 O   0  0  0  0  0  0  0  0  0  0  0  0
    3.6899   57.6065   73.6387 H   0  0  0  0  0  0  0  0  0  0  0  0
   -2.0396   58.0149   74.7456 H   0  0  0  0  0  0  0  0  0  0  0  0
    1.2636   62.6969   72.3476 H   0  0  0  0  0  0  0  0  0  0  0  0
    2.5313   63.8655   71.7927 H   0  0  0  0  0  0  0  0  0  0  0  0
    1.3560   61.4967   70.3982 H   0  0  0  0  0  0  0  0  0  0  0  0
    2.0628   63.0341   69.7401 H   0  0  0  0  0  0  0  0  0  0  0  0
    3.3888   60.5123   70.4325 H   0  0  0  0  0  0  0  0  0  0  0  0
    3.5564   61.5618   69.0688 H   0  0  0  0  0  0  0  0  0  0  0  0
    5.5862   61.3748   70.4905 H   0  0  0  0  0  0  0  0  0  0  0  0
    5.2604   61.4578   72.6809 H   0  0  0  0  0  0  0  0  0  0  0  0
    5.0007   63.2478   72.4447 H   0  0  0  0  0  0  0  0  0  0  0  0
    5.2539   64.1611   70.6602 H   0  0  0  0  0  0  0  0  0  0  0  0
    5.9511   63.2245   69.2951 H   0  0  0  0  0  0  0  0  0  0  0  0
    4.2053   63.6475   69.2951 H   0  0  0  0  0  0  0  0  0  0  0  0
   -0.7230   60.9738   75.5178 H   0  0  0  0  0  0  0  0  0  0  0  0
   -3.2653   59.2265   74.5502 H   0  0  0  0  0  0  0  0  0  0  0  0
   -3.7470   60.4517   75.3821 H   0  0  0  0  0  0  0  0  0  0  0  0
   -2.0959   60.5123   72.6299 H   0  0  0  0  0  0  0  0  0  0  0  0
   -2.3730   61.9614   73.1254 H   0  0  0  0  0  0  0  0  0  0  0  0
    0.7698   61.9573   76.0790 H   0  0  0  0  0  0  0  0  0  0  0  0
    2.1802   62.7777   75.3276 H   0  0  0  0  0  0  0  0  0  0  0  0
    0.5714   63.5768   75.3276 H   0  0  0  0  0  0  0  0  0  0  0  0
  2  1  2  0
  3  2  1  0
  4  3  1  0
  5  3  2  0
  6  5  1  0
  7  6  2  0
  7  1  1  0
  8  7  1  0
  9  8  1  0
 10  9  2  0
 11  6  1  0
 11 10  1  0
 12 11  2  0
 13  2  1  0
 14 13  1  0
 15 14  1  0
 16 15  1  0
 17 16  1  0
 18 17  1  0
 18 13  1  0
 19 17  1  0
 20 10  1  0
 21 20  2  0
 22 20  1  0
 23  8  1  0
 24 23  1  0
 25 24  1  0
 25 23  1  0
 27 26  1  0
 27  1  1  0
  5 28  1  0
  9 29  1  0
 14 30  1  0
 14 31  1  0
 15 32  1  0
 15 33  1  0
 16 34  1  0
 16 35  1  0
 17 36  1  1
 18 37  1  0
 18 38  1  0
 19 39  1  0
 19 40  1  0
 19 41  1  0
 23 42  1  0
 24 43  1  0
 24 44  1  0
 25 45  1  0
 25 46  1  0
 26 47  1  0
 26 48  1  0
 26 49  1  0
M  CHG  2  16   1  22  -1
M  END
>  <score>  (7) 
-6.327

$$$$
=
     RDKit          3D

 49 52  0  0  0  0  0  0  0  0999 V2000
    0.5940   61.5840   74.6940 C   0  0  0  0  0  0  0  0  0  0  0  0
    0.9260   61.2080   76.0320 C   0  0  0  0  0  0  0  0  0  0  0  0
    2.0090   60.3270   76.1970 C   0  0  0  0  0  0  0  0  0  0  0  0
    2.4180   59.9850   77.4310 F   0  0  0  0  0  0  0  0  0  0  0  0
    2.7750   59.8940   75.1340 C   0  0  0  0  0  0  0  0  0  0  0  0
    2.4960   60.3720   73.8520 C   0  0  0  0  0  0  0  0  0  0  0  0
    1.4040   61.2300   73.5860 C   0  0  0  0  0  0  0  0  0  0  0  0
    1.2320   61.7010   72.2430 N   0  0  0  0  0  0  0  0  0  0  0  0
    2.3010   61.5670   71.3680 C   0  0  0  0  0  0  0  0  0  0  0  0
    3.3800   60.7970   71.5520 C   0  0  0  0  0  0  0  0  0  0  0  0
    3.4390   59.9930   72.7720 C   0  0  0  0  0  0  0  0  0  0  0  0
    4.2030   59.0510   72.9520 O   0  0  0  0  0  0  0  0  0  0  0  0
    0.2250   61.7650   77.1290 N   0  0  0  0  0  0  0  0  0  0  0  0
    0.1830   63.2450   77.1210 C   0  0  0  0  0  0  0  0  0  0  0  0
    1.4850   63.8510   77.6910 C   0  0  0  0  0  0  0  0  0  0  0  0
    2.2270   62.8740   78.5720 N   0  0  0  0  0  4  0  0  0  0  0  0
    1.3670   61.9330   79.3870 C   0  0  2  0  0  0  0  0  0  0  0  0
    0.3550   61.1720   78.4780 C   0  0  0  0  0  0  0  0  0  0  0  0
    0.6970   62.7200   80.5070 C   0  0  0  0  0  0  0  0  0  0  0  0
    4.5230   60.8750   70.5690 C   0  0  0  0  0  0  0  0  0  0  0  0
    4.3940   60.1440   69.5450 O   0  0  0  0  0  0  0  0  0  0  0  0
    5.5120   61.5690   70.9420 O   0  0  0  0  0  1  0  0  0  0  0  0
    0.1680   62.6440   71.8390 C   0  0  0  0  0  0  0  0  0  0  0  0
    0.2740   63.4580   70.5730 C   0  0  0  0  0  0  0  0  0  0  0  0
    0.3540   64.1460   71.8940 C   0  0  0  0  0  0  0  0  0  0  0  0
   -1.6950   61.5580   74.4370 C   0  0  0  0  0  0  0  0  0  0  0  0
   -0.5210   62.3760   74.5070 O   0  0  0  0  0  0  0  0  0  0  0  0
    3.5963   59.1802   75.2948 H   0  0  0  0  0  0  0  0  0  0  0  0
    2.2572   62.1485   70.4353 H   0  0  0  0  0  0  0  0  0  0  0  0
    0.0496   63.5933   76.0862 H   0  0  0  0  0  0  0  0  0  0  0  0
   -0.6555   63.5701   77.7544 H   0  0  0  0  0  0  0  0  0  0  0  0
    2.1376   64.1408   76.8543 H   0  0  0  0  0  0  0  0  0  0  0  0
    1.2132   64.7225   78.3048 H   0  0  0  0  0  0  0  0  0  0  0  0
    2.8344   62.3025   77.9675 H   0  0  0  0  0  0  0  0  0  0  0  0
    2.7371   63.4491   79.2575 H   0  0  0  0  0  0  0  0  0  0  0  0
    1.9905   61.1543   79.8505 H   0  0  0  0  0  0  0  0  0  0  0  0
    0.6946   60.1312   78.3714 H   0  0  0  0  0  0  0  0  0  0  0  0
   -0.6314   61.2367   78.9605 H   0  0  0  0  0  0  0  0  0  0  0  0
    1.0299   62.3290   81.4798 H   0  0  0  0  0  0  0  0  0  0  0  0
    0.9727   63.7817   80.4248 H   0  0  0  0  0  0  0  0  0  0  0  0
   -0.3951   62.6173   80.4248 H   0  0  0  0  0  0  0  0  0  0  0  0
   -0.5583   61.9333   72.2602 H   0  0  0  0  0  0  0  0  0  0  0  0
    1.1714   63.3763   69.9422 H   0  0  0  0  0  0  0  0  0  0  0  0
   -0.3496   63.5770   69.6747 H   0  0  0  0  0  0  0  0  0  0  0  0
    1.3101   64.5689   72.2361 H   0  0  0  0  0  0  0  0  0  0  0  0
   -0.1855   64.9782   72.3698 H   0  0  0  0  0  0  0  0  0  0  0  0
   -2.0371   61.3197   75.4549 H   0  0  0  0  0  0  0  0  0  0  0  0
   -2.4881   62.1000   73.9012 H   0  0  0  0  0  0  0  0  0  0  0  0
   -1.4612   60.6262   73.9012 H   0  0  0  0  0  0  0  0  0  0  0  0
  2  1  2  0
  3  2  1  0
  4  3  1  0
  5  3  2  0
  6  5  1  0
  7  6  2  0
  7  1  1  0
  8  7  1  0
  9  8  1  0
 10  9  2  0
 11  6  1  0
 11 10  1  0
 12 11  2  0
 13  2  1  0
 14 13  1  0
 15 14  1  0
 16 15  1  0
 17 16  1  0
 18 17  1  0
 18 13  1  0
 19 17  1  0
 20 10  1  0
 21 20  2  0
 22 20  1  0
 23  8  1  0
 24 23  1  0
 25 24  1  0
 25 23  1  0
 27 26  1  0
 27  1  1  0
  5 28  1  0
  9 29  1  0
 14 30  1  0
 14 31  1  0
 15 32  1  0
 15 33  1  0
 16 34  1  0
 16 35  1  0
 17 36  1  1
 18 37  1  0
 18 38  1  0
 19 39  1  0
 19 40  1  0
 19 41  1  0
 23 42  1  0
 24 43  1  0
 24 44  1  0
 25 45  1  0
 25 46  1  0
 26 47  1  0
 26 48  1  0
 26 49  1  0
M  CHG  2  16   1  22  -1
M  END
>  <score>  (8) 
-6.255

$$$$
=
     RDKit          3D

 49 52  0  0  0  0  0  0  0  0999 V2000
    2.2520   59.6770   72.6730 C   0  0  0  0  0  0  0  0  0  0  0  0
    2.0640   60.6600   71.6530 C   0  0  0  0  0  0  0  0  0  0  0  0
    1.0330   61.5940   71.8510 C   0  0  0  0  0  0  0  0  0  0  0  0
    0.8430   62.5870   70.9650 F   0  0  0  0  0  0  0  0  0  0  0  0
    0.2770   61.6240   73.0060 C   0  0  0  0  0  0  0  0  0  0  0  0
    0.5640   60.7230   74.0330 C   0  0  0  0  0  0  0  0  0  0  0  0
    1.5560   59.7230   73.9070 C   0  0  0  0  0  0  0  0  0  0  0  0
    1.8050   58.8780   75.0370 N   0  0  0  0  0  0  0  0  0  0  0  0
    1.3120   59.2840   76.2700 C   0  0  0  0  0  0  0  0  0  0  0  0
    0.3930   60.2330   76.4790 C   0  0  0  0  0  0  0  0  0  0  0  0
   -0.1770   60.8950   75.3060 C   0  0  0  0  0  0  0  0  0  0  0  0
   -1.2020   61.5680   75.3130 O   0  0  0  0  0  0  0  0  0  0  0  0
    2.9320   60.7110   70.5360 N   0  0  0  0  0  0  0  0  0  0  0  0
    4.3570   60.8890   70.8960 C   0  0  0  0  0  0  0  0  0  0  0  0
    4.6890   62.3710   71.1770 C   0  0  0  0  0  0  0  0  0  0  0  0
    3.6940   63.3070   70.5330 N   0  0  0  0  0  4  0  0  0  0  0  0
    3.1290   62.8590   69.2040 C   0  0  2  0  0  0  0  0  0  0  0  0
    2.5260   61.4250   69.3060 C   0  0  0  0  0  0  0  0  0  0  0  0
    4.2130   62.9820   68.1390 C   0  0  0  0  0  0  0  0  0  0  0  0
    0.0710   60.6560   77.8920 C   0  0  0  0  0  0  0  0  0  0  0  0
   -0.9850   60.1500   78.3700 O   0  0  0  0  0  0  0  0  0  0  0  0
    0.8290   61.5430   78.3780 O   0  0  0  0  0  1  0  0  0  0  0  0
    2.8490   57.8320   75.0590 C   0  0  0  0  0  0  0  0  0  0  0  0
    3.3360   57.2310   76.3560 C   0  0  0  0  0  0  0  0  0  0  0  0
    4.2530   58.1010   75.5620 C   0  0  0  0  0  0  0  0  0  0  0  0
    2.6230   57.6180   71.7060 C   0  0  0  0  0  0  0  0  0  0  0  0
    3.1990   58.6960   72.4540 O   0  0  0  0  0  0  0  0  0  0  0  0
   -0.5423   62.3498   73.1157 H   0  0  0  0  0  0  0  0  0  0  0  0
    1.7155   58.7772   77.1590 H   0  0  0  0  0  0  0  0  0  0  0  0
    4.5747   60.2969   71.7971 H   0  0  0  0  0  0  0  0  0  0  0  0
    4.9718   60.5523   70.0482 H   0  0  0  0  0  0  0  0  0  0  0  0
    4.6798   62.5367   72.2644 H   0  0  0  0  0  0  0  0  0  0  0  0
    5.6802   62.5834   70.7498 H   0  0  0  0  0  0  0  0  0  0  0  0
    2.9065   63.4280   71.1858 H   0  0  0  0  0  0  0  0  0  0  0  0
    4.2143   64.1739   70.3362 H   0  0  0  0  0  0  0  0  0  0  0  0
    2.2925   63.5097   68.9093 H   0  0  0  0  0  0  0  0  0  0  0  0
    1.4290   61.5048   69.2935 H   0  0  0  0  0  0  0  0  0  0  0  0
    2.9067   60.8475   68.4507 H   0  0  0  0  0  0  0  0  0  0  0  0
    5.1935   63.0933   68.6250 H   0  0  0  0  0  0  0  0  0  0  0  0
    4.2150   62.0783   67.5118 H   0  0  0  0  0  0  0  0  0  0  0  0
    4.0125   63.8632   67.5118 H   0  0  0  0  0  0  0  0  0  0  0  0
    2.4176   57.4446   74.1242 H   0  0  0  0  0  0  0  0  0  0  0  0
    2.9309   57.5909   77.3133 H   0  0  0  0  0  0  0  0  0  0  0  0
    3.3956   56.2105   76.7621 H   0  0  0  0  0  0  0  0  0  0  0  0
    4.5209   59.1008   75.9343 H   0  0  0  0  0  0  0  0  0  0  0  0
    5.2633   57.9853   75.1426 H   0  0  0  0  0  0  0  0  0  0  0  0
    2.2205   56.8647   72.3992 H   0  0  0  0  0  0  0  0  0  0  0  0
    1.8110   58.0042   71.0723 H   0  0  0  0  0  0  0  0  0  0  0  0
    3.3953   57.1576   71.0723 H   0  0  0  0  0  0  0  0  0  0  0  0
  2  1  2  0
  3  2  1  0
  4  3  1  0
  5  3  2  0
  6  5  1  0
  7  6  2  0
  7  1  1  0
  8  7  1  0
  9  8  1  0
 10  9  2  0
 11  6  1  0
 11 10  1  0
 12 11  2  0
 13  2  1  0
 14 13  1  0
 15 14  1  0
 16 15  1  0
 17 16  1  0
 18 17  1  0
 18 13  1  0
 19 17  1  0
 20 10  1  0
 21 20  2  0
 22 20  1  0
 23  8  1  0
 24 23  1  0
 25 24  1  0
 25 23  1  0
 27 26  1  0
 27  1  1  0
  5 28  1  0
  9 29  1  0
 14 30  1  0
 14 31  1  0
 15 32  1  0
 15 33  1  0
 16 34  1  0
 16 35  1  0
 17 36  1  6
 18 37  1  0
 18 38  1  0
 19 39  1  0
 19 40  1  0
 19 41  1  0
 23 42  1  0
 24 43  1  0
 24 44  1  0
 25 45  1  0
 25 46  1  0
 26 47  1  0
 26 48  1  0
 26 49  1  0
M  CHG  2  16   1  22  -1
M  END
>  <score>  (9) 
-5.94

$$$$
