=
     RDKit          3D

 74 78  0  0  0  0  0  0  0  0999 V2000
    0.3460   64.7260   72.3290 C   0  0  0  0  0  0  0  0  0  0  0  0
   -0.0350   65.5850   71.2920 C   0  0  0  0  0  0  0  0  0  0  0  0
    0.7350   65.6880   70.1240 C   0  0  0  0  0  0  0  0  0  0  0  0
    1.8820   64.9010   69.9820 C   0  0  0  0  0  0  0  0  0  0  0  0
    2.2610   64.0360   71.0090 C   0  0  0  0  0  0  0  0  0  0  0  0
    1.5150   63.9490   72.2000 C   0  0  0  0  0  0  0  0  0  0  0  0
    0.2840   66.6460   69.0770 C   0  0  0  0  0  0  0  0  0  0  0  0
   -0.8960   66.7360   68.7810 O   0  0  0  0  0  0  0  0  0  0  0  0
    1.2950   67.3980   68.4710 N   0  0  0  0  0  0  0  0  0  0  0  0
    1.0510   68.5480   67.2920 S   0  0  0  0  0  6  0  0  0  0  0  0
    0.4210   69.6560   67.9850 O   0  0  0  0  0  0  0  0  0  0  0  0
    0.3930   67.9310   66.1650 O   0  0  0  0  0  0  0  0  0  0  0  0
    2.7090   69.0710   66.8880 C   0  0  0  0  0  0  0  0  0  0  0  0
    3.1830   68.6930   65.6180 C   0  0  0  0  0  0  0  0  0  0  0  0
    4.4670   69.0430   65.2070 C   0  0  0  0  0  0  0  0  0  0  0  0
    5.2900   69.7650   66.0630 C   0  0  0  0  0  0  0  0  0  0  0  0
    4.8320   70.1310   67.3310 C   0  0  0  0  0  0  0  0  0  0  0  0
    3.5380   69.7900   67.7690 C   0  0  0  0  0  0  0  0  0  0  0  0
    3.1300   70.2070   69.1530 C   0  0  0  0  0  0  0  0  0  0  0  0
   -0.3520   65.6210   74.4280 C   0  0  0  0  0  0  0  0  0  0  0  0
   -0.3710   64.5560   73.4830 O   0  0  0  0  0  0  0  0  0  0  0  0
    1.9610   63.0050   73.3010 C   0  0  0  0  0  0  0  0  0  0  0  0
    2.7740   61.9250   72.6540 C   0  0  0  0  0  0  0  0  0  0  0  0
    3.9520   62.1050   71.9490 C   0  0  0  0  0  0  0  0  0  0  0  0
    4.3840   60.8860   71.5040 N   0  0  0  0  0  0  0  0  0  0  0  0
    3.5030   59.8990   71.8860 C   0  0  0  0  0  0  0  0  0  0  0  0
    2.4770   60.5210   72.6020 C   0  0  0  0  0  0  0  0  0  0  0  0
    1.4200   59.7230   73.1020 C   0  0  0  0  0  0  0  0  0  0  0  0
    1.4180   58.3400   72.8880 C   0  0  0  0  0  0  0  0  0  0  0  0
    2.4650   57.7530   72.1720 C   0  0  0  0  0  0  0  0  0  0  0  0
    3.5200   58.5160   71.6600 C   0  0  0  0  0  0  0  0  0  0  0  0
    5.5870   60.6720   70.7320 C   0  0  0  0  0  0  0  0  0  0  0  0
    0.4080   57.4790   73.3540 N   0  0  0  0  0  0  0  0  0  0  0  0
    0.1560   57.0700   74.6310 C   0  0  0  0  0  0  0  0  0  0  0  0
    0.7540   57.3620   75.6550 O   0  0  0  0  0  0  0  0  0  0  0  0
   -0.9230   56.2390   74.5930 O   0  0  0  0  0  0  0  0  0  0  0  0
   -0.7050   54.9260   75.1110 C   0  0  0  0  0  0  0  0  0  0  0  0
   -2.0090   54.2120   75.4490 C   0  0  0  0  0  0  0  0  0  0  0  0
   -1.6650   52.7290   75.3800 C   0  0  0  0  0  0  0  0  0  0  0  0
   -0.4130   52.6230   74.5100 C   0  0  0  0  0  0  0  0  0  0  0  0
   -0.1300   54.0350   74.0170 C   0  0  0  0  0  0  0  0  0  0  0  0
   -0.9499   66.1871   71.3941 H   0  0  0  0  0  0  0  0  0  0  0  0
    2.4837   64.9637   69.0633 H   0  0  0  0  0  0  0  0  0  0  0  0
    3.1580   63.4113   70.8861 H   0  0  0  0  0  0  0  0  0  0  0  0
    2.2637   67.2277   68.7770 H   0  0  0  0  0  0  0  0  0  0  0  0
    2.5334   68.1157   64.9436 H   0  0  0  0  0  0  0  0  0  0  0  0
    4.8277   68.7495   64.2101 H   0  0  0  0  0  0  0  0  0  0  0  0
    6.3031   70.0486   65.7418 H   0  0  0  0  0  0  0  0  0  0  0  0
    5.4958   70.6971   68.0009 H   0  0  0  0  0  0  0  0  0  0  0  0
    3.6987   69.6257   69.8937 H   0  0  0  0  0  0  0  0  0  0  0  0
    3.3382   71.2785   69.2895 H   0  0  0  0  0  0  0  0  0  0  0  0
    2.0543   70.0222   69.2895 H   0  0  0  0  0  0  0  0  0  0  0  0
   -0.3594   65.2071   75.4471 H   0  0  0  0  0  0  0  0  0  0  0  0
    0.5570   66.2233   74.2834 H   0  0  0  0  0  0  0  0  0  0  0  0
   -1.2390   66.2553   74.2834 H   0  0  0  0  0  0  0  0  0  0  0  0
    2.5720   63.5469   74.0379 H   0  0  0  0  0  0  0  0  0  0  0  0
    1.0935   62.5797   73.8269 H   0  0  0  0  0  0  0  0  0  0  0  0
    4.4560   63.0673   71.7758 H   0  0  0  0  0  0  0  0  0  0  0  0
    0.5968   60.1919   73.6610 H   0  0  0  0  0  0  0  0  0  0  0  0
    2.4594   56.6654   72.0072 H   0  0  0  0  0  0  0  0  0  0  0  0
    4.3387   58.0443   71.0967 H   0  0  0  0  0  0  0  0  0  0  0  0
    6.4376   60.5207   71.4129 H   0  0  0  0  0  0  0  0  0  0  0  0
    5.4622   59.7820   70.0978 H   0  0  0  0  0  0  0  0  0  0  0  0
    5.7768   61.5505   70.0978 H   0  0  0  0  0  0  0  0  0  0  0  0
   -0.2273   57.1069   72.6337 H   0  0  0  0  0  0  0  0  0  0  0  0
   -0.0592   55.0630   75.9909 H   0  0  0  0  0  0  0  0  0  0  0  0
   -2.3506   54.4847   76.4584 H   0  0  0  0  0  0  0  0  0  0  0  0
   -2.8234   54.4835   74.7612 H   0  0  0  0  0  0  0  0  0  0  0  0
   -1.4636   52.3368   76.3878 H   0  0  0  0  0  0  0  0  0  0  0  0
   -2.4961   52.1433   74.9603 H   0  0  0  0  0  0  0  0  0  0  0  0
    0.4343   52.2470   75.1022 H   0  0  0  0  0  0  0  0  0  0  0  0
   -0.5592   51.9237   73.6735 H   0  0  0  0  0  0  0  0  0  0  0  0
    0.9516   54.2012   73.9048 H   0  0  0  0  0  0  0  0  0  0  0  0
   -0.5711   54.2365   73.0297 H   0  0  0  0  0  0  0  0  0  0  0  0
  2  1  2  0
  3  2  1  0
  4  3  2  0
  5  4  1  0
  6  5  2  0
  6  1  1  0
  7  3  1  0
  8  7  2  0
  9  7  1  0
 10  9  1  0
 11 10  2  0
 12 10  2  0
 13 10  1  0
 14 13  2  0
 15 14  1  0
 16 15  2  0
 17 16  1  0
 18 17  2  0
 18 13  1  0
 19 18  1  0
 21  1  1  0
 21 20  1  0
 22  6  1  0
 23 22  1  0
 24 23  2  0
 25 24  1  0
 26 25  1  0
 27 26  2  0
 27 23  1  0
 28 27  1  0
 29 28  2  0
 30 29  1  0
 31 30  2  0
 31 26  1  0
 32 25  1  0
 33 29  1  0
 34 33  1  0
 35 34  2  0
 36 34  1  0
 37 36  1  0
 38 37  1  0
 39 38  1  0
 40 39  1  0
 41 40  1  0
 41 37  1  0
  2 42  1  0
  4 43  1  0
  5 44  1  0
  9 45  1  0
 14 46  1  0
 15 47  1  0
 16 48  1  0
 17 49  1  0
 19 50  1  0
 19 51  1  0
 19 52  1  0
 20 53  1  0
 20 54  1  0
 20 55  1  0
 22 56  1  0
 22 57  1  0
 24 58  1  0
 28 59  1  0
 30 60  1  0
 31 61  1  0
 32 62  1  0
 32 63  1  0
 32 64  1  0
 33 65  1  0
 37 66  1  0
 38 67  1  0
 38 68  1  0
 39 69  1  0
 39 70  1  0
 40 71  1  0
 40 72  1  0
 41 73  1  0
 41 74  1  0
M  END
>  <score>  (1) 
-11.302

$$$$
=
     RDKit          3D

 74 78  0  0  0  0  0  0  0  0999 V2000
    2.3700   64.1420   70.6360 C   0  0  0  0  0  0  0  0  0  0  0  0
    1.9190   65.1120   69.7330 C   0  0  0  0  0  0  0  0  0  0  0  0
    0.6980   65.7710   69.9380 C   0  0  0  0  0  0  0  0  0  0  0  0
   -0.0630   65.4780   71.0730 C   0  0  0  0  0  0  0  0  0  0  0  0
    0.3880   64.5200   71.9810 C   0  0  0  0  0  0  0  0  0  0  0  0
    1.5940   63.8250   71.7690 C   0  0  0  0  0  0  0  0  0  0  0  0
    0.2690   66.7680   68.9190 C   0  0  0  0  0  0  0  0  0  0  0  0
   -0.9050   66.8730   68.6040 O   0  0  0  0  0  0  0  0  0  0  0  0
    1.2930   67.5390   68.3590 N   0  0  0  0  0  0  0  0  0  0  0  0
    1.0740   68.7320   67.2190 S   0  0  0  0  0  6  0  0  0  0  0  0
    0.5020   69.8430   67.9550 O   0  0  0  0  0  0  0  0  0  0  0  0
    0.3710   68.1750   66.0870 O   0  0  0  0  0  0  0  0  0  0  0  0
    2.7450   69.2000   66.7980 C   0  0  0  0  0  0  0  0  0  0  0  0
    3.1630   68.8840   65.4920 C   0  0  0  0  0  0  0  0  0  0  0  0
    4.4510   69.1980   65.0660 C   0  0  0  0  0  0  0  0  0  0  0  0
    5.3320   69.8230   65.9400 C   0  0  0  0  0  0  0  0  0  0  0  0
    4.9280   70.1260   67.2420 C   0  0  0  0  0  0  0  0  0  0  0  0
    3.6320   69.8200   67.6970 C   0  0  0  0  0  0  0  0  0  0  0  0
    3.2850   70.1650   69.1180 C   0  0  0  0  0  0  0  0  0  0  0  0
    3.7910   62.7650   69.3020 C   0  0  0  0  0  0  0  0  0  0  0  0
    3.5620   63.4790   70.5120 O   0  0  0  0  0  0  0  0  0  0  0  0
    2.0500   62.7820   72.7710 C   0  0  0  0  0  0  0  0  0  0  0  0
    0.9470   62.6220   73.7730 C   0  0  0  0  0  0  0  0  0  0  0  0
    0.3910   63.6310   74.5410 C   0  0  0  0  0  0  0  0  0  0  0  0
   -0.5750   63.0880   75.3410 N   0  0  0  0  0  0  0  0  0  0  0  0
   -0.6610   61.7300   75.1320 C   0  0  0  0  0  0  0  0  0  0  0  0
    0.2880   61.4050   74.1600 C   0  0  0  0  0  0  0  0  0  0  0  0
    0.4200   60.0520   73.7660 C   0  0  0  0  0  0  0  0  0  0  0  0
   -0.3970   59.0680   74.3380 C   0  0  0  0  0  0  0  0  0  0  0  0
   -1.3400   59.4340   75.3030 C   0  0  0  0  0  0  0  0  0  0  0  0
   -1.4880   60.7620   75.7170 C   0  0  0  0  0  0  0  0  0  0  0  0
   -1.3810   63.8360   76.2790 C   0  0  0  0  0  0  0  0  0  0  0  0
   -0.3310   57.7060   73.9990 N   0  0  0  0  0  0  0  0  0  0  0  0
    0.2910   56.6880   74.6620 C   0  0  0  0  0  0  0  0  0  0  0  0
    0.9300   56.7370   75.7010 O   0  0  0  0  0  0  0  0  0  0  0  0
    0.0820   55.5440   73.9530 O   0  0  0  0  0  0  0  0  0  0  0  0
   -0.2010   54.3820   74.7330 C   0  0  0  0  0  0  0  0  0  0  0  0
   -1.6570   54.3250   75.1830 C   0  0  0  0  0  0  0  0  0  0  0  0
   -1.9270   52.8450   75.4260 C   0  0  0  0  0  0  0  0  0  0  0  0
   -0.8740   52.0820   74.6220 C   0  0  0  0  0  0  0  0  0  0  0  0
   -0.0920   53.1400   73.8570 C   0  0  0  0  0  0  0  0  0  0  0  0
    2.5294   65.3603   68.8523 H   0  0  0  0  0  0  0  0  0  0  0  0
   -1.0144   66.0011   71.2497 H   0  0  0  0  0  0  0  0  0  0  0  0
   -0.2094   64.3036   72.8790 H   0  0  0  0  0  0  0  0  0  0  0  0
    2.2555   67.3545   68.6761 H   0  0  0  0  0  0  0  0  0  0  0  0
    2.4667   68.3849   64.8021 H   0  0  0  0  0  0  0  0  0  0  0  0
    4.7696   68.9524   64.0422 H   0  0  0  0  0  0  0  0  0  0  0  0
    6.3483   70.0793   65.6061 H   0  0  0  0  0  0  0  0  0  0  0  0
    5.6377   70.6141   67.9262 H   0  0  0  0  0  0  0  0  0  0  0  0
    3.8957   69.5578   69.8023 H   0  0  0  0  0  0  0  0  0  0  0  0
    3.4859   71.2318   69.2959 H   0  0  0  0  0  0  0  0  0  0  0  0
    2.2194   69.9579   69.2959 H   0  0  0  0  0  0  0  0  0  0  0  0
    4.1192   61.7417   69.5366 H   0  0  0  0  0  0  0  0  0  0  0  0
    2.8601   62.7265   68.7172 H   0  0  0  0  0  0  0  0  0  0  0  0
    4.5706   63.2751   68.7172 H   0  0  0  0  0  0  0  0  0  0  0  0
    2.2382   61.8257   72.2610 H   0  0  0  0  0  0  0  0  0  0  0  0
    2.9836   63.0930   73.2626 H   0  0  0  0  0  0  0  0  0  0  0  0
    0.6787   64.6923   74.5121 H   0  0  0  0  0  0  0  0  0  0  0  0
    1.1665   59.7721   73.0082 H   0  0  0  0  0  0  0  0  0  0  0  0
   -1.9813   58.6587   75.7476 H   0  0  0  0  0  0  0  0  0  0  0  0
   -2.2315   61.0381   76.4792 H   0  0  0  0  0  0  0  0  0  0  0  0
   -1.0921   63.5679   77.3060 H   0  0  0  0  0  0  0  0  0  0  0  0
   -1.2212   64.9130   76.1225 H   0  0  0  0  0  0  0  0  0  0  0  0
   -2.4431   63.5964   76.1225 H   0  0  0  0  0  0  0  0  0  0  0  0
   -0.8186   57.4395   73.1318 H   0  0  0  0  0  0  0  0  0  0  0  0
    0.5007   54.4216   75.5792 H   0  0  0  0  0  0  0  0  0  0  0  0
   -1.8004   54.9028   76.1080 H   0  0  0  0  0  0  0  0  0  0  0  0
   -2.3410   54.7568   74.4376 H   0  0  0  0  0  0  0  0  0  0  0  0
   -1.8328   52.6109   76.4967 H   0  0  0  0  0  0  0  0  0  0  0  0
   -2.9457   52.5674   75.1177 H   0  0  0  0  0  0  0  0  0  0  0  0
   -0.2067   51.5246   75.2959 H   0  0  0  0  0  0  0  0  0  0  0  0
   -1.3345   51.3486   73.9437 H   0  0  0  0  0  0  0  0  0  0  0  0
    0.9587   52.8381   73.7352 H   0  0  0  0  0  0  0  0  0  0  0  0
   -0.4807   53.3024   72.8409 H   0  0  0  0  0  0  0  0  0  0  0  0
  2  1  2  0
  3  2  1  0
  4  3  2  0
  5  4  1  0
  6  5  2  0
  6  1  1  0
  7  3  1  0
  8  7  2  0
  9  7  1  0
 10  9  1  0
 11 10  2  0
 12 10  2  0
 13 10  1  0
 14 13  2  0
 15 14  1  0
 16 15  2  0
 17 16  1  0
 18 17  2  0
 18 13  1  0
 19 18  1  0
 21  1  1  0
 21 20  1  0
 22  6  1  0
 23 22  1  0
 24 23  2  0
 25 24  1  0
 26 25  1  0
 27 26  2  0
 27 23  1  0
 28 27  1  0
 29 28  2  0
 30 29  1  0
 31 30  2  0
 31 26  1  0
 32 25  1  0
 33 29  1  0
 34 33  1  0
 35 34  2  0
 36 34  1  0
 37 36  1  0
 38 37  1  0
 39 38  1  0
 40 39  1  0
 41 40  1  0
 41 37  1  0
  2 42  1  0
  4 43  1  0
  5 44  1  0
  9 45  1  0
 14 46  1  0
 15 47  1  0
 16 48  1  0
 17 49  1  0
 19 50  1  0
 19 51  1  0
 19 52  1  0
 20 53  1  0
 20 54  1  0
 20 55  1  0
 22 56  1  0
 22 57  1  0
 24 58  1  0
 28 59  1  0
 30 60  1  0
 31 61  1  0
 32 62  1  0
 32 63  1  0
 32 64  1  0
 33 65  1  0
 37 66  1  0
 38 67  1  0
 38 68  1  0
 39 69  1  0
 39 70  1  0
 40 71  1  0
 40 72  1  0
 41 73  1  0
 41 74  1  0
M  END
>  <score>  (2) 
-10.731

$$$$
=
     RDKit          3D

 74 78  0  0  0  0  0  0  0  0999 V2000
   -0.1250   60.1170   75.3860 C   0  0  0  0  0  0  0  0  0  0  0  0
   -1.4310   59.6200   75.4640 C   0  0  0  0  0  0  0  0  0  0  0  0
   -2.4400   60.1200   74.6280 C   0  0  0  0  0  0  0  0  0  0  0  0
   -2.1310   61.1040   73.6850 C   0  0  0  0  0  0  0  0  0  0  0  0
   -0.8280   61.5950   73.5970 C   0  0  0  0  0  0  0  0  0  0  0  0
    0.1860   61.1270   74.4540 C   0  0  0  0  0  0  0  0  0  0  0  0
   -3.8120   59.5650   74.7890 C   0  0  0  0  0  0  0  0  0  0  0  0
   -3.9820   58.4220   75.1790 O   0  0  0  0  0  0  0  0  0  0  0  0
   -4.8570   60.4320   74.4520 N   0  0  0  0  0  0  0  0  0  0  0  0
   -6.4760   60.0620   74.5640 S   0  0  0  0  0  6  0  0  0  0  0  0
   -6.7110   59.8640   75.9820 O   0  0  0  0  0  0  0  0  0  0  0  0
   -6.7820   59.0070   73.6270 O   0  0  0  0  0  0  0  0  0  0  0  0
   -7.2740   61.5960   74.1210 C   0  0  0  0  0  0  0  0  0  0  0  0
   -8.1350   61.5440   73.0090 C   0  0  0  0  0  0  0  0  0  0  0  0
   -8.7990   62.6890   72.5740 C   0  0  0  0  0  0  0  0  0  0  0  0
   -8.6040   63.8930   73.2400 C   0  0  0  0  0  0  0  0  0  0  0  0
   -7.7400   63.9540   74.3360 C   0  0  0  0  0  0  0  0  0  0  0  0
   -7.0570   62.8120   74.7950 C   0  0  0  0  0  0  0  0  0  0  0  0
   -6.1330   62.9690   75.9690 C   0  0  0  0  0  0  0  0  0  0  0  0
    1.1140   58.2500   76.2080 C   0  0  0  0  0  0  0  0  0  0  0  0
    0.9140   59.6580   76.1520 O   0  0  0  0  0  0  0  0  0  0  0  0
    1.5900   61.6900   74.3380 C   0  0  0  0  0  0  0  0  0  0  0  0
    2.1300   61.2590   73.0080 C   0  0  0  0  0  0  0  0  0  0  0  0
    2.6490   60.0120   72.7050 C   0  0  0  0  0  0  0  0  0  0  0  0
    3.0480   60.0110   71.3980 N   0  0  0  0  0  0  0  0  0  0  0  0
    2.8190   61.2440   70.8280 C   0  0  0  0  0  0  0  0  0  0  0  0
    2.2520   62.0520   71.8160 C   0  0  0  0  0  0  0  0  0  0  0  0
    1.9290   63.3920   71.4940 C   0  0  0  0  0  0  0  0  0  0  0  0
    2.1670   63.8840   70.2050 C   0  0  0  0  0  0  0  0  0  0  0  0
    2.7310   63.0430   69.2410 C   0  0  0  0  0  0  0  0  0  0  0  0
    3.0670   61.7170   69.5320 C   0  0  0  0  0  0  0  0  0  0  0  0
    3.6370   58.8800   70.7180 C   0  0  0  0  0  0  0  0  0  0  0  0
    1.8720   65.1990   69.8050 N   0  0  0  0  0  0  0  0  0  0  0  0
    0.8760   66.0230   70.2420 C   0  0  0  0  0  0  0  0  0  0  0  0
    0.0200   65.8000   71.0820 O   0  0  0  0  0  0  0  0  0  0  0  0
    0.9860   67.2000   69.5650 O   0  0  0  0  0  0  0  0  0  0  0  0
    0.4500   67.1990   68.2420 C   0  0  0  0  0  0  0  0  0  0  0  0
   -1.0270   66.8200   68.2150 C   0  0  0  0  0  0  0  0  0  0  0  0
   -1.5610   67.4410   66.9300 C   0  0  0  0  0  0  0  0  0  0  0  0
   -0.5880   68.5620   66.5630 C   0  0  0  0  0  0  0  0  0  0  0  0
    0.4210   68.6230   67.7010 C   0  0  0  0  0  0  0  0  0  0  0  0
   -1.6689   58.8280   76.1894 H   0  0  0  0  0  0  0  0  0  0  0  0
   -2.9126   61.4902   73.0142 H   0  0  0  0  0  0  0  0  0  0  0  0
   -0.5889   62.3612   72.8448 H   0  0  0  0  0  0  0  0  0  0  0  0
   -4.6056   61.3700   74.1087 H   0  0  0  0  0  0  0  0  0  0  0  0
   -8.2849   60.5918   72.4791 H   0  0  0  0  0  0  0  0  0  0  0  0
   -9.4746   62.6402   71.7073 H   0  0  0  0  0  0  0  0  0  0  0  0
   -9.1303   64.7986   72.9039 H   0  0  0  0  0  0  0  0  0  0  0  0
   -7.5903   64.9144   74.8510 H   0  0  0  0  0  0  0  0  0  0  0  0
   -6.7065   62.8716   76.9026 H   0  0  0  0  0  0  0  0  0  0  0  0
   -5.3575   62.1898   75.9320 H   0  0  0  0  0  0  0  0  0  0  0  0
   -5.6584   63.9607   75.9320 H   0  0  0  0  0  0  0  0  0  0  0  0
    1.1598   57.9277   77.2587 H   0  0  0  0  0  0  0  0  0  0  0  0
    0.2792   57.7407   75.7043 H   0  0  0  0  0  0  0  0  0  0  0  0
    2.0576   57.9934   75.7043 H   0  0  0  0  0  0  0  0  0  0  0  0
    1.5620   62.7881   74.3958 H   0  0  0  0  0  0  0  0  0  0  0  0
    2.2273   61.3235   75.1563 H   0  0  0  0  0  0  0  0  0  0  0  0
    2.7272   59.1633   73.4004 H   0  0  0  0  0  0  0  0  0  0  0  0
    1.4895   64.0490   72.2590 H   0  0  0  0  0  0  0  0  0  0  0  0
    2.9149   63.4337   68.2293 H   0  0  0  0  0  0  0  0  0  0  0  0
    3.5126   61.0646   68.7666 H   0  0  0  0  0  0  0  0  0  0  0  0
    4.0118   58.1602   71.4606 H   0  0  0  0  0  0  0  0  0  0  0  0
    2.8771   58.3946   70.0879 H   0  0  0  0  0  0  0  0  0  0  0  0
    4.4703   59.2243   70.0879 H   0  0  0  0  0  0  0  0  0  0  0  0
    2.4921   65.5943   69.0839 H   0  0  0  0  0  0  0  0  0  0  0  0
    1.0769   66.4955   67.6745 H   0  0  0  0  0  0  0  0  0  0  0  0
   -1.1469   65.7267   68.1967 H   0  0  0  0  0  0  0  0  0  0  0  0
   -1.5652   67.1772   69.1054 H   0  0  0  0  0  0  0  0  0  0  0  0
   -1.5960   66.6885   66.1284 H   0  0  0  0  0  0  0  0  0  0  0  0
   -2.5831   67.8247   67.0643 H   0  0  0  0  0  0  0  0  0  0  0  0
   -0.0815   68.3342   65.6135 H   0  0  0  0  0  0  0  0  0  0  0  0
   -1.1077   69.5224   66.4302 H   0  0  0  0  0  0  0  0  0  0  0  0
    1.4126   68.9207   67.3293 H   0  0  0  0  0  0  0  0  0  0  0  0
    0.1503   69.3629   68.4686 H   0  0  0  0  0  0  0  0  0  0  0  0
  2  1  2  0
  3  2  1  0
  4  3  2  0
  5  4  1  0
  6  5  2  0
  6  1  1  0
  7  3  1  0
  8  7  2  0
  9  7  1  0
 10  9  1  0
 11 10  2  0
 12 10  2  0
 13 10  1  0
 14 13  2  0
 15 14  1  0
 16 15  2  0
 17 16  1  0
 18 17  2  0
 18 13  1  0
 19 18  1  0
 21  1  1  0
 21 20  1  0
 22  6  1  0
 23 22  1  0
 24 23  2  0
 25 24  1  0
 26 25  1  0
 27 26  2  0
 27 23  1  0
 28 27  1  0
 29 28  2  0
 30 29  1  0
 31 30  2  0
 31 26  1  0
 32 25  1  0
 33 29  1  0
 34 33  1  0
 35 34  2  0
 36 34  1  0
 37 36  1  0
 38 37  1  0
 39 38  1  0
 40 39  1  0
 41 40  1  0
 41 37  1  0
  2 42  1  0
  4 43  1  0
  5 44  1  0
  9 45  1  0
 14 46  1  0
 15 47  1  0
 16 48  1  0
 17 49  1  0
 19 50  1  0
 19 51  1  0
 19 52  1  0
 20 53  1  0
 20 54  1  0
 20 55  1  0
 22 56  1  0
 22 57  1  0
 24 58  1  0
 28 59  1  0
 30 60  1  0
 31 61  1  0
 32 62  1  0
 32 63  1  0
 32 64  1  0
 33 65  1  0
 37 66  1  0
 38 67  1  0
 38 68  1  0
 39 69  1  0
 39 70  1  0
 40 71  1  0
 40 72  1  0
 41 73  1  0
 41 74  1  0
M  END
>  <score>  (3) 
-10.679

$$$$
=
     RDKit          3D

 74 78  0  0  0  0  0  0  0  0999 V2000
    0.9480   67.6290   68.8240 C   0  0  0  0  0  0  0  0  0  0  0  0
    0.6770   68.1130   67.5390 C   0  0  0  0  0  0  0  0  0  0  0  0
   -0.4630   67.6920   66.8390 C   0  0  0  0  0  0  0  0  0  0  0  0
   -1.3550   66.8020   67.4430 C   0  0  0  0  0  0  0  0  0  0  0  0
   -1.0940   66.3250   68.7280 C   0  0  0  0  0  0  0  0  0  0  0  0
    0.0650   66.7120   69.4280 C   0  0  0  0  0  0  0  0  0  0  0  0
   -0.6680   68.2260   65.4640 C   0  0  0  0  0  0  0  0  0  0  0  0
   -1.7590   68.6460   65.1140 O   0  0  0  0  0  0  0  0  0  0  0  0
    0.4540   68.1920   64.6290 N   0  0  0  0  0  0  0  0  0  0  0  0
    0.4920   68.7460   63.0600 S   0  0  0  0  0  6  0  0  0  0  0  0
   -0.0050   70.1070   63.1390 O   0  0  0  0  0  0  0  0  0  0  0  0
   -0.1670   67.7850   62.2070 O   0  0  0  0  0  0  0  0  0  0  0  0
    2.2390   68.8560   62.7120 C   0  0  0  0  0  0  0  0  0  0  0  0
    2.6050   68.7500   61.3570 C   0  0  0  0  0  0  0  0  0  0  0  0
    3.9440   68.8130   60.9790 C   0  0  0  0  0  0  0  0  0  0  0  0
    4.9260   68.9760   61.9480 C   0  0  0  0  0  0  0  0  0  0  0  0
    4.5710   69.0670   63.2960 C   0  0  0  0  0  0  0  0  0  0  0  0
    3.2250   69.0070   63.7040 C   0  0  0  0  0  0  0  0  0  0  0  0
    2.9300   69.0960   65.1750 C   0  0  0  0  0  0  0  0  0  0  0  0
    2.6800   69.2260   69.2060 C   0  0  0  0  0  0  0  0  0  0  0  0
    2.0270   68.0160   69.5740 O   0  0  0  0  0  0  0  0  0  0  0  0
    0.3220   66.1660   70.8190 C   0  0  0  0  0  0  0  0  0  0  0  0
    1.1260   64.9110   70.6590 C   0  0  0  0  0  0  0  0  0  0  0  0
    2.2040   64.7380   69.8080 C   0  0  0  0  0  0  0  0  0  0  0  0
    2.6610   63.4560   69.9390 N   0  0  0  0  0  0  0  0  0  0  0  0
    1.8950   62.7660   70.8520 C   0  0  0  0  0  0  0  0  0  0  0  0
    0.9170   63.6500   71.3150 C   0  0  0  0  0  0  0  0  0  0  0  0
   -0.0240   63.1840   72.2640 C   0  0  0  0  0  0  0  0  0  0  0  0
    0.0390   61.8650   72.7300 C   0  0  0  0  0  0  0  0  0  0  0  0
    1.0360   61.0120   72.2470 C   0  0  0  0  0  0  0  0  0  0  0  0
    1.9760   61.4430   71.3040 C   0  0  0  0  0  0  0  0  0  0  0  0
    3.7820   62.9040   69.2120 C   0  0  0  0  0  0  0  0  0  0  0  0
   -0.8540   61.3270   73.6730 N   0  0  0  0  0  0  0  0  0  0  0  0
   -1.4390   61.9380   74.7430 C   0  0  0  0  0  0  0  0  0  0  0  0
   -1.3160   63.0930   75.1200 O   0  0  0  0  0  0  0  0  0  0  0  0
   -2.2260   61.0170   75.3660 O   0  0  0  0  0  0  0  0  0  0  0  0
   -3.3670   60.5840   74.6260 C   0  0  0  0  0  0  0  0  0  0  0  0
   -3.8400   59.1970   75.0470 C   0  0  0  0  0  0  0  0  0  0  0  0
   -5.3130   59.1580   74.6580 C   0  0  0  0  0  0  0  0  0  0  0  0
   -5.7650   60.6150   74.5530 C   0  0  0  0  0  0  0  0  0  0  0  0
   -4.5680   61.4510   74.9850 C   0  0  0  0  0  0  0  0  0  0  0  0
    1.3664   68.8322   67.0726 H   0  0  0  0  0  0  0  0  0  0  0  0
   -2.2597   66.4786   66.9074 H   0  0  0  0  0  0  0  0  0  0  0  0
   -1.8064   65.6343   69.2028 H   0  0  0  0  0  0  0  0  0  0  0  0
    1.3223   67.7940   65.0144 H   0  0  0  0  0  0  0  0  0  0  0  0
    1.8274   68.6164   60.5906 H   0  0  0  0  0  0  0  0  0  0  0  0
    4.2227   68.7340   59.9178 H   0  0  0  0  0  0  0  0  0  0  0  0
    5.9843   69.0335   61.6535 H   0  0  0  0  0  0  0  0  0  0  0  0
    5.3590   69.1880   64.0539 H   0  0  0  0  0  0  0  0  0  0  0  0
    3.8298   68.8245   65.7465 H   0  0  0  0  0  0  0  0  0  0  0  0
    2.6315   70.1242   65.4276 H   0  0  0  0  0  0  0  0  0  0  0  0
    2.1127   68.4044   65.4276 H   0  0  0  0  0  0  0  0  0  0  0  0
    2.9756   69.7737   70.1130 H   0  0  0  0  0  0  0  0  0  0  0  0
    3.5749   68.9932   68.6103 H   0  0  0  0  0  0  0  0  0  0  0  0
    1.9942   69.8463   68.6103 H   0  0  0  0  0  0  0  0  0  0  0  0
    0.8838   66.9005   71.4147 H   0  0  0  0  0  0  0  0  0  0  0  0
   -0.6249   65.9603   71.3397 H   0  0  0  0  0  0  0  0  0  0  0  0
    2.6228   65.5037   69.1385 H   0  0  0  0  0  0  0  0  0  0  0  0
   -0.8074   63.8602   72.6367 H   0  0  0  0  0  0  0  0  0  0  0  0
    1.0827   59.9772   72.6171 H   0  0  0  0  0  0  0  0  0  0  0  0
    2.7551   60.7630   70.9291 H   0  0  0  0  0  0  0  0  0  0  0  0
    4.5342   62.5336   69.9240 H   0  0  0  0  0  0  0  0  0  0  0  0
    3.4356   62.0734   68.5794 H   0  0  0  0  0  0  0  0  0  0  0  0
    4.2291   63.6849   68.5794 H   0  0  0  0  0  0  0  0  0  0  0  0
   -1.1002   60.3361   73.5374 H   0  0  0  0  0  0  0  0  0  0  0  0
   -3.0608   60.6224   73.5702 H   0  0  0  0  0  0  0  0  0  0  0  0
   -3.2770   58.4165   74.5142 H   0  0  0  0  0  0  0  0  0  0  0  0
   -3.6873   59.0125   76.1206 H   0  0  0  0  0  0  0  0  0  0  0  0
   -5.4387   58.6491   73.6909 H   0  0  0  0  0  0  0  0  0  0  0  0
   -5.9090   58.6058   75.3995 H   0  0  0  0  0  0  0  0  0  0  0  0
   -6.0466   60.8553   73.5172 H   0  0  0  0  0  0  0  0  0  0  0  0
   -6.6458   60.8127   75.1816 H   0  0  0  0  0  0  0  0  0  0  0  0
   -4.5393   62.4052   74.4384 H   0  0  0  0  0  0  0  0  0  0  0  0
   -4.5974   61.7142   76.0527 H   0  0  0  0  0  0  0  0  0  0  0  0
  2  1  2  0
  3  2  1  0
  4  3  2  0
  5  4  1  0
  6  5  2  0
  6  1  1  0
  7  3  1  0
  8  7  2  0
  9  7  1  0
 10  9  1  0
 11 10  2  0
 12 10  2  0
 13 10  1  0
 14 13  2  0
 15 14  1  0
 16 15  2  0
 17 16  1  0
 18 17  2  0
 18 13  1  0
 19 18  1  0
 21  1  1  0
 21 20  1  0
 22  6  1  0
 23 22  1  0
 24 23  2  0
 25 24  1  0
 26 25  1  0
 27 26  2  0
 27 23  1  0
 28 27  1  0
 29 28  2  0
 30 29  1  0
 31 30  2  0
 31 26  1  0
 32 25  1  0
 33 29  1  0
 34 33  1  0
 35 34  2  0
 36 34  1  0
 37 36  1  0
 38 37  1  0
 39 38  1  0
 40 39  1  0
 41 40  1  0
 41 37  1  0
  2 42  1  0
  4 43  1  0
  5 44  1  0
  9 45  1  0
 14 46  1  0
 15 47  1  0
 16 48  1  0
 17 49  1  0
 19 50  1  0
 19 51  1  0
 19 52  1  0
 20 53  1  0
 20 54  1  0
 20 55  1  0
 22 56  1  0
 22 57  1  0
 24 58  1  0
 28 59  1  0
 30 60  1  0
 31 61  1  0
 32 62  1  0
 32 63  1  0
 32 64  1  0
 33 65  1  0
 37 66  1  0
 38 67  1  0
 38 68  1  0
 39 69  1  0
 39 70  1  0
 40 71  1  0
 40 72  1  0
 41 73  1  0
 41 74  1  0
M  END
>  <score>  (4) 
-10.653

$$$$
=
     RDKit          3D

 74 78  0  0  0  0  0  0  0  0999 V2000
    0.4900   64.2090   72.1430 C   0  0  0  0  0  0  0  0  0  0  0  0
    0.0090   65.1080   71.1840 C   0  0  0  0  0  0  0  0  0  0  0  0
    0.7960   65.4690   70.0800 C   0  0  0  0  0  0  0  0  0  0  0  0
    2.0630   64.9020   69.9200 C   0  0  0  0  0  0  0  0  0  0  0  0
    2.5420   63.9970   70.8690 C   0  0  0  0  0  0  0  0  0  0  0  0
    1.7770   63.6530   71.9990 C   0  0  0  0  0  0  0  0  0  0  0  0
    0.2300   66.4550   69.1180 C   0  0  0  0  0  0  0  0  0  0  0  0
   -0.9690   66.6750   69.0830 O   0  0  0  0  0  0  0  0  0  0  0  0
    1.1580   67.0760   68.2750 N   0  0  0  0  0  0  0  0  0  0  0  0
    0.7850   68.2260   67.1300 S   0  0  0  0  0  6  0  0  0  0  0  0
    0.2080   69.3210   67.8860 O   0  0  0  0  0  0  0  0  0  0  0  0
    0.0310   67.6030   66.0680 O   0  0  0  0  0  0  0  0  0  0  0  0
    2.3890   68.7760   66.5720 C   0  0  0  0  0  0  0  0  0  0  0  0
    2.7380   68.4200   65.2560 C   0  0  0  0  0  0  0  0  0  0  0  0
    3.9720   68.7920   64.7260 C   0  0  0  0  0  0  0  0  0  0  0  0
    4.8660   69.5140   65.5060 C   0  0  0  0  0  0  0  0  0  0  0  0
    4.5310   69.8580   66.8170 C   0  0  0  0  0  0  0  0  0  0  0  0
    3.2910   69.4940   67.3760 C   0  0  0  0  0  0  0  0  0  0  0  0
    3.0180   69.8890   68.8000 C   0  0  0  0  0  0  0  0  0  0  0  0
   -0.0380   64.4950   74.4530 C   0  0  0  0  0  0  0  0  0  0  0  0
   -0.2320   63.7930   73.2300 O   0  0  0  0  0  0  0  0  0  0  0  0
    2.3320   62.6740   73.0160 C   0  0  0  0  0  0  0  0  0  0  0  0
    2.5750   61.3820   72.2970 C   0  0  0  0  0  0  0  0  0  0  0  0
    3.2110   61.2370   71.0760 C   0  0  0  0  0  0  0  0  0  0  0  0
    3.2270   59.9100   70.7480 N   0  0  0  0  0  0  0  0  0  0  0  0
    2.5960   59.1690   71.7230 C   0  0  0  0  0  0  0  0  0  0  0  0
    2.1680   60.0660   72.7040 C   0  0  0  0  0  0  0  0  0  0  0  0
    1.4690   59.5600   73.8260 C   0  0  0  0  0  0  0  0  0  0  0  0
    1.2250   58.1860   73.9450 C   0  0  0  0  0  0  0  0  0  0  0  0
    1.6750   57.3190   72.9450 C   0  0  0  0  0  0  0  0  0  0  0  0
    2.3630   57.7900   71.8210 C   0  0  0  0  0  0  0  0  0  0  0  0
    3.8120   59.3670   69.5430 C   0  0  0  0  0  0  0  0  0  0  0  0
    0.5420   57.6050   75.0280 N   0  0  0  0  0  0  0  0  0  0  0  0
    1.0540   56.9390   76.1040 C   0  0  0  0  0  0  0  0  0  0  0  0
    2.2220   56.7010   76.3650 O   0  0  0  0  0  0  0  0  0  0  0  0
    0.0080   56.5580   76.8890 O   0  0  0  0  0  0  0  0  0  0  0  0
   -1.0300   57.5260   77.0410 C   0  0  0  0  0  0  0  0  0  0  0  0
   -2.4200   56.9090   76.9290 C   0  0  0  0  0  0  0  0  0  0  0  0
   -3.3280   57.8670   77.6920 C   0  0  0  0  0  0  0  0  0  0  0  0
   -2.4210   58.6510   78.6400 C   0  0  0  0  0  0  0  0  0  0  0  0
   -1.0320   58.0530   78.4720 C   0  0  0  0  0  0  0  0  0  0  0  0
   -0.9978   65.5365   71.2972 H   0  0  0  0  0  0  0  0  0  0  0  0
    2.6808   65.1677   69.0495 H   0  0  0  0  0  0  0  0  0  0  0  0
    3.5352   63.5447   70.7310 H   0  0  0  0  0  0  0  0  0  0  0  0
    2.1461   66.8012   68.3698 H   0  0  0  0  0  0  0  0  0  0  0  0
    2.0313   67.8436   64.6409 H   0  0  0  0  0  0  0  0  0  0  0  0
    4.2367   68.5151   63.6948 H   0  0  0  0  0  0  0  0  0  0  0  0
    5.8390   69.8151   65.0905 H   0  0  0  0  0  0  0  0  0  0  0  0
    5.2506   70.4251   67.4257 H   0  0  0  0  0  0  0  0  0  0  0  0
    3.5101   69.1769   69.4788 H   0  0  0  0  0  0  0  0  0  0  0  0
    3.4109   70.9002   68.9818 H   0  0  0  0  0  0  0  0  0  0  0  0
    1.9332   69.8789   68.9818 H   0  0  0  0  0  0  0  0  0  0  0  0
   -0.2254   63.8170   75.2987 H   0  0  0  0  0  0  0  0  0  0  0  0
    0.9963   64.8660   74.5027 H   0  0  0  0  0  0  0  0  0  0  0  0
   -0.7350   65.3445   74.5027 H   0  0  0  0  0  0  0  0  0  0  0  0
    3.2752   63.0571   73.4327 H   0  0  0  0  0  0  0  0  0  0  0  0
    1.6268   62.5322   73.8482 H   0  0  0  0  0  0  0  0  0  0  0  0
    3.6329   62.0530   70.4709 H   0  0  0  0  0  0  0  0  0  0  0  0
    1.1160   60.2487   74.6077 H   0  0  0  0  0  0  0  0  0  0  0  0
    1.4837   56.2403   73.0440 H   0  0  0  0  0  0  0  0  0  0  0  0
    2.7103   57.0994   71.0384 H   0  0  0  0  0  0  0  0  0  0  0  0
    4.5941   58.6410   69.8100 H   0  0  0  0  0  0  0  0  0  0  0  0
    3.0325   58.8651   68.9510 H   0  0  0  0  0  0  0  0  0  0  0  0
    4.2546   60.1816   68.9510 H   0  0  0  0  0  0  0  0  0  0  0  0
   -0.4839   57.6940   75.0066 H   0  0  0  0  0  0  0  0  0  0  0  0
   -0.8398   58.2811   76.2641 H   0  0  0  0  0  0  0  0  0  0  0  0
   -2.7291   56.8366   75.8758 H   0  0  0  0  0  0  0  0  0  0  0  0
   -2.4569   55.8870   77.3342 H   0  0  0  0  0  0  0  0  0  0  0  0
   -3.8325   58.5514   76.9941 H   0  0  0  0  0  0  0  0  0  0  0  0
   -4.1101   57.3243   78.2432 H   0  0  0  0  0  0  0  0  0  0  0  0
   -2.4145   59.7173   78.3698 H   0  0  0  0  0  0  0  0  0  0  0  0
   -2.7682   58.5834   79.6816 H   0  0  0  0  0  0  0  0  0  0  0  0
   -0.2563   58.8211   78.6072 H   0  0  0  0  0  0  0  0  0  0  0  0
   -0.8151   57.2694   79.2129 H   0  0  0  0  0  0  0  0  0  0  0  0
  2  1  2  0
  3  2  1  0
  4  3  2  0
  5  4  1  0
  6  5  2  0
  6  1  1  0
  7  3  1  0
  8  7  2  0
  9  7  1  0
 10  9  1  0
 11 10  2  0
 12 10  2  0
 13 10  1  0
 14 13  2  0
 15 14  1  0
 16 15  2  0
 17 16  1  0
 18 17  2  0
 18 13  1  0
 19 18  1  0
 21  1  1  0
 21 20  1  0
 22  6  1  0
 23 22  1  0
 24 23  2  0
 25 24  1  0
 26 25  1  0
 27 26  2  0
 27 23  1  0
 28 27  1  0
 29 28  2  0
 30 29  1  0
 31 30  2  0
 31 26  1  0
 32 25  1  0
 33 29  1  0
 34 33  1  0
 35 34  2  0
 36 34  1  0
 37 36  1  0
 38 37  1  0
 39 38  1  0
 40 39  1  0
 41 40  1  0
 41 37  1  0
  2 42  1  0
  4 43  1  0
  5 44  1  0
  9 45  1  0
 14 46  1  0
 15 47  1  0
 16 48  1  0
 17 49  1  0
 19 50  1  0
 19 51  1  0
 19 52  1  0
 20 53  1  0
 20 54  1  0
 20 55  1  0
 22 56  1  0
 22 57  1  0
 24 58  1  0
 28 59  1  0
 30 60  1  0
 31 61  1  0
 32 62  1  0
 32 63  1  0
 32 64  1  0
 33 65  1  0
 37 66  1  0
 38 67  1  0
 38 68  1  0
 39 69  1  0
 39 70  1  0
 40 71  1  0
 40 72  1  0
 41 73  1  0
 41 74  1  0
M  END
>  <score>  (5) 
-10.554

$$$$
=
     RDKit          3D

 74 78  0  0  0  0  0  0  0  0999 V2000
    0.3550   61.2720   75.0530 C   0  0  0  0  0  0  0  0  0  0  0  0
   -0.8450   60.5940   75.2970 C   0  0  0  0  0  0  0  0  0  0  0  0
   -1.8880   60.6200   74.3600 C   0  0  0  0  0  0  0  0  0  0  0  0
   -1.7180   61.3070   73.1560 C   0  0  0  0  0  0  0  0  0  0  0  0
   -0.5190   61.9760   72.9030 C   0  0  0  0  0  0  0  0  0  0  0  0
    0.5230   61.9870   73.8500 C   0  0  0  0  0  0  0  0  0  0  0  0
   -3.1460   59.9010   74.7030 C   0  0  0  0  0  0  0  0  0  0  0  0
   -3.1150   58.7710   75.1630 O   0  0  0  0  0  0  0  0  0  0  0  0
   -4.3300   60.6010   74.4490 N   0  0  0  0  0  0  0  0  0  0  0  0
   -5.8620   60.0290   74.7620 S   0  0  0  0  0  6  0  0  0  0  0  0
   -5.9320   59.9400   76.2080 O   0  0  0  0  0  0  0  0  0  0  0  0
   -6.1000   58.8580   73.9520 O   0  0  0  0  0  0  0  0  0  0  0  0
   -6.9090   61.3920   74.2800 C   0  0  0  0  0  0  0  0  0  0  0  0
   -7.7760   61.1520   73.1980 C   0  0  0  0  0  0  0  0  0  0  0  0
   -8.6280   62.1530   72.7370 C   0  0  0  0  0  0  0  0  0  0  0  0
   -8.6170   63.4010   73.3470 C   0  0  0  0  0  0  0  0  0  0  0  0
   -7.7490   63.6510   74.4130 C   0  0  0  0  0  0  0  0  0  0  0  0
   -6.8790   62.6560   74.8980 C   0  0  0  0  0  0  0  0  0  0  0  0
   -5.9660   63.0140   76.0360 C   0  0  0  0  0  0  0  0  0  0  0  0
    1.9170   60.0020   76.3340 C   0  0  0  0  0  0  0  0  0  0  0  0
    1.4230   61.2680   75.9100 O   0  0  0  0  0  0  0  0  0  0  0  0
    1.8080   62.7330   73.5480 C   0  0  0  0  0  0  0  0  0  0  0  0
    2.3460   62.1820   72.2620 C   0  0  0  0  0  0  0  0  0  0  0  0
    2.6630   62.9170   71.1320 C   0  0  0  0  0  0  0  0  0  0  0  0
    3.1100   62.0590   70.1660 N   0  0  0  0  0  0  0  0  0  0  0  0
    3.0800   60.7610   70.6280 C   0  0  0  0  0  0  0  0  0  0  0  0
    2.5960   60.8060   71.9370 C   0  0  0  0  0  0  0  0  0  0  0  0
    2.4510   59.5900   72.6480 C   0  0  0  0  0  0  0  0  0  0  0  0
    2.7970   58.3750   72.0440 C   0  0  0  0  0  0  0  0  0  0  0  0
    3.2830   58.3720   70.7340 C   0  0  0  0  0  0  0  0  0  0  0  0
    3.4320   59.5570   70.0040 C   0  0  0  0  0  0  0  0  0  0  0  0
    3.5400   62.4590   68.8450 C   0  0  0  0  0  0  0  0  0  0  0  0
    2.6850   57.1270   72.6820 N   0  0  0  0  0  0  0  0  0  0  0  0
    1.6050   56.5820   73.3130 C   0  0  0  0  0  0  0  0  0  0  0  0
    0.4920   57.0590   73.4620 O   0  0  0  0  0  0  0  0  0  0  0  0
    1.9730   55.3550   73.7770 O   0  0  0  0  0  0  0  0  0  0  0  0
    0.9930   54.6770   74.5630 C   0  0  0  0  0  0  0  0  0  0  0  0
    0.5020   53.3960   73.8980 C   0  0  0  0  0  0  0  0  0  0  0  0
   -0.0070   52.5360   75.0490 C   0  0  0  0  0  0  0  0  0  0  0  0
    0.6770   53.0640   76.3100 C   0  0  0  0  0  0  0  0  0  0  0  0
    1.6380   54.1450   75.8370 C   0  0  0  0  0  0  0  0  0  0  0  0
   -0.9714   60.0339   76.2353 H   0  0  0  0  0  0  0  0  0  0  0  0
   -2.5259   61.3210   72.4097 H   0  0  0  0  0  0  0  0  0  0  0  0
   -0.3860   62.5038   71.9471 H   0  0  0  0  0  0  0  0  0  0  0  0
   -4.2480   61.5415   74.0372 H   0  0  0  0  0  0  0  0  0  0  0  0
   -7.7810   60.1652   72.7119 H   0  0  0  0  0  0  0  0  0  0  0  0
   -9.3064   61.9561   71.8938 H   0  0  0  0  0  0  0  0  0  0  0  0
   -9.2921   64.1930   72.9906 H   0  0  0  0  0  0  0  0  0  0  0  0
   -7.7453   64.6456   74.8829 H   0  0  0  0  0  0  0  0  0  0  0  0
   -6.4746   62.8146   76.9908 H   0  0  0  0  0  0  0  0  0  0  0  0
   -5.0496   62.4086   75.9753 H   0  0  0  0  0  0  0  0  0  0  0  0
   -5.7053   64.0809   75.9753 H   0  0  0  0  0  0  0  0  0  0  0  0
    1.9320   59.9637   77.4332 H   0  0  0  0  0  0  0  0  0  0  0  0
    1.2637   59.2056   75.9482 H   0  0  0  0  0  0  0  0  0  0  0  0
    2.9371   59.8585   75.9482 H   0  0  0  0  0  0  0  0  0  0  0  0
    1.6037   63.8086   73.4414 H   0  0  0  0  0  0  0  0  0  0  0  0
    2.5355   62.6055   74.3632 H   0  0  0  0  0  0  0  0  0  0  0  0
    2.5706   64.0083   71.0289 H   0  0  0  0  0  0  0  0  0  0  0  0
    2.0653   59.5999   73.6781 H   0  0  0  0  0  0  0  0  0  0  0  0
    3.5552   57.4150   70.2649 H   0  0  0  0  0  0  0  0  0  0  0  0
    3.8136   59.5434   68.9724 H   0  0  0  0  0  0  0  0  0  0  0  0
    4.3429   63.2059   68.9313 H   0  0  0  0  0  0  0  0  0  0  0  0
    3.9139   61.5801   68.2993 H   0  0  0  0  0  0  0  0  0  0  0  0
    2.6904   62.8953   68.2993 H   0  0  0  0  0  0  0  0  0  0  0  0
    3.5344   56.5446   72.6716 H   0  0  0  0  0  0  0  0  0  0  0  0
    0.1863   55.4087   74.7174 H   0  0  0  0  0  0  0  0  0  0  0  0
   -0.3091   53.6135   73.1876 H   0  0  0  0  0  0  0  0  0  0  0  0
    1.2938   52.8953   73.3216 H   0  0  0  0  0  0  0  0  0  0  0  0
   -1.0993   52.6286   75.1403 H   0  0  0  0  0  0  0  0  0  0  0  0
    0.2195   51.4721   74.8854 H   0  0  0  0  0  0  0  0  0  0  0  0
   -0.0669   53.4879   77.0006 H   0  0  0  0  0  0  0  0  0  0  0  0
    1.2021   52.2635   76.8518 H   0  0  0  0  0  0  0  0  0  0  0  0
    1.7324   54.9414   76.5899 H   0  0  0  0  0  0  0  0  0  0  0  0
    2.6562   53.7638   75.6697 H   0  0  0  0  0  0  0  0  0  0  0  0
  2  1  2  0
  3  2  1  0
  4  3  2  0
  5  4  1  0
  6  5  2  0
  6  1  1  0
  7  3  1  0
  8  7  2  0
  9  7  1  0
 10  9  1  0
 11 10  2  0
 12 10  2  0
 13 10  1  0
 14 13  2  0
 15 14  1  0
 16 15  2  0
 17 16  1  0
 18 17  2  0
 18 13  1  0
 19 18  1  0
 21  1  1  0
 21 20  1  0
 22  6  1  0
 23 22  1  0
 24 23  2  0
 25 24  1  0
 26 25  1  0
 27 26  2  0
 27 23  1  0
 28 27  1  0
 29 28  2  0
 30 29  1  0
 31 30  2  0
 31 26  1  0
 32 25  1  0
 33 29  1  0
 34 33  1  0
 35 34  2  0
 36 34  1  0
 37 36  1  0
 38 37  1  0
 39 38  1  0
 40 39  1  0
 41 40  1  0
 41 37  1  0
  2 42  1  0
  4 43  1  0
  5 44  1  0
  9 45  1  0
 14 46  1  0
 15 47  1  0
 16 48  1  0
 17 49  1  0
 19 50  1  0
 19 51  1  0
 19 52  1  0
 20 53  1  0
 20 54  1  0
 20 55  1  0
 22 56  1  0
 22 57  1  0
 24 58  1  0
 28 59  1  0
 30 60  1  0
 31 61  1  0
 32 62  1  0
 32 63  1  0
 32 64  1  0
 33 65  1  0
 37 66  1  0
 38 67  1  0
 38 68  1  0
 39 69  1  0
 39 70  1  0
 40 71  1  0
 40 72  1  0
 41 73  1  0
 41 74  1  0
M  END
>  <score>  (6) 
-10.338

$$$$
=
     RDKit          3D

 74 78  0  0  0  0  0  0  0  0999 V2000
    0.7690   60.7870   74.8880 C   0  0  0  0  0  0  0  0  0  0  0  0
    0.0150   61.5830   75.7580 C   0  0  0  0  0  0  0  0  0  0  0  0
   -1.2520   62.0540   75.3840 C   0  0  0  0  0  0  0  0  0  0  0  0
   -1.7810   61.7010   74.1400 C   0  0  0  0  0  0  0  0  0  0  0  0
   -1.0370   60.8990   73.2730 C   0  0  0  0  0  0  0  0  0  0  0  0
    0.2510   60.4480   73.6220 C   0  0  0  0  0  0  0  0  0  0  0  0
   -1.9810   62.9210   76.3500 C   0  0  0  0  0  0  0  0  0  0  0  0
   -1.5300   63.1330   77.4630 O   0  0  0  0  0  0  0  0  0  0  0  0
   -3.1960   63.4430   75.8940 N   0  0  0  0  0  0  0  0  0  0  0  0
   -4.1890   64.4530   76.7700 S   0  0  0  0  0  6  0  0  0  0  0  0
   -3.4750   65.7150   76.8210 O   0  0  0  0  0  0  0  0  0  0  0  0
   -4.5720   63.7890   77.9930 O   0  0  0  0  0  0  0  0  0  0  0  0
   -5.5830   64.6950   75.6810 C   0  0  0  0  0  0  0  0  0  0  0  0
   -5.8090   66.0160   75.2530 C   0  0  0  0  0  0  0  0  0  0  0  0
   -6.8770   66.3140   74.4090 C   0  0  0  0  0  0  0  0  0  0  0  0
   -7.7280   65.2980   73.9930 C   0  0  0  0  0  0  0  0  0  0  0  0
   -7.5180   63.9870   74.4250 C   0  0  0  0  0  0  0  0  0  0  0  0
   -6.4460   63.6600   75.2780 C   0  0  0  0  0  0  0  0  0  0  0  0
   -6.3010   62.2280   75.7100 C   0  0  0  0  0  0  0  0  0  0  0  0
    2.0570   59.2770   76.2130 C   0  0  0  0  0  0  0  0  0  0  0  0
    2.0000   60.2710   75.1960 O   0  0  0  0  0  0  0  0  0  0  0  0
    1.0360   59.5870   72.6520 C   0  0  0  0  0  0  0  0  0  0  0  0
    2.1930   60.4080   72.1680 C   0  0  0  0  0  0  0  0  0  0  0  0
    3.5320   60.0880   72.3060 C   0  0  0  0  0  0  0  0  0  0  0  0
    4.2790   61.0890   71.7500 N   0  0  0  0  0  0  0  0  0  0  0  0
    3.4590   62.0810   71.2590 C   0  0  0  0  0  0  0  0  0  0  0  0
    2.1440   61.6870   71.5150 C   0  0  0  0  0  0  0  0  0  0  0  0
    1.0900   62.5450   71.1190 C   0  0  0  0  0  0  0  0  0  0  0  0
    1.3710   63.7570   70.4760 C   0  0  0  0  0  0  0  0  0  0  0  0
    2.7010   64.1130   70.2330 C   0  0  0  0  0  0  0  0  0  0  0  0
    3.7630   63.2890   70.6180 C   0  0  0  0  0  0  0  0  0  0  0  0
    5.7230   61.1060   71.6990 C   0  0  0  0  0  0  0  0  0  0  0  0
    0.3840   64.6610   70.0490 N   0  0  0  0  0  0  0  0  0  0  0  0
    0.4620   66.0180   69.9240 C   0  0  0  0  0  0  0  0  0  0  0  0
    1.4120   66.7480   70.1550 O   0  0  0  0  0  0  0  0  0  0  0  0
   -0.7450   66.4620   69.4770 O   0  0  0  0  0  0  0  0  0  0  0  0
   -0.7940   66.8200   68.0960 C   0  0  0  0  0  0  0  0  0  0  0  0
   -2.2000   67.2010   67.6440 C   0  0  0  0  0  0  0  0  0  0  0  0
   -1.9850   68.0980   66.4310 C   0  0  0  0  0  0  0  0  0  0  0  0
   -0.5590   68.6380   66.5480 C   0  0  0  0  0  0  0  0  0  0  0  0
   -0.0280   68.1190   67.8770 C   0  0  0  0  0  0  0  0  0  0  0  0
    0.4210   61.8423   76.7469 H   0  0  0  0  0  0  0  0  0  0  0  0
   -2.7802   62.0538   73.8449 H   0  0  0  0  0  0  0  0  0  0  0  0
   -1.4640   60.6142   72.3001 H   0  0  0  0  0  0  0  0  0  0  0  0
   -3.4995   63.1831   74.9447 H   0  0  0  0  0  0  0  0  0  0  0  0
   -5.1371   66.8202   75.5874 H   0  0  0  0  0  0  0  0  0  0  0  0
   -7.0452   67.3482   74.0740 H   0  0  0  0  0  0  0  0  0  0  0  0
   -8.5690   65.5267   73.3219 H   0  0  0  0  0  0  0  0  0  0  0  0
   -8.2035   63.1936   74.0925 H   0  0  0  0  0  0  0  0  0  0  0  0
   -6.2957   62.1752   76.8087 H   0  0  0  0  0  0  0  0  0  0  0  0
   -7.1442   61.6398   75.3187 H   0  0  0  0  0  0  0  0  0  0  0  0
   -5.3570   61.8208   75.3187 H   0  0  0  0  0  0  0  0  0  0  0  0
    2.0293   59.7608   77.2005 H   0  0  0  0  0  0  0  0  0  0  0  0
    1.1962   58.5996   76.1123 H   0  0  0  0  0  0  0  0  0  0  0  0
    2.9896   58.7024   76.1123 H   0  0  0  0  0  0  0  0  0  0  0  0
    1.4019   58.6832   73.1611 H   0  0  0  0  0  0  0  0  0  0  0  0
    0.4028   59.2697   71.8104 H   0  0  0  0  0  0  0  0  0  0  0  0
    3.9291   59.1800   72.7833 H   0  0  0  0  0  0  0  0  0  0  0  0
    0.0465   62.2587   71.3170 H   0  0  0  0  0  0  0  0  0  0  0  0
    2.9173   65.0651   69.7263 H   0  0  0  0  0  0  0  0  0  0  0  0
    4.8057   63.5805   70.4234 H   0  0  0  0  0  0  0  0  0  0  0  0
    6.1260   61.1107   72.7225 H   0  0  0  0  0  0  0  0  0  0  0  0
    6.0817   60.2120   71.1678 H   0  0  0  0  0  0  0  0  0  0  0  0
    6.0605   62.0082   71.1678 H   0  0  0  0  0  0  0  0  0  0  0  0
   -0.5224   64.2426   69.7956 H   0  0  0  0  0  0  0  0  0  0  0  0
   -0.3995   65.9471   67.5553 H   0  0  0  0  0  0  0  0  0  0  0  0
   -2.7749   66.3050   67.3671 H   0  0  0  0  0  0  0  0  0  0  0  0
   -2.7712   67.7039   68.4383 H   0  0  0  0  0  0  0  0  0  0  0  0
   -2.0984   67.5183   65.5030 H   0  0  0  0  0  0  0  0  0  0  0  0
   -2.7218   68.9142   66.4001 H   0  0  0  0  0  0  0  0  0  0  0  0
    0.0601   68.2684   65.7173 H   0  0  0  0  0  0  0  0  0  0  0  0
   -0.5368   69.7369   66.5039 H   0  0  0  0  0  0  0  0  0  0  0  0
    1.0541   67.9302   67.8191 H   0  0  0  0  0  0  0  0  0  0  0  0
   -0.1670   68.8370   68.6987 H   0  0  0  0  0  0  0  0  0  0  0  0
  2  1  2  0
  3  2  1  0
  4  3  2  0
  5  4  1  0
  6  5  2  0
  6  1  1  0
  7  3  1  0
  8  7  2  0
  9  7  1  0
 10  9  1  0
 11 10  2  0
 12 10  2  0
 13 10  1  0
 14 13  2  0
 15 14  1  0
 16 15  2  0
 17 16  1  0
 18 17  2  0
 18 13  1  0
 19 18  1  0
 21  1  1  0
 21 20  1  0
 22  6  1  0
 23 22  1  0
 24 23  2  0
 25 24  1  0
 26 25  1  0
 27 26  2  0
 27 23  1  0
 28 27  1  0
 29 28  2  0
 30 29  1  0
 31 30  2  0
 31 26  1  0
 32 25  1  0
 33 29  1  0
 34 33  1  0
 35 34  2  0
 36 34  1  0
 37 36  1  0
 38 37  1  0
 39 38  1  0
 40 39  1  0
 41 40  1  0
 41 37  1  0
  2 42  1  0
  4 43  1  0
  5 44  1  0
  9 45  1  0
 14 46  1  0
 15 47  1  0
 16 48  1  0
 17 49  1  0
 19 50  1  0
 19 51  1  0
 19 52  1  0
 20 53  1  0
 20 54  1  0
 20 55  1  0
 22 56  1  0
 22 57  1  0
 24 58  1  0
 28 59  1  0
 30 60  1  0
 31 61  1  0
 32 62  1  0
 32 63  1  0
 32 64  1  0
 33 65  1  0
 37 66  1  0
 38 67  1  0
 38 68  1  0
 39 69  1  0
 39 70  1  0
 40 71  1  0
 40 72  1  0
 41 73  1  0
 41 74  1  0
M  END
>  <score>  (7) 
-9.964

$$$$
=
     RDKit          3D

 74 78  0  0  0  0  0  0  0  0999 V2000
    0.7270   56.2070   74.1130 C   0  0  0  0  0  0  0  0  0  0  0  0
    1.6870   57.1750   73.7960 C   0  0  0  0  0  0  0  0  0  0  0  0
    1.3440   58.5330   73.7350 C   0  0  0  0  0  0  0  0  0  0  0  0
    0.0350   58.9290   74.0230 C   0  0  0  0  0  0  0  0  0  0  0  0
   -0.9230   57.9680   74.3500 C   0  0  0  0  0  0  0  0  0  0  0  0
   -0.6000   56.5980   74.3800 C   0  0  0  0  0  0  0  0  0  0  0  0
    2.4120   59.5020   73.3610 C   0  0  0  0  0  0  0  0  0  0  0  0
    2.9700   60.1750   74.2110 O   0  0  0  0  0  0  0  0  0  0  0  0
    2.7010   59.5830   71.9950 N   0  0  0  0  0  0  0  0  0  0  0  0
    3.8620   60.5690   71.3230 S   0  0  0  0  0  6  0  0  0  0  0  0
    4.1130   60.0000   70.0130 O   0  0  0  0  0  0  0  0  0  0  0  0
    4.9470   60.7240   72.2640 O   0  0  0  0  0  0  0  0  0  0  0  0
    2.9880   62.1020   71.0590 C   0  0  0  0  0  0  0  0  0  0  0  0
    1.5970   62.0630   71.2680 C   0  0  0  0  0  0  0  0  0  0  0  0
    0.8200   63.2040   71.0810 C   0  0  0  0  0  0  0  0  0  0  0  0
    1.4230   64.3880   70.6770 C   0  0  0  0  0  0  0  0  0  0  0  0
    2.8010   64.4310   70.4540 C   0  0  0  0  0  0  0  0  0  0  0  0
    3.6090   63.2920   70.6370 C   0  0  0  0  0  0  0  0  0  0  0  0
    5.0800   63.4200   70.3580 C   0  0  0  0  0  0  0  0  0  0  0  0
    2.2280   54.4930   74.8260 C   0  0  0  0  0  0  0  0  0  0  0  0
    0.9970   54.8680   74.2160 O   0  0  0  0  0  0  0  0  0  0  0  0
   -1.6680   55.5800   74.7290 C   0  0  0  0  0  0  0  0  0  0  0  0
   -2.2290   55.9680   76.0650 C   0  0  0  0  0  0  0  0  0  0  0  0
   -1.7410   55.5710   77.2980 C   0  0  0  0  0  0  0  0  0  0  0  0
   -2.5260   56.1200   78.2740 N   0  0  0  0  0  0  0  0  0  0  0  0
   -3.5400   56.8630   77.7100 C   0  0  0  0  0  0  0  0  0  0  0  0
   -3.3860   56.7790   76.3240 C   0  0  0  0  0  0  0  0  0  0  0  0
   -4.3180   57.4490   75.4960 C   0  0  0  0  0  0  0  0  0  0  0  0
   -5.3630   58.1870   76.0650 C   0  0  0  0  0  0  0  0  0  0  0  0
   -5.4810   58.2520   77.4560 C   0  0  0  0  0  0  0  0  0  0  0  0
   -4.5790   57.5950   78.3000 C   0  0  0  0  0  0  0  0  0  0  0  0
   -2.3240   55.9350   79.6930 C   0  0  0  0  0  0  0  0  0  0  0  0
   -6.3260   58.8830   75.3140 N   0  0  0  0  0  0  0  0  0  0  0  0
   -6.1820   60.0320   74.5920 C   0  0  0  0  0  0  0  0  0  0  0  0
   -5.1790   60.7120   74.4390 O   0  0  0  0  0  0  0  0  0  0  0  0
   -7.3900   60.3260   74.0370 O   0  0  0  0  0  0  0  0  0  0  0  0
   -7.6380   61.7130   73.8050 C   0  0  0  0  0  0  0  0  0  0  0  0
   -8.3010   61.9660   72.4550 C   0  0  0  0  0  0  0  0  0  0  0  0
   -9.0230   63.2980   72.6260 C   0  0  0  0  0  0  0  0  0  0  0  0
   -9.2210   63.4850   74.1300 C   0  0  0  0  0  0  0  0  0  0  0  0
   -8.7000   62.2110   74.7780 C   0  0  0  0  0  0  0  0  0  0  0  0
    2.7230   56.8665   73.5923 H   0  0  0  0  0  0  0  0  0  0  0  0
   -0.2392   59.9938   73.9921 H   0  0  0  0  0  0  0  0  0  0  0  0
   -1.9485   58.2867   74.5885 H   0  0  0  0  0  0  0  0  0  0  0  0
    2.1543   58.9877   71.3566 H   0  0  0  0  0  0  0  0  0  0  0  0
    1.1190   61.1233   71.5818 H   0  0  0  0  0  0  0  0  0  0  0  0
   -0.2659   63.1673   71.2525 H   0  0  0  0  0  0  0  0  0  0  0  0
    0.8146   65.2930   70.5325 H   0  0  0  0  0  0  0  0  0  0  0  0
    3.2649   65.3739   70.1287 H   0  0  0  0  0  0  0  0  0  0  0  0
    5.6308   63.4679   71.3090 H   0  0  0  0  0  0  0  0  0  0  0  0
    5.4209   62.5481   69.7804 H   0  0  0  0  0  0  0  0  0  0  0  0
    5.2652   64.3377   69.7804 H   0  0  0  0  0  0  0  0  0  0  0  0
    2.1200   54.5259   75.9202 H   0  0  0  0  0  0  0  0  0  0  0  0
    2.4957   53.4726   74.5145 H   0  0  0  0  0  0  0  0  0  0  0  0
    3.0191   55.1909   74.5145 H   0  0  0  0  0  0  0  0  0  0  0  0
   -2.4627   55.5914   73.9686 H   0  0  0  0  0  0  0  0  0  0  0  0
   -1.2449   54.5652   74.7623 H   0  0  0  0  0  0  0  0  0  0  0  0
   -0.8682   54.9227   77.4648 H   0  0  0  0  0  0  0  0  0  0  0  0
   -4.2211   57.3897   74.4019 H   0  0  0  0  0  0  0  0  0  0  0  0
   -6.3031   58.8339   77.8981 H   0  0  0  0  0  0  0  0  0  0  0  0
   -4.6824   57.6514   79.3937 H   0  0  0  0  0  0  0  0  0  0  0  0
   -3.0237   56.5758   80.2496 H   0  0  0  0  0  0  0  0  0  0  0  0
   -2.5039   54.8818   79.9547 H   0  0  0  0  0  0  0  0  0  0  0  0
   -1.2907   56.2065   79.9547 H   0  0  0  0  0  0  0  0  0  0  0  0
   -7.2692   58.4692   75.3078 H   0  0  0  0  0  0  0  0  0  0  0  0
   -6.6570   62.2032   73.8913 H   0  0  0  0  0  0  0  0  0  0  0  0
   -7.5460   62.0328   71.6578 H   0  0  0  0  0  0  0  0  0  0  0  0
   -8.9851   61.1541   72.1670 H   0  0  0  0  0  0  0  0  0  0  0  0
   -8.4138   64.1174   72.2167 H   0  0  0  0  0  0  0  0  0  0  0  0
   -9.9841   63.3048   72.0910 H   0  0  0  0  0  0  0  0  0  0  0  0
   -8.6517   64.3563   74.4859 H   0  0  0  0  0  0  0  0  0  0  0  0
  -10.2771   63.6639   74.3802 H   0  0  0  0  0  0  0  0  0  0  0  0
   -8.2591   62.4248   75.7628 H   0  0  0  0  0  0  0  0  0  0  0  0
   -9.4935   61.4702   74.9557 H   0  0  0  0  0  0  0  0  0  0  0  0
  2  1  2  0
  3  2  1  0
  4  3  2  0
  5  4  1  0
  6  5  2  0
  6  1  1  0
  7  3  1  0
  8  7  2  0
  9  7  1  0
 10  9  1  0
 11 10  2  0
 12 10  2  0
 13 10  1  0
 14 13  2  0
 15 14  1  0
 16 15  2  0
 17 16  1  0
 18 17  2  0
 18 13  1  0
 19 18  1  0
 21  1  1  0
 21 20  1  0
 22  6  1  0
 23 22  1  0
 24 23  2  0
 25 24  1  0
 26 25  1  0
 27 26  2  0
 27 23  1  0
 28 27  1  0
 29 28  2  0
 30 29  1  0
 31 30  2  0
 31 26  1  0
 32 25  1  0
 33 29  1  0
 34 33  1  0
 35 34  2  0
 36 34  1  0
 37 36  1  0
 38 37  1  0
 39 38  1  0
 40 39  1  0
 41 40  1  0
 41 37  1  0
  2 42  1  0
  4 43  1  0
  5 44  1  0
  9 45  1  0
 14 46  1  0
 15 47  1  0
 16 48  1  0
 17 49  1  0
 19 50  1  0
 19 51  1  0
 19 52  1  0
 20 53  1  0
 20 54  1  0
 20 55  1  0
 22 56  1  0
 22 57  1  0
 24 58  1  0
 28 59  1  0
 30 60  1  0
 31 61  1  0
 32 62  1  0
 32 63  1  0
 32 64  1  0
 33 65  1  0
 37 66  1  0
 38 67  1  0
 38 68  1  0
 39 69  1  0
 39 70  1  0
 40 71  1  0
 40 72  1  0
 41 73  1  0
 41 74  1  0
M  END
>  <score>  (8) 
-9.476

$$$$
=
     RDKit          3D

 74 78  0  0  0  0  0  0  0  0999 V2000
    3.3870   59.7240   72.4230 C   0  0  0  0  0  0  0  0  0  0  0  0
    3.4650   58.6300   73.2930 C   0  0  0  0  0  0  0  0  0  0  0  0
    2.3090   58.0910   73.8760 C   0  0  0  0  0  0  0  0  0  0  0  0
    1.0600   58.6350   73.5620 C   0  0  0  0  0  0  0  0  0  0  0  0
    0.9760   59.7180   72.6870 C   0  0  0  0  0  0  0  0  0  0  0  0
    2.1320   60.2900   72.1220 C   0  0  0  0  0  0  0  0  0  0  0  0
    2.4740   56.9480   74.8150 C   0  0  0  0  0  0  0  0  0  0  0  0
    3.4090   56.9130   75.5980 O   0  0  0  0  0  0  0  0  0  0  0  0
    1.5060   55.9420   74.7180 N   0  0  0  0  0  0  0  0  0  0  0  0
    1.4540   54.5750   75.6660 S   0  0  0  0  0  6  0  0  0  0  0  0
    1.7050   55.0520   77.0120 O   0  0  0  0  0  0  0  0  0  0  0  0
    2.3100   53.5680   75.0840 O   0  0  0  0  0  0  0  0  0  0  0  0
   -0.2660   54.1020   75.6000 C   0  0  0  0  0  0  0  0  0  0  0  0
   -0.5240   52.7550   75.2870 C   0  0  0  0  0  0  0  0  0  0  0  0
   -1.8320   52.2850   75.2010 C   0  0  0  0  0  0  0  0  0  0  0  0
   -2.8920   53.1570   75.4200 C   0  0  0  0  0  0  0  0  0  0  0  0
   -2.6430   54.4990   75.7170 C   0  0  0  0  0  0  0  0  0  0  0  0
   -1.3300   54.9980   75.8100 C   0  0  0  0  0  0  0  0  0  0  0  0
   -1.1520   56.4580   76.1160 C   0  0  0  0  0  0  0  0  0  0  0  0
    5.2440   61.2170   72.5430 C   0  0  0  0  0  0  0  0  0  0  0  0
    4.4690   60.2830   71.7990 O   0  0  0  0  0  0  0  0  0  0  0  0
    2.0050   61.4750   71.1830 C   0  0  0  0  0  0  0  0  0  0  0  0
    1.3210   62.5700   71.9440 C   0  0  0  0  0  0  0  0  0  0  0  0
    0.9430   62.5230   73.2750 C   0  0  0  0  0  0  0  0  0  0  0  0
    0.3380   63.7060   73.5980 N   0  0  0  0  0  0  0  0  0  0  0  0
    0.2920   64.5350   72.4990 C   0  0  0  0  0  0  0  0  0  0  0  0
    0.8930   63.8460   71.4420 C   0  0  0  0  0  0  0  0  0  0  0  0
    0.9640   64.4760   70.1760 C   0  0  0  0  0  0  0  0  0  0  0  0
    0.4490   65.7660   70.0000 C   0  0  0  0  0  0  0  0  0  0  0  0
   -0.1390   66.4250   71.0830 C   0  0  0  0  0  0  0  0  0  0  0  0
   -0.2300   65.8260   72.3440 C   0  0  0  0  0  0  0  0  0  0  0  0
   -0.1870   64.0320   74.9040 C   0  0  0  0  0  0  0  0  0  0  0  0
    0.4840   66.4600   68.7780 N   0  0  0  0  0  0  0  0  0  0  0  0
   -0.5570   66.9150   68.0220 C   0  0  0  0  0  0  0  0  0  0  0  0
   -1.7540   66.8200   68.2420 O   0  0  0  0  0  0  0  0  0  0  0  0
   -0.0330   67.5260   66.9230 O   0  0  0  0  0  0  0  0  0  0  0  0
    1.3690   67.7860   66.9750 C   0  0  0  0  0  0  0  0  0  0  0  0
    1.9980   67.8550   65.5880 C   0  0  0  0  0  0  0  0  0  0  0  0
    3.2500   68.7050   65.7750 C   0  0  0  0  0  0  0  0  0  0  0  0
    3.0240   69.5210   67.0480 C   0  0  0  0  0  0  0  0  0  0  0  0
    1.6080   69.1960   67.5020 C   0  0  0  0  0  0  0  0  0  0  0  0
    4.4456   58.1875   73.5223 H   0  0  0  0  0  0  0  0  0  0  0  0
    0.1464   58.2103   74.0036 H   0  0  0  0  0  0  0  0  0  0  0  0
   -0.0109   60.1326   72.4338 H   0  0  0  0  0  0  0  0  0  0  0  0
    0.7703   56.0562   74.0063 H   0  0  0  0  0  0  0  0  0  0  0  0
    0.3152   52.0666   75.1085 H   0  0  0  0  0  0  0  0  0  0  0  0
   -2.0253   51.2291   74.9610 H   0  0  0  0  0  0  0  0  0  0  0  0
   -3.9273   52.7902   75.3594 H   0  0  0  0  0  0  0  0  0  0  0  0
   -3.4908   55.1803   75.8817 H   0  0  0  0  0  0  0  0  0  0  0  0
   -1.1341   56.6046   77.2060 H   0  0  0  0  0  0  0  0  0  0  0  0
   -0.2042   56.8105   75.6830 H   0  0  0  0  0  0  0  0  0  0  0  0
   -1.9873   57.0279   75.6830 H   0  0  0  0  0  0  0  0  0  0  0  0
    5.0975   61.0404   73.6188 H   0  0  0  0  0  0  0  0  0  0  0  0
    6.3079   61.0926   72.2925 H   0  0  0  0  0  0  0  0  0  0  0  0
    4.9255   62.2397   72.2925 H   0  0  0  0  0  0  0  0  0  0  0  0
    3.0020   61.8073   70.8581 H   0  0  0  0  0  0  0  0  0  0  0  0
    1.4292   61.2033   70.2860 H   0  0  0  0  0  0  0  0  0  0  0  0
    1.1026   61.6759   73.9583 H   0  0  0  0  0  0  0  0  0  0  0  0
    1.4256   63.9499   69.3274 H   0  0  0  0  0  0  0  0  0  0  0  0
   -0.5400   67.4393   70.9405 H   0  0  0  0  0  0  0  0  0  0  0  0
   -0.6975   66.3530   73.1888 H   0  0  0  0  0  0  0  0  0  0  0  0
    0.4762   63.6202   75.6790 H   0  0  0  0  0  0  0  0  0  0  0  0
   -0.2446   65.1250   75.0136 H   0  0  0  0  0  0  0  0  0  0  0  0
   -1.1922   63.5990   75.0136 H   0  0  0  0  0  0  0  0  0  0  0  0
    1.4236   66.6512   68.4019 H   0  0  0  0  0  0  0  0  0  0  0  0
    1.7924   66.9784   67.5903 H   0  0  0  0  0  0  0  0  0  0  0  0
    2.2617   66.8486   65.2308 H   0  0  0  0  0  0  0  0  0  0  0  0
    1.3128   68.2806   64.8401 H   0  0  0  0  0  0  0  0  0  0  0  0
    4.1350   68.0613   65.8865 H   0  0  0  0  0  0  0  0  0  0  0  0
    3.4259   69.3568   64.9065 H   0  0  0  0  0  0  0  0  0  0  0  0
    3.7503   69.2325   67.8221 H   0  0  0  0  0  0  0  0  0  0  0  0
    3.1544   70.5982   66.8673 H   0  0  0  0  0  0  0  0  0  0  0  0
    1.5331   69.2217   68.5991 H   0  0  0  0  0  0  0  0  0  0  0  0
    0.8669   69.9191   67.1307 H   0  0  0  0  0  0  0  0  0  0  0  0
  2  1  2  0
  3  2  1  0
  4  3  2  0
  5  4  1  0
  6  5  2  0
  6  1  1  0
  7  3  1  0
  8  7  2  0
  9  7  1  0
 10  9  1  0
 11 10  2  0
 12 10  2  0
 13 10  1  0
 14 13  2  0
 15 14  1  0
 16 15  2  0
 17 16  1  0
 18 17  2  0
 18 13  1  0
 19 18  1  0
 21  1  1  0
 21 20  1  0
 22  6  1  0
 23 22  1  0
 24 23  2  0
 25 24  1  0
 26 25  1  0
 27 26  2  0
 27 23  1  0
 28 27  1  0
 29 28  2  0
 30 29  1  0
 31 30  2  0
 31 26  1  0
 32 25  1  0
 33 29  1  0
 34 33  1  0
 35 34  2  0
 36 34  1  0
 37 36  1  0
 38 37  1  0
 39 38  1  0
 40 39  1  0
 41 40  1  0
 41 37  1  0
  2 42  1  0
  4 43  1  0
  5 44  1  0
  9 45  1  0
 14 46  1  0
 15 47  1  0
 16 48  1  0
 17 49  1  0
 19 50  1  0
 19 51  1  0
 19 52  1  0
 20 53  1  0
 20 54  1  0
 20 55  1  0
 22 56  1  0
 22 57  1  0
 24 58  1  0
 28 59  1  0
 30 60  1  0
 31 61  1  0
 32 62  1  0
 32 63  1  0
 32 64  1  0
 33 65  1  0
 37 66  1  0
 38 67  1  0
 38 68  1  0
 39 69  1  0
 39 70  1  0
 40 71  1  0
 40 72  1  0
 41 73  1  0
 41 74  1  0
M  END
>  <score>  (9) 
-9.226

$$$$
