=
     RDKit          3D

 55 58  0  0  0  0  0  0  0  0999 V2000
    0.4350   66.7500   69.4870 C   0  0  0  0  0  0  0  0  0  0  0  0
   -0.1900   67.2600   68.1960 C   0  0  0  0  0  0  0  0  0  0  0  0
   -1.3100   66.8620   67.8590 O   0  0  0  0  0  0  0  0  0  0  0  0
    4.5410   69.4190   64.7430 C   0  0  0  0  0  0  0  0  0  0  0  0
    3.3740   68.6580   64.6070 C   0  0  0  0  0  0  0  0  0  0  0  0
    2.5550   68.4840   65.7120 C   0  0  0  0  0  0  0  0  0  0  0  0
    1.0450   67.5660   65.7660 S   0  0  0  0  0  0  0  0  0  0  0  0
    0.5950   68.2800   67.3860 C   0  0  2  0  0  0  0  0  0  0  0  0
    1.9130   68.7040   68.0530 C   0  0  0  0  0  0  0  0  0  0  0  0
    2.8720   69.0470   66.9480 C   0  0  0  0  0  0  0  0  0  0  0  0
    4.0360   69.7920   67.1030 C   0  0  0  0  0  0  0  0  0  0  0  0
    4.8750   69.9870   65.9980 C   0  0  0  0  0  0  0  0  0  0  0  0
    5.6430   68.6260   62.7720 C   0  0  0  0  0  0  0  0  0  0  0  0
    5.4290   69.6590   63.7230 O   0  0  0  0  0  0  0  0  0  0  0  0
    6.0460   70.7040   66.0350 O   0  0  0  0  0  0  0  0  0  0  0  0
    6.7460   70.7720   67.2690 C   0  0  0  0  0  0  0  0  0  0  0  0
   -0.0810   65.3720   69.9050 C   0  0  0  0  0  0  0  0  0  0  0  0
    0.9690   64.5080   70.5650 C   0  0  0  0  0  0  0  0  0  0  0  0
    0.5960   63.4800   71.4320 C   0  0  0  0  0  0  0  0  0  0  0  0
    1.5640   62.6280   71.9490 C   0  0  0  0  0  0  0  0  0  0  0  0
    2.8680   62.7920   71.6340 N   0  0  0  0  0  4  0  0  0  0  0  0
    3.2550   63.7940   70.8090 C   0  0  0  0  0  0  0  0  0  0  0  0
    2.3210   64.6690   70.2660 C   0  0  0  0  0  0  0  0  0  0  0  0
    3.8820   61.8530   72.1700 C   0  0  0  0  0  0  0  0  0  0  0  0
    3.7190   60.5090   71.5480 C   0  0  0  0  0  0  0  0  0  0  0  0
    3.8970   60.1860   70.2120 C   0  0  0  0  0  0  0  0  0  0  0  0
    3.6720   58.8640   69.9940 O   0  0  0  0  0  0  0  0  0  0  0  0
    3.3290   58.3300   71.1940 C   0  0  0  0  0  0  0  0  0  0  0  0
    3.3360   59.2860   72.1850 C   0  0  0  0  0  0  0  0  0  0  0  0
    3.0390   56.9300   71.2230 N   0  0  0  0  0  4  0  0  0  0  0  0
    2.1410   56.5410   71.9760 O   0  0  0  0  0  0  0  0  0  0  0  0
    3.7230   56.2260   70.4680 O   0  0  0  0  0  1  0  0  0  0  0  0
    1.5242   66.6873   69.3468 H   0  0  0  0  0  0  0  0  0  0  0  0
    0.1600   67.4567   70.2839 H   0  0  0  0  0  0  0  0  0  0  0  0
    3.1111   68.2056   63.6394 H   0  0  0  0  0  0  0  0  0  0  0  0
   -0.0618   69.1579   67.2969 H   0  0  0  0  0  0  0  0  0  0  0  0
    1.7466   69.5815   68.6952 H   0  0  0  0  0  0  0  0  0  0  0  0
    2.3123   67.8961   68.6837 H   0  0  0  0  0  0  0  0  0  0  0  0
    4.2949   70.2230   68.0814 H   0  0  0  0  0  0  0  0  0  0  0  0
    5.8391   67.6794   63.2968 H   0  0  0  0  0  0  0  0  0  0  0  0
    4.7483   68.5171   62.1413 H   0  0  0  0  0  0  0  0  0  0  0  0
    6.5073   68.8815   62.1413 H   0  0  0  0  0  0  0  0  0  0  0  0
    6.0299   70.7024   68.1011 H   0  0  0  0  0  0  0  0  0  0  0  0
    7.4620   69.9392   67.3308 H   0  0  0  0  0  0  0  0  0  0  0  0
    7.2883   71.7271   67.3308 H   0  0  0  0  0  0  0  0  0  0  0  0
   -0.9117   65.5115   70.6125 H   0  0  0  0  0  0  0  0  0  0  0  0
   -0.3959   64.8532   68.9875 H   0  0  0  0  0  0  0  0  0  0  0  0
   -0.4609   63.3447   71.7051 H   0  0  0  0  0  0  0  0  0  0  0  0
    1.2657   61.8108   72.6222 H   0  0  0  0  0  0  0  0  0  0  0  0
    4.3207   63.9169   70.5658 H   0  0  0  0  0  0  0  0  0  0  0  0
    2.6473   65.4844   69.6037 H   0  0  0  0  0  0  0  0  0  0  0  0
    4.8878   62.2376   71.9455 H   0  0  0  0  0  0  0  0  0  0  0  0
    3.7482   61.7633   73.2581 H   0  0  0  0  0  0  0  0  0  0  0  0
    4.1829   60.9056   69.4307 H   0  0  0  0  0  0  0  0  0  0  0  0
    3.0963   59.1396   73.2485 H   0  0  0  0  0  0  0  0  0  0  0  0
  2  1  1  0
  3  2  2  0
  5  4  2  0
  6  5  1  0
  7  6  1  0
  8  7  1  0
  8  2  1  0
  9  8  1  0
 10  9  1  0
 10  6  2  0
 11 10  1  0
 12  4  1  0
 12 11  2  0
 14  4  1  0
 14 13  1  0
 15 12  1  0
 16 15  1  0
 17  1  1  0
 18 17  1  0
 19 18  2  0
 20 19  1  0
 21 20  2  0
 22 21  1  0
 23 22  2  0
 23 18  1  0
 24 21  1  0
 25 24  1  0
 26 25  2  0
 27 26  1  0
 28 27  1  0
 29 28  2  0
 29 25  1  0
 30 28  1  0
 31 30  2  0
 32 30  1  0
  1 33  1  0
  1 34  1  0
  5 35  1  0
  8 36  1  6
  9 37  1  0
  9 38  1  0
 11 39  1  0
 13 40  1  0
 13 41  1  0
 13 42  1  0
 16 43  1  0
 16 44  1  0
 16 45  1  0
 17 46  1  0
 17 47  1  0
 19 48  1  0
 20 49  1  0
 22 50  1  0
 23 51  1  0
 24 52  1  0
 24 53  1  0
 26 54  1  0
 29 55  1  0
M  CHG  3  21   1  30   1  32  -1
M  END
>  <score>  (1) 
-10.259

$$$$
=
     RDKit          3D

 55 58  0  0  0  0  0  0  0  0999 V2000
    0.9480   66.8220   69.7230 C   0  0  0  0  0  0  0  0  0  0  0  0
    0.1500   67.0040   68.4400 C   0  0  0  0  0  0  0  0  0  0  0  0
   -0.9580   66.4700   68.3270 O   0  0  0  0  0  0  0  0  0  0  0  0
    1.3780   68.8630   62.6090 C   0  0  0  0  0  0  0  0  0  0  0  0
    0.3660   68.9500   63.5710 C   0  0  0  0  0  0  0  0  0  0  0  0
    0.5830   68.3980   64.8240 C   0  0  0  0  0  0  0  0  0  0  0  0
   -0.5520   68.3920   66.1800 S   0  0  0  0  0  0  0  0  0  0  0  0
    0.7520   67.8790   67.3510 C   0  0  2  0  0  0  0  0  0  0  0  0
    1.8250   67.1610   66.5170 C   0  0  0  0  0  0  0  0  0  0  0  0
    1.7820   67.7610   65.1400 C   0  0  0  0  0  0  0  0  0  0  0  0
    2.7910   67.6520   64.1890 C   0  0  0  0  0  0  0  0  0  0  0  0
    2.5970   68.2090   62.9190 C   0  0  0  0  0  0  0  0  0  0  0  0
    0.0290   69.9080   60.9310 C   0  0  0  0  0  0  0  0  0  0  0  0
    1.2790   69.3690   61.3350 O   0  0  0  0  0  0  0  0  0  0  0  0
    3.5240   68.1620   61.9050 O   0  0  0  0  0  0  0  0  0  0  0  0
    4.6000   67.2450   62.0310 C   0  0  0  0  0  0  0  0  0  0  0  0
    0.4010   65.7110   70.6220 C   0  0  0  0  0  0  0  0  0  0  0  0
    1.2850   64.4870   70.6770 C   0  0  0  0  0  0  0  0  0  0  0  0
    0.7590   63.2510   71.0540 C   0  0  0  0  0  0  0  0  0  0  0  0
    1.5570   62.1150   71.0000 C   0  0  0  0  0  0  0  0  0  0  0  0
    2.8460   62.1950   70.5990 N   0  0  0  0  0  4  0  0  0  0  0  0
    3.3830   63.3880   70.2450 C   0  0  0  0  0  0  0  0  0  0  0  0
    2.6210   64.5490   70.2820 C   0  0  0  0  0  0  0  0  0  0  0  0
    3.6720   60.9670   70.5160 C   0  0  0  0  0  0  0  0  0  0  0  0
    3.4860   60.1380   71.7410 C   0  0  0  0  0  0  0  0  0  0  0  0
    2.8580   58.9050   71.8200 C   0  0  0  0  0  0  0  0  0  0  0  0
    2.8740   58.4300   73.0930 O   0  0  0  0  0  0  0  0  0  0  0  0
    3.5010   59.3690   73.8460 C   0  0  0  0  0  0  0  0  0  0  0  0
    3.8970   60.4410   73.0780 C   0  0  0  0  0  0  0  0  0  0  0  0
    3.6420   59.0940   75.2420 N   0  0  0  0  0  4  0  0  0  0  0  0
    2.9890   59.7790   76.0360 O   0  0  0  0  0  0  0  0  0  0  0  0
    4.4150   58.1700   75.5300 O   0  0  0  0  0  1  0  0  0  0  0  0
    1.9866   66.5763   69.4566 H   0  0  0  0  0  0  0  0  0  0  0  0
    0.8773   67.7633   70.2877 H   0  0  0  0  0  0  0  0  0  0  0  0
   -0.5863   69.4483   63.3370 H   0  0  0  0  0  0  0  0  0  0  0  0
    1.2122   68.7302   67.8741 H   0  0  0  0  0  0  0  0  0  0  0  0
    2.8177   67.3141   66.9654 H   0  0  0  0  0  0  0  0  0  0  0  0
    1.6357   66.0780   66.4805 H   0  0  0  0  0  0  0  0  0  0  0  0
    3.7306   67.1342   64.4317 H   0  0  0  0  0  0  0  0  0  0  0  0
   -0.5647   70.1640   61.8209 H   0  0  0  0  0  0  0  0  0  0  0  0
    0.1973   70.8135   60.3296 H   0  0  0  0  0  0  0  0  0  0  0  0
   -0.5139   69.1640   60.3296 H   0  0  0  0  0  0  0  0  0  0  0  0
    4.8079   67.0678   63.0965 H   0  0  0  0  0  0  0  0  0  0  0  0
    4.3304   66.2947   61.5471 H   0  0  0  0  0  0  0  0  0  0  0  0
    5.4956   67.6618   61.5471 H   0  0  0  0  0  0  0  0  0  0  0  0
    0.2950   66.1095   71.6418 H   0  0  0  0  0  0  0  0  0  0  0  0
   -0.5617   65.3946   70.1942 H   0  0  0  0  0  0  0  0  0  0  0  0
   -0.2847   63.1761   71.3931 H   0  0  0  0  0  0  0  0  0  0  0  0
    1.1358   61.1401   71.2865 H   0  0  0  0  0  0  0  0  0  0  0  0
    4.4342   63.4375   69.9247 H   0  0  0  0  0  0  0  0  0  0  0  0
    3.0696   65.5132   70.0009 H   0  0  0  0  0  0  0  0  0  0  0  0
    3.3692   60.3843   69.6335 H   0  0  0  0  0  0  0  0  0  0  0  0
    4.7312   61.2517   70.4326 H   0  0  0  0  0  0  0  0  0  0  0  0
    2.4063   58.3803   70.9652 H   0  0  0  0  0  0  0  0  0  0  0  0
    4.4216   61.3448   73.4215 H   0  0  0  0  0  0  0  0  0  0  0  0
  2  1  1  0
  3  2  2  0
  5  4  2  0
  6  5  1  0
  7  6  1  0
  8  7  1  0
  8  2  1  0
  9  8  1  0
 10  9  1  0
 10  6  2  0
 11 10  1  0
 12  4  1  0
 12 11  2  0
 14  4  1  0
 14 13  1  0
 15 12  1  0
 16 15  1  0
 17  1  1  0
 18 17  1  0
 19 18  2  0
 20 19  1  0
 21 20  2  0
 22 21  1  0
 23 22  2  0
 23 18  1  0
 24 21  1  0
 25 24  1  0
 26 25  2  0
 27 26  1  0
 28 27  1  0
 29 28  2  0
 29 25  1  0
 30 28  1  0
 31 30  2  0
 32 30  1  0
  1 33  1  0
  1 34  1  0
  5 35  1  0
  8 36  1  1
  9 37  1  0
  9 38  1  0
 11 39  1  0
 13 40  1  0
 13 41  1  0
 13 42  1  0
 16 43  1  0
 16 44  1  0
 16 45  1  0
 17 46  1  0
 17 47  1  0
 19 48  1  0
 20 49  1  0
 22 50  1  0
 23 51  1  0
 24 52  1  0
 24 53  1  0
 26 54  1  0
 29 55  1  0
M  CHG  3  21   1  30   1  32  -1
M  END
>  <score>  (2) 
-9.267

$$$$
=
     RDKit          3D

 55 58  0  0  0  0  0  0  0  0999 V2000
    0.3790   64.1230   70.6660 C   0  0  0  0  0  0  0  0  0  0  0  0
    1.7310   63.5660   71.0900 C   0  0  0  0  0  0  0  0  0  0  0  0
    2.7640   64.0180   70.5860 O   0  0  0  0  0  0  0  0  0  0  0  0
    1.2180   57.7870   73.3930 C   0  0  0  0  0  0  0  0  0  0  0  0
    2.1410   58.5940   72.7190 C   0  0  0  0  0  0  0  0  0  0  0  0
    1.8100   59.9150   72.4560 C   0  0  0  0  0  0  0  0  0  0  0  0
    2.8180   61.1040   71.6210 S   0  0  0  0  0  0  0  0  0  0  0  0
    1.7460   62.4820   72.1560 C   0  0  2  0  0  0  0  0  0  0  0  0
    0.3600   61.8740   72.4260 C   0  0  0  0  0  0  0  0  0  0  0  0
    0.5830   60.4480   72.8470 C   0  0  0  0  0  0  0  0  0  0  0  0
   -0.3510   59.6550   73.5050 C   0  0  0  0  0  0  0  0  0  0  0  0
   -0.0360   58.3200   73.7870 C   0  0  0  0  0  0  0  0  0  0  0  0
    2.1840   56.1770   74.8770 C   0  0  0  0  0  0  0  0  0  0  0  0
    1.4310   56.4670   73.7070 O   0  0  0  0  0  0  0  0  0  0  0  0
   -0.8790   57.4460   74.4310 O   0  0  0  0  0  0  0  0  0  0  0  0
   -1.9120   57.9930   75.2380 C   0  0  0  0  0  0  0  0  0  0  0  0
    0.2330   65.6230   70.9300 C   0  0  0  0  0  0  0  0  0  0  0  0
    0.2980   66.4660   69.6770 C   0  0  0  0  0  0  0  0  0  0  0  0
    1.4410   67.2110   69.3850 C   0  0  0  0  0  0  0  0  0  0  0  0
    1.5280   67.8990   68.1810 C   0  0  0  0  0  0  0  0  0  0  0  0
    0.5090   67.8670   67.2930 N   0  0  0  0  0  4  0  0  0  0  0  0
   -0.6170   67.1640   67.5630 C   0  0  0  0  0  0  0  0  0  0  0  0
   -0.7460   66.4600   68.7540 C   0  0  0  0  0  0  0  0  0  0  0  0
    0.6340   68.5800   65.9990 C   0  0  0  0  0  0  0  0  0  0  0  0
    1.7840   68.0390   65.2220 C   0  0  0  0  0  0  0  0  0  0  0  0
    2.8420   68.7610   64.6930 C   0  0  0  0  0  0  0  0  0  0  0  0
    3.7170   67.9460   64.0490 O   0  0  0  0  0  0  0  0  0  0  0  0
    3.2140   66.6900   64.1450 C   0  0  0  0  0  0  0  0  0  0  0  0
    2.0310   66.6790   64.8480 C   0  0  0  0  0  0  0  0  0  0  0  0
    3.9680   65.6390   63.5330 N   0  0  0  0  0  4  0  0  0  0  0  0
    4.8540   65.9530   62.7320 O   0  0  0  0  0  0  0  0  0  0  0  0
    3.6610   64.4900   63.8780 O   0  0  0  0  0  1  0  0  0  0  0  0
    0.2499   63.9439   69.5884 H   0  0  0  0  0  0  0  0  0  0  0  0
   -0.3874   63.6104   71.2659 H   0  0  0  0  0  0  0  0  0  0  0  0
    3.1131   58.1876   72.4029 H   0  0  0  0  0  0  0  0  0  0  0  0
    2.1089   62.9712   73.0719 H   0  0  0  0  0  0  0  0  0  0  0  0
   -0.1473   62.4302   73.2280 H   0  0  0  0  0  0  0  0  0  0  0  0
   -0.2739   61.9250   71.5284 H   0  0  0  0  0  0  0  0  0  0  0  0
   -1.3254   60.0714   73.8003 H   0  0  0  0  0  0  0  0  0  0  0  0
    1.5816   56.4090   75.7676 H   0  0  0  0  0  0  0  0  0  0  0  0
    2.4538   55.1106   74.8844 H   0  0  0  0  0  0  0  0  0  0  0  0
    3.0994   56.7869   74.8844 H   0  0  0  0  0  0  0  0  0  0  0  0
   -1.6579   57.8585   76.2998 H   0  0  0  0  0  0  0  0  0  0  0  0
   -2.0187   59.0658   75.0196 H   0  0  0  0  0  0  0  0  0  0  0  0
   -2.8593   57.4783   75.0196 H   0  0  0  0  0  0  0  0  0  0  0  0
   -0.7377   65.7977   71.4170 H   0  0  0  0  0  0  0  0  0  0  0  0
    1.0792   65.9230   71.5655 H   0  0  0  0  0  0  0  0  0  0  0  0
    2.2708   67.2535   70.1059 H   0  0  0  0  0  0  0  0  0  0  0  0
    2.4353   68.4756   67.9479 H   0  0  0  0  0  0  0  0  0  0  0  0
   -1.4383   67.1503   66.8313 H   0  0  0  0  0  0  0  0  0  0  0  0
   -1.6685   65.9002   68.9674 H   0  0  0  0  0  0  0  0  0  0  0  0
   -0.2913   68.4458   65.4194 H   0  0  0  0  0  0  0  0  0  0  0  0
    0.8038   69.6493   66.1935 H   0  0  0  0  0  0  0  0  0  0  0  0
    2.9579   69.8512   64.7829 H   0  0  0  0  0  0  0  0  0  0  0  0
    1.4037   65.8046   65.0759 H   0  0  0  0  0  0  0  0  0  0  0  0
  2  1  1  0
  3  2  2  0
  5  4  2  0
  6  5  1  0
  7  6  1  0
  8  7  1  0
  8  2  1  0
  9  8  1  0
 10  9  1  0
 10  6  2  0
 11 10  1  0
 12  4  1  0
 12 11  2  0
 14  4  1  0
 14 13  1  0
 15 12  1  0
 16 15  1  0
 17  1  1  0
 18 17  1  0
 19 18  2  0
 20 19  1  0
 21 20  2  0
 22 21  1  0
 23 22  2  0
 23 18  1  0
 24 21  1  0
 25 24  1  0
 26 25  2  0
 27 26  1  0
 28 27  1  0
 29 28  2  0
 29 25  1  0
 30 28  1  0
 31 30  2  0
 32 30  1  0
  1 33  1  0
  1 34  1  0
  5 35  1  0
  8 36  1  1
  9 37  1  0
  9 38  1  0
 11 39  1  0
 13 40  1  0
 13 41  1  0
 13 42  1  0
 16 43  1  0
 16 44  1  0
 16 45  1  0
 17 46  1  0
 17 47  1  0
 19 48  1  0
 20 49  1  0
 22 50  1  0
 23 51  1  0
 24 52  1  0
 24 53  1  0
 26 54  1  0
 29 55  1  0
M  CHG  3  21   1  30   1  32  -1
M  END
>  <score>  (3) 
-9.217

$$$$
=
     RDKit          3D

 55 58  0  0  0  0  0  0  0  0999 V2000
    1.4270   66.7940   69.9170 C   0  0  0  0  0  0  0  0  0  0  0  0
    0.6350   65.5060   70.0960 C   0  0  0  0  0  0  0  0  0  0  0  0
   -0.4040   65.3310   69.4510 O   0  0  0  0  0  0  0  0  0  0  0  0
    2.1960   59.7930   72.0670 C   0  0  0  0  0  0  0  0  0  0  0  0
    2.6870   60.8150   71.2460 C   0  0  0  0  0  0  0  0  0  0  0  0
    1.9760   62.0020   71.1580 C   0  0  0  0  0  0  0  0  0  0  0  0
    2.4090   63.4150   70.1860 S   0  0  0  0  0  0  0  0  0  0  0  0
    1.1900   64.4630   71.0530 C   0  0  2  0  0  0  0  0  0  0  0  0
    0.1160   63.5120   71.6060 C   0  0  0  0  0  0  0  0  0  0  0  0
    0.7910   62.1940   71.8660 C   0  0  0  0  0  0  0  0  0  0  0  0
    0.2830   61.1830   72.6740 C   0  0  0  0  0  0  0  0  0  0  0  0
    0.9870   59.9770   72.7830 C   0  0  0  0  0  0  0  0  0  0  0  0
    3.4290   57.9850   71.0980 C   0  0  0  0  0  0  0  0  0  0  0  0
    2.8090   58.5740   72.2320 O   0  0  0  0  0  0  0  0  0  0  0  0
    0.5810   58.9120   73.5510 O   0  0  0  0  0  0  0  0  0  0  0  0
    0.1590   59.1750   74.8810 C   0  0  0  0  0  0  0  0  0  0  0  0
    0.6550   67.8780   69.1620 C   0  0  0  0  0  0  0  0  0  0  0  0
    1.1820   68.1370   67.7690 C   0  0  0  0  0  0  0  0  0  0  0  0
    2.3820   68.8260   67.5840 C   0  0  0  0  0  0  0  0  0  0  0  0
    2.9080   68.9660   66.3060 C   0  0  0  0  0  0  0  0  0  0  0  0
    2.2620   68.4540   65.2350 N   0  0  0  0  0  4  0  0  0  0  0  0
    1.0880   67.7970   65.3880 C   0  0  0  0  0  0  0  0  0  0  0  0
    0.5260   67.6310   66.6480 C   0  0  0  0  0  0  0  0  0  0  0  0
    2.8560   68.5860   63.8820 C   0  0  0  0  0  0  0  0  0  0  0  0
    3.5850   67.3380   63.5170 C   0  0  0  0  0  0  0  0  0  0  0  0
    4.4740   67.1750   62.4660 C   0  0  0  0  0  0  0  0  0  0  0  0
    4.9600   65.9070   62.4300 O   0  0  0  0  0  0  0  0  0  0  0  0
    4.3690   65.2400   63.4540 C   0  0  0  0  0  0  0  0  0  0  0  0
    3.5140   66.0590   64.1550 C   0  0  0  0  0  0  0  0  0  0  0  0
    4.7250   63.8650   63.6250 N   0  0  0  0  0  4  0  0  0  0  0  0
    5.8330   63.4990   63.2210 O   0  0  0  0  0  0  0  0  0  0  0  0
    3.8740   63.1580   64.1810 O   0  0  0  0  0  1  0  0  0  0  0  0
    1.6919   67.1823   70.9115 H   0  0  0  0  0  0  0  0  0  0  0  0
    2.3164   66.5495   69.3177 H   0  0  0  0  0  0  0  0  0  0  0  0
    3.6206   60.6787   70.6805 H   0  0  0  0  0  0  0  0  0  0  0  0
    1.6331   65.0293   71.8855 H   0  0  0  0  0  0  0  0  0  0  0  0
   -0.3004   63.9146   72.5412 H   0  0  0  0  0  0  0  0  0  0  0  0
   -0.7123   63.3957   70.8915 H   0  0  0  0  0  0  0  0  0  0  0  0
   -0.6602   61.3284   73.2210 H   0  0  0  0  0  0  0  0  0  0  0  0
    4.1894   57.2626   71.4297 H   0  0  0  0  0  0  0  0  0  0  0  0
    2.6703   57.4669   70.4930 H   0  0  0  0  0  0  0  0  0  0  0  0
    3.9075   58.7693   70.4930 H   0  0  0  0  0  0  0  0  0  0  0  0
    0.8744   58.7291   75.5876 H   0  0  0  0  0  0  0  0  0  0  0  0
    0.1129   60.2620   75.0429 H   0  0  0  0  0  0  0  0  0  0  0  0
   -0.8372   58.7376   75.0429 H   0  0  0  0  0  0  0  0  0  0  0  0
   -0.3967   67.5652   69.0834 H   0  0  0  0  0  0  0  0  0  0  0  0
    0.7720   68.8126   69.7302 H   0  0  0  0  0  0  0  0  0  0  0  0
    2.9095   69.2568   68.4478 H   0  0  0  0  0  0  0  0  0  0  0  0
    3.8598   69.4989   66.1643 H   0  0  0  0  0  0  0  0  0  0  0  0
    0.5734   67.3901   64.5050 H   0  0  0  0  0  0  0  0  0  0  0  0
   -0.4323   67.1027   66.7603 H   0  0  0  0  0  0  0  0  0  0  0  0
    2.0555   68.7668   63.1496 H   0  0  0  0  0  0  0  0  0  0  0  0
    3.5630   69.4287   63.8805 H   0  0  0  0  0  0  0  0  0  0  0  0
    4.7496   67.9678   61.7550 H   0  0  0  0  0  0  0  0  0  0  0  0
    2.9014   65.7865   65.0271 H   0  0  0  0  0  0  0  0  0  0  0  0
  2  1  1  0
  3  2  2  0
  5  4  2  0
  6  5  1  0
  7  6  1  0
  8  7  1  0
  8  2  1  0
  9  8  1  0
 10  9  1  0
 10  6  2  0
 11 10  1  0
 12  4  1  0
 12 11  2  0
 14  4  1  0
 14 13  1  0
 15 12  1  0
 16 15  1  0
 17  1  1  0
 18 17  1  0
 19 18  2  0
 20 19  1  0
 21 20  2  0
 22 21  1  0
 23 22  2  0
 23 18  1  0
 24 21  1  0
 25 24  1  0
 26 25  2  0
 27 26  1  0
 28 27  1  0
 29 28  2  0
 29 25  1  0
 30 28  1  0
 31 30  2  0
 32 30  1  0
  1 33  1  0
  1 34  1  0
  5 35  1  0
  8 36  1  1
  9 37  1  0
  9 38  1  0
 11 39  1  0
 13 40  1  0
 13 41  1  0
 13 42  1  0
 16 43  1  0
 16 44  1  0
 16 45  1  0
 17 46  1  0
 17 47  1  0
 19 48  1  0
 20 49  1  0
 22 50  1  0
 23 51  1  0
 24 52  1  0
 24 53  1  0
 26 54  1  0
 29 55  1  0
M  CHG  3  21   1  30   1  32  -1
M  END
>  <score>  (4) 
-8.922

$$$$
=
     RDKit          3D

 55 58  0  0  0  0  0  0  0  0999 V2000
    1.7550   65.1640   70.6030 C   0  0  0  0  0  0  0  0  0  0  0  0
    1.6610   63.6460   70.5550 C   0  0  0  0  0  0  0  0  0  0  0  0
    1.9440   63.0480   69.5120 O   0  0  0  0  0  0  0  0  0  0  0  0
   -0.7290   59.0170   73.9940 C   0  0  0  0  0  0  0  0  0  0  0  0
    0.4560   59.3600   73.3330 C   0  0  0  0  0  0  0  0  0  0  0  0
    0.5450   60.5990   72.7170 C   0  0  0  0  0  0  0  0  0  0  0  0
    1.9370   61.2320   71.8290 S   0  0  0  0  0  0  0  0  0  0  0  0
    1.2460   62.9230   71.8260 C   0  0  2  0  0  0  0  0  0  0  0  0
   -0.2770   62.7690   71.9700 C   0  0  0  0  0  0  0  0  0  0  0  0
   -0.5170   61.5010   72.7420 C   0  0  0  0  0  0  0  0  0  0  0  0
   -1.7060   61.1700   73.3820 C   0  0  0  0  0  0  0  0  0  0  0  0
   -1.8170   59.9260   74.0180 C   0  0  0  0  0  0  0  0  0  0  0  0
   -0.3570   56.6550   74.0710 C   0  0  0  0  0  0  0  0  0  0  0  0
   -0.9360   57.8220   74.6380 O   0  0  0  0  0  0  0  0  0  0  0  0
   -2.9410   59.4940   74.6800 O   0  0  0  0  0  0  0  0  0  0  0  0
   -3.5870   60.4060   75.5560 C   0  0  0  0  0  0  0  0  0  0  0  0
    0.4020   65.8590   70.4360 C   0  0  0  0  0  0  0  0  0  0  0  0
    0.2730   66.6250   69.1390 C   0  0  0  0  0  0  0  0  0  0  0  0
   -0.8580   66.4700   68.3360 C   0  0  0  0  0  0  0  0  0  0  0  0
   -1.0130   67.2560   67.2010 C   0  0  0  0  0  0  0  0  0  0  0  0
   -0.0710   68.1620   66.8560 N   0  0  0  0  0  4  0  0  0  0  0  0
    1.0430   68.3170   67.6100 C   0  0  0  0  0  0  0  0  0  0  0  0
    1.2390   67.5540   68.7550 C   0  0  0  0  0  0  0  0  0  0  0  0
   -0.2690   69.0140   65.6590 C   0  0  0  0  0  0  0  0  0  0  0  0
    0.7040   68.6380   64.5930 C   0  0  0  0  0  0  0  0  0  0  0  0
    0.4820   68.6530   63.2250 C   0  0  0  0  0  0  0  0  0  0  0  0
    1.5900   68.2570   62.5460 O   0  0  0  0  0  0  0  0  0  0  0  0
    2.5300   67.9670   63.4810 C   0  0  0  0  0  0  0  0  0  0  0  0
    2.0490   68.1770   64.7540 C   0  0  0  0  0  0  0  0  0  0  0  0
    3.8030   67.5200   63.0060 N   0  0  0  0  0  4  0  0  0  0  0  0
    3.8650   67.0640   61.8600 O   0  0  0  0  0  0  0  0  0  0  0  0
    4.7440   67.6440   63.8010 O   0  0  0  0  0  1  0  0  0  0  0  0
    2.1807   65.4571   71.5740 H   0  0  0  0  0  0  0  0  0  0  0  0
    2.3892   65.4783   69.7610 H   0  0  0  0  0  0  0  0  0  0  0  0
    1.3026   58.6583   73.3027 H   0  0  0  0  0  0  0  0  0  0  0  0
    1.6256   63.5385   72.6549 H   0  0  0  0  0  0  0  0  0  0  0  0
   -0.6942   63.6285   72.5152 H   0  0  0  0  0  0  0  0  0  0  0  0
   -0.7634   62.7278   70.9843 H   0  0  0  0  0  0  0  0  0  0  0  0
   -2.5495   61.8760   73.3891 H   0  0  0  0  0  0  0  0  0  0  0  0
   -0.0236   55.9831   74.8756 H   0  0  0  0  0  0  0  0  0  0  0  0
   -1.1041   56.1400   73.4492 H   0  0  0  0  0  0  0  0  0  0  0  0
    0.5050   56.9384   73.4492 H   0  0  0  0  0  0  0  0  0  0  0  0
   -3.3840   60.1194   76.5984 H   0  0  0  0  0  0  0  0  0  0  0  0
   -3.2058   61.4217   75.3741 H   0  0  0  0  0  0  0  0  0  0  0  0
   -4.6716   60.3834   75.3741 H   0  0  0  0  0  0  0  0  0  0  0  0
   -0.3884   65.0946   70.4689 H   0  0  0  0  0  0  0  0  0  0  0  0
    0.3106   66.5894   71.2534 H   0  0  0  0  0  0  0  0  0  0  0  0
   -1.6248   65.7273   68.6012 H   0  0  0  0  0  0  0  0  0  0  0  0
   -1.9113   67.1399   66.5768 H   0  0  0  0  0  0  0  0  0  0  0  0
    1.8019   69.0557   67.3127 H   0  0  0  0  0  0  0  0  0  0  0  0
    2.1518   67.6825   69.3553 H   0  0  0  0  0  0  0  0  0  0  0  0
   -1.2930   68.8774   65.2810 H   0  0  0  0  0  0  0  0  0  0  0  0
   -0.1086   70.0662   65.9367 H   0  0  0  0  0  0  0  0  0  0  0  0
   -0.4664   68.9468   62.7515 H   0  0  0  0  0  0  0  0  0  0  0  0
    2.5880   68.0222   65.7003 H   0  0  0  0  0  0  0  0  0  0  0  0
  2  1  1  0
  3  2  2  0
  5  4  2  0
  6  5  1  0
  7  6  1  0
  8  7  1  0
  8  2  1  0
  9  8  1  0
 10  9  1  0
 10  6  2  0
 11 10  1  0
 12  4  1  0
 12 11  2  0
 14  4  1  0
 14 13  1  0
 15 12  1  0
 16 15  1  0
 17  1  1  0
 18 17  1  0
 19 18  2  0
 20 19  1  0
 21 20  2  0
 22 21  1  0
 23 22  2  0
 23 18  1  0
 24 21  1  0
 25 24  1  0
 26 25  2  0
 27 26  1  0
 28 27  1  0
 29 28  2  0
 29 25  1  0
 30 28  1  0
 31 30  2  0
 32 30  1  0
  1 33  1  0
  1 34  1  0
  5 35  1  0
  8 36  1  1
  9 37  1  0
  9 38  1  0
 11 39  1  0
 13 40  1  0
 13 41  1  0
 13 42  1  0
 16 43  1  0
 16 44  1  0
 16 45  1  0
 17 46  1  0
 17 47  1  0
 19 48  1  0
 20 49  1  0
 22 50  1  0
 23 51  1  0
 24 52  1  0
 24 53  1  0
 26 54  1  0
 29 55  1  0
M  CHG  3  21   1  30   1  32  -1
M  END
>  <score>  (5) 
-8.848

$$$$
=
     RDKit          3D

 55 58  0  0  0  0  0  0  0  0999 V2000
    0.5830   65.2100   70.1910 C   0  0  0  0  0  0  0  0  0  0  0  0
    0.1640   64.8720   71.6150 C   0  0  0  0  0  0  0  0  0  0  0  0
   -0.3500   65.7430   72.3250 O   0  0  0  0  0  0  0  0  0  0  0  0
    3.3740   59.9230   73.6560 C   0  0  0  0  0  0  0  0  0  0  0  0
    2.8110   61.1100   74.1400 C   0  0  0  0  0  0  0  0  0  0  0  0
    2.0940   61.9150   73.2680 C   0  0  0  0  0  0  0  0  0  0  0  0
    1.3050   63.4480   73.6630 S   0  0  0  0  0  0  0  0  0  0  0  0
    0.3710   63.4440   72.0930 C   0  0  2  0  0  0  0  0  0  0  0  0
    1.1820   62.5840   71.1090 C   0  0  0  0  0  0  0  0  0  0  0  0
    1.9280   61.5680   71.9280 C   0  0  0  0  0  0  0  0  0  0  0  0
    2.4940   60.4000   71.4290 C   0  0  0  0  0  0  0  0  0  0  0  0
    3.2170   59.5670   72.2920 C   0  0  0  0  0  0  0  0  0  0  0  0
    3.3940   58.1410   75.2520 C   0  0  0  0  0  0  0  0  0  0  0  0
    4.1050   59.0470   74.4210 O   0  0  0  0  0  0  0  0  0  0  0  0
    3.8170   58.3920   71.9100 O   0  0  0  0  0  0  0  0  0  0  0  0
    3.0920   57.5240   71.0510 C   0  0  0  0  0  0  0  0  0  0  0  0
    0.9350   66.6860   69.9990 C   0  0  0  0  0  0  0  0  0  0  0  0
    0.4880   67.2460   68.6680 C   0  0  0  0  0  0  0  0  0  0  0  0
   -0.6990   66.8070   68.0790 C   0  0  0  0  0  0  0  0  0  0  0  0
   -1.1510   67.4030   66.9090 C   0  0  0  0  0  0  0  0  0  0  0  0
   -0.4460   68.3970   66.3240 N   0  0  0  0  0  4  0  0  0  0  0  0
    0.7180   68.8270   66.8680 C   0  0  0  0  0  0  0  0  0  0  0  0
    1.2070   68.2610   68.0380 C   0  0  0  0  0  0  0  0  0  0  0  0
   -0.9610   69.0430   65.0930 C   0  0  0  0  0  0  0  0  0  0  0  0
    0.0200   68.8910   63.9820 C   0  0  0  0  0  0  0  0  0  0  0  0
   -0.1540   69.2770   62.6620 C   0  0  0  0  0  0  0  0  0  0  0  0
    0.9500   68.9940   61.9210 O   0  0  0  0  0  0  0  0  0  0  0  0
    1.8370   68.4070   62.7630 C   0  0  0  0  0  0  0  0  0  0  0  0
    1.3280   68.3110   64.0370 C   0  0  0  0  0  0  0  0  0  0  0  0
    3.0950   68.0110   62.2070 N   0  0  0  0  0  4  0  0  0  0  0  0
    3.7700   67.1880   62.8320 O   0  0  0  0  0  0  0  0  0  0  0  0
    3.3890   68.5350   61.1240 O   0  0  0  0  0  1  0  0  0  0  0  0
    1.4643   64.6043   69.9331 H   0  0  0  0  0  0  0  0  0  0  0  0
   -0.2749   64.9917   69.5381 H   0  0  0  0  0  0  0  0  0  0  0  0
    2.9354   61.3990   75.1940 H   0  0  0  0  0  0  0  0  0  0  0  0
   -0.6371   63.0167   72.1989 H   0  0  0  0  0  0  0  0  0  0  0  0
    0.5066   62.0785   70.4031 H   0  0  0  0  0  0  0  0  0  0  0  0
    1.8768   63.2048   70.5242 H   0  0  0  0  0  0  0  0  0  0  0  0
    2.3752   60.1333   70.3684 H   0  0  0  0  0  0  0  0  0  0  0  0
    3.5851   58.3845   76.3076 H   0  0  0  0  0  0  0  0  0  0  0  0
    2.3166   58.2229   75.0460 H   0  0  0  0  0  0  0  0  0  0  0  0
    3.7297   57.1139   75.0460 H   0  0  0  0  0  0  0  0  0  0  0  0
    2.5027   56.8185   71.6551 H   0  0  0  0  0  0  0  0  0  0  0  0
    2.4166   58.1164   70.4163 H   0  0  0  0  0  0  0  0  0  0  0  0
    3.7952   56.9649   70.4163 H   0  0  0  0  0  0  0  0  0  0  0  0
    0.4527   67.2657   70.7999 H   0  0  0  0  0  0  0  0  0  0  0  0
    2.0319   66.7629   70.0296 H   0  0  0  0  0  0  0  0  0  0  0  0
   -1.2748   65.9912   68.5404 H   0  0  0  0  0  0  0  0  0  0  0  0
   -2.0926   67.0627   66.4535 H   0  0  0  0  0  0  0  0  0  0  0  0
    1.2822   69.6337   66.3772 H   0  0  0  0  0  0  0  0  0  0  0  0
    2.1576   68.6119   68.4660 H   0  0  0  0  0  0  0  0  0  0  0  0
   -1.9117   68.5703   64.8053 H   0  0  0  0  0  0  0  0  0  0  0  0
   -1.1177   70.1140   65.2889 H   0  0  0  0  0  0  0  0  0  0  0  0
   -1.0650   69.7498   62.2664 H   0  0  0  0  0  0  0  0  0  0  0  0
    1.8241   67.8774   64.9179 H   0  0  0  0  0  0  0  0  0  0  0  0
  2  1  1  0
  3  2  2  0
  5  4  2  0
  6  5  1  0
  7  6  1  0
  8  7  1  0
  8  2  1  0
  9  8  1  0
 10  9  1  0
 10  6  2  0
 11 10  1  0
 12  4  1  0
 12 11  2  0
 14  4  1  0
 14 13  1  0
 15 12  1  0
 16 15  1  0
 17  1  1  0
 18 17  1  0
 19 18  2  0
 20 19  1  0
 21 20  2  0
 22 21  1  0
 23 22  2  0
 23 18  1  0
 24 21  1  0
 25 24  1  0
 26 25  2  0
 27 26  1  0
 28 27  1  0
 29 28  2  0
 29 25  1  0
 30 28  1  0
 31 30  2  0
 32 30  1  0
  1 33  1  0
  1 34  1  0
  5 35  1  0
  8 36  1  1
  9 37  1  0
  9 38  1  0
 11 39  1  0
 13 40  1  0
 13 41  1  0
 13 42  1  0
 16 43  1  0
 16 44  1  0
 16 45  1  0
 17 46  1  0
 17 47  1  0
 19 48  1  0
 20 49  1  0
 22 50  1  0
 23 51  1  0
 24 52  1  0
 24 53  1  0
 26 54  1  0
 29 55  1  0
M  CHG  3  21   1  30   1  32  -1
M  END
>  <score>  (6) 
-8.847

$$$$
=
     RDKit          3D

 55 58  0  0  0  0  0  0  0  0999 V2000
    0.3900   64.2150   70.9470 C   0  0  0  0  0  0  0  0  0  0  0  0
    0.0760   63.4730   72.2390 C   0  0  0  0  0  0  0  0  0  0  0  0
   -0.0590   64.1050   73.2910 O   0  0  0  0  0  0  0  0  0  0  0  0
   -0.3150   57.6360   74.4160 C   0  0  0  0  0  0  0  0  0  0  0  0
   -1.1080   58.7790   74.2650 C   0  0  0  0  0  0  0  0  0  0  0  0
   -0.5700   59.8870   73.6290 C   0  0  0  0  0  0  0  0  0  0  0  0
   -1.3880   61.4270   73.3340 S   0  0  0  0  0  0  0  0  0  0  0  0
   -0.0930   61.9640   72.1640 C   0  0  2  0  0  0  0  0  0  0  0  0
    1.1800   61.1890   72.5420 C   0  0  0  0  0  0  0  0  0  0  0  0
    0.7360   59.8850   73.1430 C   0  0  0  0  0  0  0  0  0  0  0  0
    1.5420   58.7620   73.3000 C   0  0  0  0  0  0  0  0  0  0  0  0
    1.0180   57.6280   73.9320 C   0  0  0  0  0  0  0  0  0  0  0  0
   -2.1330   56.2810   75.1820 C   0  0  0  0  0  0  0  0  0  0  0  0
   -0.7350   56.4800   75.0290 O   0  0  0  0  0  0  0  0  0  0  0  0
    1.7210   56.4650   74.1400 O   0  0  0  0  0  0  0  0  0  0  0  0
    2.6820   56.4470   75.1860 C   0  0  0  0  0  0  0  0  0  0  0  0
    0.0670   65.7090   71.0150 C   0  0  0  0  0  0  0  0  0  0  0  0
    0.2440   66.4250   69.6960 C   0  0  0  0  0  0  0  0  0  0  0  0
   -0.7690   66.4000   68.7360 C   0  0  0  0  0  0  0  0  0  0  0  0
   -0.6370   67.1480   67.5730 C   0  0  0  0  0  0  0  0  0  0  0  0
    0.4710   67.8900   67.3520 N   0  0  0  0  0  4  0  0  0  0  0  0
    1.4750   67.9150   68.2610 C   0  0  0  0  0  0  0  0  0  0  0  0
    1.3840   67.1850   69.4400 C   0  0  0  0  0  0  0  0  0  0  0  0
    0.5800   68.7070   66.1190 C   0  0  0  0  0  0  0  0  0  0  0  0
    1.6560   68.1690   65.2390 C   0  0  0  0  0  0  0  0  0  0  0  0
    2.4850   68.8990   64.4030 C   0  0  0  0  0  0  0  0  0  0  0  0
    3.3590   68.0880   63.7510 O   0  0  0  0  0  0  0  0  0  0  0  0
    3.0820   66.8230   64.1550 C   0  0  0  0  0  0  0  0  0  0  0  0
    2.0480   66.8040   65.0630 C   0  0  0  0  0  0  0  0  0  0  0  0
    3.8790   65.7740   63.5980 N   0  0  0  0  0  4  0  0  0  0  0  0
    4.1410   64.8030   64.3150 O   0  0  0  0  0  0  0  0  0  0  0  0
    4.2310   65.9370   62.4220 O   0  0  0  0  0  1  0  0  0  0  0  0
    1.4619   64.0988   70.7290 H   0  0  0  0  0  0  0  0  0  0  0  0
   -0.2420   63.7799   70.1588 H   0  0  0  0  0  0  0  0  0  0  0  0
   -2.1403   58.7980   74.6444 H   0  0  0  0  0  0  0  0  0  0  0  0
   -0.3502   61.7465   71.1169 H   0  0  0  0  0  0  0  0  0  0  0  0
    1.7902   61.0039   71.6457 H   0  0  0  0  0  0  0  0  0  0  0  0
    1.7925   61.7619   73.2538 H   0  0  0  0  0  0  0  0  0  0  0  0
    2.5786   58.7650   72.9320 H   0  0  0  0  0  0  0  0  0  0  0  0
   -2.3833   56.2454   76.2526 H   0  0  0  0  0  0  0  0  0  0  0  0
   -2.6758   57.1109   74.7060 H   0  0  0  0  0  0  0  0  0  0  0  0
   -2.4226   55.3326   74.7060 H   0  0  0  0  0  0  0  0  0  0  0  0
    2.1665   56.4567   76.1577 H   0  0  0  0  0  0  0  0  0  0  0  0
    3.2950   55.5372   75.1051 H   0  0  0  0  0  0  0  0  0  0  0  0
    3.3286   57.3332   75.1051 H   0  0  0  0  0  0  0  0  0  0  0  0
   -0.9786   65.8248   71.3364 H   0  0  0  0  0  0  0  0  0  0  0  0
    0.7746   66.1608   71.7257 H   0  0  0  0  0  0  0  0  0  0  0  0
   -1.6693   65.7897   68.9000 H   0  0  0  0  0  0  0  0  0  0  0  0
   -1.4426   67.1364   66.8240 H   0  0  0  0  0  0  0  0  0  0  0  0
    2.3723   68.5199   68.0637 H   0  0  0  0  0  0  0  0  0  0  0  0
    2.2082   67.2069   70.1682 H   0  0  0  0  0  0  0  0  0  0  0  0
   -0.3782   68.6802   65.5794 H   0  0  0  0  0  0  0  0  0  0  0  0
    0.8264   69.7429   66.3952 H   0  0  0  0  0  0  0  0  0  0  0  0
    2.4415   69.9915   64.2827 H   0  0  0  0  0  0  0  0  0  0  0  0
    1.6123   65.9208   65.5529 H   0  0  0  0  0  0  0  0  0  0  0  0
  2  1  1  0
  3  2  2  0
  5  4  2  0
  6  5  1  0
  7  6  1  0
  8  7  1  0
  8  2  1  0
  9  8  1  0
 10  9  1  0
 10  6  2  0
 11 10  1  0
 12  4  1  0
 12 11  2  0
 14  4  1  0
 14 13  1  0
 15 12  1  0
 16 15  1  0
 17  1  1  0
 18 17  1  0
 19 18  2  0
 20 19  1  0
 21 20  2  0
 22 21  1  0
 23 22  2  0
 23 18  1  0
 24 21  1  0
 25 24  1  0
 26 25  2  0
 27 26  1  0
 28 27  1  0
 29 28  2  0
 29 25  1  0
 30 28  1  0
 31 30  2  0
 32 30  1  0
  1 33  1  0
  1 34  1  0
  5 35  1  0
  8 36  1  6
  9 37  1  0
  9 38  1  0
 11 39  1  0
 13 40  1  0
 13 41  1  0
 13 42  1  0
 16 43  1  0
 16 44  1  0
 16 45  1  0
 17 46  1  0
 17 47  1  0
 19 48  1  0
 20 49  1  0
 22 50  1  0
 23 51  1  0
 24 52  1  0
 24 53  1  0
 26 54  1  0
 29 55  1  0
M  CHG  3  21   1  30   1  32  -1
M  END
>  <score>  (7) 
-8.558

$$$$
=
     RDKit          3D

 55 58  0  0  0  0  0  0  0  0999 V2000
    0.1300   66.8400   69.5080 C   0  0  0  0  0  0  0  0  0  0  0  0
   -0.3000   67.1980   68.0920 C   0  0  0  0  0  0  0  0  0  0  0  0
   -1.3070   66.6740   67.6070 O   0  0  0  0  0  0  0  0  0  0  0  0
    4.6800   69.4440   65.0710 C   0  0  0  0  0  0  0  0  0  0  0  0
    3.5560   68.6450   64.8380 C   0  0  0  0  0  0  0  0  0  0  0  0
    2.6380   68.4640   65.8620 C   0  0  0  0  0  0  0  0  0  0  0  0
    1.1580   67.5000   65.7870 S   0  0  0  0  0  0  0  0  0  0  0  0
    0.5300   68.2270   67.3400 C   0  0  2  0  0  0  0  0  0  0  0  0
    1.7630   68.7050   68.1240 C   0  0  0  0  0  0  0  0  0  0  0  0
    2.8160   69.0580   67.1100 C   0  0  0  0  0  0  0  0  0  0  0  0
    3.9360   69.8430   67.3620 C   0  0  0  0  0  0  0  0  0  0  0  0
    4.8730   70.0450   66.3410 C   0  0  0  0  0  0  0  0  0  0  0  0
    5.4900   69.1420   62.8400 C   0  0  0  0  0  0  0  0  0  0  0  0
    5.6570   69.6940   64.1380 O   0  0  0  0  0  0  0  0  0  0  0  0
    6.0130   70.7990   66.4770 O   0  0  0  0  0  0  0  0  0  0  0  0
    6.7760   70.6420   67.6640 C   0  0  0  0  0  0  0  0  0  0  0  0
    1.5160   66.1950   69.5740 C   0  0  0  0  0  0  0  0  0  0  0  0
    1.5300   64.8670   70.2960 C   0  0  0  0  0  0  0  0  0  0  0  0
    0.3370   64.2820   70.7240 C   0  0  0  0  0  0  0  0  0  0  0  0
    0.3550   63.0150   71.2930 C   0  0  0  0  0  0  0  0  0  0  0  0
    1.5180   62.3460   71.4510 N   0  0  0  0  0  4  0  0  0  0  0  0
    2.6900   62.9010   71.0590 C   0  0  0  0  0  0  0  0  0  0  0  0
    2.7200   64.1660   70.4840 C   0  0  0  0  0  0  0  0  0  0  0  0
    1.5130   60.9810   72.0300 C   0  0  0  0  0  0  0  0  0  0  0  0
    1.7400   61.0460   73.5020 C   0  0  0  0  0  0  0  0  0  0  0  0
    2.8670   60.6210   74.1870 C   0  0  0  0  0  0  0  0  0  0  0  0
    2.7390   60.8370   75.5220 O   0  0  0  0  0  0  0  0  0  0  0  0
    1.5130   61.3910   75.7050 C   0  0  0  0  0  0  0  0  0  0  0  0
    0.8510   61.5420   74.5080 C   0  0  0  0  0  0  0  0  0  0  0  0
    1.1400   61.7130   77.0470 N   0  0  0  0  0  4  0  0  0  0  0  0
    1.2930   60.8480   77.9140 O   0  0  0  0  0  0  0  0  0  0  0  0
    0.6970   62.8570   77.2190 O   0  0  0  0  0  1  0  0  0  0  0  0
    0.1434   67.7593   70.1119 H   0  0  0  0  0  0  0  0  0  0  0  0
   -0.5912   66.1032   69.8914 H   0  0  0  0  0  0  0  0  0  0  0  0
    3.4025   68.1680   63.8588 H   0  0  0  0  0  0  0  0  0  0  0  0
   -0.1413   69.0812   67.1678 H   0  0  0  0  0  0  0  0  0  0  0  0
    1.5081   69.5884   68.7278 H   0  0  0  0  0  0  0  0  0  0  0  0
    2.1222   67.9221   68.8082 H   0  0  0  0  0  0  0  0  0  0  0  0
    4.0841   70.2998   68.3516 H   0  0  0  0  0  0  0  0  0  0  0  0
    5.1724   68.0924   62.9260 H   0  0  0  0  0  0  0  0  0  0  0  0
    4.7244   69.7132   62.2944 H   0  0  0  0  0  0  0  0  0  0  0  0
    6.4438   69.1930   62.2944 H   0  0  0  0  0  0  0  0  0  0  0  0
    6.1238   70.7762   68.5396 H   0  0  0  0  0  0  0  0  0  0  0  0
    7.2167   69.6344   67.6860 H   0  0  0  0  0  0  0  0  0  0  0  0
    7.5787   71.3938   67.6860 H   0  0  0  0  0  0  0  0  0  0  0  0
    1.8754   66.0364   68.5465 H   0  0  0  0  0  0  0  0  0  0  0  0
    2.1640   66.8787   70.1421 H   0  0  0  0  0  0  0  0  0  0  0  0
   -0.6143   64.8227   70.6110 H   0  0  0  0  0  0  0  0  0  0  0  0
   -0.5879   62.5513   71.6185 H   0  0  0  0  0  0  0  0  0  0  0  0
    3.6285   62.3442   71.1973 H   0  0  0  0  0  0  0  0  0  0  0  0
    3.6782   64.6118   70.1788 H   0  0  0  0  0  0  0  0  0  0  0  0
    0.5406   60.5061   71.8328 H   0  0  0  0  0  0  0  0  0  0  0  0
    2.3189   60.3919   71.5679 H   0  0  0  0  0  0  0  0  0  0  0  0
    3.7497   60.1680   73.7120 H   0  0  0  0  0  0  0  0  0  0  0  0
   -0.1555   61.9587   74.3556 H   0  0  0  0  0  0  0  0  0  0  0  0
  2  1  1  0
  3  2  2  0
  5  4  2  0
  6  5  1  0
  7  6  1  0
  8  7  1  0
  8  2  1  0
  9  8  1  0
 10  9  1  0
 10  6  2  0
 11 10  1  0
 12  4  1  0
 12 11  2  0
 14  4  1  0
 14 13  1  0
 15 12  1  0
 16 15  1  0
 17  1  1  0
 18 17  1  0
 19 18  2  0
 20 19  1  0
 21 20  2  0
 22 21  1  0
 23 22  2  0
 23 18  1  0
 24 21  1  0
 25 24  1  0
 26 25  2  0
 27 26  1  0
 28 27  1  0
 29 28  2  0
 29 25  1  0
 30 28  1  0
 31 30  2  0
 32 30  1  0
  1 33  1  0
  1 34  1  0
  5 35  1  0
  8 36  1  6
  9 37  1  0
  9 38  1  0
 11 39  1  0
 13 40  1  0
 13 41  1  0
 13 42  1  0
 16 43  1  0
 16 44  1  0
 16 45  1  0
 17 46  1  0
 17 47  1  0
 19 48  1  0
 20 49  1  0
 22 50  1  0
 23 51  1  0
 24 52  1  0
 24 53  1  0
 26 54  1  0
 29 55  1  0
M  CHG  3  21   1  30   1  32  -1
M  END
>  <score>  (8) 
-8.527

$$$$
=
     RDKit          3D

 55 58  0  0  0  0  0  0  0  0999 V2000
    0.1280   66.7840   69.5030 C   0  0  0  0  0  0  0  0  0  0  0  0
   -0.3570   67.2110   68.1250 C   0  0  0  0  0  0  0  0  0  0  0  0
   -1.4020   66.7360   67.6690 O   0  0  0  0  0  0  0  0  0  0  0  0
    4.5810   69.4640   65.0430 C   0  0  0  0  0  0  0  0  0  0  0  0
    3.4440   68.6810   64.8180 C   0  0  0  0  0  0  0  0  0  0  0  0
    2.5460   68.4900   65.8580 C   0  0  0  0  0  0  0  0  0  0  0  0
    1.0540   67.5420   65.7960 S   0  0  0  0  0  0  0  0  0  0  0  0
    0.4670   68.2460   67.3760 C   0  0  2  0  0  0  0  0  0  0  0  0
    1.7220   68.6970   68.1420 C   0  0  0  0  0  0  0  0  0  0  0  0
    2.7560   69.0580   67.1130 C   0  0  0  0  0  0  0  0  0  0  0  0
    3.8900   69.8270   67.3560 C   0  0  0  0  0  0  0  0  0  0  0  0
    4.8070   70.0390   66.3190 C   0  0  0  0  0  0  0  0  0  0  0  0
    5.4180   69.0770   62.8340 C   0  0  0  0  0  0  0  0  0  0  0  0
    5.5410   69.7230   64.0940 O   0  0  0  0  0  0  0  0  0  0  0  0
    5.9570   70.7790   66.4450 O   0  0  0  0  0  0  0  0  0  0  0  0
    6.7650   70.5630   67.5930 C   0  0  0  0  0  0  0  0  0  0  0  0
    1.4930   66.0940   69.4770 C   0  0  0  0  0  0  0  0  0  0  0  0
    1.6000   64.9280   70.4330 C   0  0  0  0  0  0  0  0  0  0  0  0
    0.5160   64.5720   71.2370 C   0  0  0  0  0  0  0  0  0  0  0  0
    0.5910   63.4370   72.0350 C   0  0  0  0  0  0  0  0  0  0  0  0
    1.7110   62.6790   72.0520 N   0  0  0  0  0  4  0  0  0  0  0  0
    2.7810   63.0160   71.2930 C   0  0  0  0  0  0  0  0  0  0  0  0
    2.7490   64.1410   70.4790 C   0  0  0  0  0  0  0  0  0  0  0  0
    1.7600   61.4540   72.8850 C   0  0  0  0  0  0  0  0  0  0  0  0
    0.5260   61.3440   73.7140 C   0  0  0  0  0  0  0  0  0  0  0  0
    0.3530   61.8030   75.0100 C   0  0  0  0  0  0  0  0  0  0  0  0
   -0.9030   61.5410   75.4580 O   0  0  0  0  0  0  0  0  0  0  0  0
   -1.5420   60.8940   74.4510 C   0  0  0  0  0  0  0  0  0  0  0  0
   -0.7210   60.7380   73.3570 C   0  0  0  0  0  0  0  0  0  0  0  0
   -2.8990   60.5060   74.6860 N   0  0  0  0  0  4  0  0  0  0  0  0
   -3.1570   59.9140   75.7390 O   0  0  0  0  0  0  0  0  0  0  0  0
   -3.7050   60.8160   73.7990 O   0  0  0  0  0  1  0  0  0  0  0  0
    0.2007   67.6778   70.1400 H   0  0  0  0  0  0  0  0  0  0  0  0
   -0.5981   66.0553   69.8926 H   0  0  0  0  0  0  0  0  0  0  0  0
    3.2650   68.2245   63.8333 H   0  0  0  0  0  0  0  0  0  0  0  0
   -0.1987   69.1103   67.2354 H   0  0  0  0  0  0  0  0  0  0  0  0
    1.4894   69.5715   68.7674 H   0  0  0  0  0  0  0  0  0  0  0  0
    2.0876   67.8978   68.8036 H   0  0  0  0  0  0  0  0  0  0  0  0
    4.0641   70.2632   68.3507 H   0  0  0  0  0  0  0  0  0  0  0  0
    5.2143   68.0072   62.9888 H   0  0  0  0  0  0  0  0  0  0  0  0
    4.5900   69.5299   62.2690 H   0  0  0  0  0  0  0  0  0  0  0  0
    6.3545   69.1939   62.2690 H   0  0  0  0  0  0  0  0  0  0  0  0
    6.1638   70.7237   68.5000 H   0  0  0  0  0  0  0  0  0  0  0  0
    7.1465   69.5313   67.5840 H   0  0  0  0  0  0  0  0  0  0  0  0
    7.6104   71.2667   67.5840 H   0  0  0  0  0  0  0  0  0  0  0  0
    1.6770   65.7254   68.4570 H   0  0  0  0  0  0  0  0  0  0  0  0
    2.2374   66.8396   69.7931 H   0  0  0  0  0  0  0  0  0  0  0  0
   -0.3952   65.1883   71.2389 H   0  0  0  0  0  0  0  0  0  0  0  0
   -0.2689   63.1522   72.6590 H   0  0  0  0  0  0  0  0  0  0  0  0
    3.6860   62.3914   71.3216 H   0  0  0  0  0  0  0  0  0  0  0  0
    3.6270   64.4096   69.8732 H   0  0  0  0  0  0  0  0  0  0  0  0
    1.8378   60.5730   72.2310 H   0  0  0  0  0  0  0  0  0  0  0  0
    2.6348   61.5074   73.5498 H   0  0  0  0  0  0  0  0  0  0  0  0
    1.1301   62.3124   75.5987 H   0  0  0  0  0  0  0  0  0  0  0  0
   -0.9716   60.2484   72.4044 H   0  0  0  0  0  0  0  0  0  0  0  0
  2  1  1  0
  3  2  2  0
  5  4  2  0
  6  5  1  0
  7  6  1  0
  8  7  1  0
  8  2  1  0
  9  8  1  0
 10  9  1  0
 10  6  2  0
 11 10  1  0
 12  4  1  0
 12 11  2  0
 14  4  1  0
 14 13  1  0
 15 12  1  0
 16 15  1  0
 17  1  1  0
 18 17  1  0
 19 18  2  0
 20 19  1  0
 21 20  2  0
 22 21  1  0
 23 22  2  0
 23 18  1  0
 24 21  1  0
 25 24  1  0
 26 25  2  0
 27 26  1  0
 28 27  1  0
 29 28  2  0
 29 25  1  0
 30 28  1  0
 31 30  2  0
 32 30  1  0
  1 33  1  0
  1 34  1  0
  5 35  1  0
  8 36  1  6
  9 37  1  0
  9 38  1  0
 11 39  1  0
 13 40  1  0
 13 41  1  0
 13 42  1  0
 16 43  1  0
 16 44  1  0
 16 45  1  0
 17 46  1  0
 17 47  1  0
 19 48  1  0
 20 49  1  0
 22 50  1  0
 23 51  1  0
 24 52  1  0
 24 53  1  0
 26 54  1  0
 29 55  1  0
M  CHG  3  21   1  30   1  32  -1
M  END
>  <score>  (9) 
-8.417

$$$$
