=
     RDKit          3D

 33 33  0  0  0  0  0  0  0  0999 V2000
    3.8250   69.3020   65.7180 C   0  0  0  0  0  0  0  0  0  0  0  0
    3.1020   69.4560   66.9160 C   0  0  0  0  0  0  0  0  0  0  0  0
    3.6950   70.0130   68.0530 C   0  0  0  0  0  0  0  0  0  0  0  0
    5.0520   70.3380   68.0110 C   0  0  0  0  0  0  0  0  0  0  0  0
    5.7820   70.2100   66.8280 C   0  0  0  0  0  0  0  0  0  0  0  0
    5.1640   69.7000   65.6920 C   0  0  0  0  0  0  0  0  0  0  0  0
    3.0050   70.0250   69.2660 N   0  0  0  0  0  0  0  0  0  0  0  0
    5.8700   69.5470   64.5330 O   0  0  0  0  0  0  0  0  0  0  0  0
    3.1620   68.6890   64.5170 C   0  0  0  0  0  0  0  0  0  0  0  0
    3.6690   67.2830   64.2110 N   0  0  0  0  0  4  0  0  0  0  0  0
    3.3500   64.8500   64.6120 C   0  0  0  0  0  0  0  0  0  0  0  0
    2.7010   66.2210   64.6840 C   0  0  0  0  0  0  0  0  0  0  0  0
    4.0260   67.1400   62.7420 C   0  0  0  0  0  0  0  0  0  0  0  0
    3.4170   68.2760   61.9360 C   0  0  0  0  0  0  0  0  0  0  0  0
    2.0516   69.1323   66.9583 H   0  0  0  0  0  0  0  0  0  0  0  0
    5.5523   70.6995   68.9215 H   0  0  0  0  0  0  0  0  0  0  0  0
    6.8396   70.5108   66.7949 H   0  0  0  0  0  0  0  0  0  0  0  0
    3.4424   70.4355   70.1033 H   0  0  0  0  0  0  0  0  0  0  0  0
    2.0583   69.6234   69.3240 H   0  0  0  0  0  0  0  0  0  0  0  0
    6.8201   69.8223   64.4921 H   0  0  0  0  0  0  0  0  0  0  0  0
    2.0788   68.6389   64.7016 H   0  0  0  0  0  0  0  0  0  0  0  0
    3.4010   69.3218   63.6495 H   0  0  0  0  0  0  0  0  0  0  0  0
    4.5368   67.1353   64.7457 H   0  0  0  0  0  0  0  0  0  0  0  0
    3.5277   64.4745   65.6305 H   0  0  0  0  0  0  0  0  0  0  0  0
    2.6844   64.1569   64.0767 H   0  0  0  0  0  0  0  0  0  0  0  0
    4.3080   64.9255   64.0767 H   0  0  0  0  0  0  0  0  0  0  0  0
    1.8066   66.2336   64.0438 H   0  0  0  0  0  0  0  0  0  0  0  0
    2.4198   66.4306   65.7266 H   0  0  0  0  0  0  0  0  0  0  0  0
    5.1201   67.1627   62.6310 H   0  0  0  0  0  0  0  0  0  0  0  0
    3.6281   66.1846   62.3693 H   0  0  0  0  0  0  0  0  0  0  0  0
    3.0103   69.0346   62.6209 H   0  0  0  0  0  0  0  0  0  0  0  0
    4.1916   68.7320   61.3019 H   0  0  0  0  0  0  0  0  0  0  0  0
    2.6084   67.8833   61.3019 H   0  0  0  0  0  0  0  0  0  0  0  0
  2  1  2  0
  3  2  1  0
  4  3  2  0
  5  4  1  0
  6  1  1  0
  6  5  2  0
  7  3  1  0
  8  6  1  0
  9  1  1  0
 10  9  1  0
 12 11  1  0
 12 10  1  0
 13 10  1  0
 14 13  1  0
  2 15  1  0
  4 16  1  0
  5 17  1  0
  7 18  1  0
  7 19  1  0
  8 20  1  0
  9 21  1  0
  9 22  1  0
 10 23  1  0
 11 24  1  0
 11 25  1  0
 11 26  1  0
 12 27  1  0
 12 28  1  0
 13 29  1  0
 13 30  1  0
 14 31  1  0
 14 32  1  0
 14 33  1  0
M  CHG  1  10   1
M  END
>  <score>  (1) 
-7.089

$$$$
=
     RDKit          3D

 33 33  0  0  0  0  0  0  0  0999 V2000
    3.9070   69.2580   66.0890 C   0  0  0  0  0  0  0  0  0  0  0  0
    3.1720   69.5500   67.2520 C   0  0  0  0  0  0  0  0  0  0  0  0
    3.7430   70.2650   68.3090 C   0  0  0  0  0  0  0  0  0  0  0  0
    5.0930   70.6140   68.2310 C   0  0  0  0  0  0  0  0  0  0  0  0
    5.8350   70.3490   67.0790 C   0  0  0  0  0  0  0  0  0  0  0  0
    5.2370   69.6810   66.0160 C   0  0  0  0  0  0  0  0  0  0  0  0
    3.0440   70.4190   69.5080 N   0  0  0  0  0  0  0  0  0  0  0  0
    5.9550   69.3940   64.8910 O   0  0  0  0  0  0  0  0  0  0  0  0
    3.2680   68.4780   64.9740 C   0  0  0  0  0  0  0  0  0  0  0  0
    1.7440   68.5250   65.0150 N   0  0  0  0  0  4  0  0  0  0  0  0
    2.1470   68.5890   62.5620 C   0  0  0  0  0  0  0  0  0  0  0  0
    1.1570   68.8980   63.6710 C   0  0  0  0  0  0  0  0  0  0  0  0
    1.1730   67.2310   65.5660 C   0  0  0  0  0  0  0  0  0  0  0  0
    0.0920   67.5240   66.5930 C   0  0  0  0  0  0  0  0  0  0  0  0
    2.1290   69.2096   67.3314 H   0  0  0  0  0  0  0  0  0  0  0  0
    5.5776   71.1039   69.0884 H   0  0  0  0  0  0  0  0  0  0  0  0
    6.8861   70.6665   67.0123 H   0  0  0  0  0  0  0  0  0  0  0  0
    3.4658   70.9460   70.2860 H   0  0  0  0  0  0  0  0  0  0  0  0
    2.1066   70.0056   69.6144 H   0  0  0  0  0  0  0  0  0  0  0  0
    6.8987   69.6843   64.8186 H   0  0  0  0  0  0  0  0  0  0  0  0
    3.6065   68.8958   64.0144 H   0  0  0  0  0  0  0  0  0  0  0  0
    3.5693   67.4266   65.0914 H   0  0  0  0  0  0  0  0  0  0  0  0
    1.4672   69.2747   65.6648 H   0  0  0  0  0  0  0  0  0  0  0  0
    3.1091   68.2887   63.0026 H   0  0  0  0  0  0  0  0  0  0  0  0
    1.7569   67.7699   61.9400 H   0  0  0  0  0  0  0  0  0  0  0  0
    2.2921   69.4846   61.9400 H   0  0  0  0  0  0  0  0  0  0  0  0
    0.9250   69.9732   63.6617 H   0  0  0  0  0  0  0  0  0  0  0  0
    0.2395   68.3142   63.5058 H   0  0  0  0  0  0  0  0  0  0  0  0
    0.7404   66.6456   64.7413 H   0  0  0  0  0  0  0  0  0  0  0  0
    1.9805   66.6623   66.0502 H   0  0  0  0  0  0  0  0  0  0  0  0
    0.5077   67.4113   67.6052 H   0  0  0  0  0  0  0  0  0  0  0  0
   -0.2721   68.5532   66.4586 H   0  0  0  0  0  0  0  0  0  0  0  0
   -0.7421   66.8195   66.4586 H   0  0  0  0  0  0  0  0  0  0  0  0
  2  1  2  0
  3  2  1  0
  4  3  2  0
  5  4  1  0
  6  1  1  0
  6  5  2  0
  7  3  1  0
  8  6  1  0
  9  1  1  0
 10  9  1  0
 12 11  1  0
 12 10  1  0
 13 10  1  0
 14 13  1  0
  2 15  1  0
  4 16  1  0
  5 17  1  0
  7 18  1  0
  7 19  1  0
  8 20  1  0
  9 21  1  0
  9 22  1  0
 10 23  1  0
 11 24  1  0
 11 25  1  0
 11 26  1  0
 12 27  1  0
 12 28  1  0
 13 29  1  0
 13 30  1  0
 14 31  1  0
 14 32  1  0
 14 33  1  0
M  CHG  1  10   1
M  END
>  <score>  (2) 
-6.657

$$$$
=
     RDKit          3D

 33 33  0  0  0  0  0  0  0  0999 V2000
    3.1780   69.3440   66.7500 C   0  0  0  0  0  0  0  0  0  0  0  0
    4.5220   69.4650   66.3490 C   0  0  0  0  0  0  0  0  0  0  0  0
    5.4780   70.0440   67.1880 C   0  0  0  0  0  0  0  0  0  0  0  0
    5.0630   70.5840   68.4070 C   0  0  0  0  0  0  0  0  0  0  0  0
    3.7390   70.4590   68.8310 C   0  0  0  0  0  0  0  0  0  0  0  0
    2.8100   69.8350   68.0050 C   0  0  0  0  0  0  0  0  0  0  0  0
    6.7700   70.2830   66.7160 N   0  0  0  0  0  0  0  0  0  0  0  0
    1.5060   69.7250   68.3950 O   0  0  0  0  0  0  0  0  0  0  0  0
    2.1720   68.7270   65.8200 C   0  0  0  0  0  0  0  0  0  0  0  0
    2.8100   67.8270   64.7670 N   0  0  0  0  0  4  0  0  0  0  0  0
    3.3970   65.4220   64.5300 C   0  0  0  0  0  0  0  0  0  0  0  0
    2.2880   66.4090   64.8480 C   0  0  0  0  0  0  0  0  0  0  0  0
    2.6670   68.4260   63.3790 C   0  0  0  0  0  0  0  0  0  0  0  0
    4.0350   68.7080   62.7810 C   0  0  0  0  0  0  0  0  0  0  0  0
    4.8251   69.0973   65.3576 H   0  0  0  0  0  0  0  0  0  0  0  0
    5.7886   71.1146   69.0411 H   0  0  0  0  0  0  0  0  0  0  0  0
    3.4323   70.8514   69.8118 H   0  0  0  0  0  0  0  0  0  0  0  0
    7.4738   70.7098   67.3352 H   0  0  0  0  0  0  0  0  0  0  0  0
    7.0194   70.0325   65.7485 H   0  0  0  0  0  0  0  0  0  0  0  0
    1.2236   70.0664   69.2804 H   0  0  0  0  0  0  0  0  0  0  0  0
    1.4670   68.1268   66.4139 H   0  0  0  0  0  0  0  0  0  0  0  0
    1.6662   69.5475   65.2899 H   0  0  0  0  0  0  0  0  0  0  0  0
    3.8188   67.7711   64.9671 H   0  0  0  0  0  0  0  0  0  0  0  0
    3.8271   65.0392   65.4673 H   0  0  0  0  0  0  0  0  0  0  0  0
    2.9866   64.5849   63.9462 H   0  0  0  0  0  0  0  0  0  0  0  0
    4.1808   65.9268   63.9462 H   0  0  0  0  0  0  0  0  0  0  0  0
    1.4696   66.2814   64.1241 H   0  0  0  0  0  0  0  0  0  0  0  0
    1.9211   66.2197   65.8676 H   0  0  0  0  0  0  0  0  0  0  0  0
    2.1276   67.7182   62.7325 H   0  0  0  0  0  0  0  0  0  0  0  0
    2.1083   69.3706   63.4536 H   0  0  0  0  0  0  0  0  0  0  0  0
    4.7649   68.8585   63.5901 H   0  0  0  0  0  0  0  0  0  0  0  0
    4.3466   67.8552   62.1600 H   0  0  0  0  0  0  0  0  0  0  0  0
    3.9839   69.6145   62.1600 H   0  0  0  0  0  0  0  0  0  0  0  0
  2  1  2  0
  3  2  1  0
  4  3  2  0
  5  4  1  0
  6  1  1  0
  6  5  2  0
  7  3  1  0
  8  6  1  0
  9  1  1  0
 10  9  1  0
 12 11  1  0
 12 10  1  0
 13 10  1  0
 14 13  1  0
  2 15  1  0
  4 16  1  0
  5 17  1  0
  7 18  1  0
  7 19  1  0
  8 20  1  0
  9 21  1  0
  9 22  1  0
 10 23  1  0
 11 24  1  0
 11 25  1  0
 11 26  1  0
 12 27  1  0
 12 28  1  0
 13 29  1  0
 13 30  1  0
 14 31  1  0
 14 32  1  0
 14 33  1  0
M  CHG  1  10   1
M  END
>  <score>  (3) 
-6.536

$$$$
=
     RDKit          3D

 33 33  0  0  0  0  0  0  0  0999 V2000
    4.1610   69.3040   65.8750 C   0  0  0  0  0  0  0  0  0  0  0  0
    2.8880   69.1360   66.4480 C   0  0  0  0  0  0  0  0  0  0  0  0
    2.6070   69.5970   67.7380 C   0  0  0  0  0  0  0  0  0  0  0  0
    3.6420   70.1560   68.4900 C   0  0  0  0  0  0  0  0  0  0  0  0
    4.9080   70.3490   67.9330 C   0  0  0  0  0  0  0  0  0  0  0  0
    5.1560   69.9290   66.6310 C   0  0  0  0  0  0  0  0  0  0  0  0
    1.3850   69.2930   68.3390 N   0  0  0  0  0  0  0  0  0  0  0  0
    6.3940   70.0890   66.0800 O   0  0  0  0  0  0  0  0  0  0  0  0
    4.4340   68.7870   64.4900 C   0  0  0  0  0  0  0  0  0  0  0  0
    3.4310   67.7280   64.0430 N   0  0  0  0  0  4  0  0  0  0  0  0
    3.6150   68.6510   61.7420 C   0  0  0  0  0  0  0  0  0  0  0  0
    2.6600   68.1650   62.8180 C   0  0  0  0  0  0  0  0  0  0  0  0
    4.1070   66.3810   63.8620 C   0  0  0  0  0  0  0  0  0  0  0  0
    3.2770   65.2810   64.5030 C   0  0  0  0  0  0  0  0  0  0  0  0
    2.0984   68.6326   65.8708 H   0  0  0  0  0  0  0  0  0  0  0  0
    3.4579   70.4481   69.5344 H   0  0  0  0  0  0  0  0  0  0  0  0
    5.7038   70.8302   68.5205 H   0  0  0  0  0  0  0  0  0  0  0  0
    1.1796   69.6333   69.2892 H   0  0  0  0  0  0  0  0  0  0  0  0
    0.6883   68.7283   67.8324 H   0  0  0  0  0  0  0  0  0  0  0  0
    7.1134   70.5292   66.5984 H   0  0  0  0  0  0  0  0  0  0  0  0
    4.3908   69.6308   63.7856 H   0  0  0  0  0  0  0  0  0  0  0  0
    5.4277   68.3155   64.5037 H   0  0  0  0  0  0  0  0  0  0  0  0
    2.7331   67.6152   64.7921 H   0  0  0  0  0  0  0  0  0  0  0  0
    4.5005   69.1016   62.2140 H   0  0  0  0  0  0  0  0  0  0  0  0
    3.9255   67.8012   61.1163 H   0  0  0  0  0  0  0  0  0  0  0  0
    3.1108   69.4022   61.1163 H   0  0  0  0  0  0  0  0  0  0  0  0
    1.9755   68.9814   63.0918 H   0  0  0  0  0  0  0  0  0  0  0  0
    2.0882   67.3091   62.4300 H   0  0  0  0  0  0  0  0  0  0  0  0
    4.2174   66.1724   62.7876 H   0  0  0  0  0  0  0  0  0  0  0  0
    5.0949   66.4099   64.3450 H   0  0  0  0  0  0  0  0  0  0  0  0
    3.3402   65.3648   65.5980 H   0  0  0  0  0  0  0  0  0  0  0  0
    2.2281   65.3820   64.1875 H   0  0  0  0  0  0  0  0  0  0  0  0
    3.6620   64.3001   64.1875 H   0  0  0  0  0  0  0  0  0  0  0  0
  2  1  2  0
  3  2  1  0
  4  3  2  0
  5  4  1  0
  6  1  1  0
  6  5  2  0
  7  3  1  0
  8  6  1  0
  9  1  1  0
 10  9  1  0
 12 11  1  0
 12 10  1  0
 13 10  1  0
 14 13  1  0
  2 15  1  0
  4 16  1  0
  5 17  1  0
  7 18  1  0
  7 19  1  0
  8 20  1  0
  9 21  1  0
  9 22  1  0
 10 23  1  0
 11 24  1  0
 11 25  1  0
 11 26  1  0
 12 27  1  0
 12 28  1  0
 13 29  1  0
 13 30  1  0
 14 31  1  0
 14 32  1  0
 14 33  1  0
M  CHG  1  10   1
M  END
>  <score>  (4) 
-6.511

$$$$
=
     RDKit          3D

 33 33  0  0  0  0  0  0  0  0999 V2000
    2.6730   68.5190   64.5650 C   0  0  0  0  0  0  0  0  0  0  0  0
    3.1850   68.9800   65.7910 C   0  0  0  0  0  0  0  0  0  0  0  0
    4.4470   69.5760   65.8710 C   0  0  0  0  0  0  0  0  0  0  0  0
    5.2370   69.6300   64.7210 C   0  0  0  0  0  0  0  0  0  0  0  0
    4.7400   69.1950   63.4910 C   0  0  0  0  0  0  0  0  0  0  0  0
    3.4630   68.6500   63.4210 C   0  0  0  0  0  0  0  0  0  0  0  0
    4.9930   69.8940   67.1160 N   0  0  0  0  0  0  0  0  0  0  0  0
    2.9710   68.1990   62.2300 O   0  0  0  0  0  0  0  0  0  0  0  0
    1.3160   67.8730   64.5150 C   0  0  0  0  0  0  0  0  0  0  0  0
    0.1850   68.8810   64.3430 N   0  0  0  0  0  4  0  0  0  0  0  0
    0.0050   69.9390   62.1000 C   0  0  0  0  0  0  0  0  0  0  0  0
   -0.4510   68.7840   62.9740 C   0  0  0  0  0  0  0  0  0  0  0  0
   -0.8260   68.7620   65.4700 C   0  0  0  0  0  0  0  0  0  0  0  0
   -0.3260   67.7960   66.5310 C   0  0  0  0  0  0  0  0  0  0  0  0
    2.5813   68.8696   66.7039 H   0  0  0  0  0  0  0  0  0  0  0  0
    6.2635   70.0201   64.7849 H   0  0  0  0  0  0  0  0  0  0  0  0
    5.3549   69.2829   62.5831 H   0  0  0  0  0  0  0  0  0  0  0  0
    5.9229   70.3331   67.1735 H   0  0  0  0  0  0  0  0  0  0  0  0
    4.4659   69.6895   67.9769 H   0  0  0  0  0  0  0  0  0  0  0  0
    3.5144   68.2820   61.4066 H   0  0  0  0  0  0  0  0  0  0  0  0
    1.2924   67.1711   63.6684 H   0  0  0  0  0  0  0  0  0  0  0  0
    1.1586   67.3610   65.4757 H   0  0  0  0  0  0  0  0  0  0  0  0
    0.5901   69.8262   64.4020 H   0  0  0  0  0  0  0  0  0  0  0  0
    0.3343   70.7731   62.7370 H   0  0  0  0  0  0  0  0  0  0  0  0
    0.8409   69.6105   61.4649 H   0  0  0  0  0  0  0  0  0  0  0  0
   -0.8299   70.2701   61.4649 H   0  0  0  0  0  0  0  0  0  0  0  0
   -1.5455   68.8179   63.0788 H   0  0  0  0  0  0  0  0  0  0  0  0
   -0.1475   67.8370   62.5039 H   0  0  0  0  0  0  0  0  0  0  0  0
   -0.9799   69.7517   65.9247 H   0  0  0  0  0  0  0  0  0  0  0  0
   -1.7737   68.3824   65.0603 H   0  0  0  0  0  0  0  0  0  0  0  0
   -0.5382   68.2060   67.5294 H   0  0  0  0  0  0  0  0  0  0  0  0
   -0.8365   66.8285   66.4158 H   0  0  0  0  0  0  0  0  0  0  0  0
    0.7587   67.6542   66.4158 H   0  0  0  0  0  0  0  0  0  0  0  0
  2  1  2  0
  3  2  1  0
  4  3  2  0
  5  4  1  0
  6  1  1  0
  6  5  2  0
  7  3  1  0
  8  6  1  0
  9  1  1  0
 10  9  1  0
 12 11  1  0
 12 10  1  0
 13 10  1  0
 14 13  1  0
  2 15  1  0
  4 16  1  0
  5 17  1  0
  7 18  1  0
  7 19  1  0
  8 20  1  0
  9 21  1  0
  9 22  1  0
 10 23  1  0
 11 24  1  0
 11 25  1  0
 11 26  1  0
 12 27  1  0
 12 28  1  0
 13 29  1  0
 13 30  1  0
 14 31  1  0
 14 32  1  0
 14 33  1  0
M  CHG  1  10   1
M  END
>  <score>  (5) 
-6.173

$$$$
=
     RDKit          3D

 33 33  0  0  0  0  0  0  0  0999 V2000
    2.6840   68.5770   65.5280 C   0  0  0  0  0  0  0  0  0  0  0  0
    3.6170   68.7010   64.4820 C   0  0  0  0  0  0  0  0  0  0  0  0
    4.8450   69.3380   64.6790 C   0  0  0  0  0  0  0  0  0  0  0  0
    5.1020   69.9320   65.9160 C   0  0  0  0  0  0  0  0  0  0  0  0
    4.1970   69.8050   66.9720 C   0  0  0  0  0  0  0  0  0  0  0  0
    3.0010   69.1250   66.7720 C   0  0  0  0  0  0  0  0  0  0  0  0
    5.6920   69.5750   63.5940 N   0  0  0  0  0  0  0  0  0  0  0  0
    2.0960   69.0110   67.7880 O   0  0  0  0  0  0  0  0  0  0  0  0
    1.3670   67.8950   65.2800 C   0  0  0  0  0  0  0  0  0  0  0  0
    0.2170   68.8780   65.0850 N   0  0  0  0  0  4  0  0  0  0  0  0
    0.4760   69.4550   62.6800 C   0  0  0  0  0  0  0  0  0  0  0  0
   -0.3980   68.7580   63.7080 C   0  0  0  0  0  0  0  0  0  0  0  0
   -0.8070   68.7470   66.1980 C   0  0  0  0  0  0  0  0  0  0  0  0
   -0.7390   67.3620   66.8200 C   0  0  0  0  0  0  0  0  0  0  0  0
    3.3753   68.2890   63.4911 H   0  0  0  0  0  0  0  0  0  0  0  0
    6.0285   70.5070   66.0606 H   0  0  0  0  0  0  0  0  0  0  0  0
    4.4289   70.2400   67.9553 H   0  0  0  0  0  0  0  0  0  0  0  0
    6.5970   70.0446   63.7401 H   0  0  0  0  0  0  0  0  0  0  0  0
    5.4116   69.2802   62.6478 H   0  0  0  0  0  0  0  0  0  0  0  0
    2.3007   69.3925   68.6783 H   0  0  0  0  0  0  0  0  0  0  0  0
    1.4571   67.2762   64.3750 H   0  0  0  0  0  0  0  0  0  0  0  0
    1.1364   67.2893   66.1688 H   0  0  0  0  0  0  0  0  0  0  0  0
    0.6021   69.8315   65.1429 H   0  0  0  0  0  0  0  0  0  0  0  0
    1.2359   70.0610   63.1952 H   0  0  0  0  0  0  0  0  0  0  0  0
    0.9726   68.7022   62.0501 H   0  0  0  0  0  0  0  0  0  0  0  0
   -0.1474   70.1066   62.0501 H   0  0  0  0  0  0  0  0  0  0  0  0
   -1.3944   69.2239   63.7134 H   0  0  0  0  0  0  0  0  0  0  0  0
   -0.4823   67.6934   63.4444 H   0  0  0  0  0  0  0  0  0  0  0  0
   -0.6008   69.5020   66.9710 H   0  0  0  0  0  0  0  0  0  0  0  0
   -1.8120   68.9007   65.7782 H   0  0  0  0  0  0  0  0  0  0  0  0
   -0.7434   67.4518   67.9163 H   0  0  0  0  0  0  0  0  0  0  0  0
   -1.6093   66.7718   66.4969 H   0  0  0  0  0  0  0  0  0  0  0  0
    0.1849   66.8599   66.4969 H   0  0  0  0  0  0  0  0  0  0  0  0
  2  1  2  0
  3  2  1  0
  4  3  2  0
  5  4  1  0
  6  1  1  0
  6  5  2  0
  7  3  1  0
  8  6  1  0
  9  1  1  0
 10  9  1  0
 12 11  1  0
 12 10  1  0
 13 10  1  0
 14 13  1  0
  2 15  1  0
  4 16  1  0
  5 17  1  0
  7 18  1  0
  7 19  1  0
  8 20  1  0
  9 21  1  0
  9 22  1  0
 10 23  1  0
 11 24  1  0
 11 25  1  0
 11 26  1  0
 12 27  1  0
 12 28  1  0
 13 29  1  0
 13 30  1  0
 14 31  1  0
 14 32  1  0
 14 33  1  0
M  CHG  1  10   1
M  END
>  <score>  (6) 
-6.129

$$$$
=
     RDKit          3D

 33 33  0  0  0  0  0  0  0  0999 V2000
    2.2490   68.1020   65.3710 C   0  0  0  0  0  0  0  0  0  0  0  0
    3.2560   69.0840   65.4010 C   0  0  0  0  0  0  0  0  0  0  0  0
    4.5060   68.8580   64.8150 C   0  0  0  0  0  0  0  0  0  0  0  0
    4.7740   67.6010   64.2710 C   0  0  0  0  0  0  0  0  0  0  0  0
    3.7830   66.6190   64.2150 C   0  0  0  0  0  0  0  0  0  0  0  0
    2.5290   66.8780   64.7580 C   0  0  0  0  0  0  0  0  0  0  0  0
    5.5340   69.7880   64.9810 N   0  0  0  0  0  0  0  0  0  0  0  0
    1.5570   65.9210   64.7320 O   0  0  0  0  0  0  0  0  0  0  0  0
    0.9200   68.3710   66.0200 C   0  0  0  0  0  0  0  0  0  0  0  0
    0.5970   67.3890   67.1410 N   0  0  0  0  0  4  0  0  0  0  0  0
    1.0600   66.7180   69.4900 C   0  0  0  0  0  0  0  0  0  0  0  0
    1.1930   67.8270   68.4610 C   0  0  0  0  0  0  0  0  0  0  0  0
   -0.8970   67.1340   67.2280 C   0  0  0  0  0  0  0  0  0  0  0  0
   -1.6680   68.2810   66.5950 C   0  0  0  0  0  0  0  0  0  0  0  0
    3.0569   70.0469   65.8941 H   0  0  0  0  0  0  0  0  0  0  0  0
    5.7789   67.3811   63.8813 H   0  0  0  0  0  0  0  0  0  0  0  0
    3.9926   65.6470   63.7446 H   0  0  0  0  0  0  0  0  0  0  0  0
    6.4542   69.6211   64.5493 H   0  0  0  0  0  0  0  0  0  0  0  0
    5.3722   70.6410   65.5352 H   0  0  0  0  0  0  0  0  0  0  0  0
    1.7345   65.0467   64.3027 H   0  0  0  0  0  0  0  0  0  0  0  0
    0.9330   69.3885   66.4378 H   0  0  0  0  0  0  0  0  0  0  0  0
    0.1460   68.2555   65.2470 H   0  0  0  0  0  0  0  0  0  0  0  0
    1.0420   66.4887   66.9122 H   0  0  0  0  0  0  0  0  0  0  0  0
    1.1116   67.1479   70.5012 H   0  0  0  0  0  0  0  0  0  0  0  0
    0.0943   66.2083   69.3571 H   0  0  0  0  0  0  0  0  0  0  0  0
    1.8778   65.9945   69.3571 H   0  0  0  0  0  0  0  0  0  0  0  0
    0.6629   68.7214   68.8201 H   0  0  0  0  0  0  0  0  0  0  0  0
    2.2591   68.0556   68.3153 H   0  0  0  0  0  0  0  0  0  0  0  0
   -1.1368   66.2002   66.6984 H   0  0  0  0  0  0  0  0  0  0  0  0
   -1.1840   67.0524   68.2868 H   0  0  0  0  0  0  0  0  0  0  0  0
   -2.0949   68.9161   67.3852 H   0  0  0  0  0  0  0  0  0  0  0  0
   -0.9881   68.8795   65.9709 H   0  0  0  0  0  0  0  0  0  0  0  0
   -2.4789   67.8774   65.9709 H   0  0  0  0  0  0  0  0  0  0  0  0
  2  1  2  0
  3  2  1  0
  4  3  2  0
  5  4  1  0
  6  1  1  0
  6  5  2  0
  7  3  1  0
  8  6  1  0
  9  1  1  0
 10  9  1  0
 12 11  1  0
 12 10  1  0
 13 10  1  0
 14 13  1  0
  2 15  1  0
  4 16  1  0
  5 17  1  0
  7 18  1  0
  7 19  1  0
  8 20  1  0
  9 21  1  0
  9 22  1  0
 10 23  1  0
 11 24  1  0
 11 25  1  0
 11 26  1  0
 12 27  1  0
 12 28  1  0
 13 29  1  0
 13 30  1  0
 14 31  1  0
 14 32  1  0
 14 33  1  0
M  CHG  1  10   1
M  END
>  <score>  (7) 
-6.059

$$$$
=
     RDKit          3D

 33 33  0  0  0  0  0  0  0  0999 V2000
    2.5090   68.4950   65.9700 C   0  0  0  0  0  0  0  0  0  0  0  0
    2.8930   69.3960   66.9810 C   0  0  0  0  0  0  0  0  0  0  0  0
    2.3720   69.2970   68.2750 C   0  0  0  0  0  0  0  0  0  0  0  0
    1.3920   68.3370   68.5320 C   0  0  0  0  0  0  0  0  0  0  0  0
    1.0110   67.4220   67.5480 C   0  0  0  0  0  0  0  0  0  0  0  0
    1.5760   67.5030   66.2800 C   0  0  0  0  0  0  0  0  0  0  0  0
    2.6560   70.2840   69.2200 N   0  0  0  0  0  0  0  0  0  0  0  0
    1.1970   66.6310   65.3010 O   0  0  0  0  0  0  0  0  0  0  0  0
    3.0790   68.6350   64.5870 C   0  0  0  0  0  0  0  0  0  0  0  0
    4.2460   67.6890   64.3260 N   0  0  0  0  0  4  0  0  0  0  0  0
    4.3930   65.3080   63.6230 C   0  0  0  0  0  0  0  0  0  0  0  0
    3.9330   66.7000   63.2250 C   0  0  0  0  0  0  0  0  0  0  0  0
    5.5280   68.4610   64.0740 C   0  0  0  0  0  0  0  0  0  0  0  0
    5.4620   69.1750   62.7350 C   0  0  0  0  0  0  0  0  0  0  0  0
    3.6158   70.1921   66.7491 H   0  0  0  0  0  0  0  0  0  0  0  0
    0.9137   68.3006   69.5219 H   0  0  0  0  0  0  0  0  0  0  0  0
    0.2688   66.6424   67.7746 H   0  0  0  0  0  0  0  0  0  0  0  0
    2.2719   70.2104   70.1729 H   0  0  0  0  0  0  0  0  0  0  0  0
    3.2497   71.0860   68.9645 H   0  0  0  0  0  0  0  0  0  0  0  0
    0.5369   65.9204   65.4995 H   0  0  0  0  0  0  0  0  0  0  0  0
    2.2844   68.4215   63.8569 H   0  0  0  0  0  0  0  0  0  0  0  0
    3.4598   69.6624   64.4901 H   0  0  0  0  0  0  0  0  0  0  0  0
    4.3962   67.1291   65.1774 H   0  0  0  0  0  0  0  0  0  0  0  0
    4.4188   65.2300   64.7199 H   0  0  0  0  0  0  0  0  0  0  0  0
    3.6939   64.5612   63.2186 H   0  0  0  0  0  0  0  0  0  0  0  0
    5.3994   65.1248   63.2186 H   0  0  0  0  0  0  0  0  0  0  0  0
    4.4523   67.0048   62.3045 H   0  0  0  0  0  0  0  0  0  0  0  0
    2.8462   66.6839   63.0557 H   0  0  0  0  0  0  0  0  0  0  0  0
    5.6673   69.2031   64.8739 H   0  0  0  0  0  0  0  0  0  0  0  0
    6.3722   67.7559   64.0610 H   0  0  0  0  0  0  0  0  0  0  0  0
    5.3619   70.2577   62.9014 H   0  0  0  0  0  0  0  0  0  0  0  0
    6.3825   68.9748   62.1670 H   0  0  0  0  0  0  0  0  0  0  0  0
    4.5938   68.8095   62.1670 H   0  0  0  0  0  0  0  0  0  0  0  0
  2  1  2  0
  3  2  1  0
  4  3  2  0
  5  4  1  0
  6  1  1  0
  6  5  2  0
  7  3  1  0
  8  6  1  0
  9  1  1  0
 10  9  1  0
 12 11  1  0
 12 10  1  0
 13 10  1  0
 14 13  1  0
  2 15  1  0
  4 16  1  0
  5 17  1  0
  7 18  1  0
  7 19  1  0
  8 20  1  0
  9 21  1  0
  9 22  1  0
 10 23  1  0
 11 24  1  0
 11 25  1  0
 11 26  1  0
 12 27  1  0
 12 28  1  0
 13 29  1  0
 13 30  1  0
 14 31  1  0
 14 32  1  0
 14 33  1  0
M  CHG  1  10   1
M  END
>  <score>  (8) 
-6.023

$$$$
=
     RDKit          3D

 33 33  0  0  0  0  0  0  0  0999 V2000
    2.4360   68.4030   64.6190 C   0  0  0  0  0  0  0  0  0  0  0  0
    3.6160   68.5580   63.8670 C   0  0  0  0  0  0  0  0  0  0  0  0
    3.5720   68.7850   62.4890 C   0  0  0  0  0  0  0  0  0  0  0  0
    2.3320   68.7700   61.8460 C   0  0  0  0  0  0  0  0  0  0  0  0
    1.1500   68.6360   62.5750 C   0  0  0  0  0  0  0  0  0  0  0  0
    1.2090   68.4610   63.9530 C   0  0  0  0  0  0  0  0  0  0  0  0
    4.7520   68.7920   61.7430 N   0  0  0  0  0  0  0  0  0  0  0  0
    0.0630   68.3060   64.6780 O   0  0  0  0  0  0  0  0  0  0  0  0
    2.5180   68.1490   66.0980 C   0  0  0  0  0  0  0  0  0  0  0  0
    2.0560   69.3400   66.9310 N   0  0  0  0  0  4  0  0  0  0  0  0
    0.7820   67.6210   68.1980 C   0  0  0  0  0  0  0  0  0  0  0  0
    0.7690   69.0450   67.6690 C   0  0  0  0  0  0  0  0  0  0  0  0
    3.1630   69.8230   67.8510 C   0  0  0  0  0  0  0  0  0  0  0  0
    4.4920   69.8430   67.1160 C   0  0  0  0  0  0  0  0  0  0  0  0
    4.5906   68.4993   64.3736 H   0  0  0  0  0  0  0  0  0  0  0  0
    2.2869   68.8650   60.7510 H   0  0  0  0  0  0  0  0  0  0  0  0
    0.1772   68.6686   62.0626 H   0  0  0  0  0  0  0  0  0  0  0  0
    4.7182   68.9595   60.7273 H   0  0  0  0  0  0  0  0  0  0  0  0
    5.6564   68.6297   62.2083 H   0  0  0  0  0  0  0  0  0  0  0  0
   -0.8173   68.3435   64.2265 H   0  0  0  0  0  0  0  0  0  0  0  0
    1.8841   67.2835   66.3412 H   0  0  0  0  0  0  0  0  0  0  0  0
    3.5743   67.9644   66.3433 H   0  0  0  0  0  0  0  0  0  0  0  0
    1.8427   70.1144   66.2863 H   0  0  0  0  0  0  0  0  0  0  0  0
    0.7818   67.6384   69.2979 H   0  0  0  0  0  0  0  0  0  0  0  0
   -0.1113   67.0885   67.8396 H   0  0  0  0  0  0  0  0  0  0  0  0
    1.6849   67.1049   67.8396 H   0  0  0  0  0  0  0  0  0  0  0  0
   -0.0807   69.1695   66.9816 H   0  0  0  0  0  0  0  0  0  0  0  0
    0.6728   69.7413   68.5151 H   0  0  0  0  0  0  0  0  0  0  0  0
    2.9266   70.8390   68.2000 H   0  0  0  0  0  0  0  0  0  0  0  0
    3.2395   69.1371   68.7075 H   0  0  0  0  0  0  0  0  0  0  0  0
    5.3146   69.8554   67.8461 H   0  0  0  0  0  0  0  0  0  0  0  0
    4.5754   68.9460   66.4848 H   0  0  0  0  0  0  0  0  0  0  0  0
    4.5484   70.7421   66.4848 H   0  0  0  0  0  0  0  0  0  0  0  0
  2  1  2  0
  3  2  1  0
  4  3  2  0
  5  4  1  0
  6  1  1  0
  6  5  2  0
  7  3  1  0
  8  6  1  0
  9  1  1  0
 10  9  1  0
 12 11  1  0
 12 10  1  0
 13 10  1  0
 14 13  1  0
  2 15  1  0
  4 16  1  0
  5 17  1  0
  7 18  1  0
  7 19  1  0
  8 20  1  0
  9 21  1  0
  9 22  1  0
 10 23  1  0
 11 24  1  0
 11 25  1  0
 11 26  1  0
 12 27  1  0
 12 28  1  0
 13 29  1  0
 13 30  1  0
 14 31  1  0
 14 32  1  0
 14 33  1  0
M  CHG  1  10   1
M  END
>  <score>  (9) 
-5.891

$$$$
