=
     RDKit          3D

 75 81  0  0  0  0  0  0  0  0999 V2000
   -1.7940   66.9340   68.2430 O   0  0  0  0  0  0  0  0  0  0  0  0
   -0.8000   67.2040   67.3640 C   0  0  0  0  0  0  0  0  0  0  0  0
    0.4380   66.9440   67.9190 C   0  0  0  0  0  0  0  0  0  0  0  0
    0.1690   66.4640   69.2460 C   0  0  0  0  0  0  0  0  0  0  0  0
   -1.2050   66.4930   69.3790 C   0  0  0  0  0  0  0  0  0  0  0  0
    1.1410   66.0150   70.2900 C   0  0  0  0  0  0  0  0  0  0  0  0
    0.5600   64.9100   71.1790 C   0  0  0  0  0  0  0  0  0  0  0  0
    0.3930   63.6340   70.4550 N   0  0  0  0  0  0  0  0  0  0  0  0
    1.0890   62.5510   71.0680 C   0  0  0  0  0  0  0  0  0  0  0  0
    2.4220   62.2570   70.7460 C   0  0  0  0  0  0  0  0  0  0  0  0
    3.2820   63.0450   69.7910 C   0  0  0  0  0  0  0  0  0  0  0  0
    4.7010   63.2340   70.3360 C   0  0  0  0  0  0  0  0  0  0  0  0
    5.3110   61.9820   70.9810 C   0  0  0  0  0  0  0  0  0  0  0  0
    4.4060   60.7540   70.9360 C   0  0  0  0  0  0  0  0  0  0  0  0
    2.9950   61.1180   71.3180 C   0  0  0  0  0  0  0  0  0  0  0  0
    2.3490   60.2960   72.1710 N   0  0  0  0  0  0  0  0  0  0  0  0
    1.0860   60.5960   72.5070 C   0  0  0  0  0  0  0  0  0  0  0  0
    0.4010   61.7150   71.9900 C   0  0  0  0  0  0  0  0  0  0  0  0
   -0.9240   61.9570   72.4220 C   0  0  0  0  0  0  0  0  0  0  0  0
   -1.5630   61.1080   73.3240 C   0  0  0  0  0  0  0  0  0  0  0  0
   -0.8840   60.0030   73.8140 C   0  0  0  0  0  0  0  0  0  0  0  0
    0.4300   59.7610   73.4030 C   0  0  0  0  0  0  0  0  0  0  0  0
    1.7610   67.1340   67.2460 C   0  0  0  0  0  0  0  0  0  0  0  0
    1.6530   67.6020   65.7880 C   0  0  0  0  0  0  0  0  0  0  0  0
    1.9030   69.0520   65.6800 N   0  0  0  0  0  0  0  0  0  0  0  0
    3.2830   69.3280   65.4620 C   0  0  0  0  0  0  0  0  0  0  0  0
    3.8360   69.0560   64.2020 C   0  0  0  0  0  0  0  0  0  0  0  0
    3.0410   68.6180   63.0000 C   0  0  0  0  0  0  0  0  0  0  0  0
    3.7730   67.5350   62.2040 C   0  0  0  0  0  0  0  0  0  0  0  0
    5.2850   67.7590   62.0510 C   0  0  0  0  0  0  0  0  0  0  0  0
    5.7840   69.0720   62.6490 C   0  0  0  0  0  0  0  0  0  0  0  0
    5.1970   69.2890   64.0190 C   0  0  0  0  0  0  0  0  0  0  0  0
    6.0210   69.7320   64.9910 N   0  0  0  0  0  0  0  0  0  0  0  0
    5.5010   69.9680   66.2040 C   0  0  0  0  0  0  0  0  0  0  0  0
    4.1330   69.7830   66.5120 C   0  0  0  0  0  0  0  0  0  0  0  0
    3.6990   70.0590   67.8330 C   0  0  0  0  0  0  0  0  0  0  0  0
    4.5850   70.5050   68.8140 C   0  0  0  0  0  0  0  0  0  0  0  0
    5.9210   70.6850   68.4940 C   0  0  0  0  0  0  0  0  0  0  0  0
    6.3620   70.4150   67.1970 C   0  0  0  0  0  0  0  0  0  0  0  0
   -0.9576   67.5807   66.3426 H   0  0  0  0  0  0  0  0  0  0  0  0
   -1.7490   66.1968   70.2880 H   0  0  0  0  0  0  0  0  0  0  0  0
    2.0445   65.6323   69.7928 H   0  0  0  0  0  0  0  0  0  0  0  0
    1.3743   66.8784   70.9304 H   0  0  0  0  0  0  0  0  0  0  0  0
    1.2387   64.7474   72.0293 H   0  0  0  0  0  0  0  0  0  0  0  0
   -0.4351   65.2379   71.5142 H   0  0  0  0  0  0  0  0  0  0  0  0
   -0.1678   63.5364   69.5966 H   0  0  0  0  0  0  0  0  0  0  0  0
    3.3361   62.5077   68.8327 H   0  0  0  0  0  0  0  0  0  0  0  0
    2.8287   64.0385   69.6588 H   0  0  0  0  0  0  0  0  0  0  0  0
    5.3502   63.5414   69.5029 H   0  0  0  0  0  0  0  0  0  0  0  0
    4.6308   63.9909   71.1311 H   0  0  0  0  0  0  0  0  0  0  0  0
    6.2456   61.7419   70.4530 H   0  0  0  0  0  0  0  0  0  0  0  0
    5.4718   62.2187   72.0431 H   0  0  0  0  0  0  0  0  0  0  0  0
    4.4089   60.3405   69.9167 H   0  0  0  0  0  0  0  0  0  0  0  0
    4.7850   60.0091   71.6512 H   0  0  0  0  0  0  0  0  0  0  0  0
   -1.4626   62.8356   72.0372 H   0  0  0  0  0  0  0  0  0  0  0  0
   -2.5954   61.3126   73.6438 H   0  0  0  0  0  0  0  0  0  0  0  0
   -1.3765   59.3205   74.5223 H   0  0  0  0  0  0  0  0  0  0  0  0
    0.9604   58.8833   73.8008 H   0  0  0  0  0  0  0  0  0  0  0  0
    2.3323   67.8859   67.8102 H   0  0  0  0  0  0  0  0  0  0  0  0
    2.2569   66.1522   67.2314 H   0  0  0  0  0  0  0  0  0  0  0  0
    2.3948   67.0625   65.1808 H   0  0  0  0  0  0  0  0  0  0  0  0
    0.6352   67.3932   65.4266 H   0  0  0  0  0  0  0  0  0  0  0  0
    1.1717   69.7736   65.7531 H   0  0  0  0  0  0  0  0  0  0  0  0
    2.0731   68.2196   63.3382 H   0  0  0  0  0  0  0  0  0  0  0  0
    2.8998   69.4901   62.3447 H   0  0  0  0  0  0  0  0  0  0  0  0
    3.6196   66.5727   62.7143 H   0  0  0  0  0  0  0  0  0  0  0  0
    3.3520   67.5596   61.1881 H   0  0  0  0  0  0  0  0  0  0  0  0
    5.8092   66.9307   62.5502 H   0  0  0  0  0  0  0  0  0  0  0  0
    5.4916   67.8032   60.9715 H   0  0  0  0  0  0  0  0  0  0  0  0
    6.8808   69.0398   62.7269 H   0  0  0  0  0  0  0  0  0  0  0  0
    5.4725   69.8999   61.9951 H   0  0  0  0  0  0  0  0  0  0  0  0
    2.6389   69.9182   68.0906 H   0  0  0  0  0  0  0  0  0  0  0  0
    4.2260   70.7120   69.8329 H   0  0  0  0  0  0  0  0  0  0  0  0
    6.6300   71.0385   69.2571 H   0  0  0  0  0  0  0  0  0  0  0  0
    7.4249   70.5611   66.9544 H   0  0  0  0  0  0  0  0  0  0  0  0
  2  1  1  0
  3  2  2  0
  4  3  1  0
  5  4  2  0
  5  1  1  0
  6  4  1  0
  7  6  1  0
  8  7  1  0
  9  8  1  0
 10  9  1  0
 11 10  1  0
 12 11  1  0
 13 12  1  0
 14 13  1  0
 15 10  2  0
 15 14  1  0
 16 15  1  0
 17 16  2  0
 18 17  1  0
 18  9  2  0
 19 18  1  0
 20 19  2  0
 21 20  1  0
 22 21  2  0
 22 17  1  0
 23  3  1  0
 24 23  1  0
 25 24  1  0
 26 25  1  0
 27 26  1  0
 28 27  1  0
 29 28  1  0
 30 29  1  0
 31 30  1  0
 32 27  2  0
 32 31  1  0
 33 32  1  0
 34 33  2  0
 35 26  2  0
 35 34  1  0
 36 35  1  0
 37 36  2  0
 38 37  1  0
 39 38  2  0
 39 34  1  0
  2 40  1  0
  5 41  1  0
  6 42  1  0
  6 43  1  0
  7 44  1  0
  7 45  1  0
  8 46  1  0
 11 47  1  0
 11 48  1  0
 12 49  1  0
 12 50  1  0
 13 51  1  0
 13 52  1  0
 14 53  1  0
 14 54  1  0
 19 55  1  0
 20 56  1  0
 21 57  1  0
 22 58  1  0
 23 59  1  0
 23 60  1  0
 24 61  1  0
 24 62  1  0
 25 63  1  0
 28 64  1  0
 28 65  1  0
 29 66  1  0
 29 67  1  0
 30 68  1  0
 30 69  1  0
 31 70  1  0
 31 71  1  0
 36 72  1  0
 37 73  1  0
 38 74  1  0
 39 75  1  0
M  END
>  <score>  (1) 
-13.026

$$$$
=
     RDKit          3D

 75 81  0  0  0  0  0  0  0  0999 V2000
   -2.5070   66.9450   67.7470 O   0  0  0  0  0  0  0  0  0  0  0  0
   -1.4980   66.4450   68.4990 C   0  0  0  0  0  0  0  0  0  0  0  0
   -0.3370   67.1690   68.3170 C   0  0  0  0  0  0  0  0  0  0  0  0
   -0.6740   68.2040   67.3810 C   0  0  0  0  0  0  0  0  0  0  0  0
   -2.0040   68.0030   67.0690 C   0  0  0  0  0  0  0  0  0  0  0  0
    0.1980   69.2910   66.8380 C   0  0  0  0  0  0  0  0  0  0  0  0
    1.0570   68.8060   65.6640 C   0  0  0  0  0  0  0  0  0  0  0  0
    2.2990   68.1430   66.1110 N   0  0  0  0  0  0  0  0  0  0  0  0
    3.4770   68.7860   65.6280 C   0  0  0  0  0  0  0  0  0  0  0  0
    3.9180   68.6140   64.3070 C   0  0  0  0  0  0  0  0  0  0  0  0
    3.2090   67.8090   63.2490 C   0  0  0  0  0  0  0  0  0  0  0  0
    3.2100   68.5320   61.8980 C   0  0  0  0  0  0  0  0  0  0  0  0
    4.5460   69.1860   61.5230 C   0  0  0  0  0  0  0  0  0  0  0  0
    5.6540   68.9740   62.5500 C   0  0  0  0  0  0  0  0  0  0  0  0
    5.1360   69.1980   63.9470 C   0  0  0  0  0  0  0  0  0  0  0  0
    5.9020   69.9270   64.7860 N   0  0  0  0  0  0  0  0  0  0  0  0
    5.4630   70.1210   66.0380 C   0  0  0  0  0  0  0  0  0  0  0  0
    4.2530   69.5770   66.5190 C   0  0  0  0  0  0  0  0  0  0  0  0
    3.8670   69.8550   67.8510 C   0  0  0  0  0  0  0  0  0  0  0  0
    4.6620   70.6320   68.6920 C   0  0  0  0  0  0  0  0  0  0  0  0
    5.8570   71.1490   68.2120 C   0  0  0  0  0  0  0  0  0  0  0  0
    6.2410   70.8900   66.8940 C   0  0  0  0  0  0  0  0  0  0  0  0
    0.9790   66.9000   68.9770 C   0  0  0  0  0  0  0  0  0  0  0  0
    0.8710   66.0570   70.2540 C   0  0  0  0  0  0  0  0  0  0  0  0
    0.9000   64.6160   69.9390 N   0  0  0  0  0  0  0  0  0  0  0  0
    1.6280   63.8820   70.9190 C   0  0  0  0  0  0  0  0  0  0  0  0
    2.7260   63.1110   70.5100 C   0  0  0  0  0  0  0  0  0  0  0  0
    3.2910   63.1090   69.1140 C   0  0  0  0  0  0  0  0  0  0  0  0
    3.6860   61.6990   68.6680 C   0  0  0  0  0  0  0  0  0  0  0  0
    4.3750   60.8510   69.7480 C   0  0  0  0  0  0  0  0  0  0  0  0
    4.6240   61.5940   71.0580 C   0  0  0  0  0  0  0  0  0  0  0  0
    3.3990   62.3640   71.4740 C   0  0  0  0  0  0  0  0  0  0  0  0
    3.0370   62.3140   72.7730 N   0  0  0  0  0  0  0  0  0  0  0  0
    1.9710   63.0280   73.1620 C   0  0  0  0  0  0  0  0  0  0  0  0
    1.2150   63.8360   72.2830 C   0  0  0  0  0  0  0  0  0  0  0  0
    0.1030   64.5420   72.8080 C   0  0  0  0  0  0  0  0  0  0  0  0
   -0.2460   64.4540   74.1560 C   0  0  0  0  0  0  0  0  0  0  0  0
    0.5090   63.6610   75.0050 C   0  0  0  0  0  0  0  0  0  0  0  0
    1.6050   62.9590   74.5000 C   0  0  0  0  0  0  0  0  0  0  0  0
   -1.5913   65.5761   69.1671 H   0  0  0  0  0  0  0  0  0  0  0  0
   -2.5785   68.6208   66.3631 H   0  0  0  0  0  0  0  0  0  0  0  0
   -0.4393   70.1188   66.4936 H   0  0  0  0  0  0  0  0  0  0  0  0
    0.8744   69.6173   67.6418 H   0  0  0  0  0  0  0  0  0  0  0  0
    0.4699   68.0916   65.0682 H   0  0  0  0  0  0  0  0  0  0  0  0
    1.3422   69.6872   65.0706 H   0  0  0  0  0  0  0  0  0  0  0  0
    2.3129   67.3043   66.7088 H   0  0  0  0  0  0  0  0  0  0  0  0
    3.7177   66.8402   63.1363 H   0  0  0  0  0  0  0  0  0  0  0  0
    2.1646   67.6687   63.5644 H   0  0  0  0  0  0  0  0  0  0  0  0
    2.9555   67.8001   61.1173 H   0  0  0  0  0  0  0  0  0  0  0  0
    2.4768   69.3478   61.9812 H   0  0  0  0  0  0  0  0  0  0  0  0
    4.8795   68.7644   60.5633 H   0  0  0  0  0  0  0  0  0  0  0  0
    4.3649   70.2698   61.4714 H   0  0  0  0  0  0  0  0  0  0  0  0
    6.0320   67.9444   62.4659 H   0  0  0  0  0  0  0  0  0  0  0  0
    6.4614   69.6946   62.3527 H   0  0  0  0  0  0  0  0  0  0  0  0
    2.9182   69.4490   68.2318 H   0  0  0  0  0  0  0  0  0  0  0  0
    4.3452   70.8334   69.7260 H   0  0  0  0  0  0  0  0  0  0  0  0
    6.4980   71.7591   68.8654 H   0  0  0  0  0  0  0  0  0  0  0  0
    7.1884   71.3078   66.5228 H   0  0  0  0  0  0  0  0  0  0  0  0
    1.6225   66.3659   68.2624 H   0  0  0  0  0  0  0  0  0  0  0  0
    1.3947   67.8750   69.2713 H   0  0  0  0  0  0  0  0  0  0  0  0
    1.7154   66.2976   70.9166 H   0  0  0  0  0  0  0  0  0  0  0  0
   -0.0841   66.2891   70.7480 H   0  0  0  0  0  0  0  0  0  0  0  0
    0.4504   64.1937   69.1141 H   0  0  0  0  0  0  0  0  0  0  0  0
    2.5327   63.5032   68.4214 H   0  0  0  0  0  0  0  0  0  0  0  0
    4.1937   63.7375   69.1073 H   0  0  0  0  0  0  0  0  0  0  0  0
    2.7740   61.1727   68.3498 H   0  0  0  0  0  0  0  0  0  0  0  0
    4.4196   61.8246   67.8581 H   0  0  0  0  0  0  0  0  0  0  0  0
    3.7390   59.9791   69.9607 H   0  0  0  0  0  0  0  0  0  0  0  0
    5.3612   60.5700   69.3499 H   0  0  0  0  0  0  0  0  0  0  0  0
    4.8772   60.8665   71.8433 H   0  0  0  0  0  0  0  0  0  0  0  0
    5.4535   62.3014   70.9113 H   0  0  0  0  0  0  0  0  0  0  0  0
   -0.4982   65.1734   72.1373 H   0  0  0  0  0  0  0  0  0  0  0  0
   -1.1135   65.0097   74.5416 H   0  0  0  0  0  0  0  0  0  0  0  0
    0.2464   63.5850   76.0705 H   0  0  0  0  0  0  0  0  0  0  0  0
    2.1969   62.3319   75.1829 H   0  0  0  0  0  0  0  0  0  0  0  0
  2  1  1  0
  3  2  2  0
  4  3  1  0
  5  4  2  0
  5  1  1  0
  6  4  1  0
  7  6  1  0
  8  7  1  0
  9  8  1  0
 10  9  1  0
 11 10  1  0
 12 11  1  0
 13 12  1  0
 14 13  1  0
 15 10  2  0
 15 14  1  0
 16 15  1  0
 17 16  2  0
 18 17  1  0
 18  9  2  0
 19 18  1  0
 20 19  2  0
 21 20  1  0
 22 21  2  0
 22 17  1  0
 23  3  1  0
 24 23  1  0
 25 24  1  0
 26 25  1  0
 27 26  1  0
 28 27  1  0
 29 28  1  0
 30 29  1  0
 31 30  1  0
 32 27  2  0
 32 31  1  0
 33 32  1  0
 34 33  2  0
 35 26  2  0
 35 34  1  0
 36 35  1  0
 37 36  2  0
 38 37  1  0
 39 38  2  0
 39 34  1  0
  2 40  1  0
  5 41  1  0
  6 42  1  0
  6 43  1  0
  7 44  1  0
  7 45  1  0
  8 46  1  0
 11 47  1  0
 11 48  1  0
 12 49  1  0
 12 50  1  0
 13 51  1  0
 13 52  1  0
 14 53  1  0
 14 54  1  0
 19 55  1  0
 20 56  1  0
 21 57  1  0
 22 58  1  0
 23 59  1  0
 23 60  1  0
 24 61  1  0
 24 62  1  0
 25 63  1  0
 28 64  1  0
 28 65  1  0
 29 66  1  0
 29 67  1  0
 30 68  1  0
 30 69  1  0
 31 70  1  0
 31 71  1  0
 36 72  1  0
 37 73  1  0
 38 74  1  0
 39 75  1  0
M  END
>  <score>  (2) 
-12.612

$$$$
=
     RDKit          3D

 75 81  0  0  0  0  0  0  0  0999 V2000
   -2.4110   66.8870   67.5930 O   0  0  0  0  0  0  0  0  0  0  0  0
   -1.5080   66.2700   68.3920 C   0  0  0  0  0  0  0  0  0  0  0  0
   -0.3500   67.0140   68.4990 C   0  0  0  0  0  0  0  0  0  0  0  0
   -0.5750   68.1890   67.7050 C   0  0  0  0  0  0  0  0  0  0  0  0
   -1.8420   68.0420   67.1760 C   0  0  0  0  0  0  0  0  0  0  0  0
    0.3400   69.3510   67.4770 C   0  0  0  0  0  0  0  0  0  0  0  0
    1.1460   69.2010   66.1820 C   0  0  0  0  0  0  0  0  0  0  0  0
    2.3300   68.3360   66.3520 N   0  0  0  0  0  0  0  0  0  0  0  0
    3.5190   68.9050   65.8060 C   0  0  0  0  0  0  0  0  0  0  0  0
    3.8880   68.6910   64.4690 C   0  0  0  0  0  0  0  0  0  0  0  0
    3.0880   67.9130   63.4570 C   0  0  0  0  0  0  0  0  0  0  0  0
    3.0670   68.6150   62.0960 C   0  0  0  0  0  0  0  0  0  0  0  0
    4.4180   69.1890   61.6500 C   0  0  0  0  0  0  0  0  0  0  0  0
    5.5590   68.9290   62.6300 C   0  0  0  0  0  0  0  0  0  0  0  0
    5.1180   69.2010   64.0450 C   0  0  0  0  0  0  0  0  0  0  0  0
    5.9610   69.8970   64.8360 N   0  0  0  0  0  0  0  0  0  0  0  0
    5.5910   70.1320   66.1040 C   0  0  0  0  0  0  0  0  0  0  0  0
    4.3770   69.6630   66.6480 C   0  0  0  0  0  0  0  0  0  0  0  0
    4.0690   69.9810   67.9910 C   0  0  0  0  0  0  0  0  0  0  0  0
    4.9430   70.7230   68.7820 C   0  0  0  0  0  0  0  0  0  0  0  0
    6.1410   71.1660   68.2410 C   0  0  0  0  0  0  0  0  0  0  0  0
    6.4490   70.8680   66.9110 C   0  0  0  0  0  0  0  0  0  0  0  0
    0.8650   66.6400   69.2880 C   0  0  0  0  0  0  0  0  0  0  0  0
    0.5510   65.9170   70.6050 C   0  0  0  0  0  0  0  0  0  0  0  0
    0.3480   64.4730   70.3770 N   0  0  0  0  0  0  0  0  0  0  0  0
    1.1630   63.6890   71.2430 C   0  0  0  0  0  0  0  0  0  0  0  0
    0.8990   63.7080   72.6200 C   0  0  0  0  0  0  0  0  0  0  0  0
   -0.2850   64.3930   73.2510 C   0  0  0  0  0  0  0  0  0  0  0  0
    0.1010   65.1010   74.5520 C   0  0  0  0  0  0  0  0  0  0  0  0
    1.0680   64.3170   75.4500 C   0  0  0  0  0  0  0  0  0  0  0  0
    1.4120   62.9240   74.9290 C   0  0  0  0  0  0  0  0  0  0  0  0
    1.7330   62.9710   73.4580 C   0  0  0  0  0  0  0  0  0  0  0  0
    2.7990   62.2660   73.0250 N   0  0  0  0  0  0  0  0  0  0  0  0
    3.0700   62.2680   71.7120 C   0  0  0  0  0  0  0  0  0  0  0  0
    2.2910   62.9640   70.7600 C   0  0  0  0  0  0  0  0  0  0  0  0
    2.6790   62.8990   69.3980 C   0  0  0  0  0  0  0  0  0  0  0  0
    3.7960   62.1670   68.9920 C   0  0  0  0  0  0  0  0  0  0  0  0
    4.5460   61.4870   69.9390 C   0  0  0  0  0  0  0  0  0  0  0  0
    4.1750   61.5450   71.2830 C   0  0  0  0  0  0  0  0  0  0  0  0
   -1.6752   65.3035   68.8900 H   0  0  0  0  0  0  0  0  0  0  0  0
   -2.3248   68.7674   66.5047 H   0  0  0  0  0  0  0  0  0  0  0  0
   -0.2613   70.2701   67.4167 H   0  0  0  0  0  0  0  0  0  0  0  0
    1.0499   69.3945   68.3162 H   0  0  0  0  0  0  0  0  0  0  0  0
    0.4961   68.7624   65.4105 H   0  0  0  0  0  0  0  0  0  0  0  0
    1.5006   70.2006   65.8904 H   0  0  0  0  0  0  0  0  0  0  0  0
    2.3008   67.4172   66.8165 H   0  0  0  0  0  0  0  0  0  0  0  0
    3.5365   66.9157   63.3376 H   0  0  0  0  0  0  0  0  0  0  0  0
    2.0529   67.8367   63.8212 H   0  0  0  0  0  0  0  0  0  0  0  0
    2.7376   67.8870   61.3400 H   0  0  0  0  0  0  0  0  0  0  0  0
    2.3842   69.4713   62.1985 H   0  0  0  0  0  0  0  0  0  0  0  0
    4.6833   68.7368   60.6830 H   0  0  0  0  0  0  0  0  0  0  0  0
    4.2946   70.2803   61.5888 H   0  0  0  0  0  0  0  0  0  0  0  0
    5.8751   67.8788   62.5458 H   0  0  0  0  0  0  0  0  0  0  0  0
    6.3955   69.6000   62.3850 H   0  0  0  0  0  0  0  0  0  0  0  0
    3.1176   69.6345   68.4208 H   0  0  0  0  0  0  0  0  0  0  0  0
    4.6856   70.9555   69.8259 H   0  0  0  0  0  0  0  0  0  0  0  0
    6.8440   71.7481   68.8550 H   0  0  0  0  0  0  0  0  0  0  0  0
    7.3998   71.2272   66.4904 H   0  0  0  0  0  0  0  0  0  0  0  0
    1.4897   65.9785   68.6698 H   0  0  0  0  0  0  0  0  0  0  0  0
    1.3765   67.5775   69.5516 H   0  0  0  0  0  0  0  0  0  0  0  0
    1.3904   66.0572   71.3019 H   0  0  0  0  0  0  0  0  0  0  0  0
   -0.3728   66.3398   71.0267 H   0  0  0  0  0  0  0  0  0  0  0  0
   -0.3011   64.0816   69.6796 H   0  0  0  0  0  0  0  0  0  0  0  0
   -0.6853   65.1360   72.5455 H   0  0  0  0  0  0  0  0  0  0  0  0
   -1.0397   63.6282   73.4864 H   0  0  0  0  0  0  0  0  0  0  0  0
    0.5757   66.0588   74.2924 H   0  0  0  0  0  0  0  0  0  0  0  0
   -0.8289   65.2189   75.1276 H   0  0  0  0  0  0  0  0  0  0  0  0
    2.0010   64.8929   75.5384 H   0  0  0  0  0  0  0  0  0  0  0  0
    0.5612   64.1779   76.4164 H   0  0  0  0  0  0  0  0  0  0  0  0
    2.2844   62.5386   75.4770 H   0  0  0  0  0  0  0  0  0  0  0  0
    0.5446   62.2649   75.0812 H   0  0  0  0  0  0  0  0  0  0  0  0
    2.0863   63.4377   68.6440 H   0  0  0  0  0  0  0  0  0  0  0  0
    4.0787   62.1300   67.9296 H   0  0  0  0  0  0  0  0  0  0  0  0
    5.4280   60.9053   69.6329 H   0  0  0  0  0  0  0  0  0  0  0  0
    4.7768   61.0009   72.0258 H   0  0  0  0  0  0  0  0  0  0  0  0
  2  1  1  0
  3  2  2  0
  4  3  1  0
  5  4  2  0
  5  1  1  0
  6  4  1  0
  7  6  1  0
  8  7  1  0
  9  8  1  0
 10  9  1  0
 11 10  1  0
 12 11  1  0
 13 12  1  0
 14 13  1  0
 15 10  2  0
 15 14  1  0
 16 15  1  0
 17 16  2  0
 18 17  1  0
 18  9  2  0
 19 18  1  0
 20 19  2  0
 21 20  1  0
 22 21  2  0
 22 17  1  0
 23  3  1  0
 24 23  1  0
 25 24  1  0
 26 25  1  0
 27 26  1  0
 28 27  1  0
 29 28  1  0
 30 29  1  0
 31 30  1  0
 32 27  2  0
 32 31  1  0
 33 32  1  0
 34 33  2  0
 35 26  2  0
 35 34  1  0
 36 35  1  0
 37 36  2  0
 38 37  1  0
 39 38  2  0
 39 34  1  0
  2 40  1  0
  5 41  1  0
  6 42  1  0
  6 43  1  0
  7 44  1  0
  7 45  1  0
  8 46  1  0
 11 47  1  0
 11 48  1  0
 12 49  1  0
 12 50  1  0
 13 51  1  0
 13 52  1  0
 14 53  1  0
 14 54  1  0
 19 55  1  0
 20 56  1  0
 21 57  1  0
 22 58  1  0
 23 59  1  0
 23 60  1  0
 24 61  1  0
 24 62  1  0
 25 63  1  0
 28 64  1  0
 28 65  1  0
 29 66  1  0
 29 67  1  0
 30 68  1  0
 30 69  1  0
 31 70  1  0
 31 71  1  0
 36 72  1  0
 37 73  1  0
 38 74  1  0
 39 75  1  0
M  END
>  <score>  (3) 
-12.494

$$$$
=
     RDKit          3D

 75 81  0  0  0  0  0  0  0  0999 V2000
   -1.7450   66.9650   67.1180 O   0  0  0  0  0  0  0  0  0  0  0  0
   -0.4800   67.3330   66.8060 C   0  0  0  0  0  0  0  0  0  0  0  0
    0.3750   67.1200   67.8700 C   0  0  0  0  0  0  0  0  0  0  0  0
   -0.4420   66.5660   68.9130 C   0  0  0  0  0  0  0  0  0  0  0  0
   -1.7190   66.5080   68.3910 C   0  0  0  0  0  0  0  0  0  0  0  0
   -0.0340   66.1260   70.2830 C   0  0  0  0  0  0  0  0  0  0  0  0
    0.3740   64.6490   70.3150 C   0  0  0  0  0  0  0  0  0  0  0  0
    0.7930   64.2100   71.6610 N   0  0  0  0  0  0  0  0  0  0  0  0
    1.1360   62.8260   71.7130 C   0  0  0  0  0  0  0  0  0  0  0  0
    0.5150   61.9490   72.6150 C   0  0  0  0  0  0  0  0  0  0  0  0
   -0.5900   62.3200   73.5710 C   0  0  0  0  0  0  0  0  0  0  0  0
   -1.6790   61.2440   73.6160 C   0  0  0  0  0  0  0  0  0  0  0  0
   -1.1550   59.8030   73.6540 C   0  0  0  0  0  0  0  0  0  0  0  0
    0.3670   59.6940   73.6750 C   0  0  0  0  0  0  0  0  0  0  0  0
    0.9820   60.6330   72.6700 C   0  0  0  0  0  0  0  0  0  0  0  0
    1.9800   60.1530   71.8980 N   0  0  0  0  0  0  0  0  0  0  0  0
    2.5490   60.9820   71.0110 C   0  0  0  0  0  0  0  0  0  0  0  0
    2.1680   62.3330   70.8690 C   0  0  0  0  0  0  0  0  0  0  0  0
    2.8160   63.1210   69.8890 C   0  0  0  0  0  0  0  0  0  0  0  0
    3.8270   62.5970   69.0860 C   0  0  0  0  0  0  0  0  0  0  0  0
    4.2040   61.2710   69.2450 C   0  0  0  0  0  0  0  0  0  0  0  0
    3.5610   60.4810   70.2020 C   0  0  0  0  0  0  0  0  0  0  0  0
    1.8420   67.4180   67.8920 C   0  0  0  0  0  0  0  0  0  0  0  0
    2.1890   68.7760   68.5170 C   0  0  0  0  0  0  0  0  0  0  0  0
    2.2860   69.8230   67.4830 N   0  0  0  0  0  0  0  0  0  0  0  0
    3.5660   69.8190   66.8560 C   0  0  0  0  0  0  0  0  0  0  0  0
    3.6700   69.3650   65.5340 C   0  0  0  0  0  0  0  0  0  0  0  0
    2.4960   69.0050   64.6620 C   0  0  0  0  0  0  0  0  0  0  0  0
    2.7760   67.7530   63.8270 C   0  0  0  0  0  0  0  0  0  0  0  0
    4.1900   67.6780   63.2330 C   0  0  0  0  0  0  0  0  0  0  0  0
    5.0480   68.9110   63.5080 C   0  0  0  0  0  0  0  0  0  0  0  0
    4.9350   69.3250   64.9510 C   0  0  0  0  0  0  0  0  0  0  0  0
    6.0700   69.6700   65.5960 N   0  0  0  0  0  0  0  0  0  0  0  0
    5.9760   70.0790   66.8690 C   0  0  0  0  0  0  0  0  0  0  0  0
    4.7500   70.1750   67.5650 C   0  0  0  0  0  0  0  0  0  0  0  0
    4.7760   70.6160   68.9130 C   0  0  0  0  0  0  0  0  0  0  0  0
    5.9720   70.9520   69.5480 C   0  0  0  0  0  0  0  0  0  0  0  0
    7.1650   70.8550   68.8490 C   0  0  0  0  0  0  0  0  0  0  0  0
    7.1530   70.4210   67.5220 C   0  0  0  0  0  0  0  0  0  0  0  0
   -0.1736   67.7468   65.8340 H   0  0  0  0  0  0  0  0  0  0  0  0
   -2.5990   66.1389   68.9381 H   0  0  0  0  0  0  0  0  0  0  0  0
    0.8191   66.7371   70.6127 H   0  0  0  0  0  0  0  0  0  0  0  0
   -0.8979   66.2540   70.9518 H   0  0  0  0  0  0  0  0  0  0  0  0
   -0.4835   64.0386   69.9953 H   0  0  0  0  0  0  0  0  0  0  0  0
    1.2325   64.5234   69.6388 H   0  0  0  0  0  0  0  0  0  0  0  0
    0.8335   64.8372   72.4770 H   0  0  0  0  0  0  0  0  0  0  0  0
   -0.1653   62.4409   74.5785 H   0  0  0  0  0  0  0  0  0  0  0  0
   -1.0465   63.2583   73.2230 H   0  0  0  0  0  0  0  0  0  0  0  0
   -2.2885   61.4108   74.5164 H   0  0  0  0  0  0  0  0  0  0  0  0
   -2.2513   61.3419   72.6817 H   0  0  0  0  0  0  0  0  0  0  0  0
   -1.5487   59.3159   74.5583 H   0  0  0  0  0  0  0  0  0  0  0  0
   -1.4951   59.3172   72.7275 H   0  0  0  0  0  0  0  0  0  0  0  0
    0.7335   59.9502   74.6800 H   0  0  0  0  0  0  0  0  0  0  0  0
    0.6514   58.6634   73.4163 H   0  0  0  0  0  0  0  0  0  0  0  0
    2.5150   64.1709   69.7580 H   0  0  0  0  0  0  0  0  0  0  0  0
    4.3216   63.2284   68.3332 H   0  0  0  0  0  0  0  0  0  0  0  0
    5.0038   60.8444   68.6218 H   0  0  0  0  0  0  0  0  0  0  0  0
    3.8656   59.4304   70.3181 H   0  0  0  0  0  0  0  0  0  0  0  0
    2.3472   66.6307   68.4707 H   0  0  0  0  0  0  0  0  0  0  0  0
    2.1777   67.4521   66.8450 H   0  0  0  0  0  0  0  0  0  0  0  0
    1.4041   69.0522   69.2364 H   0  0  0  0  0  0  0  0  0  0  0  0
    3.1621   68.6911   69.0229 H   0  0  0  0  0  0  0  0  0  0  0  0
    1.5250   70.4747   67.2441 H   0  0  0  0  0  0  0  0  0  0  0  0
    1.6204   68.8190   65.3014 H   0  0  0  0  0  0  0  0  0  0  0  0
    2.3096   69.8425   63.9737 H   0  0  0  0  0  0  0  0  0  0  0  0
    2.6278   66.8728   64.4698 H   0  0  0  0  0  0  0  0  0  0  0  0
    2.0831   67.7888   62.9734 H   0  0  0  0  0  0  0  0  0  0  0  0
    4.6982   66.8011   63.6606 H   0  0  0  0  0  0  0  0  0  0  0  0
    4.0723   67.6105   62.1414 H   0  0  0  0  0  0  0  0  0  0  0  0
    6.0987   68.6783   63.2800 H   0  0  0  0  0  0  0  0  0  0  0  0
    4.6946   69.7372   62.8736 H   0  0  0  0  0  0  0  0  0  0  0  0
    3.8311   70.6949   69.4707 H   0  0  0  0  0  0  0  0  0  0  0  0
    5.9682   71.2910   70.5945 H   0  0  0  0  0  0  0  0  0  0  0  0
    8.1152   71.1183   69.3367 H   0  0  0  0  0  0  0  0  0  0  0  0
    8.1055   70.3477   66.9767 H   0  0  0  0  0  0  0  0  0  0  0  0
  2  1  1  0
  3  2  2  0
  4  3  1  0
  5  4  2  0
  5  1  1  0
  6  4  1  0
  7  6  1  0
  8  7  1  0
  9  8  1  0
 10  9  1  0
 11 10  1  0
 12 11  1  0
 13 12  1  0
 14 13  1  0
 15 10  2  0
 15 14  1  0
 16 15  1  0
 17 16  2  0
 18 17  1  0
 18  9  2  0
 19 18  1  0
 20 19  2  0
 21 20  1  0
 22 21  2  0
 22 17  1  0
 23  3  1  0
 24 23  1  0
 25 24  1  0
 26 25  1  0
 27 26  1  0
 28 27  1  0
 29 28  1  0
 30 29  1  0
 31 30  1  0
 32 27  2  0
 32 31  1  0
 33 32  1  0
 34 33  2  0
 35 26  2  0
 35 34  1  0
 36 35  1  0
 37 36  2  0
 38 37  1  0
 39 38  2  0
 39 34  1  0
  2 40  1  0
  5 41  1  0
  6 42  1  0
  6 43  1  0
  7 44  1  0
  7 45  1  0
  8 46  1  0
 11 47  1  0
 11 48  1  0
 12 49  1  0
 12 50  1  0
 13 51  1  0
 13 52  1  0
 14 53  1  0
 14 54  1  0
 19 55  1  0
 20 56  1  0
 21 57  1  0
 22 58  1  0
 23 59  1  0
 23 60  1  0
 24 61  1  0
 24 62  1  0
 25 63  1  0
 28 64  1  0
 28 65  1  0
 29 66  1  0
 29 67  1  0
 30 68  1  0
 30 69  1  0
 31 70  1  0
 31 71  1  0
 36 72  1  0
 37 73  1  0
 38 74  1  0
 39 75  1  0
M  END
>  <score>  (4) 
-12.28

$$$$
=
     RDKit          3D

 75 81  0  0  0  0  0  0  0  0999 V2000
    4.8450   63.3370   63.3520 O   0  0  0  0  0  0  0  0  0  0  0  0
    4.4480   63.0660   64.6180 C   0  0  0  0  0  0  0  0  0  0  0  0
    3.8630   64.1710   65.2030 C   0  0  0  0  0  0  0  0  0  0  0  0
    3.8990   65.1990   64.2010 C   0  0  0  0  0  0  0  0  0  0  0  0
    4.5160   64.6270   63.1060 C   0  0  0  0  0  0  0  0  0  0  0  0
    3.3830   66.6000   64.2830 C   0  0  0  0  0  0  0  0  0  0  0  0
    4.5180   67.6300   64.3080 C   0  0  0  0  0  0  0  0  0  0  0  0
    4.0240   69.0090   64.4920 N   0  0  0  0  0  0  0  0  0  0  0  0
    3.5930   69.2720   65.8260 C   0  0  0  0  0  0  0  0  0  0  0  0
    2.2600   69.0760   66.2190 C   0  0  0  0  0  0  0  0  0  0  0  0
    1.1640   68.5310   65.3410 C   0  0  0  0  0  0  0  0  0  0  0  0
    0.2880   67.5250   66.0940 C   0  0  0  0  0  0  0  0  0  0  0  0
   -0.0820   67.9410   67.5240 C   0  0  0  0  0  0  0  0  0  0  0  0
    0.4620   69.3070   67.9350 C   0  0  0  0  0  0  0  0  0  0  0  0
    1.9020   69.4540   67.5150 C   0  0  0  0  0  0  0  0  0  0  0  0
    2.7610   69.9810   68.4130 N   0  0  0  0  0  0  0  0  0  0  0  0
    4.0430   70.1350   68.0490 C   0  0  0  0  0  0  0  0  0  0  0  0
    4.5210   69.7960   66.7670 C   0  0  0  0  0  0  0  0  0  0  0  0
    5.8960   69.9780   66.4860 C   0  0  0  0  0  0  0  0  0  0  0  0
    6.7690   70.5000   67.4380 C   0  0  0  0  0  0  0  0  0  0  0  0
    6.2840   70.8440   68.6910 C   0  0  0  0  0  0  0  0  0  0  0  0
    4.9300   70.6560   68.9820 C   0  0  0  0  0  0  0  0  0  0  0  0
    3.3170   64.2430   66.5950 C   0  0  0  0  0  0  0  0  0  0  0  0
    3.6870   63.0370   67.4680 C   0  0  0  0  0  0  0  0  0  0  0  0
    4.1480   63.4730   68.8000 N   0  0  0  0  0  0  0  0  0  0  0  0
    3.2540   63.0490   69.8260 C   0  0  0  0  0  0  0  0  0  0  0  0
    3.3570   61.7390   70.3140 C   0  0  0  0  0  0  0  0  0  0  0  0
    4.4470   60.7710   69.9310 C   0  0  0  0  0  0  0  0  0  0  0  0
    3.8990   59.3550   69.7330 C   0  0  0  0  0  0  0  0  0  0  0  0
    2.8500   58.9200   70.7670 C   0  0  0  0  0  0  0  0  0  0  0  0
    2.5970   59.9460   71.8680 C   0  0  0  0  0  0  0  0  0  0  0  0
    2.4460   61.3260   71.2830 C   0  0  0  0  0  0  0  0  0  0  0  0
    1.4520   62.1040   71.7590 N   0  0  0  0  0  0  0  0  0  0  0  0
    1.3340   63.3490   71.2750 C   0  0  0  0  0  0  0  0  0  0  0  0
    2.2030   63.8880   70.3000 C   0  0  0  0  0  0  0  0  0  0  0  0
    1.9760   65.2160   69.8580 C   0  0  0  0  0  0  0  0  0  0  0  0
    0.9280   65.9850   70.3670 C   0  0  0  0  0  0  0  0  0  0  0  0
    0.0880   65.4410   71.3260 C   0  0  0  0  0  0  0  0  0  0  0  0
    0.3000   64.1340   71.7670 C   0  0  0  0  0  0  0  0  0  0  0  0
    4.5750   62.0929   65.1150 H   0  0  0  0  0  0  0  0  0  0  0  0
    4.7140   65.1504   62.1590 H   0  0  0  0  0  0  0  0  0  0  0  0
    2.7455   66.7953   63.4081 H   0  0  0  0  0  0  0  0  0  0  0  0
    2.8147   66.6982   65.2197 H   0  0  0  0  0  0  0  0  0  0  0  0
    5.1987   67.3853   65.1367 H   0  0  0  0  0  0  0  0  0  0  0  0
    5.0323   67.5853   63.3367 H   0  0  0  0  0  0  0  0  0  0  0  0
    3.9937   69.7080   63.7361 H   0  0  0  0  0  0  0  0  0  0  0  0
    0.5348   69.3647   64.9961 H   0  0  0  0  0  0  0  0  0  0  0  0
    1.6298   68.0130   64.4897 H   0  0  0  0  0  0  0  0  0  0  0  0
   -0.6435   67.3885   65.5250 H   0  0  0  0  0  0  0  0  0  0  0  0
    0.8804   66.6023   66.1823 H   0  0  0  0  0  0  0  0  0  0  0  0
   -1.1788   67.9676   67.6034 H   0  0  0  0  0  0  0  0  0  0  0  0
    0.3744   67.2013   68.1982 H   0  0  0  0  0  0  0  0  0  0  0  0
   -0.1369   70.0942   67.4537 H   0  0  0  0  0  0  0  0  0  0  0  0
    0.4013   69.3977   69.0296 H   0  0  0  0  0  0  0  0  0  0  0  0
    6.2839   69.7013   65.4945 H   0  0  0  0  0  0  0  0  0  0  0  0
    7.8336   70.6381   67.1980 H   0  0  0  0  0  0  0  0  0  0  0  0
    6.9606   71.2621   69.4508 H   0  0  0  0  0  0  0  0  0  0  0  0
    4.5557   70.9288   69.9797 H   0  0  0  0  0  0  0  0  0  0  0  0
    3.7091   65.1519   67.0748 H   0  0  0  0  0  0  0  0  0  0  0  0
    2.2204   64.2521   66.5091 H   0  0  0  0  0  0  0  0  0  0  0  0
    2.8031   62.3929   67.5858 H   0  0  0  0  0  0  0  0  0  0  0  0
    4.5021   62.4848   66.9773 H   0  0  0  0  0  0  0  0  0  0  0  0
    5.0075   64.0154   68.9674 H   0  0  0  0  0  0  0  0  0  0  0  0
    4.9109   61.1088   68.9925 H   0  0  0  0  0  0  0  0  0  0  0  0
    5.1850   60.7436   70.7462 H   0  0  0  0  0  0  0  0  0  0  0  0
    3.4384   59.3027   68.7354 H   0  0  0  0  0  0  0  0  0  0  0  0
    4.7535   58.6727   69.8528 H   0  0  0  0  0  0  0  0  0  0  0  0
    1.9015   58.7371   70.2408 H   0  0  0  0  0  0  0  0  0  0  0  0
    3.2442   58.0183   71.2585 H   0  0  0  0  0  0  0  0  0  0  0  0
    1.6756   59.6788   72.4062 H   0  0  0  0  0  0  0  0  0  0  0  0
    3.4544   59.9451   72.5571 H   0  0  0  0  0  0  0  0  0  0  0  0
    2.6408   65.6502   69.0967 H   0  0  0  0  0  0  0  0  0  0  0  0
    0.7702   67.0135   70.0102 H   0  0  0  0  0  0  0  0  0  0  0  0
   -0.7409   66.0360   71.7371 H   0  0  0  0  0  0  0  0  0  0  0  0
   -0.3731   63.7127   72.5281 H   0  0  0  0  0  0  0  0  0  0  0  0
  2  1  1  0
  3  2  2  0
  4  3  1  0
  5  4  2  0
  5  1  1  0
  6  4  1  0
  7  6  1  0
  8  7  1  0
  9  8  1  0
 10  9  1  0
 11 10  1  0
 12 11  1  0
 13 12  1  0
 14 13  1  0
 15 10  2  0
 15 14  1  0
 16 15  1  0
 17 16  2  0
 18 17  1  0
 18  9  2  0
 19 18  1  0
 20 19  2  0
 21 20  1  0
 22 21  2  0
 22 17  1  0
 23  3  1  0
 24 23  1  0
 25 24  1  0
 26 25  1  0
 27 26  1  0
 28 27  1  0
 29 28  1  0
 30 29  1  0
 31 30  1  0
 32 27  2  0
 32 31  1  0
 33 32  1  0
 34 33  2  0
 35 26  2  0
 35 34  1  0
 36 35  1  0
 37 36  2  0
 38 37  1  0
 39 38  2  0
 39 34  1  0
  2 40  1  0
  5 41  1  0
  6 42  1  0
  6 43  1  0
  7 44  1  0
  7 45  1  0
  8 46  1  0
 11 47  1  0
 11 48  1  0
 12 49  1  0
 12 50  1  0
 13 51  1  0
 13 52  1  0
 14 53  1  0
 14 54  1  0
 19 55  1  0
 20 56  1  0
 21 57  1  0
 22 58  1  0
 23 59  1  0
 23 60  1  0
 24 61  1  0
 24 62  1  0
 25 63  1  0
 28 64  1  0
 28 65  1  0
 29 66  1  0
 29 67  1  0
 30 68  1  0
 30 69  1  0
 31 70  1  0
 31 71  1  0
 36 72  1  0
 37 73  1  0
 38 74  1  0
 39 75  1  0
M  END
>  <score>  (5) 
-12.279

$$$$
=
     RDKit          3D

 75 81  0  0  0  0  0  0  0  0999 V2000
   -1.5790   66.9960   67.9010 O   0  0  0  0  0  0  0  0  0  0  0  0
   -0.6230   67.8480   67.4600 C   0  0  0  0  0  0  0  0  0  0  0  0
    0.5480   67.6940   68.1750 C   0  0  0  0  0  0  0  0  0  0  0  0
    0.2830   66.6490   69.1240 C   0  0  0  0  0  0  0  0  0  0  0  0
   -1.0300   66.2780   68.9080 C   0  0  0  0  0  0  0  0  0  0  0  0
    1.2050   66.0570   70.1420 C   0  0  0  0  0  0  0  0  0  0  0  0
    0.5120   64.9820   70.9880 C   0  0  0  0  0  0  0  0  0  0  0  0
    0.4370   63.6810   70.2940 N   0  0  0  0  0  0  0  0  0  0  0  0
    1.1160   62.6390   70.9900 C   0  0  0  0  0  0  0  0  0  0  0  0
    2.4650   62.3440   70.7380 C   0  0  0  0  0  0  0  0  0  0  0  0
    3.3560   63.0930   69.7800 C   0  0  0  0  0  0  0  0  0  0  0  0
    4.7490   63.3240   70.3720 C   0  0  0  0  0  0  0  0  0  0  0  0
    5.3440   62.1140   71.1040 C   0  0  0  0  0  0  0  0  0  0  0  0
    4.4530   60.8750   71.0850 C   0  0  0  0  0  0  0  0  0  0  0  0
    3.0240   61.2430   71.3900 C   0  0  0  0  0  0  0  0  0  0  0  0
    2.3510   60.4570   72.2570 N   0  0  0  0  0  0  0  0  0  0  0  0
    1.0720   60.7600   72.5260 C   0  0  0  0  0  0  0  0  0  0  0  0
    0.3990   61.8430   71.9240 C   0  0  0  0  0  0  0  0  0  0  0  0
   -0.9450   62.0920   72.2890 C   0  0  0  0  0  0  0  0  0  0  0  0
   -1.6120   61.2830   73.2060 C   0  0  0  0  0  0  0  0  0  0  0  0
   -0.9440   60.2110   73.7800 C   0  0  0  0  0  0  0  0  0  0  0  0
    0.3880   59.9640   73.4360 C   0  0  0  0  0  0  0  0  0  0  0  0
    1.8110   68.4710   67.9730 C   0  0  0  0  0  0  0  0  0  0  0  0
    2.2930   68.5020   66.5160 C   0  0  0  0  0  0  0  0  0  0  0  0
    1.7540   67.3560   65.7590 N   0  0  0  0  0  0  0  0  0  0  0  0
    2.5700   67.0450   64.6330 C   0  0  0  0  0  0  0  0  0  0  0  0
    2.5890   67.9300   63.5460 C   0  0  0  0  0  0  0  0  0  0  0  0
    1.9110   69.2750   63.5320 C   0  0  0  0  0  0  0  0  0  0  0  0
    1.2430   69.5560   62.1830 C   0  0  0  0  0  0  0  0  0  0  0  0
    2.0620   69.1260   60.9570 C   0  0  0  0  0  0  0  0  0  0  0  0
    3.4430   68.5690   61.2940 C   0  0  0  0  0  0  0  0  0  0  0  0
    3.3560   67.5890   62.4350 C   0  0  0  0  0  0  0  0  0  0  0  0
    4.0590   66.4420   62.3310 N   0  0  0  0  0  0  0  0  0  0  0  0
    4.0220   65.5810   63.3580 C   0  0  0  0  0  0  0  0  0  0  0  0
    3.2920   65.8190   64.5450 C   0  0  0  0  0  0  0  0  0  0  0  0
    3.3220   64.8310   65.5620 C   0  0  0  0  0  0  0  0  0  0  0  0
    4.0520   63.6510   65.4110 C   0  0  0  0  0  0  0  0  0  0  0  0
    4.7660   63.4360   64.2430 C   0  0  0  0  0  0  0  0  0  0  0  0
    4.7420   64.4000   63.2330 C   0  0  0  0  0  0  0  0  0  0  0  0
   -0.7613   68.5680   66.6400 H   0  0  0  0  0  0  0  0  0  0  0  0
   -1.5594   65.5013   69.4793 H   0  0  0  0  0  0  0  0  0  0  0  0
    2.0622   65.6029   69.6234 H   0  0  0  0  0  0  0  0  0  0  0  0
    1.5296   66.8632   70.8162 H   0  0  0  0  0  0  0  0  0  0  0  0
    1.0754   64.8513   71.9237 H   0  0  0  0  0  0  0  0  0  0  0  0
   -0.5172   65.3190   71.1809 H   0  0  0  0  0  0  0  0  0  0  0  0
   -0.0548   63.5410   69.3999 H   0  0  0  0  0  0  0  0  0  0  0  0
    3.4541   62.5094   68.8527 H   0  0  0  0  0  0  0  0  0  0  0  0
    2.8996   64.0736   69.5796 H   0  0  0  0  0  0  0  0  0  0  0  0
    5.4291   63.5963   69.5514 H   0  0  0  0  0  0  0  0  0  0  0  0
    4.6385   64.1185   71.1247 H   0  0  0  0  0  0  0  0  0  0  0  0
    6.3017   61.8583   70.6271 H   0  0  0  0  0  0  0  0  0  0  0  0
    5.4593   62.4060   72.1583 H   0  0  0  0  0  0  0  0  0  0  0  0
    4.5017   60.4102   70.0892 H   0  0  0  0  0  0  0  0  0  0  0  0
    4.8088   60.1713   71.8519 H   0  0  0  0  0  0  0  0  0  0  0  0
   -1.4753   62.9439   71.8384 H   0  0  0  0  0  0  0  0  0  0  0  0
   -2.6585   61.4921   73.4726 H   0  0  0  0  0  0  0  0  0  0  0  0
   -1.4594   59.5596   74.5012 H   0  0  0  0  0  0  0  0  0  0  0  0
    0.9101   59.1141   73.8996 H   0  0  0  0  0  0  0  0  0  0  0  0
    1.6381   69.5059   68.3032 H   0  0  0  0  0  0  0  0  0  0  0  0
    2.5941   67.9675   68.5589 H   0  0  0  0  0  0  0  0  0  0  0  0
    1.9546   69.4364   66.0444 H   0  0  0  0  0  0  0  0  0  0  0  0
    3.3914   68.4435   66.5077 H   0  0  0  0  0  0  0  0  0  0  0  0
    0.8962   66.8453   66.0124 H   0  0  0  0  0  0  0  0  0  0  0  0
    1.1449   69.2967   64.3210 H   0  0  0  0  0  0  0  0  0  0  0  0
    2.6752   70.0471   63.7048 H   0  0  0  0  0  0  0  0  0  0  0  0
    0.2828   69.0199   62.1583 H   0  0  0  0  0  0  0  0  0  0  0  0
    1.1321   70.6482   62.1138 H   0  0  0  0  0  0  0  0  0  0  0  0
    1.4979   68.3493   60.4199 H   0  0  0  0  0  0  0  0  0  0  0  0
    2.2237   70.0295   60.3508 H   0  0  0  0  0  0  0  0  0  0  0  0
    3.8526   68.0588   60.4097 H   0  0  0  0  0  0  0  0  0  0  0  0
    4.0981   69.4013   61.5908 H   0  0  0  0  0  0  0  0  0  0  0  0
    2.7571   64.9985   66.4909 H   0  0  0  0  0  0  0  0  0  0  0  0
    4.0605   62.8978   66.2126 H   0  0  0  0  0  0  0  0  0  0  0  0
    5.3480   62.5118   64.1123 H   0  0  0  0  0  0  0  0  0  0  0  0
    5.3112   64.2183   62.3094 H   0  0  0  0  0  0  0  0  0  0  0  0
  2  1  1  0
  3  2  2  0
  4  3  1  0
  5  4  2  0
  5  1  1  0
  6  4  1  0
  7  6  1  0
  8  7  1  0
  9  8  1  0
 10  9  1  0
 11 10  1  0
 12 11  1  0
 13 12  1  0
 14 13  1  0
 15 10  2  0
 15 14  1  0
 16 15  1  0
 17 16  2  0
 18 17  1  0
 18  9  2  0
 19 18  1  0
 20 19  2  0
 21 20  1  0
 22 21  2  0
 22 17  1  0
 23  3  1  0
 24 23  1  0
 25 24  1  0
 26 25  1  0
 27 26  1  0
 28 27  1  0
 29 28  1  0
 30 29  1  0
 31 30  1  0
 32 27  2  0
 32 31  1  0
 33 32  1  0
 34 33  2  0
 35 26  2  0
 35 34  1  0
 36 35  1  0
 37 36  2  0
 38 37  1  0
 39 38  2  0
 39 34  1  0
  2 40  1  0
  5 41  1  0
  6 42  1  0
  6 43  1  0
  7 44  1  0
  7 45  1  0
  8 46  1  0
 11 47  1  0
 11 48  1  0
 12 49  1  0
 12 50  1  0
 13 51  1  0
 13 52  1  0
 14 53  1  0
 14 54  1  0
 19 55  1  0
 20 56  1  0
 21 57  1  0
 22 58  1  0
 23 59  1  0
 23 60  1  0
 24 61  1  0
 24 62  1  0
 25 63  1  0
 28 64  1  0
 28 65  1  0
 29 66  1  0
 29 67  1  0
 30 68  1  0
 30 69  1  0
 31 70  1  0
 31 71  1  0
 36 72  1  0
 37 73  1  0
 38 74  1  0
 39 75  1  0
M  END
>  <score>  (6) 
-11.958

$$$$
=
     RDKit          3D

 75 81  0  0  0  0  0  0  0  0999 V2000
    4.8770   63.3110   63.3960 O   0  0  0  0  0  0  0  0  0  0  0  0
    4.5070   64.5840   63.1200 C   0  0  0  0  0  0  0  0  0  0  0  0
    3.8490   65.1540   64.1930 C   0  0  0  0  0  0  0  0  0  0  0  0
    3.8280   64.1410   65.2100 C   0  0  0  0  0  0  0  0  0  0  0  0
    4.4600   63.0460   64.6560 C   0  0  0  0  0  0  0  0  0  0  0  0
    3.2580   64.2180   66.5910 C   0  0  0  0  0  0  0  0  0  0  0  0
    3.7230   63.0520   67.4710 C   0  0  0  0  0  0  0  0  0  0  0  0
    4.1110   63.4900   68.8270 N   0  0  0  0  0  0  0  0  0  0  0  0
    3.2030   63.0490   69.8340 C   0  0  0  0  0  0  0  0  0  0  0  0
    3.2740   61.7540   70.3710 C   0  0  0  0  0  0  0  0  0  0  0  0
    4.3080   60.7180   70.0130 C   0  0  0  0  0  0  0  0  0  0  0  0
    4.8140   59.9770   71.2550 C   0  0  0  0  0  0  0  0  0  0  0  0
    3.7210   59.5800   72.2550 C   0  0  0  0  0  0  0  0  0  0  0  0
    2.3100   59.9650   71.8210 C   0  0  0  0  0  0  0  0  0  0  0  0
    2.2840   61.3720   71.2800 C   0  0  0  0  0  0  0  0  0  0  0  0
    1.2770   62.1740   71.6820 N   0  0  0  0  0  0  0  0  0  0  0  0
    1.2290   63.4240   71.1970 C   0  0  0  0  0  0  0  0  0  0  0  0
    2.1680   63.9220   70.2690 C   0  0  0  0  0  0  0  0  0  0  0  0
    2.0440   65.2610   69.8310 C   0  0  0  0  0  0  0  0  0  0  0  0
    1.0100   66.0800   70.2800 C   0  0  0  0  0  0  0  0  0  0  0  0
    0.0840   65.5750   71.1810 C   0  0  0  0  0  0  0  0  0  0  0  0
    0.2050   64.2570   71.6290 C   0  0  0  0  0  0  0  0  0  0  0  0
    3.2900   66.5410   64.2440 C   0  0  0  0  0  0  0  0  0  0  0  0
    4.3600   67.6410   64.2470 C   0  0  0  0  0  0  0  0  0  0  0  0
    3.7490   68.9700   64.4400 N   0  0  0  0  0  0  0  0  0  0  0  0
    3.3600   69.1730   65.7950 C   0  0  0  0  0  0  0  0  0  0  0  0
    2.0380   68.8920   66.1690 C   0  0  0  0  0  0  0  0  0  0  0  0
    1.0170   68.2490   65.2670 C   0  0  0  0  0  0  0  0  0  0  0  0
   -0.3620   68.8930   65.4280 C   0  0  0  0  0  0  0  0  0  0  0  0
   -0.7550   69.2220   66.8760 C   0  0  0  0  0  0  0  0  0  0  0  0
    0.2660   68.7700   67.9160 C   0  0  0  0  0  0  0  0  0  0  0  0
    1.6620   69.1400   67.4870 C   0  0  0  0  0  0  0  0  0  0  0  0
    2.4870   69.6630   68.4180 N   0  0  0  0  0  0  0  0  0  0  0  0
    3.7440   69.9580   68.0570 C   0  0  0  0  0  0  0  0  0  0  0  0
    4.2490   69.7410   66.7550 C   0  0  0  0  0  0  0  0  0  0  0  0
    5.5950   70.0990   66.4880 C   0  0  0  0  0  0  0  0  0  0  0  0
    6.4130   70.6480   67.4750 C   0  0  0  0  0  0  0  0  0  0  0  0
    5.9020   70.8510   68.7480 C   0  0  0  0  0  0  0  0  0  0  0  0
    4.5780   70.5040   69.0230 C   0  0  0  0  0  0  0  0  0  0  0  0
    4.7043   65.0968   62.1671 H   0  0  0  0  0  0  0  0  0  0  0  0
    4.6055   62.0848   65.1707 H   0  0  0  0  0  0  0  0  0  0  0  0
    3.5781   65.1626   67.0550 H   0  0  0  0  0  0  0  0  0  0  0  0
    2.1623   64.1656   66.5093 H   0  0  0  0  0  0  0  0  0  0  0  0
    2.9024   62.3245   67.5561 H   0  0  0  0  0  0  0  0  0  0  0  0
    4.6094   62.6061   66.9961 H   0  0  0  0  0  0  0  0  0  0  0  0
    4.9494   64.0547   69.0245 H   0  0  0  0  0  0  0  0  0  0  0  0
    3.8600   59.9903   69.3204 H   0  0  0  0  0  0  0  0  0  0  0  0
    5.1617   61.2299   69.5449 H   0  0  0  0  0  0  0  0  0  0  0  0
    5.3238   59.0605   70.9230 H   0  0  0  0  0  0  0  0  0  0  0  0
    5.4793   60.6755   71.7836 H   0  0  0  0  0  0  0  0  0  0  0  0
    3.7555   58.4888   72.3892 H   0  0  0  0  0  0  0  0  0  0  0  0
    3.9276   60.1293   73.1854 H   0  0  0  0  0  0  0  0  0  0  0  0
    1.9710   59.2708   71.0380 H   0  0  0  0  0  0  0  0  0  0  0  0
    1.6439   59.9097   72.6946 H   0  0  0  0  0  0  0  0  0  0  0  0
    2.7800   65.6648   69.1202 H   0  0  0  0  0  0  0  0  0  0  0  0
    0.9288   67.1174   69.9233 H   0  0  0  0  0  0  0  0  0  0  0  0
   -0.7405   66.2082   71.5406 H   0  0  0  0  0  0  0  0  0  0  0  0
   -0.5331   63.8674   72.3455 H   0  0  0  0  0  0  0  0  0  0  0  0
    2.6449   66.6873   63.3651 H   0  0  0  0  0  0  0  0  0  0  0  0
    2.7379   66.6289   65.1913 H   0  0  0  0  0  0  0  0  0  0  0  0
    5.0710   67.4495   65.0642 H   0  0  0  0  0  0  0  0  0  0  0  0
    4.8777   67.6300   63.2765 H   0  0  0  0  0  0  0  0  0  0  0  0
    3.6200   69.6635   63.6895 H   0  0  0  0  0  0  0  0  0  0  0  0
    1.3431   68.3602   64.2224 H   0  0  0  0  0  0  0  0  0  0  0  0
    0.9351   67.1871   65.5421 H   0  0  0  0  0  0  0  0  0  0  0  0
   -0.3721   69.8287   64.8498 H   0  0  0  0  0  0  0  0  0  0  0  0
   -1.0927   68.1530   65.0697 H   0  0  0  0  0  0  0  0  0  0  0  0
   -0.8765   70.3119   66.9620 H   0  0  0  0  0  0  0  0  0  0  0  0
   -1.6852   68.6734   67.0850 H   0  0  0  0  0  0  0  0  0  0  0  0
    0.0425   69.2567   68.8768 H   0  0  0  0  0  0  0  0  0  0  0  0
    0.2057   67.6765   68.0191 H   0  0  0  0  0  0  0  0  0  0  0  0
    6.0032   69.9400   65.4790 H   0  0  0  0  0  0  0  0  0  0  0  0
    7.4545   70.9177   67.2457 H   0  0  0  0  0  0  0  0  0  0  0  0
    6.5360   71.2828   69.5364 H   0  0  0  0  0  0  0  0  0  0  0  0
    4.1835   70.6684   70.0366 H   0  0  0  0  0  0  0  0  0  0  0  0
  2  1  1  0
  3  2  2  0
  4  3  1  0
  5  4  2  0
  5  1  1  0
  6  4  1  0
  7  6  1  0
  8  7  1  0
  9  8  1  0
 10  9  1  0
 11 10  1  0
 12 11  1  0
 13 12  1  0
 14 13  1  0
 15 10  2  0
 15 14  1  0
 16 15  1  0
 17 16  2  0
 18 17  1  0
 18  9  2  0
 19 18  1  0
 20 19  2  0
 21 20  1  0
 22 21  2  0
 22 17  1  0
 23  3  1  0
 24 23  1  0
 25 24  1  0
 26 25  1  0
 27 26  1  0
 28 27  1  0
 29 28  1  0
 30 29  1  0
 31 30  1  0
 32 27  2  0
 32 31  1  0
 33 32  1  0
 34 33  2  0
 35 26  2  0
 35 34  1  0
 36 35  1  0
 37 36  2  0
 38 37  1  0
 39 38  2  0
 39 34  1  0
  2 40  1  0
  5 41  1  0
  6 42  1  0
  6 43  1  0
  7 44  1  0
  7 45  1  0
  8 46  1  0
 11 47  1  0
 11 48  1  0
 12 49  1  0
 12 50  1  0
 13 51  1  0
 13 52  1  0
 14 53  1  0
 14 54  1  0
 19 55  1  0
 20 56  1  0
 21 57  1  0
 22 58  1  0
 23 59  1  0
 23 60  1  0
 24 61  1  0
 24 62  1  0
 25 63  1  0
 28 64  1  0
 28 65  1  0
 29 66  1  0
 29 67  1  0
 30 68  1  0
 30 69  1  0
 31 70  1  0
 31 71  1  0
 36 72  1  0
 37 73  1  0
 38 74  1  0
 39 75  1  0
M  END
>  <score>  (7) 
-11.804

$$$$
=
     RDKit          3D

 75 81  0  0  0  0  0  0  0  0999 V2000
    4.9150   63.2400   63.4870 O   0  0  0  0  0  0  0  0  0  0  0  0
    4.5000   64.5010   63.2190 C   0  0  0  0  0  0  0  0  0  0  0  0
    3.8490   65.0510   64.3050 C   0  0  0  0  0  0  0  0  0  0  0  0
    3.8810   64.0400   65.3240 C   0  0  0  0  0  0  0  0  0  0  0  0
    4.5350   62.9640   64.7570 C   0  0  0  0  0  0  0  0  0  0  0  0
    3.3390   64.1010   66.7170 C   0  0  0  0  0  0  0  0  0  0  0  0
    3.7100   62.8570   67.5320 C   0  0  0  0  0  0  0  0  0  0  0  0
    4.1480   63.1920   68.9020 N   0  0  0  0  0  0  0  0  0  0  0  0
    3.1990   62.8160   69.8980 C   0  0  0  0  0  0  0  0  0  0  0  0
    2.3510   63.7600   70.4970 C   0  0  0  0  0  0  0  0  0  0  0  0
    2.2910   65.2250   70.1460 C   0  0  0  0  0  0  0  0  0  0  0  0
    0.8460   65.7290   70.0800 C   0  0  0  0  0  0  0  0  0  0  0  0
   -0.0600   65.2270   71.2130 C   0  0  0  0  0  0  0  0  0  0  0  0
    0.6490   64.3370   72.2300 C   0  0  0  0  0  0  0  0  0  0  0  0
    1.5220   63.3250   71.5340 C   0  0  0  0  0  0  0  0  0  0  0  0
    1.4770   62.0530   71.9820 N   0  0  0  0  0  0  0  0  0  0  0  0
    2.2620   61.1430   71.3850 C   0  0  0  0  0  0  0  0  0  0  0  0
    3.1440   61.4640   70.3320 C   0  0  0  0  0  0  0  0  0  0  0  0
    3.9160   60.4290   69.7550 C   0  0  0  0  0  0  0  0  0  0  0  0
    3.8340   59.1160   70.2170 C   0  0  0  0  0  0  0  0  0  0  0  0
    2.9740   58.8150   71.2620 C   0  0  0  0  0  0  0  0  0  0  0  0
    2.1980   59.8290   71.8310 C   0  0  0  0  0  0  0  0  0  0  0  0
    3.2490   66.4210   64.3680 C   0  0  0  0  0  0  0  0  0  0  0  0
    4.2480   67.5500   64.0820 C   0  0  0  0  0  0  0  0  0  0  0  0
    3.6170   68.8710   64.2660 N   0  0  0  0  0  0  0  0  0  0  0  0
    3.2950   69.1090   65.6320 C   0  0  0  0  0  0  0  0  0  0  0  0
    1.9880   68.8520   66.0740 C   0  0  0  0  0  0  0  0  0  0  0  0
    0.9190   68.2020   65.2350 C   0  0  0  0  0  0  0  0  0  0  0  0
   -0.4440   68.8660   65.4450 C   0  0  0  0  0  0  0  0  0  0  0  0
   -0.7640   69.2320   66.9020 C   0  0  0  0  0  0  0  0  0  0  0  0
    0.2990   68.7900   67.9040 C   0  0  0  0  0  0  0  0  0  0  0  0
    1.6770   69.1340   67.4020 C   0  0  0  0  0  0  0  0  0  0  0  0
    2.5510   69.6670   68.2810 N   0  0  0  0  0  0  0  0  0  0  0  0
    3.7930   69.9390   67.8550 C   0  0  0  0  0  0  0  0  0  0  0  0
    4.2330   69.6870   66.5360 C   0  0  0  0  0  0  0  0  0  0  0  0
    5.5690   70.0220   66.1990 C   0  0  0  0  0  0  0  0  0  0  0  0
    6.4390   70.5840   67.1350 C   0  0  0  0  0  0  0  0  0  0  0  0
    5.9910   70.8210   68.4250 C   0  0  0  0  0  0  0  0  0  0  0  0
    4.6770   70.4970   68.7690 C   0  0  0  0  0  0  0  0  0  0  0  0
    4.6605   65.0188   62.2619 H   0  0  0  0  0  0  0  0  0  0  0  0
    4.7225   62.0088   65.2694 H   0  0  0  0  0  0  0  0  0  0  0  0
    3.7489   64.9898   67.2190 H   0  0  0  0  0  0  0  0  0  0  0  0
    2.2420   64.1508   66.6531 H   0  0  0  0  0  0  0  0  0  0  0  0
    2.8303   62.1994   67.5932 H   0  0  0  0  0  0  0  0  0  0  0  0
    4.5495   62.3606   67.0233 H   0  0  0  0  0  0  0  0  0  0  0  0
    5.0456   63.6496   69.1160 H   0  0  0  0  0  0  0  0  0  0  0  0
    2.8346   65.7983   70.9114 H   0  0  0  0  0  0  0  0  0  0  0  0
    2.7490   65.3610   69.1552 H   0  0  0  0  0  0  0  0  0  0  0  0
    0.8643   66.8282   70.1172 H   0  0  0  0  0  0  0  0  0  0  0  0
    0.4216   65.3351   69.1447 H   0  0  0  0  0  0  0  0  0  0  0  0
   -0.4667   66.1009   71.7430 H   0  0  0  0  0  0  0  0  0  0  0  0
   -0.8425   64.6121   70.7445 H   0  0  0  0  0  0  0  0  0  0  0  0
    1.2731   64.9629   72.8847 H   0  0  0  0  0  0  0  0  0  0  0  0
   -0.1088   63.8031   72.8222 H   0  0  0  0  0  0  0  0  0  0  0  0
    4.5962   60.6650   68.9234 H   0  0  0  0  0  0  0  0  0  0  0  0
    4.4459   58.3263   69.7567 H   0  0  0  0  0  0  0  0  0  0  0  0
    2.9028   57.7848   71.6410 H   0  0  0  0  0  0  0  0  0  0  0  0
    1.5160   59.5788   72.6570 H   0  0  0  0  0  0  0  0  0  0  0  0
    2.4389   66.4790   63.6261 H   0  0  0  0  0  0  0  0  0  0  0  0
    2.8894   66.5655   65.3975 H   0  0  0  0  0  0  0  0  0  0  0  0
    5.1008   67.4592   64.7708 H   0  0  0  0  0  0  0  0  0  0  0  0
    4.5858   67.4643   63.0387 H   0  0  0  0  0  0  0  0  0  0  0  0
    3.4327   69.5370   63.5022 H   0  0  0  0  0  0  0  0  0  0  0  0
    1.1974   68.2863   64.1742 H   0  0  0  0  0  0  0  0  0  0  0  0
    0.8381   67.1475   65.5375 H   0  0  0  0  0  0  0  0  0  0  0  0
   -0.4712   69.7885   64.8465 H   0  0  0  0  0  0  0  0  0  0  0  0
   -1.1991   68.1274   65.1380 H   0  0  0  0  0  0  0  0  0  0  0  0
   -0.8681   70.3250   66.9686 H   0  0  0  0  0  0  0  0  0  0  0  0
   -1.6897   68.6998   67.1665 H   0  0  0  0  0  0  0  0  0  0  0  0
    0.1260   69.3001   68.8631 H   0  0  0  0  0  0  0  0  0  0  0  0
    0.2313   67.6999   68.0349 H   0  0  0  0  0  0  0  0  0  0  0  0
    5.9282   69.8347   65.1763 H   0  0  0  0  0  0  0  0  0  0  0  0
    7.4713   70.8366   66.8511 H   0  0  0  0  0  0  0  0  0  0  0  0
    6.6663   71.2616   69.1732 H   0  0  0  0  0  0  0  0  0  0  0  0
    4.3316   70.6897   69.7954 H   0  0  0  0  0  0  0  0  0  0  0  0
  2  1  1  0
  3  2  2  0
  4  3  1  0
  5  4  2  0
  5  1  1  0
  6  4  1  0
  7  6  1  0
  8  7  1  0
  9  8  1  0
 10  9  1  0
 11 10  1  0
 12 11  1  0
 13 12  1  0
 14 13  1  0
 15 10  2  0
 15 14  1  0
 16 15  1  0
 17 16  2  0
 18 17  1  0
 18  9  2  0
 19 18  1  0
 20 19  2  0
 21 20  1  0
 22 21  2  0
 22 17  1  0
 23  3  1  0
 24 23  1  0
 25 24  1  0
 26 25  1  0
 27 26  1  0
 28 27  1  0
 29 28  1  0
 30 29  1  0
 31 30  1  0
 32 27  2  0
 32 31  1  0
 33 32  1  0
 34 33  2  0
 35 26  2  0
 35 34  1  0
 36 35  1  0
 37 36  2  0
 38 37  1  0
 39 38  2  0
 39 34  1  0
  2 40  1  0
  5 41  1  0
  6 42  1  0
  6 43  1  0
  7 44  1  0
  7 45  1  0
  8 46  1  0
 11 47  1  0
 11 48  1  0
 12 49  1  0
 12 50  1  0
 13 51  1  0
 13 52  1  0
 14 53  1  0
 14 54  1  0
 19 55  1  0
 20 56  1  0
 21 57  1  0
 22 58  1  0
 23 59  1  0
 23 60  1  0
 24 61  1  0
 24 62  1  0
 25 63  1  0
 28 64  1  0
 28 65  1  0
 29 66  1  0
 29 67  1  0
 30 68  1  0
 30 69  1  0
 31 70  1  0
 31 71  1  0
 36 72  1  0
 37 73  1  0
 38 74  1  0
 39 75  1  0
M  END
>  <score>  (8) 
-11.715

$$$$
=
     RDKit          3D

 75 81  0  0  0  0  0  0  0  0999 V2000
    4.9110   63.2150   63.4820 O   0  0  0  0  0  0  0  0  0  0  0  0
    4.5240   62.9120   64.7440 C   0  0  0  0  0  0  0  0  0  0  0  0
    3.8800   63.9810   65.3360 C   0  0  0  0  0  0  0  0  0  0  0  0
    3.8670   65.0180   64.3430 C   0  0  0  0  0  0  0  0  0  0  0  0
    4.5170   64.4890   63.2460 C   0  0  0  0  0  0  0  0  0  0  0  0
    3.2790   66.3900   64.4350 C   0  0  0  0  0  0  0  0  0  0  0  0
    4.3260   67.4820   64.1850 C   0  0  0  0  0  0  0  0  0  0  0  0
    3.7530   68.8400   64.2630 N   0  0  0  0  0  0  0  0  0  0  0  0
    3.3730   69.2090   65.5870 C   0  0  0  0  0  0  0  0  0  0  0  0
    4.3170   69.6530   66.5260 C   0  0  0  0  0  0  0  0  0  0  0  0
    5.7870   69.8460   66.2580 C   0  0  0  0  0  0  0  0  0  0  0  0
    6.3090   71.1400   66.8920 C   0  0  0  0  0  0  0  0  0  0  0  0
    5.8000   71.4070   68.3140 C   0  0  0  0  0  0  0  0  0  0  0  0
    4.8850   70.3150   68.8640 C   0  0  0  0  0  0  0  0  0  0  0  0
    3.8740   69.8960   67.8280 C   0  0  0  0  0  0  0  0  0  0  0  0
    2.5960   69.7450   68.2320 N   0  0  0  0  0  0  0  0  0  0  0  0
    1.6860   69.3550   67.3260 C   0  0  0  0  0  0  0  0  0  0  0  0
    2.0140   69.0740   65.9840 C   0  0  0  0  0  0  0  0  0  0  0  0
    0.9790   68.6880   65.1000 C   0  0  0  0  0  0  0  0  0  0  0  0
   -0.3390   68.5630   65.5340 C   0  0  0  0  0  0  0  0  0  0  0  0
   -0.6470   68.8280   66.8600 C   0  0  0  0  0  0  0  0  0  0  0  0
    0.3660   69.2220   67.7380 C   0  0  0  0  0  0  0  0  0  0  0  0
    3.3260   64.0120   66.7260 C   0  0  0  0  0  0  0  0  0  0  0  0
    3.8020   62.8510   67.6090 C   0  0  0  0  0  0  0  0  0  0  0  0
    4.2030   63.3340   68.9440 N   0  0  0  0  0  0  0  0  0  0  0  0
    3.2690   62.9390   69.9440 C   0  0  0  0  0  0  0  0  0  0  0  0
    3.3340   61.6330   70.4510 C   0  0  0  0  0  0  0  0  0  0  0  0
    4.4190   60.6430   70.1170 C   0  0  0  0  0  0  0  0  0  0  0  0
    3.8540   59.2340   69.9180 C   0  0  0  0  0  0  0  0  0  0  0  0
    2.7650   58.8280   70.9220 C   0  0  0  0  0  0  0  0  0  0  0  0
    2.4930   59.8730   72.0020 C   0  0  0  0  0  0  0  0  0  0  0  0
    2.3850   61.2470   71.3960 C   0  0  0  0  0  0  0  0  0  0  0  0
    1.3890   62.0480   71.8290 N   0  0  0  0  0  0  0  0  0  0  0  0
    1.3080   63.2880   71.3260 C   0  0  0  0  0  0  0  0  0  0  0  0
    2.2170   63.8000   70.3740 C   0  0  0  0  0  0  0  0  0  0  0  0
    2.0280   65.1270   69.9090 C   0  0  0  0  0  0  0  0  0  0  0  0
    0.9770   65.9190   70.3730 C   0  0  0  0  0  0  0  0  0  0  0  0
    0.0970   65.4020   71.3100 C   0  0  0  0  0  0  0  0  0  0  0  0
    0.2720   64.0970   71.7740 C   0  0  0  0  0  0  0  0  0  0  0  0
    4.6994   61.9424   65.2331 H   0  0  0  0  0  0  0  0  0  0  0  0
    4.6918   65.0307   62.3047 H   0  0  0  0  0  0  0  0  0  0  0  0
    2.4805   66.4852   63.6844 H   0  0  0  0  0  0  0  0  0  0  0  0
    2.8858   66.5234   65.4536 H   0  0  0  0  0  0  0  0  0  0  0  0
    5.1199   67.3897   64.9408 H   0  0  0  0  0  0  0  0  0  0  0  0
    4.7196   67.3422   63.1674 H   0  0  0  0  0  0  0  0  0  0  0  0
    3.6394   69.4570   63.4461 H   0  0  0  0  0  0  0  0  0  0  0  0
    6.3416   68.9936   66.6773 H   0  0  0  0  0  0  0  0  0  0  0  0
    5.9334   69.9117   65.1698 H   0  0  0  0  0  0  0  0  0  0  0  0
    7.4072   71.0866   66.9254 H   0  0  0  0  0  0  0  0  0  0  0  0
    5.9350   71.9650   66.2678 H   0  0  0  0  0  0  0  0  0  0  0  0
    6.6700   71.4971   68.9811 H   0  0  0  0  0  0  0  0  0  0  0  0
    5.2019   72.3291   68.2689 H   0  0  0  0  0  0  0  0  0  0  0  0
    5.4931   69.4436   69.1484 H   0  0  0  0  0  0  0  0  0  0  0  0
    4.3505   70.7096   69.7407 H   0  0  0  0  0  0  0  0  0  0  0  0
    1.2202   68.4820   64.0467 H   0  0  0  0  0  0  0  0  0  0  0  0
   -1.1281   68.2569   64.8314 H   0  0  0  0  0  0  0  0  0  0  0  0
   -1.6823   68.7286   67.2183 H   0  0  0  0  0  0  0  0  0  0  0  0
    0.1106   69.4332   68.7869 H   0  0  0  0  0  0  0  0  0  0  0  0
    3.6319   64.9562   67.2002 H   0  0  0  0  0  0  0  0  0  0  0  0
    2.2335   63.9197   66.6373 H   0  0  0  0  0  0  0  0  0  0  0  0
    2.9838   62.1242   67.7199 H   0  0  0  0  0  0  0  0  0  0  0  0
    4.6729   62.3797   67.1300 H   0  0  0  0  0  0  0  0  0  0  0  0
    5.0517   63.8873   69.1295 H   0  0  0  0  0  0  0  0  0  0  0  0
    4.9197   60.9610   69.1906 H   0  0  0  0  0  0  0  0  0  0  0  0
    5.1288   60.6138   70.9569 H   0  0  0  0  0  0  0  0  0  0  0  0
    3.4251   59.1772   68.9066 H   0  0  0  0  0  0  0  0  0  0  0  0
    4.6928   58.5396   70.0739 H   0  0  0  0  0  0  0  0  0  0  0  0
    1.8313   58.6532   70.3673 H   0  0  0  0  0  0  0  0  0  0  0  0
    3.1279   57.9262   71.4368 H   0  0  0  0  0  0  0  0  0  0  0  0
    1.5499   59.6281   72.5124 H   0  0  0  0  0  0  0  0  0  0  0  0
    3.3271   59.8667   72.7191 H   0  0  0  0  0  0  0  0  0  0  0  0
    2.7256   65.5408   69.1660 H   0  0  0  0  0  0  0  0  0  0  0  0
    0.8482   66.9451   69.9980 H   0  0  0  0  0  0  0  0  0  0  0  0
   -0.7345   66.0161   71.6860 H   0  0  0  0  0  0  0  0  0  0  0  0
   -0.4328   63.6970   72.5178 H   0  0  0  0  0  0  0  0  0  0  0  0
  2  1  1  0
  3  2  2  0
  4  3  1  0
  5  4  2  0
  5  1  1  0
  6  4  1  0
  7  6  1  0
  8  7  1  0
  9  8  1  0
 10  9  1  0
 11 10  1  0
 12 11  1  0
 13 12  1  0
 14 13  1  0
 15 10  2  0
 15 14  1  0
 16 15  1  0
 17 16  2  0
 18 17  1  0
 18  9  2  0
 19 18  1  0
 20 19  2  0
 21 20  1  0
 22 21  2  0
 22 17  1  0
 23  3  1  0
 24 23  1  0
 25 24  1  0
 26 25  1  0
 27 26  1  0
 28 27  1  0
 29 28  1  0
 30 29  1  0
 31 30  1  0
 32 27  2  0
 32 31  1  0
 33 32  1  0
 34 33  2  0
 35 26  2  0
 35 34  1  0
 36 35  1  0
 37 36  2  0
 38 37  1  0
 39 38  2  0
 39 34  1  0
  2 40  1  0
  5 41  1  0
  6 42  1  0
  6 43  1  0
  7 44  1  0
  7 45  1  0
  8 46  1  0
 11 47  1  0
 11 48  1  0
 12 49  1  0
 12 50  1  0
 13 51  1  0
 13 52  1  0
 14 53  1  0
 14 54  1  0
 19 55  1  0
 20 56  1  0
 21 57  1  0
 22 58  1  0
 23 59  1  0
 23 60  1  0
 24 61  1  0
 24 62  1  0
 25 63  1  0
 28 64  1  0
 28 65  1  0
 29 66  1  0
 29 67  1  0
 30 68  1  0
 30 69  1  0
 31 70  1  0
 31 71  1  0
 36 72  1  0
 37 73  1  0
 38 74  1  0
 39 75  1  0
M  END
>  <score>  (9) 
-11.583

$$$$
