=
     RDKit          3D

 23 24  0  0  0  0  0  0  0  0999 V2000
    2.7470   69.5030   67.5000 N   0  0  0  0  0  0  0  0  0  0  0  0
    3.3960   69.3930   66.2600 C   0  0  0  0  0  0  0  0  0  0  0  0
    2.8860   68.9690   65.0480 C   0  0  0  0  0  0  0  0  0  0  0  0
    3.7500   68.9480   63.9450 C   0  0  0  0  0  0  0  0  0  0  0  0
    5.0970   69.3470   64.0640 C   0  0  0  0  0  0  0  0  0  0  0  0
    5.6030   69.7800   65.2890 C   0  0  0  0  0  0  0  0  0  0  0  0
    4.7300   69.7910   66.3600 C   0  0  0  0  0  0  0  0  0  0  0  0
    4.9600   70.2060   67.7430 C   0  0  0  0  0  0  0  0  0  0  0  0
    5.9930   70.6090   68.2290 O   0  0  0  0  0  0  0  0  0  0  0  0
    3.5960   70.0320   68.4560 C   0  0  0  0  0  0  0  0  0  0  0  0
    3.3400   70.3540   69.5980 O   0  0  0  0  0  0  0  0  0  0  0  0
    1.3480   69.2200   67.7380 C   0  0  0  0  0  0  0  0  0  0  0  0
    1.4780   67.5670   69.5550 N   0  0  0  0  0  0  0  0  0  0  0  0
    1.1320   67.7990   68.2530 C   0  0  0  0  0  0  0  0  0  0  0  0
    0.7650   66.8780   67.5290 O   0  0  0  0  0  0  0  0  0  0  0  0
    1.8353   68.6579   64.9520 H   0  0  0  0  0  0  0  0  0  0  0  0
    3.3703   68.6140   62.9681 H   0  0  0  0  0  0  0  0  0  0  0  0
    5.7545   69.3164   63.1827 H   0  0  0  0  0  0  0  0  0  0  0  0
    6.6502   70.0986   65.3979 H   0  0  0  0  0  0  0  0  0  0  0  0
    0.9638   69.9307   68.4846 H   0  0  0  0  0  0  0  0  0  0  0  0
    0.8134   69.3200   66.7818 H   0  0  0  0  0  0  0  0  0  0  0  0
    1.3559   66.6283   69.9609 H   0  0  0  0  0  0  0  0  0  0  0  0
    1.8608   68.3309   70.1301 H   0  0  0  0  0  0  0  0  0  0  0  0
  2  1  1  0
  3  2  2  0
  4  3  1  0
  5  4  2  0
  6  5  1  0
  7  2  1  0
  7  6  2  0
  8  7  1  0
  9  8  2  0
 10  8  1  0
 10  1  1  0
 11 10  2  0
 12  1  1  0
 14 13  1  0
 14 12  1  0
 15 14  2  0
  3 16  1  0
  4 17  1  0
  5 18  1  0
  6 19  1  0
 12 20  1  0
 12 21  1  0
 13 22  1  0
 13 23  1  0
M  END
>  <score>  (1) 
-8.388

$$$$
=
     RDKit          3D

 23 24  0  0  0  0  0  0  0  0999 V2000
    2.4590   69.3410   66.7970 N   0  0  0  0  0  0  0  0  0  0  0  0
    3.4900   69.8200   67.6210 C   0  0  0  0  0  0  0  0  0  0  0  0
    3.4450   70.1590   68.9600 C   0  0  0  0  0  0  0  0  0  0  0  0
    4.6260   70.6200   69.5580 C   0  0  0  0  0  0  0  0  0  0  0  0
    5.8220   70.7340   68.8220 C   0  0  0  0  0  0  0  0  0  0  0  0
    5.8610   70.3850   67.4720 C   0  0  0  0  0  0  0  0  0  0  0  0
    4.6840   69.9330   66.9070 C   0  0  0  0  0  0  0  0  0  0  0  0
    4.4220   69.4800   65.5420 C   0  0  0  0  0  0  0  0  0  0  0  0
    5.2030   69.4350   64.6190 O   0  0  0  0  0  0  0  0  0  0  0  0
    2.9310   69.0580   65.5280 C   0  0  0  0  0  0  0  0  0  0  0  0
    2.3440   68.5400   64.6020 O   0  0  0  0  0  0  0  0  0  0  0  0
    1.1070   69.0600   67.2310 C   0  0  0  0  0  0  0  0  0  0  0  0
    0.0970   67.0170   66.3050 N   0  0  0  0  0  0  0  0  0  0  0  0
    0.8350   67.5610   67.3200 C   0  0  0  0  0  0  0  0  0  0  0  0
    1.1630   66.8810   68.2890 O   0  0  0  0  0  0  0  0  0  0  0  0
    2.5130   70.0700   69.5375 H   0  0  0  0  0  0  0  0  0  0  0  0
    4.6189   70.8981   70.6222 H   0  0  0  0  0  0  0  0  0  0  0  0
    6.7333   71.1016   69.3164 H   0  0  0  0  0  0  0  0  0  0  0  0
    6.7870   70.4660   66.8838 H   0  0  0  0  0  0  0  0  0  0  0  0
    0.9521   69.5086   68.2234 H   0  0  0  0  0  0  0  0  0  0  0  0
    0.4163   69.4872   66.4890 H   0  0  0  0  0  0  0  0  0  0  0  0
   -0.1201   66.0101   66.3085 H   0  0  0  0  0  0  0  0  0  0  0  0
   -0.2417   67.6142   65.5372 H   0  0  0  0  0  0  0  0  0  0  0  0
  2  1  1  0
  3  2  2  0
  4  3  1  0
  5  4  2  0
  6  5  1  0
  7  2  1  0
  7  6  2  0
  8  7  1  0
  9  8  2  0
 10  8  1  0
 10  1  1  0
 11 10  2  0
 12  1  1  0
 14 13  1  0
 14 12  1  0
 15 14  2  0
  3 16  1  0
  4 17  1  0
  5 18  1  0
  6 19  1  0
 12 20  1  0
 12 21  1  0
 13 22  1  0
 13 23  1  0
M  END
>  <score>  (2) 
-8.322

$$$$
=
     RDKit          3D

 23 24  0  0  0  0  0  0  0  0999 V2000
    2.5110   68.4250   63.6960 N   0  0  0  0  0  0  0  0  0  0  0  0
    3.0650   68.8950   64.8970 C   0  0  0  0  0  0  0  0  0  0  0  0
    2.4850   68.9750   66.1490 C   0  0  0  0  0  0  0  0  0  0  0  0
    3.2590   69.4900   67.1980 C   0  0  0  0  0  0  0  0  0  0  0  0
    4.5880   69.9110   66.9870 C   0  0  0  0  0  0  0  0  0  0  0  0
    5.1690   69.8200   65.7220 C   0  0  0  0  0  0  0  0  0  0  0  0
    4.3850   69.3090   64.7070 C   0  0  0  0  0  0  0  0  0  0  0  0
    4.7170   69.0760   63.3020 C   0  0  0  0  0  0  0  0  0  0  0  0
    5.7640   69.3140   62.7440 O   0  0  0  0  0  0  0  0  0  0  0  0
    3.4460   68.4490   62.6770 C   0  0  0  0  0  0  0  0  0  0  0  0
    3.3400   68.0250   61.5460 O   0  0  0  0  0  0  0  0  0  0  0  0
    1.1800   67.8740   63.5510 C   0  0  0  0  0  0  0  0  0  0  0  0
   -0.9520   69.0040   64.0250 N   0  0  0  0  0  0  0  0  0  0  0  0
    0.1500   68.9500   63.2170 C   0  0  0  0  0  0  0  0  0  0  0  0
    0.2340   69.6690   62.2260 O   0  0  0  0  0  0  0  0  0  0  0  0
    1.4492   68.6451   66.3168 H   0  0  0  0  0  0  0  0  0  0  0  0
    2.8215   69.5671   68.2043 H   0  0  0  0  0  0  0  0  0  0  0  0
    5.1719   70.3148   67.8273 H   0  0  0  0  0  0  0  0  0  0  0  0
    6.2055   70.1410   65.5413 H   0  0  0  0  0  0  0  0  0  0  0  0
    1.1902   67.1286   62.7421 H   0  0  0  0  0  0  0  0  0  0  0  0
    0.8950   67.4162   64.5097 H   0  0  0  0  0  0  0  0  0  0  0  0
   -1.6836   69.7080   63.8518 H   0  0  0  0  0  0  0  0  0  0  0  0
   -1.0504   68.3407   64.8068 H   0  0  0  0  0  0  0  0  0  0  0  0
  2  1  1  0
  3  2  2  0
  4  3  1  0
  5  4  2  0
  6  5  1  0
  7  2  1  0
  7  6  2  0
  8  7  1  0
  9  8  2  0
 10  8  1  0
 10  1  1  0
 11 10  2  0
 12  1  1  0
 14 13  1  0
 14 12  1  0
 15 14  2  0
  3 16  1  0
  4 17  1  0
  5 18  1  0
  6 19  1  0
 12 20  1  0
 12 21  1  0
 13 22  1  0
 13 23  1  0
M  END
>  <score>  (3) 
-8.111

$$$$
=
     RDKit          3D

 23 24  0  0  0  0  0  0  0  0999 V2000
    3.0830   67.9860   64.3910 N   0  0  0  0  0  0  0  0  0  0  0  0
    3.8680   68.7230   65.2920 C   0  0  0  0  0  0  0  0  0  0  0  0
    5.1990   69.0790   65.1930 C   0  0  0  0  0  0  0  0  0  0  0  0
    5.7570   69.8240   66.2410 C   0  0  0  0  0  0  0  0  0  0  0  0
    4.9880   70.2010   67.3600 C   0  0  0  0  0  0  0  0  0  0  0  0
    3.6430   69.8440   67.4500 C   0  0  0  0  0  0  0  0  0  0  0  0
    3.1180   69.1100   66.4030 C   0  0  0  0  0  0  0  0  0  0  0  0
    1.7560   68.6140   66.2070 C   0  0  0  0  0  0  0  0  0  0  0  0
    0.8130   68.7380   66.9530 O   0  0  0  0  0  0  0  0  0  0  0  0
    1.7730   67.9030   64.8300 C   0  0  0  0  0  0  0  0  0  0  0  0
    0.8140   67.4320   64.2570 O   0  0  0  0  0  0  0  0  0  0  0  0
    3.5340   67.4760   63.1140 C   0  0  0  0  0  0  0  0  0  0  0  0
    4.5710   69.0930   61.5770 N   0  0  0  0  0  0  0  0  0  0  0  0
    3.4060   68.5180   62.0050 C   0  0  0  0  0  0  0  0  0  0  0  0
    2.3230   68.9060   61.5780 O   0  0  0  0  0  0  0  0  0  0  0  0
    5.8014   68.7873   64.3201 H   0  0  0  0  0  0  0  0  0  0  0  0
    6.8152   70.1199   66.1889 H   0  0  0  0  0  0  0  0  0  0  0  0
    5.4529   70.7822   68.1699 H   0  0  0  0  0  0  0  0  0  0  0  0
    3.0279   70.1333   68.3148 H   0  0  0  0  0  0  0  0  0  0  0  0
    4.5895   67.1794   63.2027 H   0  0  0  0  0  0  0  0  0  0  0  0
    2.9006   66.6169   62.8481 H   0  0  0  0  0  0  0  0  0  0  0  0
    4.5512   69.8032   60.8312 H   0  0  0  0  0  0  0  0  0  0  0  0
    5.4681   68.8158   62.0005 H   0  0  0  0  0  0  0  0  0  0  0  0
  2  1  1  0
  3  2  2  0
  4  3  1  0
  5  4  2  0
  6  5  1  0
  7  2  1  0
  7  6  2  0
  8  7  1  0
  9  8  2  0
 10  8  1  0
 10  1  1  0
 11 10  2  0
 12  1  1  0
 14 13  1  0
 14 12  1  0
 15 14  2  0
  3 16  1  0
  4 17  1  0
  5 18  1  0
  6 19  1  0
 12 20  1  0
 12 21  1  0
 13 22  1  0
 13 23  1  0
M  END
>  <score>  (4) 
-7.793

$$$$
=
     RDKit          3D

 23 24  0  0  0  0  0  0  0  0999 V2000
    3.7590   68.8540   64.7450 N   0  0  0  0  0  0  0  0  0  0  0  0
    3.2900   69.0430   66.0550 C   0  0  0  0  0  0  0  0  0  0  0  0
    2.1320   68.5680   66.6400 C   0  0  0  0  0  0  0  0  0  0  0  0
    1.8890   68.9040   67.9790 C   0  0  0  0  0  0  0  0  0  0  0  0
    2.7950   69.6990   68.7080 C   0  0  0  0  0  0  0  0  0  0  0  0
    3.9650   70.1700   68.1140 C   0  0  0  0  0  0  0  0  0  0  0  0
    4.1810   69.8240   66.7930 C   0  0  0  0  0  0  0  0  0  0  0  0
    5.3080   70.1460   65.9200 C   0  0  0  0  0  0  0  0  0  0  0  0
    6.2820   70.8120   66.1900 O   0  0  0  0  0  0  0  0  0  0  0  0
    4.9990   69.4430   64.5750 C   0  0  0  0  0  0  0  0  0  0  0  0
    5.7340   69.3900   63.6110 O   0  0  0  0  0  0  0  0  0  0  0  0
    3.1050   68.0530   63.7330 C   0  0  0  0  0  0  0  0  0  0  0  0
    4.5850   66.4700   62.5690 N   0  0  0  0  0  0  0  0  0  0  0  0
    3.7260   66.6630   63.6150 C   0  0  0  0  0  0  0  0  0  0  0  0
    3.4090   65.7270   64.3450 O   0  0  0  0  0  0  0  0  0  0  0  0
    1.4235   67.9461   66.0732 H   0  0  0  0  0  0  0  0  0  0  0  0
    0.9741   68.5402   68.4695 H   0  0  0  0  0  0  0  0  0  0  0  0
    2.5771   69.9507   69.7564 H   0  0  0  0  0  0  0  0  0  0  0  0
    4.6837   70.7889   68.6711 H   0  0  0  0  0  0  0  0  0  0  0  0
    2.0424   67.9462   63.9964 H   0  0  0  0  0  0  0  0  0  0  0  0
    3.2255   68.5625   62.7656 H   0  0  0  0  0  0  0  0  0  0  0  0
    5.0362   65.5538   62.4354 H   0  0  0  0  0  0  0  0  0  0  0  0
    4.7809   67.2408   61.9145 H   0  0  0  0  0  0  0  0  0  0  0  0
  2  1  1  0
  3  2  2  0
  4  3  1  0
  5  4  2  0
  6  5  1  0
  7  2  1  0
  7  6  2  0
  8  7  1  0
  9  8  2  0
 10  8  1  0
 10  1  1  0
 11 10  2  0
 12  1  1  0
 14 13  1  0
 14 12  1  0
 15 14  2  0
  3 16  1  0
  4 17  1  0
  5 18  1  0
  6 19  1  0
 12 20  1  0
 12 21  1  0
 13 22  1  0
 13 23  1  0
M  END
>  <score>  (5) 
-7.448

$$$$
=
     RDKit          3D

 23 24  0  0  0  0  0  0  0  0999 V2000
    4.1970   69.7970   67.4210 N   0  0  0  0  0  0  0  0  0  0  0  0
    3.7990   69.3680   66.1450 C   0  0  0  0  0  0  0  0  0  0  0  0
    4.5770   69.1140   65.0310 C   0  0  0  0  0  0  0  0  0  0  0  0
    3.9290   68.6930   63.8620 C   0  0  0  0  0  0  0  0  0  0  0  0
    2.5300   68.5310   63.8190 C   0  0  0  0  0  0  0  0  0  0  0  0
    1.7510   68.7830   64.9490 C   0  0  0  0  0  0  0  0  0  0  0  0
    2.4150   69.1960   66.0880 C   0  0  0  0  0  0  0  0  0  0  0  0
    1.8800   69.5120   67.4120 C   0  0  0  0  0  0  0  0  0  0  0  0
    0.7230   69.4900   67.7630 O   0  0  0  0  0  0  0  0  0  0  0  0
    3.1140   69.8700   68.2780 C   0  0  0  0  0  0  0  0  0  0  0  0
    3.1080   70.1050   69.4680 O   0  0  0  0  0  0  0  0  0  0  0  0
    5.5650   70.0210   67.8350 C   0  0  0  0  0  0  0  0  0  0  0  0
    6.8730   71.3630   66.2410 N   0  0  0  0  0  0  0  0  0  0  0  0
    6.0910   71.3750   67.3630 C   0  0  0  0  0  0  0  0  0  0  0  0
    5.9190   72.4140   67.9950 O   0  0  0  0  0  0  0  0  0  0  0  0
    5.6695   69.2383   65.0612 H   0  0  0  0  0  0  0  0  0  0  0  0
    4.5240   68.4850   62.9605 H   0  0  0  0  0  0  0  0  0  0  0  0
    2.0476   68.2030   62.8864 H   0  0  0  0  0  0  0  0  0  0  0  0
    0.6582   68.6585   64.9336 H   0  0  0  0  0  0  0  0  0  0  0  0
    5.6143   69.9841   68.9333 H   0  0  0  0  0  0  0  0  0  0  0  0
    6.1898   69.2371   67.3822 H   0  0  0  0  0  0  0  0  0  0  0  0
    7.2583   72.2442   65.8723 H   0  0  0  0  0  0  0  0  0  0  0  0
    7.0766   70.4727   65.7647 H   0  0  0  0  0  0  0  0  0  0  0  0
  2  1  1  0
  3  2  2  0
  4  3  1  0
  5  4  2  0
  6  5  1  0
  7  2  1  0
  7  6  2  0
  8  7  1  0
  9  8  2  0
 10  8  1  0
 10  1  1  0
 11 10  2  0
 12  1  1  0
 14 13  1  0
 14 12  1  0
 15 14  2  0
  3 16  1  0
  4 17  1  0
  5 18  1  0
  6 19  1  0
 12 20  1  0
 12 21  1  0
 13 22  1  0
 13 23  1  0
M  END
>  <score>  (6) 
-7.215

$$$$
=
     RDKit          3D

 23 24  0  0  0  0  0  0  0  0999 V2000
    3.6890   60.7120   71.4610 N   0  0  0  0  0  0  0  0  0  0  0  0
    2.6400   61.6440   71.4590 C   0  0  0  0  0  0  0  0  0  0  0  0
    1.3110   61.4570   71.7920 C   0  0  0  0  0  0  0  0  0  0  0  0
    0.4520   62.5610   71.7030 C   0  0  0  0  0  0  0  0  0  0  0  0
    0.9250   63.8230   71.2910 C   0  0  0  0  0  0  0  0  0  0  0  0
    2.2680   64.0060   70.9630 C   0  0  0  0  0  0  0  0  0  0  0  0
    3.0930   62.9020   71.0580 C   0  0  0  0  0  0  0  0  0  0  0  0
    4.5290   62.7890   70.8040 C   0  0  0  0  0  0  0  0  0  0  0  0
    5.2810   63.6600   70.4320 O   0  0  0  0  0  0  0  0  0  0  0  0
    4.8880   61.3160   71.1250 C   0  0  0  0  0  0  0  0  0  0  0  0
    6.0020   60.8360   71.1260 O   0  0  0  0  0  0  0  0  0  0  0  0
    3.5760   59.3290   71.8730 C   0  0  0  0  0  0  0  0  0  0  0  0
    3.3080   57.0620   70.9560 N   0  0  0  0  0  0  0  0  0  0  0  0
    3.5660   58.3770   70.6800 C   0  0  0  0  0  0  0  0  0  0  0  0
    3.8680   58.7290   69.5430 O   0  0  0  0  0  0  0  0  0  0  0  0
    0.9399   60.4736   72.1163 H   0  0  0  0  0  0  0  0  0  0  0  0
   -0.6108   62.4402   71.9594 H   0  0  0  0  0  0  0  0  0  0  0  0
    0.2282   64.6718   71.2275 H   0  0  0  0  0  0  0  0  0  0  0  0
    2.6531   64.9854   70.6430 H   0  0  0  0  0  0  0  0  0  0  0  0
    4.4305   59.0798   72.5193 H   0  0  0  0  0  0  0  0  0  0  0  0
    2.6235   59.2109   72.4105 H   0  0  0  0  0  0  0  0  0  0  0  0
    3.2875   56.3701   70.1933 H   0  0  0  0  0  0  0  0  0  0  0  0
    3.1343   56.7639   71.9265 H   0  0  0  0  0  0  0  0  0  0  0  0
  2  1  1  0
  3  2  2  0
  4  3  1  0
  5  4  2  0
  6  5  1  0
  7  2  1  0
  7  6  2  0
  8  7  1  0
  9  8  2  0
 10  8  1  0
 10  1  1  0
 11 10  2  0
 12  1  1  0
 14 13  1  0
 14 12  1  0
 15 14  2  0
  3 16  1  0
  4 17  1  0
  5 18  1  0
  6 19  1  0
 12 20  1  0
 12 21  1  0
 13 22  1  0
 13 23  1  0
M  END
>  <score>  (7) 
-7.124

$$$$
=
     RDKit          3D

 23 24  0  0  0  0  0  0  0  0999 V2000
    2.8720   60.8690   71.3620 N   0  0  0  0  0  0  0  0  0  0  0  0
    1.5970   61.0220   71.9290 C   0  0  0  0  0  0  0  0  0  0  0  0
    0.9130   60.1670   72.7730 C   0  0  0  0  0  0  0  0  0  0  0  0
   -0.3630   60.5530   73.2030 C   0  0  0  0  0  0  0  0  0  0  0  0
   -0.9340   61.7750   72.7930 C   0  0  0  0  0  0  0  0  0  0  0  0
   -0.2360   62.6360   71.9470 C   0  0  0  0  0  0  0  0  0  0  0  0
    1.0200   62.2310   71.5380 C   0  0  0  0  0  0  0  0  0  0  0  0
    1.9850   62.9180   70.6810 C   0  0  0  0  0  0  0  0  0  0  0  0
    1.8540   63.9900   70.1360 O   0  0  0  0  0  0  0  0  0  0  0  0
    3.2210   61.9860   70.6250 C   0  0  0  0  0  0  0  0  0  0  0  0
    4.2800   62.2340   70.0870 O   0  0  0  0  0  0  0  0  0  0  0  0
    3.7630   59.7550   71.6020 C   0  0  0  0  0  0  0  0  0  0  0  0
    3.3190   57.4200   70.9690 N   0  0  0  0  0  0  0  0  0  0  0  0
    3.6320   58.6760   70.5290 C   0  0  0  0  0  0  0  0  0  0  0  0
    3.8880   58.8800   69.3460 O   0  0  0  0  0  0  0  0  0  0  0  0
    1.3567   59.2139   73.0966 H   0  0  0  0  0  0  0  0  0  0  0  0
   -0.9301   59.8902   73.8731 H   0  0  0  0  0  0  0  0  0  0  0  0
   -1.9392   62.0517   73.1436 H   0  0  0  0  0  0  0  0  0  0  0  0
   -0.6659   63.5943   71.6200 H   0  0  0  0  0  0  0  0  0  0  0  0
    4.7991   60.1243   71.6097 H   0  0  0  0  0  0  0  0  0  0  0  0
    3.4932   59.3065   72.5695 H   0  0  0  0  0  0  0  0  0  0  0  0
    3.2166   56.6486   70.2942 H   0  0  0  0  0  0  0  0  0  0  0  0
    3.1856   57.2452   71.9753 H   0  0  0  0  0  0  0  0  0  0  0  0
  2  1  1  0
  3  2  2  0
  4  3  1  0
  5  4  2  0
  6  5  1  0
  7  2  1  0
  7  6  2  0
  8  7  1  0
  9  8  2  0
 10  8  1  0
 10  1  1  0
 11 10  2  0
 12  1  1  0
 14 13  1  0
 14 12  1  0
 15 14  2  0
  3 16  1  0
  4 17  1  0
  5 18  1  0
  6 19  1  0
 12 20  1  0
 12 21  1  0
 13 22  1  0
 13 23  1  0
M  END
>  <score>  (8) 
-6.901

$$$$
=
     RDKit          3D

 23 24  0  0  0  0  0  0  0  0999 V2000
    2.9620   67.1930   64.2900 N   0  0  0  0  0  0  0  0  0  0  0  0
    2.3820   67.9810   63.2830 C   0  0  0  0  0  0  0  0  0  0  0  0
    2.9020   68.3400   62.0540 C   0  0  0  0  0  0  0  0  0  0  0  0
    2.1150   69.1470   61.2200 C   0  0  0  0  0  0  0  0  0  0  0  0
    0.8340   69.5780   61.6200 C   0  0  0  0  0  0  0  0  0  0  0  0
    0.3130   69.2070   62.8590 C   0  0  0  0  0  0  0  0  0  0  0  0
    1.1090   68.4110   63.6600 C   0  0  0  0  0  0  0  0  0  0  0  0
    0.8330   67.8530   64.9830 C   0  0  0  0  0  0  0  0  0  0  0  0
   -0.1640   68.0040   65.6530 O   0  0  0  0  0  0  0  0  0  0  0  0
    2.0840   67.0150   65.3450 C   0  0  0  0  0  0  0  0  0  0  0  0
    2.2170   66.3150   66.3270 O   0  0  0  0  0  0  0  0  0  0  0  0
    4.2530   66.5460   64.2030 C   0  0  0  0  0  0  0  0  0  0  0  0
    4.0780   64.1690   64.8130 N   0  0  0  0  0  0  0  0  0  0  0  0
    4.1320   65.0800   63.7940 C   0  0  0  0  0  0  0  0  0  0  0  0
    4.1810   64.7080   62.6250 O   0  0  0  0  0  0  0  0  0  0  0  0
    3.9011   68.0035   61.7401 H   0  0  0  0  0  0  0  0  0  0  0  0
    2.5041   69.4490   60.2364 H   0  0  0  0  0  0  0  0  0  0  0  0
    0.2391   70.2137   60.9477 H   0  0  0  0  0  0  0  0  0  0  0  0
   -0.6861   69.5331   63.1838 H   0  0  0  0  0  0  0  0  0  0  0  0
    4.8650   67.0735   63.4566 H   0  0  0  0  0  0  0  0  0  0  0  0
    4.7195   66.5835   65.1985 H   0  0  0  0  0  0  0  0  0  0  0  0
    3.9962   63.1642   64.6017 H   0  0  0  0  0  0  0  0  0  0  0  0
    4.1191   64.4878   65.7916 H   0  0  0  0  0  0  0  0  0  0  0  0
  2  1  1  0
  3  2  2  0
  4  3  1  0
  5  4  2  0
  6  5  1  0
  7  2  1  0
  7  6  2  0
  8  7  1  0
  9  8  2  0
 10  8  1  0
 10  1  1  0
 11 10  2  0
 12  1  1  0
 14 13  1  0
 14 12  1  0
 15 14  2  0
  3 16  1  0
  4 17  1  0
  5 18  1  0
  6 19  1  0
 12 20  1  0
 12 21  1  0
 13 22  1  0
 13 23  1  0
M  END
>  <score>  (9) 
-6.889

$$$$
