=
     RDKit          3D

 63 67  0  0  0  0  0  0  0  0999 V2000
    0.6630   66.3740   69.2540 N   0  0  0  0  0  0  0  0  0  0  0  0
   -0.2800   66.8220   68.3590 C   0  0  0  0  0  0  0  0  0  0  0  0
   -1.4790   66.5500   68.4420 O   0  0  0  0  0  0  0  0  0  0  0  0
    0.2110   65.9200   70.5680 C   0  0  0  0  0  0  0  0  0  0  0  0
    0.0210   63.6570   69.7690 O   0  0  0  0  0  0  0  0  0  0  0  0
    0.4500   64.4040   70.6490 C   0  0  0  0  0  0  0  0  0  0  0  0
    1.1840   64.0280   71.7600 N   0  0  0  0  0  0  0  0  0  0  0  0
    1.5740   62.6840   72.0260 C   0  0  0  0  0  0  0  0  0  0  0  0
    2.8590   62.2120   71.6830 C   0  0  0  0  0  0  0  0  0  0  0  0
    3.9010   63.0660   70.9990 C   0  0  0  0  0  0  0  0  0  0  0  0
    4.9700   62.2630   70.2600 C   0  0  0  0  0  0  0  0  0  0  0  0
    5.5430   61.2040   71.1870 C   0  0  0  0  0  0  0  0  0  0  0  0
    4.4500   60.2230   71.5890 C   0  0  0  0  0  0  0  0  0  0  0  0
    3.1420   60.8730   71.9660 C   0  0  0  0  0  0  0  0  0  0  0  0
    2.2380   60.0270   72.5090 N   0  0  0  0  0  0  0  0  0  0  0  0
    1.0080   60.4650   72.7930 C   0  0  0  0  0  0  0  0  0  0  0  0
    0.6000   61.7950   72.5710 C   0  0  0  0  0  0  0  0  0  0  0  0
   -0.7290   62.1490   72.9380 C   0  0  0  0  0  0  0  0  0  0  0  0
   -1.6150   61.2140   73.4740 C   0  0  0  0  0  0  0  0  0  0  0  0
   -1.1950   59.9080   73.6680 C   0  0  0  0  0  0  0  0  0  0  0  0
    0.1090   59.5530   73.3280 C   0  0  0  0  0  0  0  0  0  0  0  0
    0.2130   67.6850   67.1850 C   0  0  1  0  0  0  0  0  0  0  0  0
   -0.9010   67.7820   66.1650 N   0  0  0  0  0  4  0  0  0  0  0  0
    0.6180   69.0950   67.6420 C   0  0  0  0  0  0  0  0  0  0  0  0
    2.0740   69.3960   67.3750 C   0  0  0  0  0  0  0  0  0  0  0  0
    2.6400   69.0860   66.1330 C   0  0  0  0  0  0  0  0  0  0  0  0
    3.9980   69.3090   65.9030 C   0  0  0  0  0  0  0  0  0  0  0  0
    4.8180   69.8520   66.9020 C   0  0  0  0  0  0  0  0  0  0  0  0
    4.2520   70.1890   68.1530 C   0  0  0  0  0  0  0  0  0  0  0  0
    2.8830   69.9620   68.3720 C   0  0  0  0  0  0  0  0  0  0  0  0
    5.0720   70.7450   69.1480 C   0  0  0  0  0  0  0  0  0  0  0  0
    6.4310   70.9610   68.9140 C   0  0  0  0  0  0  0  0  0  0  0  0
    6.9870   70.6260   67.6840 C   0  0  0  0  0  0  0  0  0  0  0  0
    6.1860   70.0770   66.6820 C   0  0  0  0  0  0  0  0  0  0  0  0
    1.6623   66.3587   69.0049 H   0  0  0  0  0  0  0  0  0  0  0  0
    0.7815   66.4315   71.3573 H   0  0  0  0  0  0  0  0  0  0  0  0
   -0.8559   66.1488   70.7076 H   0  0  0  0  0  0  0  0  0  0  0  0
    1.4632   64.7586   72.4302 H   0  0  0  0  0  0  0  0  0  0  0  0
    3.3929   63.7173   70.2726 H   0  0  0  0  0  0  0  0  0  0  0  0
    4.4161   63.6346   71.7873 H   0  0  0  0  0  0  0  0  0  0  0  0
    4.5207   61.7765   69.3817 H   0  0  0  0  0  0  0  0  0  0  0  0
    5.7750   62.9385   69.9349 H   0  0  0  0  0  0  0  0  0  0  0  0
    6.3475   60.6618   70.6686 H   0  0  0  0  0  0  0  0  0  0  0  0
    5.9441   61.6898   72.0888 H   0  0  0  0  0  0  0  0  0  0  0  0
    4.2667   59.5452   70.7422 H   0  0  0  0  0  0  0  0  0  0  0  0
    4.8114   59.6980   72.4856 H   0  0  0  0  0  0  0  0  0  0  0  0
   -1.0661   63.1863   72.7954 H   0  0  0  0  0  0  0  0  0  0  0  0
   -2.6398   61.5116   73.7407 H   0  0  0  0  0  0  0  0  0  0  0  0
   -1.8837   59.1591   74.0861 H   0  0  0  0  0  0  0  0  0  0  0  0
    0.4367   58.5154   73.4890 H   0  0  0  0  0  0  0  0  0  0  0  0
    1.1054   67.2115   66.7498 H   0  0  0  0  0  0  0  0  0  0  0  0
   -1.8057   67.8608   66.6511 H   0  0  0  0  0  0  0  0  0  0  0  0
   -0.7548   68.6134   65.5749 H   0  0  0  0  0  0  0  0  0  0  0  0
   -0.9007   66.9378   65.5749 H   0  0  0  0  0  0  0  0  0  0  0  0
    0.0017   69.8304   67.1040 H   0  0  0  0  0  0  0  0  0  0  0  0
    0.4599   69.1513   68.7291 H   0  0  0  0  0  0  0  0  0  0  0  0
    2.0114   68.6647   65.3347 H   0  0  0  0  0  0  0  0  0  0  0  0
    4.4312   69.0552   64.9243 H   0  0  0  0  0  0  0  0  0  0  0  0
    2.4380   70.2324   69.3409 H   0  0  0  0  0  0  0  0  0  0  0  0
    4.6386   71.0133   70.1228 H   0  0  0  0  0  0  0  0  0  0  0  0
    7.0624   71.3963   69.7026 H   0  0  0  0  0  0  0  0  0  0  0  0
    8.0586   70.7939   67.5010 H   0  0  0  0  0  0  0  0  0  0  0  0
    6.6310   69.8179   65.7100 H   0  0  0  0  0  0  0  0  0  0  0  0
  2  1  1  0
  3  2  2  0
  4  1  1  0
  6  5  2  0
  6  4  1  0
  7  6  1  0
  8  7  1  0
  9  8  1  0
 10  9  1  0
 11 10  1  0
 12 11  1  0
 13 12  1  0
 14 13  1  0
 14  9  2  0
 15 14  1  0
 16 15  2  0
 17 16  1  0
 17  8  2  0
 18 17  1  0
 19 18  2  0
 20 19  1  0
 21 20  2  0
 21 16  1  0
 22  2  1  0
 23 22  1  0
 24 22  1  0
 25 24  1  0
 26 25  2  0
 27 26  1  0
 28 27  2  0
 29 28  1  0
 30 29  2  0
 30 25  1  0
 31 29  1  0
 32 31  2  0
 33 32  1  0
 34 28  1  0
 34 33  2  0
  1 35  1  0
  4 36  1  0
  4 37  1  0
  7 38  1  0
 10 39  1  0
 10 40  1  0
 11 41  1  0
 11 42  1  0
 12 43  1  0
 12 44  1  0
 13 45  1  0
 13 46  1  0
 18 47  1  0
 19 48  1  0
 20 49  1  0
 21 50  1  0
 22 51  1  6
 23 52  1  0
 23 53  1  0
 23 54  1  0
 24 55  1  0
 24 56  1  0
 26 57  1  0
 27 58  1  0
 30 59  1  0
 31 60  1  0
 32 61  1  0
 33 62  1  0
 34 63  1  0
M  CHG  1  23   1
M  END
>  <score>  (1) 
-14.126

$$$$
=
     RDKit          3D

 63 67  0  0  0  0  0  0  0  0999 V2000
    0.7530   66.3400   69.2340 N   0  0  0  0  0  0  0  0  0  0  0  0
   -0.1830   66.8390   68.3580 C   0  0  0  0  0  0  0  0  0  0  0  0
   -1.3920   66.6330   68.4660 O   0  0  0  0  0  0  0  0  0  0  0  0
    0.3040   65.9120   70.5580 C   0  0  0  0  0  0  0  0  0  0  0  0
   -0.0710   63.6580   69.7980 O   0  0  0  0  0  0  0  0  0  0  0  0
    0.4650   64.3860   70.6360 C   0  0  0  0  0  0  0  0  0  0  0  0
    1.2580   63.9760   71.6930 N   0  0  0  0  0  0  0  0  0  0  0  0
    1.5920   62.6130   71.9430 C   0  0  0  0  0  0  0  0  0  0  0  0
    0.6710   61.7330   72.5520 C   0  0  0  0  0  0  0  0  0  0  0  0
   -0.7090   62.1550   72.9980 C   0  0  0  0  0  0  0  0  0  0  0  0
   -1.3160   61.2490   74.0690 C   0  0  0  0  0  0  0  0  0  0  0  0
   -1.2220   59.8000   73.6220 C   0  0  0  0  0  0  0  0  0  0  0  0
    0.2400   59.3970   73.4770 C   0  0  0  0  0  0  0  0  0  0  0  0
    1.0970   60.4210   72.7740 C   0  0  0  0  0  0  0  0  0  0  0  0
    2.3420   59.9880   72.4690 N   0  0  0  0  0  0  0  0  0  0  0  0
    3.2250   60.8350   71.9340 C   0  0  0  0  0  0  0  0  0  0  0  0
    2.9180   62.1790   71.6450 C   0  0  0  0  0  0  0  0  0  0  0  0
    3.9350   62.9780   71.0520 C   0  0  0  0  0  0  0  0  0  0  0  0
    5.2060   62.4670   70.7850 C   0  0  0  0  0  0  0  0  0  0  0  0
    5.4890   61.1460   71.0940 C   0  0  0  0  0  0  0  0  0  0  0  0
    4.4960   60.3480   71.6600 C   0  0  0  0  0  0  0  0  0  0  0  0
    0.3320   67.6740   67.1730 C   0  0  1  0  0  0  0  0  0  0  0  0
   -0.7590   67.7360   66.1260 N   0  0  0  0  0  4  0  0  0  0  0  0
    0.7180   69.0980   67.6010 C   0  0  0  0  0  0  0  0  0  0  0  0
    2.1780   69.4000   67.3620 C   0  0  0  0  0  0  0  0  0  0  0  0
    2.7690   69.0910   66.1310 C   0  0  0  0  0  0  0  0  0  0  0  0
    4.1310   69.3160   65.9260 C   0  0  0  0  0  0  0  0  0  0  0  0
    4.9310   69.8600   66.9410 C   0  0  0  0  0  0  0  0  0  0  0  0
    4.3410   70.1960   68.1810 C   0  0  0  0  0  0  0  0  0  0  0  0
    2.9680   69.9680   68.3740 C   0  0  0  0  0  0  0  0  0  0  0  0
    5.1410   70.7540   69.1920 C   0  0  0  0  0  0  0  0  0  0  0  0
    6.5040   70.9710   68.9830 C   0  0  0  0  0  0  0  0  0  0  0  0
    7.0830   70.6370   67.7640 C   0  0  0  0  0  0  0  0  0  0  0  0
    6.3030   70.0860   66.7470 C   0  0  0  0  0  0  0  0  0  0  0  0
    1.7445   66.2697   68.9641 H   0  0  0  0  0  0  0  0  0  0  0  0
    0.9163   66.3934   71.3348 H   0  0  0  0  0  0  0  0  0  0  0  0
   -0.7461   66.1970   70.7191 H   0  0  0  0  0  0  0  0  0  0  0  0
    1.6266   64.6938   72.3332 H   0  0  0  0  0  0  0  0  0  0  0  0
   -0.6454   63.1758   73.4028 H   0  0  0  0  0  0  0  0  0  0  0  0
   -1.3637   62.0913   72.1163 H   0  0  0  0  0  0  0  0  0  0  0  0
   -0.7656   61.3777   75.0126 H   0  0  0  0  0  0  0  0  0  0  0  0
   -2.3720   61.5176   74.2198 H   0  0  0  0  0  0  0  0  0  0  0  0
   -1.7058   59.1551   74.3704 H   0  0  0  0  0  0  0  0  0  0  0  0
   -1.7274   59.6864   72.6516 H   0  0  0  0  0  0  0  0  0  0  0  0
    0.6539   59.2327   74.4828 H   0  0  0  0  0  0  0  0  0  0  0  0
    0.2577   58.4896   72.8554 H   0  0  0  0  0  0  0  0  0  0  0  0
    3.7139   64.0251   70.7975 H   0  0  0  0  0  0  0  0  0  0  0  0
    5.9772   63.1079   70.3328 H   0  0  0  0  0  0  0  0  0  0  0  0
    6.4880   60.7310   70.8945 H   0  0  0  0  0  0  0  0  0  0  0  0
    4.7268   59.2989   71.8971 H   0  0  0  0  0  0  0  0  0  0  0  0
    1.2373   67.1955   66.7711 H   0  0  0  0  0  0  0  0  0  0  0  0
   -1.6773   67.7882   66.5897 H   0  0  0  0  0  0  0  0  0  0  0  0
   -0.6234   68.5706   65.5379 H   0  0  0  0  0  0  0  0  0  0  0  0
   -0.7189   66.8914   65.5379 H   0  0  0  0  0  0  0  0  0  0  0  0
    0.1115   69.8148   67.0280 H   0  0  0  0  0  0  0  0  0  0  0  0
    0.5326   69.1830   68.6819 H   0  0  0  0  0  0  0  0  0  0  0  0
    2.1564   68.6685   65.3209 H   0  0  0  0  0  0  0  0  0  0  0  0
    4.5829   69.0633   64.9555 H   0  0  0  0  0  0  0  0  0  0  0  0
    2.5044   70.2391   69.3340 H   0  0  0  0  0  0  0  0  0  0  0  0
    4.6888   71.0226   70.1581 H   0  0  0  0  0  0  0  0  0  0  0  0
    7.1203   71.4065   69.7833 H   0  0  0  0  0  0  0  0  0  0  0  0
    8.1575   70.8074   67.6012 H   0  0  0  0  0  0  0  0  0  0  0  0
    6.7673   69.8262   65.7842 H   0  0  0  0  0  0  0  0  0  0  0  0
  2  1  1  0
  3  2  2  0
  4  1  1  0
  6  5  2  0
  6  4  1  0
  7  6  1  0
  8  7  1  0
  9  8  1  0
 10  9  1  0
 11 10  1  0
 12 11  1  0
 13 12  1  0
 14 13  1  0
 14  9  2  0
 15 14  1  0
 16 15  2  0
 17 16  1  0
 17  8  2  0
 18 17  1  0
 19 18  2  0
 20 19  1  0
 21 20  2  0
 21 16  1  0
 22  2  1  0
 23 22  1  0
 24 22  1  0
 25 24  1  0
 26 25  2  0
 27 26  1  0
 28 27  2  0
 29 28  1  0
 30 29  2  0
 30 25  1  0
 31 29  1  0
 32 31  2  0
 33 32  1  0
 34 28  1  0
 34 33  2  0
  1 35  1  0
  4 36  1  0
  4 37  1  0
  7 38  1  0
 10 39  1  0
 10 40  1  0
 11 41  1  0
 11 42  1  0
 12 43  1  0
 12 44  1  0
 13 45  1  0
 13 46  1  0
 18 47  1  0
 19 48  1  0
 20 49  1  0
 21 50  1  0
 22 51  1  6
 23 52  1  0
 23 53  1  0
 23 54  1  0
 24 55  1  0
 24 56  1  0
 26 57  1  0
 27 58  1  0
 30 59  1  0
 31 60  1  0
 32 61  1  0
 33 62  1  0
 34 63  1  0
M  CHG  1  23   1
M  END
>  <score>  (2) 
-13.95

$$$$
=
     RDKit          3D

 63 67  0  0  0  0  0  0  0  0999 V2000
    0.6290   66.5280   69.2970 N   0  0  0  0  0  0  0  0  0  0  0  0
   -0.3000   66.9290   68.3650 C   0  0  0  0  0  0  0  0  0  0  0  0
   -1.4820   66.5830   68.3910 O   0  0  0  0  0  0  0  0  0  0  0  0
    0.1480   66.0300   70.5850 C   0  0  0  0  0  0  0  0  0  0  0  0
    0.0250   63.7840   69.7270 O   0  0  0  0  0  0  0  0  0  0  0  0
    0.4190   64.5180   70.6340 C   0  0  0  0  0  0  0  0  0  0  0  0
    1.1360   64.1310   71.7520 N   0  0  0  0  0  0  0  0  0  0  0  0
    1.5500   62.7890   71.9940 C   0  0  0  0  0  0  0  0  0  0  0  0
    2.8400   62.3440   71.6340 C   0  0  0  0  0  0  0  0  0  0  0  0
    3.8630   63.2260   70.9560 C   0  0  0  0  0  0  0  0  0  0  0  0
    4.9390   62.4510   70.1960 C   0  0  0  0  0  0  0  0  0  0  0  0
    5.5360   61.3880   71.1020 C   0  0  0  0  0  0  0  0  0  0  0  0
    4.4620   60.3830   71.4970 C   0  0  0  0  0  0  0  0  0  0  0  0
    3.1470   61.0060   71.8940 C   0  0  0  0  0  0  0  0  0  0  0  0
    2.2610   60.1360   72.4310 N   0  0  0  0  0  0  0  0  0  0  0  0
    1.0260   60.5500   72.7300 C   0  0  0  0  0  0  0  0  0  0  0  0
    0.5950   61.8760   72.5320 C   0  0  0  0  0  0  0  0  0  0  0  0
   -0.7370   62.2030   72.9140 C   0  0  0  0  0  0  0  0  0  0  0  0
   -1.6040   61.2450   73.4420 C   0  0  0  0  0  0  0  0  0  0  0  0
   -1.1610   59.9430   73.6120 C   0  0  0  0  0  0  0  0  0  0  0  0
    0.1460   59.6140   73.2570 C   0  0  0  0  0  0  0  0  0  0  0  0
    0.1910   67.8360   67.2230 C   0  0  1  0  0  0  0  0  0  0  0  0
   -0.9890   68.6290   66.7060 N   0  0  0  0  0  4  0  0  0  0  0  0
    1.2940   68.7980   67.6910 C   0  0  0  0  0  0  0  0  0  0  0  0
    2.4000   68.9520   66.6730 C   0  0  0  0  0  0  0  0  0  0  0  0
    3.6330   69.4940   67.0500 C   0  0  0  0  0  0  0  0  0  0  0  0
    4.6360   69.6910   66.0990 C   0  0  0  0  0  0  0  0  0  0  0  0
    4.4330   69.3440   64.7560 C   0  0  0  0  0  0  0  0  0  0  0  0
    3.1980   68.7750   64.3680 C   0  0  0  0  0  0  0  0  0  0  0  0
    2.1970   68.5800   65.3350 C   0  0  0  0  0  0  0  0  0  0  0  0
    3.0010   68.4160   63.0250 C   0  0  0  0  0  0  0  0  0  0  0  0
    4.0060   68.6200   62.0770 C   0  0  0  0  0  0  0  0  0  0  0  0
    5.2190   69.1820   62.4610 C   0  0  0  0  0  0  0  0  0  0  0  0
    5.4340   69.5400   63.7920 C   0  0  0  0  0  0  0  0  0  0  0  0
    1.6374   66.5773   69.0928 H   0  0  0  0  0  0  0  0  0  0  0  0
    0.6828   66.5329   71.4042 H   0  0  0  0  0  0  0  0  0  0  0  0
   -0.9274   66.2318   70.6980 H   0  0  0  0  0  0  0  0  0  0  0  0
    1.3836   64.8507   72.4460 H   0  0  0  0  0  0  0  0  0  0  0  0
    3.3390   63.8806   70.2440 H   0  0  0  0  0  0  0  0  0  0  0  0
    4.3749   63.7907   71.7491 H   0  0  0  0  0  0  0  0  0  0  0  0
    4.4902   61.9706   69.3141 H   0  0  0  0  0  0  0  0  0  0  0  0
    5.7305   63.1440   69.8746 H   0  0  0  0  0  0  0  0  0  0  0  0
    6.3453   60.8670   70.5694 H   0  0  0  0  0  0  0  0  0  0  0  0
    5.9360   61.8665   72.0081 H   0  0  0  0  0  0  0  0  0  0  0  0
    4.2829   59.7155   70.6412 H   0  0  0  0  0  0  0  0  0  0  0  0
    4.8388   59.8499   72.3823 H   0  0  0  0  0  0  0  0  0  0  0  0
   -1.0918   63.2368   72.7899 H   0  0  0  0  0  0  0  0  0  0  0  0
   -2.6314   61.5215   73.7211 H   0  0  0  0  0  0  0  0  0  0  0  0
   -1.8344   59.1765   74.0232 H   0  0  0  0  0  0  0  0  0  0  0  0
    0.4916   58.5794   73.3989 H   0  0  0  0  0  0  0  0  0  0  0  0
    0.6197   67.2053   66.4303 H   0  0  0  0  0  0  0  0  0  0  0  0
   -1.5323   68.9941   67.5013 H   0  0  0  0  0  0  0  0  0  0  0  0
   -0.6500   69.4144   66.1324 H   0  0  0  0  0  0  0  0  0  0  0  0
   -1.5882   68.0184   66.1324 H   0  0  0  0  0  0  0  0  0  0  0  0
    0.8455   69.7852   67.8762 H   0  0  0  0  0  0  0  0  0  0  0  0
    1.7382   68.3768   68.6049 H   0  0  0  0  0  0  0  0  0  0  0  0
    3.8133   69.7663   68.1004 H   0  0  0  0  0  0  0  0  0  0  0  0
    5.5987   70.1244   66.4077 H   0  0  0  0  0  0  0  0  0  0  0  0
    1.2388   68.1285   65.0384 H   0  0  0  0  0  0  0  0  0  0  0  0
    2.0445   67.9691   62.7161 H   0  0  0  0  0  0  0  0  0  0  0  0
    3.8384   68.3365   61.0275 H   0  0  0  0  0  0  0  0  0  0  0  0
    6.0100   69.3444   61.7140 H   0  0  0  0  0  0  0  0  0  0  0  0
    6.3974   69.9802   64.0889 H   0  0  0  0  0  0  0  0  0  0  0  0
  2  1  1  0
  3  2  2  0
  4  1  1  0
  6  5  2  0
  6  4  1  0
  7  6  1  0
  8  7  1  0
  9  8  1  0
 10  9  1  0
 11 10  1  0
 12 11  1  0
 13 12  1  0
 14 13  1  0
 14  9  2  0
 15 14  1  0
 16 15  2  0
 17 16  1  0
 17  8  2  0
 18 17  1  0
 19 18  2  0
 20 19  1  0
 21 20  2  0
 21 16  1  0
 22  2  1  0
 23 22  1  0
 24 22  1  0
 25 24  1  0
 26 25  2  0
 27 26  1  0
 28 27  2  0
 29 28  1  0
 30 29  2  0
 30 25  1  0
 31 29  1  0
 32 31  2  0
 33 32  1  0
 34 28  1  0
 34 33  2  0
  1 35  1  0
  4 36  1  0
  4 37  1  0
  7 38  1  0
 10 39  1  0
 10 40  1  0
 11 41  1  0
 11 42  1  0
 12 43  1  0
 12 44  1  0
 13 45  1  0
 13 46  1  0
 18 47  1  0
 19 48  1  0
 20 49  1  0
 21 50  1  0
 22 51  1  6
 23 52  1  0
 23 53  1  0
 23 54  1  0
 24 55  1  0
 24 56  1  0
 26 57  1  0
 27 58  1  0
 30 59  1  0
 31 60  1  0
 32 61  1  0
 33 62  1  0
 34 63  1  0
M  CHG  1  23   1
M  END
>  <score>  (3) 
-13.218

$$$$
=
     RDKit          3D

 63 67  0  0  0  0  0  0  0  0999 V2000
    0.2630   67.6030   68.9610 N   0  0  0  0  0  0  0  0  0  0  0  0
   -0.2390   66.3720   69.3160 C   0  0  0  0  0  0  0  0  0  0  0  0
   -1.0740   65.7600   68.6470 O   0  0  0  0  0  0  0  0  0  0  0  0
    0.1420   68.0250   67.5660 C   0  0  0  0  0  0  0  0  0  0  0  0
    2.0730   66.9170   66.6510 O   0  0  0  0  0  0  0  0  0  0  0  0
    1.5460   67.9910   66.9430 C   0  0  0  0  0  0  0  0  0  0  0  0
    2.0850   69.2500   66.7490 N   0  0  0  0  0  0  0  0  0  0  0  0
    3.3540   69.4780   66.1420 C   0  0  0  0  0  0  0  0  0  0  0  0
    3.5720   69.2010   64.7750 C   0  0  0  0  0  0  0  0  0  0  0  0
    2.5090   68.6330   63.8630 C   0  0  0  0  0  0  0  0  0  0  0  0
    3.0670   67.9320   62.6260 C   0  0  0  0  0  0  0  0  0  0  0  0
    4.0630   68.8440   61.9290 C   0  0  0  0  0  0  0  0  0  0  0  0
    5.2430   69.1220   62.8520 C   0  0  0  0  0  0  0  0  0  0  0  0
    4.8550   69.4390   64.2750 C   0  0  0  0  0  0  0  0  0  0  0  0
    5.8770   69.8770   65.0440 N   0  0  0  0  0  0  0  0  0  0  0  0
    5.6790   70.0950   66.3470 C   0  0  0  0  0  0  0  0  0  0  0  0
    4.4300   69.9100   66.9720 C   0  0  0  0  0  0  0  0  0  0  0  0
    4.3360   70.2010   68.3630 C   0  0  0  0  0  0  0  0  0  0  0  0
    5.4420   70.6290   69.0980 C   0  0  0  0  0  0  0  0  0  0  0  0
    6.6640   70.7880   68.4640 C   0  0  0  0  0  0  0  0  0  0  0  0
    6.7650   70.5220   67.0990 C   0  0  0  0  0  0  0  0  0  0  0  0
    0.2640   65.7560   70.6330 C   0  0  1  0  0  0  0  0  0  0  0  0
   -0.6040   66.2730   71.7600 N   0  0  0  0  0  4  0  0  0  0  0  0
    0.2100   64.2210   70.6040 C   0  0  0  0  0  0  0  0  0  0  0  0
    1.5690   63.5900   70.7940 C   0  0  0  0  0  0  0  0  0  0  0  0
    2.7190   64.2430   70.3360 C   0  0  0  0  0  0  0  0  0  0  0  0
    3.9700   63.6370   70.4590 C   0  0  0  0  0  0  0  0  0  0  0  0
    4.1020   62.3700   71.0460 C   0  0  0  0  0  0  0  0  0  0  0  0
    2.9500   61.7110   71.5320 C   0  0  0  0  0  0  0  0  0  0  0  0
    1.6970   62.3330   71.4060 C   0  0  0  0  0  0  0  0  0  0  0  0
    3.0850   60.4490   72.1330 C   0  0  0  0  0  0  0  0  0  0  0  0
    4.3390   59.8440   72.2480 C   0  0  0  0  0  0  0  0  0  0  0  0
    5.4710   60.4940   71.7670 C   0  0  0  0  0  0  0  0  0  0  0  0
    5.3550   61.7500   71.1710 C   0  0  0  0  0  0  0  0  0  0  0  0
    0.7125   68.2117   69.6599 H   0  0  0  0  0  0  0  0  0  0  0  0
   -0.5250   67.3387   67.0237 H   0  0  0  0  0  0  0  0  0  0  0  0
   -0.2812   69.0386   67.5059 H   0  0  0  0  0  0  0  0  0  0  0  0
    1.5398   70.0667   67.0600 H   0  0  0  0  0  0  0  0  0  0  0  0
    1.9142   67.9056   64.4349 H   0  0  0  0  0  0  0  0  0  0  0  0
    1.9072   69.4816   63.5057 H   0  0  0  0  0  0  0  0  0  0  0  0
    3.5713   67.0023   62.9283 H   0  0  0  0  0  0  0  0  0  0  0  0
    2.2428   67.6965   61.9366 H   0  0  0  0  0  0  0  0  0  0  0  0
    4.4242   68.3566   61.0114 H   0  0  0  0  0  0  0  0  0  0  0  0
    3.5694   69.7936   61.6750 H   0  0  0  0  0  0  0  0  0  0  0  0
    5.8906   68.2328   62.8611 H   0  0  0  0  0  0  0  0  0  0  0  0
    5.7496   70.0148   62.4566 H   0  0  0  0  0  0  0  0  0  0  0  0
    3.3670   70.0854   68.8707 H   0  0  0  0  0  0  0  0  0  0  0  0
    5.3447   70.8388   70.1734 H   0  0  0  0  0  0  0  0  0  0  0  0
    7.5454   71.1207   69.0319 H   0  0  0  0  0  0  0  0  0  0  0  0
    7.7371   70.6549   66.6017 H   0  0  0  0  0  0  0  0  0  0  0  0
    1.3152   66.0450   70.7794 H   0  0  0  0  0  0  0  0  0  0  0  0
   -0.1797   66.0203   72.6639 H   0  0  0  0  0  0  0  0  0  0  0  0
   -0.6812   67.2978   71.6915 H   0  0  0  0  0  0  0  0  0  0  0  0
   -1.5419   65.8528   71.6915 H   0  0  0  0  0  0  0  0  0  0  0  0
   -0.4546   63.8763   71.4099 H   0  0  0  0  0  0  0  0  0  0  0  0
   -0.1631   63.9187   69.6144 H   0  0  0  0  0  0  0  0  0  0  0  0
    2.6363   65.2391   69.8767 H   0  0  0  0  0  0  0  0  0  0  0  0
    4.8648   64.1601   70.0906 H   0  0  0  0  0  0  0  0  0  0  0  0
    0.8007   61.8266   71.7935 H   0  0  0  0  0  0  0  0  0  0  0  0
    2.1938   59.9313   72.5173 H   0  0  0  0  0  0  0  0  0  0  0  0
    4.4312   58.8541   72.7187 H   0  0  0  0  0  0  0  0  0  0  0  0
    6.4583   60.0173   71.8567 H   0  0  0  0  0  0  0  0  0  0  0  0
    6.2545   62.2596   70.7953 H   0  0  0  0  0  0  0  0  0  0  0  0
  2  1  1  0
  3  2  2  0
  4  1  1  0
  6  5  2  0
  6  4  1  0
  7  6  1  0
  8  7  1  0
  9  8  1  0
 10  9  1  0
 11 10  1  0
 12 11  1  0
 13 12  1  0
 14 13  1  0
 14  9  2  0
 15 14  1  0
 16 15  2  0
 17 16  1  0
 17  8  2  0
 18 17  1  0
 19 18  2  0
 20 19  1  0
 21 20  2  0
 21 16  1  0
 22  2  1  0
 23 22  1  0
 24 22  1  0
 25 24  1  0
 26 25  2  0
 27 26  1  0
 28 27  2  0
 29 28  1  0
 30 29  2  0
 30 25  1  0
 31 29  1  0
 32 31  2  0
 33 32  1  0
 34 28  1  0
 34 33  2  0
  1 35  1  0
  4 36  1  0
  4 37  1  0
  7 38  1  0
 10 39  1  0
 10 40  1  0
 11 41  1  0
 11 42  1  0
 12 43  1  0
 12 44  1  0
 13 45  1  0
 13 46  1  0
 18 47  1  0
 19 48  1  0
 20 49  1  0
 21 50  1  0
 22 51  1  1
 23 52  1  0
 23 53  1  0
 23 54  1  0
 24 55  1  0
 24 56  1  0
 26 57  1  0
 27 58  1  0
 30 59  1  0
 31 60  1  0
 32 61  1  0
 33 62  1  0
 34 63  1  0
M  CHG  1  23   1
M  END
>  <score>  (4) 
-13.161

$$$$
=
     RDKit          3D

 63 67  0  0  0  0  0  0  0  0999 V2000
    0.6950   66.5440   69.2650 N   0  0  0  0  0  0  0  0  0  0  0  0
   -0.2450   67.0280   68.3840 C   0  0  0  0  0  0  0  0  0  0  0  0
   -1.4460   66.7650   68.4600 O   0  0  0  0  0  0  0  0  0  0  0  0
    0.2390   66.0560   70.5660 C   0  0  0  0  0  0  0  0  0  0  0  0
    0.0070   63.8260   69.6890 O   0  0  0  0  0  0  0  0  0  0  0  0
    0.4480   64.5340   70.5950 C   0  0  0  0  0  0  0  0  0  0  0  0
    1.1710   64.1060   71.6940 N   0  0  0  0  0  0  0  0  0  0  0  0
    1.5350   62.7460   71.9150 C   0  0  0  0  0  0  0  0  0  0  0  0
    0.6440   61.8410   72.5310 C   0  0  0  0  0  0  0  0  0  0  0  0
   -0.7330   62.2320   73.0160 C   0  0  0  0  0  0  0  0  0  0  0  0
   -1.2980   61.2990   74.0860 C   0  0  0  0  0  0  0  0  0  0  0  0
   -1.1890   59.8580   73.6150 C   0  0  0  0  0  0  0  0  0  0  0  0
    0.2750   59.4840   73.4290 C   0  0  0  0  0  0  0  0  0  0  0  0
    1.0980   60.5330   72.7230 C   0  0  0  0  0  0  0  0  0  0  0  0
    2.3420   60.1270   72.3820 N   0  0  0  0  0  0  0  0  0  0  0  0
    3.1980   60.9970   71.8410 C   0  0  0  0  0  0  0  0  0  0  0  0
    2.8610   62.3400   71.5790 C   0  0  0  0  0  0  0  0  0  0  0  0
    3.8500   63.1660   70.9750 C   0  0  0  0  0  0  0  0  0  0  0  0
    5.1230   62.6810   70.6710 C   0  0  0  0  0  0  0  0  0  0  0  0
    5.4360   61.3610   70.9530 C   0  0  0  0  0  0  0  0  0  0  0  0
    4.4700   60.5370   71.5290 C   0  0  0  0  0  0  0  0  0  0  0  0
    0.2560   67.9200   67.2360 C   0  0  1  0  0  0  0  0  0  0  0  0
   -0.9140   68.7280   66.7170 N   0  0  0  0  0  4  0  0  0  0  0  0
    1.3740   68.8690   67.6940 C   0  0  0  0  0  0  0  0  0  0  0  0
    2.4740   69.0070   66.6690 C   0  0  0  0  0  0  0  0  0  0  0  0
    3.7200   69.5270   67.0380 C   0  0  0  0  0  0  0  0  0  0  0  0
    4.7190   69.7090   66.0810 C   0  0  0  0  0  0  0  0  0  0  0  0
    4.5000   69.3700   64.7380 C   0  0  0  0  0  0  0  0  0  0  0  0
    3.2530   68.8240   64.3580 C   0  0  0  0  0  0  0  0  0  0  0  0
    2.2560   68.6430   65.3310 C   0  0  0  0  0  0  0  0  0  0  0  0
    3.0400   68.4730   63.0150 C   0  0  0  0  0  0  0  0  0  0  0  0
    4.0410   68.6620   62.0600 C   0  0  0  0  0  0  0  0  0  0  0  0
    5.2670   69.2020   62.4360 C   0  0  0  0  0  0  0  0  0  0  0  0
    5.4970   69.5530   63.7670 C   0  0  0  0  0  0  0  0  0  0  0  0
    1.6939   66.5259   69.0145 H   0  0  0  0  0  0  0  0  0  0  0  0
    0.8229   66.5295   71.3691 H   0  0  0  0  0  0  0  0  0  0  0  0
   -0.8223   66.3016   70.7186 H   0  0  0  0  0  0  0  0  0  0  0  0
    1.4618   64.8077   72.3897 H   0  0  0  0  0  0  0  0  0  0  0  0
   -0.6776   63.2474   73.4354 H   0  0  0  0  0  0  0  0  0  0  0  0
   -1.4073   62.1707   72.1491 H   0  0  0  0  0  0  0  0  0  0  0  0
   -0.7278   61.4235   75.0184 H   0  0  0  0  0  0  0  0  0  0  0  0
   -2.3549   61.5459   74.2649 H   0  0  0  0  0  0  0  0  0  0  0  0
   -1.6429   59.1936   74.3650 H   0  0  0  0  0  0  0  0  0  0  0  0
   -1.7157   59.7494   72.6554 H   0  0  0  0  0  0  0  0  0  0  0  0
    0.7154   59.3111   74.4220 H   0  0  0  0  0  0  0  0  0  0  0  0
    0.2930   58.5875   72.7919 H   0  0  0  0  0  0  0  0  0  0  0  0
    3.6051   64.2128   70.7419 H   0  0  0  0  0  0  0  0  0  0  0  0
    5.8723   63.3419   70.2109 H   0  0  0  0  0  0  0  0  0  0  0  0
    6.4372   60.9669   70.7246 H   0  0  0  0  0  0  0  0  0  0  0  0
    4.7241   59.4884   71.7431 H   0  0  0  0  0  0  0  0  0  0  0  0
    0.6733   67.2774   66.4468 H   0  0  0  0  0  0  0  0  0  0  0  0
   -1.4534   69.1005   67.5115 H   0  0  0  0  0  0  0  0  0  0  0  0
   -0.5645   69.5087   66.1432 H   0  0  0  0  0  0  0  0  0  0  0  0
   -1.5203   68.1247   66.1432 H   0  0  0  0  0  0  0  0  0  0  0  0
    0.9391   69.8621   67.8800 H   0  0  0  0  0  0  0  0  0  0  0  0
    1.8193   68.4441   68.6057 H   0  0  0  0  0  0  0  0  0  0  0  0
    3.9126   69.7935   68.0877 H   0  0  0  0  0  0  0  0  0  0  0  0
    5.6916   70.1240   66.3841 H   0  0  0  0  0  0  0  0  0  0  0  0
    1.2883   68.2088   65.0395 H   0  0  0  0  0  0  0  0  0  0  0  0
    2.0734   68.0442   62.7119 H   0  0  0  0  0  0  0  0  0  0  0  0
    3.8605   68.3842   61.0111 H   0  0  0  0  0  0  0  0  0  0  0  0
    6.0554   69.3523   61.6837 H   0  0  0  0  0  0  0  0  0  0  0  0
    6.4692   69.9773   64.0581 H   0  0  0  0  0  0  0  0  0  0  0  0
  2  1  1  0
  3  2  2  0
  4  1  1  0
  6  5  2  0
  6  4  1  0
  7  6  1  0
  8  7  1  0
  9  8  1  0
 10  9  1  0
 11 10  1  0
 12 11  1  0
 13 12  1  0
 14 13  1  0
 14  9  2  0
 15 14  1  0
 16 15  2  0
 17 16  1  0
 17  8  2  0
 18 17  1  0
 19 18  2  0
 20 19  1  0
 21 20  2  0
 21 16  1  0
 22  2  1  0
 23 22  1  0
 24 22  1  0
 25 24  1  0
 26 25  2  0
 27 26  1  0
 28 27  2  0
 29 28  1  0
 30 29  2  0
 30 25  1  0
 31 29  1  0
 32 31  2  0
 33 32  1  0
 34 28  1  0
 34 33  2  0
  1 35  1  0
  4 36  1  0
  4 37  1  0
  7 38  1  0
 10 39  1  0
 10 40  1  0
 11 41  1  0
 11 42  1  0
 12 43  1  0
 12 44  1  0
 13 45  1  0
 13 46  1  0
 18 47  1  0
 19 48  1  0
 20 49  1  0
 21 50  1  0
 22 51  1  6
 23 52  1  0
 23 53  1  0
 23 54  1  0
 24 55  1  0
 24 56  1  0
 26 57  1  0
 27 58  1  0
 30 59  1  0
 31 60  1  0
 32 61  1  0
 33 62  1  0
 34 63  1  0
M  CHG  1  23   1
M  END
>  <score>  (5) 
-13.117

$$$$
=
     RDKit          3D

 63 67  0  0  0  0  0  0  0  0999 V2000
    0.0120   66.4620   68.7260 N   0  0  0  0  0  0  0  0  0  0  0  0
    0.7950   66.5010   69.8570 C   0  0  0  0  0  0  0  0  0  0  0  0
    1.7470   67.2690   69.9980 O   0  0  0  0  0  0  0  0  0  0  0  0
    0.0210   67.6230   67.8370 C   0  0  0  0  0  0  0  0  0  0  0  0
    1.9020   66.5770   66.7580 O   0  0  0  0  0  0  0  0  0  0  0  0
    1.3650   67.6340   67.0940 C   0  0  0  0  0  0  0  0  0  0  0  0
    1.8430   68.9100   66.8530 N   0  0  0  0  0  0  0  0  0  0  0  0
    3.0450   69.1780   66.1370 C   0  0  0  0  0  0  0  0  0  0  0  0
    4.1790   69.7170   66.7840 C   0  0  0  0  0  0  0  0  0  0  0  0
    4.2060   70.0680   68.2530 C   0  0  0  0  0  0  0  0  0  0  0  0
    5.2800   71.0900   68.6240 C   0  0  0  0  0  0  0  0  0  0  0  0
    6.6210   70.6460   68.0640 C   0  0  0  0  0  0  0  0  0  0  0  0
    6.5570   70.6010   66.5430 C   0  0  0  0  0  0  0  0  0  0  0  0
    5.3040   69.9630   65.9940 C   0  0  0  0  0  0  0  0  0  0  0  0
    5.3320   69.7440   64.6600 N   0  0  0  0  0  0  0  0  0  0  0  0
    4.2440   69.2760   64.0440 C   0  0  0  0  0  0  0  0  0  0  0  0
    3.0500   68.9710   64.7250 C   0  0  0  0  0  0  0  0  0  0  0  0
    1.9650   68.4530   63.9630 C   0  0  0  0  0  0  0  0  0  0  0  0
    2.0600   68.2740   62.5820 C   0  0  0  0  0  0  0  0  0  0  0  0
    3.2400   68.5970   61.9310 C   0  0  0  0  0  0  0  0  0  0  0  0
    4.3150   69.0890   62.6700 C   0  0  0  0  0  0  0  0  0  0  0  0
    0.4620   65.5060   70.9820 C   0  0  1  0  0  0  0  0  0  0  0  0
   -0.5530   66.1510   71.9010 N   0  0  0  0  0  4  0  0  0  0  0  0
   -0.1060   64.1880   70.4310 C   0  0  0  0  0  0  0  0  0  0  0  0
    0.5550   62.9730   71.0380 C   0  0  0  0  0  0  0  0  0  0  0  0
    1.8580   62.6220   70.6670 C   0  0  0  0  0  0  0  0  0  0  0  0
    2.4500   61.4670   71.1830 C   0  0  0  0  0  0  0  0  0  0  0  0
    1.7580   60.6450   72.0830 C   0  0  0  0  0  0  0  0  0  0  0  0
    0.4500   61.0020   72.4810 C   0  0  0  0  0  0  0  0  0  0  0  0
   -0.1340   62.1680   71.9570 C   0  0  0  0  0  0  0  0  0  0  0  0
   -0.2360   60.1840   73.3940 C   0  0  0  0  0  0  0  0  0  0  0  0
    0.3590   59.0270   73.9020 C   0  0  0  0  0  0  0  0  0  0  0  0
    1.6450   58.6760   73.5070 C   0  0  0  0  0  0  0  0  0  0  0  0
    2.3430   59.4800   72.6050 C   0  0  0  0  0  0  0  0  0  0  0  0
   -0.5654   65.6365   68.5113 H   0  0  0  0  0  0  0  0  0  0  0  0
   -0.8053   67.5479   67.1148 H   0  0  0  0  0  0  0  0  0  0  0  0
   -0.1067   68.5505   68.4145 H   0  0  0  0  0  0  0  0  0  0  0  0
    1.3004   69.7091   67.2106 H   0  0  0  0  0  0  0  0  0  0  0  0
    3.2245   70.4809   68.5289 H   0  0  0  0  0  0  0  0  0  0  0  0
    4.4424   69.1427   68.7989 H   0  0  0  0  0  0  0  0  0  0  0  0
    5.0137   72.0704   68.2023 H   0  0  0  0  0  0  0  0  0  0  0  0
    5.3487   71.1667   69.7192 H   0  0  0  0  0  0  0  0  0  0  0  0
    7.4001   71.3572   68.3756 H   0  0  0  0  0  0  0  0  0  0  0  0
    6.8596   69.6427   68.4468 H   0  0  0  0  0  0  0  0  0  0  0  0
    6.6128   71.6325   66.1649 H   0  0  0  0  0  0  0  0  0  0  0  0
    7.4003   69.9782   66.2099 H   0  0  0  0  0  0  0  0  0  0  0  0
    1.0285   68.1872   64.4752 H   0  0  0  0  0  0  0  0  0  0  0  0
    1.2044   67.8794   62.0144 H   0  0  0  0  0  0  0  0  0  0  0  0
    3.3276   68.4665   60.8423 H   0  0  0  0  0  0  0  0  0  0  0  0
    5.2504   69.3373   62.1472 H   0  0  0  0  0  0  0  0  0  0  0  0
    1.3878   65.2636   71.5244 H   0  0  0  0  0  0  0  0  0  0  0  0
   -0.2856   65.9811   72.8811 H   0  0  0  0  0  0  0  0  0  0  0  0
   -0.5810   67.1652   71.7237 H   0  0  0  0  0  0  0  0  0  0  0  0
   -1.4831   65.7456   71.7237 H   0  0  0  0  0  0  0  0  0  0  0  0
   -1.1833   64.1496   70.6500 H   0  0  0  0  0  0  0  0  0  0  0  0
    0.0884   64.1677   69.3485 H   0  0  0  0  0  0  0  0  0  0  0  0
    2.4182   63.2584   69.9661 H   0  0  0  0  0  0  0  0  0  0  0  0
    3.4726   61.1990   70.8791 H   0  0  0  0  0  0  0  0  0  0  0  0
   -1.1481   62.4540   72.2728 H   0  0  0  0  0  0  0  0  0  0  0  0
   -1.2528   60.4576   73.7123 H   0  0  0  0  0  0  0  0  0  0  0  0
   -0.1898   58.3936   74.6145 H   0  0  0  0  0  0  0  0  0  0  0  0
    2.1126   57.7637   73.9059 H   0  0  0  0  0  0  0  0  0  0  0  0
    3.3616   59.1984   72.2998 H   0  0  0  0  0  0  0  0  0  0  0  0
  2  1  1  0
  3  2  2  0
  4  1  1  0
  6  5  2  0
  6  4  1  0
  7  6  1  0
  8  7  1  0
  9  8  1  0
 10  9  1  0
 11 10  1  0
 12 11  1  0
 13 12  1  0
 14 13  1  0
 14  9  2  0
 15 14  1  0
 16 15  2  0
 17 16  1  0
 17  8  2  0
 18 17  1  0
 19 18  2  0
 20 19  1  0
 21 20  2  0
 21 16  1  0
 22  2  1  0
 23 22  1  0
 24 22  1  0
 25 24  1  0
 26 25  2  0
 27 26  1  0
 28 27  2  0
 29 28  1  0
 30 29  2  0
 30 25  1  0
 31 29  1  0
 32 31  2  0
 33 32  1  0
 34 28  1  0
 34 33  2  0
  1 35  1  0
  4 36  1  0
  4 37  1  0
  7 38  1  0
 10 39  1  0
 10 40  1  0
 11 41  1  0
 11 42  1  0
 12 43  1  0
 12 44  1  0
 13 45  1  0
 13 46  1  0
 18 47  1  0
 19 48  1  0
 20 49  1  0
 21 50  1  0
 22 51  1  1
 23 52  1  0
 23 53  1  0
 23 54  1  0
 24 55  1  0
 24 56  1  0
 26 57  1  0
 27 58  1  0
 30 59  1  0
 31 60  1  0
 32 61  1  0
 33 62  1  0
 34 63  1  0
M  CHG  1  23   1
M  END
>  <score>  (6) 
-12.812

$$$$
=
     RDKit          3D

 63 67  0  0  0  0  0  0  0  0999 V2000
    0.9550   66.4690   68.8600 N   0  0  0  0  0  0  0  0  0  0  0  0
    0.6130   65.8020   70.0130 C   0  0  0  0  0  0  0  0  0  0  0  0
   -0.1210   66.2770   70.8800 O   0  0  0  0  0  0  0  0  0  0  0  0
    0.1150   67.5850   68.4300 C   0  0  0  0  0  0  0  0  0  0  0  0
    0.5980   69.7010   67.3870 O   0  0  0  0  0  0  0  0  0  0  0  0
    1.0030   68.5680   67.6510 C   0  0  0  0  0  0  0  0  0  0  0  0
    2.2420   68.0440   67.3310 N   0  0  0  0  0  0  0  0  0  0  0  0
    3.2570   68.7800   66.6540 C   0  0  0  0  0  0  0  0  0  0  0  0
    3.4770   68.6220   65.2690 C   0  0  0  0  0  0  0  0  0  0  0  0
    2.6870   67.6640   64.4080 C   0  0  0  0  0  0  0  0  0  0  0  0
    3.4000   67.2610   63.1180 C   0  0  0  0  0  0  0  0  0  0  0  0
    3.8770   68.5060   62.3890 C   0  0  0  0  0  0  0  0  0  0  0  0
    4.8940   69.2490   63.2450 C   0  0  0  0  0  0  0  0  0  0  0  0
    4.5080   69.3730   64.6990 C   0  0  0  0  0  0  0  0  0  0  0  0
    5.3050   70.1960   65.4160 N   0  0  0  0  0  0  0  0  0  0  0  0
    5.1230   70.3100   66.7350 C   0  0  0  0  0  0  0  0  0  0  0  0
    4.1110   69.6210   67.4300 C   0  0  0  0  0  0  0  0  0  0  0  0
    3.9990   69.8440   68.8310 C   0  0  0  0  0  0  0  0  0  0  0  0
    4.8740   70.6930   69.5100 C   0  0  0  0  0  0  0  0  0  0  0  0
    5.8730   71.3470   68.8060 C   0  0  0  0  0  0  0  0  0  0  0  0
    5.9820   71.1500   67.4310 C   0  0  0  0  0  0  0  0  0  0  0  0
    1.2120   64.4000   70.2230 C   0  0  1  0  0  0  0  0  0  0  0  0
    2.4940   64.3060   69.4240 N   0  0  0  0  0  4  0  0  0  0  0  0
    1.5060   64.1200   71.7050 C   0  0  0  0  0  0  0  0  0  0  0  0
    0.9980   62.7690   72.1510 C   0  0  0  0  0  0  0  0  0  0  0  0
   -0.3130   62.6300   72.6230 C   0  0  0  0  0  0  0  0  0  0  0  0
   -0.7660   61.3950   73.0900 C   0  0  0  0  0  0  0  0  0  0  0  0
    0.0740   60.2730   73.0900 C   0  0  0  0  0  0  0  0  0  0  0  0
    1.3920   60.3960   72.5960 C   0  0  0  0  0  0  0  0  0  0  0  0
    1.8370   61.6440   72.1260 C   0  0  0  0  0  0  0  0  0  0  0  0
    2.2290   59.2680   72.5840 C   0  0  0  0  0  0  0  0  0  0  0  0
    1.7710   58.0370   73.0570 C   0  0  0  0  0  0  0  0  0  0  0  0
    0.4740   57.9180   73.5450 C   0  0  0  0  0  0  0  0  0  0  0  0
   -0.3720   59.0280   73.5600 C   0  0  0  0  0  0  0  0  0  0  0  0
    1.7820   66.1892   68.3135 H   0  0  0  0  0  0  0  0  0  0  0  0
   -0.6937   67.2166   67.7816 H   0  0  0  0  0  0  0  0  0  0  0  0
   -0.3379   68.0828   69.3001 H   0  0  0  0  0  0  0  0  0  0  0  0
    2.4420   67.0691   67.5963 H   0  0  0  0  0  0  0  0  0  0  0  0
    2.4893   66.7540   64.9936 H   0  0  0  0  0  0  0  0  0  0  0  0
    1.7639   68.1850   64.1140 H   0  0  0  0  0  0  0  0  0  0  0  0
    4.2642   66.6252   63.3606 H   0  0  0  0  0  0  0  0  0  0  0  0
    2.7031   66.7049   62.4738 H   0  0  0  0  0  0  0  0  0  0  0  0
    4.3447   68.2147   61.4370 H   0  0  0  0  0  0  0  0  0  0  0  0
    3.0172   69.1640   62.1944 H   0  0  0  0  0  0  0  0  0  0  0  0
    5.8518   68.7111   63.1873 H   0  0  0  0  0  0  0  0  0  0  0  0
    4.9544   70.2724   62.8462 H   0  0  0  0  0  0  0  0  0  0  0  0
    3.2025   69.3343   69.3930 H   0  0  0  0  0  0  0  0  0  0  0  0
    4.7718   70.8420   70.5951 H   0  0  0  0  0  0  0  0  0  0  0  0
    6.5734   72.0155   69.3281 H   0  0  0  0  0  0  0  0  0  0  0  0
    6.7742   71.6770   66.8790 H   0  0  0  0  0  0  0  0  0  0  0  0
    0.4816   63.6499   69.8854 H   0  0  0  0  0  0  0  0  0  0  0  0
    3.2961   64.2472   70.0675 H   0  0  0  0  0  0  0  0  0  0  0  0
    2.4677   63.4647   68.8304 H   0  0  0  0  0  0  0  0  0  0  0  0
    2.5907   65.1422   68.8304 H   0  0  0  0  0  0  0  0  0  0  0  0
    2.5941   64.1569   71.8617 H   0  0  0  0  0  0  0  0  0  0  0  0
    0.9853   64.8854   72.2992 H   0  0  0  0  0  0  0  0  0  0  0  0
   -0.9889   63.4979   72.6258 H   0  0  0  0  0  0  0  0  0  0  0  0
   -1.7965   61.3011   73.4632 H   0  0  0  0  0  0  0  0  0  0  0  0
    2.8595   61.7404   71.7322 H   0  0  0  0  0  0  0  0  0  0  0  0
    3.2554   59.3555   72.1981 H   0  0  0  0  0  0  0  0  0  0  0  0
    2.4361   57.1609   73.0438 H   0  0  0  0  0  0  0  0  0  0  0  0
    0.1146   56.9481   73.9195 H   0  0  0  0  0  0  0  0  0  0  0  0
   -1.3978   58.9261   73.9438 H   0  0  0  0  0  0  0  0  0  0  0  0
  2  1  1  0
  3  2  2  0
  4  1  1  0
  6  5  2  0
  6  4  1  0
  7  6  1  0
  8  7  1  0
  9  8  1  0
 10  9  1  0
 11 10  1  0
 12 11  1  0
 13 12  1  0
 14 13  1  0
 14  9  2  0
 15 14  1  0
 16 15  2  0
 17 16  1  0
 17  8  2  0
 18 17  1  0
 19 18  2  0
 20 19  1  0
 21 20  2  0
 21 16  1  0
 22  2  1  0
 23 22  1  0
 24 22  1  0
 25 24  1  0
 26 25  2  0
 27 26  1  0
 28 27  2  0
 29 28  1  0
 30 29  2  0
 30 25  1  0
 31 29  1  0
 32 31  2  0
 33 32  1  0
 34 28  1  0
 34 33  2  0
  1 35  1  0
  4 36  1  0
  4 37  1  0
  7 38  1  0
 10 39  1  0
 10 40  1  0
 11 41  1  0
 11 42  1  0
 12 43  1  0
 12 44  1  0
 13 45  1  0
 13 46  1  0
 18 47  1  0
 19 48  1  0
 20 49  1  0
 21 50  1  0
 22 51  1  6
 23 52  1  0
 23 53  1  0
 23 54  1  0
 24 55  1  0
 24 56  1  0
 26 57  1  0
 27 58  1  0
 30 59  1  0
 31 60  1  0
 32 61  1  0
 33 62  1  0
 34 63  1  0
M  CHG  1  23   1
M  END
>  <score>  (7) 
-11.146

$$$$
