=
     RDKit          3D

 45 46  0  0  0  0  0  0  0  0999 V2000
    3.0260   68.3740   65.1690 C   0  0  0  0  0  0  0  0  0  0  0  0
    3.4820   67.4650   64.4750 O   0  0  0  0  0  0  0  0  0  0  0  0
    5.7770   70.6530   67.5870 C   0  0  0  0  0  0  0  0  0  0  0  0
    6.1070   70.2580   66.2860 C   0  0  0  0  0  0  0  0  0  0  0  0
    5.2000   69.5230   65.5200 C   0  0  0  0  0  0  0  0  0  0  0  0
    3.9490   69.1670   66.0420 C   0  0  0  0  0  0  0  0  0  0  0  0
    3.6210   69.5550   67.3460 C   0  0  0  0  0  0  0  0  0  0  0  0
    4.5320   70.2920   68.1120 C   0  0  0  0  0  0  0  0  0  0  0  0
    7.1450   70.6880   69.6910 C   0  0  0  0  0  0  0  0  0  0  0  0
    6.7640   71.4340   68.4210 C   0  0  0  0  0  0  0  0  0  0  0  0
    1.5310   68.6770   65.1360 C   0  0  1  0  0  0  0  0  0  0  0  0
    1.0400   68.6990   63.6900 C   0  0  0  0  0  0  0  0  0  0  0  0
    0.8340   67.5870   65.9740 C   0  0  0  0  0  0  0  0  0  0  0  0
    0.1450   68.1220   67.2270 N   0  0  0  0  0  4  0  0  0  0  0  0
   -0.6260   67.1110   68.0430 C   0  0  0  0  0  0  0  0  0  0  0  0
   -1.9050   66.6960   67.3310 C   0  0  0  0  0  0  0  0  0  0  0  0
   -2.7720   67.9010   66.9830 C   0  0  0  0  0  0  0  0  0  0  0  0
   -1.9870   68.9570   66.2130 C   0  0  0  0  0  0  0  0  0  0  0  0
   -0.7040   69.3460   66.9330 C   0  0  0  0  0  0  0  0  0  0  0  0
    7.0864   70.5280   65.8643 H   0  0  0  0  0  0  0  0  0  0  0  0
    5.4698   69.2206   64.4974 H   0  0  0  0  0  0  0  0  0  0  0  0
    2.6442   69.2800   67.7705 H   0  0  0  0  0  0  0  0  0  0  0  0
    4.2660   70.5901   69.1369 H   0  0  0  0  0  0  0  0  0  0  0  0
    6.8431   71.2792   70.5681 H   0  0  0  0  0  0  0  0  0  0  0  0
    6.6338   69.7142   69.7116 H   0  0  0  0  0  0  0  0  0  0  0  0
    8.2336   70.5312   69.7116 H   0  0  0  0  0  0  0  0  0  0  0  0
    6.3127   72.3986   68.6964 H   0  0  0  0  0  0  0  0  0  0  0  0
    7.6760   71.5805   67.8237 H   0  0  0  0  0  0  0  0  0  0  0  0
    1.3022   69.6661   65.5594 H   0  0  0  0  0  0  0  0  0  0  0  0
   -0.0588   68.7482   63.6766 H   0  0  0  0  0  0  0  0  0  0  0  0
    1.4528   69.5796   63.1760 H   0  0  0  0  0  0  0  0  0  0  0  0
    1.3724   67.7851   63.1760 H   0  0  0  0  0  0  0  0  0  0  0  0
    0.0772   67.0960   65.3445 H   0  0  0  0  0  0  0  0  0  0  0  0
    1.6166   66.8909   66.3102 H   0  0  0  0  0  0  0  0  0  0  0  0
    0.9332   68.3942   67.8316 H   0  0  0  0  0  0  0  0  0  0  0  0
    0.0023   66.2220   68.2010 H   0  0  0  0  0  0  0  0  0  0  0  0
   -0.8944   67.5697   69.0061 H   0  0  0  0  0  0  0  0  0  0  0  0
   -1.6412   66.1666   66.4035 H   0  0  0  0  0  0  0  0  0  0  0  0
   -2.4782   66.0443   68.0069 H   0  0  0  0  0  0  0  0  0  0  0  0
   -3.6180   67.5650   66.3655 H   0  0  0  0  0  0  0  0  0  0  0  0
   -3.1243   68.3526   67.9221 H   0  0  0  0  0  0  0  0  0  0  0  0
   -1.7310   68.5569   65.2208 H   0  0  0  0  0  0  0  0  0  0  0  0
   -2.6162   69.8552   66.1275 H   0  0  0  0  0  0  0  0  0  0  0  0
   -0.1307   70.0380   66.2986 H   0  0  0  0  0  0  0  0  0  0  0  0
   -0.9681   69.8276   67.8861 H   0  0  0  0  0  0  0  0  0  0  0  0
  2  1  2  0
  4  3  2  0
  5  4  1  0
  6  1  1  0
  6  5  2  0
  7  6  1  0
  8  7  2  0
  8  3  1  0
 10  9  1  0
 10  3  1  0
 11  1  1  0
 12 11  1  0
 13 11  1  0
 14 13  1  0
 15 14  1  0
 16 15  1  0
 17 16  1  0
 18 17  1  0
 19 18  1  0
 19 14  1  0
  4 20  1  0
  5 21  1  0
  7 22  1  0
  8 23  1  0
  9 24  1  0
  9 25  1  0
  9 26  1  0
 10 27  1  0
 10 28  1  0
 11 29  1  1
 12 30  1  0
 12 31  1  0
 12 32  1  0
 13 33  1  0
 13 34  1  0
 14 35  1  0
 15 36  1  0
 15 37  1  0
 16 38  1  0
 16 39  1  0
 17 40  1  0
 17 41  1  0
 18 42  1  0
 18 43  1  0
 19 44  1  0
 19 45  1  0
M  CHG  1  14   1
M  END
>  <score>  (1) 
-9.43

$$$$
=
     RDKit          3D

 45 46  0  0  0  0  0  0  0  0999 V2000
    0.1920   63.0620   72.2630 C   0  0  0  0  0  0  0  0  0  0  0  0
   -0.2210   64.0130   72.9250 O   0  0  0  0  0  0  0  0  0  0  0  0
   -0.5430   59.0810   73.7550 C   0  0  0  0  0  0  0  0  0  0  0  0
   -1.5200   60.0780   73.8300 C   0  0  0  0  0  0  0  0  0  0  0  0
   -1.2620   61.3590   73.3390 C   0  0  0  0  0  0  0  0  0  0  0  0
   -0.0210   61.6670   72.7660 C   0  0  0  0  0  0  0  0  0  0  0  0
    0.9610   60.6730   72.6960 C   0  0  0  0  0  0  0  0  0  0  0  0
    0.7000   59.3890   73.1890 C   0  0  0  0  0  0  0  0  0  0  0  0
   -0.0320   56.6320   73.5540 C   0  0  0  0  0  0  0  0  0  0  0  0
   -0.8160   57.7000   74.3000 C   0  0  0  0  0  0  0  0  0  0  0  0
    0.9180   63.3130   70.9440 C   0  0  1  0  0  0  0  0  0  0  0  0
    0.3460   64.5580   70.2700 C   0  0  0  0  0  0  0  0  0  0  0  0
    2.4150   63.4630   71.2790 C   0  0  0  0  0  0  0  0  0  0  0  0
    3.3370   63.2320   70.0840 N   0  0  0  0  0  4  0  0  0  0  0  0
    2.9800   62.0730   69.1840 C   0  0  0  0  0  0  0  0  0  0  0  0
    3.2730   60.7430   69.8630 C   0  0  0  0  0  0  0  0  0  0  0  0
    4.7240   60.6560   70.3250 C   0  0  0  0  0  0  0  0  0  0  0  0
    5.1160   61.8540   71.1840 C   0  0  0  0  0  0  0  0  0  0  0  0
    4.7990   63.1720   70.4950 C   0  0  0  0  0  0  0  0  0  0  0  0
   -2.4984   59.8516   74.2788 H   0  0  0  0  0  0  0  0  0  0  0  0
   -2.0402   62.1338   73.4025 H   0  0  0  0  0  0  0  0  0  0  0  0
    1.9413   60.9011   72.2522 H   0  0  0  0  0  0  0  0  0  0  0  0
    1.4790   58.6146   73.1311 H   0  0  0  0  0  0  0  0  0  0  0  0
    0.4582   55.9643   74.2778 H   0  0  0  0  0  0  0  0  0  0  0  0
   -0.7175   56.0481   72.9223 H   0  0  0  0  0  0  0  0  0  0  0  0
    0.7305   57.1110   72.9223 H   0  0  0  0  0  0  0  0  0  0  0  0
   -1.8905   57.4853   74.2033 H   0  0  0  0  0  0  0  0  0  0  0  0
   -0.5015   57.6806   75.3539 H   0  0  0  0  0  0  0  0  0  0  0  0
    0.7839   62.4833   70.2343 H   0  0  0  0  0  0  0  0  0  0  0  0
    0.0175   65.2729   71.0387 H   0  0  0  0  0  0  0  0  0  0  0  0
    1.1203   65.0239   69.6429 H   0  0  0  0  0  0  0  0  0  0  0  0
   -0.5119   64.2740   69.6429 H   0  0  0  0  0  0  0  0  0  0  0  0
    2.5858   64.4815   71.6578 H   0  0  0  0  0  0  0  0  0  0  0  0
    2.6565   62.6919   72.0254 H   0  0  0  0  0  0  0  0  0  0  0  0
    3.1819   64.0673   69.5016 H   0  0  0  0  0  0  0  0  0  0  0  0
    1.9085   62.1239   68.9404 H   0  0  0  0  0  0  0  0  0  0  0  0
    3.5875   62.1402   68.2694 H   0  0  0  0  0  0  0  0  0  0  0  0
    2.6132   60.6352   70.7365 H   0  0  0  0  0  0  0  0  0  0  0  0
    3.0951   59.9383   69.1345 H   0  0  0  0  0  0  0  0  0  0  0  0
    4.8559   59.7366   70.9143 H   0  0  0  0  0  0  0  0  0  0  0  0
    5.3677   60.6486   69.4331 H   0  0  0  0  0  0  0  0  0  0  0  0
    4.5632   61.8070   72.1338 H   0  0  0  0  0  0  0  0  0  0  0  0
    6.2017   61.8107   71.3553 H   0  0  0  0  0  0  0  0  0  0  0  0
    5.0129   64.0003   71.1865 H   0  0  0  0  0  0  0  0  0  0  0  0
    5.4214   63.2547   69.5918 H   0  0  0  0  0  0  0  0  0  0  0  0
  2  1  2  0
  4  3  2  0
  5  4  1  0
  6  1  1  0
  6  5  2  0
  7  6  1  0
  8  7  2  0
  8  3  1  0
 10  9  1  0
 10  3  1  0
 11  1  1  0
 12 11  1  0
 13 11  1  0
 14 13  1  0
 15 14  1  0
 16 15  1  0
 17 16  1  0
 18 17  1  0
 19 18  1  0
 19 14  1  0
  4 20  1  0
  5 21  1  0
  7 22  1  0
  8 23  1  0
  9 24  1  0
  9 25  1  0
  9 26  1  0
 10 27  1  0
 10 28  1  0
 11 29  1  6
 12 30  1  0
 12 31  1  0
 12 32  1  0
 13 33  1  0
 13 34  1  0
 14 35  1  0
 15 36  1  0
 15 37  1  0
 16 38  1  0
 16 39  1  0
 17 40  1  0
 17 41  1  0
 18 42  1  0
 18 43  1  0
 19 44  1  0
 19 45  1  0
M  CHG  1  14   1
M  END
>  <score>  (2) 
-7.47

$$$$
=
     RDKit          3D

 45 46  0  0  0  0  0  0  0  0999 V2000
    1.2900   62.7620   73.3390 C   0  0  0  0  0  0  0  0  0  0  0  0
    1.5680   63.1090   74.4860 O   0  0  0  0  0  0  0  0  0  0  0  0
    1.0600   65.7580   70.2430 C   0  0  0  0  0  0  0  0  0  0  0  0
    0.0720   65.6510   71.2270 C   0  0  0  0  0  0  0  0  0  0  0  0
    0.1680   64.6760   72.2220 C   0  0  0  0  0  0  0  0  0  0  0  0
    1.2520   63.7880   72.2480 C   0  0  0  0  0  0  0  0  0  0  0  0
    2.2370   63.8880   71.2600 C   0  0  0  0  0  0  0  0  0  0  0  0
    2.1380   64.8670   70.2640 C   0  0  0  0  0  0  0  0  0  0  0  0
   -0.4230   66.7900   68.5020 C   0  0  0  0  0  0  0  0  0  0  0  0
    0.9480   66.8020   69.1590 C   0  0  0  0  0  0  0  0  0  0  0  0
    0.9830   61.2970   73.0420 C   0  0  1  0  0  0  0  0  0  0  0  0
   -0.5250   61.1040   72.8990 C   0  0  0  0  0  0  0  0  0  0  0  0
    1.7450   60.9320   71.7520 C   0  0  0  0  0  0  0  0  0  0  0  0
    2.8720   59.9260   71.9690 N   0  0  0  0  0  4  0  0  0  0  0  0
    3.8960   60.2900   73.0180 C   0  0  0  0  0  0  0  0  0  0  0  0
    4.7930   61.4220   72.5360 C   0  0  0  0  0  0  0  0  0  0  0  0
    5.4610   61.0830   71.2070 C   0  0  0  0  0  0  0  0  0  0  0  0
    4.4420   60.6520   70.1570 C   0  0  0  0  0  0  0  0  0  0  0  0
    3.5450   59.5330   70.6650 C   0  0  0  0  0  0  0  0  0  0  0  0
   -0.7861   66.3392   71.2171 H   0  0  0  0  0  0  0  0  0  0  0  0
   -0.6141   64.6043   72.9922 H   0  0  0  0  0  0  0  0  0  0  0  0
    3.0917   63.1956   71.2655 H   0  0  0  0  0  0  0  0  0  0  0  0
    2.9163   64.9362   69.4897 H   0  0  0  0  0  0  0  0  0  0  0  0
   -1.2018   66.7832   69.2788 H   0  0  0  0  0  0  0  0  0  0  0  0
   -0.5374   67.6872   67.8759 H   0  0  0  0  0  0  0  0  0  0  0  0
   -0.5217   65.8910   67.8759 H   0  0  0  0  0  0  0  0  0  0  0  0
    1.7116   66.6028   68.3927 H   0  0  0  0  0  0  0  0  0  0  0  0
    1.0975   67.7898   69.6193 H   0  0  0  0  0  0  0  0  0  0  0  0
    1.3073   60.6346   73.8582 H   0  0  0  0  0  0  0  0  0  0  0  0
   -0.9834   61.0453   73.8972 H   0  0  0  0  0  0  0  0  0  0  0  0
   -0.9530   61.9547   72.3484 H   0  0  0  0  0  0  0  0  0  0  0  0
   -0.7249   60.1729   72.3484 H   0  0  0  0  0  0  0  0  0  0  0  0
    1.0293   60.5025   71.0356 H   0  0  0  0  0  0  0  0  0  0  0  0
    2.2077   61.8577   71.3791 H   0  0  0  0  0  0  0  0  0  0  0  0
    2.3839   59.1074   72.3596 H   0  0  0  0  0  0  0  0  0  0  0  0
    3.3756   60.6084   73.9333 H   0  0  0  0  0  0  0  0  0  0  0  0
    4.5220   59.4077   73.2173 H   0  0  0  0  0  0  0  0  0  0  0  0
    4.1848   62.3296   72.4084 H   0  0  0  0  0  0  0  0  0  0  0  0
    5.5814   61.5794   73.2868 H   0  0  0  0  0  0  0  0  0  0  0  0
    5.9966   61.9711   70.8405 H   0  0  0  0  0  0  0  0  0  0  0  0
    6.1546   60.2460   71.3755 H   0  0  0  0  0  0  0  0  0  0  0  0
    3.8164   61.5171   69.8920 H   0  0  0  0  0  0  0  0  0  0  0  0
    4.9918   60.2779   69.2807 H   0  0  0  0  0  0  0  0  0  0  0  0
    2.7727   59.3204   69.9111 H   0  0  0  0  0  0  0  0  0  0  0  0
    4.1636   58.6412   70.8441 H   0  0  0  0  0  0  0  0  0  0  0  0
  2  1  2  0
  4  3  2  0
  5  4  1  0
  6  1  1  0
  6  5  2  0
  7  6  1  0
  8  7  2  0
  8  3  1  0
 10  9  1  0
 10  3  1  0
 11  1  1  0
 12 11  1  0
 13 11  1  0
 14 13  1  0
 15 14  1  0
 16 15  1  0
 17 16  1  0
 18 17  1  0
 19 18  1  0
 19 14  1  0
  4 20  1  0
  5 21  1  0
  7 22  1  0
  8 23  1  0
  9 24  1  0
  9 25  1  0
  9 26  1  0
 10 27  1  0
 10 28  1  0
 11 29  1  1
 12 30  1  0
 12 31  1  0
 12 32  1  0
 13 33  1  0
 13 34  1  0
 14 35  1  0
 15 36  1  0
 15 37  1  0
 16 38  1  0
 16 39  1  0
 17 40  1  0
 17 41  1  0
 18 42  1  0
 18 43  1  0
 19 44  1  0
 19 45  1  0
M  CHG  1  14   1
M  END
>  <score>  (3) 
-7.231

$$$$
=
     RDKit          3D

 45 46  0  0  0  0  0  0  0  0999 V2000
    0.4050   65.7740   70.4210 C   0  0  0  0  0  0  0  0  0  0  0  0
   -0.2640   66.3030   71.3080 O   0  0  0  0  0  0  0  0  0  0  0  0
    2.6960   62.2570   71.4200 C   0  0  0  0  0  0  0  0  0  0  0  0
    1.3530   62.3810   71.7920 C   0  0  0  0  0  0  0  0  0  0  0  0
    0.6300   63.5270   71.4560 C   0  0  0  0  0  0  0  0  0  0  0  0
    1.2370   64.5710   70.7440 C   0  0  0  0  0  0  0  0  0  0  0  0
    2.5810   64.4510   70.3780 C   0  0  0  0  0  0  0  0  0  0  0  0
    3.3050   63.3020   70.7160 C   0  0  0  0  0  0  0  0  0  0  0  0
    3.7820   60.9810   73.2880 C   0  0  0  0  0  0  0  0  0  0  0  0
    3.4820   61.0250   71.7970 C   0  0  0  0  0  0  0  0  0  0  0  0
    0.3840   66.3490   69.0080 C   0  0  1  0  0  0  0  0  0  0  0  0
   -1.0500   66.7010   68.6150 C   0  0  0  0  0  0  0  0  0  0  0  0
    1.3090   67.5830   69.0120 C   0  0  0  0  0  0  0  0  0  0  0  0
    0.9480   68.6250   67.9570 N   0  0  0  0  0  4  0  0  0  0  0  0
    0.9740   68.1530   66.5220 C   0  0  0  0  0  0  0  0  0  0  0  0
    2.4030   67.9390   66.0430 C   0  0  0  0  0  0  0  0  0  0  0  0
    3.2520   69.1920   66.2270 C   0  0  0  0  0  0  0  0  0  0  0  0
    3.1840   69.7150   67.6580 C   0  0  0  0  0  0  0  0  0  0  0  0
    1.7470   69.9060   68.1230 C   0  0  0  0  0  0  0  0  0  0  0  0
    0.8639   61.5707   72.3525 H   0  0  0  0  0  0  0  0  0  0  0  0
   -0.4258   63.6116   71.7527 H   0  0  0  0  0  0  0  0  0  0  0  0
    3.0716   65.2634   69.8218 H   0  0  0  0  0  0  0  0  0  0  0  0
    4.3628   63.2195   70.4256 H   0  0  0  0  0  0  0  0  0  0  0  0
    2.8488   61.1179   73.8540 H   0  0  0  0  0  0  0  0  0  0  0  0
    4.2267   60.0080   73.5440 H   0  0  0  0  0  0  0  0  0  0  0  0
    4.4874   61.7853   73.5440 H   0  0  0  0  0  0  0  0  0  0  0  0
    4.4320   61.0251   71.2424 H   0  0  0  0  0  0  0  0  0  0  0  0
    2.8766   60.1422   71.5436 H   0  0  0  0  0  0  0  0  0  0  0  0
    0.7444   65.6241   68.2632 H   0  0  0  0  0  0  0  0  0  0  0  0
   -1.6532   66.8491   69.5229 H   0  0  0  0  0  0  0  0  0  0  0  0
   -1.0505   67.6259   68.0196 H   0  0  0  0  0  0  0  0  0  0  0  0
   -1.4787   65.8814   68.0196 H   0  0  0  0  0  0  0  0  0  0  0  0
    1.2505   68.0574   70.0027 H   0  0  0  0  0  0  0  0  0  0  0  0
    2.3223   67.2254   68.7765 H   0  0  0  0  0  0  0  0  0  0  0  0
   -0.0457   68.8184   68.1471 H   0  0  0  0  0  0  0  0  0  0  0  0
    0.4232   67.2039   66.4456 H   0  0  0  0  0  0  0  0  0  0  0  0
    0.5051   68.9229   65.8917 H   0  0  0  0  0  0  0  0  0  0  0  0
    2.8525   67.1160   66.6181 H   0  0  0  0  0  0  0  0  0  0  0  0
    2.3731   67.6991   64.9699 H   0  0  0  0  0  0  0  0  0  0  0  0
    4.2979   68.9526   65.9844 H   0  0  0  0  0  0  0  0  0  0  0  0
    2.8605   69.9725   65.5580 H   0  0  0  0  0  0  0  0  0  0  0  0
    3.6810   68.9945   68.3243 H   0  0  0  0  0  0  0  0  0  0  0  0
    3.6859   70.6934   67.6884 H   0  0  0  0  0  0  0  0  0  0  0  0
    1.7475   70.1950   69.1844 H   0  0  0  0  0  0  0  0  0  0  0  0
    1.2813   70.6921   67.5105 H   0  0  0  0  0  0  0  0  0  0  0  0
  2  1  2  0
  4  3  2  0
  5  4  1  0
  6  1  1  0
  6  5  2  0
  7  6  1  0
  8  7  2  0
  8  3  1  0
 10  9  1  0
 10  3  1  0
 11  1  1  0
 12 11  1  0
 13 11  1  0
 14 13  1  0
 15 14  1  0
 16 15  1  0
 17 16  1  0
 18 17  1  0
 19 18  1  0
 19 14  1  0
  4 20  1  0
  5 21  1  0
  7 22  1  0
  8 23  1  0
  9 24  1  0
  9 25  1  0
  9 26  1  0
 10 27  1  0
 10 28  1  0
 11 29  1  6
 12 30  1  0
 12 31  1  0
 12 32  1  0
 13 33  1  0
 13 34  1  0
 14 35  1  0
 15 36  1  0
 15 37  1  0
 16 38  1  0
 16 39  1  0
 17 40  1  0
 17 41  1  0
 18 42  1  0
 18 43  1  0
 19 44  1  0
 19 45  1  0
M  CHG  1  14   1
M  END
>  <score>  (4) 
-7.092

$$$$
=
     RDKit          3D

 45 46  0  0  0  0  0  0  0  0999 V2000
    3.3130   60.8340   70.7240 C   0  0  0  0  0  0  0  0  0  0  0  0
    3.2050   60.0580   69.7750 O   0  0  0  0  0  0  0  0  0  0  0  0
    1.1260   64.5530   70.7080 C   0  0  0  0  0  0  0  0  0  0  0  0
    2.4510   64.4860   70.2650 C   0  0  0  0  0  0  0  0  0  0  0  0
    3.1390   63.2710   70.2760 C   0  0  0  0  0  0  0  0  0  0  0  0
    2.5160   62.1020   70.7340 C   0  0  0  0  0  0  0  0  0  0  0  0
    1.1940   62.1690   71.1850 C   0  0  0  0  0  0  0  0  0  0  0  0
    0.5060   63.3880   71.1730 C   0  0  0  0  0  0  0  0  0  0  0  0
    0.8300   66.7690   69.5690 C   0  0  0  0  0  0  0  0  0  0  0  0
    0.3870   65.8690   70.7120 C   0  0  0  0  0  0  0  0  0  0  0  0
    4.2590   60.4990   71.8740 C   0  0  1  0  0  0  0  0  0  0  0  0
    5.6540   61.0420   71.5700 C   0  0  0  0  0  0  0  0  0  0  0  0
    3.6530   61.1220   73.1470 C   0  0  0  0  0  0  0  0  0  0  0  0
    3.2300   60.0940   74.1930 N   0  0  0  0  0  4  0  0  0  0  0  0
    2.7130   58.7790   73.6590 C   0  0  0  0  0  0  0  0  0  0  0  0
    1.3320   58.9460   73.0400 C   0  0  0  0  0  0  0  0  0  0  0  0
    0.3460   59.5670   74.0240 C   0  0  0  0  0  0  0  0  0  0  0  0
    0.8850   60.8650   74.6180 C   0  0  0  0  0  0  0  0  0  0  0  0
    2.2720   60.6810   75.2160 C   0  0  0  0  0  0  0  0  0  0  0  0
    2.9540   65.3959   69.9058 H   0  0  0  0  0  0  0  0  0  0  0  0
    4.1797   63.2309   69.9219 H   0  0  0  0  0  0  0  0  0  0  0  0
    0.6930   61.2605   71.5505 H   0  0  0  0  0  0  0  0  0  0  0  0
   -0.5326   63.4305   71.5328 H   0  0  0  0  0  0  0  0  0  0  0  0
    1.2810   67.6853   69.9775 H   0  0  0  0  0  0  0  0  0  0  0  0
    1.5705   66.2397   68.9514 H   0  0  0  0  0  0  0  0  0  0  0  0
   -0.0411   67.0330   68.9514 H   0  0  0  0  0  0  0  0  0  0  0  0
    0.5801   66.3829   71.6652 H   0  0  0  0  0  0  0  0  0  0  0  0
   -0.6855   65.6593   70.5861 H   0  0  0  0  0  0  0  0  0  0  0  0
    4.3695   59.4136   72.0143 H   0  0  0  0  0  0  0  0  0  0  0  0
    6.1812   61.2472   72.5134 H   0  0  0  0  0  0  0  0  0  0  0  0
    6.2185   60.2979   70.9889 H   0  0  0  0  0  0  0  0  0  0  0  0
    5.5669   61.9719   70.9889 H   0  0  0  0  0  0  0  0  0  0  0  0
    4.4031   61.7880   73.5984 H   0  0  0  0  0  0  0  0  0  0  0  0
    2.7440   61.6599   72.8397 H   0  0  0  0  0  0  0  0  0  0  0  0
    4.1164   59.8528   74.6588 H   0  0  0  0  0  0  0  0  0  0  0  0
    3.4075   58.4039   72.8929 H   0  0  0  0  0  0  0  0  0  0  0  0
    2.6388   58.0668   74.4940 H   0  0  0  0  0  0  0  0  0  0  0  0
    1.4131   59.5972   72.1572 H   0  0  0  0  0  0  0  0  0  0  0  0
    0.9578   57.9500   72.7610 H   0  0  0  0  0  0  0  0  0  0  0  0
   -0.5965   59.7797   73.4982 H   0  0  0  0  0  0  0  0  0  0  0  0
    0.1859   58.8537   74.8459 H   0  0  0  0  0  0  0  0  0  0  0  0
    0.9377   61.6247   73.8242 H   0  0  0  0  0  0  0  0  0  0  0  0
    0.2051   61.1802   75.4232 H   0  0  0  0  0  0  0  0  0  0  0  0
    2.6536   61.6579   75.5478 H   0  0  0  0  0  0  0  0  0  0  0  0
    2.1987   59.9879   76.0671 H   0  0  0  0  0  0  0  0  0  0  0  0
  2  1  2  0
  4  3  2  0
  5  4  1  0
  6  1  1  0
  6  5  2  0
  7  6  1  0
  8  7  2  0
  8  3  1  0
 10  9  1  0
 10  3  1  0
 11  1  1  0
 12 11  1  0
 13 11  1  0
 14 13  1  0
 15 14  1  0
 16 15  1  0
 17 16  1  0
 18 17  1  0
 19 18  1  0
 19 14  1  0
  4 20  1  0
  5 21  1  0
  7 22  1  0
  8 23  1  0
  9 24  1  0
  9 25  1  0
  9 26  1  0
 10 27  1  0
 10 28  1  0
 11 29  1  1
 12 30  1  0
 12 31  1  0
 12 32  1  0
 13 33  1  0
 13 34  1  0
 14 35  1  0
 15 36  1  0
 15 37  1  0
 16 38  1  0
 16 39  1  0
 17 40  1  0
 17 41  1  0
 18 42  1  0
 18 43  1  0
 19 44  1  0
 19 45  1  0
M  CHG  1  14   1
M  END
>  <score>  (5) 
-7.087

$$$$
=
     RDKit          3D

 45 46  0  0  0  0  0  0  0  0999 V2000
    0.4980   62.9590   72.3520 C   0  0  0  0  0  0  0  0  0  0  0  0
   -0.2940   63.6550   72.9860 O   0  0  0  0  0  0  0  0  0  0  0  0
    2.0980   59.3820   74.1580 C   0  0  0  0  0  0  0  0  0  0  0  0
    2.6970   60.6300   74.3580 C   0  0  0  0  0  0  0  0  0  0  0  0
    2.1610   61.7750   73.7670 C   0  0  0  0  0  0  0  0  0  0  0  0
    1.0180   61.6930   72.9610 C   0  0  0  0  0  0  0  0  0  0  0  0
    0.4210   60.4450   72.7520 C   0  0  0  0  0  0  0  0  0  0  0  0
    0.9600   59.2980   73.3470 C   0  0  0  0  0  0  0  0  0  0  0  0
    4.0790   58.3960   75.3410 C   0  0  0  0  0  0  0  0  0  0  0  0
    2.6870   58.1420   74.7840 C   0  0  0  0  0  0  0  0  0  0  0  0
    0.9450   63.3940   70.9590 C   0  0  1  0  0  0  0  0  0  0  0  0
    0.0720   64.5500   70.4750 C   0  0  0  0  0  0  0  0  0  0  0  0
    2.4310   63.7890   71.0680 C   0  0  0  0  0  0  0  0  0  0  0  0
    3.3000   63.2250   69.9480 N   0  0  0  0  0  4  0  0  0  0  0  0
    2.8650   61.8970   69.3730 C   0  0  0  0  0  0  0  0  0  0  0  0
    3.1280   60.7650   70.3560 C   0  0  0  0  0  0  0  0  0  0  0  0
    4.5900   60.7250   70.7900 C   0  0  0  0  0  0  0  0  0  0  0  0
    5.0600   62.0780   71.3130 C   0  0  0  0  0  0  0  0  0  0  0  0
    4.7720   63.1980   70.3240 C   0  0  0  0  0  0  0  0  0  0  0  0
    3.5969   60.7096   74.9856 H   0  0  0  0  0  0  0  0  0  0  0  0
    2.6403   62.7507   73.9355 H   0  0  0  0  0  0  0  0  0  0  0  0
   -0.4745   60.3648   72.1183 H   0  0  0  0  0  0  0  0  0  0  0  0
    0.4845   58.3210   73.1755 H   0  0  0  0  0  0  0  0  0  0  0  0
    4.0409   58.3891   76.4403 H   0  0  0  0  0  0  0  0  0  0  0  0
    4.7627   57.6078   74.9928 H   0  0  0  0  0  0  0  0  0  0  0  0
    4.4403   59.3749   74.9928 H   0  0  0  0  0  0  0  0  0  0  0  0
    2.7478   57.3525   74.0205 H   0  0  0  0  0  0  0  0  0  0  0  0
    2.0361   57.8379   75.6170 H   0  0  0  0  0  0  0  0  0  0  0  0
    0.8346   62.5867   70.2200 H   0  0  0  0  0  0  0  0  0  0  0  0
   -0.3356   65.0898   71.3424 H   0  0  0  0  0  0  0  0  0  0  0  0
    0.6782   65.2377   69.8670 H   0  0  0  0  0  0  0  0  0  0  0  0
   -0.7553   64.1551   69.8670 H   0  0  0  0  0  0  0  0  0  0  0  0
    2.5012   64.8865   71.0427 H   0  0  0  0  0  0  0  0  0  0  0  0
    2.8075   63.3656   72.0108 H   0  0  0  0  0  0  0  0  0  0  0  0
    3.1580   63.8975   69.1809 H   0  0  0  0  0  0  0  0  0  0  0  0
    1.7886   61.9368   69.1497 H   0  0  0  0  0  0  0  0  0  0  0  0
    3.4418   61.7062   68.4560 H   0  0  0  0  0  0  0  0  0  0  0  0
    2.4959   60.9100   71.2445 H   0  0  0  0  0  0  0  0  0  0  0  0
    2.8918   59.8140   69.8561 H   0  0  0  0  0  0  0  0  0  0  0  0
    4.7050   59.9753   71.5867 H   0  0  0  0  0  0  0  0  0  0  0  0
    5.2011   60.4651   69.9131 H   0  0  0  0  0  0  0  0  0  0  0  0
    4.5397   62.2947   72.2576 H   0  0  0  0  0  0  0  0  0  0  0  0
    6.1484   62.0267   71.4635 H   0  0  0  0  0  0  0  0  0  0  0  0
    5.0446   64.1607   70.7810 H   0  0  0  0  0  0  0  0  0  0  0  0
    5.3639   63.0233   69.4134 H   0  0  0  0  0  0  0  0  0  0  0  0
  2  1  2  0
  4  3  2  0
  5  4  1  0
  6  1  1  0
  6  5  2  0
  7  6  1  0
  8  7  2  0
  8  3  1  0
 10  9  1  0
 10  3  1  0
 11  1  1  0
 12 11  1  0
 13 11  1  0
 14 13  1  0
 15 14  1  0
 16 15  1  0
 17 16  1  0
 18 17  1  0
 19 18  1  0
 19 14  1  0
  4 20  1  0
  5 21  1  0
  7 22  1  0
  8 23  1  0
  9 24  1  0
  9 25  1  0
  9 26  1  0
 10 27  1  0
 10 28  1  0
 11 29  1  6
 12 30  1  0
 12 31  1  0
 12 32  1  0
 13 33  1  0
 13 34  1  0
 14 35  1  0
 15 36  1  0
 15 37  1  0
 16 38  1  0
 16 39  1  0
 17 40  1  0
 17 41  1  0
 18 42  1  0
 18 43  1  0
 19 44  1  0
 19 45  1  0
M  CHG  1  14   1
M  END
>  <score>  (6) 
-6.911

$$$$
=
     RDKit          3D

 45 46  0  0  0  0  0  0  0  0999 V2000
    1.2470   67.2780   68.9200 C   0  0  0  0  0  0  0  0  0  0  0  0
    1.9050   68.2760   69.2140 O   0  0  0  0  0  0  0  0  0  0  0  0
    1.0230   63.9830   71.6960 C   0  0  0  0  0  0  0  0  0  0  0  0
    2.0430   64.0630   70.7420 C   0  0  0  0  0  0  0  0  0  0  0  0
    2.0980   65.1400   69.8560 C   0  0  0  0  0  0  0  0  0  0  0  0
    1.1320   66.1550   69.9040 C   0  0  0  0  0  0  0  0  0  0  0  0
    0.1070   66.0720   70.8520 C   0  0  0  0  0  0  0  0  0  0  0  0
    0.0540   64.9910   71.7400 C   0  0  0  0  0  0  0  0  0  0  0  0
    1.8700   61.6770   72.2090 C   0  0  0  0  0  0  0  0  0  0  0  0
    0.9550   62.8110   72.6440 C   0  0  0  0  0  0  0  0  0  0  0  0
    0.5620   67.1940   67.5590 C   0  0  1  0  0  0  0  0  0  0  0  0
   -0.5140   68.2740   67.4550 C   0  0  0  0  0  0  0  0  0  0  0  0
    1.6630   67.3610   66.4920 C   0  0  0  0  0  0  0  0  0  0  0  0
    1.7560   68.7730   65.9210 N   0  0  0  0  0  4  0  0  0  0  0  0
    1.4850   68.9100   64.4410 C   0  0  0  0  0  0  0  0  0  0  0  0
    2.6330   68.3370   63.6210 C   0  0  0  0  0  0  0  0  0  0  0  0
    3.9670   68.9740   63.9990 C   0  0  0  0  0  0  0  0  0  0  0  0
    4.2220   68.8980   65.5010 C   0  0  0  0  0  0  0  0  0  0  0  0
    3.0560   69.4590   66.3020 C   0  0  0  0  0  0  0  0  0  0  0  0
    2.8061   63.2725   70.6898 H   0  0  0  0  0  0  0  0  0  0  0  0
    2.9072   65.1930   69.1128 H   0  0  0  0  0  0  0  0  0  0  0  0
   -0.6602   66.8589   70.9000 H   0  0  0  0  0  0  0  0  0  0  0  0
   -0.7579   64.9337   72.4799 H   0  0  0  0  0  0  0  0  0  0  0  0
    2.2769   61.1727   73.0979 H   0  0  0  0  0  0  0  0  0  0  0  0
    1.2985   60.9550   71.6072 H   0  0  0  0  0  0  0  0  0  0  0  0
    2.6965   62.0830   71.6072 H   0  0  0  0  0  0  0  0  0  0  0  0
   -0.0800   62.4401   72.6775 H   0  0  0  0  0  0  0  0  0  0  0  0
    1.2850   63.1545   73.6355 H   0  0  0  0  0  0  0  0  0  0  0  0
    0.0536   66.2295   67.4127 H   0  0  0  0  0  0  0  0  0  0  0  0
   -0.8220   68.5832   68.4647 H   0  0  0  0  0  0  0  0  0  0  0  0
   -0.1110   69.1421   66.9127 H   0  0  0  0  0  0  0  0  0  0  0  0
   -1.3835   67.8742   66.9127 H   0  0  0  0  0  0  0  0  0  0  0  0
    2.6307   67.1070   66.9491 H   0  0  0  0  0  0  0  0  0  0  0  0
    1.4046   66.6933   65.6569 H   0  0  0  0  0  0  0  0  0  0  0  0
    0.9702   69.2616   66.3734 H   0  0  0  0  0  0  0  0  0  0  0  0
    0.5603   68.3684   64.1929 H   0  0  0  0  0  0  0  0  0  0  0  0
    1.3818   69.9785   64.2009 H   0  0  0  0  0  0  0  0  0  0  0  0
    2.6921   67.2530   63.7986 H   0  0  0  0  0  0  0  0  0  0  0  0
    2.4381   68.5516   62.5599 H   0  0  0  0  0  0  0  0  0  0  0  0
    4.7760   68.4463   63.4727 H   0  0  0  0  0  0  0  0  0  0  0  0
    3.9352   70.0347   63.7094 H   0  0  0  0  0  0  0  0  0  0  0  0
    4.3743   67.8458   65.7834 H   0  0  0  0  0  0  0  0  0  0  0  0
    5.1135   69.5014   65.7271 H   0  0  0  0  0  0  0  0  0  0  0  0
    3.2461   69.3004   67.3738 H   0  0  0  0  0  0  0  0  0  0  0  0
    2.9637   70.5329   66.0826 H   0  0  0  0  0  0  0  0  0  0  0  0
  2  1  2  0
  4  3  2  0
  5  4  1  0
  6  1  1  0
  6  5  2  0
  7  6  1  0
  8  7  2  0
  8  3  1  0
 10  9  1  0
 10  3  1  0
 11  1  1  0
 12 11  1  0
 13 11  1  0
 14 13  1  0
 15 14  1  0
 16 15  1  0
 17 16  1  0
 18 17  1  0
 19 18  1  0
 19 14  1  0
  4 20  1  0
  5 21  1  0
  7 22  1  0
  8 23  1  0
  9 24  1  0
  9 25  1  0
  9 26  1  0
 10 27  1  0
 10 28  1  0
 11 29  1  6
 12 30  1  0
 12 31  1  0
 12 32  1  0
 13 33  1  0
 13 34  1  0
 14 35  1  0
 15 36  1  0
 15 37  1  0
 16 38  1  0
 16 39  1  0
 17 40  1  0
 17 41  1  0
 18 42  1  0
 18 43  1  0
 19 44  1  0
 19 45  1  0
M  CHG  1  14   1
M  END
>  <score>  (7) 
-6.867

$$$$
=
     RDKit          3D

 45 46  0  0  0  0  0  0  0  0999 V2000
    3.8850   59.4680   71.7450 C   0  0  0  0  0  0  0  0  0  0  0  0
    3.9510   59.1750   70.5520 O   0  0  0  0  0  0  0  0  0  0  0  0
    1.5710   56.8930   74.3200 C   0  0  0  0  0  0  0  0  0  0  0  0
    1.4610   56.8190   72.9280 C   0  0  0  0  0  0  0  0  0  0  0  0
    2.2210   57.6600   72.1130 C   0  0  0  0  0  0  0  0  0  0  0  0
    3.1030   58.5920   72.6760 C   0  0  0  0  0  0  0  0  0  0  0  0
    3.2090   58.6730   74.0690 C   0  0  0  0  0  0  0  0  0  0  0  0
    2.4450   57.8290   74.8830 C   0  0  0  0  0  0  0  0  0  0  0  0
   -0.3360   55.2640   74.4090 C   0  0  0  0  0  0  0  0  0  0  0  0
    0.7380   55.9950   75.2010 C   0  0  0  0  0  0  0  0  0  0  0  0
    4.5930   60.7170   72.2610 C   0  0  1  0  0  0  0  0  0  0  0  0
    5.7400   61.0850   71.3220 C   0  0  0  0  0  0  0  0  0  0  0  0
    3.5300   61.8300   72.3490 C   0  0  0  0  0  0  0  0  0  0  0  0
    2.4600   61.7450   71.2630 N   0  0  0  0  0  4  0  0  0  0  0  0
    2.6920   62.5920   70.0340 C   0  0  0  0  0  0  0  0  0  0  0  0
    2.4810   64.0680   70.3400 C   0  0  0  0  0  0  0  0  0  0  0  0
    1.1020   64.3280   70.9370 C   0  0  0  0  0  0  0  0  0  0  0  0
    0.8310   63.4330   72.1410 C   0  0  0  0  0  0  0  0  0  0  0  0
    1.0630   61.9640   71.8200 C   0  0  0  0  0  0  0  0  0  0  0  0
    0.7712   56.0935   72.4722 H   0  0  0  0  0  0  0  0  0  0  0  0
    2.1266   57.5904   71.0193 H   0  0  0  0  0  0  0  0  0  0  0  0
    3.8947   59.4020   74.5254 H   0  0  0  0  0  0  0  0  0  0  0  0
    2.5327   57.9024   75.9770 H   0  0  0  0  0  0  0  0  0  0  0  0
   -1.0411   54.7841   75.1037 H   0  0  0  0  0  0  0  0  0  0  0  0
   -0.8770   55.9822   73.7754 H   0  0  0  0  0  0  0  0  0  0  0  0
    0.1337   54.4972   73.7754 H   0  0  0  0  0  0  0  0  0  0  0  0
    0.2540   56.6068   75.9765 H   0  0  0  0  0  0  0  0  0  0  0  0
    1.4039   55.2426   75.6489 H   0  0  0  0  0  0  0  0  0  0  0  0
    5.0391   60.5572   73.2537 H   0  0  0  0  0  0  0  0  0  0  0  0
    6.6225   61.3681   71.9145 H   0  0  0  0  0  0  0  0  0  0  0  0
    5.9862   60.2207   70.6876 H   0  0  0  0  0  0  0  0  0  0  0  0
    5.4374   61.9312   70.6876 H   0  0  0  0  0  0  0  0  0  0  0  0
    3.0358   61.7614   73.3294 H   0  0  0  0  0  0  0  0  0  0  0  0
    4.0544   62.7868   72.2090 H   0  0  0  0  0  0  0  0  0  0  0  0
    2.5427   60.7751   70.9262 H   0  0  0  0  0  0  0  0  0  0  0  0
    3.7236   62.4414   69.6830 H   0  0  0  0  0  0  0  0  0  0  0  0
    1.9727   62.2888   69.2590 H   0  0  0  0  0  0  0  0  0  0  0  0
    3.2477   64.3967   71.0570 H   0  0  0  0  0  0  0  0  0  0  0  0
    2.5578   64.6285   69.3966 H   0  0  0  0  0  0  0  0  0  0  0  0
    1.0434   65.3796   71.2542 H   0  0  0  0  0  0  0  0  0  0  0  0
    0.3478   64.1056   70.1677 H   0  0  0  0  0  0  0  0  0  0  0  0
    1.5018   63.7279   72.9614 H   0  0  0  0  0  0  0  0  0  0  0  0
   -0.2239   63.5568   72.4271 H   0  0  0  0  0  0  0  0  0  0  0  0
    0.9447   61.3714   72.7391 H   0  0  0  0  0  0  0  0  0  0  0  0
    0.3294   61.6494   71.0631 H   0  0  0  0  0  0  0  0  0  0  0  0
  2  1  2  0
  4  3  2  0
  5  4  1  0
  6  1  1  0
  6  5  2  0
  7  6  1  0
  8  7  2  0
  8  3  1  0
 10  9  1  0
 10  3  1  0
 11  1  1  0
 12 11  1  0
 13 11  1  0
 14 13  1  0
 15 14  1  0
 16 15  1  0
 17 16  1  0
 18 17  1  0
 19 18  1  0
 19 14  1  0
  4 20  1  0
  5 21  1  0
  7 22  1  0
  8 23  1  0
  9 24  1  0
  9 25  1  0
  9 26  1  0
 10 27  1  0
 10 28  1  0
 11 29  1  1
 12 30  1  0
 12 31  1  0
 12 32  1  0
 13 33  1  0
 13 34  1  0
 14 35  1  0
 15 36  1  0
 15 37  1  0
 16 38  1  0
 16 39  1  0
 17 40  1  0
 17 41  1  0
 18 42  1  0
 18 43  1  0
 19 44  1  0
 19 45  1  0
M  CHG  1  14   1
M  END
>  <score>  (8) 
-6.771

$$$$
=
     RDKit          3D

 45 46  0  0  0  0  0  0  0  0999 V2000
    2.0130   59.6940   73.5410 C   0  0  0  0  0  0  0  0  0  0  0  0
    1.7400   59.1910   74.6300 O   0  0  0  0  0  0  0  0  0  0  0  0
    0.5940   63.6470   72.5560 C   0  0  0  0  0  0  0  0  0  0  0  0
    0.1090   62.5140   71.8940 C   0  0  0  0  0  0  0  0  0  0  0  0
    0.5810   61.2440   72.2310 C   0  0  0  0  0  0  0  0  0  0  0  0
    1.5470   61.0840   73.2330 C   0  0  0  0  0  0  0  0  0  0  0  0
    2.0390   62.2170   73.8900 C   0  0  0  0  0  0  0  0  0  0  0  0
    1.5640   63.4900   73.5510 C   0  0  0  0  0  0  0  0  0  0  0  0
    0.3780   65.3460   70.7220 C   0  0  0  0  0  0  0  0  0  0  0  0
    0.0960   65.0220   72.1810 C   0  0  0  0  0  0  0  0  0  0  0  0
    2.8180   58.8980   72.5180 C   0  0  1  0  0  0  0  0  0  0  0  0
    2.2060   57.5090   72.3470 C   0  0  0  0  0  0  0  0  0  0  0  0
    2.8030   59.7090   71.2070 C   0  0  0  0  0  0  0  0  0  0  0  0
    4.1940   59.9940   70.6450 N   0  0  0  0  0  4  0  0  0  0  0  0
    5.2010   60.5560   71.6200 C   0  0  0  0  0  0  0  0  0  0  0  0
    4.8780   62.0020   71.9670 C   0  0  0  0  0  0  0  0  0  0  0  0
    4.7750   62.8700   70.7170 C   0  0  0  0  0  0  0  0  0  0  0  0
    3.8070   62.2800   69.6980 C   0  0  0  0  0  0  0  0  0  0  0  0
    4.1370   60.8290   69.3780 C   0  0  0  0  0  0  0  0  0  0  0  0
   -0.6482   62.6243   71.1038 H   0  0  0  0  0  0  0  0  0  0  0  0
    0.1906   60.3605   71.7047 H   0  0  0  0  0  0  0  0  0  0  0  0
    2.8014   62.1075   74.6754 H   0  0  0  0  0  0  0  0  0  0  0  0
    1.9577   64.3750   74.0724 H   0  0  0  0  0  0  0  0  0  0  0  0
    1.0991   66.1745   70.6632 H   0  0  0  0  0  0  0  0  0  0  0  0
    0.7969   64.4592   70.2238 H   0  0  0  0  0  0  0  0  0  0  0  0
   -0.5581   65.6385   70.2238 H   0  0  0  0  0  0  0  0  0  0  0  0
    0.5981   65.7677   72.8149 H   0  0  0  0  0  0  0  0  0  0  0  0
   -0.9934   65.0442   72.3319 H   0  0  0  0  0  0  0  0  0  0  0  0
    3.8580   58.7446   72.8417 H   0  0  0  0  0  0  0  0  0  0  0  0
    2.0123   57.0693   73.3365 H   0  0  0  0  0  0  0  0  0  0  0  0
    1.2606   57.5908   71.7907 H   0  0  0  0  0  0  0  0  0  0  0  0
    2.9044   56.8666   71.7907 H   0  0  0  0  0  0  0  0  0  0  0  0
    2.2340   59.1427   70.4549 H   0  0  0  0  0  0  0  0  0  0  0  0
    2.3436   60.6818   71.4363 H   0  0  0  0  0  0  0  0  0  0  0  0
    4.5531   59.0561   70.4164 H   0  0  0  0  0  0  0  0  0  0  0  0
    5.1854   59.9534   72.5401 H   0  0  0  0  0  0  0  0  0  0  0  0
    6.1965   60.5222   71.1532 H   0  0  0  0  0  0  0  0  0  0  0  0
    3.9186   62.0344   72.5041 H   0  0  0  0  0  0  0  0  0  0  0  0
    5.6923   62.3957   72.5930 H   0  0  0  0  0  0  0  0  0  0  0  0
    4.4216   63.8707   71.0062 H   0  0  0  0  0  0  0  0  0  0  0  0
    5.7710   62.9220   70.2531 H   0  0  0  0  0  0  0  0  0  0  0  0
    2.7865   62.3314   70.1053 H   0  0  0  0  0  0  0  0  0  0  0  0
    3.8921   62.8626   68.7688 H   0  0  0  0  0  0  0  0  0  0  0  0
    3.3614   60.4216   68.7128 H   0  0  0  0  0  0  0  0  0  0  0  0
    5.1213   60.7922   68.8884 H   0  0  0  0  0  0  0  0  0  0  0  0
  2  1  2  0
  4  3  2  0
  5  4  1  0
  6  1  1  0
  6  5  2  0
  7  6  1  0
  8  7  2  0
  8  3  1  0
 10  9  1  0
 10  3  1  0
 11  1  1  0
 12 11  1  0
 13 11  1  0
 14 13  1  0
 15 14  1  0
 16 15  1  0
 17 16  1  0
 18 17  1  0
 19 18  1  0
 19 14  1  0
  4 20  1  0
  5 21  1  0
  7 22  1  0
  8 23  1  0
  9 24  1  0
  9 25  1  0
  9 26  1  0
 10 27  1  0
 10 28  1  0
 11 29  1  1
 12 30  1  0
 12 31  1  0
 12 32  1  0
 13 33  1  0
 13 34  1  0
 14 35  1  0
 15 36  1  0
 15 37  1  0
 16 38  1  0
 16 39  1  0
 17 40  1  0
 17 41  1  0
 18 42  1  0
 18 43  1  0
 19 44  1  0
 19 45  1  0
M  CHG  1  14   1
M  END
>  <score>  (9) 
-6.652

$$$$
