=
     RDKit          3D

 32 33  0  0  0  0  0  0  0  0999 V2000
    5.2840   69.2000   64.3840 C   0  0  0  0  0  0  0  0  0  0  0  0
    4.6250   69.4590   65.7040 C   0  0  0  0  0  0  0  0  0  0  0  0
    3.2240   69.0860   65.8320 C   0  0  0  0  0  0  0  0  0  0  0  0
    2.5480   69.2760   66.9830 C   0  0  0  0  0  0  0  0  0  0  0  0
    3.2390   69.8490   68.0340 N   0  0  0  0  0  0  0  0  0  0  0  0
    4.5610   70.2420   68.0210 C   0  0  0  0  0  0  0  0  0  0  0  0
    5.1310   70.7470   68.9860 O   0  0  0  0  0  0  0  0  0  0  0  0
    5.2750   70.0110   66.7420 C   0  0  0  0  0  0  0  0  0  0  0  0
    1.0780   68.9170   67.1850 C   0  0  0  0  0  0  0  0  0  0  0  0
    0.2650   68.7300   65.8900 C   0  0  0  0  0  0  0  0  0  0  0  0
   -1.2290   68.5580   66.1810 C   0  0  0  0  0  0  0  0  0  0  0  0
   -1.5160   67.8580   67.5100 C   0  0  0  0  0  0  0  0  0  0  0  0
   -0.3860   66.9190   67.9080 C   0  0  0  0  0  0  0  0  0  0  0  0
    0.9440   67.6630   68.0780 C   0  0  0  0  0  0  0  0  0  0  0  0
    2.5340   70.0620   69.2400 O   0  0  0  0  0  0  0  0  0  0  0  0
    6.2959   68.8023   64.5511 H   0  0  0  0  0  0  0  0  0  0  0  0
    4.6915   68.4678   63.8158 H   0  0  0  0  0  0  0  0  0  0  0  0
    5.3486   70.1397   63.8158 H   0  0  0  0  0  0  0  0  0  0  0  0
    2.7053   68.6393   64.9709 H   0  0  0  0  0  0  0  0  0  0  0  0
    6.3342   70.2909   66.6435 H   0  0  0  0  0  0  0  0  0  0  0  0
    0.6396   69.7949   67.6821 H   0  0  0  0  0  0  0  0  0  0  0  0
    0.4045   69.6140   65.2504 H   0  0  0  0  0  0  0  0  0  0  0  0
    0.6242   67.8200   65.3871 H   0  0  0  0  0  0  0  0  0  0  0  0
   -1.6959   69.5537   66.2042 H   0  0  0  0  0  0  0  0  0  0  0  0
   -1.6421   67.9214   65.3847 H   0  0  0  0  0  0  0  0  0  0  0  0
   -1.6397   68.6193   68.2943 H   0  0  0  0  0  0  0  0  0  0  0  0
   -2.4322   67.2608   67.3919 H   0  0  0  0  0  0  0  0  0  0  0  0
   -0.6460   66.4336   68.8603 H   0  0  0  0  0  0  0  0  0  0  0  0
   -0.2610   66.1773   67.1053 H   0  0  0  0  0  0  0  0  0  0  0  0
    1.0346   67.9748   69.1290 H   0  0  0  0  0  0  0  0  0  0  0  0
    1.7402   66.9676   67.7739 H   0  0  0  0  0  0  0  0  0  0  0  0
    2.9932   70.4701   70.0164 H   0  0  0  0  0  0  0  0  0  0  0  0
  2  1  1  0
  3  2  1  0
  4  3  2  0
  5  4  1  0
  6  5  1  0
  7  6  2  0
  8  6  1  0
  8  2  2  0
  9  4  1  0
 10  9  1  0
 11 10  1  0
 12 11  1  0
 13 12  1  0
 14 13  1  0
 14  9  1  0
 15  5  1  0
  1 16  1  0
  1 17  1  0
  1 18  1  0
  3 19  1  0
  8 20  1  0
  9 21  1  0
 10 22  1  0
 10 23  1  0
 11 24  1  0
 11 25  1  0
 12 26  1  0
 12 27  1  0
 13 28  1  0
 13 29  1  0
 14 30  1  0
 14 31  1  0
 15 32  1  0
M  END
>  <score>  (1) 
-8.61

$$$$
=
     RDKit          3D

 32 33  0  0  0  0  0  0  0  0999 V2000
    6.7770   70.8080   68.3220 C   0  0  0  0  0  0  0  0  0  0  0  0
    5.4480   70.3430   67.8080 C   0  0  0  0  0  0  0  0  0  0  0  0
    5.3980   69.8580   66.4370 C   0  0  0  0  0  0  0  0  0  0  0  0
    4.2490   69.4140   65.8890 C   0  0  0  0  0  0  0  0  0  0  0  0
    3.1170   69.4490   66.6810 N   0  0  0  0  0  0  0  0  0  0  0  0
    3.0500   69.8900   67.9860 C   0  0  0  0  0  0  0  0  0  0  0  0
    2.0160   69.9000   68.6500 O   0  0  0  0  0  0  0  0  0  0  0  0
    4.3340   70.3630   68.5590 C   0  0  0  0  0  0  0  0  0  0  0  0
    4.1230   68.8990   64.4580 C   0  0  0  0  0  0  0  0  0  0  0  0
    5.1950   69.4140   63.4790 C   0  0  0  0  0  0  0  0  0  0  0  0
    4.8880   69.0010   62.0360 C   0  0  0  0  0  0  0  0  0  0  0  0
    4.1660   67.6570   61.9260 C   0  0  0  0  0  0  0  0  0  0  0  0
    4.4980   66.7410   63.0940 C   0  0  0  0  0  0  0  0  0  0  0  0
    4.0880   67.3540   64.4380 C   0  0  0  0  0  0  0  0  0  0  0  0
    1.9060   68.9960   66.1100 O   0  0  0  0  0  0  0  0  0  0  0  0
    6.7664   70.8043   69.4219 H   0  0  0  0  0  0  0  0  0  0  0  0
    7.5666   70.1327   67.9606 H   0  0  0  0  0  0  0  0  0  0  0  0
    6.9733   71.8282   67.9606 H   0  0  0  0  0  0  0  0  0  0  0  0
    6.3182   69.8535   65.8343 H   0  0  0  0  0  0  0  0  0  0  0  0
    4.3740   70.7290   69.5956 H   0  0  0  0  0  0  0  0  0  0  0  0
    3.1708   69.3120   64.0936 H   0  0  0  0  0  0  0  0  0  0  0  0
    5.2319   70.5119   63.5356 H   0  0  0  0  0  0  0  0  0  0  0  0
    6.1613   68.9725   63.7644 H   0  0  0  0  0  0  0  0  0  0  0  0
    4.2537   69.7753   61.5798 H   0  0  0  0  0  0  0  0  0  0  0  0
    5.8526   68.8932   61.5183 H   0  0  0  0  0  0  0  0  0  0  0  0
    3.0807   67.8359   61.9109 H   0  0  0  0  0  0  0  0  0  0  0  0
    4.4981   67.1649   61.0000 H   0  0  0  0  0  0  0  0  0  0  0  0
    3.9650   65.7880   62.9608 H   0  0  0  0  0  0  0  0  0  0  0  0
    5.5873   66.5886   63.1078 H   0  0  0  0  0  0  0  0  0  0  0  0
    3.0633   67.0277   64.6693 H   0  0  0  0  0  0  0  0  0  0  0  0
    4.8195   67.0083   65.1832 H   0  0  0  0  0  0  0  0  0  0  0  0
    1.0728   69.0050   66.6446 H   0  0  0  0  0  0  0  0  0  0  0  0
  2  1  1  0
  3  2  1  0
  4  3  2  0
  5  4  1  0
  6  5  1  0
  7  6  2  0
  8  6  1  0
  8  2  2  0
  9  4  1  0
 10  9  1  0
 11 10  1  0
 12 11  1  0
 13 12  1  0
 14 13  1  0
 14  9  1  0
 15  5  1  0
  1 16  1  0
  1 17  1  0
  1 18  1  0
  3 19  1  0
  8 20  1  0
  9 21  1  0
 10 22  1  0
 10 23  1  0
 11 24  1  0
 11 25  1  0
 12 26  1  0
 12 27  1  0
 13 28  1  0
 13 29  1  0
 14 30  1  0
 14 31  1  0
 15 32  1  0
M  END
>  <score>  (2) 
-8.574

$$$$
=
     RDKit          3D

 32 33  0  0  0  0  0  0  0  0999 V2000
    0.8150   68.7810   63.7560 C   0  0  0  0  0  0  0  0  0  0  0  0
    2.2990   68.6370   63.9110 C   0  0  0  0  0  0  0  0  0  0  0  0
    2.8870   69.1090   65.1550 C   0  0  0  0  0  0  0  0  0  0  0  0
    4.2120   69.0160   65.3870 C   0  0  0  0  0  0  0  0  0  0  0  0
    4.9900   68.4630   64.3880 N   0  0  0  0  0  0  0  0  0  0  0  0
    4.5400   67.9880   63.1740 C   0  0  0  0  0  0  0  0  0  0  0  0
    5.2750   67.5030   62.3170 O   0  0  0  0  0  0  0  0  0  0  0  0
    3.0760   68.0990   62.9560 C   0  0  0  0  0  0  0  0  0  0  0  0
    4.8960   69.4960   66.6640 C   0  0  0  0  0  0  0  0  0  0  0  0
    5.9180   70.6330   66.4720 C   0  0  0  0  0  0  0  0  0  0  0  0
    6.6880   70.9240   67.7640 C   0  0  0  0  0  0  0  0  0  0  0  0
    5.8680   70.6800   69.0320 C   0  0  0  0  0  0  0  0  0  0  0  0
    4.3790   70.8700   68.7860 C   0  0  0  0  0  0  0  0  0  0  0  0
    3.8460   69.9030   67.7220 C   0  0  0  0  0  0  0  0  0  0  0  0
    6.3810   68.3730   64.6190 O   0  0  0  0  0  0  0  0  0  0  0  0
    0.3453   68.8266   64.7496 H   0  0  0  0  0  0  0  0  0  0  0  0
    0.5921   69.7050   63.2023 H   0  0  0  0  0  0  0  0  0  0  0  0
    0.4186   67.9171   63.2023 H   0  0  0  0  0  0  0  0  0  0  0  0
    2.2362   69.5516   65.9235 H   0  0  0  0  0  0  0  0  0  0  0  0
    2.6290   67.7422   62.0164 H   0  0  0  0  0  0  0  0  0  0  0  0
    5.4805   68.6317   67.0122 H   0  0  0  0  0  0  0  0  0  0  0  0
    6.6329   70.3417   65.6884 H   0  0  0  0  0  0  0  0  0  0  0  0
    5.3702   71.5430   66.1858 H   0  0  0  0  0  0  0  0  0  0  0  0
    7.5759   70.2754   67.7936 H   0  0  0  0  0  0  0  0  0  0  0  0
    6.9512   71.9919   67.7498 H   0  0  0  0  0  0  0  0  0  0  0  0
    6.0435   69.6504   69.3771 H   0  0  0  0  0  0  0  0  0  0  0  0
    6.1855   71.4104   69.7908 H   0  0  0  0  0  0  0  0  0  0  0  0
    3.8381   70.6955   69.7278 H   0  0  0  0  0  0  0  0  0  0  0  0
    4.2223   71.8962   68.4223 H   0  0  0  0  0  0  0  0  0  0  0  0
    3.4926   68.9922   68.2276 H   0  0  0  0  0  0  0  0  0  0  0  0
    3.0410   70.4285   67.1874 H   0  0  0  0  0  0  0  0  0  0  0  0
    6.9733   67.9831   63.9282 H   0  0  0  0  0  0  0  0  0  0  0  0
  2  1  1  0
  3  2  1  0
  4  3  2  0
  5  4  1  0
  6  5  1  0
  7  6  2  0
  8  6  1  0
  8  2  2  0
  9  4  1  0
 10  9  1  0
 11 10  1  0
 12 11  1  0
 13 12  1  0
 14 13  1  0
 14  9  1  0
 15  5  1  0
  1 16  1  0
  1 17  1  0
  1 18  1  0
  3 19  1  0
  8 20  1  0
  9 21  1  0
 10 22  1  0
 10 23  1  0
 11 24  1  0
 11 25  1  0
 12 26  1  0
 12 27  1  0
 13 28  1  0
 13 29  1  0
 14 30  1  0
 14 31  1  0
 15 32  1  0
M  END
>  <score>  (3) 
-8.478

$$$$
=
     RDKit          3D

 32 33  0  0  0  0  0  0  0  0999 V2000
    3.3260   70.5020   68.8560 C   0  0  0  0  0  0  0  0  0  0  0  0
    2.6600   69.4450   68.0280 C   0  0  0  0  0  0  0  0  0  0  0  0
    3.0570   69.3460   66.6310 C   0  0  0  0  0  0  0  0  0  0  0  0
    2.5180   68.4230   65.8100 C   0  0  0  0  0  0  0  0  0  0  0  0
    1.5640   67.5810   66.3470 N   0  0  0  0  0  0  0  0  0  0  0  0
    1.1120   67.5880   67.6500 C   0  0  0  0  0  0  0  0  0  0  0  0
    0.2600   66.8140   68.0800 O   0  0  0  0  0  0  0  0  0  0  0  0
    1.7330   68.6110   68.5270 C   0  0  0  0  0  0  0  0  0  0  0  0
    2.8820   68.2680   64.3360 C   0  0  0  0  0  0  0  0  0  0  0  0
    1.9720   69.0290   63.3530 C   0  0  0  0  0  0  0  0  0  0  0  0
    2.2890   68.6720   61.8970 C   0  0  0  0  0  0  0  0  0  0  0  0
    3.7620   68.3390   61.6570 C   0  0  0  0  0  0  0  0  0  0  0  0
    4.6700   69.0510   62.6490 C   0  0  0  0  0  0  0  0  0  0  0  0
    4.3580   68.6570   64.0960 C   0  0  0  0  0  0  0  0  0  0  0  0
    0.9850   66.6180   65.4900 O   0  0  0  0  0  0  0  0  0  0  0  0
    3.1835   70.2758   69.9230 H   0  0  0  0  0  0  0  0  0  0  0  0
    4.4015   70.5242   68.6263 H   0  0  0  0  0  0  0  0  0  0  0  0
    2.8818   71.4817   68.6263 H   0  0  0  0  0  0  0  0  0  0  0  0
    3.8138   70.0400   66.2366 H   0  0  0  0  0  0  0  0  0  0  0  0
    1.4350   68.6862   69.5832 H   0  0  0  0  0  0  0  0  0  0  0  0
    2.7233   67.2014   64.1189 H   0  0  0  0  0  0  0  0  0  0  0  0
    0.9239   68.7700   63.5637 H   0  0  0  0  0  0  0  0  0  0  0  0
    2.1459   70.1067   63.4881 H   0  0  0  0  0  0  0  0  0  0  0  0
    1.6839   67.7984   61.6131 H   0  0  0  0  0  0  0  0  0  0  0  0
    2.0544   69.5578   61.2884 H   0  0  0  0  0  0  0  0  0  0  0  0
    3.9032   67.2530   61.7607 H   0  0  0  0  0  0  0  0  0  0  0  0
    4.0290   68.6770   60.6448 H   0  0  0  0  0  0  0  0  0  0  0  0
    5.7147   68.7881   62.4265 H   0  0  0  0  0  0  0  0  0  0  0  0
    4.5024   70.1334   62.5474 H   0  0  0  0  0  0  0  0  0  0  0  0
    4.9904   67.7981   64.3649 H   0  0  0  0  0  0  0  0  0  0  0  0
    4.5596   69.5418   64.7178 H   0  0  0  0  0  0  0  0  0  0  0  0
    0.2975   65.9960   65.8372 H   0  0  0  0  0  0  0  0  0  0  0  0
  2  1  1  0
  3  2  1  0
  4  3  2  0
  5  4  1  0
  6  5  1  0
  7  6  2  0
  8  6  1  0
  8  2  2  0
  9  4  1  0
 10  9  1  0
 11 10  1  0
 12 11  1  0
 13 12  1  0
 14 13  1  0
 14  9  1  0
 15  5  1  0
  1 16  1  0
  1 17  1  0
  1 18  1  0
  3 19  1  0
  8 20  1  0
  9 21  1  0
 10 22  1  0
 10 23  1  0
 11 24  1  0
 11 25  1  0
 12 26  1  0
 12 27  1  0
 13 28  1  0
 13 29  1  0
 14 30  1  0
 14 31  1  0
 15 32  1  0
M  END
>  <score>  (4) 
-8.331

$$$$
=
     RDKit          3D

 32 33  0  0  0  0  0  0  0  0999 V2000
    4.9630   69.8430   66.6910 C   0  0  0  0  0  0  0  0  0  0  0  0
    3.9300   69.2810   65.7620 C   0  0  0  0  0  0  0  0  0  0  0  0
    2.6770   68.8340   66.3520 C   0  0  0  0  0  0  0  0  0  0  0  0
    1.6870   68.3190   65.5960 C   0  0  0  0  0  0  0  0  0  0  0  0
    1.9160   68.2250   64.2360 N   0  0  0  0  0  0  0  0  0  0  0  0
    3.0610   68.6140   63.5740 C   0  0  0  0  0  0  0  0  0  0  0  0
    3.2150   68.5100   62.3590 O   0  0  0  0  0  0  0  0  0  0  0  0
    4.1260   69.1830   64.4370 C   0  0  0  0  0  0  0  0  0  0  0  0
    0.3530   67.8240   66.1480 C   0  0  0  0  0  0  0  0  0  0  0  0
    0.3270   67.5680   67.6670 C   0  0  0  0  0  0  0  0  0  0  0  0
   -0.9800   66.9000   68.1050 C   0  0  0  0  0  0  0  0  0  0  0  0
   -2.1880   67.3080   67.2590 C   0  0  0  0  0  0  0  0  0  0  0  0
   -2.0170   68.7010   66.6680 C   0  0  0  0  0  0  0  0  0  0  0  0
   -0.7890   68.7890   65.7560 C   0  0  0  0  0  0  0  0  0  0  0  0
    0.8870   67.6760   63.4380 O   0  0  0  0  0  0  0  0  0  0  0  0
    4.6510   69.6733   67.7321 H   0  0  0  0  0  0  0  0  0  0  0  0
    5.9273   69.3452   66.5114 H   0  0  0  0  0  0  0  0  0  0  0  0
    5.0689   70.9231   66.5114 H   0  0  0  0  0  0  0  0  0  0  0  0
    2.5346   68.9183   67.4395 H   0  0  0  0  0  0  0  0  0  0  0  0
    5.0730   69.5234   63.9927 H   0  0  0  0  0  0  0  0  0  0  0  0
    0.2040   66.8390   65.6814 H   0  0  0  0  0  0  0  0  0  0  0  0
    1.1693   66.9124   67.9328 H   0  0  0  0  0  0  0  0  0  0  0  0
    0.4061   68.5377   68.1803 H   0  0  0  0  0  0  0  0  0  0  0  0
   -0.8555   65.8096   68.0309 H   0  0  0  0  0  0  0  0  0  0  0  0
   -1.1813   67.2281   69.1354 H   0  0  0  0  0  0  0  0  0  0  0  0
   -2.3093   66.5852   66.4387 H   0  0  0  0  0  0  0  0  0  0  0  0
   -3.0748   67.3181   67.9098 H   0  0  0  0  0  0  0  0  0  0  0  0
   -2.9137   68.9510   66.0819 H   0  0  0  0  0  0  0  0  0  0  0  0
   -1.8756   69.4082   67.4986 H   0  0  0  0  0  0  0  0  0  0  0  0
   -1.1033   68.5542   64.7283 H   0  0  0  0  0  0  0  0  0  0  0  0
   -0.3916   69.8101   65.8534 H   0  0  0  0  0  0  0  0  0  0  0  0
    1.0113   67.5912   62.4595 H   0  0  0  0  0  0  0  0  0  0  0  0
  2  1  1  0
  3  2  1  0
  4  3  2  0
  5  4  1  0
  6  5  1  0
  7  6  2  0
  8  6  1  0
  8  2  2  0
  9  4  1  0
 10  9  1  0
 11 10  1  0
 12 11  1  0
 13 12  1  0
 14 13  1  0
 14  9  1  0
 15  5  1  0
  1 16  1  0
  1 17  1  0
  1 18  1  0
  3 19  1  0
  8 20  1  0
  9 21  1  0
 10 22  1  0
 10 23  1  0
 11 24  1  0
 11 25  1  0
 12 26  1  0
 12 27  1  0
 13 28  1  0
 13 29  1  0
 14 30  1  0
 14 31  1  0
 15 32  1  0
M  END
>  <score>  (5) 
-8.234

$$$$
=
     RDKit          3D

 32 33  0  0  0  0  0  0  0  0999 V2000
   -0.7010   66.4470   69.0220 C   0  0  0  0  0  0  0  0  0  0  0  0
   -0.7440   67.2330   67.7470 C   0  0  0  0  0  0  0  0  0  0  0  0
    0.5260   67.5110   67.0940 C   0  0  0  0  0  0  0  0  0  0  0  0
    0.5870   68.2070   65.9410 C   0  0  0  0  0  0  0  0  0  0  0  0
   -0.6080   68.6540   65.4100 N   0  0  0  0  0  0  0  0  0  0  0  0
   -1.8630   68.4510   65.9440 C   0  0  0  0  0  0  0  0  0  0  0  0
   -2.8980   68.8700   65.4310 O   0  0  0  0  0  0  0  0  0  0  0  0
   -1.8920   67.6750   67.2090 C   0  0  0  0  0  0  0  0  0  0  0  0
    1.8830   68.5410   65.2070 C   0  0  0  0  0  0  0  0  0  0  0  0
    3.0540   68.9730   66.1090 C   0  0  0  0  0  0  0  0  0  0  0  0
    4.2490   69.4670   65.2860 C   0  0  0  0  0  0  0  0  0  0  0  0
    4.3890   68.7660   63.9330 C   0  0  0  0  0  0  0  0  0  0  0  0
    3.8100   67.3590   63.9640 C   0  0  0  0  0  0  0  0  0  0  0  0
    2.3170   67.3610   64.3070 C   0  0  0  0  0  0  0  0  0  0  0  0
   -0.5520   69.3930   64.2070 O   0  0  0  0  0  0  0  0  0  0  0  0
   -0.7387   67.1358   69.8788 H   0  0  0  0  0  0  0  0  0  0  0  0
   -1.5632   65.7650   69.0616 H   0  0  0  0  0  0  0  0  0  0  0  0
    0.2304   65.8632   69.0616 H   0  0  0  0  0  0  0  0  0  0  0  0
    1.4572   67.1452   67.5512 H   0  0  0  0  0  0  0  0  0  0  0  0
   -2.8510   67.4627   67.7042 H   0  0  0  0  0  0  0  0  0  0  0  0
    1.6413   69.4239   64.5971 H   0  0  0  0  0  0  0  0  0  0  0  0
    2.7152   69.7851   66.7690 H   0  0  0  0  0  0  0  0  0  0  0  0
    3.3774   68.0995   66.6942 H   0  0  0  0  0  0  0  0  0  0  0  0
    4.1275   70.5458   65.1084 H   0  0  0  0  0  0  0  0  0  0  0  0
    5.1567   69.2393   65.8642 H   0  0  0  0  0  0  0  0  0  0  0  0
    3.8566   69.3536   63.1706 H   0  0  0  0  0  0  0  0  0  0  0  0
    5.4605   68.6901   63.6960 H   0  0  0  0  0  0  0  0  0  0  0  0
    3.9467   66.8967   62.9753 H   0  0  0  0  0  0  0  0  0  0  0  0
    4.3375   66.7913   64.7447 H   0  0  0  0  0  0  0  0  0  0  0  0
    1.7460   67.4130   63.3683 H   0  0  0  0  0  0  0  0  0  0  0  0
    2.1177   66.4383   64.8717 H   0  0  0  0  0  0  0  0  0  0  0  0
   -1.3860   69.7310   63.7944 H   0  0  0  0  0  0  0  0  0  0  0  0
  2  1  1  0
  3  2  1  0
  4  3  2  0
  5  4  1  0
  6  5  1  0
  7  6  2  0
  8  6  1  0
  8  2  2  0
  9  4  1  0
 10  9  1  0
 11 10  1  0
 12 11  1  0
 13 12  1  0
 14 13  1  0
 14  9  1  0
 15  5  1  0
  1 16  1  0
  1 17  1  0
  1 18  1  0
  3 19  1  0
  8 20  1  0
  9 21  1  0
 10 22  1  0
 10 23  1  0
 11 24  1  0
 11 25  1  0
 12 26  1  0
 12 27  1  0
 13 28  1  0
 13 29  1  0
 14 30  1  0
 14 31  1  0
 15 32  1  0
M  END
>  <score>  (6) 
-8.029

$$$$
=
     RDKit          3D

 32 33  0  0  0  0  0  0  0  0999 V2000
    2.1180   66.2430   64.6760 C   0  0  0  0  0  0  0  0  0  0  0  0
    1.8490   67.3510   65.6490 C   0  0  0  0  0  0  0  0  0  0  0  0
    2.9710   68.2030   66.0150 C   0  0  0  0  0  0  0  0  0  0  0  0
    2.8250   69.2270   66.8780 C   0  0  0  0  0  0  0  0  0  0  0  0
    1.5660   69.4290   67.4110 N   0  0  0  0  0  0  0  0  0  0  0  0
    0.4380   68.6850   67.1380 C   0  0  0  0  0  0  0  0  0  0  0  0
   -0.6630   68.9070   67.6380 O   0  0  0  0  0  0  0  0  0  0  0  0
    0.6340   67.5710   66.1780 C   0  0  0  0  0  0  0  0  0  0  0  0
    3.9580   70.1540   67.3110 C   0  0  0  0  0  0  0  0  0  0  0  0
    4.2450   70.1770   68.8240 C   0  0  0  0  0  0  0  0  0  0  0  0
    5.2600   71.2640   69.1900 C   0  0  0  0  0  0  0  0  0  0  0  0
    6.2930   71.5300   68.0930 C   0  0  0  0  0  0  0  0  0  0  0  0
    6.5330   70.2960   67.2350 C   0  0  0  0  0  0  0  0  0  0  0  0
    5.2530   69.8290   66.5330 C   0  0  0  0  0  0  0  0  0  0  0  0
    1.4070   70.4950   68.3250 O   0  0  0  0  0  0  0  0  0  0  0  0
    2.3426   65.3178   65.2269 H   0  0  0  0  0  0  0  0  0  0  0  0
    1.2316   66.0872   64.0435 H   0  0  0  0  0  0  0  0  0  0  0  0
    2.9772   66.5110   64.0435 H   0  0  0  0  0  0  0  0  0  0  0  0
    3.9606   68.0062   65.5769 H   0  0  0  0  0  0  0  0  0  0  0  0
   -0.2133   66.9269   65.9001 H   0  0  0  0  0  0  0  0  0  0  0  0
    3.6024   71.1654   67.0649 H   0  0  0  0  0  0  0  0  0  0  0  0
    3.3055   70.3703   69.3624 H   0  0  0  0  0  0  0  0  0  0  0  0
    4.6680   69.2022   69.1083 H   0  0  0  0  0  0  0  0  0  0  0  0
    4.7136   72.1981   69.3874 H   0  0  0  0  0  0  0  0  0  0  0  0
    5.8108   70.9077   70.0730 H   0  0  0  0  0  0  0  0  0  0  0  0
    5.9291   72.3455   67.4508 H   0  0  0  0  0  0  0  0  0  0  0  0
    7.2433   71.8025   68.5754 H   0  0  0  0  0  0  0  0  0  0  0  0
    7.2895   70.5346   66.4729 H   0  0  0  0  0  0  0  0  0  0  0  0
    6.8754   69.4845   67.8939 H   0  0  0  0  0  0  0  0  0  0  0  0
    5.1986   70.3192   65.5498 H   0  0  0  0  0  0  0  0  0  0  0  0
    5.3127   68.7333   66.4559 H   0  0  0  0  0  0  0  0  0  0  0  0
    0.5208   70.6726   68.7290 H   0  0  0  0  0  0  0  0  0  0  0  0
  2  1  1  0
  3  2  1  0
  4  3  2  0
  5  4  1  0
  6  5  1  0
  7  6  2  0
  8  6  1  0
  8  2  2  0
  9  4  1  0
 10  9  1  0
 11 10  1  0
 12 11  1  0
 13 12  1  0
 14 13  1  0
 14  9  1  0
 15  5  1  0
  1 16  1  0
  1 17  1  0
  1 18  1  0
  3 19  1  0
  8 20  1  0
  9 21  1  0
 10 22  1  0
 10 23  1  0
 11 24  1  0
 11 25  1  0
 12 26  1  0
 12 27  1  0
 13 28  1  0
 13 29  1  0
 14 30  1  0
 14 31  1  0
 15 32  1  0
M  END
>  <score>  (7) 
-7.998

$$$$
=
     RDKit          3D

 32 33  0  0  0  0  0  0  0  0999 V2000
    2.9730   68.7540   62.0740 C   0  0  0  0  0  0  0  0  0  0  0  0
    2.6040   68.6620   63.5240 C   0  0  0  0  0  0  0  0  0  0  0  0
    3.6060   69.0820   64.4930 C   0  0  0  0  0  0  0  0  0  0  0  0
    3.3640   69.0390   65.8190 C   0  0  0  0  0  0  0  0  0  0  0  0
    2.1270   68.5700   66.2190 N   0  0  0  0  0  0  0  0  0  0  0  0
    1.1100   68.1460   65.3910 C   0  0  0  0  0  0  0  0  0  0  0  0
    0.0240   67.7370   65.7990 O   0  0  0  0  0  0  0  0  0  0  0  0
    1.4080   68.2130   63.9390 C   0  0  0  0  0  0  0  0  0  0  0  0
    4.3680   69.4560   66.8890 C   0  0  0  0  0  0  0  0  0  0  0  0
    5.6100   70.2040   66.3660 C   0  0  0  0  0  0  0  0  0  0  0  0
    6.6480   70.4180   67.4720 C   0  0  0  0  0  0  0  0  0  0  0  0
    6.0320   70.5950   68.8610 C   0  0  0  0  0  0  0  0  0  0  0  0
    4.6310   71.1850   68.7860 C   0  0  0  0  0  0  0  0  0  0  0  0
    3.6750   70.2900   67.9890 C   0  0  0  0  0  0  0  0  0  0  0  0
    1.8700   68.5120   67.6080 O   0  0  0  0  0  0  0  0  0  0  0  0
    4.0366   69.0192   61.9824 H   0  0  0  0  0  0  0  0  0  0  0  0
    2.7939   67.7837   61.5878 H   0  0  0  0  0  0  0  0  0  0  0  0
    2.3593   69.5266   61.5878 H   0  0  0  0  0  0  0  0  0  0  0  0
    4.5820   69.4424   64.1357 H   0  0  0  0  0  0  0  0  0  0  0  0
    0.6523   67.8962   63.2052 H   0  0  0  0  0  0  0  0  0  0  0  0
    4.7469   68.5097   67.3026 H   0  0  0  0  0  0  0  0  0  0  0  0
    6.0668   69.6150   65.5571 H   0  0  0  0  0  0  0  0  0  0  0  0
    5.2885   71.1906   66.0010 H   0  0  0  0  0  0  0  0  0  0  0  0
    7.3161   69.5445   67.4962 H   0  0  0  0  0  0  0  0  0  0  0  0
    7.1856   71.3481   67.2356 H   0  0  0  0  0  0  0  0  0  0  0  0
    5.9792   69.6136   69.3550 H   0  0  0  0  0  0  0  0  0  0  0  0
    6.6662   71.2902   69.4306 H   0  0  0  0  0  0  0  0  0  0  0  0
    4.2396   71.3025   69.8073 H   0  0  0  0  0  0  0  0  0  0  0  0
    4.6971   72.1554   68.2722 H   0  0  0  0  0  0  0  0  0  0  0  0
    3.1831   69.5989   68.6892 H   0  0  0  0  0  0  0  0  0  0  0  0
    2.9619   70.9567   67.4821 H   0  0  0  0  0  0  0  0  0  0  0  0
    0.9963   68.1821   67.9364 H   0  0  0  0  0  0  0  0  0  0  0  0
  2  1  1  0
  3  2  1  0
  4  3  2  0
  5  4  1  0
  6  5  1  0
  7  6  2  0
  8  6  1  0
  8  2  2  0
  9  4  1  0
 10  9  1  0
 11 10  1  0
 12 11  1  0
 13 12  1  0
 14 13  1  0
 14  9  1  0
 15  5  1  0
  1 16  1  0
  1 17  1  0
  1 18  1  0
  3 19  1  0
  8 20  1  0
  9 21  1  0
 10 22  1  0
 10 23  1  0
 11 24  1  0
 11 25  1  0
 12 26  1  0
 12 27  1  0
 13 28  1  0
 13 29  1  0
 14 30  1  0
 14 31  1  0
 15 32  1  0
M  END
>  <score>  (8) 
-7.963

$$$$
=
     RDKit          3D

 32 33  0  0  0  0  0  0  0  0999 V2000
    2.2870   69.3560   69.1680 C   0  0  0  0  0  0  0  0  0  0  0  0
    3.4580   69.8360   68.3660 C   0  0  0  0  0  0  0  0  0  0  0  0
    3.4960   69.4680   66.9590 C   0  0  0  0  0  0  0  0  0  0  0  0
    4.5070   69.8580   66.1560 C   0  0  0  0  0  0  0  0  0  0  0  0
    5.5120   70.6150   66.7290 N   0  0  0  0  0  0  0  0  0  0  0  0
    5.5770   71.0160   68.0470 C   0  0  0  0  0  0  0  0  0  0  0  0
    6.4950   71.6920   68.5080 O   0  0  0  0  0  0  0  0  0  0  0  0
    4.4450   70.5760   68.8980 C   0  0  0  0  0  0  0  0  0  0  0  0
    4.6140   69.5030   64.6760 C   0  0  0  0  0  0  0  0  0  0  0  0
    5.6710   68.4350   64.3330 C   0  0  0  0  0  0  0  0  0  0  0  0
    5.8420   68.2760   62.8190 C   0  0  0  0  0  0  0  0  0  0  0  0
    4.5580   68.5310   62.0290 C   0  0  0  0  0  0  0  0  0  0  0  0
    3.3170   68.2180   62.8530 C   0  0  0  0  0  0  0  0  0  0  0  0
    3.2370   69.0810   64.1170 C   0  0  0  0  0  0  0  0  0  0  0  0
    6.5800   71.0180   65.8970 O   0  0  0  0  0  0  0  0  0  0  0  0
    2.5141   69.4491   70.2403 H   0  0  0  0  0  0  0  0  0  0  0  0
    1.4030   69.9643   68.9263 H   0  0  0  0  0  0  0  0  0  0  0  0
    2.0842   68.3022   68.9263 H   0  0  0  0  0  0  0  0  0  0  0  0
    2.6819   68.8579   66.5407 H   0  0  0  0  0  0  0  0  0  0  0  0
    4.4136   70.8547   69.9616 H   0  0  0  0  0  0  0  0  0  0  0  0
    4.9612   70.4268   64.1902 H   0  0  0  0  0  0  0  0  0  0  0  0
    6.6348   68.7329   64.7717 H   0  0  0  0  0  0  0  0  0  0  0  0
    5.3329   67.4722   64.7438 H   0  0  0  0  0  0  0  0  0  0  0  0
    6.6074   68.9889   62.4785 H   0  0  0  0  0  0  0  0  0  0  0  0
    6.1326   67.2312   62.6347 H   0  0  0  0  0  0  0  0  0  0  0  0
    4.5287   69.5888   61.7286 H   0  0  0  0  0  0  0  0  0  0  0  0
    4.5604   67.8706   61.1493 H   0  0  0  0  0  0  0  0  0  0  0  0
    2.4249   68.4055   62.2374 H   0  0  0  0  0  0  0  0  0  0  0  0
    3.3708   67.1640   63.1630 H   0  0  0  0  0  0  0  0  0  0  0  0
    2.6662   69.9908   63.8795 H   0  0  0  0  0  0  0  0  0  0  0  0
    2.7526   68.4682   64.8915 H   0  0  0  0  0  0  0  0  0  0  0  0
    7.3195   71.5611   66.2689 H   0  0  0  0  0  0  0  0  0  0  0  0
  2  1  1  0
  3  2  1  0
  4  3  2  0
  5  4  1  0
  6  5  1  0
  7  6  2  0
  8  6  1  0
  8  2  2  0
  9  4  1  0
 10  9  1  0
 11 10  1  0
 12 11  1  0
 13 12  1  0
 14 13  1  0
 14  9  1  0
 15  5  1  0
  1 16  1  0
  1 17  1  0
  1 18  1  0
  3 19  1  0
  8 20  1  0
  9 21  1  0
 10 22  1  0
 10 23  1  0
 11 24  1  0
 11 25  1  0
 12 26  1  0
 12 27  1  0
 13 28  1  0
 13 29  1  0
 14 30  1  0
 14 31  1  0
 15 32  1  0
M  END
>  <score>  (9) 
-7.846

$$$$
