=
     RDKit          3D

 32 32  0  0  0  0  0  0  0  0999 V2000
    1.9170   67.1410   65.6290 C   0  0  0  0  0  0  0  0  0  0  0  0
    3.2430   67.5440   64.9800 C   0  0  1  0  0  0  0  0  0  0  0  0
    3.4010   66.9140   63.5830 N   0  0  1  0  0  4  0  0  0  0  0  0
    3.4970   67.9510   62.4920 C   0  0  0  0  0  0  0  0  0  0  0  0
    4.4710   65.8540   63.4220 C   0  0  0  0  0  0  0  0  0  0  0  0
    4.1550   64.7120   64.2780 C   0  0  0  0  0  0  0  0  0  0  0  0
    3.9000   63.7650   64.9720 C   0  0  0  0  0  0  0  0  0  0  0  0
    3.4390   69.0740   64.9190 C   0  0  0  0  0  0  0  0  0  0  0  0
    4.2420   69.6020   66.0830 C   0  0  0  0  0  0  0  0  0  0  0  0
    3.6230   69.8710   67.3120 C   0  0  0  0  0  0  0  0  0  0  0  0
    4.3620   70.3780   68.3800 C   0  0  0  0  0  0  0  0  0  0  0  0
    5.7270   70.6210   68.2320 C   0  0  0  0  0  0  0  0  0  0  0  0
    6.3540   70.3520   67.0170 C   0  0  0  0  0  0  0  0  0  0  0  0
    5.6170   69.8440   65.9470 C   0  0  0  0  0  0  0  0  0  0  0  0
    2.0201   67.1723   66.7237 H   0  0  0  0  0  0  0  0  0  0  0  0
    1.1277   67.8398   65.3149 H   0  0  0  0  0  0  0  0  0  0  0  0
    1.6500   66.1212   65.3149 H   0  0  0  0  0  0  0  0  0  0  0  0
    4.0363   67.1469   65.6304 H   0  0  0  0  0  0  0  0  0  0  0  0
    2.5199   66.3904   63.4812 H   0  0  0  0  0  0  0  0  0  0  0  0
    3.5895   68.9501   62.9429 H   0  0  0  0  0  0  0  0  0  0  0  0
    4.3801   67.7468   61.8687 H   0  0  0  0  0  0  0  0  0  0  0  0
    2.5914   67.9124   61.8687 H   0  0  0  0  0  0  0  0  0  0  0  0
    4.5086   65.5268   62.3725 H   0  0  0  0  0  0  0  0  0  0  0  0
    5.4475   66.2705   63.7102 H   0  0  0  0  0  0  0  0  0  0  0  0
    3.6665   62.8980   65.6074 H   0  0  0  0  0  0  0  0  0  0  0  0
    3.9641   69.3252   63.9856 H   0  0  0  0  0  0  0  0  0  0  0  0
    2.4435   69.5399   64.9617 H   0  0  0  0  0  0  0  0  0  0  0  0
    2.5465   69.6806   67.4344 H   0  0  0  0  0  0  0  0  0  0  0  0
    3.8677   70.5865   69.3403 H   0  0  0  0  0  0  0  0  0  0  0  0
    6.3085   71.0248   69.0739 H   0  0  0  0  0  0  0  0  0  0  0  0
    7.4316   70.5405   66.9014 H   0  0  0  0  0  0  0  0  0  0  0  0
    6.1173   69.6319   64.9906 H   0  0  0  0  0  0  0  0  0  0  0  0
  2  1  1  0
  3  2  1  0
  4  3  1  0
  5  3  1  0
  6  5  1  0
  7  6  3  0
  8  2  1  0
  9  8  1  0
 10  9  2  0
 11 10  1  0
 12 11  2  0
 13 12  1  0
 14  9  1  0
 14 13  2  0
  1 15  1  0
  1 16  1  0
  1 17  1  0
  2 18  1  1
  3 19  1  6
  4 20  1  0
  4 21  1  0
  4 22  1  0
  5 23  1  0
  5 24  1  0
  7 25  1  0
  8 26  1  0
  8 27  1  0
 10 28  1  0
 11 29  1  0
 12 30  1  0
 13 31  1  0
 14 32  1  0
M  CHG  1   3   1
M  END
>  <score>  (1) 
-7.641

$$$$
=
     RDKit          3D

 32 32  0  0  0  0  0  0  0  0999 V2000
    4.0190   66.7790   64.3420 C   0  0  0  0  0  0  0  0  0  0  0  0
    4.3470   68.2720   64.3970 C   0  0  1  0  0  0  0  0  0  0  0  0
    4.1910   68.9350   63.0150 N   0  0  1  0  0  4  0  0  0  0  0  0
    5.5190   69.2880   62.3940 C   0  0  0  0  0  0  0  0  0  0  0  0
    3.2890   68.2420   62.0160 C   0  0  0  0  0  0  0  0  0  0  0  0
    1.9250   68.7450   62.1620 C   0  0  0  0  0  0  0  0  0  0  0  0
    0.8050   69.1600   62.2960 C   0  0  0  0  0  0  0  0  0  0  0  0
    3.5280   69.0280   65.4660 C   0  0  0  0  0  0  0  0  0  0  0  0
    4.3970   69.6400   66.5370 C   0  0  0  0  0  0  0  0  0  0  0  0
    3.8440   70.0310   67.7650 C   0  0  0  0  0  0  0  0  0  0  0  0
    4.6440   70.6160   68.7460 C   0  0  0  0  0  0  0  0  0  0  0  0
    6.0040   70.8130   68.5120 C   0  0  0  0  0  0  0  0  0  0  0  0
    6.5650   70.4230   67.2980 C   0  0  0  0  0  0  0  0  0  0  0  0
    5.7670   69.8370   66.3150 C   0  0  0  0  0  0  0  0  0  0  0  0
    3.9324   66.3847   65.3652 H   0  0  0  0  0  0  0  0  0  0  0  0
    3.0671   66.6320   63.8106 H   0  0  0  0  0  0  0  0  0  0  0  0
    4.8216   66.2466   63.8106 H   0  0  0  0  0  0  0  0  0  0  0  0
    5.4028   68.3422   64.6975 H   0  0  0  0  0  0  0  0  0  0  0  0
    3.6807   69.7994   63.2459 H   0  0  0  0  0  0  0  0  0  0  0  0
    6.2547   69.4836   63.1881 H   0  0  0  0  0  0  0  0  0  0  0  0
    5.8663   68.4510   61.7705 H   0  0  0  0  0  0  0  0  0  0  0  0
    5.4048   70.1870   61.7705 H   0  0  0  0  0  0  0  0  0  0  0  0
    3.6475   68.4445   60.9960 H   0  0  0  0  0  0  0  0  0  0  0  0
    3.3020   67.1576   62.2002 H   0  0  0  0  0  0  0  0  0  0  0  0
   -0.2200   69.5398   62.4186 H   0  0  0  0  0  0  0  0  0  0  0  0
    2.9597   69.8301   64.9724 H   0  0  0  0  0  0  0  0  0  0  0  0
    2.8625   68.2997   65.9526 H   0  0  0  0  0  0  0  0  0  0  0  0
    2.7719   69.8752   67.9557 H   0  0  0  0  0  0  0  0  0  0  0  0
    4.2015   70.9223   69.7054 H   0  0  0  0  0  0  0  0  0  0  0  0
    6.6340   71.2762   69.2857 H   0  0  0  0  0  0  0  0  0  0  0  0
    7.6385   70.5773   67.1142 H   0  0  0  0  0  0  0  0  0  0  0  0
    6.2158   69.5276   65.3596 H   0  0  0  0  0  0  0  0  0  0  0  0
  2  1  1  0
  3  2  1  0
  4  3  1  0
  5  3  1  0
  6  5  1  0
  7  6  3  0
  8  2  1  0
  9  8  1  0
 10  9  2  0
 11 10  1  0
 12 11  2  0
 13 12  1  0
 14  9  1  0
 14 13  2  0
  1 15  1  0
  1 16  1  0
  1 17  1  0
  2 18  1  1
  3 19  1  1
  4 20  1  0
  4 21  1  0
  4 22  1  0
  5 23  1  0
  5 24  1  0
  7 25  1  0
  8 26  1  0
  8 27  1  0
 10 28  1  0
 11 29  1  0
 12 30  1  0
 13 31  1  0
 14 32  1  0
M  CHG  1   3   1
M  END
>  <score>  (2) 
-7.53

$$$$
=
     RDKit          3D

 32 32  0  0  0  0  0  0  0  0999 V2000
    2.1800   66.5800   65.2560 C   0  0  0  0  0  0  0  0  0  0  0  0
    1.8160   68.0540   65.0640 C   0  0  1  0  0  0  0  0  0  0  0  0
    0.4080   68.2130   64.4590 N   0  0  1  0  0  4  0  0  0  0  0  0
   -0.6080   68.6640   65.4780 C   0  0  0  0  0  0  0  0  0  0  0  0
    0.2930   69.0180   63.1820 C   0  0  0  0  0  0  0  0  0  0  0  0
    1.5140   68.8570   62.3950 C   0  0  0  0  0  0  0  0  0  0  0  0
    2.5230   68.7160   61.7580 C   0  0  0  0  0  0  0  0  0  0  0  0
    1.9530   68.8790   66.3620 C   0  0  0  0  0  0  0  0  0  0  0  0
    3.3500   69.4120   66.5650 C   0  0  0  0  0  0  0  0  0  0  0  0
    4.2740   69.4070   65.5100 C   0  0  0  0  0  0  0  0  0  0  0  0
    5.5720   69.8820   65.7050 C   0  0  0  0  0  0  0  0  0  0  0  0
    5.9580   70.3670   66.9530 C   0  0  0  0  0  0  0  0  0  0  0  0
    5.0470   70.3820   68.0060 C   0  0  0  0  0  0  0  0  0  0  0  0
    3.7480   69.9090   67.8150 C   0  0  0  0  0  0  0  0  0  0  0  0
    2.2360   66.3532   66.3309 H   0  0  0  0  0  0  0  0  0  0  0  0
    1.4109   65.9484   64.7876 H   0  0  0  0  0  0  0  0  0  0  0  0
    3.1548   66.3790   64.7876 H   0  0  0  0  0  0  0  0  0  0  0  0
    2.5476   68.4597   64.3497 H   0  0  0  0  0  0  0  0  0  0  0  0
    0.1910   67.2510   64.1616 H   0  0  0  0  0  0  0  0  0  0  0  0
   -0.2145   68.4893   66.4903 H   0  0  0  0  0  0  0  0  0  0  0  0
   -0.8109   69.7367   65.3435 H   0  0  0  0  0  0  0  0  0  0  0  0
   -1.5397   68.0949   65.3435 H   0  0  0  0  0  0  0  0  0  0  0  0
   -0.5689   68.6608   62.5994 H   0  0  0  0  0  0  0  0  0  0  0  0
    0.1525   70.0807   63.4290 H   0  0  0  0  0  0  0  0  0  0  0  0
    3.4467   68.5869   61.1748 H   0  0  0  0  0  0  0  0  0  0  0  0
    1.2551   69.7280   66.3153 H   0  0  0  0  0  0  0  0  0  0  0  0
    1.7243   68.2124   67.2066 H   0  0  0  0  0  0  0  0  0  0  0  0
    3.9740   69.0263   64.5225 H   0  0  0  0  0  0  0  0  0  0  0  0
    6.2910   69.8734   64.8725 H   0  0  0  0  0  0  0  0  0  0  0  0
    6.9822   70.7379   67.1063 H   0  0  0  0  0  0  0  0  0  0  0  0
    5.3518   70.7674   68.9902 H   0  0  0  0  0  0  0  0  0  0  0  0
    3.0318   69.9260   68.6497 H   0  0  0  0  0  0  0  0  0  0  0  0
  2  1  1  0
  3  2  1  0
  4  3  1  0
  5  3  1  0
  6  5  1  0
  7  6  3  0
  8  2  1  0
  9  8  1  0
 10  9  2  0
 11 10  1  0
 12 11  2  0
 13 12  1  0
 14  9  1  0
 14 13  2  0
  1 15  1  0
  1 16  1  0
  1 17  1  0
  2 18  1  6
  3 19  1  6
  4 20  1  0
  4 21  1  0
  4 22  1  0
  5 23  1  0
  5 24  1  0
  7 25  1  0
  8 26  1  0
  8 27  1  0
 10 28  1  0
 11 29  1  0
 12 30  1  0
 13 31  1  0
 14 32  1  0
M  CHG  1   3   1
M  END
>  <score>  (3) 
-7.432

$$$$
=
     RDKit          3D

 32 32  0  0  0  0  0  0  0  0999 V2000
    2.7500   66.3480   65.0030 C   0  0  0  0  0  0  0  0  0  0  0  0
    2.7170   67.8350   64.6440 C   0  0  1  0  0  0  0  0  0  0  0  0
    1.9430   68.0830   63.3350 N   0  0  1  0  0  4  0  0  0  0  0  0
    0.8160   69.0690   63.5120 C   0  0  0  0  0  0  0  0  0  0  0  0
    2.7590   68.4040   62.1010 C   0  0  0  0  0  0  0  0  0  0  0  0
    4.1020   68.8180   62.5020 C   0  0  0  0  0  0  0  0  0  0  0  0
    5.2030   69.1540   62.8460 C   0  0  0  0  0  0  0  0  0  0  0  0
    2.1630   68.7150   65.7860 C   0  0  0  0  0  0  0  0  0  0  0  0
    3.2560   69.3290   66.6260 C   0  0  0  0  0  0  0  0  0  0  0  0
    2.9880   69.7700   67.9300 C   0  0  0  0  0  0  0  0  0  0  0  0
    3.9950   70.3570   68.6980 C   0  0  0  0  0  0  0  0  0  0  0  0
    5.2760   70.5070   68.1730 C   0  0  0  0  0  0  0  0  0  0  0  0
    5.5550   70.0670   66.8810 C   0  0  0  0  0  0  0  0  0  0  0  0
    4.5510   69.4790   66.1110 C   0  0  0  0  0  0  0  0  0  0  0  0
    2.7525   66.2349   66.0972 H   0  0  0  0  0  0  0  0  0  0  0  0
    1.8627   65.8501   64.5850 H   0  0  0  0  0  0  0  0  0  0  0  0
    3.6585   65.8899   64.5850 H   0  0  0  0  0  0  0  0  0  0  0  0
    3.7637   68.1356   64.4888 H   0  0  0  0  0  0  0  0  0  0  0  0
    1.5542   67.1506   63.1342 H   0  0  0  0  0  0  0  0  0  0  0  0
    0.6336   69.2286   64.5850 H   0  0  0  0  0  0  0  0  0  0  0  0
    1.0875   70.0248   63.0401 H   0  0  0  0  0  0  0  0  0  0  0  0
   -0.0953   68.6729   63.0401 H   0  0  0  0  0  0  0  0  0  0  0  0
    2.8255   67.5109   61.4623 H   0  0  0  0  0  0  0  0  0  0  0  0
    2.2749   69.2181   61.5416 H   0  0  0  0  0  0  0  0  0  0  0  0
    6.2110   69.4616   63.1610 H   0  0  0  0  0  0  0  0  0  0  0  0
    1.5594   69.5232   65.3473 H   0  0  0  0  0  0  0  0  0  0  0  0
    1.5603   68.0699   66.4422 H   0  0  0  0  0  0  0  0  0  0  0  0
    1.9782   69.6526   68.3501 H   0  0  0  0  0  0  0  0  0  0  0  0
    3.7763   70.7016   69.7195 H   0  0  0  0  0  0  0  0  0  0  0  0
    6.0675   70.9729   68.7784 H   0  0  0  0  0  0  0  0  0  0  0  0
    6.5677   70.1832   66.4676 H   0  0  0  0  0  0  0  0  0  0  0  0
    4.7773   69.1306   65.0925 H   0  0  0  0  0  0  0  0  0  0  0  0
  2  1  1  0
  3  2  1  0
  4  3  1  0
  5  3  1  0
  6  5  1  0
  7  6  3  0
  8  2  1  0
  9  8  1  0
 10  9  2  0
 11 10  1  0
 12 11  2  0
 13 12  1  0
 14  9  1  0
 14 13  2  0
  1 15  1  0
  1 16  1  0
  1 17  1  0
  2 18  1  6
  3 19  1  6
  4 20  1  0
  4 21  1  0
  4 22  1  0
  5 23  1  0
  5 24  1  0
  7 25  1  0
  8 26  1  0
  8 27  1  0
 10 28  1  0
 11 29  1  0
 12 30  1  0
 13 31  1  0
 14 32  1  0
M  CHG  1   3   1
M  END
>  <score>  (4) 
-7.243

$$$$
=
     RDKit          3D

 32 32  0  0  0  0  0  0  0  0999 V2000
    1.2280   67.1200   68.9630 C   0  0  0  0  0  0  0  0  0  0  0  0
    1.1170   67.8890   67.6450 C   0  0  1  0  0  0  0  0  0  0  0  0
   -0.3150   67.8360   67.0800 N   0  0  1  0  0  4  0  0  0  0  0  0
   -1.2050   66.8980   67.8560 C   0  0  0  0  0  0  0  0  0  0  0  0
   -1.0070   69.1600   66.8280 C   0  0  0  0  0  0  0  0  0  0  0  0
   -2.2680   68.9230   66.1270 C   0  0  0  0  0  0  0  0  0  0  0  0
   -3.3110   68.7300   65.5640 C   0  0  0  0  0  0  0  0  0  0  0  0
    1.6100   69.3480   67.7600 C   0  0  0  0  0  0  0  0  0  0  0  0
    2.9980   69.5370   67.1980 C   0  0  0  0  0  0  0  0  0  0  0  0
    4.0170   70.0880   67.9890 C   0  0  0  0  0  0  0  0  0  0  0  0
    5.2940   70.2800   67.4620 C   0  0  0  0  0  0  0  0  0  0  0  0
    5.5670   69.9230   66.1430 C   0  0  0  0  0  0  0  0  0  0  0  0
    4.5640   69.3700   65.3510 C   0  0  0  0  0  0  0  0  0  0  0  0
    3.2860   69.1750   65.8750 C   0  0  0  0  0  0  0  0  0  0  0  0
    1.1270   67.8200   69.8055 H   0  0  0  0  0  0  0  0  0  0  0  0
    0.4295   66.3653   69.0155 H   0  0  0  0  0  0  0  0  0  0  0  0
    2.2074   66.6219   69.0155 H   0  0  0  0  0  0  0  0  0  0  0  0
    1.7872   67.3810   66.9359 H   0  0  0  0  0  0  0  0  0  0  0  0
   -0.1600   67.4575   66.1347 H   0  0  0  0  0  0  0  0  0  0  0  0
   -1.0541   67.0571   68.9339 H   0  0  0  0  0  0  0  0  0  0  0  0
   -2.2566   67.0946   67.6001 H   0  0  0  0  0  0  0  0  0  0  0  0
   -0.9535   65.8582   67.6001 H   0  0  0  0  0  0  0  0  0  0  0  0
   -1.2087   69.6573   67.7882 H   0  0  0  0  0  0  0  0  0  0  0  0
   -0.3594   69.8019   66.2126 H   0  0  0  0  0  0  0  0  0  0  0  0
   -4.2664   68.5532   65.0483 H   0  0  0  0  0  0  0  0  0  0  0  0
    0.9152   69.9992   67.2094 H   0  0  0  0  0  0  0  0  0  0  0  0
    1.6453   69.6047   68.8290 H   0  0  0  0  0  0  0  0  0  0  0  0
    3.8077   70.3704   69.0313 H   0  0  0  0  0  0  0  0  0  0  0  0
    6.0870   70.7140   68.0887 H   0  0  0  0  0  0  0  0  0  0  0  0
    6.5738   70.0779   65.7278 H   0  0  0  0  0  0  0  0  0  0  0  0
    4.7798   69.0864   64.3103 H   0  0  0  0  0  0  0  0  0  0  0  0
    2.4989   68.7341   65.2456 H   0  0  0  0  0  0  0  0  0  0  0  0
  2  1  1  0
  3  2  1  0
  4  3  1  0
  5  3  1  0
  6  5  1  0
  7  6  3  0
  8  2  1  0
  9  8  1  0
 10  9  2  0
 11 10  1  0
 12 11  2  0
 13 12  1  0
 14  9  1  0
 14 13  2  0
  1 15  1  0
  1 16  1  0
  1 17  1  0
  2 18  1  6
  3 19  1  6
  4 20  1  0
  4 21  1  0
  4 22  1  0
  5 23  1  0
  5 24  1  0
  7 25  1  0
  8 26  1  0
  8 27  1  0
 10 28  1  0
 11 29  1  0
 12 30  1  0
 13 31  1  0
 14 32  1  0
M  CHG  1   3   1
M  END
>  <score>  (5) 
-7.183

$$$$
=
     RDKit          3D

 32 32  0  0  0  0  0  0  0  0999 V2000
    5.2660   69.4520   62.4180 C   0  0  0  0  0  0  0  0  0  0  0  0
    4.6200   69.0150   63.7350 C   0  0  1  0  0  0  0  0  0  0  0  0
    3.7260   67.7760   63.5400 N   0  0  1  0  0  4  0  0  0  0  0  0
    2.4050   68.1160   62.8980 C   0  0  0  0  0  0  0  0  0  0  0  0
    4.3570   66.5670   62.8820 C   0  0  0  0  0  0  0  0  0  0  0  0
    4.1080   65.3830   63.7030 C   0  0  0  0  0  0  0  0  0  0  0  0
    3.9180   64.4060   64.3760 C   0  0  0  0  0  0  0  0  0  0  0  0
    5.6520   68.7790   64.8590 C   0  0  0  0  0  0  0  0  0  0  0  0
    5.2690   69.4600   66.1500 C   0  0  0  0  0  0  0  0  0  0  0  0
    6.2350   70.1260   66.9180 C   0  0  0  0  0  0  0  0  0  0  0  0
    5.8830   70.7370   68.1220 C   0  0  0  0  0  0  0  0  0  0  0  0
    4.5640   70.6900   68.5690 C   0  0  0  0  0  0  0  0  0  0  0  0
    3.5950   70.0370   67.8120 C   0  0  0  0  0  0  0  0  0  0  0  0
    3.9440   69.4250   66.6070 C   0  0  0  0  0  0  0  0  0  0  0  0
    6.1599   70.0567   62.6310 H   0  0  0  0  0  0  0  0  0  0  0  0
    5.5544   68.5628   61.8383 H   0  0  0  0  0  0  0  0  0  0  0  0
    4.5480   70.0506   61.8383 H   0  0  0  0  0  0  0  0  0  0  0  0
    3.9842   69.8525   64.0580 H   0  0  0  0  0  0  0  0  0  0  0  0
    3.5661   67.4699   64.5104 H   0  0  0  0  0  0  0  0  0  0  0  0
    1.6560   68.3088   63.6802 H   0  0  0  0  0  0  0  0  0  0  0  0
    2.5214   69.0134   62.2727 H   0  0  0  0  0  0  0  0  0  0  0  0
    2.0737   67.2739   62.2727 H   0  0  0  0  0  0  0  0  0  0  0  0
    3.9176   66.4209   61.8842 H   0  0  0  0  0  0  0  0  0  0  0  0
    5.4411   66.7254   62.7842 H   0  0  0  0  0  0  0  0  0  0  0  0
    3.7440   63.5115   64.9922 H   0  0  0  0  0  0  0  0  0  0  0  0
    5.7329   67.6973   65.0417 H   0  0  0  0  0  0  0  0  0  0  0  0
    6.6096   69.2070   64.5276 H   0  0  0  0  0  0  0  0  0  0  0  0
    7.2773   70.1670   66.5689 H   0  0  0  0  0  0  0  0  0  0  0  0
    6.6473   71.2562   68.7188 H   0  0  0  0  0  0  0  0  0  0  0  0
    4.2883   71.1689   69.5201 H   0  0  0  0  0  0  0  0  0  0  0  0
    2.5533   70.0033   68.1639 H   0  0  0  0  0  0  0  0  0  0  0  0
    3.1743   68.9118   66.0119 H   0  0  0  0  0  0  0  0  0  0  0  0
  2  1  1  0
  3  2  1  0
  4  3  1  0
  5  3  1  0
  6  5  1  0
  7  6  3  0
  8  2  1  0
  9  8  1  0
 10  9  2  0
 11 10  1  0
 12 11  2  0
 13 12  1  0
 14  9  1  0
 14 13  2  0
  1 15  1  0
  1 16  1  0
  1 17  1  0
  2 18  1  1
  3 19  1  1
  4 20  1  0
  4 21  1  0
  4 22  1  0
  5 23  1  0
  5 24  1  0
  7 25  1  0
  8 26  1  0
  8 27  1  0
 10 28  1  0
 11 29  1  0
 12 30  1  0
 13 31  1  0
 14 32  1  0
M  CHG  1   3   1
M  END
>  <score>  (6) 
-7.174

$$$$
=
     RDKit          3D

 32 32  0  0  0  0  0  0  0  0999 V2000
    2.0420   67.0400   65.8840 C   0  0  0  0  0  0  0  0  0  0  0  0
    1.7330   68.5390   65.9130 C   0  0  1  0  0  0  0  0  0  0  0  0
    0.2490   68.8150   65.6040 N   0  0  1  0  0  4  0  0  0  0  0  0
   -0.0420   68.8010   64.1240 C   0  0  0  0  0  0  0  0  0  0  0  0
   -0.7770   68.0040   66.3680 C   0  0  0  0  0  0  0  0  0  0  0  0
   -2.1170   68.5010   66.0580 C   0  0  0  0  0  0  0  0  0  0  0  0
   -3.2180   68.9000   65.7920 C   0  0  0  0  0  0  0  0  0  0  0  0
    2.1540   69.2110   67.2370 C   0  0  0  0  0  0  0  0  0  0  0  0
    3.5830   69.6960   67.2130 C   0  0  0  0  0  0  0  0  0  0  0  0
    4.3540   69.5790   66.0480 C   0  0  0  0  0  0  0  0  0  0  0  0
    5.6820   70.0080   66.0340 C   0  0  0  0  0  0  0  0  0  0  0  0
    6.2500   70.5600   67.1800 C   0  0  0  0  0  0  0  0  0  0  0  0
    5.4910   70.6860   68.3410 C   0  0  0  0  0  0  0  0  0  0  0  0
    4.1630   70.2580   68.3590 C   0  0  0  0  0  0  0  0  0  0  0  0
    2.1200   66.6617   66.9140 H   0  0  0  0  0  0  0  0  0  0  0  0
    1.2344   66.5092   65.3586 H   0  0  0  0  0  0  0  0  0  0  0  0
    2.9937   66.8719   65.3586 H   0  0  0  0  0  0  0  0  0  0  0  0
    2.3418   68.9934   65.1175 H   0  0  0  0  0  0  0  0  0  0  0  0
    0.1264   69.7705   65.9686 H   0  0  0  0  0  0  0  0  0  0  0  0
   -1.1291   68.7487   63.9645 H   0  0  0  0  0  0  0  0  0  0  0  0
    0.3523   69.7192   63.6641 H   0  0  0  0  0  0  0  0  0  0  0  0
    0.4386   67.9249   63.6641 H   0  0  0  0  0  0  0  0  0  0  0  0
   -0.7009   66.9464   66.0753 H   0  0  0  0  0  0  0  0  0  0  0  0
   -0.5905   68.0987   67.4479 H   0  0  0  0  0  0  0  0  0  0  0  0
   -4.2265   69.2655   65.5483 H   0  0  0  0  0  0  0  0  0  0  0  0
    1.4932   70.0708   67.4214 H   0  0  0  0  0  0  0  0  0  0  0  0
    2.0713   68.4575   68.0341 H   0  0  0  0  0  0  0  0  0  0  0  0
    3.9096   69.1465   65.1395 H   0  0  0  0  0  0  0  0  0  0  0  0
    6.2811   69.9101   65.1167 H   0  0  0  0  0  0  0  0  0  0  0  0
    7.2973   70.8962   67.1680 H   0  0  0  0  0  0  0  0  0  0  0  0
    5.9392   71.1236   69.2452 H   0  0  0  0  0  0  0  0  0  0  0  0
    3.5675   70.3622   69.2780 H   0  0  0  0  0  0  0  0  0  0  0  0
  2  1  1  0
  3  2  1  0
  4  3  1  0
  5  3  1  0
  6  5  1  0
  7  6  3  0
  8  2  1  0
  9  8  1  0
 10  9  2  0
 11 10  1  0
 12 11  2  0
 13 12  1  0
 14  9  1  0
 14 13  2  0
  1 15  1  0
  1 16  1  0
  1 17  1  0
  2 18  1  6
  3 19  1  1
  4 20  1  0
  4 21  1  0
  4 22  1  0
  5 23  1  0
  5 24  1  0
  7 25  1  0
  8 26  1  0
  8 27  1  0
 10 28  1  0
 11 29  1  0
 12 30  1  0
 13 31  1  0
 14 32  1  0
M  CHG  1   3   1
M  END
>  <score>  (7) 
-6.807

$$$$
=
     RDKit          3D

 32 32  0  0  0  0  0  0  0  0999 V2000
    2.0350   69.2290   67.5980 C   0  0  0  0  0  0  0  0  0  0  0  0
    3.0960   69.3740   66.5040 C   0  0  1  0  0  0  0  0  0  0  0  0
    4.4870   69.6590   67.1020 N   0  0  1  0  0  4  0  0  0  0  0  0
    5.5100   69.9900   66.0440 C   0  0  0  0  0  0  0  0  0  0  0  0
    4.5560   70.6410   68.2530 C   0  0  0  0  0  0  0  0  0  0  0  0
    5.9490   70.8130   68.6620 C   0  0  0  0  0  0  0  0  0  0  0  0
    7.0890   70.9640   69.0080 C   0  0  0  0  0  0  0  0  0  0  0  0
    3.1440   68.1600   65.5510 C   0  0  0  0  0  0  0  0  0  0  0  0
    2.5620   68.4670   64.1930 C   0  0  0  0  0  0  0  0  0  0  0  0
    3.3810   68.4790   63.0550 C   0  0  0  0  0  0  0  0  0  0  0  0
    2.8460   68.7830   61.8020 C   0  0  0  0  0  0  0  0  0  0  0  0
    1.4890   69.0740   61.6750 C   0  0  0  0  0  0  0  0  0  0  0  0
    0.6650   69.0590   62.7980 C   0  0  0  0  0  0  0  0  0  0  0  0
    1.1970   68.7550   64.0510 C   0  0  0  0  0  0  0  0  0  0  0  0
    2.5152   69.2946   68.5855 H   0  0  0  0  0  0  0  0  0  0  0  0
    1.2921   70.0340   67.4973 H   0  0  0  0  0  0  0  0  0  0  0  0
    1.5353   68.2542   67.4973 H   0  0  0  0  0  0  0  0  0  0  0  0
    2.7956   70.2418   65.8985 H   0  0  0  0  0  0  0  0  0  0  0  0
    4.7238   68.7562   67.5377 H   0  0  0  0  0  0  0  0  0  0  0  0
    6.4507   70.2944   66.5261 H   0  0  0  0  0  0  0  0  0  0  0  0
    5.6891   69.1040   65.4172 H   0  0  0  0  0  0  0  0  0  0  0  0
    5.1361   70.8130   65.4172 H   0  0  0  0  0  0  0  0  0  0  0  0
    4.1450   71.6101   67.9337 H   0  0  0  0  0  0  0  0  0  0  0  0
    3.9693   70.2559   69.1001 H   0  0  0  0  0  0  0  0  0  0  0  0
    8.1332   71.1023   69.3249 H   0  0  0  0  0  0  0  0  0  0  0  0
    4.1925   67.8527   65.4240 H   0  0  0  0  0  0  0  0  0  0  0  0
    2.5388   67.3588   66.0002 H   0  0  0  0  0  0  0  0  0  0  0  0
    4.4521   68.2473   63.1502 H   0  0  0  0  0  0  0  0  0  0  0  0
    3.4958   68.7929   60.9145 H   0  0  0  0  0  0  0  0  0  0  0  0
    1.0685   69.3156   60.6877 H   0  0  0  0  0  0  0  0  0  0  0  0
   -0.4063   69.2871   62.6965 H   0  0  0  0  0  0  0  0  0  0  0  0
    0.5412   68.7411   64.9340 H   0  0  0  0  0  0  0  0  0  0  0  0
  2  1  1  0
  3  2  1  0
  4  3  1  0
  5  3  1  0
  6  5  1  0
  7  6  3  0
  8  2  1  0
  9  8  1  0
 10  9  2  0
 11 10  1  0
 12 11  2  0
 13 12  1  0
 14  9  1  0
 14 13  2  0
  1 15  1  0
  1 16  1  0
  1 17  1  0
  2 18  1  6
  3 19  1  1
  4 20  1  0
  4 21  1  0
  4 22  1  0
  5 23  1  0
  5 24  1  0
  7 25  1  0
  8 26  1  0
  8 27  1  0
 10 28  1  0
 11 29  1  0
 12 30  1  0
 13 31  1  0
 14 32  1  0
M  CHG  1   3   1
M  END
>  <score>  (8) 
-6.77

$$$$
=
     RDKit          3D

 32 32  0  0  0  0  0  0  0  0999 V2000
    3.0550   57.4880   71.0400 C   0  0  0  0  0  0  0  0  0  0  0  0
    3.0160   58.9370   71.5290 C   0  0  1  0  0  0  0  0  0  0  0  0
    2.4580   59.0340   72.9620 N   0  0  1  0  0  4  0  0  0  0  0  0
    3.4330   59.6770   73.9160 C   0  0  0  0  0  0  0  0  0  0  0  0
    1.0710   59.6200   73.1240 C   0  0  0  0  0  0  0  0  0  0  0  0
    1.0160   60.9260   72.4700 C   0  0  0  0  0  0  0  0  0  0  0  0
    0.9840   61.9960   71.9260 C   0  0  0  0  0  0  0  0  0  0  0  0
    4.3850   59.6430   71.4220 C   0  0  0  0  0  0  0  0  0  0  0  0
    4.3060   60.9500   70.6710 C   0  0  0  0  0  0  0  0  0  0  0  0
    4.9170   62.1030   71.1830 C   0  0  0  0  0  0  0  0  0  0  0  0
    4.8260   63.3150   70.4980 C   0  0  0  0  0  0  0  0  0  0  0  0
    4.1260   63.3860   69.2950 C   0  0  0  0  0  0  0  0  0  0  0  0
    3.5200   62.2450   68.7740 C   0  0  0  0  0  0  0  0  0  0  0  0
    3.6100   61.0320   69.4560 C   0  0  0  0  0  0  0  0  0  0  0  0
    3.0733   56.8093   71.9055 H   0  0  0  0  0  0  0  0  0  0  0  0
    2.1621   57.2822   70.4315 H   0  0  0  0  0  0  0  0  0  0  0  0
    3.9577   57.3306   70.4315 H   0  0  0  0  0  0  0  0  0  0  0  0
    2.3299   59.4697   70.8541 H   0  0  0  0  0  0  0  0  0  0  0  0
    2.3354   58.0427   73.2135 H   0  0  0  0  0  0  0  0  0  0  0  0
    3.1224   59.4721   74.9512 H   0  0  0  0  0  0  0  0  0  0  0  0
    4.4384   59.2642   73.7464 H   0  0  0  0  0  0  0  0  0  0  0  0
    3.4494   60.7637   73.7464 H   0  0  0  0  0  0  0  0  0  0  0  0
    0.3324   58.9475   72.6633 H   0  0  0  0  0  0  0  0  0  0  0  0
    0.8436   59.7352   74.1941 H   0  0  0  0  0  0  0  0  0  0  0  0
    0.9547   62.9762   71.4277 H   0  0  0  0  0  0  0  0  0  0  0  0
    4.7593   59.8418   72.4371 H   0  0  0  0  0  0  0  0  0  0  0  0
    5.0605   58.9780   70.8640 H   0  0  0  0  0  0  0  0  0  0  0  0
    5.4720   62.0519   72.1313 H   0  0  0  0  0  0  0  0  0  0  0  0
    5.3072   64.2153   70.9078 H   0  0  0  0  0  0  0  0  0  0  0  0
    4.0520   64.3427   68.7571 H   0  0  0  0  0  0  0  0  0  0  0  0
    2.9697   62.3009   67.8232 H   0  0  0  0  0  0  0  0  0  0  0  0
    3.1320   60.1336   69.0384 H   0  0  0  0  0  0  0  0  0  0  0  0
  2  1  1  0
  3  2  1  0
  4  3  1  0
  5  3  1  0
  6  5  1  0
  7  6  3  0
  8  2  1  0
  9  8  1  0
 10  9  2  0
 11 10  1  0
 12 11  2  0
 13 12  1  0
 14  9  1  0
 14 13  2  0
  1 15  1  0
  1 16  1  0
  1 17  1  0
  2 18  1  6
  3 19  1  1
  4 20  1  0
  4 21  1  0
  4 22  1  0
  5 23  1  0
  5 24  1  0
  7 25  1  0
  8 26  1  0
  8 27  1  0
 10 28  1  0
 11 29  1  0
 12 30  1  0
 13 31  1  0
 14 32  1  0
M  CHG  1   3   1
M  END
>  <score>  (9) 
-6.321

$$$$
