=
     RDKit          3D

 27 28  0  0  0  0  0  0  0  0999 V2000
    2.7240   68.6510   63.6170 C   0  0  0  0  0  0  0  0  0  0  0  0
    4.0580   69.0560   63.4920 C   0  0  0  0  0  0  0  0  0  0  0  0
    4.7770   69.4870   64.6110 C   0  0  0  0  0  0  0  0  0  0  0  0
    4.1820   69.5330   65.8820 C   0  0  0  0  0  0  0  0  0  0  0  0
    2.8390   69.1400   65.9930 C   0  0  0  0  0  0  0  0  0  0  0  0
    2.1170   68.7100   64.8750 C   0  0  0  0  0  0  0  0  0  0  0  0
    4.9380   69.9930   67.0590 C   0  0  0  0  0  0  0  0  0  0  0  0
    4.2930   70.2520   68.2790 C   0  0  0  0  0  0  0  0  0  0  0  0
    5.0100   70.6880   69.3960 C   0  0  0  0  0  0  0  0  0  0  0  0
    6.3880   70.8730   69.3120 C   0  0  0  0  0  0  0  0  0  0  0  0
    7.0480   70.6210   68.1110 C   0  0  0  0  0  0  0  0  0  0  0  0
    6.3280   70.1850   66.9960 C   0  0  0  0  0  0  0  0  0  0  0  0
    1.9500   68.1880   62.4100 C   0  0  0  0  0  0  0  0  0  0  0  0
   -0.3860   67.9950   62.7220 O   0  0  0  0  0  1  0  0  0  0  0  0
    0.5410   68.7790   62.3660 C   0  0  0  0  0  0  0  0  0  0  0  0
    0.4640   69.9650   61.9320 O   0  0  0  0  0  0  0  0  0  0  0  0
    4.5445   69.0350   62.5057 H   0  0  0  0  0  0  0  0  0  0  0  0
    5.8264   69.7952   64.4937 H   0  0  0  0  0  0  0  0  0  0  0  0
    2.3461   69.1707   66.9759 H   0  0  0  0  0  0  0  0  0  0  0  0
    1.0629   68.4158   64.9864 H   0  0  0  0  0  0  0  0  0  0  0  0
    3.2051   70.1092   68.3566 H   0  0  0  0  0  0  0  0  0  0  0  0
    4.4858   70.8854   70.3427 H   0  0  0  0  0  0  0  0  0  0  0  0
    6.9533   71.2169   70.1908 H   0  0  0  0  0  0  0  0  0  0  0  0
    8.1362   70.7654   68.0408 H   0  0  0  0  0  0  0  0  0  0  0  0
    6.8587   69.9887   66.0527 H   0  0  0  0  0  0  0  0  0  0  0  0
    2.4913   68.4949   61.5029 H   0  0  0  0  0  0  0  0  0  0  0  0
    1.8555   67.0937   62.4689 H   0  0  0  0  0  0  0  0  0  0  0  0
  2  1  2  0
  3  2  1  0
  4  3  2  0
  5  4  1  0
  6  1  1  0
  6  5  2  0
  7  4  1  0
  8  7  2  0
  9  8  1  0
 10  9  2  0
 11 10  1  0
 12  7  1  0
 12 11  2  0
 13  1  1  0
 15 14  1  0
 15 13  1  0
 16 15  2  0
  2 17  1  0
  3 18  1  0
  5 19  1  0
  6 20  1  0
  8 21  1  0
  9 22  1  0
 10 23  1  0
 11 24  1  0
 12 25  1  0
 13 26  1  0
 13 27  1  0
M  CHG  1  14  -1
M  END
>  <score>  (1) 
-9.869

$$$$
=
     RDKit          3D

 27 28  0  0  0  0  0  0  0  0999 V2000
    3.1860   68.9790   63.9500 C   0  0  0  0  0  0  0  0  0  0  0  0
    2.5640   69.0220   65.2030 C   0  0  0  0  0  0  0  0  0  0  0  0
    3.2810   69.4050   66.3400 C   0  0  0  0  0  0  0  0  0  0  0  0
    4.6410   69.7470   66.2580 C   0  0  0  0  0  0  0  0  0  0  0  0
    5.2600   69.6850   65.0000 C   0  0  0  0  0  0  0  0  0  0  0  0
    4.5440   69.3010   63.8610 C   0  0  0  0  0  0  0  0  0  0  0  0
    5.3980   70.1440   67.4580 C   0  0  0  0  0  0  0  0  0  0  0  0
    4.7630   70.2770   68.7040 C   0  0  0  0  0  0  0  0  0  0  0  0
    5.4810   70.6530   69.8420 C   0  0  0  0  0  0  0  0  0  0  0  0
    6.8480   70.9040   69.7540 C   0  0  0  0  0  0  0  0  0  0  0  0
    7.4970   70.7790   68.5280 C   0  0  0  0  0  0  0  0  0  0  0  0
    6.7770   70.4020   67.3910 C   0  0  0  0  0  0  0  0  0  0  0  0
    2.4120   68.5660   62.7250 C   0  0  0  0  0  0  0  0  0  0  0  0
    3.3270   68.9200   60.5730 O   0  0  0  0  0  1  0  0  0  0  0  0
    3.3290   68.1490   61.5770 C   0  0  0  0  0  0  0  0  0  0  0  0
    3.9440   67.0550   61.7430 O   0  0  0  0  0  0  0  0  0  0  0  0
    1.5015   68.7520   65.2938 H   0  0  0  0  0  0  0  0  0  0  0  0
    2.7722   69.4392   67.3146 H   0  0  0  0  0  0  0  0  0  0  0  0
    6.3255   69.9425   64.9080 H   0  0  0  0  0  0  0  0  0  0  0  0
    5.0535   69.2520   62.8873 H   0  0  0  0  0  0  0  0  0  0  0  0
    3.6834   70.0820   68.7850 H   0  0  0  0  0  0  0  0  0  0  0  0
    4.9658   70.7509   70.8089 H   0  0  0  0  0  0  0  0  0  0  0  0
    7.4134   71.2000   70.6499 H   0  0  0  0  0  0  0  0  0  0  0  0
    8.5765   70.9771   68.4546 H   0  0  0  0  0  0  0  0  0  0  0  0
    7.2990   70.3057   66.4276 H   0  0  0  0  0  0  0  0  0  0  0  0
    1.7624   67.7174   62.9857 H   0  0  0  0  0  0  0  0  0  0  0  0
    1.8232   69.4324   62.3894 H   0  0  0  0  0  0  0  0  0  0  0  0
  2  1  2  0
  3  2  1  0
  4  3  2  0
  5  4  1  0
  6  1  1  0
  6  5  2  0
  7  4  1  0
  8  7  2  0
  9  8  1  0
 10  9  2  0
 11 10  1  0
 12  7  1  0
 12 11  2  0
 13  1  1  0
 15 14  1  0
 15 13  1  0
 16 15  2  0
  2 17  1  0
  3 18  1  0
  5 19  1  0
  6 20  1  0
  8 21  1  0
  9 22  1  0
 10 23  1  0
 11 24  1  0
 12 25  1  0
 13 26  1  0
 13 27  1  0
M  CHG  1  14  -1
M  END
>  <score>  (2) 
-9.671

$$$$
=
     RDKit          3D

 27 28  0  0  0  0  0  0  0  0999 V2000
    4.5950   69.9140   67.0410 C   0  0  0  0  0  0  0  0  0  0  0  0
    3.8030   70.1080   68.1780 C   0  0  0  0  0  0  0  0  0  0  0  0
    2.4910   69.6250   68.2210 C   0  0  0  0  0  0  0  0  0  0  0  0
    1.9350   68.9420   67.1270 C   0  0  0  0  0  0  0  0  0  0  0  0
    2.7330   68.7660   65.9860 C   0  0  0  0  0  0  0  0  0  0  0  0
    4.0450   69.2510   65.9410 C   0  0  0  0  0  0  0  0  0  0  0  0
    0.5510   68.4380   67.1710 C   0  0  0  0  0  0  0  0  0  0  0  0
    0.1940   67.3750   68.0170 C   0  0  0  0  0  0  0  0  0  0  0  0
   -1.1180   66.8970   68.0590 C   0  0  0  0  0  0  0  0  0  0  0  0
   -2.0980   67.4750   67.2550 C   0  0  0  0  0  0  0  0  0  0  0  0
   -1.7640   68.5290   66.4080 C   0  0  0  0  0  0  0  0  0  0  0  0
   -0.4510   69.0050   66.3680 C   0  0  0  0  0  0  0  0  0  0  0  0
    6.0080   70.4370   66.9960 C   0  0  0  0  0  0  0  0  0  0  0  0
    5.9360   72.5430   68.0710 O   0  0  0  0  0  1  0  0  0  0  0  0
    6.3260   71.3440   68.1840 C   0  0  0  0  0  0  0  0  0  0  0  0
    6.9850   70.8020   69.1190 O   0  0  0  0  0  0  0  0  0  0  0  0
    4.2155   70.6447   69.0451 H   0  0  0  0  0  0  0  0  0  0  0  0
    1.8853   69.7825   69.1256 H   0  0  0  0  0  0  0  0  0  0  0  0
    2.3207   68.2385   65.1132 H   0  0  0  0  0  0  0  0  0  0  0  0
    4.6482   69.1091   65.0321 H   0  0  0  0  0  0  0  0  0  0  0  0
    0.9596   66.9116   68.6566 H   0  0  0  0  0  0  0  0  0  0  0  0
   -1.3776   66.0631   68.7278 H   0  0  0  0  0  0  0  0  0  0  0  0
   -3.1317   67.1004   67.2890 H   0  0  0  0  0  0  0  0  0  0  0  0
   -2.5344   68.9869   65.7702 H   0  0  0  0  0  0  0  0  0  0  0  0
   -0.1982   69.8382   65.6958 H   0  0  0  0  0  0  0  0  0  0  0  0
    6.7021   69.5837   67.0061 H   0  0  0  0  0  0  0  0  0  0  0  0
    6.1186   71.0323   66.0776 H   0  0  0  0  0  0  0  0  0  0  0  0
  2  1  2  0
  3  2  1  0
  4  3  2  0
  5  4  1  0
  6  1  1  0
  6  5  2  0
  7  4  1  0
  8  7  2  0
  9  8  1  0
 10  9  2  0
 11 10  1  0
 12  7  1  0
 12 11  2  0
 13  1  1  0
 15 14  1  0
 15 13  1  0
 16 15  2  0
  2 17  1  0
  3 18  1  0
  5 19  1  0
  6 20  1  0
  8 21  1  0
  9 22  1  0
 10 23  1  0
 11 24  1  0
 12 25  1  0
 13 26  1  0
 13 27  1  0
M  CHG  1  14  -1
M  END
>  <score>  (3) 
-9.47

$$$$
=
     RDKit          3D

 27 28  0  0  0  0  0  0  0  0999 V2000
    0.2370   68.6410   66.5550 C   0  0  0  0  0  0  0  0  0  0  0  0
    0.5120   69.3620   67.7220 C   0  0  0  0  0  0  0  0  0  0  0  0
    1.8140   69.7840   68.0060 C   0  0  0  0  0  0  0  0  0  0  0  0
    2.8770   69.4890   67.1370 C   0  0  0  0  0  0  0  0  0  0  0  0
    2.5930   68.7510   65.9780 C   0  0  0  0  0  0  0  0  0  0  0  0
    1.2910   68.3270   65.6920 C   0  0  0  0  0  0  0  0  0  0  0  0
    4.2500   69.9280   67.4400 C   0  0  0  0  0  0  0  0  0  0  0  0
    5.2780   69.8000   66.4920 C   0  0  0  0  0  0  0  0  0  0  0  0
    6.5810   70.2170   66.7790 C   0  0  0  0  0  0  0  0  0  0  0  0
    6.8780   70.7700   68.0220 C   0  0  0  0  0  0  0  0  0  0  0  0
    5.8730   70.9060   68.9770 C   0  0  0  0  0  0  0  0  0  0  0  0
    4.5720   70.4890   68.6870 C   0  0  0  0  0  0  0  0  0  0  0  0
   -1.1680   68.1860   66.2500 C   0  0  0  0  0  0  0  0  0  0  0  0
   -2.9260   67.6630   67.7440 O   0  0  0  0  0  1  0  0  0  0  0  0
   -1.7580   67.3410   67.3780 C   0  0  0  0  0  0  0  0  0  0  0  0
   -0.9890   66.4510   67.8480 O   0  0  0  0  0  0  0  0  0  0  0  0
   -0.3030   69.5987   68.4218 H   0  0  0  0  0  0  0  0  0  0  0  0
    2.0091   70.3563   68.9249 H   0  0  0  0  0  0  0  0  0  0  0  0
    3.4079   68.5016   65.2825 H   0  0  0  0  0  0  0  0  0  0  0  0
    1.0950   67.7421   64.7812 H   0  0  0  0  0  0  0  0  0  0  0  0
    5.0542   69.3643   65.5071 H   0  0  0  0  0  0  0  0  0  0  0  0
    7.3722   70.1082   66.0225 H   0  0  0  0  0  0  0  0  0  0  0  0
    7.9030   71.0984   68.2491 H   0  0  0  0  0  0  0  0  0  0  0  0
    6.1042   71.3421   69.9601 H   0  0  0  0  0  0  0  0  0  0  0  0
    3.7859   70.6018   69.4482 H   0  0  0  0  0  0  0  0  0  0  0  0
   -1.8030   69.0719   66.1015 H   0  0  0  0  0  0  0  0  0  0  0  0
   -1.1323   67.5630   65.3441 H   0  0  0  0  0  0  0  0  0  0  0  0
  2  1  2  0
  3  2  1  0
  4  3  2  0
  5  4  1  0
  6  1  1  0
  6  5  2  0
  7  4  1  0
  8  7  2  0
  9  8  1  0
 10  9  2  0
 11 10  1  0
 12  7  1  0
 12 11  2  0
 13  1  1  0
 15 14  1  0
 15 13  1  0
 16 15  2  0
  2 17  1  0
  3 18  1  0
  5 19  1  0
  6 20  1  0
  8 21  1  0
  9 22  1  0
 10 23  1  0
 11 24  1  0
 12 25  1  0
 13 26  1  0
 13 27  1  0
M  CHG  1  14  -1
M  END
>  <score>  (4) 
-9.369

$$$$
=
     RDKit          3D

 27 28  0  0  0  0  0  0  0  0999 V2000
    3.8440   69.1840   64.7950 C   0  0  0  0  0  0  0  0  0  0  0  0
    3.5850   69.1790   66.1700 C   0  0  0  0  0  0  0  0  0  0  0  0
    2.3170   68.8430   66.6540 C   0  0  0  0  0  0  0  0  0  0  0  0
    1.2720   68.5100   65.7760 C   0  0  0  0  0  0  0  0  0  0  0  0
    1.5370   68.5330   64.3980 C   0  0  0  0  0  0  0  0  0  0  0  0
    2.8050   68.8700   63.9130 C   0  0  0  0  0  0  0  0  0  0  0  0
   -0.0660   68.1620   66.2860 C   0  0  0  0  0  0  0  0  0  0  0  0
   -0.2260   67.2210   67.3160 C   0  0  0  0  0  0  0  0  0  0  0  0
   -1.4940   66.8910   67.8000 C   0  0  0  0  0  0  0  0  0  0  0  0
   -2.6270   67.4970   67.2610 C   0  0  0  0  0  0  0  0  0  0  0  0
   -2.4900   68.4330   66.2390 C   0  0  0  0  0  0  0  0  0  0  0  0
   -1.2200   68.7620   65.7570 C   0  0  0  0  0  0  0  0  0  0  0  0
    5.2110   69.5470   64.2750 C   0  0  0  0  0  0  0  0  0  0  0  0
    5.7530   67.5900   63.0630 O   0  0  0  0  0  1  0  0  0  0  0  0
    5.5380   68.8330   62.9640 C   0  0  0  0  0  0  0  0  0  0  0  0
    5.6060   69.5780   61.9430 O   0  0  0  0  0  0  0  0  0  0  0  0
    4.3861   69.4418   66.8765 H   0  0  0  0  0  0  0  0  0  0  0  0
    2.1348   68.8393   67.7388 H   0  0  0  0  0  0  0  0  0  0  0  0
    0.7350   68.2821   63.6882 H   0  0  0  0  0  0  0  0  0  0  0  0
    2.9866   68.8882   62.8282 H   0  0  0  0  0  0  0  0  0  0  0  0
    0.6615   66.7360   67.7486 H   0  0  0  0  0  0  0  0  0  0  0  0
   -1.5983   66.1517   68.6078 H   0  0  0  0  0  0  0  0  0  0  0  0
   -3.6259   67.2371   67.6413 H   0  0  0  0  0  0  0  0  0  0  0  0
   -3.3819   68.9137   65.8108 H   0  0  0  0  0  0  0  0  0  0  0  0
   -1.1229   69.5031   64.9500 H   0  0  0  0  0  0  0  0  0  0  0  0
    5.2487   70.6333   64.1058 H   0  0  0  0  0  0  0  0  0  0  0  0
    5.9520   69.2327   65.0247 H   0  0  0  0  0  0  0  0  0  0  0  0
  2  1  2  0
  3  2  1  0
  4  3  2  0
  5  4  1  0
  6  1  1  0
  6  5  2  0
  7  4  1  0
  8  7  2  0
  9  8  1  0
 10  9  2  0
 11 10  1  0
 12  7  1  0
 12 11  2  0
 13  1  1  0
 15 14  1  0
 15 13  1  0
 16 15  2  0
  2 17  1  0
  3 18  1  0
  5 19  1  0
  6 20  1  0
  8 21  1  0
  9 22  1  0
 10 23  1  0
 11 24  1  0
 12 25  1  0
 13 26  1  0
 13 27  1  0
M  CHG  1  14  -1
M  END
>  <score>  (5) 
-8.021

$$$$
=
     RDKit          3D

 27 28  0  0  0  0  0  0  0  0999 V2000
   -0.0640   68.5560   66.6530 C   0  0  0  0  0  0  0  0  0  0  0  0
   -0.2310   68.6160   65.2650 C   0  0  0  0  0  0  0  0  0  0  0  0
    0.8770   68.7270   64.4200 C   0  0  0  0  0  0  0  0  0  0  0  0
    2.1810   68.7880   64.9390 C   0  0  0  0  0  0  0  0  0  0  0  0
    2.3370   68.7430   66.3330 C   0  0  0  0  0  0  0  0  0  0  0  0
    1.2290   68.6330   67.1800 C   0  0  0  0  0  0  0  0  0  0  0  0
    3.3470   68.9100   64.0480 C   0  0  0  0  0  0  0  0  0  0  0  0
    3.2530   68.5950   62.6830 C   0  0  0  0  0  0  0  0  0  0  0  0
    4.3590   68.7120   61.8370 C   0  0  0  0  0  0  0  0  0  0  0  0
    5.5820   69.1460   62.3440 C   0  0  0  0  0  0  0  0  0  0  0  0
    5.6980   69.4640   63.6950 C   0  0  0  0  0  0  0  0  0  0  0  0
    4.5890   69.3460   64.5380 C   0  0  0  0  0  0  0  0  0  0  0  0
   -1.2600   68.4380   67.5630 C   0  0  0  0  0  0  0  0  0  0  0  0
   -0.8790   66.3100   68.5230 O   0  0  0  0  0  1  0  0  0  0  0  0
   -1.6660   66.9830   67.7950 C   0  0  0  0  0  0  0  0  0  0  0  0
   -2.7140   66.6090   67.1920 O   0  0  0  0  0  0  0  0  0  0  0  0
   -1.2427   68.5755   64.8352 H   0  0  0  0  0  0  0  0  0  0  0  0
    0.7254   68.7672   63.3312 H   0  0  0  0  0  0  0  0  0  0  0  0
    3.3466   68.7951   66.7666 H   0  0  0  0  0  0  0  0  0  0  0  0
    1.3761   68.6069   68.2698 H   0  0  0  0  0  0  0  0  0  0  0  0
    2.2924   68.2503   62.2726 H   0  0  0  0  0  0  0  0  0  0  0  0
    4.2640   68.4613   60.7702 H   0  0  0  0  0  0  0  0  0  0  0  0
    6.4536   69.2372   61.6791 H   0  0  0  0  0  0  0  0  0  0  0  0
    6.6618   69.8079   64.0986 H   0  0  0  0  0  0  0  0  0  0  0  0
    4.6909   69.5990   65.6036 H   0  0  0  0  0  0  0  0  0  0  0  0
   -1.0145   68.8964   68.5323 H   0  0  0  0  0  0  0  0  0  0  0  0
   -2.1043   68.9519   67.0803 H   0  0  0  0  0  0  0  0  0  0  0  0
  2  1  2  0
  3  2  1  0
  4  3  2  0
  5  4  1  0
  6  1  1  0
  6  5  2  0
  7  4  1  0
  8  7  2  0
  9  8  1  0
 10  9  2  0
 11 10  1  0
 12  7  1  0
 12 11  2  0
 13  1  1  0
 15 14  1  0
 15 13  1  0
 16 15  2  0
  2 17  1  0
  3 18  1  0
  5 19  1  0
  6 20  1  0
  8 21  1  0
  9 22  1  0
 10 23  1  0
 11 24  1  0
 12 25  1  0
 13 26  1  0
 13 27  1  0
M  CHG  1  14  -1
M  END
>  <score>  (6) 
-7.838

$$$$
=
     RDKit          3D

 27 28  0  0  0  0  0  0  0  0999 V2000
    5.9000   70.9060   67.9320 C   0  0  0  0  0  0  0  0  0  0  0  0
    4.6150   70.5650   68.3660 C   0  0  0  0  0  0  0  0  0  0  0  0
    3.7390   69.8750   67.5220 C   0  0  0  0  0  0  0  0  0  0  0  0
    4.1210   69.5160   66.2190 C   0  0  0  0  0  0  0  0  0  0  0  0
    5.4070   69.8770   65.7880 C   0  0  0  0  0  0  0  0  0  0  0  0
    6.2840   70.5680   66.6310 C   0  0  0  0  0  0  0  0  0  0  0  0
    3.1960   68.7950   65.3280 C   0  0  0  0  0  0  0  0  0  0  0  0
    3.2870   68.9220   63.9330 C   0  0  0  0  0  0  0  0  0  0  0  0
    2.4100   68.2380   63.0870 C   0  0  0  0  0  0  0  0  0  0  0  0
    1.4250   67.4130   63.6240 C   0  0  0  0  0  0  0  0  0  0  0  0
    1.3170   67.2720   65.0060 C   0  0  0  0  0  0  0  0  0  0  0  0
    2.1960   67.9580   65.8490 C   0  0  0  0  0  0  0  0  0  0  0  0
    6.8430   71.6500   68.8430 C   0  0  0  0  0  0  0  0  0  0  0  0
    8.6810   70.2630   69.3790 O   0  0  0  0  0  1  0  0  0  0  0  0
    7.5770   70.7140   69.8020 C   0  0  0  0  0  0  0  0  0  0  0  0
    6.9710   70.4610   70.8840 O   0  0  0  0  0  0  0  0  0  0  0  0
    4.2905   70.8419   69.3799 H   0  0  0  0  0  0  0  0  0  0  0  0
    2.7350   69.6093   67.8844 H   0  0  0  0  0  0  0  0  0  0  0  0
    5.7307   69.6122   64.7706 H   0  0  0  0  0  0  0  0  0  0  0  0
    7.2837   70.8476   66.2672 H   0  0  0  0  0  0  0  0  0  0  0  0
    4.0617   69.5709   63.4985 H   0  0  0  0  0  0  0  0  0  0  0  0
    2.4977   68.3513   61.9964 H   0  0  0  0  0  0  0  0  0  0  0  0
    0.7341   66.8741   62.9590 H   0  0  0  0  0  0  0  0  0  0  0  0
    0.5402   66.6210   65.4335 H   0  0  0  0  0  0  0  0  0  0  0  0
    2.1028   67.8402   66.9387 H   0  0  0  0  0  0  0  0  0  0  0  0
    7.5851   72.1803   68.2281 H   0  0  0  0  0  0  0  0  0  0  0  0
    6.2475   72.3518   69.4454 H   0  0  0  0  0  0  0  0  0  0  0  0
  2  1  2  0
  3  2  1  0
  4  3  2  0
  5  4  1  0
  6  1  1  0
  6  5  2  0
  7  4  1  0
  8  7  2  0
  9  8  1  0
 10  9  2  0
 11 10  1  0
 12  7  1  0
 12 11  2  0
 13  1  1  0
 15 14  1  0
 15 13  1  0
 16 15  2  0
  2 17  1  0
  3 18  1  0
  5 19  1  0
  6 20  1  0
  8 21  1  0
  9 22  1  0
 10 23  1  0
 11 24  1  0
 12 25  1  0
 13 26  1  0
 13 27  1  0
M  CHG  1  14  -1
M  END
>  <score>  (7) 
-7.599

$$$$
=
     RDKit          3D

 27 28  0  0  0  0  0  0  0  0999 V2000
    0.9780   64.9110   70.7120 C   0  0  0  0  0  0  0  0  0  0  0  0
    2.2540   64.5580   70.2580 C   0  0  0  0  0  0  0  0  0  0  0  0
    2.7160   63.2450   70.3850 C   0  0  0  0  0  0  0  0  0  0  0  0
    1.9190   62.2510   70.9760 C   0  0  0  0  0  0  0  0  0  0  0  0
    0.6480   62.6180   71.4430 C   0  0  0  0  0  0  0  0  0  0  0  0
    0.1840   63.9320   71.3170 C   0  0  0  0  0  0  0  0  0  0  0  0
    2.4090   60.8680   71.1150 C   0  0  0  0  0  0  0  0  0  0  0  0
    2.0830   60.0950   72.2410 C   0  0  0  0  0  0  0  0  0  0  0  0
    2.5470   58.7830   72.3730 C   0  0  0  0  0  0  0  0  0  0  0  0
    3.3470   58.2220   71.3800 C   0  0  0  0  0  0  0  0  0  0  0  0
    3.6820   58.9730   70.2560 C   0  0  0  0  0  0  0  0  0  0  0  0
    3.2170   60.2840   70.1260 C   0  0  0  0  0  0  0  0  0  0  0  0
    0.4820   66.3270   70.5750 C   0  0  0  0  0  0  0  0  0  0  0  0
    1.3310   67.5810   68.7580 O   0  0  0  0  0  1  0  0  0  0  0  0
    0.4210   66.7780   69.1160 C   0  0  0  0  0  0  0  0  0  0  0  0
   -0.5620   66.3350   68.4520 O   0  0  0  0  0  0  0  0  0  0  0  0
    2.8990   65.3207   69.7972 H   0  0  0  0  0  0  0  0  0  0  0  0
    3.7195   62.9861   70.0163 H   0  0  0  0  0  0  0  0  0  0  0  0
    0.0058   61.8604   71.9159 H   0  0  0  0  0  0  0  0  0  0  0  0
   -0.8137   64.1970   71.6971 H   0  0  0  0  0  0  0  0  0  0  0  0
    1.4527   60.5286   73.0314 H   0  0  0  0  0  0  0  0  0  0  0  0
    2.2801   58.1928   73.2621 H   0  0  0  0  0  0  0  0  0  0  0  0
    3.7127   57.1897   71.4833 H   0  0  0  0  0  0  0  0  0  0  0  0
    4.3134   58.5335   69.4698 H   0  0  0  0  0  0  0  0  0  0  0  0
    3.4882   60.8683   69.2344 H   0  0  0  0  0  0  0  0  0  0  0  0
   -0.5268   66.3927   71.0087 H   0  0  0  0  0  0  0  0  0  0  0  0
    1.1880   66.9850   71.1029 H   0  0  0  0  0  0  0  0  0  0  0  0
  2  1  2  0
  3  2  1  0
  4  3  2  0
  5  4  1  0
  6  1  1  0
  6  5  2  0
  7  4  1  0
  8  7  2  0
  9  8  1  0
 10  9  2  0
 11 10  1  0
 12  7  1  0
 12 11  2  0
 13  1  1  0
 15 14  1  0
 15 13  1  0
 16 15  2  0
  2 17  1  0
  3 18  1  0
  5 19  1  0
  6 20  1  0
  8 21  1  0
  9 22  1  0
 10 23  1  0
 11 24  1  0
 12 25  1  0
 13 26  1  0
 13 27  1  0
M  CHG  1  14  -1
M  END
>  <score>  (8) 
-7.491

$$$$
=
     RDKit          3D

 27 28  0  0  0  0  0  0  0  0999 V2000
    1.1750   65.0320   70.4700 C   0  0  0  0  0  0  0  0  0  0  0  0
    0.2760   64.0400   70.8790 C   0  0  0  0  0  0  0  0  0  0  0  0
    0.7050   62.7220   71.0580 C   0  0  0  0  0  0  0  0  0  0  0  0
    2.0420   62.3570   70.8260 C   0  0  0  0  0  0  0  0  0  0  0  0
    2.9310   63.3560   70.4010 C   0  0  0  0  0  0  0  0  0  0  0  0
    2.5030   64.6750   70.2200 C   0  0  0  0  0  0  0  0  0  0  0  0
    2.4920   60.9660   71.0090 C   0  0  0  0  0  0  0  0  0  0  0  0
    3.2610   60.3190   70.0280 C   0  0  0  0  0  0  0  0  0  0  0  0
    3.6890   59.0000   70.2020 C   0  0  0  0  0  0  0  0  0  0  0  0
    3.3540   58.3050   71.3610 C   0  0  0  0  0  0  0  0  0  0  0  0
    2.5920   58.9280   72.3460 C   0  0  0  0  0  0  0  0  0  0  0  0
    2.1650   60.2470   72.1700 C   0  0  0  0  0  0  0  0  0  0  0  0
    0.7100   66.4520   70.2770 C   0  0  0  0  0  0  0  0  0  0  0  0
   -0.8880   66.4350   68.5330 O   0  0  0  0  0  1  0  0  0  0  0  0
    0.3050   66.7350   68.8300 C   0  0  0  0  0  0  0  0  0  0  0  0
    1.2260   67.1870   68.0880 O   0  0  0  0  0  0  0  0  0  0  0  0
   -0.7772   64.3001   71.0611 H   0  0  0  0  0  0  0  0  0  0  0  0
   -0.0155   61.9581   71.3857 H   0  0  0  0  0  0  0  0  0  0  0  0
    3.9824   63.0973   70.2069 H   0  0  0  0  0  0  0  0  0  0  0  0
    3.2176   65.4381   69.8779 H   0  0  0  0  0  0  0  0  0  0  0  0
    3.5307   60.8588   69.1083 H   0  0  0  0  0  0  0  0  0  0  0  0
    4.2912   58.5104   69.4225 H   0  0  0  0  0  0  0  0  0  0  0  0
    3.6903   57.2667   71.4982 H   0  0  0  0  0  0  0  0  0  0  0  0
    2.3260   58.3817   73.2630 H   0  0  0  0  0  0  0  0  0  0  0  0
    1.5629   60.7299   72.9538 H   0  0  0  0  0  0  0  0  0  0  0  0
   -0.1570   66.6327   70.9294 H   0  0  0  0  0  0  0  0  0  0  0  0
    1.5472   67.1191   70.5302 H   0  0  0  0  0  0  0  0  0  0  0  0
  2  1  2  0
  3  2  1  0
  4  3  2  0
  5  4  1  0
  6  1  1  0
  6  5  2  0
  7  4  1  0
  8  7  2  0
  9  8  1  0
 10  9  2  0
 11 10  1  0
 12  7  1  0
 12 11  2  0
 13  1  1  0
 15 14  1  0
 15 13  1  0
 16 15  2  0
  2 17  1  0
  3 18  1  0
  5 19  1  0
  6 20  1  0
  8 21  1  0
  9 22  1  0
 10 23  1  0
 11 24  1  0
 12 25  1  0
 13 26  1  0
 13 27  1  0
M  CHG  1  14  -1
M  END
>  <score>  (9) 
-7.434

$$$$
