=
     RDKit          3D

 52 54  0  0  0  0  0  0  0  0999 V2000
    0.6890   68.6530   65.4830 C   0  0  0  0  0  0  0  0  0  0  0  0
   -0.3750   68.0960   66.1960 C   0  0  0  0  0  0  0  0  0  0  0  0
   -0.1030   67.5680   67.4460 C   0  0  0  0  0  0  0  0  0  0  0  0
    1.1610   67.5750   68.0140 C   0  0  0  0  0  0  0  0  0  0  0  0
    2.2260   68.1310   67.3220 C   0  0  0  0  0  0  0  0  0  0  0  0
    1.9970   68.6690   66.0460 C   0  0  0  0  0  0  0  0  0  0  0  0
    1.1690   66.9980   69.3970 C   0  0  0  0  0  0  0  0  0  0  0  0
   -0.2350   66.3580   69.5580 C   0  0  1  0  0  0  0  0  0  0  0  0
   -1.0230   66.9340   68.3780 C   0  0  0  0  0  0  0  0  0  0  0  0
   -2.2330   66.8860   68.2110 O   0  0  0  0  0  0  0  0  0  0  0  0
    0.4450   68.3310   63.1240 C   0  0  0  0  0  0  0  0  0  0  0  0
    0.5720   69.2100   64.2330 O   0  0  0  0  0  0  0  0  0  0  0  0
    2.9700   69.2440   65.2670 O   0  0  0  0  0  0  0  0  0  0  0  0
    4.2470   69.4620   65.8490 C   0  0  0  0  0  0  0  0  0  0  0  0
   -0.0660   64.9460   69.5220 O   0  0  0  0  0  0  0  0  0  0  0  0
    0.6230   64.3150   70.5170 C   0  0  0  0  0  0  0  0  0  0  0  0
    0.0330   64.4120   71.7760 C   0  0  0  0  0  0  0  0  0  0  0  0
    0.6420   63.8470   72.8930 C   0  0  0  0  0  0  0  0  0  0  0  0
    1.8600   63.1850   72.7590 C   0  0  0  0  0  0  0  0  0  0  0  0
    2.4790   63.0730   71.5010 C   0  0  0  0  0  0  0  0  0  0  0  0
    1.8270   63.6230   70.3810 C   0  0  0  0  0  0  0  0  0  0  0  0
    3.8170   62.3580   71.3990 C   0  0  2  0  0  0  0  0  0  0  0  0
    4.9000   63.0900   70.5980 C   0  0  0  0  0  0  0  0  0  0  0  0
    3.6390   60.9190   70.9150 N   0  0  0  0  0  4  0  0  0  0  0  0
    4.1110   60.6480   69.5150 C   0  0  0  0  0  0  0  0  0  0  0  0
    4.1560   59.8960   71.8850 C   0  0  0  0  0  0  0  0  0  0  0  0
   -1.3927   68.0776   65.7789 H   0  0  0  0  0  0  0  0  0  0  0  0
    3.2326   68.1502   67.7651 H   0  0  0  0  0  0  0  0  0  0  0  0
    1.9571   66.2370   69.4964 H   0  0  0  0  0  0  0  0  0  0  0  0
    1.3737   67.7572   70.1662 H   0  0  0  0  0  0  0  0  0  0  0  0
   -0.7666   66.5709   70.4972 H   0  0  0  0  0  0  0  0  0  0  0  0
    0.2965   67.3030   63.4861 H   0  0  0  0  0  0  0  0  0  0  0  0
   -0.4188   68.6332   62.5137 H   0  0  0  0  0  0  0  0  0  0  0  0
    1.3590   68.3763   62.5137 H   0  0  0  0  0  0  0  0  0  0  0  0
    4.1578   69.4468   66.9453 H   0  0  0  0  0  0  0  0  0  0  0  0
    4.9373   68.6687   65.5263 H   0  0  0  0  0  0  0  0  0  0  0  0
    4.6350   70.4394   65.5263 H   0  0  0  0  0  0  0  0  0  0  0  0
   -0.9248   64.9411   71.8883 H   0  0  0  0  0  0  0  0  0  0  0  0
    0.1621   63.9233   73.8798 H   0  0  0  0  0  0  0  0  0  0  0  0
    2.3421   62.7459   73.6448 H   0  0  0  0  0  0  0  0  0  0  0  0
    2.2739   63.5053   69.3828 H   0  0  0  0  0  0  0  0  0  0  0  0
    4.2038   62.3495   72.4287 H   0  0  0  0  0  0  0  0  0  0  0  0
    5.6080   63.5685   71.2907 H   0  0  0  0  0  0  0  0  0  0  0  0
    5.4375   62.3692   69.9643 H   0  0  0  0  0  0  0  0  0  0  0  0
    4.4316   63.8575   69.9643 H   0  0  0  0  0  0  0  0  0  0  0  0
    2.6152   60.8137   70.8746 H   0  0  0  0  0  0  0  0  0  0  0  0
    5.0645   60.1006   69.5490 H   0  0  0  0  0  0  0  0  0  0  0  0
    3.3599   60.0436   68.9854 H   0  0  0  0  0  0  0  0  0  0  0  0
    4.2543   61.6014   68.9854 H   0  0  0  0  0  0  0  0  0  0  0  0
    3.9801   60.2441   72.9135 H   0  0  0  0  0  0  0  0  0  0  0  0
    3.6317   58.9421   71.7260 H   0  0  0  0  0  0  0  0  0  0  0  0
    5.2349   59.7523   71.7260 H   0  0  0  0  0  0  0  0  0  0  0  0
  2  1  2  0
  3  2  1  0
  4  3  2  0
  5  4  1  0
  6  5  2  0
  6  1  1  0
  7  4  1  0
  8  7  1  0
  9  8  1  0
  9  3  1  0
 10  9  2  0
 12 11  1  0
 12  1  1  0
 13  6  1  0
 14 13  1  0
 15  8  1  0
 16 15  1  0
 17 16  2  0
 18 17  1  0
 19 18  2  0
 20 19  1  0
 21 16  1  0
 21 20  2  0
 22 20  1  0
 23 22  1  0
 24 22  1  0
 25 24  1  0
 26 24  1  0
  2 27  1  0
  5 28  1  0
  7 29  1  0
  7 30  1  0
  8 31  1  1
 11 32  1  0
 11 33  1  0
 11 34  1  0
 14 35  1  0
 14 36  1  0
 14 37  1  0
 17 38  1  0
 18 39  1  0
 19 40  1  0
 21 41  1  0
 22 42  1  1
 23 43  1  0
 23 44  1  0
 23 45  1  0
 24 46  1  0
 25 47  1  0
 25 48  1  0
 25 49  1  0
 26 50  1  0
 26 51  1  0
 26 52  1  0
M  CHG  1  24   1
M  END
>  <score>  (1) 
-8.964

$$$$
=
     RDKit          3D

 52 54  0  0  0  0  0  0  0  0999 V2000
    1.4900   61.1870   72.1300 C   0  0  0  0  0  0  0  0  0  0  0  0
    1.9900   62.0620   71.1620 C   0  0  0  0  0  0  0  0  0  0  0  0
    1.4500   63.3360   71.1100 C   0  0  0  0  0  0  0  0  0  0  0  0
    0.4550   63.7750   71.9700 C   0  0  0  0  0  0  0  0  0  0  0  0
   -0.0450   62.9200   72.9400 C   0  0  0  0  0  0  0  0  0  0  0  0
    0.4670   61.6160   73.0220 C   0  0  0  0  0  0  0  0  0  0  0  0
    0.0950   65.2110   71.7400 C   0  0  0  0  0  0  0  0  0  0  0  0
    0.8120   65.5830   70.4150 C   0  0  1  0  0  0  0  0  0  0  0  0
    1.7880   64.4230   70.2030 C   0  0  0  0  0  0  0  0  0  0  0  0
    2.7150   64.3800   69.4080 O   0  0  0  0  0  0  0  0  0  0  0  0
    3.3250   59.6570   72.2700 C   0  0  0  0  0  0  0  0  0  0  0  0
    1.9250   59.8950   72.2980 O   0  0  0  0  0  0  0  0  0  0  0  0
    0.0510   60.6820   73.9380 O   0  0  0  0  0  0  0  0  0  0  0  0
   -1.2550   60.1430   73.7930 C   0  0  0  0  0  0  0  0  0  0  0  0
   -0.1870   65.7060   69.4100 O   0  0  0  0  0  0  0  0  0  0  0  0
   -0.1320   66.7320   68.5130 C   0  0  0  0  0  0  0  0  0  0  0  0
   -1.3630   67.0760   67.9560 C   0  0  0  0  0  0  0  0  0  0  0  0
   -1.4550   68.0820   66.9980 C   0  0  0  0  0  0  0  0  0  0  0  0
   -0.3050   68.7490   66.5800 C   0  0  0  0  0  0  0  0  0  0  0  0
    0.9500   68.4230   67.1240 C   0  0  0  0  0  0  0  0  0  0  0  0
    1.0120   67.4250   68.1160 C   0  0  0  0  0  0  0  0  0  0  0  0
    2.1830   69.1620   66.6290 C   0  0  2  0  0  0  0  0  0  0  0  0
    2.9790   68.4570   65.5250 C   0  0  0  0  0  0  0  0  0  0  0  0
    3.0840   69.5750   67.7920 N   0  0  0  0  0  4  0  0  0  0  0  0
    4.4880   69.9540   67.4160 C   0  0  0  0  0  0  0  0  0  0  0  0
    2.4560   70.5930   68.7000 C   0  0  0  0  0  0  0  0  0  0  0  0
    2.7834   61.7502   70.4668 H   0  0  0  0  0  0  0  0  0  0  0  0
   -0.8294   63.2578   73.6333 H   0  0  0  0  0  0  0  0  0  0  0  0
   -0.9941   65.3276   71.6389 H   0  0  0  0  0  0  0  0  0  0  0  0
    0.3988   65.8578   72.5763 H   0  0  0  0  0  0  0  0  0  0  0  0
    1.3626   66.5352   70.4058 H   0  0  0  0  0  0  0  0  0  0  0  0
    3.7066   59.5921   73.2997 H   0  0  0  0  0  0  0  0  0  0  0  0
    3.5258   58.7118   71.7443 H   0  0  0  0  0  0  0  0  0  0  0  0
    3.8269   60.4827   71.7443 H   0  0  0  0  0  0  0  0  0  0  0  0
   -1.6900   59.9635   74.7872 H   0  0  0  0  0  0  0  0  0  0  0  0
   -1.8859   60.8543   73.2397 H   0  0  0  0  0  0  0  0  0  0  0  0
   -1.2006   59.1938   73.2397 H   0  0  0  0  0  0  0  0  0  0  0  0
   -2.2720   66.5464   68.2772 H   0  0  0  0  0  0  0  0  0  0  0  0
   -2.4332   68.3498   66.5720 H   0  0  0  0  0  0  0  0  0  0  0  0
   -0.3798   69.5380   65.8172 H   0  0  0  0  0  0  0  0  0  0  0  0
    1.9782   67.1881   68.5854 H   0  0  0  0  0  0  0  0  0  0  0  0
    1.7855   70.0636   66.1401 H   0  0  0  0  0  0  0  0  0  0  0  0
    3.7286   67.7931   65.9804 H   0  0  0  0  0  0  0  0  0  0  0  0
    2.2943   67.8636   64.9012 H   0  0  0  0  0  0  0  0  0  0  0  0
    3.4853   69.2083   64.9012 H   0  0  0  0  0  0  0  0  0  0  0  0
    3.1807   68.7021   68.3301 H   0  0  0  0  0  0  0  0  0  0  0  0
    5.0814   70.1142   68.3283 H   0  0  0  0  0  0  0  0  0  0  0  0
    4.9395   69.1456   66.8222 H   0  0  0  0  0  0  0  0  0  0  0  0
    4.4713   70.8798   66.8222 H   0  0  0  0  0  0  0  0  0  0  0  0
    2.6319   70.3079   69.7477 H   0  0  0  0  0  0  0  0  0  0  0  0
    2.9024   71.5800   68.5087 H   0  0  0  0  0  0  0  0  0  0  0  0
    1.3737   70.6368   68.5087 H   0  0  0  0  0  0  0  0  0  0  0  0
  2  1  2  0
  3  2  1  0
  4  3  2  0
  5  4  1  0
  6  5  2  0
  6  1  1  0
  7  4  1  0
  8  7  1  0
  9  8  1  0
  9  3  1  0
 10  9  2  0
 12 11  1  0
 12  1  1  0
 13  6  1  0
 14 13  1  0
 15  8  1  0
 16 15  1  0
 17 16  2  0
 18 17  1  0
 19 18  2  0
 20 19  1  0
 21 16  1  0
 21 20  2  0
 22 20  1  0
 23 22  1  0
 24 22  1  0
 25 24  1  0
 26 24  1  0
  2 27  1  0
  5 28  1  0
  7 29  1  0
  7 30  1  0
  8 31  1  1
 11 32  1  0
 11 33  1  0
 11 34  1  0
 14 35  1  0
 14 36  1  0
 14 37  1  0
 17 38  1  0
 18 39  1  0
 19 40  1  0
 21 41  1  0
 22 42  1  6
 23 43  1  0
 23 44  1  0
 23 45  1  0
 24 46  1  0
 25 47  1  0
 25 48  1  0
 25 49  1  0
 26 50  1  0
 26 51  1  0
 26 52  1  0
M  CHG  1  24   1
M  END
>  <score>  (2) 
-8.339

$$$$
=
     RDKit          3D

 52 54  0  0  0  0  0  0  0  0999 V2000
    0.7610   68.5040   65.2580 C   0  0  0  0  0  0  0  0  0  0  0  0
   -0.3020   67.9470   65.9750 C   0  0  0  0  0  0  0  0  0  0  0  0
   -0.0450   67.5080   67.2620 C   0  0  0  0  0  0  0  0  0  0  0  0
    1.2010   67.6000   67.8620 C   0  0  0  0  0  0  0  0  0  0  0  0
    2.2630   68.1560   67.1660 C   0  0  0  0  0  0  0  0  0  0  0  0
    2.0500   68.6070   65.8540 C   0  0  0  0  0  0  0  0  0  0  0  0
    1.1900   67.1080   69.2780 C   0  0  0  0  0  0  0  0  0  0  0  0
   -0.1920   66.4230   69.4400 C   0  0  1  0  0  0  0  0  0  0  0  0
   -0.9670   66.8940   68.2070 C   0  0  0  0  0  0  0  0  0  0  0  0
   -2.1690   66.7870   68.0110 O   0  0  0  0  0  0  0  0  0  0  0  0
   -0.6290   68.9940   63.3720 C   0  0  0  0  0  0  0  0  0  0  0  0
    0.6580   68.9780   63.9730 O   0  0  0  0  0  0  0  0  0  0  0  0
    3.0220   69.1730   65.0670 O   0  0  0  0  0  0  0  0  0  0  0  0
    4.2490   69.5360   65.6830 C   0  0  0  0  0  0  0  0  0  0  0  0
    0.0330   65.0190   69.4960 O   0  0  0  0  0  0  0  0  0  0  0  0
    0.5990   64.4610   70.6050 C   0  0  0  0  0  0  0  0  0  0  0  0
    1.8390   63.8660   70.3790 C   0  0  0  0  0  0  0  0  0  0  0  0
    2.5200   63.2250   71.4120 C   0  0  0  0  0  0  0  0  0  0  0  0
    1.9540   63.1660   72.6830 C   0  0  0  0  0  0  0  0  0  0  0  0
    0.7040   63.7560   72.9390 C   0  0  0  0  0  0  0  0  0  0  0  0
    0.0510   64.4280   71.8880 C   0  0  0  0  0  0  0  0  0  0  0  0
    0.1130   63.6550   74.3360 C   0  0  2  0  0  0  0  0  0  0  0  0
    0.2490   64.9100   75.2060 C   0  0  0  0  0  0  0  0  0  0  0  0
    0.6230   62.4120   75.0640 N   0  0  0  0  0  4  0  0  0  0  0  0
    0.9630   62.6080   76.5140 C   0  0  0  0  0  0  0  0  0  0  0  0
   -0.2400   61.2010   74.8530 C   0  0  0  0  0  0  0  0  0  0  0  0
   -1.3054   67.8609   65.5326 H   0  0  0  0  0  0  0  0  0  0  0  0
    3.2550   68.2422   67.6335 H   0  0  0  0  0  0  0  0  0  0  0  0
    2.0035   66.3868   69.4454 H   0  0  0  0  0  0  0  0  0  0  0  0
    1.3422   67.9200   70.0043 H   0  0  0  0  0  0  0  0  0  0  0  0
   -0.7590   66.6708   70.3494 H   0  0  0  0  0  0  0  0  0  0  0  0
   -1.4000   69.0036   64.1566 H   0  0  0  0  0  0  0  0  0  0  0  0
   -0.7307   69.8935   62.7470 H   0  0  0  0  0  0  0  0  0  0  0  0
   -0.7530   68.0973   62.7470 H   0  0  0  0  0  0  0  0  0  0  0  0
    4.1344   69.5021   66.7765 H   0  0  0  0  0  0  0  0  0  0  0  0
    5.0363   68.8323   65.3748 H   0  0  0  0  0  0  0  0  0  0  0  0
    4.5267   70.5548   65.3748 H   0  0  0  0  0  0  0  0  0  0  0  0
    2.2849   63.9028   69.3741 H   0  0  0  0  0  0  0  0  0  0  0  0
    3.5022   62.7668   71.2240 H   0  0  0  0  0  0  0  0  0  0  0  0
    2.4903   62.6526   73.4947 H   0  0  0  0  0  0  0  0  0  0  0  0
   -0.9060   64.9348   72.0812 H   0  0  0  0  0  0  0  0  0  0  0  0
   -0.9701   63.5594   74.1692 H   0  0  0  0  0  0  0  0  0  0  0  0
    0.2181   64.6251   76.2680 H   0  0  0  0  0  0  0  0  0  0  0  0
    1.2061   65.4059   74.9871 H   0  0  0  0  0  0  0  0  0  0  0  0
   -0.5797   65.5995   74.9871 H   0  0  0  0  0  0  0  0  0  0  0  0
    1.5258   62.2298   74.6028 H   0  0  0  0  0  0  0  0  0  0  0  0
    0.1787   62.1559   77.1389 H   0  0  0  0  0  0  0  0  0  0  0  0
    1.9282   62.1277   76.7325 H   0  0  0  0  0  0  0  0  0  0  0  0
    1.0311   63.6839   76.7325 H   0  0  0  0  0  0  0  0  0  0  0  0
   -0.5352   60.7867   75.8283 H   0  0  0  0  0  0  0  0  0  0  0  0
   -1.1398   61.4859   74.2881 H   0  0  0  0  0  0  0  0  0  0  0  0
    0.3230   60.4434   74.2881 H   0  0  0  0  0  0  0  0  0  0  0  0
  2  1  2  0
  3  2  1  0
  4  3  2  0
  5  4  1  0
  6  5  2  0
  6  1  1  0
  7  4  1  0
  8  7  1  0
  9  8  1  0
  9  3  1  0
 10  9  2  0
 12 11  1  0
 12  1  1  0
 13  6  1  0
 14 13  1  0
 15  8  1  0
 16 15  1  0
 17 16  2  0
 18 17  1  0
 19 18  2  0
 20 19  1  0
 21 16  1  0
 21 20  2  0
 22 20  1  0
 23 22  1  0
 24 22  1  0
 25 24  1  0
 26 24  1  0
  2 27  1  0
  5 28  1  0
  7 29  1  0
  7 30  1  0
  8 31  1  1
 11 32  1  0
 11 33  1  0
 11 34  1  0
 14 35  1  0
 14 36  1  0
 14 37  1  0
 17 38  1  0
 18 39  1  0
 19 40  1  0
 21 41  1  0
 22 42  1  6
 23 43  1  0
 23 44  1  0
 23 45  1  0
 24 46  1  0
 25 47  1  0
 25 48  1  0
 25 49  1  0
 26 50  1  0
 26 51  1  0
 26 52  1  0
M  CHG  1  24   1
M  END
>  <score>  (3) 
-8.175

$$$$
=
     RDKit          3D

 52 54  0  0  0  0  0  0  0  0999 V2000
    3.5600   69.1910   64.9700 C   0  0  0  0  0  0  0  0  0  0  0  0
    2.4400   68.3710   65.1290 C   0  0  0  0  0  0  0  0  0  0  0  0
    2.0120   68.1150   66.4200 C   0  0  0  0  0  0  0  0  0  0  0  0
    2.6350   68.6340   67.5440 C   0  0  0  0  0  0  0  0  0  0  0  0
    3.7440   69.4540   67.4020 C   0  0  0  0  0  0  0  0  0  0  0  0
    4.2180   69.7330   66.1100 C   0  0  0  0  0  0  0  0  0  0  0  0
    1.9350   68.2510   68.8120 C   0  0  0  0  0  0  0  0  0  0  0  0
    0.9070   67.1740   68.3790 C   0  0  1  0  0  0  0  0  0  0  0  0
    0.8870   67.3000   66.8530 C   0  0  0  0  0  0  0  0  0  0  0  0
    0.0720   66.8060   66.0870 O   0  0  0  0  0  0  0  0  0  0  0  0
    5.2410   68.8080   63.3100 C   0  0  0  0  0  0  0  0  0  0  0  0
    4.1010   69.5290   63.7530 O   0  0  0  0  0  0  0  0  0  0  0  0
    5.3040   70.5290   65.8440 O   0  0  0  0  0  0  0  0  0  0  0  0
    6.3470   70.5760   66.8070 C   0  0  0  0  0  0  0  0  0  0  0  0
    1.3730   65.9210   68.8620 O   0  0  0  0  0  0  0  0  0  0  0  0
    0.9640   65.4630   70.0810 C   0  0  0  0  0  0  0  0  0  0  0  0
    0.0780   66.3100   70.7440 C   0  0  0  0  0  0  0  0  0  0  0  0
   -0.3970   65.9900   72.0140 C   0  0  0  0  0  0  0  0  0  0  0  0
    0.0230   64.8170   72.6370 C   0  0  0  0  0  0  0  0  0  0  0  0
    0.9180   63.9450   71.9920 C   0  0  0  0  0  0  0  0  0  0  0  0
    1.3570   64.2740   70.6950 C   0  0  0  0  0  0  0  0  0  0  0  0
    1.3660   62.6840   72.7120 C   0  0  2  0  0  0  0  0  0  0  0  0
    1.8390   62.8780   74.1570 C   0  0  0  0  0  0  0  0  0  0  0  0
    2.3940   61.9110   71.8860 N   0  0  0  0  0  4  0  0  0  0  0  0
    3.8290   62.1330   72.2720 C   0  0  0  0  0  0  0  0  0  0  0  0
    2.0740   60.4500   71.7510 C   0  0  0  0  0  0  0  0  0  0  0  0
    1.9176   67.9445   64.2600 H   0  0  0  0  0  0  0  0  0  0  0  0
    4.2435   69.8783   68.2855 H   0  0  0  0  0  0  0  0  0  0  0  0
    2.6483   67.8371   69.5399 H   0  0  0  0  0  0  0  0  0  0  0  0
    1.4569   69.1120   69.3019 H   0  0  0  0  0  0  0  0  0  0  0  0
   -0.1141   67.2833   68.7732 H   0  0  0  0  0  0  0  0  0  0  0  0
    5.8089   68.4488   64.1809 H   0  0  0  0  0  0  0  0  0  0  0  0
    4.9186   67.9492   62.7029 H   0  0  0  0  0  0  0  0  0  0  0  0
    5.8788   69.4673   62.7029 H   0  0  0  0  0  0  0  0  0  0  0  0
    5.9138   70.5565   67.8179 H   0  0  0  0  0  0  0  0  0  0  0  0
    7.0079   69.7067   66.6744 H   0  0  0  0  0  0  0  0  0  0  0  0
    6.9270   71.5012   66.6744 H   0  0  0  0  0  0  0  0  0  0  0  0
   -0.2499   67.2414   70.2593 H   0  0  0  0  0  0  0  0  0  0  0  0
   -1.1025   66.6625   72.5239 H   0  0  0  0  0  0  0  0  0  0  0  0
   -0.3488   64.5706   73.6425 H   0  0  0  0  0  0  0  0  0  0  0  0
    2.0211   63.5815   70.1571 H   0  0  0  0  0  0  0  0  0  0  0  0
    0.4500   62.0825   72.8073 H   0  0  0  0  0  0  0  0  0  0  0  0
    1.0476   62.5534   74.8486 H   0  0  0  0  0  0  0  0  0  0  0  0
    2.7453   62.2789   74.3297 H   0  0  0  0  0  0  0  0  0  0  0  0
    2.0636   63.9409   74.3297 H   0  0  0  0  0  0  0  0  0  0  0  0
    2.3022   62.3332   70.9510 H   0  0  0  0  0  0  0  0  0  0  0  0
    3.9159   62.1464   73.3685 H   0  0  0  0  0  0  0  0  0  0  0  0
    4.4482   61.3200   71.8651 H   0  0  0  0  0  0  0  0  0  0  0  0
    4.1735   63.0951   71.8651 H   0  0  0  0  0  0  0  0  0  0  0  0
    1.9759   60.0022   72.7509 H   0  0  0  0  0  0  0  0  0  0  0  0
    1.1285   60.3310   71.2016 H   0  0  0  0  0  0  0  0  0  0  0  0
    2.8832   59.9466   71.2016 H   0  0  0  0  0  0  0  0  0  0  0  0
  2  1  2  0
  3  2  1  0
  4  3  2  0
  5  4  1  0
  6  5  2  0
  6  1  1  0
  7  4  1  0
  8  7  1  0
  9  8  1  0
  9  3  1  0
 10  9  2  0
 12 11  1  0
 12  1  1  0
 13  6  1  0
 14 13  1  0
 15  8  1  0
 16 15  1  0
 17 16  2  0
 18 17  1  0
 19 18  2  0
 20 19  1  0
 21 16  1  0
 21 20  2  0
 22 20  1  0
 23 22  1  0
 24 22  1  0
 25 24  1  0
 26 24  1  0
  2 27  1  0
  5 28  1  0
  7 29  1  0
  7 30  1  0
  8 31  1  1
 11 32  1  0
 11 33  1  0
 11 34  1  0
 14 35  1  0
 14 36  1  0
 14 37  1  0
 17 38  1  0
 18 39  1  0
 19 40  1  0
 21 41  1  0
 22 42  1  1
 23 43  1  0
 23 44  1  0
 23 45  1  0
 24 46  1  0
 25 47  1  0
 25 48  1  0
 25 49  1  0
 26 50  1  0
 26 51  1  0
 26 52  1  0
M  CHG  1  24   1
M  END
>  <score>  (4) 
-7.576

$$$$
=
     RDKit          3D

 52 54  0  0  0  0  0  0  0  0999 V2000
    1.2500   68.6470   64.6580 C   0  0  0  0  0  0  0  0  0  0  0  0
    0.1740   68.1070   65.3670 C   0  0  0  0  0  0  0  0  0  0  0  0
    0.3740   67.8090   66.7040 C   0  0  0  0  0  0  0  0  0  0  0  0
    1.5750   68.0270   67.3600 C   0  0  0  0  0  0  0  0  0  0  0  0
    2.6500   68.5680   66.6710 C   0  0  0  0  0  0  0  0  0  0  0  0
    2.4950   68.8760   65.3100 C   0  0  0  0  0  0  0  0  0  0  0  0
    1.5030   67.6750   68.8140 C   0  0  0  0  0  0  0  0  0  0  0  0
    0.1490   66.9350   68.9680 C   0  0  1  0  0  0  0  0  0  0  0  0
   -0.5730   67.2420   67.6530 C   0  0  0  0  0  0  0  0  0  0  0  0
   -1.7540   67.0520   67.4030 O   0  0  0  0  0  0  0  0  0  0  0  0
   -0.0120   68.7600   62.6270 C   0  0  0  0  0  0  0  0  0  0  0  0
    1.2030   68.9880   63.3280 O   0  0  0  0  0  0  0  0  0  0  0  0
    3.4840   69.4140   64.5250 O   0  0  0  0  0  0  0  0  0  0  0  0
    4.7660   69.6050   65.1070 C   0  0  0  0  0  0  0  0  0  0  0  0
    0.4370   65.5580   69.1770 O   0  0  0  0  0  0  0  0  0  0  0  0
    0.2230   64.9930   70.4000 C   0  0  0  0  0  0  0  0  0  0  0  0
    0.0710   65.9100   71.4390 C   0  0  0  0  0  0  0  0  0  0  0  0
   -0.1180   65.4780   72.7490 C   0  0  0  0  0  0  0  0  0  0  0  0
   -0.1450   64.1150   73.0330 C   0  0  0  0  0  0  0  0  0  0  0  0
    0.0080   63.1660   72.0050 C   0  0  0  0  0  0  0  0  0  0  0  0
    0.1630   63.6280   70.6840 C   0  0  0  0  0  0  0  0  0  0  0  0
   -0.0110   61.6880   72.3580 C   0  0  2  0  0  0  0  0  0  0  0  0
   -0.9590   61.2890   73.4940 C   0  0  0  0  0  0  0  0  0  0  0  0
    1.4030   61.1590   72.5980 N   0  0  0  0  0  4  0  0  0  0  0  0
    2.3630   62.1400   73.2060 C   0  0  0  0  0  0  0  0  0  0  0  0
    1.4320   59.8370   73.3090 C   0  0  0  0  0  0  0  0  0  0  0  0
   -0.7959   67.9254   64.8809 H   0  0  0  0  0  0  0  0  0  0  0  0
    3.6068   68.7525   67.1815 H   0  0  0  0  0  0  0  0  0  0  0  0
    2.3391   67.0187   69.0970 H   0  0  0  0  0  0  0  0  0  0  0  0
    1.5716   68.5608   69.4626 H   0  0  0  0  0  0  0  0  0  0  0  0
   -0.4825   67.2387   69.8159 H   0  0  0  0  0  0  0  0  0  0  0  0
   -0.8283   68.6068   63.3483 H   0  0  0  0  0  0  0  0  0  0  0  0
   -0.2397   69.6311   61.9951 H   0  0  0  0  0  0  0  0  0  0  0  0
    0.0916   67.8656   61.9951 H   0  0  0  0  0  0  0  0  0  0  0  0
    4.6767   69.5917   66.2033 H   0  0  0  0  0  0  0  0  0  0  0  0
    5.4393   68.7973   64.7841 H   0  0  0  0  0  0  0  0  0  0  0  0
    5.1746   70.5739   64.7841 H   0  0  0  0  0  0  0  0  0  0  0  0
    0.1007   66.9878   71.2212 H   0  0  0  0  0  0  0  0  0  0  0  0
   -0.2458   66.2121   73.5582 H   0  0  0  0  0  0  0  0  0  0  0  0
   -0.2872   63.7770   74.0701 H   0  0  0  0  0  0  0  0  0  0  0  0
    0.2381   62.9008   69.8621 H   0  0  0  0  0  0  0  0  0  0  0  0
   -0.4366   61.1993   71.4691 H   0  0  0  0  0  0  0  0  0  0  0  0
   -0.4772   61.4918   74.4619 H   0  0  0  0  0  0  0  0  0  0  0  0
   -1.8885   61.8722   73.4178 H   0  0  0  0  0  0  0  0  0  0  0  0
   -1.1917   60.2166   73.4178 H   0  0  0  0  0  0  0  0  0  0  0  0
    1.7553   61.0015   71.6430 H   0  0  0  0  0  0  0  0  0  0  0  0
    2.3037   62.0794   74.3027 H   0  0  0  0  0  0  0  0  0  0  0  0
    3.3863   61.9015   72.8804 H   0  0  0  0  0  0  0  0  0  0  0  0
    2.1024   63.1579   72.8804 H   0  0  0  0  0  0  0  0  0  0  0  0
    1.4283   60.0052   74.3961 H   0  0  0  0  0  0  0  0  0  0  0  0
    0.5465   59.2489   73.0259 H   0  0  0  0  0  0  0  0  0  0  0  0
    2.3424   59.2883   73.0259 H   0  0  0  0  0  0  0  0  0  0  0  0
  2  1  2  0
  3  2  1  0
  4  3  2  0
  5  4  1  0
  6  5  2  0
  6  1  1  0
  7  4  1  0
  8  7  1  0
  9  8  1  0
  9  3  1  0
 10  9  2  0
 12 11  1  0
 12  1  1  0
 13  6  1  0
 14 13  1  0
 15  8  1  0
 16 15  1  0
 17 16  2  0
 18 17  1  0
 19 18  2  0
 20 19  1  0
 21 16  1  0
 21 20  2  0
 22 20  1  0
 23 22  1  0
 24 22  1  0
 25 24  1  0
 26 24  1  0
  2 27  1  0
  5 28  1  0
  7 29  1  0
  7 30  1  0
  8 31  1  1
 11 32  1  0
 11 33  1  0
 11 34  1  0
 14 35  1  0
 14 36  1  0
 14 37  1  0
 17 38  1  0
 18 39  1  0
 19 40  1  0
 21 41  1  0
 22 42  1  6
 23 43  1  0
 23 44  1  0
 23 45  1  0
 24 46  1  0
 25 47  1  0
 25 48  1  0
 25 49  1  0
 26 50  1  0
 26 51  1  0
 26 52  1  0
M  CHG  1  24   1
M  END
>  <score>  (5) 
-7.547

$$$$
=
     RDKit          3D

 52 54  0  0  0  0  0  0  0  0999 V2000
    1.2550   69.0160   61.7360 C   0  0  0  0  0  0  0  0  0  0  0  0
    2.6410   69.1880   61.7480 C   0  0  0  0  0  0  0  0  0  0  0  0
    3.3230   68.8130   62.8930 C   0  0  0  0  0  0  0  0  0  0  0  0
    2.6990   68.2760   64.0070 C   0  0  0  0  0  0  0  0  0  0  0  0
    1.3240   68.0920   64.0070 C   0  0  0  0  0  0  0  0  0  0  0  0
    0.5920   68.4680   62.8710 C   0  0  0  0  0  0  0  0  0  0  0  0
    3.6730   67.9000   65.0820 C   0  0  0  0  0  0  0  0  0  0  0  0
    5.0180   68.5200   64.6200 C   0  0  1  0  0  0  0  0  0  0  0  0
    4.7520   68.8930   63.1590 C   0  0  0  0  0  0  0  0  0  0  0  0
    5.5820   69.2140   62.3210 O   0  0  0  0  0  0  0  0  0  0  0  0
   -0.3450   70.5190   60.7830 C   0  0  0  0  0  0  0  0  0  0  0  0
    0.4470   69.3450   60.6750 O   0  0  0  0  0  0  0  0  0  0  0  0
   -0.7700   68.3350   62.7540 O   0  0  0  0  0  0  0  0  0  0  0  0
   -1.5840   68.9150   63.7620 C   0  0  0  0  0  0  0  0  0  0  0  0
    5.2920   69.6260   65.4720 O   0  0  0  0  0  0  0  0  0  0  0  0
    4.6070   69.7740   66.6420 C   0  0  0  0  0  0  0  0  0  0  0  0
    5.2780   70.5190   67.6110 C   0  0  0  0  0  0  0  0  0  0  0  0
    4.7160   70.7220   68.8690 C   0  0  0  0  0  0  0  0  0  0  0  0
    3.4740   70.1680   69.1710 C   0  0  0  0  0  0  0  0  0  0  0  0
    2.7750   69.4100   68.2140 C   0  0  0  0  0  0  0  0  0  0  0  0
    3.3490   69.2470   66.9390 C   0  0  0  0  0  0  0  0  0  0  0  0
    1.4310   68.8080   68.5890 C   0  0  2  0  0  0  0  0  0  0  0  0
    1.4850   67.4300   69.2580 C   0  0  0  0  0  0  0  0  0  0  0  0
    0.4710   68.8150   67.4000 N   0  0  0  0  0  4  0  0  0  0  0  0
   -0.2330   67.5150   67.1330 C   0  0  0  0  0  0  0  0  0  0  0  0
   -0.4840   69.9740   67.4110 C   0  0  0  0  0  0  0  0  0  0  0  0
    3.1712   69.6061   60.8796 H   0  0  0  0  0  0  0  0  0  0  0  0
    0.8169   67.6591   64.8819 H   0  0  0  0  0  0  0  0  0  0  0  0
    3.3639   68.3191   66.0509 H   0  0  0  0  0  0  0  0  0  0  0  0
    3.7405   66.8113   65.2238 H   0  0  0  0  0  0  0  0  0  0  0  0
    5.9040   67.8709   64.6801 H   0  0  0  0  0  0  0  0  0  0  0  0
   -0.5054   70.7567   61.8450 H   0  0  0  0  0  0  0  0  0  0  0  0
    0.1730   71.3571   60.2938 H   0  0  0  0  0  0  0  0  0  0  0  0
   -1.3161   70.3525   60.2938 H   0  0  0  0  0  0  0  0  0  0  0  0
   -1.1945   68.6375   64.7526 H   0  0  0  0  0  0  0  0  0  0  0  0
   -1.5730   70.0099   63.6573 H   0  0  0  0  0  0  0  0  0  0  0  0
   -2.6153   68.5470   63.6573 H   0  0  0  0  0  0  0  0  0  0  0  0
    6.2625   70.9514   67.3792 H   0  0  0  0  0  0  0  0  0  0  0  0
    5.2515   71.3184   69.6224 H   0  0  0  0  0  0  0  0  0  0  0  0
    3.0356   70.3248   70.1676 H   0  0  0  0  0  0  0  0  0  0  0  0
    2.7970   68.6952   66.1639 H   0  0  0  0  0  0  0  0  0  0  0  0
    1.0421   69.4730   69.3742 H   0  0  0  0  0  0  0  0  0  0  0  0
    1.4802   67.5527   70.3511 H   0  0  0  0  0  0  0  0  0  0  0  0
    0.6093   66.8390   68.9515 H   0  0  0  0  0  0  0  0  0  0  0  0
    2.4042   66.9094   68.9515 H   0  0  0  0  0  0  0  0  0  0  0  0
    1.1014   68.9449   66.5958 H   0  0  0  0  0  0  0  0  0  0  0  0
   -0.4926   67.0356   68.0884 H   0  0  0  0  0  0  0  0  0  0  0  0
   -1.1507   67.7064   66.5575 H   0  0  0  0  0  0  0  0  0  0  0  0
    0.4288   66.8511   66.5575 H   0  0  0  0  0  0  0  0  0  0  0  0
   -0.7123   70.2511   68.4507 H   0  0  0  0  0  0  0  0  0  0  0  0
   -0.0264   70.8310   66.8952 H   0  0  0  0  0  0  0  0  0  0  0  0
   -1.4127   69.6888   66.8952 H   0  0  0  0  0  0  0  0  0  0  0  0
  2  1  2  0
  3  2  1  0
  4  3  2  0
  5  4  1  0
  6  5  2  0
  6  1  1  0
  7  4  1  0
  8  7  1  0
  9  8  1  0
  9  3  1  0
 10  9  2  0
 12 11  1  0
 12  1  1  0
 13  6  1  0
 14 13  1  0
 15  8  1  0
 16 15  1  0
 17 16  2  0
 18 17  1  0
 19 18  2  0
 20 19  1  0
 21 16  1  0
 21 20  2  0
 22 20  1  0
 23 22  1  0
 24 22  1  0
 25 24  1  0
 26 24  1  0
  2 27  1  0
  5 28  1  0
  7 29  1  0
  7 30  1  0
  8 31  1  6
 11 32  1  0
 11 33  1  0
 11 34  1  0
 14 35  1  0
 14 36  1  0
 14 37  1  0
 17 38  1  0
 18 39  1  0
 19 40  1  0
 21 41  1  0
 22 42  1  1
 23 43  1  0
 23 44  1  0
 23 45  1  0
 24 46  1  0
 25 47  1  0
 25 48  1  0
 25 49  1  0
 26 50  1  0
 26 51  1  0
 26 52  1  0
M  CHG  1  24   1
M  END
>  <score>  (6) 
-7.349

$$$$
=
     RDKit          3D

 52 54  0  0  0  0  0  0  0  0999 V2000
    2.2600   57.9110   73.4310 C   0  0  0  0  0  0  0  0  0  0  0  0
    2.4070   58.3820   72.1240 C   0  0  0  0  0  0  0  0  0  0  0  0
    3.3730   59.3470   71.8970 C   0  0  0  0  0  0  0  0  0  0  0  0
    4.1930   59.8510   72.8940 C   0  0  0  0  0  0  0  0  0  0  0  0
    4.0640   59.3870   74.1940 C   0  0  0  0  0  0  0  0  0  0  0  0
    3.0890   58.4160   74.4720 C   0  0  0  0  0  0  0  0  0  0  0  0
    5.1920   60.8360   72.3680 C   0  0  0  0  0  0  0  0  0  0  0  0
    4.7340   61.1140   70.9130 C   0  0  1  0  0  0  0  0  0  0  0  0
    3.7200   59.9980   70.6420 C   0  0  0  0  0  0  0  0  0  0  0  0
    3.2530   59.6780   69.5590 O   0  0  0  0  0  0  0  0  0  0  0  0
    1.7060   55.5940   73.6660 C   0  0  0  0  0  0  0  0  0  0  0  0
    1.3430   56.9600   73.8080 O   0  0  0  0  0  0  0  0  0  0  0  0
    2.8670   57.8820   75.7170 O   0  0  0  0  0  0  0  0  0  0  0  0
    3.4610   58.5290   76.8340 C   0  0  0  0  0  0  0  0  0  0  0  0
    4.1890   62.4270   70.8800 O   0  0  0  0  0  0  0  0  0  0  0  0
    2.8990   62.6420   71.2700 C   0  0  0  0  0  0  0  0  0  0  0  0
    2.0250   62.9370   70.2250 C   0  0  0  0  0  0  0  0  0  0  0  0
    0.6830   63.2140   70.4760 C   0  0  0  0  0  0  0  0  0  0  0  0
    0.2070   63.2090   71.7850 C   0  0  0  0  0  0  0  0  0  0  0  0
    1.0670   62.9170   72.8590 C   0  0  0  0  0  0  0  0  0  0  0  0
    2.4110   62.6060   72.5770 C   0  0  0  0  0  0  0  0  0  0  0  0
    0.5120   62.9390   74.2740 C   0  0  2  0  0  0  0  0  0  0  0  0
    0.8040   64.2090   75.0810 C   0  0  0  0  0  0  0  0  0  0  0  0
    0.9150   61.6820   75.0450 N   0  0  0  0  0  4  0  0  0  0  0  0
    1.1790   61.8820   76.5100 C   0  0  0  0  0  0  0  0  0  0  0  0
    0.0050   60.5130   74.7980 C   0  0  0  0  0  0  0  0  0  0  0  0
    1.7786   58.0002   71.3059 H   0  0  0  0  0  0  0  0  0  0  0  0
    4.7139   59.7727   74.9933 H   0  0  0  0  0  0  0  0  0  0  0  0
    5.1771   61.7606   72.9637 H   0  0  0  0  0  0  0  0  0  0  0  0
    6.2221   60.4533   72.4164 H   0  0  0  0  0  0  0  0  0  0  0  0
    5.5177   61.0977   70.1413 H   0  0  0  0  0  0  0  0  0  0  0  0
    1.8263   55.1412   74.6612 H   0  0  0  0  0  0  0  0  0  0  0  0
    0.9184   55.0608   73.1134 H   0  0  0  0  0  0  0  0  0  0  0  0
    2.6544   55.5222   73.1134 H   0  0  0  0  0  0  0  0  0  0  0  0
    3.0629   58.0954   77.7633 H   0  0  0  0  0  0  0  0  0  0  0  0
    4.5516   58.3888   76.8017 H   0  0  0  0  0  0  0  0  0  0  0  0
    3.2283   59.6036   76.8017 H   0  0  0  0  0  0  0  0  0  0  0  0
    2.3991   62.9512   69.1907 H   0  0  0  0  0  0  0  0  0  0  0  0
    0.0007   63.4362   69.6422 H   0  0  0  0  0  0  0  0  0  0  0  0
   -0.8515   63.4356   71.9807 H   0  0  0  0  0  0  0  0  0  0  0  0
    3.0870   62.3303   73.3998 H   0  0  0  0  0  0  0  0  0  0  0  0
   -0.5798   62.9499   74.1407 H   0  0  0  0  0  0  0  0  0  0  0  0
    0.7515   63.9807   76.1558 H   0  0  0  0  0  0  0  0  0  0  0  0
    1.8103   64.5776   74.8332 H   0  0  0  0  0  0  0  0  0  0  0  0
    0.0597   64.9801   74.8332 H   0  0  0  0  0  0  0  0  0  0  0  0
    1.8324   61.4478   74.6396 H   0  0  0  0  0  0  0  0  0  0  0  0
    0.4371   61.3200   77.0963 H   0  0  0  0  0  0  0  0  0  0  0  0
    2.1890   61.5203   76.7533 H   0  0  0  0  0  0  0  0  0  0  0  0
    1.1043   62.9521   76.7533 H   0  0  0  0  0  0  0  0  0  0  0  0
   -0.3219   60.0930   75.7607 H   0  0  0  0  0  0  0  0  0  0  0  0
   -0.8735   60.8466   74.2262 H   0  0  0  0  0  0  0  0  0  0  0  0
    0.5439   59.7432   74.2262 H   0  0  0  0  0  0  0  0  0  0  0  0
  2  1  2  0
  3  2  1  0
  4  3  2  0
  5  4  1  0
  6  5  2  0
  6  1  1  0
  7  4  1  0
  8  7  1  0
  9  8  1  0
  9  3  1  0
 10  9  2  0
 12 11  1  0
 12  1  1  0
 13  6  1  0
 14 13  1  0
 15  8  1  0
 16 15  1  0
 17 16  2  0
 18 17  1  0
 19 18  2  0
 20 19  1  0
 21 16  1  0
 21 20  2  0
 22 20  1  0
 23 22  1  0
 24 22  1  0
 25 24  1  0
 26 24  1  0
  2 27  1  0
  5 28  1  0
  7 29  1  0
  7 30  1  0
  8 31  1  6
 11 32  1  0
 11 33  1  0
 11 34  1  0
 14 35  1  0
 14 36  1  0
 14 37  1  0
 17 38  1  0
 18 39  1  0
 19 40  1  0
 21 41  1  0
 22 42  1  6
 23 43  1  0
 23 44  1  0
 23 45  1  0
 24 46  1  0
 25 47  1  0
 25 48  1  0
 25 49  1  0
 26 50  1  0
 26 51  1  0
 26 52  1  0
M  CHG  1  24   1
M  END
>  <score>  (7) 
-7.313

$$$$
=
     RDKit          3D

 52 54  0  0  0  0  0  0  0  0999 V2000
   -0.7750   68.2000   66.4060 C   0  0  0  0  0  0  0  0  0  0  0  0
   -0.6650   68.7180   65.1130 C   0  0  0  0  0  0  0  0  0  0  0  0
    0.4290   68.3320   64.3600 C   0  0  0  0  0  0  0  0  0  0  0  0
    1.4030   67.4610   64.8250 C   0  0  0  0  0  0  0  0  0  0  0  0
    1.3030   66.9340   66.1030 C   0  0  0  0  0  0  0  0  0  0  0  0
    0.2140   67.3060   66.9050 C   0  0  0  0  0  0  0  0  0  0  0  0
    2.4430   67.1620   63.7890 C   0  0  0  0  0  0  0  0  0  0  0  0
    2.1620   68.1790   62.6510 C   0  0  1  0  0  0  0  0  0  0  0  0
    0.7760   68.7270   63.0020 C   0  0  0  0  0  0  0  0  0  0  0  0
    0.0470   69.3950   62.2830 O   0  0  0  0  0  0  0  0  0  0  0  0
   -3.0870   67.9640   66.9780 C   0  0  0  0  0  0  0  0  0  0  0  0
   -1.8020   68.4950   67.2700 O   0  0  0  0  0  0  0  0  0  0  0  0
    0.0090   66.8510   68.1850 O   0  0  0  0  0  0  0  0  0  0  0  0
    1.0900   66.9340   69.1020 C   0  0  0  0  0  0  0  0  0  0  0  0
    3.2040   69.1470   62.6780 O   0  0  0  0  0  0  0  0  0  0  0  0
    4.0590   69.2020   63.7390 C   0  0  0  0  0  0  0  0  0  0  0  0
    5.3840   68.9020   63.4250 C   0  0  0  0  0  0  0  0  0  0  0  0
    6.3630   68.8830   64.4150 C   0  0  0  0  0  0  0  0  0  0  0  0
    6.0190   69.1550   65.7380 C   0  0  0  0  0  0  0  0  0  0  0  0
    4.6900   69.4590   66.0830 C   0  0  0  0  0  0  0  0  0  0  0  0
    3.7240   69.5050   65.0590 C   0  0  0  0  0  0  0  0  0  0  0  0
    4.3510   69.7330   67.5390 C   0  0  2  0  0  0  0  0  0  0  0  0
    2.8560   69.8310   67.8650 C   0  0  0  0  0  0  0  0  0  0  0  0
    5.1190   70.9440   68.0670 N   0  0  0  0  0  4  0  0  0  0  0  0
    4.4380   71.7110   69.1650 C   0  0  0  0  0  0  0  0  0  0  0  0
    6.5510   70.6420   68.4050 C   0  0  0  0  0  0  0  0  0  0  0  0
   -1.4208   69.4075   64.7088 H   0  0  0  0  0  0  0  0  0  0  0  0
    2.0643   66.2362   66.4817 H   0  0  0  0  0  0  0  0  0  0  0  0
    3.4533   67.3070   64.1992 H   0  0  0  0  0  0  0  0  0  0  0  0
    2.3974   66.1201   63.4393 H   0  0  0  0  0  0  0  0  0  0  0  0
    2.1532   67.7791   61.6263 H   0  0  0  0  0  0  0  0  0  0  0  0
   -3.6156   67.7456   67.9176 H   0  0  0  0  0  0  0  0  0  0  0  0
   -3.6632   68.6977   66.3952 H   0  0  0  0  0  0  0  0  0  0  0  0
   -2.9771   67.0376   66.3952 H   0  0  0  0  0  0  0  0  0  0  0  0
    0.7014   66.9042   70.1306 H   0  0  0  0  0  0  0  0  0  0  0  0
    1.7718   66.0856   68.9429 H   0  0  0  0  0  0  0  0  0  0  0  0
    1.6343   67.8766   68.9429 H   0  0  0  0  0  0  0  0  0  0  0  0
    5.6589   68.6779   62.3838 H   0  0  0  0  0  0  0  0  0  0  0  0
    7.4065   68.6536   64.1533 H   0  0  0  0  0  0  0  0  0  0  0  0
    6.7935   69.1317   66.5188 H   0  0  0  0  0  0  0  0  0  0  0  0
    2.6887   69.7844   65.3040 H   0  0  0  0  0  0  0  0  0  0  0  0
    4.6839   68.8306   68.0727 H   0  0  0  0  0  0  0  0  0  0  0  0
    2.7185   69.8400   68.9563 H   0  0  0  0  0  0  0  0  0  0  0  0
    2.4472   70.7579   67.4363 H   0  0  0  0  0  0  0  0  0  0  0  0
    2.3297   68.9654   67.4363 H   0  0  0  0  0  0  0  0  0  0  0  0
    5.1222   71.5833   67.2594 H   0  0  0  0  0  0  0  0  0  0  0  0
    4.7750   71.3314   70.1409 H   0  0  0  0  0  0  0  0  0  0  0  0
    4.6918   72.7778   69.0790 H   0  0  0  0  0  0  0  0  0  0  0  0
    3.3486   71.5852   69.0790 H   0  0  0  0  0  0  0  0  0  0  0  0
    6.6722   70.6164   69.4980 H   0  0  0  0  0  0  0  0  0  0  0  0
    6.8294   69.6654   67.9823 H   0  0  0  0  0  0  0  0  0  0  0  0
    7.2001   71.4230   67.9823 H   0  0  0  0  0  0  0  0  0  0  0  0
  2  1  2  0
  3  2  1  0
  4  3  2  0
  5  4  1  0
  6  5  2  0
  6  1  1  0
  7  4  1  0
  8  7  1  0
  9  8  1  0
  9  3  1  0
 10  9  2  0
 12 11  1  0
 12  1  1  0
 13  6  1  0
 14 13  1  0
 15  8  1  0
 16 15  1  0
 17 16  2  0
 18 17  1  0
 19 18  2  0
 20 19  1  0
 21 16  1  0
 21 20  2  0
 22 20  1  0
 23 22  1  0
 24 22  1  0
 25 24  1  0
 26 24  1  0
  2 27  1  0
  5 28  1  0
  7 29  1  0
  7 30  1  0
  8 31  1  6
 11 32  1  0
 11 33  1  0
 11 34  1  0
 14 35  1  0
 14 36  1  0
 14 37  1  0
 17 38  1  0
 18 39  1  0
 19 40  1  0
 21 41  1  0
 22 42  1  1
 23 43  1  0
 23 44  1  0
 23 45  1  0
 24 46  1  0
 25 47  1  0
 25 48  1  0
 25 49  1  0
 26 50  1  0
 26 51  1  0
 26 52  1  0
M  CHG  1  24   1
M  END
>  <score>  (8) 
-7.279

$$$$
=
     RDKit          3D

 52 54  0  0  0  0  0  0  0  0999 V2000
    1.9460   58.5660   74.7760 C   0  0  0  0  0  0  0  0  0  0  0  0
    2.0560   59.9570   74.6970 C   0  0  0  0  0  0  0  0  0  0  0  0
    0.9850   60.6550   74.1680 C   0  0  0  0  0  0  0  0  0  0  0  0
   -0.1760   60.0430   73.7250 C   0  0  0  0  0  0  0  0  0  0  0  0
   -0.3030   58.6650   73.8030 C   0  0  0  0  0  0  0  0  0  0  0  0
    0.7630   57.9160   74.3250 C   0  0  0  0  0  0  0  0  0  0  0  0
   -1.1990   61.0320   73.2560 C   0  0  0  0  0  0  0  0  0  0  0  0
   -0.4380   62.3820   73.2020 C   0  0  1  0  0  0  0  0  0  0  0  0
    0.8520   62.0920   73.9740 C   0  0  0  0  0  0  0  0  0  0  0  0
    1.6640   62.9100   74.3790 O   0  0  0  0  0  0  0  0  0  0  0  0
    3.7420   58.2410   76.3240 C   0  0  0  0  0  0  0  0  0  0  0  0
    2.9260   57.7420   75.2740 O   0  0  0  0  0  0  0  0  0  0  0  0
    0.7540   56.5490   74.4510 O   0  0  0  0  0  0  0  0  0  0  0  0
   -0.3000   55.8290   73.8270 C   0  0  0  0  0  0  0  0  0  0  0  0
   -0.2450   62.7080   71.8310 O   0  0  0  0  0  0  0  0  0  0  0  0
    1.0170   62.8290   71.3280 C   0  0  0  0  0  0  0  0  0  0  0  0
    1.4060   64.1400   71.0570 C   0  0  0  0  0  0  0  0  0  0  0  0
    2.6560   64.4130   70.5070 C   0  0  0  0  0  0  0  0  0  0  0  0
    3.5270   63.3680   70.2120 C   0  0  0  0  0  0  0  0  0  0  0  0
    3.1620   62.0350   70.4730 C   0  0  0  0  0  0  0  0  0  0  0  0
    1.9060   61.7870   71.0610 C   0  0  0  0  0  0  0  0  0  0  0  0
    4.1340   60.9210   70.1210 C   0  0  2  0  0  0  0  0  0  0  0  0
    3.5920   59.8410   69.1790 C   0  0  0  0  0  0  0  0  0  0  0  0
    4.7520   60.3080   71.3780 N   0  0  0  0  0  4  0  0  0  0  0  0
    4.9330   61.2510   72.5320 C   0  0  0  0  0  0  0  0  0  0  0  0
    4.0910   59.0280   71.8030 C   0  0  0  0  0  0  0  0  0  0  0  0
    2.9611   60.4778   75.0428 H   0  0  0  0  0  0  0  0  0  0  0  0
   -1.2228   58.1673   73.4619 H   0  0  0  0  0  0  0  0  0  0  0  0
   -1.5762   60.7582   72.2596 H   0  0  0  0  0  0  0  0  0  0  0  0
   -2.0761   61.0725   73.9187 H   0  0  0  0  0  0  0  0  0  0  0  0
   -0.9473   63.2501   73.6459 H   0  0  0  0  0  0  0  0  0  0  0  0
    3.2986   57.9698   77.2935 H   0  0  0  0  0  0  0  0  0  0  0  0
    4.7483   57.8036   76.2459 H   0  0  0  0  0  0  0  0  0  0  0  0
    3.8111   59.3360   76.2459 H   0  0  0  0  0  0  0  0  0  0  0  0
   -0.9481   55.3863   74.5977 H   0  0  0  0  0  0  0  0  0  0  0  0
   -0.8906   56.5133   73.2001 H   0  0  0  0  0  0  0  0  0  0  0  0
    0.1227   55.0300   73.2001 H   0  0  0  0  0  0  0  0  0  0  0  0
    0.7176   64.9684   71.2802 H   0  0  0  0  0  0  0  0  0  0  0  0
    2.9545   65.4525   70.3061 H   0  0  0  0  0  0  0  0  0  0  0  0
    4.5104   63.5869   69.7704 H   0  0  0  0  0  0  0  0  0  0  0  0
    1.6214   60.7550   71.3138 H   0  0  0  0  0  0  0  0  0  0  0  0
    4.9206   61.4188   69.5349 H   0  0  0  0  0  0  0  0  0  0  0  0
    3.1763   59.0127   69.7715 H   0  0  0  0  0  0  0  0  0  0  0  0
    2.8026   60.2703   68.5446 H   0  0  0  0  0  0  0  0  0  0  0  0
    4.4080   59.4646   68.5446 H   0  0  0  0  0  0  0  0  0  0  0  0
    5.7082   60.0743   71.0747 H   0  0  0  0  0  0  0  0  0  0  0  0
    4.8269   60.6984   73.4772 H   0  0  0  0  0  0  0  0  0  0  0  0
    5.9344   61.7035   72.4822 H   0  0  0  0  0  0  0  0  0  0  0  0
    4.1703   62.0421   72.4822 H   0  0  0  0  0  0  0  0  0  0  0  0
    4.0643   58.9763   72.9015 H   0  0  0  0  0  0  0  0  0  0  0  0
    3.0643   58.9973   71.4094 H   0  0  0  0  0  0  0  0  0  0  0  0
    4.6603   58.1730   71.4094 H   0  0  0  0  0  0  0  0  0  0  0  0
  2  1  2  0
  3  2  1  0
  4  3  2  0
  5  4  1  0
  6  5  2  0
  6  1  1  0
  7  4  1  0
  8  7  1  0
  9  8  1  0
  9  3  1  0
 10  9  2  0
 12 11  1  0
 12  1  1  0
 13  6  1  0
 14 13  1  0
 15  8  1  0
 16 15  1  0
 17 16  2  0
 18 17  1  0
 19 18  2  0
 20 19  1  0
 21 16  1  0
 21 20  2  0
 22 20  1  0
 23 22  1  0
 24 22  1  0
 25 24  1  0
 26 24  1  0
  2 27  1  0
  5 28  1  0
  7 29  1  0
  7 30  1  0
  8 31  1  1
 11 32  1  0
 11 33  1  0
 11 34  1  0
 14 35  1  0
 14 36  1  0
 14 37  1  0
 17 38  1  0
 18 39  1  0
 19 40  1  0
 21 41  1  0
 22 42  1  6
 23 43  1  0
 23 44  1  0
 23 45  1  0
 24 46  1  0
 25 47  1  0
 25 48  1  0
 25 49  1  0
 26 50  1  0
 26 51  1  0
 26 52  1  0
M  CHG  1  24   1
M  END
>  <score>  (9) 
-7.206

$$$$
