=
     RDKit          3D

112120  0  0  0  0  0  0  0  0999 V2000
   -4.7290   60.2740   75.0000 C   0  0  0  0  0  0  0  0  0  0  0  0
   -6.0040   60.7310   74.6420 C   0  0  0  0  0  0  0  0  0  0  0  0
   -6.3440   62.0620   74.8230 C   0  0  0  0  0  0  0  0  0  0  0  0
   -7.5550   62.7010   74.4530 N   0  0  0  0  0  0  0  0  0  0  0  0
   -8.2160   62.1050   73.2830 C   0  0  0  0  0  0  0  0  0  0  0  0
   -7.1730   64.1520   74.4020 C   0  0  2  0  0  0  0  0  0  0  0  0
   -6.1130   64.3040   75.5440 C   0  0  1  0  0  0  0  0  0  0  0  0
   -5.4450   62.9350   75.4320 C   0  0  0  0  0  0  0  0  0  0  0  0
   -4.1740   62.4940   75.8140 C   0  0  0  0  0  0  0  0  0  0  0  0
   -3.7850   61.1450   75.6160 C   0  0  0  0  0  0  0  0  0  0  0  0
   -5.1560   65.4700   75.3510 C   0  0  0  0  0  0  0  0  0  0  0  0
   -4.5820   65.7730   76.7150 C   0  0  0  0  0  0  0  0  0  0  0  0
   -5.5540   65.2150   77.7330 N   0  0  2  0  0  4  0  0  0  0  0  0
   -6.7100   64.4720   76.9680 C   0  0  1  0  0  0  0  0  0  0  0  0
   -8.1320   65.1420   77.1420 C   0  0  2  0  0  0  0  0  0  0  0  0
   -9.0570   64.8820   75.8990 C   0  0  2  0  0  0  0  0  0  0  0  0
   -8.3590   65.1340   74.5540 C   0  0  2  0  0  0  0  0  0  0  0  0
   -8.0010   66.6450   77.4400 C   0  0  0  0  0  0  0  0  0  0  0  0
   -7.0130   67.1390   78.1970 C   0  0  0  0  0  0  0  0  0  0  0  0
   -5.9620   66.2510   78.7410 C   0  0  0  0  0  0  0  0  0  0  0  0
   -2.3060   60.6710   75.9260 C   0  0  1  0  0  0  0  0  0  0  0  0
   -2.1360   59.0920   75.6450 C   0  0  0  0  0  0  0  0  0  0  0  0
   -0.6830   58.5930   75.5060 C   0  0  1  0  0  0  0  0  0  0  0  0
    0.1530   58.7020   76.7720 C   0  0  0  0  0  0  0  0  0  0  0  0
    1.5850   58.8630   76.3410 N   0  0  2  0  0  4  0  0  0  0  0  0
    2.1150   60.2970   76.2760 C   0  0  0  0  0  0  0  0  0  0  0  0
    1.0840   61.4470   76.3910 C   0  0  0  0  0  0  0  0  0  0  0  0
    0.1640   61.6420   75.2100 C   0  0  0  0  0  0  0  0  0  0  0  0
   -1.2070   61.3620   75.0510 C   0  0  0  0  0  0  0  0  0  0  0  0
   -1.5280   61.7360   73.7560 N   0  0  0  0  0  0  0  0  0  0  0  0
   -0.4420   62.2250   73.0820 C   0  0  0  0  0  0  0  0  0  0  0  0
    0.6280   62.2050   73.9650 C   0  0  0  0  0  0  0  0  0  0  0  0
    1.8730   62.6960   73.5130 C   0  0  0  0  0  0  0  0  0  0  0  0
    1.9950   63.1730   72.2030 C   0  0  0  0  0  0  0  0  0  0  0  0
    0.9010   63.1720   71.3440 C   0  0  0  0  0  0  0  0  0  0  0  0
   -0.3430   62.7000   71.7690 C   0  0  0  0  0  0  0  0  0  0  0  0
    1.9380   58.0270   75.0890 C   0  0  0  0  0  0  0  0  0  0  0  0
    1.0190   56.7680   74.9930 C   0  0  2  0  0  0  0  0  0  0  0  0
   -0.4940   57.1680   74.9520 C   0  0  0  0  0  0  0  0  0  0  0  0
    1.2310   56.0180   76.2020 O   0  0  0  0  0  0  0  0  0  0  0  0
    1.3650   55.8850   73.7770 C   0  0  0  0  0  0  0  0  0  0  0  0
    1.9110   54.5050   74.1260 C   0  0  0  0  0  0  0  0  0  0  0  0
   -2.1250   60.9290   77.4470 C   0  0  0  0  0  0  0  0  0  0  0  0
   -1.6010   61.9510   77.8870 O   0  0  0  0  0  0  0  0  0  0  0  0
   -2.5740   59.9140   78.2290 O   0  0  0  0  0  0  0  0  0  0  0  0
   -3.5160   60.2910   79.2350 C   0  0  0  0  0  0  0  0  0  0  0  0
   -9.3490   65.0430   73.3780 C   0  0  0  0  0  0  0  0  0  0  0  0
  -10.4790   64.5760   73.4800 O   0  0  0  0  0  0  0  0  0  0  0  0
   -8.9060   65.5450   72.1840 N   0  0  0  0  0  0  0  0  0  0  0  0
   -5.2740   57.9370   74.7910 C   0  0  0  0  0  0  0  0  0  0  0  0
   -4.3160   58.9900   74.7730 O   0  0  0  0  0  0  0  0  0  0  0  0
   -7.8900   66.4970   74.5010 O   0  0  0  0  0  0  0  0  0  0  0  0
  -10.2220   65.7210   76.0190 O   0  0  0  0  0  0  0  0  0  0  0  0
   -8.8560   64.5640   78.4210 C   0  0  0  0  0  0  0  0  0  0  0  0
   -8.3630   63.2180   78.9500 C   0  0  0  0  0  0  0  0  0  0  0  0
   -6.7376   60.0309   74.2158 H   0  0  0  0  0  0  0  0  0  0  0  0
   -8.9939   61.4036   73.6191 H   0  0  0  0  0  0  0  0  0  0  0  0
   -8.6758   62.8997   72.6772 H   0  0  0  0  0  0  0  0  0  0  0  0
   -7.4729   61.5657   72.6772 H   0  0  0  0  0  0  0  0  0  0  0  0
   -6.7777   64.4218   73.4116 H   0  0  0  0  0  0  0  0  0  0  0  0
   -3.4681   63.2017   76.2733 H   0  0  0  0  0  0  0  0  0  0  0  0
   -4.3530   65.1928   74.6522 H   0  0  0  0  0  0  0  0  0  0  0  0
   -5.6705   66.3457   74.9286 H   0  0  0  0  0  0  0  0  0  0  0  0
   -3.5989   65.2926   76.8273 H   0  0  0  0  0  0  0  0  0  0  0  0
   -4.4440   66.8555   76.8534 H   0  0  0  0  0  0  0  0  0  0  0  0
   -5.1095   64.5008   78.3274 H   0  0  0  0  0  0  0  0  0  0  0  0
   -6.9858   63.4856   77.3691 H   0  0  0  0  0  0  0  0  0  0  0  0
   -9.3310   63.8167   75.9003 H   0  0  0  0  0  0  0  0  0  0  0  0
   -8.7438   67.3375   77.0172 H   0  0  0  0  0  0  0  0  0  0  0  0
   -6.9825   68.2164   78.4167 H   0  0  0  0  0  0  0  0  0  0  0  0
   -6.3477   65.7462   79.6390 H   0  0  0  0  0  0  0  0  0  0  0  0
   -5.0820   66.8626   78.9890 H   0  0  0  0  0  0  0  0  0  0  0  0
   -2.6026   58.5475   76.4792 H   0  0  0  0  0  0  0  0  0  0  0  0
   -2.6126   58.9064   74.6712 H   0  0  0  0  0  0  0  0  0  0  0  0
   -0.3207   59.3049   74.7498 H   0  0  0  0  0  0  0  0  0  0  0  0
   -0.1648   59.5753   77.3605 H   0  0  0  0  0  0  0  0  0  0  0  0
    0.0306   57.8081   77.4013 H   0  0  0  0  0  0  0  0  0  0  0  0
    2.1110   58.4596   77.1293 H   0  0  0  0  0  0  0  0  0  0  0  0
    2.8371   60.4188   77.0968 H   0  0  0  0  0  0  0  0  0  0  0  0
    2.5324   60.3955   75.2631 H   0  0  0  0  0  0  0  0  0  0  0  0
    0.4584   61.2490   77.2739 H   0  0  0  0  0  0  0  0  0  0  0  0
    1.6799   62.3695   76.4537 H   0  0  0  0  0  0  0  0  0  0  0  0
   -2.4709   61.6556   73.3494 H   0  0  0  0  0  0  0  0  0  0  0  0
    2.7421   62.7034   74.1872 H   0  0  0  0  0  0  0  0  0  0  0  0
    2.9651   63.5523   71.8494 H   0  0  0  0  0  0  0  0  0  0  0  0
    1.0170   63.5478   70.3167 H   0  0  0  0  0  0  0  0  0  0  0  0
   -1.2133   62.7015   71.0963 H   0  0  0  0  0  0  0  0  0  0  0  0
    1.7991   58.6456   74.1901 H   0  0  0  0  0  0  0  0  0  0  0  0
    2.9847   57.6975   75.1656 H   0  0  0  0  0  0  0  0  0  0  0  0
   -0.8512   57.1321   73.9122 H   0  0  0  0  0  0  0  0  0  0  0  0
   -1.0684   56.4632   75.5711 H   0  0  0  0  0  0  0  0  0  0  0  0
    1.0662   56.6009   76.9851 H   0  0  0  0  0  0  0  0  0  0  0  0
    0.4509   55.7508   73.1800 H   0  0  0  0  0  0  0  0  0  0  0  0
    2.1654   56.4069   73.2320 H   0  0  0  0  0  0  0  0  0  0  0  0
    1.9550   54.3939   75.2195 H   0  0  0  0  0  0  0  0  0  0  0  0
    1.2508   53.7323   73.7052 H   0  0  0  0  0  0  0  0  0  0  0  0
    2.9211   54.3932   73.7052 H   0  0  0  0  0  0  0  0  0  0  0  0
   -3.0798   60.1164   80.2296 H   0  0  0  0  0  0  0  0  0  0  0  0
   -3.7630   61.3572   79.1249 H   0  0  0  0  0  0  0  0  0  0  0  0
   -4.4304   59.6896   79.1249 H   0  0  0  0  0  0  0  0  0  0  0  0
   -9.5167   65.5166   71.3551 H   0  0  0  0  0  0  0  0  0  0  0  0
   -7.9620   65.9511   72.1145 H   0  0  0  0  0  0  0  0  0  0  0  0
   -5.5119   57.6755   75.8326 H   0  0  0  0  0  0  0  0  0  0  0  0
   -6.1895   58.2654   74.2771 H   0  0  0  0  0  0  0  0  0  0  0  0
   -4.8608   57.0565   74.2771 H   0  0  0  0  0  0  0  0  0  0  0  0
   -7.7715   66.8413   75.4216 H   0  0  0  0  0  0  0  0  0  0  0  0
  -10.4258   65.8677   76.9766 H   0  0  0  0  0  0  0  0  0  0  0  0
   -8.7394   65.3008   79.2294 H   0  0  0  0  0  0  0  0  0  0  0  0
   -9.8936   64.3828   78.1037 H   0  0  0  0  0  0  0  0  0  0  0  0
   -8.3682   63.2322   80.0499 H   0  0  0  0  0  0  0  0  0  0  0  0
   -9.0263   62.4175   78.5905 H   0  0  0  0  0  0  0  0  0  0  0  0
   -7.3396   63.0353   78.5905 H   0  0  0  0  0  0  0  0  0  0  0  0
  2  1  2  0
  3  2  1  0
  4  3  1  0
  5  4  1  0
  6  4  1  0
  7  6  1  0
  8  7  1  0
  8  3  2  0
  9  8  1  0
 10  9  2  0
 10  1  1  0
  7 11  1  6
 12 11  1  0
 13 12  1  0
 14  7  1  0
 14 13  1  0
 15 14  1  0
 16 15  1  0
 17 16  1  0
 17  6  1  0
 18 15  1  0
 19 18  2  0
 20 13  1  0
 20 19  1  0
 21 10  1  0
 22 21  1  0
 23 22  1  0
 24 23  1  0
 25 24  1  0
 26 25  1  0
 27 26  1  0
 28 27  1  0
 29 28  2  0
 29 21  1  0
 30 29  1  0
 31 30  1  0
 32 31  2  0
 32 28  1  0
 33 32  1  0
 34 33  2  0
 35 34  1  0
 36 35  2  0
 36 31  1  0
 37 25  1  0
 38 37  1  0
 39 38  1  0
 39 23  1  0
 38 40  1  1
 41 38  1  0
 42 41  1  0
 21 43  1  1
 44 43  2  0
 45 43  1  0
 46 45  1  0
 47 17  1  0
 48 47  2  0
 49 47  1  0
 51 50  1  0
 51  1  1  0
 17 52  1  1
 53 16  1  0
 15 54  1  1
 55 54  1  0
  2 56  1  0
  5 57  1  0
  5 58  1  0
  5 59  1  0
  6 60  1  6
  9 61  1  0
 11 62  1  0
 11 63  1  0
 12 64  1  0
 12 65  1  0
 13 66  1  1
 14 67  1  1
 16 68  1  6
 18 69  1  0
 19 70  1  0
 20 71  1  0
 20 72  1  0
 22 73  1  0
 22 74  1  0
 23 75  1  6
 24 76  1  0
 24 77  1  0
 25 78  1  1
 26 79  1  0
 26 80  1  0
 27 81  1  0
 27 82  1  0
 30 83  1  0
 33 84  1  0
 34 85  1  0
 35 86  1  0
 36 87  1  0
 37 88  1  0
 37 89  1  0
 39 90  1  0
 39 91  1  0
 40 92  1  0
 41 93  1  0
 41 94  1  0
 42 95  1  0
 42 96  1  0
 42 97  1  0
 46 98  1  0
 46 99  1  0
 46100  1  0
 49101  1  0
 49102  1  0
 50103  1  0
 50104  1  0
 50105  1  0
 52106  1  0
 53107  1  0
 54108  1  0
 54109  1  0
 55110  1  0
 55111  1  0
 55112  1  0
M  CHG  2  13   1  25   1
M  END
>  <score>  (1) 
-7.99

$$$$
=
     RDKit          3D

112120  0  0  0  0  0  0  0  0999 V2000
   -1.9420   64.3350   76.1260 C   0  0  0  0  0  0  0  0  0  0  0  0
   -3.0030   65.2280   76.3260 C   0  0  0  0  0  0  0  0  0  0  0  0
   -4.2850   64.7510   76.5460 C   0  0  0  0  0  0  0  0  0  0  0  0
   -5.4500   65.5070   76.8340 N   0  0  0  0  0  0  0  0  0  0  0  0
   -5.1880   66.7670   77.5460 C   0  0  0  0  0  0  0  0  0  0  0  0
   -6.3630   64.4990   77.4690 C   0  0  2  0  0  0  0  0  0  0  0  0
   -6.0330   63.1660   76.7180 C   0  0  1  0  0  0  0  0  0  0  0  0
   -4.5370   63.3820   76.4940 C   0  0  0  0  0  0  0  0  0  0  0  0
   -3.4960   62.4750   76.2770 C   0  0  0  0  0  0  0  0  0  0  0  0
   -2.1680   62.9300   76.0770 C   0  0  0  0  0  0  0  0  0  0  0  0
   -6.3570   61.9090   77.5110 C   0  0  0  0  0  0  0  0  0  0  0  0
   -6.4700   60.7910   76.5010 C   0  0  0  0  0  0  0  0  0  0  0  0
   -6.7630   61.4370   75.1640 N   0  0  2  0  0  4  0  0  0  0  0  0
   -6.7410   63.0000   75.3460 C   0  0  1  0  0  0  0  0  0  0  0  0
   -8.1400   63.6960   75.1010 C   0  0  2  0  0  0  0  0  0  0  0  0
   -8.2890   65.0170   75.9380 C   0  0  2  0  0  0  0  0  0  0  0  0
   -7.8650   64.8630   77.4060 C   0  0  2  0  0  0  0  0  0  0  0  0
   -9.2970   62.7220   75.3800 C   0  0  0  0  0  0  0  0  0  0  0  0
   -9.2200   61.4180   75.0820 C   0  0  0  0  0  0  0  0  0  0  0  0
   -7.9800   60.8450   74.5130 C   0  0  0  0  0  0  0  0  0  0  0  0
   -0.9650   61.9060   75.9600 C   0  0  1  0  0  0  0  0  0  0  0  0
   -1.5070   60.3910   75.8500 C   0  0  0  0  0  0  0  0  0  0  0  0
   -0.4900   59.3570   75.3230 C   0  0  1  0  0  0  0  0  0  0  0  0
    0.7060   59.1180   76.2330 C   0  0  0  0  0  0  0  0  0  0  0  0
    1.8510   58.7000   75.3520 N   0  0  2  0  0  4  0  0  0  0  0  0
    2.8230   59.8060   74.9340 C   0  0  0  0  0  0  0  0  0  0  0  0
    2.4050   61.2710   75.2180 C   0  0  0  0  0  0  0  0  0  0  0  0
    1.2800   61.8220   74.3760 C   0  0  0  0  0  0  0  0  0  0  0  0
   -0.0600   62.1100   74.6990 C   0  0  0  0  0  0  0  0  0  0  0  0
   -0.6410   62.5870   73.5360 N   0  0  0  0  0  0  0  0  0  0  0  0
    0.2450   62.6090   72.4930 C   0  0  0  0  0  0  0  0  0  0  0  0
    1.4630   62.1610   72.9860 C   0  0  0  0  0  0  0  0  0  0  0  0
    2.5630   62.1200   72.1010 C   0  0  0  0  0  0  0  0  0  0  0  0
    2.3970   62.5180   70.7690 C   0  0  0  0  0  0  0  0  0  0  0  0
    1.1590   62.9560   70.3100 C   0  0  0  0  0  0  0  0  0  0  0  0
    0.0580   63.0140   71.1670 C   0  0  0  0  0  0  0  0  0  0  0  0
    1.4120   57.8000   74.1740 C   0  0  0  0  0  0  0  0  0  0  0  0
    0.1160   57.0100   74.5410 C   0  0  2  0  0  0  0  0  0  0  0  0
   -1.0510   57.9780   74.9310 C   0  0  0  0  0  0  0  0  0  0  0  0
    0.4330   56.2300   75.7080 O   0  0  0  0  0  0  0  0  0  0  0  0
   -0.3350   56.0690   73.4050 C   0  0  0  0  0  0  0  0  0  0  0  0
   -0.3560   54.5900   73.7740 C   0  0  0  0  0  0  0  0  0  0  0  0
   -0.1890   62.0620   77.2970 C   0  0  0  0  0  0  0  0  0  0  0  0
    0.8580   62.7020   77.3840 O   0  0  0  0  0  0  0  0  0  0  0  0
   -0.7640   61.4090   78.3400 O   0  0  0  0  0  0  0  0  0  0  0  0
   -0.9770   62.2000   79.5110 C   0  0  0  0  0  0  0  0  0  0  0  0
   -8.1960   66.1240   78.2260 C   0  0  0  0  0  0  0  0  0  0  0  0
   -8.1750   66.1580   79.4520 O   0  0  0  0  0  0  0  0  0  0  0  0
   -8.5010   67.2450   77.5020 N   0  0  0  0  0  0  0  0  0  0  0  0
   -0.3170   65.6420   74.9200 C   0  0  0  0  0  0  0  0  0  0  0  0
   -0.6470   64.7510   75.9800 O   0  0  0  0  0  0  0  0  0  0  0  0
   -8.6570   63.8320   78.0310 O   0  0  0  0  0  0  0  0  0  0  0  0
   -9.6600   65.4500   75.8590 O   0  0  0  0  0  0  0  0  0  0  0  0
   -8.3100   64.0600   73.5740 C   0  0  0  0  0  0  0  0  0  0  0  0
   -7.6510   65.3500   73.0890 C   0  0  0  0  0  0  0  0  0  0  0  0
   -2.8174   66.3121   76.3083 H   0  0  0  0  0  0  0  0  0  0  0  0
   -5.2249   66.5896   78.6310 H   0  0  0  0  0  0  0  0  0  0  0  0
   -4.1922   67.1440   77.2698 H   0  0  0  0  0  0  0  0  0  0  0  0
   -5.9509   67.5097   77.2698 H   0  0  0  0  0  0  0  0  0  0  0  0
   -6.1884   64.4355   78.5532 H   0  0  0  0  0  0  0  0  0  0  0  0
   -3.7093   61.3960   76.2612 H   0  0  0  0  0  0  0  0  0  0  0  0
   -5.5527   61.6937   78.2298 H   0  0  0  0  0  0  0  0  0  0  0  0
   -7.2879   62.0261   78.0852 H   0  0  0  0  0  0  0  0  0  0  0  0
   -5.5257   60.2290   76.4511 H   0  0  0  0  0  0  0  0  0  0  0  0
   -7.2659   60.0852   76.7811 H   0  0  0  0  0  0  0  0  0  0  0  0
   -6.0276   61.2270   74.4741 H   0  0  0  0  0  0  0  0  0  0  0  0
   -6.1865   63.5591   74.5779 H   0  0  0  0  0  0  0  0  0  0  0  0
   -7.6089   65.7665   75.5071 H   0  0  0  0  0  0  0  0  0  0  0  0
  -10.2185   63.1088   75.8395 H   0  0  0  0  0  0  0  0  0  0  0  0
  -10.0878   60.7665   75.2622 H   0  0  0  0  0  0  0  0  0  0  0  0
   -7.9488   61.0560   73.4339 H   0  0  0  0  0  0  0  0  0  0  0  0
   -7.9808   59.7601   74.6947 H   0  0  0  0  0  0  0  0  0  0  0  0
   -1.8257   60.0716   76.8532 H   0  0  0  0  0  0  0  0  0  0  0  0
   -2.3222   60.4153   75.1119 H   0  0  0  0  0  0  0  0  0  0  0  0
   -0.1713   59.8706   74.4040 H   0  0  0  0  0  0  0  0  0  0  0  0
    0.9616   60.0423   76.7718 H   0  0  0  0  0  0  0  0  0  0  0  0
    0.4822   58.3429   76.9807 H   0  0  0  0  0  0  0  0  0  0  0  0
    2.4233   58.1163   75.9787 H   0  0  0  0  0  0  0  0  0  0  0  0
    3.7723   59.6264   75.4599 H   0  0  0  0  0  0  0  0  0  0  0  0
    2.8720   59.7362   73.8373 H   0  0  0  0  0  0  0  0  0  0  0  0
    2.0958   61.3327   76.2718 H   0  0  0  0  0  0  0  0  0  0  0  0
    3.2851   61.8807   74.9657 H   0  0  0  0  0  0  0  0  0  0  0  0
   -1.6230   62.8893   73.4644 H   0  0  0  0  0  0  0  0  0  0  0  0
    3.5457   61.7769   72.4567 H   0  0  0  0  0  0  0  0  0  0  0  0
    3.2532   62.4841   70.0792 H   0  0  0  0  0  0  0  0  0  0  0  0
    1.0460   63.2604   69.2590 H   0  0  0  0  0  0  0  0  0  0  0  0
   -0.9219   63.3658   70.8120 H   0  0  0  0  0  0  0  0  0  0  0  0
    1.2154   58.4281   73.2926 H   0  0  0  0  0  0  0  0  0  0  0  0
    2.2163   57.0817   73.9568 H   0  0  0  0  0  0  0  0  0  0  0  0
   -1.7300   58.0925   74.0732 H   0  0  0  0  0  0  0  0  0  0  0  0
   -1.5962   57.5557   75.7880 H   0  0  0  0  0  0  0  0  0  0  0  0
    0.2207   56.7524   76.5217 H   0  0  0  0  0  0  0  0  0  0  0  0
   -1.3511   56.3609   73.1013 H   0  0  0  0  0  0  0  0  0  0  0  0
    0.4055   56.1778   72.5989 H   0  0  0  0  0  0  0  0  0  0  0  0
   -0.3575   54.4853   74.8690 H   0  0  0  0  0  0  0  0  0  0  0  0
   -1.2609   54.1215   73.3596 H   0  0  0  0  0  0  0  0  0  0  0  0
    0.5352   54.0960   73.3596 H   0  0  0  0  0  0  0  0  0  0  0  0
   -0.8107   61.5824   80.4059 H   0  0  0  0  0  0  0  0  0  0  0  0
   -0.2749   63.0468   79.5142 H   0  0  0  0  0  0  0  0  0  0  0  0
   -2.0094   62.5797   79.5142 H   0  0  0  0  0  0  0  0  0  0  0  0
   -8.7324   68.1239   77.9866 H   0  0  0  0  0  0  0  0  0  0  0  0
   -8.4991   67.2096   76.4726 H   0  0  0  0  0  0  0  0  0  0  0  0
    0.0362   66.5957   75.3392 H   0  0  0  0  0  0  0  0  0  0  0  0
    0.4761   65.1975   74.3009 H   0  0  0  0  0  0  0  0  0  0  0  0
   -1.2083   65.8214   74.3009 H   0  0  0  0  0  0  0  0  0  0  0  0
   -8.5918   63.9168   79.0152 H   0  0  0  0  0  0  0  0  0  0  0  0
  -10.0230   65.5647   76.7729 H   0  0  0  0  0  0  0  0  0  0  0  0
   -7.8880   63.2311   72.9867 H   0  0  0  0  0  0  0  0  0  0  0  0
   -9.3894   64.2233   73.4386 H   0  0  0  0  0  0  0  0  0  0  0  0
   -7.3430   65.9528   73.9560 H   0  0  0  0  0  0  0  0  0  0  0  0
   -6.7679   65.1044   72.4809 H   0  0  0  0  0  0  0  0  0  0  0  0
   -8.3675   65.9216   72.4809 H   0  0  0  0  0  0  0  0  0  0  0  0
  2  1  2  0
  3  2  1  0
  4  3  1  0
  5  4  1  0
  6  4  1  0
  7  6  1  0
  8  7  1  0
  8  3  2  0
  9  8  1  0
 10  9  2  0
 10  1  1  0
  7 11  1  1
 12 11  1  0
 13 12  1  0
 14  7  1  0
 14 13  1  0
 15 14  1  0
 16 15  1  0
 17 16  1  0
 17  6  1  0
 18 15  1  0
 19 18  2  0
 20 13  1  0
 20 19  1  0
 21 10  1  0
 22 21  1  0
 23 22  1  0
 24 23  1  0
 25 24  1  0
 26 25  1  0
 27 26  1  0
 28 27  1  0
 29 28  2  0
 29 21  1  0
 30 29  1  0
 31 30  1  0
 32 31  2  0
 32 28  1  0
 33 32  1  0
 34 33  2  0
 35 34  1  0
 36 35  2  0
 36 31  1  0
 37 25  1  0
 38 37  1  0
 39 38  1  0
 39 23  1  0
 38 40  1  1
 41 38  1  0
 42 41  1  0
 21 43  1  1
 44 43  2  0
 45 43  1  0
 46 45  1  0
 47 17  1  0
 48 47  2  0
 49 47  1  0
 51 50  1  0
 51  1  1  0
 17 52  1  1
 53 16  1  0
 15 54  1  6
 55 54  1  0
  2 56  1  0
  5 57  1  0
  5 58  1  0
  5 59  1  0
  6 60  1  1
  9 61  1  0
 11 62  1  0
 11 63  1  0
 12 64  1  0
 12 65  1  0
 13 66  1  6
 14 67  1  6
 16 68  1  6
 18 69  1  0
 19 70  1  0
 20 71  1  0
 20 72  1  0
 22 73  1  0
 22 74  1  0
 23 75  1  6
 24 76  1  0
 24 77  1  0
 25 78  1  1
 26 79  1  0
 26 80  1  0
 27 81  1  0
 27 82  1  0
 30 83  1  0
 33 84  1  0
 34 85  1  0
 35 86  1  0
 36 87  1  0
 37 88  1  0
 37 89  1  0
 39 90  1  0
 39 91  1  0
 40 92  1  0
 41 93  1  0
 41 94  1  0
 42 95  1  0
 42 96  1  0
 42 97  1  0
 46 98  1  0
 46 99  1  0
 46100  1  0
 49101  1  0
 49102  1  0
 50103  1  0
 50104  1  0
 50105  1  0
 52106  1  0
 53107  1  0
 54108  1  0
 54109  1  0
 55110  1  0
 55111  1  0
 55112  1  0
M  CHG  2  13   1  25   1
M  END
>  <score>  (2) 
-7.781

$$$$
=
     RDKit          3D

112120  0  0  0  0  0  0  0  0999 V2000
   -0.4820   62.0810   76.0750 C   0  0  0  0  0  0  0  0  0  0  0  0
   -1.4920   63.0520   76.1110 C   0  0  0  0  0  0  0  0  0  0  0  0
   -2.7720   62.7120   76.5180 C   0  0  0  0  0  0  0  0  0  0  0  0
   -3.8850   63.5780   76.6800 N   0  0  0  0  0  0  0  0  0  0  0  0
   -3.5250   64.9560   77.0430 C   0  0  0  0  0  0  0  0  0  0  0  0
   -4.7880   62.8040   77.5950 C   0  0  2  0  0  0  0  0  0  0  0  0
   -4.5620   61.3130   77.1770 C   0  0  1  0  0  0  0  0  0  0  0  0
   -3.0790   61.3870   76.8190 C   0  0  0  0  0  0  0  0  0  0  0  0
   -2.0910   60.3990   76.7700 C   0  0  0  0  0  0  0  0  0  0  0  0
   -0.7640   60.7210   76.3860 C   0  0  0  0  0  0  0  0  0  0  0  0
   -4.8770   60.3060   78.2720 C   0  0  0  0  0  0  0  0  0  0  0  0
   -5.1030   58.9830   77.5760 C   0  0  0  0  0  0  0  0  0  0  0  0
   -5.4650   59.3010   76.1410 N   0  0  2  0  0  4  0  0  0  0  0  0
   -5.3720   60.8570   75.9320 C   0  0  1  0  0  0  0  0  0  0  0  0
   -6.7560   61.5480   75.6070 C   0  0  2  0  0  0  0  0  0  0  0  0
   -6.7960   63.0380   76.1000 C   0  0  2  0  0  0  0  0  0  0  0  0
   -6.2760   63.2220   77.5330 C   0  0  2  0  0  0  0  0  0  0  0  0
   -7.9270   60.7340   76.1840 C   0  0  0  0  0  0  0  0  0  0  0  0
   -7.9210   59.3950   76.2120 C   0  0  0  0  0  0  0  0  0  0  0  0
   -6.7460   58.6350   75.7290 C   0  0  0  0  0  0  0  0  0  0  0  0
    0.3880   59.6350   76.4540 C   0  0  1  0  0  0  0  0  0  0  0  0
   -0.2200   58.1440   76.3750 C   0  0  0  0  0  0  0  0  0  0  0  0
    0.7880   57.0320   76.0170 C   0  0  1  0  0  0  0  0  0  0  0  0
    1.8720   56.7940   77.0570 C   0  0  0  0  0  0  0  0  0  0  0  0
    3.0760   56.2680   76.3260 N   0  0  2  0  0  4  0  0  0  0  0  0
    4.1420   57.2980   75.9480 C   0  0  0  0  0  0  0  0  0  0  0  0
    3.7770   58.7960   76.1020 C   0  0  0  0  0  0  0  0  0  0  0  0
    2.7730   59.3460   75.1180 C   0  0  0  0  0  0  0  0  0  0  0  0
    1.4250   59.7170   75.2830 C   0  0  0  0  0  0  0  0  0  0  0  0
    0.9900   60.1470   74.0400 N   0  0  0  0  0  0  0  0  0  0  0  0
    1.9770   60.0610   73.0960 C   0  0  0  0  0  0  0  0  0  0  0  0
    3.1130   59.5880   73.7370 C   0  0  0  0  0  0  0  0  0  0  0  0
    4.2930   59.4400   72.9740 C   0  0  0  0  0  0  0  0  0  0  0  0
    4.2820   59.7600   71.6120 C   0  0  0  0  0  0  0  0  0  0  0  0
    3.1230   60.2270   71.0030 C   0  0  0  0  0  0  0  0  0  0  0  0
    1.9450   60.3900   71.7360 C   0  0  0  0  0  0  0  0  0  0  0  0
    2.7090   55.3170   75.1620 C   0  0  0  0  0  0  0  0  0  0  0  0
    1.3430   54.6140   75.4380 C   0  0  2  0  0  0  0  0  0  0  0  0
    0.1960   55.6580   75.6490 C   0  0  0  0  0  0  0  0  0  0  0  0
    1.4990   53.8950   76.6740 O   0  0  0  0  0  0  0  0  0  0  0  0
    0.9590   53.6260   74.3180 C   0  0  0  0  0  0  0  0  0  0  0  0
   -0.4510   53.0580   74.4250 C   0  0  0  0  0  0  0  0  0  0  0  0
    1.0330   59.8380   77.8520 C   0  0  0  0  0  0  0  0  0  0  0  0
    2.0150   60.5570   78.0300 O   0  0  0  0  0  0  0  0  0  0  0  0
    0.4250   59.1320   78.8400 O   0  0  0  0  0  0  0  0  0  0  0  0
    1.1860   58.9840   80.0400 C   0  0  0  0  0  0  0  0  0  0  0  0
   -6.5000   64.6610   78.0370 C   0  0  0  0  0  0  0  0  0  0  0  0
   -6.8750   65.5790   77.3140 O   0  0  0  0  0  0  0  0  0  0  0  0
   -6.2800   64.8690   79.3710 N   0  0  0  0  0  0  0  0  0  0  0  0
    1.0980   63.5780   75.0430 C   0  0  0  0  0  0  0  0  0  0  0  0
    0.8140   62.3780   75.7550 O   0  0  0  0  0  0  0  0  0  0  0  0
   -7.0600   62.4180   78.4390 O   0  0  0  0  0  0  0  0  0  0  0  0
   -8.1520   63.5130   75.9980 O   0  0  0  0  0  0  0  0  0  0  0  0
   -7.0210   61.5390   74.0500 C   0  0  0  0  0  0  0  0  0  0  0  0
   -8.4780   61.5360   73.5920 C   0  0  0  0  0  0  0  0  0  0  0  0
   -1.2677   64.0875   75.8151 H   0  0  0  0  0  0  0  0  0  0  0  0
   -3.4999   65.0519   78.1385 H   0  0  0  0  0  0  0  0  0  0  0  0
   -2.5338   65.1967   76.6311 H   0  0  0  0  0  0  0  0  0  0  0  0
   -4.2718   65.6507   76.6311 H   0  0  0  0  0  0  0  0  0  0  0  0
   -4.5399   62.9957   78.6494 H   0  0  0  0  0  0  0  0  0  0  0  0
   -2.3453   59.3613   77.0319 H   0  0  0  0  0  0  0  0  0  0  0  0
   -4.0330   60.2287   78.9732 H   0  0  0  0  0  0  0  0  0  0  0  0
   -5.7603   60.6091   78.8534 H   0  0  0  0  0  0  0  0  0  0  0  0
   -4.1865   58.3757   77.6098 H   0  0  0  0  0  0  0  0  0  0  0  0
   -5.9028   58.4096   78.0674 H   0  0  0  0  0  0  0  0  0  0  0  0
   -4.7881   58.8915   75.4815 H   0  0  0  0  0  0  0  0  0  0  0  0
   -4.8534   61.1816   75.0179 H   0  0  0  0  0  0  0  0  0  0  0  0
   -6.1204   63.6225   75.4582 H   0  0  0  0  0  0  0  0  0  0  0  0
   -8.7989   61.2699   76.5873 H   0  0  0  0  0  0  0  0  0  0  0  0
   -8.7980   58.8545   76.5978 H   0  0  0  0  0  0  0  0  0  0  0  0
   -6.7831   58.5755   74.6312 H   0  0  0  0  0  0  0  0  0  0  0  0
   -6.7747   57.6285   76.1719 H   0  0  0  0  0  0  0  0  0  0  0  0
   -0.6552   57.9034   77.3562 H   0  0  0  0  0  0  0  0  0  0  0  0
   -0.9537   58.1608   75.5556 H   0  0  0  0  0  0  0  0  0  0  0  0
    1.2242   57.4719   75.1080 H   0  0  0  0  0  0  0  0  0  0  0  0
    2.1211   57.7371   77.5654 H   0  0  0  0  0  0  0  0  0  0  0  0
    1.5329   56.0781   77.8202 H   0  0  0  0  0  0  0  0  0  0  0  0
    3.5512   55.6989   77.0410 H   0  0  0  0  0  0  0  0  0  0  0  0
    5.0227   57.1071   76.5788 H   0  0  0  0  0  0  0  0  0  0  0  0
    4.2967   57.1572   74.8681 H   0  0  0  0  0  0  0  0  0  0  0  0
    3.3677   58.9387   77.1130 H   0  0  0  0  0  0  0  0  0  0  0  0
    4.7095   59.3459   75.9067 H   0  0  0  0  0  0  0  0  0  0  0  0
    0.0378   60.4903   73.8492 H   0  0  0  0  0  0  0  0  0  0  0  0
    5.2158   59.0750   73.4485 H   0  0  0  0  0  0  0  0  0  0  0  0
    5.1996   59.6408   71.0172 H   0  0  0  0  0  0  0  0  0  0  0  0
    3.1335   60.4713   69.9305 H   0  0  0  0  0  0  0  0  0  0  0  0
    1.0256   60.7634   71.2615 H   0  0  0  0  0  0  0  0  0  0  0  0
    2.6354   55.8972   74.2304 H   0  0  0  0  0  0  0  0  0  0  0  0
    3.4914   54.5492   75.0708 H   0  0  0  0  0  0  0  0  0  0  0  0
   -0.3866   55.7503   74.7205 H   0  0  0  0  0  0  0  0  0  0  0  0
   -0.4540   55.3163   76.4680 H   0  0  0  0  0  0  0  0  0  0  0  0
    1.3647   54.5139   77.4350 H   0  0  0  0  0  0  0  0  0  0  0  0
    1.0450   54.1500   73.3547 H   0  0  0  0  0  0  0  0  0  0  0  0
    1.6456   52.7715   74.4090 H   0  0  0  0  0  0  0  0  0  0  0  0
   -0.7227   52.9485   75.4853 H   0  0  0  0  0  0  0  0  0  0  0  0
   -1.1596   53.7408   73.9335 H   0  0  0  0  0  0  0  0  0  0  0  0
   -0.4884   52.0746   73.9335 H   0  0  0  0  0  0  0  0  0  0  0  0
    0.5262   59.1123   80.9108 H   0  0  0  0  0  0  0  0  0  0  0  0
    1.6374   57.9812   80.0666 H   0  0  0  0  0  0  0  0  0  0  0  0
    1.9803   59.7445   80.0666 H   0  0  0  0  0  0  0  0  0  0  0  0
   -6.4112   65.8076   79.7744 H   0  0  0  0  0  0  0  0  0  0  0  0
   -5.9832   64.0870   79.9721 H   0  0  0  0  0  0  0  0  0  0  0  0
    1.2906   64.3916   75.7578 H   0  0  0  0  0  0  0  0  0  0  0  0
    1.9854   63.4278   74.4106 H   0  0  0  0  0  0  0  0  0  0  0  0
    0.2374   63.8415   74.4106 H   0  0  0  0  0  0  0  0  0  0  0  0
   -6.8301   62.6537   79.3726 H   0  0  0  0  0  0  0  0  0  0  0  0
   -8.5250   63.6437   76.9057 H   0  0  0  0  0  0  0  0  0  0  0  0
   -6.5427   62.4349   73.6273 H   0  0  0  0  0  0  0  0  0  0  0  0
   -6.6099   60.5817   73.6970 H   0  0  0  0  0  0  0  0  0  0  0  0
   -9.1388   61.5346   74.4714 H   0  0  0  0  0  0  0  0  0  0  0  0
   -8.6741   62.4337   72.9874 H   0  0  0  0  0  0  0  0  0  0  0  0
   -8.6704   60.6375   72.9874 H   0  0  0  0  0  0  0  0  0  0  0  0
  2  1  2  0
  3  2  1  0
  4  3  1  0
  5  4  1  0
  6  4  1  0
  7  6  1  0
  8  7  1  0
  8  3  2  0
  9  8  1  0
 10  9  2  0
 10  1  1  0
  7 11  1  1
 12 11  1  0
 13 12  1  0
 14  7  1  0
 14 13  1  0
 15 14  1  0
 16 15  1  0
 17 16  1  0
 17  6  1  0
 18 15  1  0
 19 18  2  0
 20 13  1  0
 20 19  1  0
 21 10  1  0
 22 21  1  0
 23 22  1  0
 24 23  1  0
 25 24  1  0
 26 25  1  0
 27 26  1  0
 28 27  1  0
 29 28  2  0
 29 21  1  0
 30 29  1  0
 31 30  1  0
 32 31  2  0
 32 28  1  0
 33 32  1  0
 34 33  2  0
 35 34  1  0
 36 35  2  0
 36 31  1  0
 37 25  1  0
 38 37  1  0
 39 38  1  0
 39 23  1  0
 38 40  1  1
 41 38  1  0
 42 41  1  0
 21 43  1  1
 44 43  2  0
 45 43  1  0
 46 45  1  0
 47 17  1  0
 48 47  2  0
 49 47  1  0
 51 50  1  0
 51  1  1  0
 17 52  1  1
 53 16  1  0
 15 54  1  6
 55 54  1  0
  2 56  1  0
  5 57  1  0
  5 58  1  0
  5 59  1  0
  6 60  1  1
  9 61  1  0
 11 62  1  0
 11 63  1  0
 12 64  1  0
 12 65  1  0
 13 66  1  6
 14 67  1  6
 16 68  1  6
 18 69  1  0
 19 70  1  0
 20 71  1  0
 20 72  1  0
 22 73  1  0
 22 74  1  0
 23 75  1  6
 24 76  1  0
 24 77  1  0
 25 78  1  1
 26 79  1  0
 26 80  1  0
 27 81  1  0
 27 82  1  0
 30 83  1  0
 33 84  1  0
 34 85  1  0
 35 86  1  0
 36 87  1  0
 37 88  1  0
 37 89  1  0
 39 90  1  0
 39 91  1  0
 40 92  1  0
 41 93  1  0
 41 94  1  0
 42 95  1  0
 42 96  1  0
 42 97  1  0
 46 98  1  0
 46 99  1  0
 46100  1  0
 49101  1  0
 49102  1  0
 50103  1  0
 50104  1  0
 50105  1  0
 52106  1  0
 53107  1  0
 54108  1  0
 54109  1  0
 55110  1  0
 55111  1  0
 55112  1  0
M  CHG  2  13   1  25   1
M  END
>  <score>  (3) 
-7.48

$$$$
=
     RDKit          3D

112120  0  0  0  0  0  0  0  0999 V2000
   -4.1260   58.0020   76.2900 C   0  0  0  0  0  0  0  0  0  0  0  0
   -3.4230   56.8720   75.8510 C   0  0  0  0  0  0  0  0  0  0  0  0
   -2.0390   56.8460   75.9060 C   0  0  0  0  0  0  0  0  0  0  0  0
   -1.1820   55.7660   75.5720 N   0  0  0  0  0  0  0  0  0  0  0  0
   -1.7790   54.4390   75.7790 C   0  0  0  0  0  0  0  0  0  0  0  0
    0.0900   56.1040   76.2940 C   0  0  2  0  0  0  0  0  0  0  0  0
    0.1560   57.6670   76.2310 C   0  0  1  0  0  0  0  0  0  0  0  0
   -1.3370   57.9730   76.3280 C   0  0  0  0  0  0  0  0  0  0  0  0
   -2.0180   59.1180   76.7530 C   0  0  0  0  0  0  0  0  0  0  0  0
   -3.4360   59.1650   76.7360 C   0  0  0  0  0  0  0  0  0  0  0  0
    0.9840   58.2990   77.3390 C   0  0  0  0  0  0  0  0  0  0  0  0
    1.3590   59.6790   76.8500 C   0  0  0  0  0  0  0  0  0  0  0  0
    1.2540   59.6510   75.3400 N   0  0  2  0  0  4  0  0  0  0  0  0
    0.7150   58.2410   74.9000 C   0  0  1  0  0  0  0  0  0  0  0  0
    1.7490   57.3900   74.0580 C   0  0  2  0  0  0  0  0  0  0  0  0
    1.5270   55.8470   74.2470 C   0  0  2  0  0  0  0  0  0  0  0  0
    1.3550   55.4290   75.7150 C   0  0  2  0  0  0  0  0  0  0  0  0
    3.1940   57.7950   74.3890 C   0  0  0  0  0  0  0  0  0  0  0  0
    3.5390   59.0630   74.6510 C   0  0  0  0  0  0  0  0  0  0  0  0
    2.5160   60.1320   74.6850 C   0  0  0  0  0  0  0  0  0  0  0  0
   -4.2160   60.4070   77.3360 C   0  0  1  0  0  0  0  0  0  0  0  0
   -3.2910   61.7280   77.3260 C   0  0  0  0  0  0  0  0  0  0  0  0
   -4.0410   63.0660   77.4870 C   0  0  1  0  0  0  0  0  0  0  0  0
   -4.7190   63.2590   78.8350 C   0  0  0  0  0  0  0  0  0  0  0  0
   -5.8980   64.1650   78.6090 N   0  0  2  0  0  4  0  0  0  0  0  0
   -7.2510   63.4790   78.4100 C   0  0  0  0  0  0  0  0  0  0  0  0
   -7.2510   61.9460   78.1910 C   0  0  0  0  0  0  0  0  0  0  0  0
   -6.7120   61.4590   76.8670 C   0  0  0  0  0  0  0  0  0  0  0  0
   -5.5070   60.8050   76.5450 C   0  0  0  0  0  0  0  0  0  0  0  0
   -5.5350   60.6020   75.1750 N   0  0  0  0  0  0  0  0  0  0  0  0
   -6.6780   61.0960   74.6090 C   0  0  0  0  0  0  0  0  0  0  0  0
   -7.4490   61.6170   75.6380 C   0  0  0  0  0  0  0  0  0  0  0  0
   -8.7100   62.1660   75.3120 C   0  0  0  0  0  0  0  0  0  0  0  0
   -9.1360   62.1790   73.9790 C   0  0  0  0  0  0  0  0  0  0  0  0
   -8.3330   61.6520   72.9730 C   0  0  0  0  0  0  0  0  0  0  0  0
   -7.0870   61.0960   73.2700 C   0  0  0  0  0  0  0  0  0  0  0  0
   -5.6180   65.2730   77.5660 C   0  0  0  0  0  0  0  0  0  0  0  0
   -4.0950   65.6130   77.5220 C   0  0  2  0  0  0  0  0  0  0  0  0
   -3.2370   64.3460   77.1910 C   0  0  0  0  0  0  0  0  0  0  0  0
   -3.7360   66.0380   78.8490 O   0  0  0  0  0  0  0  0  0  0  0  0
   -3.7790   66.7430   76.5200 C   0  0  0  0  0  0  0  0  0  0  0  0
   -2.6040   66.4590   75.5920 C   0  0  0  0  0  0  0  0  0  0  0  0
   -4.5030   60.0100   78.8100 C   0  0  0  0  0  0  0  0  0  0  0  0
   -5.5760   59.5260   79.1680 O   0  0  0  0  0  0  0  0  0  0  0  0
   -3.4740   60.2730   79.6550 O   0  0  0  0  0  0  0  0  0  0  0  0
   -3.0220   59.1600   80.4300 C   0  0  0  0  0  0  0  0  0  0  0  0
    1.3230   53.8970   75.8670 C   0  0  0  0  0  0  0  0  0  0  0  0
    1.1550   53.1280   74.9260 O   0  0  0  0  0  0  0  0  0  0  0  0
    1.5210   53.4180   77.1340 N   0  0  0  0  0  0  0  0  0  0  0  0
   -6.2020   57.0840   77.0960 C   0  0  0  0  0  0  0  0  0  0  0  0
   -5.4930   58.0510   76.3290 O   0  0  0  0  0  0  0  0  0  0  0  0
    2.5220   55.8220   76.4680 O   0  0  0  0  0  0  0  0  0  0  0  0
    2.6460   55.1540   73.6600 O   0  0  0  0  0  0  0  0  0  0  0  0
    1.6050   57.7210   72.5200 C   0  0  0  0  0  0  0  0  0  0  0  0
    2.8960   57.8340   71.7100 C   0  0  0  0  0  0  0  0  0  0  0  0
   -3.9722   56.0023   75.4612 H   0  0  0  0  0  0  0  0  0  0  0  0
   -1.8680   54.2412   76.8574 H   0  0  0  0  0  0  0  0  0  0  0  0
   -2.7770   54.4098   75.3173 H   0  0  0  0  0  0  0  0  0  0  0  0
   -1.1388   53.6729   75.3173 H   0  0  0  0  0  0  0  0  0  0  0  0
    0.0752   55.7170   77.3236 H   0  0  0  0  0  0  0  0  0  0  0  0
   -1.4486   59.9912   77.1041 H   0  0  0  0  0  0  0  0  0  0  0  0
    0.3928   58.3697   78.2639 H   0  0  0  0  0  0  0  0  0  0  0  0
    1.8767   57.6975   77.5653 H   0  0  0  0  0  0  0  0  0  0  0  0
    0.6681   60.4282   77.2639 H   0  0  0  0  0  0  0  0  0  0  0  0
    2.3763   59.9485   77.1702 H   0  0  0  0  0  0  0  0  0  0  0  0
    0.5615   60.3319   74.9968 H   0  0  0  0  0  0  0  0  0  0  0  0
   -0.0828   58.2544   74.1428 H   0  0  0  0  0  0  0  0  0  0  0  0
    0.5849   55.5786   73.7466 H   0  0  0  0  0  0  0  0  0  0  0  0
    3.9717   57.0174   74.4116 H   0  0  0  0  0  0  0  0  0  0  0  0
    4.5932   59.3119   74.8427 H   0  0  0  0  0  0  0  0  0  0  0  0
    2.2895   60.4455   73.6552 H   0  0  0  0  0  0  0  0  0  0  0  0
    2.9123   60.9767   75.2677 H   0  0  0  0  0  0  0  0  0  0  0  0
   -2.5695   61.6426   78.1519 H   0  0  0  0  0  0  0  0  0  0  0  0
   -2.8242   61.7618   76.3305 H   0  0  0  0  0  0  0  0  0  0  0  0
   -4.7958   62.9448   76.6960 H   0  0  0  0  0  0  0  0  0  0  0  0
   -5.0577   62.2897   79.2296 H   0  0  0  0  0  0  0  0  0  0  0  0
   -4.0225   63.6963   79.5655 H   0  0  0  0  0  0  0  0  0  0  0  0
   -6.0103   64.6315   79.5204 H   0  0  0  0  0  0  0  0  0  0  0  0
   -7.8588   63.6840   79.3037 H   0  0  0  0  0  0  0  0  0  0  0  0
   -7.6405   63.8960   77.4696 H   0  0  0  0  0  0  0  0  0  0  0  0
   -6.6419   61.4937   78.9875 H   0  0  0  0  0  0  0  0  0  0  0  0
   -8.3098   61.6480   78.2040 H   0  0  0  0  0  0  0  0  0  0  0  0
   -4.7848   60.1349   74.6459 H   0  0  0  0  0  0  0  0  0  0  0  0
   -9.3532   62.5809   76.1020 H   0  0  0  0  0  0  0  0  0  0  0  0
  -10.1154   62.6102   73.7244 H   0  0  0  0  0  0  0  0  0  0  0  0
   -8.6838   61.6735   71.9307 H   0  0  0  0  0  0  0  0  0  0  0  0
   -6.4493   60.6729   72.4798 H   0  0  0  0  0  0  0  0  0  0  0  0
   -5.9396   64.9249   76.5734 H   0  0  0  0  0  0  0  0  0  0  0  0
   -6.1755   66.1775   77.8507 H   0  0  0  0  0  0  0  0  0  0  0  0
   -2.9599   64.3629   76.1266 H   0  0  0  0  0  0  0  0  0  0  0  0
   -2.3314   64.3531   77.8153 H   0  0  0  0  0  0  0  0  0  0  0  0
   -4.2091   65.4779   79.5142 H   0  0  0  0  0  0  0  0  0  0  0  0
   -4.6722   66.9118   75.9006 H   0  0  0  0  0  0  0  0  0  0  0  0
   -3.4970   67.6210   77.1197 H   0  0  0  0  0  0  0  0  0  0  0  0
   -1.7074   66.2423   76.1914 H   0  0  0  0  0  0  0  0  0  0  0  0
   -2.8392   65.5918   74.9574 H   0  0  0  0  0  0  0  0  0  0  0  0
   -2.4172   67.3379   74.9574 H   0  0  0  0  0  0  0  0  0  0  0  0
   -3.1176   59.3954   81.5002 H   0  0  0  0  0  0  0  0  0  0  0  0
   -3.6324   58.2761   80.1930 H   0  0  0  0  0  0  0  0  0  0  0  0
   -1.9682   58.9520   80.1930 H   0  0  0  0  0  0  0  0  0  0  0  0
    1.5123   52.4028   77.3080 H   0  0  0  0  0  0  0  0  0  0  0  0
    1.6787   54.0728   77.9133 H   0  0  0  0  0  0  0  0  0  0  0  0
   -6.0542   57.2856   78.1672 H   0  0  0  0  0  0  0  0  0  0  0  0
   -7.2742   57.1406   76.8568 H   0  0  0  0  0  0  0  0  0  0  0  0
   -5.8255   56.0785   76.8568 H   0  0  0  0  0  0  0  0  0  0  0  0
    2.3273   55.7564   77.4365 H   0  0  0  0  0  0  0  0  0  0  0  0
    3.2254   54.7952   74.3780 H   0  0  0  0  0  0  0  0  0  0  0  0
    0.9966   56.9255   72.0651 H   0  0  0  0  0  0  0  0  0  0  0  0
    1.1574   58.7252   72.4850 H   0  0  0  0  0  0  0  0  0  0  0  0
    3.7533   57.9090   72.3951 H   0  0  0  0  0  0  0  0  0  0  0  0
    3.0103   56.9424   71.0759 H   0  0  0  0  0  0  0  0  0  0  0  0
    2.8536   58.7319   71.0759 H   0  0  0  0  0  0  0  0  0  0  0  0
  2  1  2  0
  3  2  1  0
  4  3  1  0
  5  4  1  0
  6  4  1  0
  7  6  1  0
  8  7  1  0
  8  3  2  0
  9  8  1  0
 10  9  2  0
 10  1  1  0
  7 11  1  1
 12 11  1  0
 13 12  1  0
 14  7  1  0
 14 13  1  0
 15 14  1  0
 16 15  1  0
 17 16  1  0
 17  6  1  0
 18 15  1  0
 19 18  2  0
 20 13  1  0
 20 19  1  0
 21 10  1  0
 22 21  1  0
 23 22  1  0
 24 23  1  0
 25 24  1  0
 26 25  1  0
 27 26  1  0
 28 27  1  0
 29 28  2  0
 29 21  1  0
 30 29  1  0
 31 30  1  0
 32 31  2  0
 32 28  1  0
 33 32  1  0
 34 33  2  0
 35 34  1  0
 36 35  2  0
 36 31  1  0
 37 25  1  0
 38 37  1  0
 39 38  1  0
 39 23  1  0
 38 40  1  1
 41 38  1  0
 42 41  1  0
 21 43  1  1
 44 43  2  0
 45 43  1  0
 46 45  1  0
 47 17  1  0
 48 47  2  0
 49 47  1  0
 51 50  1  0
 51  1  1  0
 17 52  1  1
 53 16  1  0
 15 54  1  6
 55 54  1  0
  2 56  1  0
  5 57  1  0
  5 58  1  0
  5 59  1  0
  6 60  1  1
  9 61  1  0
 11 62  1  0
 11 63  1  0
 12 64  1  0
 12 65  1  0
 13 66  1  1
 14 67  1  6
 16 68  1  6
 18 69  1  0
 19 70  1  0
 20 71  1  0
 20 72  1  0
 22 73  1  0
 22 74  1  0
 23 75  1  6
 24 76  1  0
 24 77  1  0
 25 78  1  1
 26 79  1  0
 26 80  1  0
 27 81  1  0
 27 82  1  0
 30 83  1  0
 33 84  1  0
 34 85  1  0
 35 86  1  0
 36 87  1  0
 37 88  1  0
 37 89  1  0
 39 90  1  0
 39 91  1  0
 40 92  1  0
 41 93  1  0
 41 94  1  0
 42 95  1  0
 42 96  1  0
 42 97  1  0
 46 98  1  0
 46 99  1  0
 46100  1  0
 49101  1  0
 49102  1  0
 50103  1  0
 50104  1  0
 50105  1  0
 52106  1  0
 53107  1  0
 54108  1  0
 54109  1  0
 55110  1  0
 55111  1  0
 55112  1  0
M  CHG  2  13   1  25   1
M  END
>  <score>  (4) 
-7.295

$$$$
=
     RDKit          3D

112120  0  0  0  0  0  0  0  0999 V2000
   -2.0320   57.0630   77.5600 C   0  0  0  0  0  0  0  0  0  0  0  0
   -3.3390   56.9790   78.0570 C   0  0  0  0  0  0  0  0  0  0  0  0
   -4.3490   57.7440   77.4970 C   0  0  0  0  0  0  0  0  0  0  0  0
   -5.7290   57.7290   77.8290 N   0  0  0  0  0  0  0  0  0  0  0  0
   -6.2120   56.4330   78.3260 C   0  0  0  0  0  0  0  0  0  0  0  0
   -6.3780   58.3220   76.6130 C   0  0  2  0  0  0  0  0  0  0  0  0
   -5.3430   59.3840   76.1120 C   0  0  1  0  0  0  0  0  0  0  0  0
   -4.0540   58.6560   76.4860 C   0  0  0  0  0  0  0  0  0  0  0  0
   -2.7530   58.7690   75.9880 C   0  0  0  0  0  0  0  0  0  0  0  0
   -1.7020   57.9790   76.5210 C   0  0  0  0  0  0  0  0  0  0  0  0
   -5.4550   59.7090   74.6300 C   0  0  0  0  0  0  0  0  0  0  0  0
   -4.7850   61.0500   74.4410 C   0  0  0  0  0  0  0  0  0  0  0  0
   -4.7900   61.7350   75.7920 N   0  0  2  0  0  4  0  0  0  0  0  0
   -5.4010   60.7480   76.8530 C   0  0  1  0  0  0  0  0  0  0  0  0
   -6.7680   61.2390   77.4780 C   0  0  2  0  0  0  0  0  0  0  0  0
   -7.6730   60.0340   77.9220 C   0  0  2  0  0  0  0  0  0  0  0  0
   -7.7800   58.9260   76.8640 C   0  0  2  0  0  0  0  0  0  0  0  0
   -7.5120   62.1730   76.5110 C   0  0  0  0  0  0  0  0  0  0  0  0
   -6.8690   63.0460   75.7240 C   0  0  0  0  0  0  0  0  0  0  0  0
   -5.3900   63.1090   75.7180 C   0  0  0  0  0  0  0  0  0  0  0  0
   -0.2550   58.0080   75.8760 C   0  0  1  0  0  0  0  0  0  0  0  0
   -0.2560   58.8390   74.4940 C   0  0  0  0  0  0  0  0  0  0  0  0
    1.1290   59.2910   73.9880 C   0  0  1  0  0  0  0  0  0  0  0  0
    2.0620   58.1590   73.5850 C   0  0  0  0  0  0  0  0  0  0  0  0
    3.4670   58.6500   73.8000 N   0  0  2  0  0  4  0  0  0  0  0  0
    4.1240   58.2630   75.1270 C   0  0  0  0  0  0  0  0  0  0  0  0
    3.2180   57.6480   76.2220 C   0  0  0  0  0  0  0  0  0  0  0  0
    2.2370   58.5860   76.8830 C   0  0  0  0  0  0  0  0  0  0  0  0
    0.8370   58.6920   76.7640 C   0  0  0  0  0  0  0  0  0  0  0  0
    0.4600   59.7350   77.5950 N   0  0  0  0  0  0  0  0  0  0  0  0
    1.5350   60.3020   78.2230 C   0  0  0  0  0  0  0  0  0  0  0  0
    2.6590   59.5950   77.8230 C   0  0  0  0  0  0  0  0  0  0  0  0
    3.9090   59.9720   78.3640 C   0  0  0  0  0  0  0  0  0  0  0  0
    3.9790   61.0370   79.2690 C   0  0  0  0  0  0  0  0  0  0  0  0
    2.8300   61.7260   79.6430 C   0  0  0  0  0  0  0  0  0  0  0  0
    1.5820   61.3680   79.1290 C   0  0  0  0  0  0  0  0  0  0  0  0
    3.6470   60.1450   73.4460 C   0  0  0  0  0  0  0  0  0  0  0  0
    2.6080   60.5810   72.3640 C   0  0  2  0  0  0  0  0  0  0  0  0
    1.1410   60.3250   72.8460 C   0  0  0  0  0  0  0  0  0  0  0  0
    2.8370   59.7390   71.2200 O   0  0  0  0  0  0  0  0  0  0  0  0
    2.7800   62.0580   71.9540 C   0  0  0  0  0  0  0  0  0  0  0  0
    1.6870   62.9900   72.4630 C   0  0  0  0  0  0  0  0  0  0  0  0
    0.0600   56.5190   75.5620 C   0  0  0  0  0  0  0  0  0  0  0  0
    0.9050   55.8760   76.1850 O   0  0  0  0  0  0  0  0  0  0  0  0
   -0.6620   56.0150   74.5290 O   0  0  0  0  0  0  0  0  0  0  0  0
   -0.1900   54.7730   74.0040 C   0  0  0  0  0  0  0  0  0  0  0  0
   -8.8140   57.8580   77.2660 C   0  0  0  0  0  0  0  0  0  0  0  0
   -9.3610   57.8260   78.3640 O   0  0  0  0  0  0  0  0  0  0  0  0
   -9.1240   56.9350   76.3040 N   0  0  0  0  0  0  0  0  0  0  0  0
   -0.6420   56.3590   79.3960 C   0  0  0  0  0  0  0  0  0  0  0  0
   -1.0140   56.2760   78.0250 O   0  0  0  0  0  0  0  0  0  0  0  0
   -8.3140   59.4760   75.6420 O   0  0  0  0  0  0  0  0  0  0  0  0
   -8.9810   60.5450   78.2420 O   0  0  0  0  0  0  0  0  0  0  0  0
   -6.4970   62.1420   78.7450 C   0  0  0  0  0  0  0  0  0  0  0  0
   -5.1360   62.0000   79.4230 C   0  0  0  0  0  0  0  0  0  0  0  0
   -3.5641   56.3030   78.8951 H   0  0  0  0  0  0  0  0  0  0  0  0
   -6.2100   56.4383   79.4260 H   0  0  0  0  0  0  0  0  0  0  0  0
   -7.2353   56.2590   77.9620 H   0  0  0  0  0  0  0  0  0  0  0  0
   -5.5521   55.6317   77.9620 H   0  0  0  0  0  0  0  0  0  0  0  0
   -6.5937   57.5472   75.8625 H   0  0  0  0  0  0  0  0  0  0  0  0
   -2.5417   59.4781   75.1740 H   0  0  0  0  0  0  0  0  0  0  0  0
   -4.9448   58.9400   74.0313 H   0  0  0  0  0  0  0  0  0  0  0  0
   -6.5051   59.7359   74.3037 H   0  0  0  0  0  0  0  0  0  0  0  0
   -3.7516   60.9111   74.0905 H   0  0  0  0  0  0  0  0  0  0  0  0
   -5.3150   61.6540   73.6898 H   0  0  0  0  0  0  0  0  0  0  0  0
   -3.8334   61.9355   76.1169 H   0  0  0  0  0  0  0  0  0  0  0  0
   -4.8505   60.6727   77.8023 H   0  0  0  0  0  0  0  0  0  0  0  0
   -7.2027   59.5654   78.7991 H   0  0  0  0  0  0  0  0  0  0  0  0
   -8.6098   62.1232   76.4633 H   0  0  0  0  0  0  0  0  0  0  0  0
   -7.4456   63.7225   75.0760 H   0  0  0  0  0  0  0  0  0  0  0  0
   -5.0519   63.6958   76.5849 H   0  0  0  0  0  0  0  0  0  0  0  0
   -5.0644   63.5822   74.7799 H   0  0  0  0  0  0  0  0  0  0  0  0
   -0.7096   58.2049   73.7180 H   0  0  0  0  0  0  0  0  0  0  0  0
   -0.8181   59.7622   74.6981 H   0  0  0  0  0  0  0  0  0  0  0  0
    1.5011   59.7827   74.8989 H   0  0  0  0  0  0  0  0  0  0  0  0
    1.8720   57.2727   74.2083 H   0  0  0  0  0  0  0  0  0  0  0  0
    1.9022   57.8735   72.5348 H   0  0  0  0  0  0  0  0  0  0  0  0
    4.0087   58.1105   73.1098 H   0  0  0  0  0  0  0  0  0  0  0  0
    4.9129   57.5301   74.9024 H   0  0  0  0  0  0  0  0  0  0  0  0
    4.4728   59.2146   75.5545 H   0  0  0  0  0  0  0  0  0  0  0  0
    2.6426   56.8315   75.7613 H   0  0  0  0  0  0  0  0  0  0  0  0
    3.9014   57.3269   77.0219 H   0  0  0  0  0  0  0  0  0  0  0  0
   -0.5133   60.0461   77.7244 H   0  0  0  0  0  0  0  0  0  0  0  0
    4.8222   59.4310   78.0752 H   0  0  0  0  0  0  0  0  0  0  0  0
    4.9520   61.3321   79.6887 H   0  0  0  0  0  0  0  0  0  0  0  0
    2.9054   62.5633   80.3525 H   0  0  0  0  0  0  0  0  0  0  0  0
    0.6686   61.9044   79.4254 H   0  0  0  0  0  0  0  0  0  0  0  0
    3.5018   60.7514   74.3522 H   0  0  0  0  0  0  0  0  0  0  0  0
    4.6607   60.2960   73.0465 H   0  0  0  0  0  0  0  0  0  0  0  0
    0.7069   61.2693   73.2063 H   0  0  0  0  0  0  0  0  0  0  0  0
    0.5491   59.9367   72.0040 H   0  0  0  0  0  0  0  0  0  0  0  0
    3.0843   58.8298   71.5237 H   0  0  0  0  0  0  0  0  0  0  0  0
    3.7440   62.4130   72.3473 H   0  0  0  0  0  0  0  0  0  0  0  0
    2.7254   62.0846   70.8557 H   0  0  0  0  0  0  0  0  0  0  0  0
    1.6876   62.9895   73.5630 H   0  0  0  0  0  0  0  0  0  0  0  0
    1.8750   64.0100   72.0967 H   0  0  0  0  0  0  0  0  0  0  0  0
    0.7095   62.6432   72.0967 H   0  0  0  0  0  0  0  0  0  0  0  0
    0.0665   54.0980   74.8338 H   0  0  0  0  0  0  0  0  0  0  0  0
   -0.9761   54.3133   73.3870 H   0  0  0  0  0  0  0  0  0  0  0  0
    0.7030   54.9514   73.3870 H   0  0  0  0  0  0  0  0  0  0  0  0
   -9.8083   56.1918   76.5048 H   0  0  0  0  0  0  0  0  0  0  0  0
   -8.6730   56.9836   75.3793 H   0  0  0  0  0  0  0  0  0  0  0  0
   -1.5214   56.1628   80.0270 H   0  0  0  0  0  0  0  0  0  0  0  0
    0.1370   55.6126   79.6104 H   0  0  0  0  0  0  0  0  0  0  0  0
   -0.2541   57.3658   79.6104 H   0  0  0  0  0  0  0  0  0  0  0  0
   -8.9869   60.1691   75.8585 H   0  0  0  0  0  0  0  0  0  0  0  0
   -9.0875   60.5866   79.2254 H   0  0  0  0  0  0  0  0  0  0  0  0
   -6.6037   63.1914   78.4328 H   0  0  0  0  0  0  0  0  0  0  0  0
   -7.2256   61.8036   79.4964 H   0  0  0  0  0  0  0  0  0  0  0  0
   -5.2672   62.0137   80.5151 H   0  0  0  0  0  0  0  0  0  0  0  0
   -4.6735   61.0487   79.1211 H   0  0  0  0  0  0  0  0  0  0  0  0
   -4.4870   62.8353   79.1211 H   0  0  0  0  0  0  0  0  0  0  0  0
  2  1  2  0
  3  2  1  0
  4  3  1  0
  5  4  1  0
  6  4  1  0
  7  6  1  0
  8  7  1  0
  8  3  2  0
  9  8  1  0
 10  9  2  0
 10  1  1  0
  7 11  1  6
 12 11  1  0
 13 12  1  0
 14  7  1  0
 14 13  1  0
 15 14  1  0
 16 15  1  0
 17 16  1  0
 17  6  1  0
 18 15  1  0
 19 18  2  0
 20 13  1  0
 20 19  1  0
 21 10  1  0
 22 21  1  0
 23 22  1  0
 24 23  1  0
 25 24  1  0
 26 25  1  0
 27 26  1  0
 28 27  1  0
 29 28  2  0
 29 21  1  0
 30 29  1  0
 31 30  1  0
 32 31  2  0
 32 28  1  0
 33 32  1  0
 34 33  2  0
 35 34  1  0
 36 35  2  0
 36 31  1  0
 37 25  1  0
 38 37  1  0
 39 38  1  0
 39 23  1  0
 38 40  1  6
 41 38  1  0
 42 41  1  0
 21 43  1  6
 44 43  2  0
 45 43  1  0
 46 45  1  0
 47 17  1  0
 48 47  2  0
 49 47  1  0
 51 50  1  0
 51  1  1  0
 17 52  1  6
 53 16  1  0
 15 54  1  1
 55 54  1  0
  2 56  1  0
  5 57  1  0
  5 58  1  0
  5 59  1  0
  6 60  1  6
  9 61  1  0
 11 62  1  0
 11 63  1  0
 12 64  1  0
 12 65  1  0
 13 66  1  1
 14 67  1  1
 16 68  1  1
 18 69  1  0
 19 70  1  0
 20 71  1  0
 20 72  1  0
 22 73  1  0
 22 74  1  0
 23 75  1  1
 24 76  1  0
 24 77  1  0
 25 78  1  6
 26 79  1  0
 26 80  1  0
 27 81  1  0
 27 82  1  0
 30 83  1  0
 33 84  1  0
 34 85  1  0
 35 86  1  0
 36 87  1  0
 37 88  1  0
 37 89  1  0
 39 90  1  0
 39 91  1  0
 40 92  1  0
 41 93  1  0
 41 94  1  0
 42 95  1  0
 42 96  1  0
 42 97  1  0
 46 98  1  0
 46 99  1  0
 46100  1  0
 49101  1  0
 49102  1  0
 50103  1  0
 50104  1  0
 50105  1  0
 52106  1  0
 53107  1  0
 54108  1  0
 54109  1  0
 55110  1  0
 55111  1  0
 55112  1  0
M  CHG  2  13   1  25   1
M  END
>  <score>  (5) 
-7.294

$$$$
=
     RDKit          3D

112120  0  0  0  0  0  0  0  0999 V2000
   -1.0400   63.3440   75.9320 C   0  0  0  0  0  0  0  0  0  0  0  0
   -1.9780   64.2650   76.4150 C   0  0  0  0  0  0  0  0  0  0  0  0
   -3.2840   63.8700   76.6560 C   0  0  0  0  0  0  0  0  0  0  0  0
   -4.3340   64.6490   77.2070 N   0  0  0  0  0  0  0  0  0  0  0  0
   -3.8810   65.6970   78.1340 C   0  0  0  0  0  0  0  0  0  0  0  0
   -5.3000   63.6140   77.7070 C   0  0  2  0  0  0  0  0  0  0  0  0
   -5.1760   62.4500   76.6680 C   0  0  1  0  0  0  0  0  0  0  0  0
   -3.6870   62.5720   76.3480 C   0  0  0  0  0  0  0  0  0  0  0  0
   -2.7710   61.6420   75.8480 C   0  0  0  0  0  0  0  0  0  0  0  0
   -1.4200   62.0080   75.6170 C   0  0  0  0  0  0  0  0  0  0  0  0
   -5.5740   61.0870   77.2130 C   0  0  0  0  0  0  0  0  0  0  0  0
   -5.8860   60.2260   76.0100 C   0  0  0  0  0  0  0  0  0  0  0  0
   -6.2080   61.1690   74.8700 N   0  0  2  0  0  4  0  0  0  0  0  0
   -6.0010   62.6480   75.3670 C   0  0  1  0  0  0  0  0  0  0  0  0
   -7.3300   63.5040   75.4100 C   0  0  2  0  0  0  0  0  0  0  0  0
   -7.2690   64.6220   76.5110 C   0  0  2  0  0  0  0  0  0  0  0  0
   -6.7530   64.1180   77.8670 C   0  0  2  0  0  0  0  0  0  0  0  0
   -8.5620   62.6020   75.5930 C   0  0  0  0  0  0  0  0  0  0  0  0
   -8.6510   61.3920   75.0270 C   0  0  0  0  0  0  0  0  0  0  0  0
   -7.5280   60.8440   74.2340 C   0  0  0  0  0  0  0  0  0  0  0  0
   -0.3490   60.9280   75.1740 C   0  0  1  0  0  0  0  0  0  0  0  0
    0.4840   61.4360   73.8900 C   0  0  0  0  0  0  0  0  0  0  0  0
    1.8060   60.6890   73.6160 C   0  0  1  0  0  0  0  0  0  0  0  0
    1.6450   59.2250   73.2350 C   0  0  0  0  0  0  0  0  0  0  0  0
    2.8940   58.5150   73.6790 N   0  0  2  0  0  4  0  0  0  0  0  0
    2.8280   57.8140   75.0380 C   0  0  0  0  0  0  0  0  0  0  0  0
    1.6060   58.1170   75.9400 C   0  0  0  0  0  0  0  0  0  0  0  0
    1.5500   59.4960   76.5520 C   0  0  0  0  0  0  0  0  0  0  0  0
    0.7310   60.6040   76.2600 C   0  0  0  0  0  0  0  0  0  0  0  0
    1.1210   61.6100   77.1290 N   0  0  0  0  0  0  0  0  0  0  0  0
    2.1450   61.2110   77.9450 C   0  0  0  0  0  0  0  0  0  0  0  0
    2.4230   59.8880   77.6310 C   0  0  0  0  0  0  0  0  0  0  0  0
    3.4340   59.2290   78.3660 C   0  0  0  0  0  0  0  0  0  0  0  0
    4.1230   59.9200   79.3700 C   0  0  0  0  0  0  0  0  0  0  0  0
    3.8200   61.2470   79.6530 C   0  0  0  0  0  0  0  0  0  0  0  0
    2.8190   61.9190   78.9460 C   0  0  0  0  0  0  0  0  0  0  0  0
    4.1720   59.3660   73.4950 C   0  0  0  0  0  0  0  0  0  0  0  0
    3.9860   60.3920   72.3320 C   0  0  2  0  0  0  0  0  0  0  0  0
    2.7590   61.3290   72.5890 C   0  0  0  0  0  0  0  0  0  0  0  0
    3.6950   59.6200   71.1540 O   0  0  0  0  0  0  0  0  0  0  0  0
    5.2540   61.2350   72.0910 C   0  0  0  0  0  0  0  0  0  0  0  0
    5.0770   62.3820   71.1030 C   0  0  0  0  0  0  0  0  0  0  0  0
   -1.1920   59.6890   74.7650 C   0  0  0  0  0  0  0  0  0  0  0  0
   -1.5320   59.4750   73.6020 O   0  0  0  0  0  0  0  0  0  0  0  0
   -1.5320   58.8920   75.8100 O   0  0  0  0  0  0  0  0  0  0  0  0
   -2.5260   57.9060   75.5260 C   0  0  0  0  0  0  0  0  0  0  0  0
   -6.8810   65.1980   78.9580 C   0  0  0  0  0  0  0  0  0  0  0  0
   -7.1810   66.3650   78.7220 O   0  0  0  0  0  0  0  0  0  0  0  0
   -6.6630   64.7790   80.2420 N   0  0  0  0  0  0  0  0  0  0  0  0
    0.6190   64.9340   75.2100 C   0  0  0  0  0  0  0  0  0  0  0  0
    0.2790   63.6610   75.7490 O   0  0  0  0  0  0  0  0  0  0  0  0
   -7.6030   63.0530   78.3410 O   0  0  0  0  0  0  0  0  0  0  0  0
   -8.5870   65.1850   76.6580 O   0  0  0  0  0  0  0  0  0  0  0  0
   -7.5760   64.2020   74.0150 C   0  0  0  0  0  0  0  0  0  0  0  0
   -9.0200   64.2800   73.5220 C   0  0  0  0  0  0  0  0  0  0  0  0
   -1.6767   65.3060   76.6038 H   0  0  0  0  0  0  0  0  0  0  0  0
   -4.0274   65.3582   79.1702 H   0  0  0  0  0  0  0  0  0  0  0  0
   -2.8139   65.9020   77.9626 H   0  0  0  0  0  0  0  0  0  0  0  0
   -4.4628   66.6147   77.9626 H   0  0  0  0  0  0  0  0  0  0  0  0
   -5.0509   63.3023   78.7321 H   0  0  0  0  0  0  0  0  0  0  0  0
   -3.1013   60.6154   75.6313 H   0  0  0  0  0  0  0  0  0  0  0  0
   -4.7454   60.6503   77.7898 H   0  0  0  0  0  0  0  0  0  0  0  0
   -6.4399   61.1623   77.8872 H   0  0  0  0  0  0  0  0  0  0  0  0
   -5.0157   59.6043   75.7531 H   0  0  0  0  0  0  0  0  0  0  0  0
   -6.7303   59.5514   76.2152 H   0  0  0  0  0  0  0  0  0  0  0  0
   -5.5548   61.0466   74.0831 H   0  0  0  0  0  0  0  0  0  0  0  0
   -5.4493   63.3062   74.6797 H   0  0  0  0  0  0  0  0  0  0  0  0
   -6.5462   65.3818   76.1790 H   0  0  0  0  0  0  0  0  0  0  0  0
   -9.3982   62.9631   76.2097 H   0  0  0  0  0  0  0  0  0  0  0  0
   -9.5687   60.7987   75.1527 H   0  0  0  0  0  0  0  0  0  0  0  0
   -7.5564   61.2778   73.2236 H   0  0  0  0  0  0  0  0  0  0  0  0
   -7.6338   59.7501   74.1883 H   0  0  0  0  0  0  0  0  0  0  0  0
   -0.1581   61.3241   73.0039 H   0  0  0  0  0  0  0  0  0  0  0  0
    0.7654   62.4772   74.1060 H   0  0  0  0  0  0  0  0  0  0  0  0
    2.2684   60.7733   74.6105 H   0  0  0  0  0  0  0  0  0  0  0  0
    0.7671   58.7973   73.7413 H   0  0  0  0  0  0  0  0  0  0  0  0
    1.4959   59.1158   72.1506 H   0  0  0  0  0  0  0  0  0  0  0  0
    2.9600   57.7276   73.0183 H   0  0  0  0  0  0  0  0  0  0  0  0
    2.8386   56.7301   74.8506 H   0  0  0  0  0  0  0  0  0  0  0  0
    3.6921   58.2032   75.5965 H   0  0  0  0  0  0  0  0  0  0  0  0
    0.6994   57.9837   75.3315 H   0  0  0  0  0  0  0  0  0  0  0  0
    1.6901   57.4231   76.7894 H   0  0  0  0  0  0  0  0  0  0  0  0
    0.6919   62.5459   77.1576 H   0  0  0  0  0  0  0  0  0  0  0  0
    3.6785   58.1784   78.1505 H   0  0  0  0  0  0  0  0  0  0  0  0
    4.9118   59.4079   79.9405 H   0  0  0  0  0  0  0  0  0  0  0  0
    4.3748   61.7745   80.4429 H   0  0  0  0  0  0  0  0  0  0  0  0
    2.5700   62.9671   79.1686 H   0  0  0  0  0  0  0  0  0  0  0  0
    4.3812   59.9105   74.4276 H   0  0  0  0  0  0  0  0  0  0  0  0
    5.0105   58.6982   73.2483 H   0  0  0  0  0  0  0  0  0  0  0  0
    3.1146   62.2952   72.9763 H   0  0  0  0  0  0  0  0  0  0  0  0
    2.2182   61.4794   71.6430 H   0  0  0  0  0  0  0  0  0  0  0  0
    3.3586   58.7275   71.4191 H   0  0  0  0  0  0  0  0  0  0  0  0
    5.5722   61.6589   73.0549 H   0  0  0  0  0  0  0  0  0  0  0  0
    5.9992   60.5567   71.6499 H   0  0  0  0  0  0  0  0  0  0  0  0
    4.9319   63.3223   71.6550 H   0  0  0  0  0  0  0  0  0  0  0  0
    5.9733   62.4627   70.4705 H   0  0  0  0  0  0  0  0  0  0  0  0
    4.1980   62.1888   70.4705 H   0  0  0  0  0  0  0  0  0  0  0  0
   -2.9275   57.5077   76.4695 H   0  0  0  0  0  0  0  0  0  0  0  0
   -3.3405   58.3632   74.9449 H   0  0  0  0  0  0  0  0  0  0  0  0
   -2.0754   57.0879   74.9449 H   0  0  0  0  0  0  0  0  0  0  0  0
   -6.7323   65.4491   81.0212 H   0  0  0  0  0  0  0  0  0  0  0  0
   -6.4295   63.7935   80.4295 H   0  0  0  0  0  0  0  0  0  0  0  0
    0.8079   65.6412   76.0311 H   0  0  0  0  0  0  0  0  0  0  0  0
    1.5236   64.8404   74.5912 H   0  0  0  0  0  0  0  0  0  0  0  0
   -0.2118   65.3040   74.5912 H   0  0  0  0  0  0  0  0  0  0  0  0
   -7.6061   63.0491   79.3310 H   0  0  0  0  0  0  0  0  0  0  0  0
   -8.8013   65.2765   77.6202 H   0  0  0  0  0  0  0  0  0  0  0  0
   -7.1943   65.2311   74.0873 H   0  0  0  0  0  0  0  0  0  0  0  0
   -7.0587   63.5651   73.2824 H   0  0  0  0  0  0  0  0  0  0  0  0
   -9.7007   64.3168   74.3853 H   0  0  0  0  0  0  0  0  0  0  0  0
   -9.1510   65.1865   72.9129 H   0  0  0  0  0  0  0  0  0  0  0  0
   -9.2479   63.3929   72.9129 H   0  0  0  0  0  0  0  0  0  0  0  0
  2  1  2  0
  3  2  1  0
  4  3  1  0
  5  4  1  0
  6  4  1  0
  7  6  1  0
  8  7  1  0
  8  3  2  0
  9  8  1  0
 10  9  2  0
 10  1  1  0
  7 11  1  1
 12 11  1  0
 13 12  1  0
 14  7  1  0
 14 13  1  0
 15 14  1  0
 16 15  1  0
 17 16  1  0
 17  6  1  0
 18 15  1  0
 19 18  2  0
 20 13  1  0
 20 19  1  0
 21 10  1  0
 22 21  1  0
 23 22  1  0
 24 23  1  0
 25 24  1  0
 26 25  1  0
 27 26  1  0
 28 27  1  0
 29 28  2  0
 29 21  1  0
 30 29  1  0
 31 30  1  0
 32 31  2  0
 32 28  1  0
 33 32  1  0
 34 33  2  0
 35 34  1  0
 36 35  2  0
 36 31  1  0
 37 25  1  0
 38 37  1  0
 39 38  1  0
 39 23  1  0
 38 40  1  6
 41 38  1  0
 42 41  1  0
 21 43  1  6
 44 43  2  0
 45 43  1  0
 46 45  1  0
 47 17  1  0
 48 47  2  0
 49 47  1  0
 51 50  1  0
 51  1  1  0
 17 52  1  1
 53 16  1  0
 15 54  1  6
 55 54  1  0
  2 56  1  0
  5 57  1  0
  5 58  1  0
  5 59  1  0
  6 60  1  1
  9 61  1  0
 11 62  1  0
 11 63  1  0
 12 64  1  0
 12 65  1  0
 13 66  1  6
 14 67  1  6
 16 68  1  6
 18 69  1  0
 19 70  1  0
 20 71  1  0
 20 72  1  0
 22 73  1  0
 22 74  1  0
 23 75  1  1
 24 76  1  0
 24 77  1  0
 25 78  1  6
 26 79  1  0
 26 80  1  0
 27 81  1  0
 27 82  1  0
 30 83  1  0
 33 84  1  0
 34 85  1  0
 35 86  1  0
 36 87  1  0
 37 88  1  0
 37 89  1  0
 39 90  1  0
 39 91  1  0
 40 92  1  0
 41 93  1  0
 41 94  1  0
 42 95  1  0
 42 96  1  0
 42 97  1  0
 46 98  1  0
 46 99  1  0
 46100  1  0
 49101  1  0
 49102  1  0
 50103  1  0
 50104  1  0
 50105  1  0
 52106  1  0
 53107  1  0
 54108  1  0
 54109  1  0
 55110  1  0
 55111  1  0
 55112  1  0
M  CHG  2  13   1  25   1
M  END
>  <score>  (6) 
-7.283

$$$$
=
     RDKit          3D

112120  0  0  0  0  0  0  0  0999 V2000
   -0.5990   63.4470   75.6460 C   0  0  0  0  0  0  0  0  0  0  0  0
    0.6110   63.0510   75.0620 C   0  0  0  0  0  0  0  0  0  0  0  0
    0.9550   61.7100   75.0070 C   0  0  0  0  0  0  0  0  0  0  0  0
    2.0980   61.1360   74.3930 N   0  0  0  0  0  0  0  0  0  0  0  0
    2.6060   61.8960   73.2410 C   0  0  0  0  0  0  0  0  0  0  0  0
    1.6940   59.7050   74.1900 C   0  0  2  0  0  0  0  0  0  0  0  0
    0.7920   59.3890   75.4300 C   0  0  1  0  0  0  0  0  0  0  0  0
    0.1330   60.7560   75.6020 C   0  0  0  0  0  0  0  0  0  0  0  0
   -1.0700   61.1310   76.2080 C   0  0  0  0  0  0  0  0  0  0  0  0
   -1.4640   62.4930   76.2540 C   0  0  0  0  0  0  0  0  0  0  0  0
   -0.1980   58.2560   75.2050 C   0  0  0  0  0  0  0  0  0  0  0  0
   -0.5900   57.7600   76.5780 C   0  0  0  0  0  0  0  0  0  0  0  0
    0.5160   58.1750   77.5250 N   0  0  2  0  0  4  0  0  0  0  0  0
    1.5710   59.0250   76.7240 C   0  0  1  0  0  0  0  0  0  0  0  0
    2.9940   58.3450   76.6130 C   0  0  2  0  0  0  0  0  0  0  0  0
    3.7490   58.7820   75.3060 C   0  0  2  0  0  0  0  0  0  0  0  0
    2.8760   58.7190   74.0450 C   0  0  2  0  0  0  0  0  0  0  0  0
    2.8840   56.8150   76.7120 C   0  0  0  0  0  0  0  0  0  0  0  0
    1.9990   56.2130   77.5170 C   0  0  0  0  0  0  0  0  0  0  0  0
    1.0400   57.0100   78.3150 C   0  0  0  0  0  0  0  0  0  0  0  0
   -2.8820   62.9100   76.8210 C   0  0  1  0  0  0  0  0  0  0  0  0
   -3.4870   64.1600   76.0000 C   0  0  0  0  0  0  0  0  0  0  0  0
   -5.0020   64.3960   76.1670 C   0  0  1  0  0  0  0  0  0  0  0  0
   -5.4350   64.7990   77.5690 C   0  0  0  0  0  0  0  0  0  0  0  0
   -6.8490   64.3200   77.7470 N   0  0  2  0  0  4  0  0  0  0  0  0
   -7.0240   62.9720   78.4500 C   0  0  0  0  0  0  0  0  0  0  0  0
   -5.7570   62.1080   78.6680 C   0  0  0  0  0  0  0  0  0  0  0  0
   -5.1520   61.4840   77.4330 C   0  0  0  0  0  0  0  0  0  0  0  0
   -3.9730   61.7920   76.7260 C   0  0  0  0  0  0  0  0  0  0  0  0
   -3.9180   60.8990   75.6670 N   0  0  0  0  0  0  0  0  0  0  0  0
   -4.9930   60.0530   75.6560 C   0  0  0  0  0  0  0  0  0  0  0  0
   -5.7730   60.3720   76.7580 C   0  0  0  0  0  0  0  0  0  0  0  0
   -6.9400   59.6090   76.9880 C   0  0  0  0  0  0  0  0  0  0  0  0
   -7.2780   58.5750   76.1080 C   0  0  0  0  0  0  0  0  0  0  0  0
   -6.4740   58.2890   75.0100 C   0  0  0  0  0  0  0  0  0  0  0  0
   -5.3100   59.0210   74.7640 C   0  0  0  0  0  0  0  0  0  0  0  0
   -7.6990   64.4500   76.4620 C   0  0  0  0  0  0  0  0  0  0  0  0
   -7.1590   65.6080   75.5620 C   0  0  2  0  0  0  0  0  0  0  0  0
   -5.6580   65.3830   75.1830 C   0  0  0  0  0  0  0  0  0  0  0  0
   -7.2250   66.8040   76.3590 O   0  0  0  0  0  0  0  0  0  0  0  0
   -8.0050   65.7970   74.2860 C   0  0  0  0  0  0  0  0  0  0  0  0
   -7.9900   64.6090   73.3320 C   0  0  0  0  0  0  0  0  0  0  0  0
   -2.6010   63.3620   78.2810 C   0  0  0  0  0  0  0  0  0  0  0  0
   -2.5730   64.5460   78.6140 O   0  0  0  0  0  0  0  0  0  0  0  0
   -2.3660   62.3320   79.1340 O   0  0  0  0  0  0  0  0  0  0  0  0
   -2.4940   62.6490   80.5220 C   0  0  0  0  0  0  0  0  0  0  0  0
    3.7020   58.9790   72.7710 C   0  0  0  0  0  0  0  0  0  0  0  0
    4.6590   59.7460   72.7320 O   0  0  0  0  0  0  0  0  0  0  0  0
    3.3240   58.2770   71.6590 N   0  0  0  0  0  0  0  0  0  0  0  0
   -0.4170   65.6830   74.7720 C   0  0  0  0  0  0  0  0  0  0  0  0
   -1.0210   64.7480   75.6580 O   0  0  0  0  0  0  0  0  0  0  0  0
    2.3860   57.3740   73.8640 O   0  0  0  0  0  0  0  0  0  0  0  0
    4.9090   57.9420   75.1520 O   0  0  0  0  0  0  0  0  0  0  0  0
    3.8890   58.7420   77.8520 C   0  0  0  0  0  0  0  0  0  0  0  0
    3.5670   60.0630   78.5480 C   0  0  0  0  0  0  0  0  0  0  0  0
    1.2913   63.8082   74.6451 H   0  0  0  0  0  0  0  0  0  0  0  0
    3.1841   62.7609   73.5984 H   0  0  0  0  0  0  0  0  0  0  0  0
    3.2536   61.2487   72.6314 H   0  0  0  0  0  0  0  0  0  0  0  0
    1.7602   62.2469   72.6314 H   0  0  0  0  0  0  0  0  0  0  0  0
    1.1684   59.5741   73.2326 H   0  0  0  0  0  0  0  0  0  0  0  0
   -1.7177   60.3618   76.6538 H   0  0  0  0  0  0  0  0  0  0  0  0
   -1.0830   58.6244   74.6655 H   0  0  0  0  0  0  0  0  0  0  0  0
    0.2443   57.4514   74.5992 H   0  0  0  0  0  0  0  0  0  0  0  0
   -1.5432   58.2140   76.8868 H   0  0  0  0  0  0  0  0  0  0  0  0
   -0.7227   56.6680   76.5803 H   0  0  0  0  0  0  0  0  0  0  0  0
    0.1639   58.7966   78.2670 H   0  0  0  0  0  0  0  0  0  0  0  0
    1.9114   59.9471   77.2179 H   0  0  0  0  0  0  0  0  0  0  0  0
    4.0345   59.8383   75.4192 H   0  0  0  0  0  0  0  0  0  0  0  0
    3.5550   56.1934   76.1009 H   0  0  0  0  0  0  0  0  0  0  0  0
    1.9845   55.1153   77.5859 H   0  0  0  0  0  0  0  0  0  0  0  0
    1.5473   57.3858   79.2158 H   0  0  0  0  0  0  0  0  0  0  0  0
    0.1926   56.3645   78.5894 H   0  0  0  0  0  0  0  0  0  0  0  0
   -2.9641   65.0687   76.3330 H   0  0  0  0  0  0  0  0  0  0  0  0
   -3.3345   63.9239   74.9365 H   0  0  0  0  0  0  0  0  0  0  0  0
   -5.3672   63.3851   75.9329 H   0  0  0  0  0  0  0  0  0  0  0  0
   -4.7797   64.3283   78.3167 H   0  0  0  0  0  0  0  0  0  0  0  0
   -5.3701   65.8890   77.7018 H   0  0  0  0  0  0  0  0  0  0  0  0
   -7.2345   64.9870   78.4306 H   0  0  0  0  0  0  0  0  0  0  0  0
   -7.4611   63.1711   79.4396 H   0  0  0  0  0  0  0  0  0  0  0  0
   -7.6521   62.3803   77.7679 H   0  0  0  0  0  0  0  0  0  0  0  0
   -4.9906   62.7476   79.1301 H   0  0  0  0  0  0  0  0  0  0  0  0
   -6.0818   61.2639   79.2940 H   0  0  0  0  0  0  0  0  0  0  0  0
   -3.1585   60.8753   74.9716 H   0  0  0  0  0  0  0  0  0  0  0  0
   -7.5802   59.8271   77.8555 H   0  0  0  0  0  0  0  0  0  0  0  0
   -8.1878   57.9831   76.2863 H   0  0  0  0  0  0  0  0  0  0  0  0
   -6.7584   57.4756   74.3262 H   0  0  0  0  0  0  0  0  0  0  0  0
   -4.6660   58.7951   73.9013 H   0  0  0  0  0  0  0  0  0  0  0  0
   -7.6538   63.5048   75.9012 H   0  0  0  0  0  0  0  0  0  0  0  0
   -8.7381   64.6746   76.7446 H   0  0  0  0  0  0  0  0  0  0  0  0
   -5.5982   64.9734   74.1638 H   0  0  0  0  0  0  0  0  0  0  0  0
   -5.1274   66.3453   75.2333 H   0  0  0  0  0  0  0  0  0  0  0  0
   -7.2116   66.5621   77.3189 H   0  0  0  0  0  0  0  0  0  0  0  0
   -9.0464   65.9803   74.5891 H   0  0  0  0  0  0  0  0  0  0  0  0
   -7.5593   66.6410   73.7392 H   0  0  0  0  0  0  0  0  0  0  0  0
   -7.9782   63.6738   73.9111 H   0  0  0  0  0  0  0  0  0  0  0  0
   -8.8886   64.6364   72.6981 H   0  0  0  0  0  0  0  0  0  0  0  0
   -7.0924   64.6591   72.6981 H   0  0  0  0  0  0  0  0  0  0  0  0
   -2.1498   61.7966   81.1260 H   0  0  0  0  0  0  0  0  0  0  0  0
   -1.8825   63.5335   80.7540 H   0  0  0  0  0  0  0  0  0  0  0  0
   -3.5482   62.8609   80.7540 H   0  0  0  0  0  0  0  0  0  0  0  0
    3.8335   58.4028   70.7727 H   0  0  0  0  0  0  0  0  0  0  0  0
    2.5300   57.6228   71.7082 H   0  0  0  0  0  0  0  0  0  0  0  0
    0.0891   66.4665   75.3551 H   0  0  0  0  0  0  0  0  0  0  0  0
    0.3179   65.1654   74.1379 H   0  0  0  0  0  0  0  0  0  0  0  0
   -1.1910   66.1401   74.1379 H   0  0  0  0  0  0  0  0  0  0  0  0
    2.2339   56.9564   74.7486 H   0  0  0  0  0  0  0  0  0  0  0  0
    5.2556   57.6910   76.0448 H   0  0  0  0  0  0  0  0  0  0  0  0
    3.7932   57.9413   78.6001 H   0  0  0  0  0  0  0  0  0  0  0  0
    4.9006   58.8759   77.4411 H   0  0  0  0  0  0  0  0  0  0  0  0
    3.6016   59.9210   79.6382 H   0  0  0  0  0  0  0  0  0  0  0  0
    4.3063   60.8224   78.2535 H   0  0  0  0  0  0  0  0  0  0  0  0
    2.5612   60.3970   78.2535 H   0  0  0  0  0  0  0  0  0  0  0  0
  2  1  2  0
  3  2  1  0
  4  3  1  0
  5  4  1  0
  6  4  1  0
  7  6  1  0
  8  7  1  0
  8  3  2  0
  9  8  1  0
 10  9  2  0
 10  1  1  0
  7 11  1  6
 12 11  1  0
 13 12  1  0
 14  7  1  0
 14 13  1  0
 15 14  1  0
 16 15  1  0
 17 16  1  0
 17  6  1  0
 18 15  1  0
 19 18  2  0
 20 13  1  0
 20 19  1  0
 21 10  1  0
 22 21  1  0
 23 22  1  0
 24 23  1  0
 25 24  1  0
 26 25  1  0
 27 26  1  0
 28 27  1  0
 29 28  2  0
 29 21  1  0
 30 29  1  0
 31 30  1  0
 32 31  2  0
 32 28  1  0
 33 32  1  0
 34 33  2  0
 35 34  1  0
 36 35  2  0
 36 31  1  0
 37 25  1  0
 38 37  1  0
 39 38  1  0
 39 23  1  0
 38 40  1  1
 41 38  1  0
 42 41  1  0
 21 43  1  1
 44 43  2  0
 45 43  1  0
 46 45  1  0
 47 17  1  0
 48 47  2  0
 49 47  1  0
 51 50  1  0
 51  1  1  0
 17 52  1  6
 53 16  1  0
 15 54  1  1
 55 54  1  0
  2 56  1  0
  5 57  1  0
  5 58  1  0
  5 59  1  0
  6 60  1  6
  9 61  1  0
 11 62  1  0
 11 63  1  0
 12 64  1  0
 12 65  1  0
 13 66  1  1
 14 67  1  1
 16 68  1  1
 18 69  1  0
 19 70  1  0
 20 71  1  0
 20 72  1  0
 22 73  1  0
 22 74  1  0
 23 75  1  6
 24 76  1  0
 24 77  1  0
 25 78  1  1
 26 79  1  0
 26 80  1  0
 27 81  1  0
 27 82  1  0
 30 83  1  0
 33 84  1  0
 34 85  1  0
 35 86  1  0
 36 87  1  0
 37 88  1  0
 37 89  1  0
 39 90  1  0
 39 91  1  0
 40 92  1  0
 41 93  1  0
 41 94  1  0
 42 95  1  0
 42 96  1  0
 42 97  1  0
 46 98  1  0
 46 99  1  0
 46100  1  0
 49101  1  0
 49102  1  0
 50103  1  0
 50104  1  0
 50105  1  0
 52106  1  0
 53107  1  0
 54108  1  0
 54109  1  0
 55110  1  0
 55111  1  0
 55112  1  0
M  CHG  2  13   1  25   1
M  END
>  <score>  (7) 
-7.279

$$$$
=
     RDKit          3D

112120  0  0  0  0  0  0  0  0999 V2000
   -3.2950   59.1420   78.5780 C   0  0  0  0  0  0  0  0  0  0  0  0
   -2.0540   58.4940   78.5760 C   0  0  0  0  0  0  0  0  0  0  0  0
   -1.0160   58.9740   77.7940 C   0  0  0  0  0  0  0  0  0  0  0  0
    0.3140   58.4850   77.7280 N   0  0  0  0  0  0  0  0  0  0  0  0
    0.7880   57.8660   78.9740 C   0  0  0  0  0  0  0  0  0  0  0  0
    1.0780   59.6490   77.1660 C   0  0  2  0  0  0  0  0  0  0  0  0
    0.0660   60.3230   76.1800 C   0  0  1  0  0  0  0  0  0  0  0  0
   -1.2270   60.0610   76.9480 C   0  0  0  0  0  0  0  0  0  0  0  0
   -2.4650   60.7110   76.9200 C   0  0  0  0  0  0  0  0  0  0  0  0
   -3.5380   60.2610   77.7310 C   0  0  0  0  0  0  0  0  0  0  0  0
    0.3380   61.7980   75.9240 C   0  0  0  0  0  0  0  0  0  0  0  0
   -0.3580   62.1350   74.6260 C   0  0  0  0  0  0  0  0  0  0  0  0
   -0.5400   60.8330   73.8750 N   0  0  2  0  0  4  0  0  0  0  0  0
   -0.0190   59.6560   74.7800 C   0  0  1  0  0  0  0  0  0  0  0  0
    1.2440   58.9050   74.1950 C   0  0  2  0  0  0  0  0  0  0  0  0
    2.1380   58.2950   75.3330 C   0  0  2  0  0  0  0  0  0  0  0  0
    2.4140   59.2710   76.4850 C   0  0  2  0  0  0  0  0  0  0  0  0
    2.0580   59.8300   73.2760 C   0  0  0  0  0  0  0  0  0  0  0  0
    1.4770   60.7310   72.4740 C   0  0  0  0  0  0  0  0  0  0  0  0
    0.0080   60.9120   72.4800 C   0  0  0  0  0  0  0  0  0  0  0  0
   -4.8990   61.0690   77.8020 C   0  0  1  0  0  0  0  0  0  0  0  0
   -5.0690   62.0260   76.5150 C   0  0  0  0  0  0  0  0  0  0  0  0
   -6.4990   62.5400   76.2530 C   0  0  1  0  0  0  0  0  0  0  0  0
   -7.0480   63.4750   77.3200 C   0  0  0  0  0  0  0  0  0  0  0  0
   -8.5430   63.3180   77.3160 N   0  0  2  0  0  4  0  0  0  0  0  0
   -9.1260   62.3500   78.3480 C   0  0  0  0  0  0  0  0  0  0  0  0
   -8.1350   61.4320   79.1070 C   0  0  0  0  0  0  0  0  0  0  0  0
   -7.4980   60.3250   78.3030 C   0  0  0  0  0  0  0  0  0  0  0  0
   -6.1830   60.1740   77.8200 C   0  0  0  0  0  0  0  0  0  0  0  0
   -6.1620   58.9690   77.1380 N   0  0  0  0  0  0  0  0  0  0  0  0
   -7.3840   58.3520   77.1500 C   0  0  0  0  0  0  0  0  0  0  0  0
   -8.2370   59.1580   77.8900 C   0  0  0  0  0  0  0  0  0  0  0  0
   -9.5670   58.7200   78.0790 C   0  0  0  0  0  0  0  0  0  0  0  0
   -9.9840   57.5080   77.5160 C   0  0  0  0  0  0  0  0  0  0  0  0
   -9.1010   56.7290   76.7760 C   0  0  0  0  0  0  0  0  0  0  0  0
   -7.7790   57.1360   76.5820 C   0  0  0  0  0  0  0  0  0  0  0  0
   -9.1270   63.1170   75.8980 C   0  0  0  0  0  0  0  0  0  0  0  0
   -8.2050   63.7830   74.8260 C   0  0  2  0  0  0  0  0  0  0  0  0
   -6.7520   63.2050   74.8860 C   0  0  0  0  0  0  0  0  0  0  0  0
   -8.1270   65.1770   75.1690 O   0  0  0  0  0  0  0  0  0  0  0  0
   -8.7730   63.6380   73.4000 C   0  0  0  0  0  0  0  0  0  0  0  0
   -8.6170   62.2500   72.7900 C   0  0  0  0  0  0  0  0  0  0  0  0
   -4.7580   61.9560   79.0690 C   0  0  0  0  0  0  0  0  0  0  0  0
   -5.1810   61.6090   80.1710 O   0  0  0  0  0  0  0  0  0  0  0  0
   -4.1540   63.1490   78.8340 O   0  0  0  0  0  0  0  0  0  0  0  0
   -3.0230   63.4330   79.6620 C   0  0  0  0  0  0  0  0  0  0  0  0
    3.4370   58.6960   77.4830 C   0  0  0  0  0  0  0  0  0  0  0  0
    3.7700   57.5150   77.5030 O   0  0  0  0  0  0  0  0  0  0  0  0
    3.9920   59.5930   78.3540 N   0  0  0  0  0  0  0  0  0  0  0  0
   -4.3390   57.4330   79.9170 C   0  0  0  0  0  0  0  0  0  0  0  0
   -4.3280   58.7550   79.3890 O   0  0  0  0  0  0  0  0  0  0  0  0
    3.0660   60.4520   75.9720 O   0  0  0  0  0  0  0  0  0  0  0  0
    3.3780   57.8550   74.7460 O   0  0  0  0  0  0  0  0  0  0  0  0
    0.7900   57.7290   73.2440 C   0  0  0  0  0  0  0  0  0  0  0  0
   -0.3060   56.7990   73.7620 C   0  0  0  0  0  0  0  0  0  0  0  0
   -1.9024   57.5996   79.1982 H   0  0  0  0  0  0  0  0  0  0  0  0
    0.3717   58.4096   79.8349 H   0  0  0  0  0  0  0  0  0  0  0  0
    0.4604   56.8165   79.0098 H   0  0  0  0  0  0  0  0  0  0  0  0
    1.8866   57.9086   79.0098 H   0  0  0  0  0  0  0  0  0  0  0  0
    1.4129   60.3260   77.9657 H   0  0  0  0  0  0  0  0  0  0  0  0
   -2.6081   61.5807   76.2618 H   0  0  0  0  0  0  0  0  0  0  0  0
   -0.0676   62.4087   76.7441 H   0  0  0  0  0  0  0  0  0  0  0  0
    1.4172   62.0027   75.8655 H   0  0  0  0  0  0  0  0  0  0  0  0
   -1.3365   62.5946   74.8294 H   0  0  0  0  0  0  0  0  0  0  0  0
    0.2330   62.8510   74.0361 H   0  0  0  0  0  0  0  0  0  0  0  0
   -1.5354   60.6324   73.7022 H   0  0  0  0  0  0  0  0  0  0  0  0
   -0.6743   58.7742   74.8347 H   0  0  0  0  0  0  0  0  0  0  0  0
    1.5868   57.4541   75.7792 H   0  0  0  0  0  0  0  0  0  0  0  0
    3.1550   59.7489   73.2773 H   0  0  0  0  0  0  0  0  0  0  0  0
    2.0980   61.3432   71.8035 H   0  0  0  0  0  0  0  0  0  0  0  0
   -0.4537   60.1236   71.8674 H   0  0  0  0  0  0  0  0  0  0  0  0
   -0.2234   61.9058   72.0693 H   0  0  0  0  0  0  0  0  0  0  0  0
   -4.4152   62.8996   76.6538 H   0  0  0  0  0  0  0  0  0  0  0  0
   -4.8060   61.4087   75.6433 H   0  0  0  0  0  0  0  0  0  0  0  0
   -7.0396   61.5822   76.2741 H   0  0  0  0  0  0  0  0  0  0  0  0
   -6.6423   63.2029   78.3056 H   0  0  0  0  0  0  0  0  0  0  0  0
   -6.7625   64.5169   77.1131 H   0  0  0  0  0  0  0  0  0  0  0  0
   -8.8719   64.2351   77.6502 H   0  0  0  0  0  0  0  0  0  0  0  0
   -9.6597   62.9510   79.0990 H   0  0  0  0  0  0  0  0  0  0  0  0
   -9.7542   61.6618   77.7634 H   0  0  0  0  0  0  0  0  0  0  0  0
   -7.3277   62.0656   79.5031 H   0  0  0  0  0  0  0  0  0  0  0  0
   -8.7355   60.9262   79.8774 H   0  0  0  0  0  0  0  0  0  0  0  0
   -5.3261   58.5828   76.6764 H   0  0  0  0  0  0  0  0  0  0  0  0
  -10.2712   59.3283   78.6656 H   0  0  0  0  0  0  0  0  0  0  0  0
  -11.0203   57.1685   77.6603 H   0  0  0  0  0  0  0  0  0  0  0  0
   -9.4478   55.7812   76.3384 H   0  0  0  0  0  0  0  0  0  0  0  0
   -7.0734   56.5221   76.0031 H   0  0  0  0  0  0  0  0  0  0  0  0
   -9.2060   62.0400   75.6885 H   0  0  0  0  0  0  0  0  0  0  0  0
  -10.1208   63.5864   75.8531 H   0  0  0  0  0  0  0  0  0  0  0  0
   -6.6254   62.4572   74.0893 H   0  0  0  0  0  0  0  0  0  0  0  0
   -6.0334   64.0263   74.7483 H   0  0  0  0  0  0  0  0  0  0  0  0
   -8.1215   65.2746   76.1542 H   0  0  0  0  0  0  0  0  0  0  0  0
   -9.8457   63.8794   73.4324 H   0  0  0  0  0  0  0  0  0  0  0  0
   -8.1939   64.3236   72.7639 H   0  0  0  0  0  0  0  0  0  0  0  0
   -8.5331   61.5036   73.5937 H   0  0  0  0  0  0  0  0  0  0  0  0
   -9.4952   62.0220   72.1680 H   0  0  0  0  0  0  0  0  0  0  0  0
   -7.7101   62.2226   72.1680 H   0  0  0  0  0  0  0  0  0  0  0  0
   -3.3154   63.3596   80.7199 H   0  0  0  0  0  0  0  0  0  0  0  0
   -2.2231   62.7078   79.4515 H   0  0  0  0  0  0  0  0  0  0  0  0
   -2.6606   64.4500   79.4515 H   0  0  0  0  0  0  0  0  0  0  0  0
    4.6837   59.2762   79.0484 H   0  0  0  0  0  0  0  0  0  0  0  0
    3.7182   60.5852   78.3155 H   0  0  0  0  0  0  0  0  0  0  0  0
   -4.3386   57.4771   81.0161 H   0  0  0  0  0  0  0  0  0  0  0  0
   -5.2415   56.9076   79.5714 H   0  0  0  0  0  0  0  0  0  0  0  0
   -3.4453   56.8927   79.5714 H   0  0  0  0  0  0  0  0  0  0  0  0
    3.3754   61.0125   76.7271 H   0  0  0  0  0  0  0  0  0  0  0  0
    4.0204   57.6270   75.4640 H   0  0  0  0  0  0  0  0  0  0  0  0
    0.4270   58.1804   72.3088 H   0  0  0  0  0  0  0  0  0  0  0  0
    1.6789   57.0898   73.1374 H   0  0  0  0  0  0  0  0  0  0  0  0
   -0.3009   56.8033   74.8620 H   0  0  0  0  0  0  0  0  0  0  0  0
   -1.2842   57.1469   73.3985 H   0  0  0  0  0  0  0  0  0  0  0  0
   -0.1220   55.7772   73.3985 H   0  0  0  0  0  0  0  0  0  0  0  0
  2  1  2  0
  3  2  1  0
  4  3  1  0
  5  4  1  0
  6  4  1  0
  7  6  1  0
  8  7  1  0
  8  3  2  0
  9  8  1  0
 10  9  2  0
 10  1  1  0
  7 11  1  6
 12 11  1  0
 13 12  1  0
 14  7  1  0
 14 13  1  0
 15 14  1  0
 16 15  1  0
 17 16  1  0
 17  6  1  0
 18 15  1  0
 19 18  2  0
 20 13  1  0
 20 19  1  0
 21 10  1  0
 22 21  1  0
 23 22  1  0
 24 23  1  0
 25 24  1  0
 26 25  1  0
 27 26  1  0
 28 27  1  0
 29 28  2  0
 29 21  1  0
 30 29  1  0
 31 30  1  0
 32 31  2  0
 32 28  1  0
 33 32  1  0
 34 33  2  0
 35 34  1  0
 36 35  2  0
 36 31  1  0
 37 25  1  0
 38 37  1  0
 39 38  1  0
 39 23  1  0
 38 40  1  1
 41 38  1  0
 42 41  1  0
 21 43  1  1
 44 43  2  0
 45 43  1  0
 46 45  1  0
 47 17  1  0
 48 47  2  0
 49 47  1  0
 51 50  1  0
 51  1  1  0
 17 52  1  6
 53 16  1  0
 15 54  1  6
 55 54  1  0
  2 56  1  0
  5 57  1  0
  5 58  1  0
  5 59  1  0
  6 60  1  1
  9 61  1  0
 11 62  1  0
 11 63  1  0
 12 64  1  0
 12 65  1  0
 13 66  1  6
 14 67  1  1
 16 68  1  1
 18 69  1  0
 19 70  1  0
 20 71  1  0
 20 72  1  0
 22 73  1  0
 22 74  1  0
 23 75  1  6
 24 76  1  0
 24 77  1  0
 25 78  1  1
 26 79  1  0
 26 80  1  0
 27 81  1  0
 27 82  1  0
 30 83  1  0
 33 84  1  0
 34 85  1  0
 35 86  1  0
 36 87  1  0
 37 88  1  0
 37 89  1  0
 39 90  1  0
 39 91  1  0
 40 92  1  0
 41 93  1  0
 41 94  1  0
 42 95  1  0
 42 96  1  0
 42 97  1  0
 46 98  1  0
 46 99  1  0
 46100  1  0
 49101  1  0
 49102  1  0
 50103  1  0
 50104  1  0
 50105  1  0
 52106  1  0
 53107  1  0
 54108  1  0
 54109  1  0
 55110  1  0
 55111  1  0
 55112  1  0
M  CHG  2  13   1  25   1
M  END
>  <score>  (8) 
-6.773

$$$$
