=
     RDKit          3D

 83 88  0  0  0  0  0  0  0  0999 V2000
    2.2920   61.4490   69.3770 C   0  0  0  0  0  0  0  0  0  0  0  0
    2.4180   62.9480   69.4770 C   0  0  0  0  0  0  0  0  0  0  0  0
    3.2580   63.5250   68.7840 O   0  0  0  0  0  0  0  0  0  0  0  0
    1.5630   63.6360   70.3330 N   0  0  0  0  0  0  0  0  0  0  0  0
    0.5230   63.0150   71.1650 C   0  0  0  0  0  0  0  0  0  0  0  0
    0.4350   63.5040   72.6160 C   0  0  0  0  0  0  0  0  0  0  0  0
   -0.0060   62.4150   73.5870 C   0  0  0  0  0  0  0  0  0  0  0  0
    1.3340   61.9400   74.7390 S   0  0  0  0  0  0  0  0  0  0  0  0
    2.0350   60.5410   73.8350 C   0  0  0  0  0  0  0  0  0  0  0  0
    1.4680   59.2630   73.9630 C   0  0  0  0  0  0  0  0  0  0  0  0
    0.2580   58.9130   74.7930 C   0  0  0  0  0  0  0  0  0  0  0  0
   -0.6740   57.9440   74.0540 C   0  0  0  0  0  0  0  0  0  0  0  0
    0.0390   56.8020   73.3190 C   0  0  0  0  0  0  0  0  0  0  0  0
    1.5560   56.8160   73.4750 C   0  0  0  0  0  0  0  0  0  0  0  0
    2.0970   58.2110   73.2990 C   0  0  0  0  0  0  0  0  0  0  0  0
    3.1910   58.3590   72.5240 N   0  0  0  0  0  0  0  0  0  0  0  0
    3.6990   59.5870   72.3590 C   0  0  0  0  0  0  0  0  0  0  0  0
    3.1650   60.7340   72.9860 C   0  0  0  0  0  0  0  0  0  0  0  0
    3.7920   61.9830   72.7270 C   0  0  0  0  0  0  0  0  0  0  0  0
    4.9030   62.0890   71.8920 C   0  0  0  0  0  0  0  0  0  0  0  0
    5.4150   60.9490   71.2920 C   0  0  0  0  0  0  0  0  0  0  0  0
    4.8070   59.7160   71.5320 C   0  0  0  0  0  0  0  0  0  0  0  0
    1.8800   65.0460   70.6090 C   0  0  0  0  0  0  0  0  0  0  0  0
    0.8930   66.0350   69.9870 C   0  0  0  0  0  0  0  0  0  0  0  0
    1.5070   67.3820   69.5820 C   0  0  0  0  0  0  0  0  0  0  0  0
    1.0780   67.8750   68.1950 C   0  0  0  0  0  0  0  0  0  0  0  0
    1.4480   69.2950   68.0470 N   0  0  0  0  0  0  0  0  0  0  0  0
    2.6130   69.4460   67.2380 C   0  0  0  0  0  0  0  0  0  0  0  0
    2.6120   69.0700   65.8880 C   0  0  0  0  0  0  0  0  0  0  0  0
    1.4110   68.5800   65.1220 C   0  0  0  0  0  0  0  0  0  0  0  0
    1.7630   67.3950   64.2150 C   0  0  0  0  0  0  0  0  0  0  0  0
    3.0910   67.5390   63.4580 C   0  0  0  0  0  0  0  0  0  0  0  0
    3.8070   68.8630   63.7050 C   0  0  0  0  0  0  0  0  0  0  0  0
    3.8060   69.2020   65.1740 C   0  0  0  0  0  0  0  0  0  0  0  0
    4.9640   69.6400   65.7110 N   0  0  0  0  0  0  0  0  0  0  0  0
    4.9730   69.9710   67.0100 C   0  0  0  0  0  0  0  0  0  0  0  0
    3.8260   69.8970   67.8290 C   0  0  0  0  0  0  0  0  0  0  0  0
    3.9340   70.2960   69.1820 C   0  0  0  0  0  0  0  0  0  0  0  0
    5.1440   70.7340   69.7190 C   0  0  0  0  0  0  0  0  0  0  0  0
    6.2660   70.7900   68.9060 C   0  0  0  0  0  0  0  0  0  0  0  0
    6.1680   70.4120   67.5660 C   0  0  0  0  0  0  0  0  0  0  0  0
    2.2556   61.0159   70.3875 H   0  0  0  0  0  0  0  0  0  0  0  0
    1.3692   61.1939   68.8353 H   0  0  0  0  0  0  0  0  0  0  0  0
    3.1592   61.0435   68.8353 H   0  0  0  0  0  0  0  0  0  0  0  0
   -0.4487   63.2072   70.6866 H   0  0  0  0  0  0  0  0  0  0  0  0
    0.7937   61.9507   71.2289 H   0  0  0  0  0  0  0  0  0  0  0  0
    1.4265   63.8674   72.9240 H   0  0  0  0  0  0  0  0  0  0  0  0
   -0.3232   64.3002   72.6489 H   0  0  0  0  0  0  0  0  0  0  0  0
   -0.8617   62.7850   74.1708 H   0  0  0  0  0  0  0  0  0  0  0  0
   -0.2797   61.5263   72.9993 H   0  0  0  0  0  0  0  0  0  0  0  0
    0.5918   58.4425   75.7296 H   0  0  0  0  0  0  0  0  0  0  0  0
   -0.2997   59.8394   74.9950 H   0  0  0  0  0  0  0  0  0  0  0  0
   -1.3610   57.5012   74.7902 H   0  0  0  0  0  0  0  0  0  0  0  0
   -1.1883   58.5360   73.2826 H   0  0  0  0  0  0  0  0  0  0  0  0
   -0.3404   55.8473   73.7123 H   0  0  0  0  0  0  0  0  0  0  0  0
   -0.1721   56.9323   72.2473 H   0  0  0  0  0  0  0  0  0  0  0  0
    1.8191   56.4507   74.4787 H   0  0  0  0  0  0  0  0  0  0  0  0
    1.9966   56.1662   72.7045 H   0  0  0  0  0  0  0  0  0  0  0  0
    3.3892   62.8914   73.1987 H   0  0  0  0  0  0  0  0  0  0  0  0
    5.3694   63.0686   71.7107 H   0  0  0  0  0  0  0  0  0  0  0  0
    6.2928   61.0157   70.6325 H   0  0  0  0  0  0  0  0  0  0  0  0
    5.2189   58.8169   71.0503 H   0  0  0  0  0  0  0  0  0  0  0  0
    1.8790   65.1945   71.6989 H   0  0  0  0  0  0  0  0  0  0  0  0
    2.8624   65.2474   70.1569 H   0  0  0  0  0  0  0  0  0  0  0  0
    0.4624   65.5702   69.0878 H   0  0  0  0  0  0  0  0  0  0  0  0
    0.1428   66.2548   70.7609 H   0  0  0  0  0  0  0  0  0  0  0  0
    1.2062   68.1357   70.3246 H   0  0  0  0  0  0  0  0  0  0  0  0
    2.5964   67.2345   69.5428 H   0  0  0  0  0  0  0  0  0  0  0  0
    1.5848   67.2805   67.4206 H   0  0  0  0  0  0  0  0  0  0  0  0
   -0.0109   67.7643   68.0849 H   0  0  0  0  0  0  0  0  0  0  0  0
    0.9313   70.0775   68.4732 H   0  0  0  0  0  0  0  0  0  0  0  0
    0.6366   68.2645   65.8366 H   0  0  0  0  0  0  0  0  0  0  0  0
    1.0495   69.4026   64.4874 H   0  0  0  0  0  0  0  0  0  0  0  0
    1.8206   66.4910   64.8391 H   0  0  0  0  0  0  0  0  0  0  0  0
    0.9736   67.3435   63.4507 H   0  0  0  0  0  0  0  0  0  0  0  0
    3.7576   66.7219   63.7710 H   0  0  0  0  0  0  0  0  0  0  0  0
    2.8506   67.5031   62.3852 H   0  0  0  0  0  0  0  0  0  0  0  0
    4.8462   68.7829   63.3534 H   0  0  0  0  0  0  0  0  0  0  0  0
    3.2798   69.6583   63.1576 H   0  0  0  0  0  0  0  0  0  0  0  0
    3.0426   70.2599   69.8254 H   0  0  0  0  0  0  0  0  0  0  0  0
    5.2078   71.0319   70.7760 H   0  0  0  0  0  0  0  0  0  0  0  0
    7.2286   71.1307   69.3152 H   0  0  0  0  0  0  0  0  0  0  0  0
    7.0642   70.4648   66.9304 H   0  0  0  0  0  0  0  0  0  0  0  0
  2  1  1  0
  3  2  2  0
  4  2  1  0
  5  4  1  0
  6  5  1  0
  7  6  1  0
  8  7  1  0
  9  8  1  0
 10  9  1  0
 11 10  1  0
 12 11  1  0
 13 12  1  0
 14 13  1  0
 15 14  1  0
 15 10  2  0
 16 15  1  0
 17 16  2  0
 18 17  1  0
 18  9  2  0
 19 18  1  0
 20 19  2  0
 21 20  1  0
 22 17  1  0
 22 21  2  0
 23  4  1  0
 24 23  1  0
 25 24  1  0
 26 25  1  0
 27 26  1  0
 28 27  1  0
 29 28  1  0
 30 29  1  0
 31 30  1  0
 32 31  1  0
 33 32  1  0
 34 33  1  0
 34 29  2  0
 35 34  1  0
 36 35  2  0
 37 36  1  0
 37 28  2  0
 38 37  1  0
 39 38  2  0
 40 39  1  0
 41 36  1  0
 41 40  2  0
  1 42  1  0
  1 43  1  0
  1 44  1  0
  5 45  1  0
  5 46  1  0
  6 47  1  0
  6 48  1  0
  7 49  1  0
  7 50  1  0
 11 51  1  0
 11 52  1  0
 12 53  1  0
 12 54  1  0
 13 55  1  0
 13 56  1  0
 14 57  1  0
 14 58  1  0
 19 59  1  0
 20 60  1  0
 21 61  1  0
 22 62  1  0
 23 63  1  0
 23 64  1  0
 24 65  1  0
 24 66  1  0
 25 67  1  0
 25 68  1  0
 26 69  1  0
 26 70  1  0
 27 71  1  0
 30 72  1  0
 30 73  1  0
 31 74  1  0
 31 75  1  0
 32 76  1  0
 32 77  1  0
 33 78  1  0
 33 79  1  0
 38 80  1  0
 39 81  1  0
 40 82  1  0
 41 83  1  0
M  END
>  <score>  (1) 
-11.653

$$$$
=
     RDKit          3D

 83 88  0  0  0  0  0  0  0  0999 V2000
   -2.1930   68.7070   65.7370 C   0  0  0  0  0  0  0  0  0  0  0  0
   -2.1090   67.6790   66.8370 C   0  0  0  0  0  0  0  0  0  0  0  0
   -3.0830   66.9560   67.0550 O   0  0  0  0  0  0  0  0  0  0  0  0
   -0.9230   67.5640   67.5560 N   0  0  0  0  0  0  0  0  0  0  0  0
    0.2830   68.3740   67.3300 C   0  0  0  0  0  0  0  0  0  0  0  0
    0.1650   69.8690   67.6510 C   0  0  0  0  0  0  0  0  0  0  0  0
    1.4500   70.4610   68.2190 C   0  0  0  0  0  0  0  0  0  0  0  0
    2.6580   69.1650   68.6750 S   0  0  0  0  0  0  0  0  0  0  0  0
    4.0870   69.7250   67.7200 C   0  0  0  0  0  0  0  0  0  0  0  0
    5.1420   70.3940   68.3590 C   0  0  0  0  0  0  0  0  0  0  0  0
    5.2360   70.6920   69.8350 C   0  0  0  0  0  0  0  0  0  0  0  0
    6.6500   70.4460   70.3730 C   0  0  0  0  0  0  0  0  0  0  0  0
    7.7790   70.9600   69.4730 C   0  0  0  0  0  0  0  0  0  0  0  0
    7.2930   71.6540   68.2030 C   0  0  0  0  0  0  0  0  0  0  0  0
    6.1820   70.8660   67.5590 C   0  0  0  0  0  0  0  0  0  0  0  0
    6.2410   70.6890   66.2230 N   0  0  0  0  0  0  0  0  0  0  0  0
    5.2610   70.0020   65.6230 C   0  0  0  0  0  0  0  0  0  0  0  0
    4.1470   69.4830   66.3160 C   0  0  0  0  0  0  0  0  0  0  0  0
    3.1740   68.7670   65.5660 C   0  0  0  0  0  0  0  0  0  0  0  0
    3.2980   68.5820   64.1890 C   0  0  0  0  0  0  0  0  0  0  0  0
    4.3980   69.1060   63.5290 C   0  0  0  0  0  0  0  0  0  0  0  0
    5.3640   69.8070   64.2520 C   0  0  0  0  0  0  0  0  0  0  0  0
   -0.9560   66.7500   68.7810 C   0  0  0  0  0  0  0  0  0  0  0  0
    0.3810   66.0910   69.1220 C   0  0  0  0  0  0  0  0  0  0  0  0
    0.7840   66.1900   70.5990 C   0  0  0  0  0  0  0  0  0  0  0  0
    0.3320   65.0000   71.4540 C   0  0  0  0  0  0  0  0  0  0  0  0
    0.1800   63.8120   70.5950 N   0  0  0  0  0  0  0  0  0  0  0  0
    0.8890   62.6930   71.1250 C   0  0  0  0  0  0  0  0  0  0  0  0
    2.1860   62.3860   70.6920 C   0  0  0  0  0  0  0  0  0  0  0  0
    3.0040   63.2150   69.7360 C   0  0  0  0  0  0  0  0  0  0  0  0
    3.7440   62.3390   68.7180 C   0  0  0  0  0  0  0  0  0  0  0  0
    4.3860   61.0750   69.3070 C   0  0  0  0  0  0  0  0  0  0  0  0
    4.2150   60.9360   70.8160 C   0  0  0  0  0  0  0  0  0  0  0  0
    2.7970   61.2460   71.2220 C   0  0  0  0  0  0  0  0  0  0  0  0
    2.2040   60.4090   72.0980 N   0  0  0  0  0  0  0  0  0  0  0  0
    0.9520   60.6860   72.4900 C   0  0  0  0  0  0  0  0  0  0  0  0
    0.2400   61.8180   72.0380 C   0  0  0  0  0  0  0  0  0  0  0  0
   -1.0680   62.0360   72.5330 C   0  0  0  0  0  0  0  0  0  0  0  0
   -1.6650   61.1510   73.4300 C   0  0  0  0  0  0  0  0  0  0  0  0
   -0.9580   60.0350   73.8550 C   0  0  0  0  0  0  0  0  0  0  0  0
    0.3380   59.8180   73.3850 C   0  0  0  0  0  0  0  0  0  0  0  0
   -2.2750   69.7110   66.1789 H   0  0  0  0  0  0  0  0  0  0  0  0
   -1.2875   68.6531   65.1148 H   0  0  0  0  0  0  0  0  0  0  0  0
   -3.0778   68.5068   65.1148 H   0  0  0  0  0  0  0  0  0  0  0  0
    1.0877   67.9592   67.9548 H   0  0  0  0  0  0  0  0  0  0  0  0
    0.4754   68.3197   66.2483 H   0  0  0  0  0  0  0  0  0  0  0  0
   -0.0894   70.4069   66.7258 H   0  0  0  0  0  0  0  0  0  0  0  0
   -0.6149   69.9795   68.4188 H   0  0  0  0  0  0  0  0  0  0  0  0
    1.9030   71.1184   67.4623 H   0  0  0  0  0  0  0  0  0  0  0  0
    1.1925   71.0214   69.1299 H   0  0  0  0  0  0  0  0  0  0  0  0
    4.9684   71.7455   70.0039 H   0  0  0  0  0  0  0  0  0  0  0  0
    4.5451   70.0204   70.3656 H   0  0  0  0  0  0  0  0  0  0  0  0
    6.7363   70.9456   71.3492 H   0  0  0  0  0  0  0  0  0  0  0  0
    6.7734   69.3545   70.4314 H   0  0  0  0  0  0  0  0  0  0  0  0
    8.3821   71.6767   70.0497 H   0  0  0  0  0  0  0  0  0  0  0  0
    8.3573   70.0804   69.1538 H   0  0  0  0  0  0  0  0  0  0  0  0
    6.9228   72.6578   68.4588 H   0  0  0  0  0  0  0  0  0  0  0  0
    8.1322   71.7263   67.4955 H   0  0  0  0  0  0  0  0  0  0  0  0
    2.2999   68.3477   66.0857 H   0  0  0  0  0  0  0  0  0  0  0  0
    2.5298   68.0254   63.6322 H   0  0  0  0  0  0  0  0  0  0  0  0
    4.5089   68.9704   62.4430 H   0  0  0  0  0  0  0  0  0  0  0  0
    6.2342   70.2179   63.7193 H   0  0  0  0  0  0  0  0  0  0  0  0
   -1.2466   67.3988   69.6204 H   0  0  0  0  0  0  0  0  0  0  0  0
   -1.6772   65.9381   68.6060 H   0  0  0  0  0  0  0  0  0  0  0  0
    0.3165   65.0259   68.8547 H   0  0  0  0  0  0  0  0  0  0  0  0
    1.1499   66.6333   68.5522 H   0  0  0  0  0  0  0  0  0  0  0  0
    1.8806   66.2576   70.6538 H   0  0  0  0  0  0  0  0  0  0  0  0
    0.2818   67.0804   71.0051 H   0  0  0  0  0  0  0  0  0  0  0  0
    1.0850   64.7982   72.2301 H   0  0  0  0  0  0  0  0  0  0  0  0
   -0.6307   65.2345   71.9318 H   0  0  0  0  0  0  0  0  0  0  0  0
   -0.3682   63.7921   69.7232 H   0  0  0  0  0  0  0  0  0  0  0  0
    2.3349   63.9014   69.1964 H   0  0  0  0  0  0  0  0  0  0  0  0
    3.7527   63.7721   70.3183 H   0  0  0  0  0  0  0  0  0  0  0  0
    3.0250   62.0299   67.9450 H   0  0  0  0  0  0  0  0  0  0  0  0
    4.5681   62.9508   68.3222 H   0  0  0  0  0  0  0  0  0  0  0  0
    3.9285   60.1984   68.8252 H   0  0  0  0  0  0  0  0  0  0  0  0
    5.4667   61.1489   69.1154 H   0  0  0  0  0  0  0  0  0  0  0  0
    4.4588   59.9055   71.1137 H   0  0  0  0  0  0  0  0  0  0  0  0
    4.8895   61.6471   71.3154 H   0  0  0  0  0  0  0  0  0  0  0  0
   -1.6265   62.9241   72.2024 H   0  0  0  0  0  0  0  0  0  0  0  0
   -2.6855   61.3354   73.7969 H   0  0  0  0  0  0  0  0  0  0  0  0
   -1.4168   59.3250   74.5588 H   0  0  0  0  0  0  0  0  0  0  0  0
    0.8904   58.9329   73.7336 H   0  0  0  0  0  0  0  0  0  0  0  0
  2  1  1  0
  3  2  2  0
  4  2  1  0
  5  4  1  0
  6  5  1  0
  7  6  1  0
  8  7  1  0
  9  8  1  0
 10  9  1  0
 11 10  1  0
 12 11  1  0
 13 12  1  0
 14 13  1  0
 15 14  1  0
 15 10  2  0
 16 15  1  0
 17 16  2  0
 18 17  1  0
 18  9  2  0
 19 18  1  0
 20 19  2  0
 21 20  1  0
 22 17  1  0
 22 21  2  0
 23  4  1  0
 24 23  1  0
 25 24  1  0
 26 25  1  0
 27 26  1  0
 28 27  1  0
 29 28  1  0
 30 29  1  0
 31 30  1  0
 32 31  1  0
 33 32  1  0
 34 33  1  0
 34 29  2  0
 35 34  1  0
 36 35  2  0
 37 36  1  0
 37 28  2  0
 38 37  1  0
 39 38  2  0
 40 39  1  0
 41 36  1  0
 41 40  2  0
  1 42  1  0
  1 43  1  0
  1 44  1  0
  5 45  1  0
  5 46  1  0
  6 47  1  0
  6 48  1  0
  7 49  1  0
  7 50  1  0
 11 51  1  0
 11 52  1  0
 12 53  1  0
 12 54  1  0
 13 55  1  0
 13 56  1  0
 14 57  1  0
 14 58  1  0
 19 59  1  0
 20 60  1  0
 21 61  1  0
 22 62  1  0
 23 63  1  0
 23 64  1  0
 24 65  1  0
 24 66  1  0
 25 67  1  0
 25 68  1  0
 26 69  1  0
 26 70  1  0
 27 71  1  0
 30 72  1  0
 30 73  1  0
 31 74  1  0
 31 75  1  0
 32 76  1  0
 32 77  1  0
 33 78  1  0
 33 79  1  0
 38 80  1  0
 39 81  1  0
 40 82  1  0
 41 83  1  0
M  END
>  <score>  (2) 
-11.5

$$$$
=
     RDKit          3D

 83 88  0  0  0  0  0  0  0  0999 V2000
    2.0870   61.8070   69.8470 C   0  0  0  0  0  0  0  0  0  0  0  0
    2.1900   63.3050   69.7180 C   0  0  0  0  0  0  0  0  0  0  0  0
    3.0500   63.7830   68.9750 O   0  0  0  0  0  0  0  0  0  0  0  0
    1.2950   64.1020   70.4250 N   0  0  0  0  0  0  0  0  0  0  0  0
    0.2310   63.5990   71.3050 C   0  0  0  0  0  0  0  0  0  0  0  0
    0.4760   63.7400   72.8130 C   0  0  0  0  0  0  0  0  0  0  0  0
    0.0430   62.5110   73.6050 C   0  0  0  0  0  0  0  0  0  0  0  0
    1.3220   61.9820   74.8010 S   0  0  0  0  0  0  0  0  0  0  0  0
    2.0030   60.5610   73.9150 C   0  0  0  0  0  0  0  0  0  0  0  0
    1.4100   59.2960   74.0510 C   0  0  0  0  0  0  0  0  0  0  0  0
    0.1880   58.9760   74.8760 C   0  0  0  0  0  0  0  0  0  0  0  0
   -0.7570   58.0180   74.1410 C   0  0  0  0  0  0  0  0  0  0  0  0
   -0.0610   56.8560   73.4210 C   0  0  0  0  0  0  0  0  0  0  0  0
    1.4550   56.8420   73.5870 C   0  0  0  0  0  0  0  0  0  0  0  0
    2.0230   58.2260   73.4010 C   0  0  0  0  0  0  0  0  0  0  0  0
    3.1250   58.3460   72.6330 N   0  0  0  0  0  0  0  0  0  0  0  0
    3.6570   59.5620   72.4600 C   0  0  0  0  0  0  0  0  0  0  0  0
    3.1410   60.7240   73.0710 C   0  0  0  0  0  0  0  0  0  0  0  0
    3.7940   61.9590   72.8060 C   0  0  0  0  0  0  0  0  0  0  0  0
    4.9120   62.0360   71.9760 C   0  0  0  0  0  0  0  0  0  0  0  0
    5.4050   60.8800   71.3910 C   0  0  0  0  0  0  0  0  0  0  0  0
    4.7730   59.6610   71.6390 C   0  0  0  0  0  0  0  0  0  0  0  0
    1.5840   65.5430   70.4900 C   0  0  0  0  0  0  0  0  0  0  0  0
    0.7350   66.3880   69.5390 C   0  0  0  0  0  0  0  0  0  0  0  0
    1.4460   67.6240   68.9730 C   0  0  0  0  0  0  0  0  0  0  0  0
    1.1520   67.8950   67.4930 C   0  0  0  0  0  0  0  0  0  0  0  0
    1.5190   69.2860   67.1700 N   0  0  0  0  0  0  0  0  0  0  0  0
    2.7900   69.3510   66.5250 C   0  0  0  0  0  0  0  0  0  0  0  0
    3.9340   69.7710   67.2190 C   0  0  0  0  0  0  0  0  0  0  0  0
    3.9910   70.0910   68.6900 C   0  0  0  0  0  0  0  0  0  0  0  0
    4.8240   71.3490   68.9620 C   0  0  0  0  0  0  0  0  0  0  0  0
    6.1240   71.4440   68.1530 C   0  0  0  0  0  0  0  0  0  0  0  0
    6.3850   70.2430   67.2510 C   0  0  0  0  0  0  0  0  0  0  0  0
    5.1330   69.8550   66.5070 C   0  0  0  0  0  0  0  0  0  0  0  0
    5.2510   69.5880   65.1890 N   0  0  0  0  0  0  0  0  0  0  0  0
    4.1510   69.2150   64.5190 C   0  0  0  0  0  0  0  0  0  0  0  0
    2.8880   69.0760   65.1340 C   0  0  0  0  0  0  0  0  0  0  0  0
    1.7940   68.6510   64.3430 C   0  0  0  0  0  0  0  0  0  0  0  0
    1.9370   68.3920   62.9810 C   0  0  0  0  0  0  0  0  0  0  0  0
    3.1810   68.5440   62.3870 C   0  0  0  0  0  0  0  0  0  0  0  0
    4.2700   68.9500   63.1600 C   0  0  0  0  0  0  0  0  0  0  0  0
    2.0680   61.5311   70.9117 H   0  0  0  0  0  0  0  0  0  0  0  0
    1.1629   61.4599   69.3617 H   0  0  0  0  0  0  0  0  0  0  0  0
    2.9549   61.3366   69.3617 H   0  0  0  0  0  0  0  0  0  0  0  0
   -0.6919   64.1462   71.0623 H   0  0  0  0  0  0  0  0  0  0  0  0
    0.1790   62.5168   71.1151 H   0  0  0  0  0  0  0  0  0  0  0  0
    1.5510   63.9034   72.9796 H   0  0  0  0  0  0  0  0  0  0  0  0
   -0.1283   64.5885   73.1664 H   0  0  0  0  0  0  0  0  0  0  0  0
   -0.8800   62.7492   74.1540 H   0  0  0  0  0  0  0  0  0  0  0  0
   -0.1188   61.6877   72.8937 H   0  0  0  0  0  0  0  0  0  0  0  0
    0.5070   58.5084   75.8192 H   0  0  0  0  0  0  0  0  0  0  0  0
   -0.3537   59.9145   75.0650 H   0  0  0  0  0  0  0  0  0  0  0  0
   -1.4563   57.5950   74.8772 H   0  0  0  0  0  0  0  0  0  0  0  0
   -1.2557   58.6120   73.3610 H   0  0  0  0  0  0  0  0  0  0  0  0
   -0.4613   55.9124   73.8201 H   0  0  0  0  0  0  0  0  0  0  0  0
   -0.2623   56.9810   72.3468 H   0  0  0  0  0  0  0  0  0  0  0  0
    1.7047   56.4815   74.5958 H   0  0  0  0  0  0  0  0  0  0  0  0
    1.8885   56.1761   72.8263 H   0  0  0  0  0  0  0  0  0  0  0  0
    3.4067   62.8789   73.2684 H   0  0  0  0  0  0  0  0  0  0  0  0
    5.3979   63.0046   71.7873 H   0  0  0  0  0  0  0  0  0  0  0  0
    6.2878   60.9234   70.7362 H   0  0  0  0  0  0  0  0  0  0  0  0
    5.1712   58.7495   71.1694 H   0  0  0  0  0  0  0  0  0  0  0  0
    1.3993   65.8874   71.5182 H   0  0  0  0  0  0  0  0  0  0  0  0
    2.6324   65.6729   70.1835 H   0  0  0  0  0  0  0  0  0  0  0  0
    0.4295   65.7519   68.6952 H   0  0  0  0  0  0  0  0  0  0  0  0
   -0.1151   66.7611   70.1291 H   0  0  0  0  0  0  0  0  0  0  0  0
    1.1274   68.5018   69.5544 H   0  0  0  0  0  0  0  0  0  0  0  0
    2.5261   67.4307   69.0506 H   0  0  0  0  0  0  0  0  0  0  0  0
    1.7400   67.2056   66.8693 H   0  0  0  0  0  0  0  0  0  0  0  0
    0.0808   67.7413   67.2960 H   0  0  0  0  0  0  0  0  0  0  0  0
    0.9329   70.1058   67.3827 H   0  0  0  0  0  0  0  0  0  0  0  0
    2.9679   70.2534   69.0599 H   0  0  0  0  0  0  0  0  0  0  0  0
    4.4663   69.2450   69.2080 H   0  0  0  0  0  0  0  0  0  0  0  0
    4.2065   72.2273   68.7227 H   0  0  0  0  0  0  0  0  0  0  0  0
    5.1194   71.3033   70.0206 H   0  0  0  0  0  0  0  0  0  0  0  0
    6.0740   72.3445   67.5233 H   0  0  0  0  0  0  0  0  0  0  0  0
    6.9484   71.4795   68.8804 H   0  0  0  0  0  0  0  0  0  0  0  0
    7.1713   70.4998   66.5259 H   0  0  0  0  0  0  0  0  0  0  0  0
    6.7039   69.3946   67.8743 H   0  0  0  0  0  0  0  0  0  0  0  0
    0.8083   68.5221   64.8139 H   0  0  0  0  0  0  0  0  0  0  0  0
    1.0716   68.0702   62.3830 H   0  0  0  0  0  0  0  0  0  0  0  0
    3.3088   68.3457   61.3126 H   0  0  0  0  0  0  0  0  0  0  0  0
    5.2526   69.0637   62.6787 H   0  0  0  0  0  0  0  0  0  0  0  0
  2  1  1  0
  3  2  2  0
  4  2  1  0
  5  4  1  0
  6  5  1  0
  7  6  1  0
  8  7  1  0
  9  8  1  0
 10  9  1  0
 11 10  1  0
 12 11  1  0
 13 12  1  0
 14 13  1  0
 15 14  1  0
 15 10  2  0
 16 15  1  0
 17 16  2  0
 18 17  1  0
 18  9  2  0
 19 18  1  0
 20 19  2  0
 21 20  1  0
 22 17  1  0
 22 21  2  0
 23  4  1  0
 24 23  1  0
 25 24  1  0
 26 25  1  0
 27 26  1  0
 28 27  1  0
 29 28  1  0
 30 29  1  0
 31 30  1  0
 32 31  1  0
 33 32  1  0
 34 33  1  0
 34 29  2  0
 35 34  1  0
 36 35  2  0
 37 36  1  0
 37 28  2  0
 38 37  1  0
 39 38  2  0
 40 39  1  0
 41 36  1  0
 41 40  2  0
  1 42  1  0
  1 43  1  0
  1 44  1  0
  5 45  1  0
  5 46  1  0
  6 47  1  0
  6 48  1  0
  7 49  1  0
  7 50  1  0
 11 51  1  0
 11 52  1  0
 12 53  1  0
 12 54  1  0
 13 55  1  0
 13 56  1  0
 14 57  1  0
 14 58  1  0
 19 59  1  0
 20 60  1  0
 21 61  1  0
 22 62  1  0
 23 63  1  0
 23 64  1  0
 24 65  1  0
 24 66  1  0
 25 67  1  0
 25 68  1  0
 26 69  1  0
 26 70  1  0
 27 71  1  0
 30 72  1  0
 30 73  1  0
 31 74  1  0
 31 75  1  0
 32 76  1  0
 32 77  1  0
 33 78  1  0
 33 79  1  0
 38 80  1  0
 39 81  1  0
 40 82  1  0
 41 83  1  0
M  END
>  <score>  (3) 
-11.323

$$$$
=
     RDKit          3D

 83 88  0  0  0  0  0  0  0  0999 V2000
    2.3000   61.6600   69.3480 C   0  0  0  0  0  0  0  0  0  0  0  0
    2.4760   63.1500   69.4910 C   0  0  0  0  0  0  0  0  0  0  0  0
    3.4960   63.6780   69.0410 O   0  0  0  0  0  0  0  0  0  0  0  0
    1.4690   63.8880   70.1060 N   0  0  0  0  0  0  0  0  0  0  0  0
    0.2190   63.3280   70.6380 C   0  0  0  0  0  0  0  0  0  0  0  0
    0.0350   63.4060   72.1590 C   0  0  0  0  0  0  0  0  0  0  0  0
   -0.6570   62.1780   72.7400 C   0  0  0  0  0  0  0  0  0  0  0  0
    0.1840   61.5670   74.2460 S   0  0  0  0  0  0  0  0  0  0  0  0
    1.0590   60.1450   73.5540 C   0  0  0  0  0  0  0  0  0  0  0  0
    2.2610   60.3300   72.8530 C   0  0  0  0  0  0  0  0  0  0  0  0
    2.9550   61.6490   72.6220 C   0  0  0  0  0  0  0  0  0  0  0  0
    4.4730   61.5300   72.8070 C   0  0  0  0  0  0  0  0  0  0  0  0
    5.1000   60.2780   72.1820 C   0  0  0  0  0  0  0  0  0  0  0  0
    4.1020   59.3790   71.4590 C   0  0  0  0  0  0  0  0  0  0  0  0
    2.8510   59.2040   72.2800 C   0  0  0  0  0  0  0  0  0  0  0  0
    2.3500   57.9560   72.3890 N   0  0  0  0  0  0  0  0  0  0  0  0
    1.2330   57.7740   73.1050 C   0  0  0  0  0  0  0  0  0  0  0  0
    0.5320   58.8300   73.7240 C   0  0  0  0  0  0  0  0  0  0  0  0
   -0.6400   58.5060   74.4600 C   0  0  0  0  0  0  0  0  0  0  0  0
   -1.1000   57.1940   74.5700 C   0  0  0  0  0  0  0  0  0  0  0  0
   -0.3980   56.1730   73.9490 C   0  0  0  0  0  0  0  0  0  0  0  0
    0.7570   56.4750   73.2270 C   0  0  0  0  0  0  0  0  0  0  0  0
    1.7800   65.2800   70.4660 C   0  0  0  0  0  0  0  0  0  0  0  0
    0.8450   66.3080   69.8270 C   0  0  0  0  0  0  0  0  0  0  0  0
    1.5430   67.5760   69.3170 C   0  0  0  0  0  0  0  0  0  0  0  0
    1.2340   67.9180   67.8550 C   0  0  0  0  0  0  0  0  0  0  0  0
    1.5520   69.3360   67.6080 N   0  0  0  0  0  0  0  0  0  0  0  0
    2.7890   69.4780   66.9130 C   0  0  0  0  0  0  0  0  0  0  0  0
    2.9130   69.1020   65.5680 C   0  0  0  0  0  0  0  0  0  0  0  0
    1.7850   68.6230   64.6920 C   0  0  0  0  0  0  0  0  0  0  0  0
    2.2120   67.4350   63.8210 C   0  0  0  0  0  0  0  0  0  0  0  0
    3.6060   67.5680   63.1930 C   0  0  0  0  0  0  0  0  0  0  0  0
    4.3070   68.8860   63.5080 C   0  0  0  0  0  0  0  0  0  0  0  0
    4.1700   69.2250   64.9700 C   0  0  0  0  0  0  0  0  0  0  0  0
    5.2760   69.6520   65.6150 N   0  0  0  0  0  0  0  0  0  0  0  0
    5.1650   69.9830   66.9100 C   0  0  0  0  0  0  0  0  0  0  0  0
    3.9440   69.9180   67.6160 C   0  0  0  0  0  0  0  0  0  0  0  0
    3.9280   70.3160   68.9740 C   0  0  0  0  0  0  0  0  0  0  0  0
    5.0850   70.7430   69.6230 C   0  0  0  0  0  0  0  0  0  0  0  0
    6.2800   70.7890   68.9200 C   0  0  0  0  0  0  0  0  0  0  0  0
    6.3050   70.4130   67.5760 C   0  0  0  0  0  0  0  0  0  0  0  0
    2.2456   61.1998   70.3456 H   0  0  0  0  0  0  0  0  0  0  0  0
    1.3710   61.4517   68.7970 H   0  0  0  0  0  0  0  0  0  0  0  0
    3.1549   61.2410   68.7970 H   0  0  0  0  0  0  0  0  0  0  0  0
   -0.6168   63.8693   70.1707 H   0  0  0  0  0  0  0  0  0  0  0  0
    0.2528   62.2545   70.4003 H   0  0  0  0  0  0  0  0  0  0  0  0
    1.0255   63.5043   72.6272 H   0  0  0  0  0  0  0  0  0  0  0  0
   -0.6066   64.2746   72.3683 H   0  0  0  0  0  0  0  0  0  0  0  0
   -1.6942   62.4417   72.9944 H   0  0  0  0  0  0  0  0  0  0  0  0
   -0.6240   61.3794   71.9842 H   0  0  0  0  0  0  0  0  0  0  0  0
    2.7461   61.9872   71.5963 H   0  0  0  0  0  0  0  0  0  0  0  0
    2.5747   62.3710   73.3596 H   0  0  0  0  0  0  0  0  0  0  0  0
    4.9438   62.4130   72.3503 H   0  0  0  0  0  0  0  0  0  0  0  0
    4.6484   61.4567   73.8904 H   0  0  0  0  0  0  0  0  0  0  0  0
    5.8642   60.5983   71.4586 H   0  0  0  0  0  0  0  0  0  0  0  0
    5.5205   59.6863   73.0085 H   0  0  0  0  0  0  0  0  0  0  0  0
    3.8392   59.8349   70.4931 H   0  0  0  0  0  0  0  0  0  0  0  0
    4.5632   58.3927   71.3026 H   0  0  0  0  0  0  0  0  0  0  0  0
   -1.1997   59.3123   74.9566 H   0  0  0  0  0  0  0  0  0  0  0  0
   -2.0115   56.9716   75.1443 H   0  0  0  0  0  0  0  0  0  0  0  0
   -0.7486   55.1331   74.0248 H   0  0  0  0  0  0  0  0  0  0  0  0
    1.3084   55.6580   72.7387 H   0  0  0  0  0  0  0  0  0  0  0  0
    1.7090   65.3794   71.5592 H   0  0  0  0  0  0  0  0  0  0  0  0
    2.7916   65.4896   70.0883 H   0  0  0  0  0  0  0  0  0  0  0  0
    0.3388   65.8291   68.9759 H   0  0  0  0  0  0  0  0  0  0  0  0
    0.1501   66.6306   70.6163 H   0  0  0  0  0  0  0  0  0  0  0  0
    1.2238   68.4215   69.9441 H   0  0  0  0  0  0  0  0  0  0  0  0
    2.6250   67.3868   69.3757 H   0  0  0  0  0  0  0  0  0  0  0  0
    1.8425   67.2844   67.1930 H   0  0  0  0  0  0  0  0  0  0  0  0
    0.1677   67.7391   67.6524 H   0  0  0  0  0  0  0  0  0  0  0  0
    0.9565   70.1240   67.9002 H   0  0  0  0  0  0  0  0  0  0  0  0
    0.9440   68.3138   65.3301 H   0  0  0  0  0  0  0  0  0  0  0  0
    1.4909   69.4488   64.0274 H   0  0  0  0  0  0  0  0  0  0  0  0
    2.2032   66.5306   64.4471 H   0  0  0  0  0  0  0  0  0  0  0  0
    1.4980   67.3902   62.9854 H   0  0  0  0  0  0  0  0  0  0  0  0
    4.2332   66.7451   63.5664 H   0  0  0  0  0  0  0  0  0  0  0  0
    3.4674   67.5348   62.1023 H   0  0  0  0  0  0  0  0  0  0  0  0
    5.3741   68.7968   63.2563 H   0  0  0  0  0  0  0  0  0  0  0  0
    3.8408   69.6858   62.9139 H   0  0  0  0  0  0  0  0  0  0  0  0
    2.9796   70.2876   69.5306 H   0  0  0  0  0  0  0  0  0  0  0  0
    5.0510   71.0404   70.6815 H   0  0  0  0  0  0  0  0  0  0  0  0
    7.2028   71.1200   69.4189 H   0  0  0  0  0  0  0  0  0  0  0  0
    7.2574   70.4588   67.0274 H   0  0  0  0  0  0  0  0  0  0  0  0
  2  1  1  0
  3  2  2  0
  4  2  1  0
  5  4  1  0
  6  5  1  0
  7  6  1  0
  8  7  1  0
  9  8  1  0
 10  9  1  0
 11 10  1  0
 12 11  1  0
 13 12  1  0
 14 13  1  0
 15 14  1  0
 15 10  2  0
 16 15  1  0
 17 16  2  0
 18 17  1  0
 18  9  2  0
 19 18  1  0
 20 19  2  0
 21 20  1  0
 22 17  1  0
 22 21  2  0
 23  4  1  0
 24 23  1  0
 25 24  1  0
 26 25  1  0
 27 26  1  0
 28 27  1  0
 29 28  1  0
 30 29  1  0
 31 30  1  0
 32 31  1  0
 33 32  1  0
 34 33  1  0
 34 29  2  0
 35 34  1  0
 36 35  2  0
 37 36  1  0
 37 28  2  0
 38 37  1  0
 39 38  2  0
 40 39  1  0
 41 36  1  0
 41 40  2  0
  1 42  1  0
  1 43  1  0
  1 44  1  0
  5 45  1  0
  5 46  1  0
  6 47  1  0
  6 48  1  0
  7 49  1  0
  7 50  1  0
 11 51  1  0
 11 52  1  0
 12 53  1  0
 12 54  1  0
 13 55  1  0
 13 56  1  0
 14 57  1  0
 14 58  1  0
 19 59  1  0
 20 60  1  0
 21 61  1  0
 22 62  1  0
 23 63  1  0
 23 64  1  0
 24 65  1  0
 24 66  1  0
 25 67  1  0
 25 68  1  0
 26 69  1  0
 26 70  1  0
 27 71  1  0
 30 72  1  0
 30 73  1  0
 31 74  1  0
 31 75  1  0
 32 76  1  0
 32 77  1  0
 33 78  1  0
 33 79  1  0
 38 80  1  0
 39 81  1  0
 40 82  1  0
 41 83  1  0
M  END
>  <score>  (4) 
-11.262

$$$$
=
     RDKit          3D

 83 88  0  0  0  0  0  0  0  0999 V2000
    5.3990   63.0760   63.5080 C   0  0  0  0  0  0  0  0  0  0  0  0
    4.5990   64.3160   63.8210 C   0  0  0  0  0  0  0  0  0  0  0  0
    4.6610   65.2770   63.0510 O   0  0  0  0  0  0  0  0  0  0  0  0
    3.7980   64.3270   64.9580 N   0  0  0  0  0  0  0  0  0  0  0  0
    3.6570   63.2090   65.9020 C   0  0  0  0  0  0  0  0  0  0  0  0
    3.7940   63.5560   67.3900 C   0  0  0  0  0  0  0  0  0  0  0  0
    3.5000   62.3760   68.3080 C   0  0  0  0  0  0  0  0  0  0  0  0
    4.2040   62.6160   69.9800 S   0  0  0  0  0  0  0  0  0  0  0  0
    2.6810   62.6560   70.9520 C   0  0  0  0  0  0  0  0  0  0  0  0
    1.9560   63.8520   71.0770 C   0  0  0  0  0  0  0  0  0  0  0  0
    2.3090   65.1710   70.4350 C   0  0  0  0  0  0  0  0  0  0  0  0
    1.0700   65.8770   69.8730 C   0  0  0  0  0  0  0  0  0  0  0  0
   -0.1620   65.8390   70.7860 C   0  0  0  0  0  0  0  0  0  0  0  0
    0.0720   65.1230   72.1130 C   0  0  0  0  0  0  0  0  0  0  0  0
    0.8300   63.8380   71.8990 C   0  0  0  0  0  0  0  0  0  0  0  0
    0.3880   62.7420   72.5480 N   0  0  0  0  0  0  0  0  0  0  0  0
    1.0480   61.5890   72.3840 C   0  0  0  0  0  0  0  0  0  0  0  0
    2.2090   61.4710   71.5910 C   0  0  0  0  0  0  0  0  0  0  0  0
    2.8180   60.1900   71.4930 C   0  0  0  0  0  0  0  0  0  0  0  0
    2.3030   59.0790   72.1590 C   0  0  0  0  0  0  0  0  0  0  0  0
    1.1650   59.2200   72.9380 C   0  0  0  0  0  0  0  0  0  0  0  0
    0.5530   60.4690   73.0400 C   0  0  0  0  0  0  0  0  0  0  0  0
    3.2450   65.6240   65.3780 C   0  0  0  0  0  0  0  0  0  0  0  0
    1.8970   65.9580   64.7380 C   0  0  0  0  0  0  0  0  0  0  0  0
    0.9810   66.8390   65.5980 C   0  0  0  0  0  0  0  0  0  0  0  0
    1.7240   67.7080   66.6190 C   0  0  0  0  0  0  0  0  0  0  0  0
    1.9380   69.0520   66.0520 N   0  0  0  0  0  0  0  0  0  0  0  0
    3.3140   69.2780   65.7550 C   0  0  0  0  0  0  0  0  0  0  0  0
    4.2090   69.7050   66.7470 C   0  0  0  0  0  0  0  0  0  0  0  0
    3.8750   69.8700   68.2070 C   0  0  0  0  0  0  0  0  0  0  0  0
    4.4900   71.1500   68.7850 C   0  0  0  0  0  0  0  0  0  0  0  0
    5.9330   71.4260   68.3400 C   0  0  0  0  0  0  0  0  0  0  0  0
    6.5210   70.3490   67.4340 C   0  0  0  0  0  0  0  0  0  0  0  0
    5.5310   69.9520   66.3690 C   0  0  0  0  0  0  0  0  0  0  0  0
    5.9910   69.8350   65.1050 N   0  0  0  0  0  0  0  0  0  0  0  0
    5.1290   69.4560   64.1510 C   0  0  0  0  0  0  0  0  0  0  0  0
    3.7740   69.1610   64.4150 C   0  0  0  0  0  0  0  0  0  0  0  0
    2.9520   68.7420   63.3410 C   0  0  0  0  0  0  0  0  0  0  0  0
    3.4460   68.6410   62.0420 C   0  0  0  0  0  0  0  0  0  0  0  0
    4.7760   68.9460   61.7950 C   0  0  0  0  0  0  0  0  0  0  0  0
    5.6000   69.3460   62.8490 C   0  0  0  0  0  0  0  0  0  0  0  0
    5.7101   62.5938   64.4464 H   0  0  0  0  0  0  0  0  0  0  0  0
    4.7804   62.3781   62.9247 H   0  0  0  0  0  0  0  0  0  0  0  0
    6.2898   63.3519   62.9247 H   0  0  0  0  0  0  0  0  0  0  0  0
    2.6614   62.7662   65.7512 H   0  0  0  0  0  0  0  0  0  0  0  0
    4.4936   62.5300   65.6804 H   0  0  0  0  0  0  0  0  0  0  0  0
    4.8230   63.8970   67.5767 H   0  0  0  0  0  0  0  0  0  0  0  0
    3.0540   64.3384   67.6140 H   0  0  0  0  0  0  0  0  0  0  0  0
    2.4099   62.2570   68.3954 H   0  0  0  0  0  0  0  0  0  0  0  0
    3.9642   61.4804   67.8693 H   0  0  0  0  0  0  0  0  0  0  0  0
    2.7781   65.8203   71.1889 H   0  0  0  0  0  0  0  0  0  0  0  0
    2.9988   64.9731   69.6014 H   0  0  0  0  0  0  0  0  0  0  0  0
    1.3292   66.9306   69.6919 H   0  0  0  0  0  0  0  0  0  0  0  0
    0.7933   65.3343   68.9571 H   0  0  0  0  0  0  0  0  0  0  0  0
   -0.4661   66.8742   71.0002 H   0  0  0  0  0  0  0  0  0  0  0  0
   -0.9380   65.2723   70.2506 H   0  0  0  0  0  0  0  0  0  0  0  0
    0.6527   65.7780   72.7792 H   0  0  0  0  0  0  0  0  0  0  0  0
   -0.9031   64.8873   72.5642 H   0  0  0  0  0  0  0  0  0  0  0  0
    3.7202   60.0724   70.8748 H   0  0  0  0  0  0  0  0  0  0  0  0
    2.7950   58.0995   72.0673 H   0  0  0  0  0  0  0  0  0  0  0  0
    0.7479   58.3533   73.4717 H   0  0  0  0  0  0  0  0  0  0  0  0
   -0.3503   60.5705   73.6595 H   0  0  0  0  0  0  0  0  0  0  0  0
    3.1157   65.6083   66.4703 H   0  0  0  0  0  0  0  0  0  0  0  0
    3.9556   66.3964   65.0486 H   0  0  0  0  0  0  0  0  0  0  0  0
    2.0880   66.4839   63.7909 H   0  0  0  0  0  0  0  0  0  0  0  0
    1.3712   65.0013   64.6026 H   0  0  0  0  0  0  0  0  0  0  0  0
    0.4126   67.5020   64.9292 H   0  0  0  0  0  0  0  0  0  0  0  0
    0.3353   66.1583   66.1722 H   0  0  0  0  0  0  0  0  0  0  0  0
    1.1250   67.7882   67.5381 H   0  0  0  0  0  0  0  0  0  0  0  0
    2.6954   67.2492   66.8553 H   0  0  0  0  0  0  0  0  0  0  0  0
    1.1887   69.7401   65.8909 H   0  0  0  0  0  0  0  0  0  0  0  0
    2.7818   69.9164   68.3202 H   0  0  0  0  0  0  0  0  0  0  0  0
    4.2902   69.0110   68.7544 H   0  0  0  0  0  0  0  0  0  0  0  0
    3.8665   72.0009   68.4730 H   0  0  0  0  0  0  0  0  0  0  0  0
    4.5220   71.0140   69.8761 H   0  0  0  0  0  0  0  0  0  0  0  0
    5.9502   72.3822   67.7964 H   0  0  0  0  0  0  0  0  0  0  0  0
    6.5484   71.4450   69.2516 H   0  0  0  0  0  0  0  0  0  0  0  0
    7.4313   70.7378   66.9543 H   0  0  0  0  0  0  0  0  0  0  0  0
    6.7595   69.4648   68.0434 H   0  0  0  0  0  0  0  0  0  0  0  0
    1.8992   68.4904   63.5366 H   0  0  0  0  0  0  0  0  0  0  0  0
    2.7874   68.3225   61.2205 H   0  0  0  0  0  0  0  0  0  0  0  0
    5.1797   68.8732   60.7744 H   0  0  0  0  0  0  0  0  0  0  0  0
    6.6544   69.5812   62.6418 H   0  0  0  0  0  0  0  0  0  0  0  0
  2  1  1  0
  3  2  2  0
  4  2  1  0
  5  4  1  0
  6  5  1  0
  7  6  1  0
  8  7  1  0
  9  8  1  0
 10  9  1  0
 11 10  1  0
 12 11  1  0
 13 12  1  0
 14 13  1  0
 15 14  1  0
 15 10  2  0
 16 15  1  0
 17 16  2  0
 18 17  1  0
 18  9  2  0
 19 18  1  0
 20 19  2  0
 21 20  1  0
 22 17  1  0
 22 21  2  0
 23  4  1  0
 24 23  1  0
 25 24  1  0
 26 25  1  0
 27 26  1  0
 28 27  1  0
 29 28  1  0
 30 29  1  0
 31 30  1  0
 32 31  1  0
 33 32  1  0
 34 33  1  0
 34 29  2  0
 35 34  1  0
 36 35  2  0
 37 36  1  0
 37 28  2  0
 38 37  1  0
 39 38  2  0
 40 39  1  0
 41 36  1  0
 41 40  2  0
  1 42  1  0
  1 43  1  0
  1 44  1  0
  5 45  1  0
  5 46  1  0
  6 47  1  0
  6 48  1  0
  7 49  1  0
  7 50  1  0
 11 51  1  0
 11 52  1  0
 12 53  1  0
 12 54  1  0
 13 55  1  0
 13 56  1  0
 14 57  1  0
 14 58  1  0
 19 59  1  0
 20 60  1  0
 21 61  1  0
 22 62  1  0
 23 63  1  0
 23 64  1  0
 24 65  1  0
 24 66  1  0
 25 67  1  0
 25 68  1  0
 26 69  1  0
 26 70  1  0
 27 71  1  0
 30 72  1  0
 30 73  1  0
 31 74  1  0
 31 75  1  0
 32 76  1  0
 32 77  1  0
 33 78  1  0
 33 79  1  0
 38 80  1  0
 39 81  1  0
 40 82  1  0
 41 83  1  0
M  END
>  <score>  (5) 
-11.152

$$$$
=
     RDKit          3D

 83 88  0  0  0  0  0  0  0  0999 V2000
    3.6390   63.4290   69.2190 C   0  0  0  0  0  0  0  0  0  0  0  0
    2.3370   63.0990   69.9020 C   0  0  0  0  0  0  0  0  0  0  0  0
    2.0160   61.9170   70.0390 O   0  0  0  0  0  0  0  0  0  0  0  0
    1.5470   64.1410   70.3790 N   0  0  0  0  0  0  0  0  0  0  0  0
    1.8820   65.5690   70.2740 C   0  0  0  0  0  0  0  0  0  0  0  0
    0.8040   66.4750   69.6650 C   0  0  0  0  0  0  0  0  0  0  0  0
    1.1110   66.8850   68.2290 C   0  0  0  0  0  0  0  0  0  0  0  0
    0.9010   68.6840   67.9720 S   0  0  0  0  0  0  0  0  0  0  0  0
    2.3330   69.0140   66.9190 C   0  0  0  0  0  0  0  0  0  0  0  0
    2.3010   68.6700   65.5580 C   0  0  0  0  0  0  0  0  0  0  0  0
    1.1350   68.0480   64.8310 C   0  0  0  0  0  0  0  0  0  0  0  0
    0.9290   68.6770   63.4480 C   0  0  0  0  0  0  0  0  0  0  0  0
    2.2170   68.9140   62.6510 C   0  0  0  0  0  0  0  0  0  0  0  0
    3.4830   68.4550   63.3690 C   0  0  0  0  0  0  0  0  0  0  0  0
    3.4610   68.8820   64.8140 C   0  0  0  0  0  0  0  0  0  0  0  0
    4.5890   69.4220   65.3190 N   0  0  0  0  0  0  0  0  0  0  0  0
    4.5990   69.8000   66.6030 C   0  0  0  0  0  0  0  0  0  0  0  0
    3.4970   69.6290   67.4680 C   0  0  0  0  0  0  0  0  0  0  0  0
    3.6310   70.0760   68.8110 C   0  0  0  0  0  0  0  0  0  0  0  0
    4.8090   70.6590   69.2770 C   0  0  0  0  0  0  0  0  0  0  0  0
    5.8810   70.8110   68.4120 C   0  0  0  0  0  0  0  0  0  0  0  0
    5.7630   70.3820   67.0890 C   0  0  0  0  0  0  0  0  0  0  0  0
    0.1760   63.8100   70.7970 C   0  0  0  0  0  0  0  0  0  0  0  0
    0.0630   63.3800   72.2600 C   0  0  0  0  0  0  0  0  0  0  0  0
   -0.6060   62.0150   72.4750 C   0  0  0  0  0  0  0  0  0  0  0  0
   -0.7690   61.6220   73.9480 C   0  0  0  0  0  0  0  0  0  0  0  0
    0.5510   61.2800   74.5100 N   0  0  0  0  0  0  0  0  0  0  0  0
    1.1410   60.1810   73.8190 C   0  0  0  0  0  0  0  0  0  0  0  0
    0.5200   58.9240   73.7920 C   0  0  0  0  0  0  0  0  0  0  0  0
   -0.8360   58.6110   74.3690 C   0  0  0  0  0  0  0  0  0  0  0  0
   -0.8380   57.2680   75.1090 C   0  0  0  0  0  0  0  0  0  0  0  0
   -0.0820   56.1400   74.3930 C   0  0  0  0  0  0  0  0  0  0  0  0
    0.5020   56.5430   73.0420 C   0  0  0  0  0  0  0  0  0  0  0  0
    1.1840   57.8840   73.1370 C   0  0  0  0  0  0  0  0  0  0  0  0
    2.3960   58.0070   72.5570 N   0  0  0  0  0  0  0  0  0  0  0  0
    3.0040   59.2010   72.6080 C   0  0  0  0  0  0  0  0  0  0  0  0
    2.4250   60.3300   73.2260 C   0  0  0  0  0  0  0  0  0  0  0  0
    3.1370   61.5530   73.2020 C   0  0  0  0  0  0  0  0  0  0  0  0
    4.3930   61.6540   72.6070 C   0  0  0  0  0  0  0  0  0  0  0  0
    4.9560   60.5330   72.0150 C   0  0  0  0  0  0  0  0  0  0  0  0
    4.2560   59.3250   72.0200 C   0  0  0  0  0  0  0  0  0  0  0  0
    4.4115   63.6248   69.9772 H   0  0  0  0  0  0  0  0  0  0  0  0
    3.9487   62.5809   68.5906 H   0  0  0  0  0  0  0  0  0  0  0  0
    3.5073   64.3222   68.5906 H   0  0  0  0  0  0  0  0  0  0  0  0
    2.0975   65.9385   71.2874 H   0  0  0  0  0  0  0  0  0  0  0  0
    2.7354   65.6209   69.5818 H   0  0  0  0  0  0  0  0  0  0  0  0
   -0.1549   65.9362   69.6782 H   0  0  0  0  0  0  0  0  0  0  0  0
    0.7675   67.3939   70.2686 H   0  0  0  0  0  0  0  0  0  0  0  0
    2.1507   66.6117   67.9959 H   0  0  0  0  0  0  0  0  0  0  0  0
    0.4049   66.3619   67.5673 H   0  0  0  0  0  0  0  0  0  0  0  0
    1.3244   66.9714   64.7085 H   0  0  0  0  0  0  0  0  0  0  0  0
    0.2267   68.2229   65.4263 H   0  0  0  0  0  0  0  0  0  0  0  0
    0.2816   68.0088   62.8612 H   0  0  0  0  0  0  0  0  0  0  0  0
    0.4856   69.6686   63.6218 H   0  0  0  0  0  0  0  0  0  0  0  0
    2.1410   68.3670   61.6997 H   0  0  0  0  0  0  0  0  0  0  0  0
    2.3079   70.0008   62.5078 H   0  0  0  0  0  0  0  0  0  0  0  0
    3.5496   67.3582   63.3177 H   0  0  0  0  0  0  0  0  0  0  0  0
    4.3538   68.9139   62.8781 H   0  0  0  0  0  0  0  0  0  0  0  0
    2.7825   69.9588   69.5012 H   0  0  0  0  0  0  0  0  0  0  0  0
    4.8866   70.9951   70.3215 H   0  0  0  0  0  0  0  0  0  0  0  0
    6.8179   71.2663   68.7654 H   0  0  0  0  0  0  0  0  0  0  0  0
    6.6188   70.5088   66.4097 H   0  0  0  0  0  0  0  0  0  0  0  0
   -0.4561   64.6976   70.6467 H   0  0  0  0  0  0  0  0  0  0  0  0
   -0.1471   62.9543   70.1860 H   0  0  0  0  0  0  0  0  0  0  0  0
    1.0771   63.3357   72.6839 H   0  0  0  0  0  0  0  0  0  0  0  0
   -0.5793   64.1234   72.7548 H   0  0  0  0  0  0  0  0  0  0  0  0
   -1.6037   62.0428   72.0126 H   0  0  0  0  0  0  0  0  0  0  0  0
    0.0539   61.2631   72.0176 H   0  0  0  0  0  0  0  0  0  0  0  0
   -1.1995   62.4654   74.5079 H   0  0  0  0  0  0  0  0  0  0  0  0
   -1.4390   60.7530   74.0256 H   0  0  0  0  0  0  0  0  0  0  0  0
    0.9906   61.7722   75.3008 H   0  0  0  0  0  0  0  0  0  0  0  0
   -1.1165   59.4075   75.0739 H   0  0  0  0  0  0  0  0  0  0  0  0
   -1.5565   58.5483   73.5402 H   0  0  0  0  0  0  0  0  0  0  0  0
   -0.3742   57.4193   76.0949 H   0  0  0  0  0  0  0  0  0  0  0  0
   -1.8887   56.9482   75.1695 H   0  0  0  0  0  0  0  0  0  0  0  0
    0.7429   55.8105   75.0418 H   0  0  0  0  0  0  0  0  0  0  0  0
   -0.8129   55.3415   74.1978 H   0  0  0  0  0  0  0  0  0  0  0  0
    1.2349   55.7865   72.7249 H   0  0  0  0  0  0  0  0  0  0  0  0
   -0.3153   56.6122   72.3090 H   0  0  0  0  0  0  0  0  0  0  0  0
    2.6883   62.4448   73.6639 H   0  0  0  0  0  0  0  0  0  0  0  0
    4.9324   62.6127   72.6068 H   0  0  0  0  0  0  0  0  0  0  0  0
    5.9482   60.5954   71.5443 H   0  0  0  0  0  0  0  0  0  0  0  0
    4.7104   58.4439   71.5433 H   0  0  0  0  0  0  0  0  0  0  0  0
  2  1  1  0
  3  2  2  0
  4  2  1  0
  5  4  1  0
  6  5  1  0
  7  6  1  0
  8  7  1  0
  9  8  1  0
 10  9  1  0
 11 10  1  0
 12 11  1  0
 13 12  1  0
 14 13  1  0
 15 14  1  0
 15 10  2  0
 16 15  1  0
 17 16  2  0
 18 17  1  0
 18  9  2  0
 19 18  1  0
 20 19  2  0
 21 20  1  0
 22 17  1  0
 22 21  2  0
 23  4  1  0
 24 23  1  0
 25 24  1  0
 26 25  1  0
 27 26  1  0
 28 27  1  0
 29 28  1  0
 30 29  1  0
 31 30  1  0
 32 31  1  0
 33 32  1  0
 34 33  1  0
 34 29  2  0
 35 34  1  0
 36 35  2  0
 37 36  1  0
 37 28  2  0
 38 37  1  0
 39 38  2  0
 40 39  1  0
 41 36  1  0
 41 40  2  0
  1 42  1  0
  1 43  1  0
  1 44  1  0
  5 45  1  0
  5 46  1  0
  6 47  1  0
  6 48  1  0
  7 49  1  0
  7 50  1  0
 11 51  1  0
 11 52  1  0
 12 53  1  0
 12 54  1  0
 13 55  1  0
 13 56  1  0
 14 57  1  0
 14 58  1  0
 19 59  1  0
 20 60  1  0
 21 61  1  0
 22 62  1  0
 23 63  1  0
 23 64  1  0
 24 65  1  0
 24 66  1  0
 25 67  1  0
 25 68  1  0
 26 69  1  0
 26 70  1  0
 27 71  1  0
 30 72  1  0
 30 73  1  0
 31 74  1  0
 31 75  1  0
 32 76  1  0
 32 77  1  0
 33 78  1  0
 33 79  1  0
 38 80  1  0
 39 81  1  0
 40 82  1  0
 41 83  1  0
M  END
>  <score>  (6) 
-11.041

$$$$
=
     RDKit          3D

 83 88  0  0  0  0  0  0  0  0999 V2000
    2.8120   63.7400   69.3150 C   0  0  0  0  0  0  0  0  0  0  0  0
    2.3280   63.9580   70.7270 C   0  0  0  0  0  0  0  0  0  0  0  0
    2.9700   63.4730   71.6600 O   0  0  0  0  0  0  0  0  0  0  0  0
    1.1820   64.7200   70.9330 N   0  0  0  0  0  0  0  0  0  0  0  0
    0.3850   65.3490   69.8690 C   0  0  0  0  0  0  0  0  0  0  0  0
    0.7080   66.8150   69.5580 C   0  0  0  0  0  0  0  0  0  0  0  0
    0.9690   67.0670   68.0770 C   0  0  0  0  0  0  0  0  0  0  0  0
    0.7960   68.8360   67.6420 S   0  0  0  0  0  0  0  0  0  0  0  0
    2.3620   69.0960   66.7790 C   0  0  0  0  0  0  0  0  0  0  0  0
    2.5020   68.7020   65.4390 C   0  0  0  0  0  0  0  0  0  0  0  0
    1.4280   68.0760   64.5850 C   0  0  0  0  0  0  0  0  0  0  0  0
    1.4230   68.6560   63.1650 C   0  0  0  0  0  0  0  0  0  0  0  0
    2.8110   68.8370   62.5400 C   0  0  0  0  0  0  0  0  0  0  0  0
    3.9590   68.3800   63.4360 C   0  0  0  0  0  0  0  0  0  0  0  0
    3.7550   68.8620   64.8490 C   0  0  0  0  0  0  0  0  0  0  0  0
    4.8200   69.3970   65.4810 N   0  0  0  0  0  0  0  0  0  0  0  0
    4.6690   69.8240   66.7410 C   0  0  0  0  0  0  0  0  0  0  0  0
    3.4580   69.7080   67.4560 C   0  0  0  0  0  0  0  0  0  0  0  0
    3.4250   70.2030   68.7890 C   0  0  0  0  0  0  0  0  0  0  0  0
    4.5450   70.7790   69.3870 C   0  0  0  0  0  0  0  0  0  0  0  0
    5.7250   70.8760   68.6680 C   0  0  0  0  0  0  0  0  0  0  0  0
    5.7730   70.4000   67.3580 C   0  0  0  0  0  0  0  0  0  0  0  0
    0.5890   64.6930   72.2790 C   0  0  0  0  0  0  0  0  0  0  0  0
    0.4990   63.2930   72.8870 C   0  0  0  0  0  0  0  0  0  0  0  0
   -0.4590   62.3400   72.1600 C   0  0  0  0  0  0  0  0  0  0  0  0
   -0.8400   61.0950   72.9680 C   0  0  0  0  0  0  0  0  0  0  0  0
    0.3090   60.6810   73.7950 N   0  0  0  0  0  0  0  0  0  0  0  0
    0.8000   59.4030   73.3990 C   0  0  0  0  0  0  0  0  0  0  0  0
    1.8870   59.2840   72.5210 C   0  0  0  0  0  0  0  0  0  0  0  0
    2.7070   60.4320   71.9910 C   0  0  0  0  0  0  0  0  0  0  0  0
    3.0200   60.2600   70.5000 C   0  0  0  0  0  0  0  0  0  0  0  0
    3.4230   58.8380   70.0890 C   0  0  0  0  0  0  0  0  0  0  0  0
    3.4860   57.8490   71.2490 C   0  0  0  0  0  0  0  0  0  0  0  0
    2.2800   57.9980   72.1410 C   0  0  0  0  0  0  0  0  0  0  0  0
    1.6590   56.8680   72.5400 N   0  0  0  0  0  0  0  0  0  0  0  0
    0.6010   56.9830   73.3560 C   0  0  0  0  0  0  0  0  0  0  0  0
    0.1230   58.2260   73.8220 C   0  0  0  0  0  0  0  0  0  0  0  0
   -0.9850   58.2370   74.7030 C   0  0  0  0  0  0  0  0  0  0  0  0
   -1.6180   57.0580   75.0930 C   0  0  0  0  0  0  0  0  0  0  0  0
   -1.1450   55.8440   74.6160 C   0  0  0  0  0  0  0  0  0  0  0  0
   -0.0440   55.8200   73.7590 C   0  0  0  0  0  0  0  0  0  0  0  0
    3.8148   63.2883   69.3367 H   0  0  0  0  0  0  0  0  0  0  0  0
    2.1182   63.0674   68.7893 H   0  0  0  0  0  0  0  0  0  0  0  0
    2.8559   64.7053   68.7893 H   0  0  0  0  0  0  0  0  0  0  0  0
    0.5384   64.7687   68.9472 H   0  0  0  0  0  0  0  0  0  0  0  0
   -0.6514   65.3478   70.2377 H   0  0  0  0  0  0  0  0  0  0  0  0
   -0.1430   67.4361   69.8745 H   0  0  0  0  0  0  0  0  0  0  0  0
    1.6288   67.0714   70.1024 H   0  0  0  0  0  0  0  0  0  0  0  0
    1.9913   66.7403   67.8359 H   0  0  0  0  0  0  0  0  0  0  0  0
    0.2237   66.5005   67.4994 H   0  0  0  0  0  0  0  0  0  0  0  0
    1.6054   66.9920   64.5268 H   0  0  0  0  0  0  0  0  0  0  0  0
    0.4533   68.2914   65.0470 H   0  0  0  0  0  0  0  0  0  0  0  0
    0.8432   67.9787   62.5207 H   0  0  0  0  0  0  0  0  0  0  0  0
    0.9847   69.6619   63.2428 H   0  0  0  0  0  0  0  0  0  0  0  0
    2.8485   68.2564   61.6064 H   0  0  0  0  0  0  0  0  0  0  0  0
    2.9471   69.9158   62.3733 H   0  0  0  0  0  0  0  0  0  0  0  0
    4.0047   67.2810   63.4323 H   0  0  0  0  0  0  0  0  0  0  0  0
    4.8988   68.8019   63.0502 H   0  0  0  0  0  0  0  0  0  0  0  0
    2.4901   70.1293   69.3639 H   0  0  0  0  0  0  0  0  0  0  0  0
    4.4921   71.1529   70.4201 H   0  0  0  0  0  0  0  0  0  0  0  0
    6.6179   71.3253   69.1271 H   0  0  0  0  0  0  0  0  0  0  0  0
    6.7145   70.4831   66.7953 H   0  0  0  0  0  0  0  0  0  0  0  0
    1.2042   65.3196   72.9414 H   0  0  0  0  0  0  0  0  0  0  0  0
   -0.4411   65.0665   72.1822 H   0  0  0  0  0  0  0  0  0  0  0  0
    1.5043   62.8469   72.8708 H   0  0  0  0  0  0  0  0  0  0  0  0
    0.0992   63.4204   73.9038 H   0  0  0  0  0  0  0  0  0  0  0  0
   -1.3802   62.8921   71.9222 H   0  0  0  0  0  0  0  0  0  0  0  0
    0.0689   61.9850   71.2626 H   0  0  0  0  0  0  0  0  0  0  0  0
   -1.6964   61.3267   73.6183 H   0  0  0  0  0  0  0  0  0  0  0  0
   -1.1135   60.2797   72.2821 H   0  0  0  0  0  0  0  0  0  0  0  0
    0.7059   61.2437   74.5610 H   0  0  0  0  0  0  0  0  0  0  0  0
    2.1454   61.3672   72.1324 H   0  0  0  0  0  0  0  0  0  0  0  0
    3.6588   60.4586   72.5419 H   0  0  0  0  0  0  0  0  0  0  0  0
    2.1240   60.5412   69.9272 H   0  0  0  0  0  0  0  0  0  0  0  0
    3.8880   60.9019   70.2889 H   0  0  0  0  0  0  0  0  0  0  0  0
    2.6881   58.4680   69.3590 H   0  0  0  0  0  0  0  0  0  0  0  0
    4.4390   58.9039   69.6726 H   0  0  0  0  0  0  0  0  0  0  0  0
    3.5153   56.8246   70.8492 H   0  0  0  0  0  0  0  0  0  0  0  0
    4.3909   58.0536   71.8400 H   0  0  0  0  0  0  0  0  0  0  0  0
   -1.3550   59.1984   75.0888 H   0  0  0  0  0  0  0  0  0  0  0  0
   -2.4832   57.0897   75.7716 H   0  0  0  0  0  0  0  0  0  0  0  0
   -1.6355   54.9050   74.9120 H   0  0  0  0  0  0  0  0  0  0  0  0
    0.3245   54.8510   73.3913 H   0  0  0  0  0  0  0  0  0  0  0  0
  2  1  1  0
  3  2  2  0
  4  2  1  0
  5  4  1  0
  6  5  1  0
  7  6  1  0
  8  7  1  0
  9  8  1  0
 10  9  1  0
 11 10  1  0
 12 11  1  0
 13 12  1  0
 14 13  1  0
 15 14  1  0
 15 10  2  0
 16 15  1  0
 17 16  2  0
 18 17  1  0
 18  9  2  0
 19 18  1  0
 20 19  2  0
 21 20  1  0
 22 17  1  0
 22 21  2  0
 23  4  1  0
 24 23  1  0
 25 24  1  0
 26 25  1  0
 27 26  1  0
 28 27  1  0
 29 28  1  0
 30 29  1  0
 31 30  1  0
 32 31  1  0
 33 32  1  0
 34 33  1  0
 34 29  2  0
 35 34  1  0
 36 35  2  0
 37 36  1  0
 37 28  2  0
 38 37  1  0
 39 38  2  0
 40 39  1  0
 41 36  1  0
 41 40  2  0
  1 42  1  0
  1 43  1  0
  1 44  1  0
  5 45  1  0
  5 46  1  0
  6 47  1  0
  6 48  1  0
  7 49  1  0
  7 50  1  0
 11 51  1  0
 11 52  1  0
 12 53  1  0
 12 54  1  0
 13 55  1  0
 13 56  1  0
 14 57  1  0
 14 58  1  0
 19 59  1  0
 20 60  1  0
 21 61  1  0
 22 62  1  0
 23 63  1  0
 23 64  1  0
 24 65  1  0
 24 66  1  0
 25 67  1  0
 25 68  1  0
 26 69  1  0
 26 70  1  0
 27 71  1  0
 30 72  1  0
 30 73  1  0
 31 74  1  0
 31 75  1  0
 32 76  1  0
 32 77  1  0
 33 78  1  0
 33 79  1  0
 38 80  1  0
 39 81  1  0
 40 82  1  0
 41 83  1  0
M  END
>  <score>  (7) 
-10.768

$$$$
=
     RDKit          3D

 83 88  0  0  0  0  0  0  0  0999 V2000
    3.0210   61.1450   69.9770 C   0  0  0  0  0  0  0  0  0  0  0  0
    3.0790   62.6290   69.7200 C   0  0  0  0  0  0  0  0  0  0  0  0
    3.8840   63.0620   68.8930 O   0  0  0  0  0  0  0  0  0  0  0  0
    2.2030   63.4630   70.4090 N   0  0  0  0  0  0  0  0  0  0  0  0
    1.2010   63.0110   71.3850 C   0  0  0  0  0  0  0  0  0  0  0  0
    1.6190   63.0700   72.8600 C   0  0  0  0  0  0  0  0  0  0  0  0
    0.6090   62.4110   73.7930 C   0  0  0  0  0  0  0  0  0  0  0  0
   -0.8580   61.7950   72.8900 S   0  0  0  0  0  0  0  0  0  0  0  0
   -1.0740   60.1970   73.7050 C   0  0  0  0  0  0  0  0  0  0  0  0
   -2.2480   59.9270   74.4260 C   0  0  0  0  0  0  0  0  0  0  0  0
   -3.4230   60.8590   74.5840 C   0  0  0  0  0  0  0  0  0  0  0  0
   -4.7580   60.1160   74.4510 C   0  0  0  0  0  0  0  0  0  0  0  0
   -4.8180   58.7690   75.1810 C   0  0  0  0  0  0  0  0  0  0  0  0
   -3.5400   58.4150   75.9370 C   0  0  0  0  0  0  0  0  0  0  0  0
   -2.3250   58.7050   75.0940 C   0  0  0  0  0  0  0  0  0  0  0  0
   -1.3560   57.7680   75.0590 N   0  0  0  0  0  0  0  0  0  0  0  0
   -0.2610   58.0040   74.3260 C   0  0  0  0  0  0  0  0  0  0  0  0
   -0.0530   59.2050   73.6140 C   0  0  0  0  0  0  0  0  0  0  0  0
    1.1500   59.3340   72.8680 C   0  0  0  0  0  0  0  0  0  0  0  0
    2.1080   58.3210   72.8380 C   0  0  0  0  0  0  0  0  0  0  0  0
    1.8860   57.1530   73.5500 C   0  0  0  0  0  0  0  0  0  0  0  0
    0.7070   57.0090   74.2820 C   0  0  0  0  0  0  0  0  0  0  0  0
    2.4570   64.9100   70.3400 C   0  0  0  0  0  0  0  0  0  0  0  0
    1.2230   65.7380   69.9820 C   0  0  0  0  0  0  0  0  0  0  0  0
    1.5130   67.2090   69.6510 C   0  0  0  0  0  0  0  0  0  0  0  0
    1.1520   67.6120   68.2160 C   0  0  0  0  0  0  0  0  0  0  0  0
    1.4090   69.0520   68.0350 N   0  0  0  0  0  0  0  0  0  0  0  0
    2.5580   69.2770   67.2210 C   0  0  0  0  0  0  0  0  0  0  0  0
    2.5850   68.8740   65.8790 C   0  0  0  0  0  0  0  0  0  0  0  0
    1.4260   68.2760   65.1260 C   0  0  0  0  0  0  0  0  0  0  0  0
    1.8690   67.1030   64.2440 C   0  0  0  0  0  0  0  0  0  0  0  0
    3.1810   67.3350   63.4810 C   0  0  0  0  0  0  0  0  0  0  0  0
    3.7910   68.7150   63.6990 C   0  0  0  0  0  0  0  0  0  0  0  0
    3.7650   69.0840   65.1590 C   0  0  0  0  0  0  0  0  0  0  0  0
    4.8860   69.6220   65.6850 N   0  0  0  0  0  0  0  0  0  0  0  0
    4.8700   69.9810   66.9770 C   0  0  0  0  0  0  0  0  0  0  0  0
    3.7320   69.8340   67.7990 C   0  0  0  0  0  0  0  0  0  0  0  0
    3.8090   70.2690   69.1440 C   0  0  0  0  0  0  0  0  0  0  0  0
    4.9820   70.8110   69.6680 C   0  0  0  0  0  0  0  0  0  0  0  0
    6.0960   70.9380   68.8520 C   0  0  0  0  0  0  0  0  0  0  0  0
    6.0260   70.5250   67.5200 C   0  0  0  0  0  0  0  0  0  0  0  0
    3.0138   60.9607   71.0614 H   0  0  0  0  0  0  0  0  0  0  0  0
    2.1060   60.7307   69.5286 H   0  0  0  0  0  0  0  0  0  0  0  0
    3.9009   60.6605   69.5286 H   0  0  0  0  0  0  0  0  0  0  0  0
    0.3067   63.6400   71.2640 H   0  0  0  0  0  0  0  0  0  0  0  0
    1.0371   61.9453   71.1673 H   0  0  0  0  0  0  0  0  0  0  0  0
    2.5855   62.5567   72.9711 H   0  0  0  0  0  0  0  0  0  0  0  0
    1.6826   64.1315   73.1414 H   0  0  0  0  0  0  0  0  0  0  0  0
    1.0944   61.5647   74.3011 H   0  0  0  0  0  0  0  0  0  0  0  0
    0.2700   63.1678   74.5158 H   0  0  0  0  0  0  0  0  0  0  0  0
   -3.3741   61.3292   75.5773 H   0  0  0  0  0  0  0  0  0  0  0  0
   -3.3705   61.6153   73.7870 H   0  0  0  0  0  0  0  0  0  0  0  0
   -5.5510   60.7612   74.8571 H   0  0  0  0  0  0  0  0  0  0  0  0
   -4.8848   59.8950   73.3809 H   0  0  0  0  0  0  0  0  0  0  0  0
   -5.6482   58.8029   75.9019 H   0  0  0  0  0  0  0  0  0  0  0  0
   -4.9569   57.9957   74.4111 H   0  0  0  0  0  0  0  0  0  0  0  0
   -3.4897   59.0110   76.8602 H   0  0  0  0  0  0  0  0  0  0  0  0
   -3.5564   57.3415   76.1764 H   0  0  0  0  0  0  0  0  0  0  0  0
    1.3302   60.2579   72.2989 H   0  0  0  0  0  0  0  0  0  0  0  0
    3.0317   58.4480   72.2543 H   0  0  0  0  0  0  0  0  0  0  0  0
    2.6333   56.3459   73.5381 H   0  0  0  0  0  0  0  0  0  0  0  0
    0.5387   56.0775   74.8423 H   0  0  0  0  0  0  0  0  0  0  0  0
    2.8260   65.2442   71.3209 H   0  0  0  0  0  0  0  0  0  0  0  0
    3.1919   65.0677   69.5369 H   0  0  0  0  0  0  0  0  0  0  0  0
    0.7435   65.2774   69.1057 H   0  0  0  0  0  0  0  0  0  0  0  0
    0.5802   65.7407   70.8747 H   0  0  0  0  0  0  0  0  0  0  0  0
    0.9343   67.8390   70.3425 H   0  0  0  0  0  0  0  0  0  0  0  0
    2.5990   67.3490   69.7556 H   0  0  0  0  0  0  0  0  0  0  0  0
    1.7664   67.0372   67.5074 H   0  0  0  0  0  0  0  0  0  0  0  0
    0.0884   67.4014   68.0307 H   0  0  0  0  0  0  0  0  0  0  0  0
    0.8320   69.8006   68.4444 H   0  0  0  0  0  0  0  0  0  0  0  0
    0.6785   67.9166   65.8486 H   0  0  0  0  0  0  0  0  0  0  0  0
    1.0015   69.0542   64.4747 H   0  0  0  0  0  0  0  0  0  0  0  0
    1.9980   66.2200   64.8872 H   0  0  0  0  0  0  0  0  0  0  0  0
    1.0854   66.9727   63.4830 H   0  0  0  0  0  0  0  0  0  0  0  0
    3.9098   66.5792   63.8090 H   0  0  0  0  0  0  0  0  0  0  0  0
    2.9432   67.2584   62.4097 H   0  0  0  0  0  0  0  0  0  0  0  0
    4.8330   68.7090   63.3466 H   0  0  0  0  0  0  0  0  0  0  0  0
    3.2022   69.4547   63.1367 H   0  0  0  0  0  0  0  0  0  0  0  0
    2.9236   70.1774   69.7902 H   0  0  0  0  0  0  0  0  0  0  0  0
    5.0233   71.1347   70.7185 H   0  0  0  0  0  0  0  0  0  0  0  0
    7.0292   71.3616   69.2516 H   0  0  0  0  0  0  0  0  0  0  0  0
    6.9147   70.6341   66.8809 H   0  0  0  0  0  0  0  0  0  0  0  0
  2  1  1  0
  3  2  2  0
  4  2  1  0
  5  4  1  0
  6  5  1  0
  7  6  1  0
  8  7  1  0
  9  8  1  0
 10  9  1  0
 11 10  1  0
 12 11  1  0
 13 12  1  0
 14 13  1  0
 15 14  1  0
 15 10  2  0
 16 15  1  0
 17 16  2  0
 18 17  1  0
 18  9  2  0
 19 18  1  0
 20 19  2  0
 21 20  1  0
 22 17  1  0
 22 21  2  0
 23  4  1  0
 24 23  1  0
 25 24  1  0
 26 25  1  0
 27 26  1  0
 28 27  1  0
 29 28  1  0
 30 29  1  0
 31 30  1  0
 32 31  1  0
 33 32  1  0
 34 33  1  0
 34 29  2  0
 35 34  1  0
 36 35  2  0
 37 36  1  0
 37 28  2  0
 38 37  1  0
 39 38  2  0
 40 39  1  0
 41 36  1  0
 41 40  2  0
  1 42  1  0
  1 43  1  0
  1 44  1  0
  5 45  1  0
  5 46  1  0
  6 47  1  0
  6 48  1  0
  7 49  1  0
  7 50  1  0
 11 51  1  0
 11 52  1  0
 12 53  1  0
 12 54  1  0
 13 55  1  0
 13 56  1  0
 14 57  1  0
 14 58  1  0
 19 59  1  0
 20 60  1  0
 21 61  1  0
 22 62  1  0
 23 63  1  0
 23 64  1  0
 24 65  1  0
 24 66  1  0
 25 67  1  0
 25 68  1  0
 26 69  1  0
 26 70  1  0
 27 71  1  0
 30 72  1  0
 30 73  1  0
 31 74  1  0
 31 75  1  0
 32 76  1  0
 32 77  1  0
 33 78  1  0
 33 79  1  0
 38 80  1  0
 39 81  1  0
 40 82  1  0
 41 83  1  0
M  END
>  <score>  (8) 
-10.766

$$$$
=
     RDKit          3D

 83 88  0  0  0  0  0  0  0  0999 V2000
    2.2660   61.9140   70.6450 C   0  0  0  0  0  0  0  0  0  0  0  0
    2.2420   63.3220   70.1060 C   0  0  0  0  0  0  0  0  0  0  0  0
    3.0260   63.6320   69.2070 O   0  0  0  0  0  0  0  0  0  0  0  0
    1.3170   64.2230   70.6270 N   0  0  0  0  0  0  0  0  0  0  0  0
    0.3370   63.9130   71.6780 C   0  0  0  0  0  0  0  0  0  0  0  0
    0.9040   63.6700   73.0820 C   0  0  0  0  0  0  0  0  0  0  0  0
    0.2210   62.5190   73.8110 C   0  0  0  0  0  0  0  0  0  0  0  0
   -0.9160   61.5930   72.7160 S   0  0  0  0  0  0  0  0  0  0  0  0
   -1.0750   60.0610   73.6610 C   0  0  0  0  0  0  0  0  0  0  0  0
   -0.0280   59.1270   73.6720 C   0  0  0  0  0  0  0  0  0  0  0  0
    1.2970   59.2770   72.9660 C   0  0  0  0  0  0  0  0  0  0  0  0
    2.4620   58.8030   73.8430 C   0  0  0  0  0  0  0  0  0  0  0  0
    2.2060   57.4950   74.6010 C   0  0  0  0  0  0  0  0  0  0  0  0
    0.8380   56.8780   74.3270 C   0  0  0  0  0  0  0  0  0  0  0  0
   -0.2380   57.9320   74.3590 C   0  0  0  0  0  0  0  0  0  0  0  0
   -1.3700   57.6430   75.0330 N   0  0  0  0  0  0  0  0  0  0  0  0
   -2.3470   58.5590   75.0690 C   0  0  0  0  0  0  0  0  0  0  0  0
   -2.2650   59.8010   74.4040 C   0  0  0  0  0  0  0  0  0  0  0  0
   -3.3680   60.6900   74.5220 C   0  0  0  0  0  0  0  0  0  0  0  0
   -4.5050   60.3570   75.2590 C   0  0  0  0  0  0  0  0  0  0  0  0
   -4.5660   59.1290   75.8970 C   0  0  0  0  0  0  0  0  0  0  0  0
   -3.4890   58.2480   75.7960 C   0  0  0  0  0  0  0  0  0  0  0  0
    1.4910   65.6410   70.2790 C   0  0  0  0  0  0  0  0  0  0  0  0
    0.2350   66.2950   69.7030 C   0  0  0  0  0  0  0  0  0  0  0  0
    0.5020   67.3590   68.6300 C   0  0  0  0  0  0  0  0  0  0  0  0
    1.8340   68.0990   68.7980 C   0  0  0  0  0  0  0  0  0  0  0  0
    1.7830   69.3710   68.0530 N   0  0  0  0  0  0  0  0  0  0  0  0
    2.9030   69.5080   67.1810 C   0  0  0  0  0  0  0  0  0  0  0  0
    2.8330   69.1010   65.8420 C   0  0  0  0  0  0  0  0  0  0  0  0
    1.5950   68.5900   65.1510 C   0  0  0  0  0  0  0  0  0  0  0  0
    1.9050   67.3860   64.2540 C   0  0  0  0  0  0  0  0  0  0  0  0
    3.1900   67.5170   63.4250 C   0  0  0  0  0  0  0  0  0  0  0  0
    3.9120   68.8490   63.6040 C   0  0  0  0  0  0  0  0  0  0  0  0
    3.9870   69.2210   65.0630 C   0  0  0  0  0  0  0  0  0  0  0  0
    5.1700   69.6750   65.5280 N   0  0  0  0  0  0  0  0  0  0  0  0
    5.2460   70.0360   66.8170 C   0  0  0  0  0  0  0  0  0  0  0  0
    4.1430   69.9760   67.6970 C   0  0  0  0  0  0  0  0  0  0  0  0
    4.3200   70.4060   69.0330 C   0  0  0  0  0  0  0  0  0  0  0  0
    5.5550   70.8600   69.4950 C   0  0  0  0  0  0  0  0  0  0  0  0
    6.6330   70.9010   68.6240 C   0  0  0  0  0  0  0  0  0  0  0  0
    6.4660   70.4930   67.2990 C   0  0  0  0  0  0  0  0  0  0  0  0
    2.2655   61.9423   71.7446 H   0  0  0  0  0  0  0  0  0  0  0  0
    1.3770   61.3710   70.2918 H   0  0  0  0  0  0  0  0  0  0  0  0
    3.1730   61.4016   70.2918 H   0  0  0  0  0  0  0  0  0  0  0  0
   -0.3656   64.7570   71.7412 H   0  0  0  0  0  0  0  0  0  0  0  0
   -0.1249   62.9608   71.3782 H   0  0  0  0  0  0  0  0  0  0  0  0
    1.9760   63.4405   72.9919 H   0  0  0  0  0  0  0  0  0  0  0  0
    0.7265   64.5825   73.6701 H   0  0  0  0  0  0  0  0  0  0  0  0
    0.9914   61.8299   74.1874 H   0  0  0  0  0  0  0  0  0  0  0  0
   -0.3710   62.9425   74.6357 H   0  0  0  0  0  0  0  0  0  0  0  0
    1.2791   58.6791   72.0429 H   0  0  0  0  0  0  0  0  0  0  0  0
    1.4478   60.3432   72.7413 H   0  0  0  0  0  0  0  0  0  0  0  0
    3.3399   58.6575   73.1963 H   0  0  0  0  0  0  0  0  0  0  0  0
    2.6099   59.5799   74.6076 H   0  0  0  0  0  0  0  0  0  0  0  0
    2.9783   56.7685   74.3083 H   0  0  0  0  0  0  0  0  0  0  0  0
    2.2376   57.7367   75.6736 H   0  0  0  0  0  0  0  0  0  0  0  0
    0.8484   56.4027   73.3350 H   0  0  0  0  0  0  0  0  0  0  0  0
    0.6246   56.1312   75.1059 H   0  0  0  0  0  0  0  0  0  0  0  0
   -3.3239   61.6670   74.0186 H   0  0  0  0  0  0  0  0  0  0  0  0
   -5.3452   61.0631   75.3327 H   0  0  0  0  0  0  0  0  0  0  0  0
   -5.4570   58.8506   76.4789 H   0  0  0  0  0  0  0  0  0  0  0  0
   -3.5460   57.2763   76.3083 H   0  0  0  0  0  0  0  0  0  0  0  0
    1.7806   66.1880   71.1884 H   0  0  0  0  0  0  0  0  0  0  0  0
    2.2625   65.6858   69.4962 H   0  0  0  0  0  0  0  0  0  0  0  0
   -0.3881   65.5063   69.2561 H   0  0  0  0  0  0  0  0  0  0  0  0
   -0.2575   66.8130   70.5391 H   0  0  0  0  0  0  0  0  0  0  0  0
    0.5030   66.8652   67.6470 H   0  0  0  0  0  0  0  0  0  0  0  0
   -0.2933   68.1128   68.7269 H   0  0  0  0  0  0  0  0  0  0  0  0
    2.0080   68.3047   69.8645 H   0  0  0  0  0  0  0  0  0  0  0  0
    2.6528   67.4765   68.4081 H   0  0  0  0  0  0  0  0  0  0  0  0
    1.0338   70.0711   68.1502 H   0  0  0  0  0  0  0  0  0  0  0  0
    0.8603   68.2883   65.9120 H   0  0  0  0  0  0  0  0  0  0  0  0
    1.1967   69.3967   64.5181 H   0  0  0  0  0  0  0  0  0  0  0  0
    1.9999   66.4969   64.8948 H   0  0  0  0  0  0  0  0  0  0  0  0
    1.0768   67.3143   63.5336 H   0  0  0  0  0  0  0  0  0  0  0  0
    3.8760   66.7095   63.7206 H   0  0  0  0  0  0  0  0  0  0  0  0
    2.8936   67.4558   62.3675 H   0  0  0  0  0  0  0  0  0  0  0  0
    4.9315   68.7646   63.1997 H   0  0  0  0  0  0  0  0  0  0  0  0
    3.3530   69.6299   63.0676 H   0  0  0  0  0  0  0  0  0  0  0  0
    3.4639   70.3817   69.7233 H   0  0  0  0  0  0  0  0  0  0  0  0
    5.6727   71.1824   70.5401 H   0  0  0  0  0  0  0  0  0  0  0  0
    7.6144   71.2530   68.9748 H   0  0  0  0  0  0  0  0  0  0  0  0
    7.3271   70.5348   66.6159 H   0  0  0  0  0  0  0  0  0  0  0  0
  2  1  1  0
  3  2  2  0
  4  2  1  0
  5  4  1  0
  6  5  1  0
  7  6  1  0
  8  7  1  0
  9  8  1  0
 10  9  1  0
 11 10  1  0
 12 11  1  0
 13 12  1  0
 14 13  1  0
 15 14  1  0
 15 10  2  0
 16 15  1  0
 17 16  2  0
 18 17  1  0
 18  9  2  0
 19 18  1  0
 20 19  2  0
 21 20  1  0
 22 17  1  0
 22 21  2  0
 23  4  1  0
 24 23  1  0
 25 24  1  0
 26 25  1  0
 27 26  1  0
 28 27  1  0
 29 28  1  0
 30 29  1  0
 31 30  1  0
 32 31  1  0
 33 32  1  0
 34 33  1  0
 34 29  2  0
 35 34  1  0
 36 35  2  0
 37 36  1  0
 37 28  2  0
 38 37  1  0
 39 38  2  0
 40 39  1  0
 41 36  1  0
 41 40  2  0
  1 42  1  0
  1 43  1  0
  1 44  1  0
  5 45  1  0
  5 46  1  0
  6 47  1  0
  6 48  1  0
  7 49  1  0
  7 50  1  0
 11 51  1  0
 11 52  1  0
 12 53  1  0
 12 54  1  0
 13 55  1  0
 13 56  1  0
 14 57  1  0
 14 58  1  0
 19 59  1  0
 20 60  1  0
 21 61  1  0
 22 62  1  0
 23 63  1  0
 23 64  1  0
 24 65  1  0
 24 66  1  0
 25 67  1  0
 25 68  1  0
 26 69  1  0
 26 70  1  0
 27 71  1  0
 30 72  1  0
 30 73  1  0
 31 74  1  0
 31 75  1  0
 32 76  1  0
 32 77  1  0
 33 78  1  0
 33 79  1  0
 38 80  1  0
 39 81  1  0
 40 82  1  0
 41 83  1  0
M  END
>  <score>  (9) 
-10.7

$$$$
