=
     RDKit          3D

 43 47  0  0  0  0  0  0  0  0999 V2000
    3.5820   69.0950   66.0110 C   0  0  0  0  0  0  0  0  0  0  0  0
    4.3900   69.7530   66.9750 C   0  0  0  0  0  0  0  0  0  0  0  0
    4.0410   69.9070   68.3400 C   0  0  0  0  0  0  0  0  0  0  0  0
    4.8850   70.5570   69.2420 C   0  0  0  0  0  0  0  0  0  0  0  0
    6.0970   71.0710   68.8050 C   0  0  0  0  0  0  0  0  0  0  0  0
    6.4610   70.9410   67.4660 C   0  0  0  0  0  0  0  0  0  0  0  0
    5.6210   70.2910   66.5460 C   0  0  0  0  0  0  0  0  0  0  0  0
    6.0000   70.1730   65.1980 C   0  0  0  0  0  0  0  0  0  0  0  0
    5.1850   69.5360   64.2480 C   0  0  0  0  0  0  0  0  0  0  0  0
    3.9470   68.9870   64.6430 C   0  0  0  0  0  0  0  0  0  0  0  0
    3.1500   68.3660   63.6500 C   0  0  0  0  0  0  0  0  0  0  0  0
    3.5710   68.2830   62.3210 C   0  0  0  0  0  0  0  0  0  0  0  0
    4.7960   68.8190   61.9500 C   0  0  0  0  0  0  0  0  0  0  0  0
    5.5960   69.4430   62.9070 C   0  0  0  0  0  0  0  0  0  0  0  0
    0.2370   68.2410   67.3570 C   0  0  1  0  0  0  0  0  0  0  0  0
    0.9220   66.9860   67.0750 N   0  0  0  0  0  0  0  0  0  0  0  0
    2.2290   67.1840   66.7180 N   0  0  0  0  0  0  0  0  0  0  0  0
    2.3390   68.4510   66.4590 C   0  0  0  0  0  0  0  0  0  0  0  0
    1.0910   69.2720   66.6310 C   0  0  0  0  0  0  0  0  0  0  0  0
   -3.8840   68.2350   66.0640 C   0  0  0  0  0  0  0  0  0  0  0  0
   -2.9470   69.0450   65.4270 C   0  0  0  0  0  0  0  0  0  0  0  0
   -1.6180   69.0480   65.8530 C   0  0  0  0  0  0  0  0  0  0  0  0
   -1.2090   68.2450   66.9290 C   0  0  0  0  0  0  0  0  0  0  0  0
   -2.1630   67.4270   67.5560 C   0  0  0  0  0  0  0  0  0  0  0  0
   -3.4920   67.4240   67.1280 C   0  0  0  0  0  0  0  0  0  0  0  0
    3.0817   69.5045   68.6973 H   0  0  0  0  0  0  0  0  0  0  0  0
    4.5898   70.6613   70.2965 H   0  0  0  0  0  0  0  0  0  0  0  0
    6.7684   71.5793   69.5127 H   0  0  0  0  0  0  0  0  0  0  0  0
    7.4214   71.3539   67.1238 H   0  0  0  0  0  0  0  0  0  0  0  0
    6.9648   70.5925   64.8769 H   0  0  0  0  0  0  0  0  0  0  0  0
    2.1764   67.9390   63.9325 H   0  0  0  0  0  0  0  0  0  0  0  0
    2.9331   67.7939   61.5701 H   0  0  0  0  0  0  0  0  0  0  0  0
    5.1347   68.7520   60.9056 H   0  0  0  0  0  0  0  0  0  0  0  0
    6.5647   69.8695   62.6074 H   0  0  0  0  0  0  0  0  0  0  0  0
    0.1558   68.4461   68.4347 H   0  0  0  0  0  0  0  0  0  0  0  0
    0.4758   66.0597   67.1369 H   0  0  0  0  0  0  0  0  0  0  0  0
    1.2667   70.1690   67.2431 H   0  0  0  0  0  0  0  0  0  0  0  0
    0.6593   69.6822   65.7062 H   0  0  0  0  0  0  0  0  0  0  0  0
   -4.9315   68.2352   65.7281 H   0  0  0  0  0  0  0  0  0  0  0  0
   -3.2552   69.6838   64.5862 H   0  0  0  0  0  0  0  0  0  0  0  0
   -0.8835   69.6863   65.3402 H   0  0  0  0  0  0  0  0  0  0  0  0
   -1.8598   66.7815   68.3935 H   0  0  0  0  0  0  0  0  0  0  0  0
   -4.2300   66.7815   67.6305 H   0  0  0  0  0  0  0  0  0  0  0  0
  2  1  1  0
  3  2  2  0
  4  3  1  0
  5  4  2  0
  6  5  1  0
  7  2  1  0
  7  6  2  0
  8  7  1  0
  9  8  2  0
 10  9  1  0
 10  1  2  0
 11 10  1  0
 12 11  2  0
 13 12  1  0
 14 13  2  0
 14  9  1  0
 16 15  1  0
 17 16  1  0
 18 17  2  0
 18  1  1  0
 19 18  1  0
 19 15  1  0
 21 20  2  0
 22 21  1  0
 23 22  2  0
 23 15  1  0
 24 23  1  0
 25 24  2  0
 25 20  1  0
  3 26  1  0
  4 27  1  0
  5 28  1  0
  6 29  1  0
  8 30  1  0
 11 31  1  0
 12 32  1  0
 13 33  1  0
 14 34  1  0
 15 35  1  1
 16 36  1  0
 19 37  1  0
 19 38  1  0
 20 39  1  0
 21 40  1  0
 22 41  1  0
 24 42  1  0
 25 43  1  0
M  END
>  <score>  (1) 
-11.969

$$$$
=
     RDKit          3D

 43 47  0  0  0  0  0  0  0  0999 V2000
    3.4050   69.1900   66.3020 C   0  0  0  0  0  0  0  0  0  0  0  0
    4.5170   69.8300   66.9100 C   0  0  0  0  0  0  0  0  0  0  0  0
    4.6110   70.1250   68.2930 C   0  0  0  0  0  0  0  0  0  0  0  0
    5.7370   70.7490   68.8330 C   0  0  0  0  0  0  0  0  0  0  0  0
    6.7960   71.0960   68.0060 C   0  0  0  0  0  0  0  0  0  0  0  0
    6.7260   70.8250   66.6410 C   0  0  0  0  0  0  0  0  0  0  0  0
    5.5980   70.1990   66.0820 C   0  0  0  0  0  0  0  0  0  0  0  0
    5.5390   69.9370   64.7040 C   0  0  0  0  0  0  0  0  0  0  0  0
    4.4270   69.3200   64.1090 C   0  0  0  0  0  0  0  0  0  0  0  0
    3.3280   68.9380   64.9060 C   0  0  0  0  0  0  0  0  0  0  0  0
    2.2210   68.3320   64.2630 C   0  0  0  0  0  0  0  0  0  0  0  0
    2.2120   68.1020   62.8860 C   0  0  0  0  0  0  0  0  0  0  0  0
    3.3040   68.4740   62.1160 C   0  0  0  0  0  0  0  0  0  0  0  0
    4.4040   69.0810   62.7240 C   0  0  0  0  0  0  0  0  0  0  0  0
    0.8280   67.2660   68.1420 C   0  0  1  0  0  0  0  0  0  0  0  0
    0.5810   68.6790   68.4040 N   0  0  0  0  0  0  0  0  0  0  0  0
    1.3840   69.4890   67.6470 N   0  0  0  0  0  0  0  0  0  0  0  0
    2.3100   68.7190   67.1620 C   0  0  0  0  0  0  0  0  0  0  0  0
    2.2240   67.2650   67.5370 C   0  0  0  0  0  0  0  0  0  0  0  0
    0.5270   64.7940   71.6710 C   0  0  0  0  0  0  0  0  0  0  0  0
    1.5600   64.5960   70.7580 C   0  0  0  0  0  0  0  0  0  0  0  0
    1.6490   65.3930   69.6160 C   0  0  0  0  0  0  0  0  0  0  0  0
    0.6990   66.3970   69.3670 C   0  0  0  0  0  0  0  0  0  0  0  0
   -0.3320   66.5910   70.3010 C   0  0  0  0  0  0  0  0  0  0  0  0
   -0.4180   65.7930   71.4430 C   0  0  0  0  0  0  0  0  0  0  0  0
    3.7764   69.8557   68.9571 H   0  0  0  0  0  0  0  0  0  0  0  0
    5.7847   70.9649   69.9105 H   0  0  0  0  0  0  0  0  0  0  0  0
    7.6879   71.5834   68.4267 H   0  0  0  0  0  0  0  0  0  0  0  0
    7.5672   71.1055   65.9900 H   0  0  0  0  0  0  0  0  0  0  0  0
    6.3910   70.2242   64.0704 H   0  0  0  0  0  0  0  0  0  0  0  0
    1.3478   68.0356   64.8627 H   0  0  0  0  0  0  0  0  0  0  0  0
    1.3403   67.6266   62.4125 H   0  0  0  0  0  0  0  0  0  0  0  0
    3.3031   68.2915   61.0312 H   0  0  0  0  0  0  0  0  0  0  0  0
    5.2669   69.3771   62.1094 H   0  0  0  0  0  0  0  0  0  0  0  0
    0.0787   66.8228   67.4695 H   0  0  0  0  0  0  0  0  0  0  0  0
   -0.1153   69.0265   69.0788 H   0  0  0  0  0  0  0  0  0  0  0  0
    2.2939   66.6063   66.6588 H   0  0  0  0  0  0  0  0  0  0  0  0
    3.0263   66.8938   68.1916 H   0  0  0  0  0  0  0  0  0  0  0  0
    0.4571   64.1636   72.5697 H   0  0  0  0  0  0  0  0  0  0  0  0
    2.3076   63.8093   70.9376 H   0  0  0  0  0  0  0  0  0  0  0  0
    2.4717   65.2333   68.9035 H   0  0  0  0  0  0  0  0  0  0  0  0
   -1.0794   67.3800   70.1307 H   0  0  0  0  0  0  0  0  0  0  0  0
   -1.2330   65.9528   72.1643 H   0  0  0  0  0  0  0  0  0  0  0  0
  2  1  1  0
  3  2  2  0
  4  3  1  0
  5  4  2  0
  6  5  1  0
  7  2  1  0
  7  6  2  0
  8  7  1  0
  9  8  2  0
 10  9  1  0
 10  1  2  0
 11 10  1  0
 12 11  2  0
 13 12  1  0
 14 13  2  0
 14  9  1  0
 16 15  1  0
 17 16  1  0
 18 17  2  0
 18  1  1  0
 19 18  1  0
 19 15  1  0
 21 20  2  0
 22 21  1  0
 23 22  2  0
 23 15  1  0
 24 23  1  0
 25 24  2  0
 25 20  1  0
  3 26  1  0
  4 27  1  0
  5 28  1  0
  6 29  1  0
  8 30  1  0
 11 31  1  0
 12 32  1  0
 13 33  1  0
 14 34  1  0
 15 35  1  6
 16 36  1  0
 19 37  1  0
 19 38  1  0
 20 39  1  0
 21 40  1  0
 22 41  1  0
 24 42  1  0
 25 43  1  0
M  END
>  <score>  (2) 
-11.046

$$$$
=
     RDKit          3D

 43 47  0  0  0  0  0  0  0  0999 V2000
    1.3540   62.6780   71.7820 C   0  0  0  0  0  0  0  0  0  0  0  0
    2.7100   62.3360   71.5350 C   0  0  0  0  0  0  0  0  0  0  0  0
    3.6410   63.1830   70.8850 C   0  0  0  0  0  0  0  0  0  0  0  0
    4.9650   62.7920   70.6790 C   0  0  0  0  0  0  0  0  0  0  0  0
    5.3930   61.5460   71.1150 C   0  0  0  0  0  0  0  0  0  0  0  0
    4.4940   60.6900   71.7490 C   0  0  0  0  0  0  0  0  0  0  0  0
    3.1570   61.0680   71.9610 C   0  0  0  0  0  0  0  0  0  0  0  0
    2.2630   60.1920   72.5970 C   0  0  0  0  0  0  0  0  0  0  0  0
    0.9190   60.5320   72.8220 C   0  0  0  0  0  0  0  0  0  0  0  0
    0.4360   61.7920   72.4070 C   0  0  0  0  0  0  0  0  0  0  0  0
   -0.9290   62.0880   72.6400 C   0  0  0  0  0  0  0  0  0  0  0  0
   -1.7780   61.1760   73.2700 C   0  0  0  0  0  0  0  0  0  0  0  0
   -1.2860   59.9450   73.6800 C   0  0  0  0  0  0  0  0  0  0  0  0
    0.0520   59.6250   73.4560 C   0  0  0  0  0  0  0  0  0  0  0  0
    0.8580   66.0750   70.3910 C   0  0  1  0  0  0  0  0  0  0  0  0
   -0.1090   65.9050   71.4680 N   0  0  0  0  0  0  0  0  0  0  0  0
    0.0900   64.7380   72.1550 N   0  0  0  0  0  0  0  0  0  0  0  0
    0.8940   64.0270   71.4250 C   0  0  0  0  0  0  0  0  0  0  0  0
    1.3480   64.6570   70.1370 C   0  0  0  0  0  0  0  0  0  0  0  0
   -0.7320   67.9650   66.8480 C   0  0  0  0  0  0  0  0  0  0  0  0
    0.5660   68.2410   67.2710 C   0  0  0  0  0  0  0  0  0  0  0  0
    1.0720   67.6330   68.4200 C   0  0  0  0  0  0  0  0  0  0  0  0
    0.2830   66.7440   69.1670 C   0  0  0  0  0  0  0  0  0  0  0  0
   -1.0200   66.4690   68.7230 C   0  0  0  0  0  0  0  0  0  0  0  0
   -1.5250   67.0780   67.5730 C   0  0  0  0  0  0  0  0  0  0  0  0
    3.3127   64.1725   70.5342 H   0  0  0  0  0  0  0  0  0  0  0  0
    5.6675   63.4700   70.1722 H   0  0  0  0  0  0  0  0  0  0  0  0
    6.4369   61.2353   70.9610 H   0  0  0  0  0  0  0  0  0  0  0  0
    4.8368   59.7017   72.0892 H   0  0  0  0  0  0  0  0  0  0  0  0
    2.6266   59.2085   72.9295 H   0  0  0  0  0  0  0  0  0  0  0  0
   -1.3302   63.0599   72.3169 H   0  0  0  0  0  0  0  0  0  0  0  0
   -2.8339   61.4326   73.4408 H   0  0  0  0  0  0  0  0  0  0  0  0
   -1.9496   59.2242   74.1801 H   0  0  0  0  0  0  0  0  0  0  0  0
    0.4359   58.6466   73.7807 H   0  0  0  0  0  0  0  0  0  0  0  0
    1.6754   66.7595   70.6616 H   0  0  0  0  0  0  0  0  0  0  0  0
   -0.8536   66.5824   71.6862 H   0  0  0  0  0  0  0  0  0  0  0  0
    2.4405   64.6118   70.0166 H   0  0  0  0  0  0  0  0  0  0  0  0
    0.9763   64.1819   69.2171 H   0  0  0  0  0  0  0  0  0  0  0  0
   -1.1305   68.4466   65.9429 H   0  0  0  0  0  0  0  0  0  0  0  0
    1.1933   68.9397   66.6980 H   0  0  0  0  0  0  0  0  0  0  0  0
    2.1000   67.8524   68.7441 H   0  0  0  0  0  0  0  0  0  0  0  0
   -1.6500   65.7659   69.2875 H   0  0  0  0  0  0  0  0  0  0  0  0
   -2.5496   66.8575   67.2390 H   0  0  0  0  0  0  0  0  0  0  0  0
  2  1  1  0
  3  2  2  0
  4  3  1  0
  5  4  2  0
  6  5  1  0
  7  2  1  0
  7  6  2  0
  8  7  1  0
  9  8  2  0
 10  9  1  0
 10  1  2  0
 11 10  1  0
 12 11  2  0
 13 12  1  0
 14 13  2  0
 14  9  1  0
 16 15  1  0
 17 16  1  0
 18 17  2  0
 18  1  1  0
 19 18  1  0
 19 15  1  0
 21 20  2  0
 22 21  1  0
 23 22  2  0
 23 15  1  0
 24 23  1  0
 25 24  2  0
 25 20  1  0
  3 26  1  0
  4 27  1  0
  5 28  1  0
  6 29  1  0
  8 30  1  0
 11 31  1  0
 12 32  1  0
 13 33  1  0
 14 34  1  0
 15 35  1  1
 16 36  1  0
 19 37  1  0
 19 38  1  0
 20 39  1  0
 21 40  1  0
 22 41  1  0
 24 42  1  0
 25 43  1  0
M  END
>  <score>  (3) 
-10.606

$$$$
=
     RDKit          3D

 43 47  0  0  0  0  0  0  0  0999 V2000
    1.5020   63.6360   71.4050 C   0  0  0  0  0  0  0  0  0  0  0  0
    2.3840   62.6630   70.8650 C   0  0  0  0  0  0  0  0  0  0  0  0
    2.7170   62.5610   69.4910 C   0  0  0  0  0  0  0  0  0  0  0  0
    3.5990   61.5870   69.0230 C   0  0  0  0  0  0  0  0  0  0  0  0
    4.1710   60.6880   69.9130 C   0  0  0  0  0  0  0  0  0  0  0  0
    3.8530   60.7600   71.2680 C   0  0  0  0  0  0  0  0  0  0  0  0
    2.9650   61.7350   71.7540 C   0  0  0  0  0  0  0  0  0  0  0  0
    2.6520   61.7920   73.1220 C   0  0  0  0  0  0  0  0  0  0  0  0
    1.7640   62.7470   73.6440 C   0  0  0  0  0  0  0  0  0  0  0  0
    1.1640   63.6900   72.7830 C   0  0  0  0  0  0  0  0  0  0  0  0
    0.2640   64.6250   73.3490 C   0  0  0  0  0  0  0  0  0  0  0  0
   -0.0200   64.6320   74.7170 C   0  0  0  0  0  0  0  0  0  0  0  0
    0.5860   63.7050   75.5520 C   0  0  0  0  0  0  0  0  0  0  0  0
    1.4700   62.7670   75.0190 C   0  0  0  0  0  0  0  0  0  0  0  0
    0.6510   66.7270   69.5490 C   0  0  1  0  0  0  0  0  0  0  0  0
   -0.3030   65.7030   69.1410 N   0  0  0  0  0  0  0  0  0  0  0  0
   -0.1750   64.5600   69.8830 N   0  0  0  0  0  0  0  0  0  0  0  0
    0.9580   64.6650   70.5080 C   0  0  0  0  0  0  0  0  0  0  0  0
    1.7340   65.9290   70.2610 C   0  0  0  0  0  0  0  0  0  0  0  0
    2.1970   69.0980   66.2880 C   0  0  0  0  0  0  0  0  0  0  0  0
    2.4720   69.4510   67.6070 C   0  0  0  0  0  0  0  0  0  0  0  0
    1.9640   68.6850   68.6570 C   0  0  0  0  0  0  0  0  0  0  0  0
    1.1670   67.5580   68.4020 C   0  0  0  0  0  0  0  0  0  0  0  0
    0.9060   67.2100   67.0660 C   0  0  0  0  0  0  0  0  0  0  0  0
    1.4150   67.9770   66.0170 C   0  0  0  0  0  0  0  0  0  0  0  0
    2.2690   63.2671   68.7764 H   0  0  0  0  0  0  0  0  0  0  0  0
    3.8408   61.5313   67.9513 H   0  0  0  0  0  0  0  0  0  0  0  0
    4.8723   59.9221   69.5502 H   0  0  0  0  0  0  0  0  0  0  0  0
    4.3044   60.0420   71.9685 H   0  0  0  0  0  0  0  0  0  0  0  0
    3.1166   61.0663   73.8058 H   0  0  0  0  0  0  0  0  0  0  0  0
   -0.2235   65.3638   72.6959 H   0  0  0  0  0  0  0  0  0  0  0  0
   -0.7223   65.3707   75.1307 H   0  0  0  0  0  0  0  0  0  0  0  0
    0.3702   63.7096   76.6306 H   0  0  0  0  0  0  0  0  0  0  0  0
    1.9447   62.0312   75.6848 H   0  0  0  0  0  0  0  0  0  0  0  0
    0.1988   67.4917   70.1977 H   0  0  0  0  0  0  0  0  0  0  0  0
   -0.9913   65.8251   68.3845 H   0  0  0  0  0  0  0  0  0  0  0  0
    2.0531   66.4086   71.1981 H   0  0  0  0  0  0  0  0  0  0  0  0
    2.6778   65.8085   69.7090 H   0  0  0  0  0  0  0  0  0  0  0  0
    2.5967   69.7035   65.4612 H   0  0  0  0  0  0  0  0  0  0  0  0
    3.0906   70.3350   67.8213 H   0  0  0  0  0  0  0  0  0  0  0  0
    2.1906   68.9674   69.6957 H   0  0  0  0  0  0  0  0  0  0  0  0
    0.2938   66.3234   66.8444 H   0  0  0  0  0  0  0  0  0  0  0  0
    1.1987   67.6964   64.9756 H   0  0  0  0  0  0  0  0  0  0  0  0
  2  1  1  0
  3  2  2  0
  4  3  1  0
  5  4  2  0
  6  5  1  0
  7  2  1  0
  7  6  2  0
  8  7  1  0
  9  8  2  0
 10  9  1  0
 10  1  2  0
 11 10  1  0
 12 11  2  0
 13 12  1  0
 14 13  2  0
 14  9  1  0
 16 15  1  0
 17 16  1  0
 18 17  2  0
 18  1  1  0
 19 18  1  0
 19 15  1  0
 21 20  2  0
 22 21  1  0
 23 22  2  0
 23 15  1  0
 24 23  1  0
 25 24  2  0
 25 20  1  0
  3 26  1  0
  4 27  1  0
  5 28  1  0
  6 29  1  0
  8 30  1  0
 11 31  1  0
 12 32  1  0
 13 33  1  0
 14 34  1  0
 15 35  1  1
 16 36  1  0
 19 37  1  0
 19 38  1  0
 20 39  1  0
 21 40  1  0
 22 41  1  0
 24 42  1  0
 25 43  1  0
M  END
>  <score>  (4) 
-10.571

$$$$
=
     RDKit          3D

 43 47  0  0  0  0  0  0  0  0999 V2000
    1.3640   62.7150   71.8640 C   0  0  0  0  0  0  0  0  0  0  0  0
    0.4430   61.8130   72.4600 C   0  0  0  0  0  0  0  0  0  0  0  0
   -0.8990   62.1380   72.7820 C   0  0  0  0  0  0  0  0  0  0  0  0
   -1.7590   61.2030   73.3590 C   0  0  0  0  0  0  0  0  0  0  0  0
   -1.3030   59.9210   73.6310 C   0  0  0  0  0  0  0  0  0  0  0  0
    0.0140   59.5780   73.3320 C   0  0  0  0  0  0  0  0  0  0  0  0
    0.8930   60.5090   72.7520 C   0  0  0  0  0  0  0  0  0  0  0  0
    2.2190   60.1500   72.4620 C   0  0  0  0  0  0  0  0  0  0  0  0
    3.1280   61.0540   71.8890 C   0  0  0  0  0  0  0  0  0  0  0  0
    2.7120   62.3670   71.5840 C   0  0  0  0  0  0  0  0  0  0  0  0
    3.6650   63.2510   71.0210 C   0  0  0  0  0  0  0  0  0  0  0  0
    4.9750   62.8440   70.7600 C   0  0  0  0  0  0  0  0  0  0  0  0
    5.3660   61.5460   71.0560 C   0  0  0  0  0  0  0  0  0  0  0  0
    4.4500   60.6580   71.6190 C   0  0  0  0  0  0  0  0  0  0  0  0
    0.8390   66.0790   70.4030 C   0  0  1  0  0  0  0  0  0  0  0  0
   -0.1560   65.9050   71.4540 N   0  0  0  0  0  0  0  0  0  0  0  0
    0.0470   64.7540   72.1660 N   0  0  0  0  0  0  0  0  0  0  0  0
    0.8870   64.0480   71.4710 C   0  0  0  0  0  0  0  0  0  0  0  0
    1.3660   64.6670   70.1870 C   0  0  0  0  0  0  0  0  0  0  0  0
   -0.6870   67.8750   66.7840 C   0  0  0  0  0  0  0  0  0  0  0  0
    0.6090   68.1490   67.2140 C   0  0  0  0  0  0  0  0  0  0  0  0
    1.0950   67.5710   68.3880 C   0  0  0  0  0  0  0  0  0  0  0  0
    0.2870   66.7150   69.1520 C   0  0  0  0  0  0  0  0  0  0  0  0
   -1.0150   66.4420   68.7010 C   0  0  0  0  0  0  0  0  0  0  0  0
   -1.4990   67.0200   67.5270 C   0  0  0  0  0  0  0  0  0  0  0  0
   -1.2711   63.1516   72.5719 H   0  0  0  0  0  0  0  0  0  0  0  0
   -2.7960   61.4815   73.5977 H   0  0  0  0  0  0  0  0  0  0  0  0
   -1.9785   59.1785   74.0809 H   0  0  0  0  0  0  0  0  0  0  0  0
    0.3718   58.5617   73.5535 H   0  0  0  0  0  0  0  0  0  0  0  0
    2.5565   59.1284   72.6909 H   0  0  0  0  0  0  0  0  0  0  0  0
    3.3660   64.2826   70.7838 H   0  0  0  0  0  0  0  0  0  0  0  0
    5.6949   63.5504   70.3210 H   0  0  0  0  0  0  0  0  0  0  0  0
    6.3952   61.2185   70.8472 H   0  0  0  0  0  0  0  0  0  0  0  0
    4.7666   59.6315   71.8557 H   0  0  0  0  0  0  0  0  0  0  0  0
    1.6331   66.7856   70.6861 H   0  0  0  0  0  0  0  0  0  0  0  0
   -0.9210   66.5694   71.6388 H   0  0  0  0  0  0  0  0  0  0  0  0
    2.4623   64.6432   70.0997 H   0  0  0  0  0  0  0  0  0  0  0  0
    1.0318   64.1696   69.2645 H   0  0  0  0  0  0  0  0  0  0  0  0
   -1.0691   68.3326   65.8596 H   0  0  0  0  0  0  0  0  0  0  0  0
    1.2511   68.8224   66.6272 H   0  0  0  0  0  0  0  0  0  0  0  0
    2.1216   67.7887   68.7176 H   0  0  0  0  0  0  0  0  0  0  0  0
   -1.6603   65.7649   69.2799 H   0  0  0  0  0  0  0  0  0  0  0  0
   -2.5221   66.8007   67.1876 H   0  0  0  0  0  0  0  0  0  0  0  0
  2  1  1  0
  3  2  2  0
  4  3  1  0
  5  4  2  0
  6  5  1  0
  7  2  1  0
  7  6  2  0
  8  7  1  0
  9  8  2  0
 10  9  1  0
 10  1  2  0
 11 10  1  0
 12 11  2  0
 13 12  1  0
 14 13  2  0
 14  9  1  0
 16 15  1  0
 17 16  1  0
 18 17  2  0
 18  1  1  0
 19 18  1  0
 19 15  1  0
 21 20  2  0
 22 21  1  0
 23 22  2  0
 23 15  1  0
 24 23  1  0
 25 24  2  0
 25 20  1  0
  3 26  1  0
  4 27  1  0
  5 28  1  0
  6 29  1  0
  8 30  1  0
 11 31  1  0
 12 32  1  0
 13 33  1  0
 14 34  1  0
 15 35  1  1
 16 36  1  0
 19 37  1  0
 19 38  1  0
 20 39  1  0
 21 40  1  0
 22 41  1  0
 24 42  1  0
 25 43  1  0
M  END
>  <score>  (5) 
-10.499

$$$$
=
     RDKit          3D

 43 47  0  0  0  0  0  0  0  0999 V2000
    1.5110   63.6380   71.4090 C   0  0  0  0  0  0  0  0  0  0  0  0
    1.1320   63.6650   72.7770 C   0  0  0  0  0  0  0  0  0  0  0  0
    0.3190   64.6670   73.3620 C   0  0  0  0  0  0  0  0  0  0  0  0
   -0.0270   64.6330   74.7140 C   0  0  0  0  0  0  0  0  0  0  0  0
    0.4300   63.5980   75.5170 C   0  0  0  0  0  0  0  0  0  0  0  0
    1.2390   62.6030   74.9690 C   0  0  0  0  0  0  0  0  0  0  0  0
    1.5980   62.6260   73.6100 C   0  0  0  0  0  0  0  0  0  0  0  0
    2.4180   61.6190   73.0740 C   0  0  0  0  0  0  0  0  0  0  0  0
    2.8020   61.6110   71.7240 C   0  0  0  0  0  0  0  0  0  0  0  0
    2.3550   62.6360   70.8620 C   0  0  0  0  0  0  0  0  0  0  0  0
    2.7790   62.5970   69.5110 C   0  0  0  0  0  0  0  0  0  0  0  0
    3.6030   61.5760   69.0320 C   0  0  0  0  0  0  0  0  0  0  0  0
    4.0250   60.5710   69.8890 C   0  0  0  0  0  0  0  0  0  0  0  0
    3.6300   60.5900   71.2260 C   0  0  0  0  0  0  0  0  0  0  0  0
    0.6470   66.7200   69.5430 C   0  0  1  0  0  0  0  0  0  0  0  0
   -0.3020   65.6900   69.1390 N   0  0  0  0  0  0  0  0  0  0  0  0
   -0.1700   64.5500   69.8850 N   0  0  0  0  0  0  0  0  0  0  0  0
    0.9630   64.6620   70.5090 C   0  0  0  0  0  0  0  0  0  0  0  0
    1.7330   65.9280   70.2570 C   0  0  0  0  0  0  0  0  0  0  0  0
    2.1840   69.0860   66.2740 C   0  0  0  0  0  0  0  0  0  0  0  0
    2.4660   69.4380   67.5920 C   0  0  0  0  0  0  0  0  0  0  0  0
    1.9620   68.6740   68.6450 C   0  0  0  0  0  0  0  0  0  0  0  0
    1.1600   67.5490   68.3930 C   0  0  0  0  0  0  0  0  0  0  0  0
    0.8910   67.2020   67.0590 C   0  0  0  0  0  0  0  0  0  0  0  0
    1.3970   67.9670   66.0070 C   0  0  0  0  0  0  0  0  0  0  0  0
   -0.0489   65.4926   72.7350 H   0  0  0  0  0  0  0  0  0  0  0  0
   -0.6601   65.4245   75.1414 H   0  0  0  0  0  0  0  0  0  0  0  0
    0.1553   63.5624   76.5816 H   0  0  0  0  0  0  0  0  0  0  0  0
    1.6022   61.7867   75.6107 H   0  0  0  0  0  0  0  0  0  0  0  0
    2.7701   60.8116   73.7329 H   0  0  0  0  0  0  0  0  0  0  0  0
    2.4514   63.3899   68.8225 H   0  0  0  0  0  0  0  0  0  0  0  0
    3.9164   61.5692   67.9776 H   0  0  0  0  0  0  0  0  0  0  0  0
    4.6692   59.7615   69.5153 H   0  0  0  0  0  0  0  0  0  0  0  0
    3.9720   59.7928   71.9024 H   0  0  0  0  0  0  0  0  0  0  0  0
    0.1916   67.4856   70.1884 H   0  0  0  0  0  0  0  0  0  0  0  0
   -0.9905   65.8063   68.3818 H   0  0  0  0  0  0  0  0  0  0  0  0
    2.0508   66.4120   71.1923 H   0  0  0  0  0  0  0  0  0  0  0  0
    2.6766   65.8091   69.7043 H   0  0  0  0  0  0  0  0  0  0  0  0
    2.5818   69.6902   65.4453 H   0  0  0  0  0  0  0  0  0  0  0  0
    3.0877   70.3206   67.8031 H   0  0  0  0  0  0  0  0  0  0  0  0
    2.1950   68.9555   69.6825 H   0  0  0  0  0  0  0  0  0  0  0  0
    0.2746   66.3174   66.8408 H   0  0  0  0  0  0  0  0  0  0  0  0
    1.1746   67.6867   64.9668 H   0  0  0  0  0  0  0  0  0  0  0  0
  2  1  1  0
  3  2  2  0
  4  3  1  0
  5  4  2  0
  6  5  1  0
  7  2  1  0
  7  6  2  0
  8  7  1  0
  9  8  2  0
 10  9  1  0
 10  1  2  0
 11 10  1  0
 12 11  2  0
 13 12  1  0
 14 13  2  0
 14  9  1  0
 16 15  1  0
 17 16  1  0
 18 17  2  0
 18  1  1  0
 19 18  1  0
 19 15  1  0
 21 20  2  0
 22 21  1  0
 23 22  2  0
 23 15  1  0
 24 23  1  0
 25 24  2  0
 25 20  1  0
  3 26  1  0
  4 27  1  0
  5 28  1  0
  6 29  1  0
  8 30  1  0
 11 31  1  0
 12 32  1  0
 13 33  1  0
 14 34  1  0
 15 35  1  1
 16 36  1  0
 19 37  1  0
 19 38  1  0
 20 39  1  0
 21 40  1  0
 22 41  1  0
 24 42  1  0
 25 43  1  0
M  END
>  <score>  (6) 
-10.456

$$$$
=
     RDKit          3D

 43 47  0  0  0  0  0  0  0  0999 V2000
    0.6150   67.6610   67.7420 C   0  0  0  0  0  0  0  0  0  0  0  0
   -0.6050   67.9920   67.0950 C   0  0  0  0  0  0  0  0  0  0  0  0
   -0.7220   68.9440   66.0510 C   0  0  0  0  0  0  0  0  0  0  0  0
   -1.9500   69.2190   65.4470 C   0  0  0  0  0  0  0  0  0  0  0  0
   -3.0920   68.5530   65.8700 C   0  0  0  0  0  0  0  0  0  0  0  0
   -3.0050   67.6190   66.9010 C   0  0  0  0  0  0  0  0  0  0  0  0
   -1.7770   67.3330   67.5200 C   0  0  0  0  0  0  0  0  0  0  0  0
   -1.7070   66.3920   68.5610 C   0  0  0  0  0  0  0  0  0  0  0  0
   -0.4990   66.0840   69.2070 C   0  0  0  0  0  0  0  0  0  0  0  0
    0.6930   66.7260   68.8090 C   0  0  0  0  0  0  0  0  0  0  0  0
    1.8860   66.3970   69.4970 C   0  0  0  0  0  0  0  0  0  0  0  0
    1.8970   65.4590   70.5320 C   0  0  0  0  0  0  0  0  0  0  0  0
    0.7190   64.8290   70.9060 C   0  0  0  0  0  0  0  0  0  0  0  0
   -0.4710   65.1410   70.2500 C   0  0  0  0  0  0  0  0  0  0  0  0
    3.5190   69.8350   66.9880 C   0  0  1  0  0  0  0  0  0  0  0  0
    3.5880   68.6930   66.0850 N   0  0  0  0  0  0  0  0  0  0  0  0
    2.4750   67.9010   66.1730 N   0  0  0  0  0  0  0  0  0  0  0  0
    1.8580   68.2730   67.2530 C   0  0  0  0  0  0  0  0  0  0  0  0
    2.4960   69.3940   68.0260 C   0  0  0  0  0  0  0  0  0  0  0  0
    7.3320   70.8750   68.7300 C   0  0  0  0  0  0  0  0  0  0  0  0
    6.1740   70.8950   69.5050 C   0  0  0  0  0  0  0  0  0  0  0  0
    4.9440   70.5640   68.9350 C   0  0  0  0  0  0  0  0  0  0  0  0
    4.8530   70.2160   67.5780 C   0  0  0  0  0  0  0  0  0  0  0  0
    6.0300   70.1920   66.8120 C   0  0  0  0  0  0  0  0  0  0  0  0
    7.2600   70.5230   67.3830 C   0  0  0  0  0  0  0  0  0  0  0  0
    0.1763   69.4787   65.7088 H   0  0  0  0  0  0  0  0  0  0  0  0
   -2.0125   69.9616   64.6379 H   0  0  0  0  0  0  0  0  0  0  0  0
   -4.0614   68.7614   65.3937 H   0  0  0  0  0  0  0  0  0  0  0  0
   -3.9136   67.0970   67.2356 H   0  0  0  0  0  0  0  0  0  0  0  0
   -2.6272   65.8806   68.8798 H   0  0  0  0  0  0  0  0  0  0  0  0
    2.8257   66.8914   69.2099 H   0  0  0  0  0  0  0  0  0  0  0  0
    2.8379   65.2204   71.0495 H   0  0  0  0  0  0  0  0  0  0  0  0
    0.7238   64.0860   71.7171 H   0  0  0  0  0  0  0  0  0  0  0  0
   -1.4030   64.6415   70.5531 H   0  0  0  0  0  0  0  0  0  0  0  0
    3.2247   70.7626   66.4752 H   0  0  0  0  0  0  0  0  0  0  0  0
    4.3807   68.5042   65.4550 H   0  0  0  0  0  0  0  0  0  0  0  0
    1.7784   70.1926   68.2652 H   0  0  0  0  0  0  0  0  0  0  0  0
    2.9035   69.1220   69.0109 H   0  0  0  0  0  0  0  0  0  0  0  0
    8.3010   71.1364   69.1802 H   0  0  0  0  0  0  0  0  0  0  0  0
    6.2296   71.1722   70.5680 H   0  0  0  0  0  0  0  0  0  0  0  0
    4.0359   70.5759   69.5557 H   0  0  0  0  0  0  0  0  0  0  0  0
    5.9820   69.9092   65.7501 H   0  0  0  0  0  0  0  0  0  0  0  0
    8.1730   70.5061   66.7697 H   0  0  0  0  0  0  0  0  0  0  0  0
  2  1  1  0
  3  2  2  0
  4  3  1  0
  5  4  2  0
  6  5  1  0
  7  2  1  0
  7  6  2  0
  8  7  1  0
  9  8  2  0
 10  9  1  0
 10  1  2  0
 11 10  1  0
 12 11  2  0
 13 12  1  0
 14 13  2  0
 14  9  1  0
 16 15  1  0
 17 16  1  0
 18 17  2  0
 18  1  1  0
 19 18  1  0
 19 15  1  0
 21 20  2  0
 22 21  1  0
 23 22  2  0
 23 15  1  0
 24 23  1  0
 25 24  2  0
 25 20  1  0
  3 26  1  0
  4 27  1  0
  5 28  1  0
  6 29  1  0
  8 30  1  0
 11 31  1  0
 12 32  1  0
 13 33  1  0
 14 34  1  0
 15 35  1  6
 16 36  1  0
 19 37  1  0
 19 38  1  0
 20 39  1  0
 21 40  1  0
 22 41  1  0
 24 42  1  0
 25 43  1  0
M  END
>  <score>  (7) 
-10.061

$$$$
=
     RDKit          3D

 43 47  0  0  0  0  0  0  0  0999 V2000
    1.8340   62.6530   72.2990 C   0  0  0  0  0  0  0  0  0  0  0  0
    3.0970   62.0760   72.0010 C   0  0  0  0  0  0  0  0  0  0  0  0
    3.6070   60.9070   72.6190 C   0  0  0  0  0  0  0  0  0  0  0  0
    4.8540   60.3830   72.2760 C   0  0  0  0  0  0  0  0  0  0  0  0
    5.6240   61.0130   71.3070 C   0  0  0  0  0  0  0  0  0  0  0  0
    5.1490   62.1690   70.6900 C   0  0  0  0  0  0  0  0  0  0  0  0
    3.8970   62.7090   71.0270 C   0  0  0  0  0  0  0  0  0  0  0  0
    3.4340   63.8780   70.4000 C   0  0  0  0  0  0  0  0  0  0  0  0
    2.1910   64.4510   70.7140 C   0  0  0  0  0  0  0  0  0  0  0  0
    1.3660   63.8440   71.6850 C   0  0  0  0  0  0  0  0  0  0  0  0
    0.1270   64.4640   71.9820 C   0  0  0  0  0  0  0  0  0  0  0  0
   -0.2810   65.6310   71.3330 C   0  0  0  0  0  0  0  0  0  0  0  0
    0.5380   66.2100   70.3750 C   0  0  0  0  0  0  0  0  0  0  0  0
    1.7660   65.6250   70.0690 C   0  0  0  0  0  0  0  0  0  0  0  0
   -0.7940   60.6710   74.0000 C   0  0  1  0  0  0  0  0  0  0  0  0
   -0.0400   61.3660   75.0350 N   0  0  0  0  0  0  0  0  0  0  0  0
    0.8600   62.2510   74.5070 N   0  0  0  0  0  0  0  0  0  0  0  0
    0.9500   61.9570   73.2460 C   0  0  0  0  0  0  0  0  0  0  0  0
    0.0890   60.8210   72.7690 C   0  0  0  0  0  0  0  0  0  0  0  0
   -1.6310   56.5590   75.0240 C   0  0  0  0  0  0  0  0  0  0  0  0
   -0.5070   56.8820   74.2650 C   0  0  0  0  0  0  0  0  0  0  0  0
   -0.2450   58.2120   73.9320 C   0  0  0  0  0  0  0  0  0  0  0  0
   -1.1090   59.2380   74.3470 C   0  0  0  0  0  0  0  0  0  0  0  0
   -2.2330   58.8980   75.1180 C   0  0  0  0  0  0  0  0  0  0  0  0
   -2.4930   57.5670   75.4510 C   0  0  0  0  0  0  0  0  0  0  0  0
    3.0051   60.4004   73.3878 H   0  0  0  0  0  0  0  0  0  0  0  0
    5.2259   59.4740   72.7714 H   0  0  0  0  0  0  0  0  0  0  0  0
    6.6050   60.6012   71.0275 H   0  0  0  0  0  0  0  0  0  0  0  0
    5.7649   62.6667   69.9265 H   0  0  0  0  0  0  0  0  0  0  0  0
    4.0653   64.3598   69.6389 H   0  0  0  0  0  0  0  0  0  0  0  0
   -0.5292   64.0151   72.7422 H   0  0  0  0  0  0  0  0  0  0  0  0
   -1.2495   66.0900   71.5808 H   0  0  0  0  0  0  0  0  0  0  0  0
    0.2198   67.1276   69.8584 H   0  0  0  0  0  0  0  0  0  0  0  0
    2.4127   66.0900   69.3103 H   0  0  0  0  0  0  0  0  0  0  0  0
   -1.7981   61.0947   73.8509 H   0  0  0  0  0  0  0  0  0  0  0  0
   -0.1692   61.2096   76.0448 H   0  0  0  0  0  0  0  0  0  0  0  0
   -0.4911   61.0888   71.8736 H   0  0  0  0  0  0  0  0  0  0  0  0
    0.6270   59.9144   72.4550 H   0  0  0  0  0  0  0  0  0  0  0  0
   -1.8369   55.5105   75.2852 H   0  0  0  0  0  0  0  0  0  0  0  0
    0.1747   56.0872   73.9279 H   0  0  0  0  0  0  0  0  0  0  0  0
    0.6475   58.4588   73.3383 H   0  0  0  0  0  0  0  0  0  0  0  0
   -2.9156   59.6886   75.4631 H   0  0  0  0  0  0  0  0  0  0  0  0
   -3.3794   57.3140   76.0512 H   0  0  0  0  0  0  0  0  0  0  0  0
  2  1  1  0
  3  2  2  0
  4  3  1  0
  5  4  2  0
  6  5  1  0
  7  2  1  0
  7  6  2  0
  8  7  1  0
  9  8  2  0
 10  9  1  0
 10  1  2  0
 11 10  1  0
 12 11  2  0
 13 12  1  0
 14 13  2  0
 14  9  1  0
 16 15  1  0
 17 16  1  0
 18 17  2  0
 18  1  1  0
 19 18  1  0
 19 15  1  0
 21 20  2  0
 22 21  1  0
 23 22  2  0
 23 15  1  0
 24 23  1  0
 25 24  2  0
 25 20  1  0
  3 26  1  0
  4 27  1  0
  5 28  1  0
  6 29  1  0
  8 30  1  0
 11 31  1  0
 12 32  1  0
 13 33  1  0
 14 34  1  0
 15 35  1  6
 16 36  1  0
 19 37  1  0
 19 38  1  0
 20 39  1  0
 21 40  1  0
 22 41  1  0
 24 42  1  0
 25 43  1  0
M  END
>  <score>  (8) 
-9.92

$$$$
=
     RDKit          3D

 43 47  0  0  0  0  0  0  0  0999 V2000
    1.6890   62.7010   72.2080 C   0  0  0  0  0  0  0  0  0  0  0  0
    1.3330   63.9110   71.5550 C   0  0  0  0  0  0  0  0  0  0  0  0
    0.1050   64.5910   71.7470 C   0  0  0  0  0  0  0  0  0  0  0  0
   -0.1820   65.7840   71.0810 C   0  0  0  0  0  0  0  0  0  0  0  0
    0.7480   66.3270   70.2060 C   0  0  0  0  0  0  0  0  0  0  0  0
    1.9600   65.6730   69.9920 C   0  0  0  0  0  0  0  0  0  0  0  0
    2.2630   64.4700   70.6540 C   0  0  0  0  0  0  0  0  0  0  0  0
    3.4870   63.8210   70.4240 C   0  0  0  0  0  0  0  0  0  0  0  0
    3.8220   62.6150   71.0610 C   0  0  0  0  0  0  0  0  0  0  0  0
    2.9160   62.0270   71.9680 C   0  0  0  0  0  0  0  0  0  0  0  0
    3.2870   60.8030   72.5770 C   0  0  0  0  0  0  0  0  0  0  0  0
    4.5150   60.1950   72.3060 C   0  0  0  0  0  0  0  0  0  0  0  0
    5.4000   60.7910   71.4200 C   0  0  0  0  0  0  0  0  0  0  0  0
    5.0550   61.9920   70.8000 C   0  0  0  0  0  0  0  0  0  0  0  0
   -1.0840   61.1210   74.0900 C   0  0  1  0  0  0  0  0  0  0  0  0
   -0.1990   61.7430   75.0670 N   0  0  0  0  0  0  0  0  0  0  0  0
    0.7810   62.4900   74.4690 N   0  0  0  0  0  0  0  0  0  0  0  0
    0.7710   62.1510   73.2160 C   0  0  0  0  0  0  0  0  0  0  0  0
   -0.2500   61.1230   72.8170 C   0  0  0  0  0  0  0  0  0  0  0  0
   -2.3920   57.1890   75.3040 C   0  0  0  0  0  0  0  0  0  0  0  0
   -1.1260   57.3710   74.7540 C   0  0  0  0  0  0  0  0  0  0  0  0
   -0.7100   58.6430   74.3580 C   0  0  0  0  0  0  0  0  0  0  0  0
   -1.5610   59.7510   74.4990 C   0  0  0  0  0  0  0  0  0  0  0  0
   -2.8320   59.5530   75.0630 C   0  0  0  0  0  0  0  0  0  0  0  0
   -3.2450   58.2800   75.4600 C   0  0  0  0  0  0  0  0  0  0  0  0
   -0.6402   64.1689   72.4373 H   0  0  0  0  0  0  0  0  0  0  0  0
   -1.1429   66.2922   71.2495 H   0  0  0  0  0  0  0  0  0  0  0  0
    0.5295   67.2699   69.6833 H   0  0  0  0  0  0  0  0  0  0  0  0
    2.6918   66.1051   69.2936 H   0  0  0  0  0  0  0  0  0  0  0  0
    4.2056   64.2712   69.7233 H   0  0  0  0  0  0  0  0  0  0  0  0
    2.5919   60.3201   73.2796 H   0  0  0  0  0  0  0  0  0  0  0  0
    4.7796   59.2455   72.7943 H   0  0  0  0  0  0  0  0  0  0  0  0
    6.3702   60.3185   71.2070 H   0  0  0  0  0  0  0  0  0  0  0  0
    5.7590   62.4591   70.0956 H   0  0  0  0  0  0  0  0  0  0  0  0
   -2.0327   61.6650   73.9710 H   0  0  0  0  0  0  0  0  0  0  0  0
   -0.2988   61.6337   76.0863 H   0  0  0  0  0  0  0  0  0  0  0  0
   -0.8342   61.4388   71.9401 H   0  0  0  0  0  0  0  0  0  0  0  0
    0.1525   60.1464   72.5101 H   0  0  0  0  0  0  0  0  0  0  0  0
   -2.7185   56.1856   75.6149 H   0  0  0  0  0  0  0  0  0  0  0  0
   -0.4521   56.5103   74.6313 H   0  0  0  0  0  0  0  0  0  0  0  0
    0.2946   58.7789   73.9311 H   0  0  0  0  0  0  0  0  0  0  0  0
   -3.5091   60.4101   75.1933 H   0  0  0  0  0  0  0  0  0  0  0  0
   -4.2447   58.1379   75.8964 H   0  0  0  0  0  0  0  0  0  0  0  0
  2  1  1  0
  3  2  2  0
  4  3  1  0
  5  4  2  0
  6  5  1  0
  7  2  1  0
  7  6  2  0
  8  7  1  0
  9  8  2  0
 10  9  1  0
 10  1  2  0
 11 10  1  0
 12 11  2  0
 13 12  1  0
 14 13  2  0
 14  9  1  0
 16 15  1  0
 17 16  1  0
 18 17  2  0
 18  1  1  0
 19 18  1  0
 19 15  1  0
 21 20  2  0
 22 21  1  0
 23 22  2  0
 23 15  1  0
 24 23  1  0
 25 24  2  0
 25 20  1  0
  3 26  1  0
  4 27  1  0
  5 28  1  0
  6 29  1  0
  8 30  1  0
 11 31  1  0
 12 32  1  0
 13 33  1  0
 14 34  1  0
 15 35  1  6
 16 36  1  0
 19 37  1  0
 19 38  1  0
 20 39  1  0
 21 40  1  0
 22 41  1  0
 24 42  1  0
 25 43  1  0
M  END
>  <score>  (9) 
-9.556

$$$$
