=
     RDKit          3D

 53 55  0  0  0  0  0  0  0  0999 V2000
    1.2020   64.4840   70.5990 C   0  0  0  0  0  0  0  0  0  0  0  0
    0.3110   63.6170   71.2380 C   0  0  0  0  0  0  0  0  0  0  0  0
    0.6880   62.3010   71.5340 C   0  0  0  0  0  0  0  0  0  0  0  0
    1.9620   61.8190   71.2030 C   0  0  0  0  0  0  0  0  0  0  0  0
    2.8550   62.7130   70.5860 C   0  0  0  0  0  0  0  0  0  0  0  0
    2.4860   64.0290   70.2860 C   0  0  0  0  0  0  0  0  0  0  0  0
    1.2100   66.3890   69.1050 N   0  0  0  0  0  0  0  0  0  0  0  0
    0.7520   65.8740   70.2920 C   0  0  0  0  0  0  0  0  0  0  0  0
    0.0150   66.4490   71.0860 O   0  0  0  0  0  0  0  0  0  0  0  0
    0.5870   67.5650   68.4350 C   0  0  2  0  0  0  0  0  0  0  0  0
   -0.5520   67.0510   67.4750 C   0  0  0  0  0  0  0  0  0  0  0  0
   -0.1530   66.8170   66.2840 O   0  0  0  0  0  0  0  0  0  0  0  0
   -1.6910   66.8550   67.9810 O   0  0  0  0  0  1  0  0  0  0  0  0
    1.6830   68.2970   67.6410 C   0  0  0  0  0  0  0  0  0  0  0  0
    1.8910   69.7540   68.0580 C   0  0  0  0  0  0  0  0  0  0  0  0
    4.2480   69.8550   67.6400 O   0  0  0  0  0  1  0  0  0  0  0  0
    3.3270   70.1240   68.4620 C   0  0  0  0  0  0  0  0  0  0  0  0
    3.4310   70.6660   69.6050 O   0  0  0  0  0  0  0  0  0  0  0  0
    2.3890   60.4950   71.4540 N   0  0  0  0  0  0  0  0  0  0  0  0
    3.5410   60.0380   70.6720 C   0  0  0  0  0  0  0  0  0  0  0  0
    2.4940   60.2380   72.9100 C   0  0  0  0  0  0  0  0  0  0  0  0
    1.5180   59.1660   73.3490 C   0  0  0  0  0  0  0  0  0  0  0  0
    0.2190   59.4970   73.6900 C   0  0  0  0  0  0  0  0  0  0  0  0
   -0.7000   58.5740   74.0710 N   0  0  0  0  0  0  0  0  0  0  0  0
   -0.3210   57.2920   74.1110 C   0  0  0  0  0  0  0  0  0  0  0  0
    0.9920   56.9500   73.7640 C   0  0  0  0  0  0  0  0  0  0  0  0
    1.9230   57.8740   73.3710 N   0  0  0  0  0  0  0  0  0  0  0  0
    1.2440   55.5840   73.8230 C   0  0  0  0  0  0  0  0  0  0  0  0
    2.5330   55.0860   73.5680 N   0  0  0  0  0  0  0  0  0  0  0  0
    0.3340   54.6630   74.1770 N   0  0  0  0  0  0  0  0  0  0  0  0
   -0.8700   55.1210   74.5040 C   0  0  0  0  0  0  0  0  0  0  0  0
   -1.2360   56.3950   74.4690 N   0  0  0  0  0  0  0  0  0  0  0  0
   -1.8280   54.1950   74.8590 N   0  0  0  0  0  0  0  0  0  0  0  0
   -0.6942   63.9711   71.5105 H   0  0  0  0  0  0  0  0  0  0  0  0
   -0.0285   61.6337   72.0352 H   0  0  0  0  0  0  0  0  0  0  0  0
    3.8688   62.3693   70.3329 H   0  0  0  0  0  0  0  0  0  0  0  0
    3.2067   64.7057   69.8037 H   0  0  0  0  0  0  0  0  0  0  0  0
    2.0222   65.9417   68.6565 H   0  0  0  0  0  0  0  0  0  0  0  0
    0.1456   68.2578   69.1666 H   0  0  0  0  0  0  0  0  0  0  0  0
    2.6312   67.7582   67.7844 H   0  0  0  0  0  0  0  0  0  0  0  0
    1.3565   68.3119   66.5907 H   0  0  0  0  0  0  0  0  0  0  0  0
    1.6006   70.3942   67.2120 H   0  0  0  0  0  0  0  0  0  0  0  0
    1.2745   69.9037   68.9566 H   0  0  0  0  0  0  0  0  0  0  0  0
    4.3437   59.7196   71.3534 H   0  0  0  0  0  0  0  0  0  0  0  0
    3.2408   59.1908   70.0378 H   0  0  0  0  0  0  0  0  0  0  0  0
    3.9032   60.8605   70.0378 H   0  0  0  0  0  0  0  0  0  0  0  0
    3.5173   59.9088   73.1433 H   0  0  0  0  0  0  0  0  0  0  0  0
    2.2540   61.1681   73.4460 H   0  0  0  0  0  0  0  0  0  0  0  0
   -0.0822   60.5542   73.6507 H   0  0  0  0  0  0  0  0  0  0  0  0
    2.7120   54.0727   73.6136 H   0  0  0  0  0  0  0  0  0  0  0  0
    3.2989   55.7343   73.3355 H   0  0  0  0  0  0  0  0  0  0  0  0
   -2.7744   54.5071   75.1195 H   0  0  0  0  0  0  0  0  0  0  0  0
   -1.5973   53.1912   74.8636 H   0  0  0  0  0  0  0  0  0  0  0  0
  2  1  2  0
  3  2  1  0
  4  3  2  0
  5  4  1  0
  6  5  2  0
  6  1  1  0
  8  1  1  0
  8  7  1  0
  9  8  2  0
 10  7  1  0
 11 10  1  0
 12 11  2  0
 13 11  1  0
 14 10  1  0
 15 14  1  0
 17 16  1  0
 17 15  1  0
 18 17  2  0
 19  4  1  0
 20 19  1  0
 21 19  1  0
 22 21  1  0
 23 22  2  0
 24 23  1  0
 25 24  2  0
 26 25  1  0
 27 26  2  0
 27 22  1  0
 28 26  1  0
 29 28  1  0
 30 28  2  0
 31 30  1  0
 32 31  2  0
 32 25  1  0
 33 31  1  0
  2 34  1  0
  3 35  1  0
  5 36  1  0
  6 37  1  0
  7 38  1  0
 10 39  1  1
 14 40  1  0
 14 41  1  0
 15 42  1  0
 15 43  1  0
 20 44  1  0
 20 45  1  0
 20 46  1  0
 21 47  1  0
 21 48  1  0
 23 49  1  0
 29 50  1  0
 29 51  1  0
 33 52  1  0
 33 53  1  0
M  CHG  2  13  -1  16  -1
M  END
>  <score>  (1) 
-9.501

$$$$
=
     RDKit          3D

 53 55  0  0  0  0  0  0  0  0999 V2000
    0.9100   65.0200   70.4100 C   0  0  0  0  0  0  0  0  0  0  0  0
    1.8260   66.0300   70.1030 C   0  0  0  0  0  0  0  0  0  0  0  0
    1.4600   67.0920   69.2660 C   0  0  0  0  0  0  0  0  0  0  0  0
    0.1730   67.1730   68.7180 C   0  0  0  0  0  0  0  0  0  0  0  0
   -0.7430   66.1620   69.0580 C   0  0  0  0  0  0  0  0  0  0  0  0
   -0.3850   65.0980   69.8930 C   0  0  0  0  0  0  0  0  0  0  0  0
    2.1050   62.9320   70.6860 N   0  0  0  0  0  0  0  0  0  0  0  0
    1.3490   63.9010   71.2960 C   0  0  0  0  0  0  0  0  0  0  0  0
    1.0280   63.9200   72.4800 O   0  0  0  0  0  0  0  0  0  0  0  0
    2.9520   61.9650   71.4400 C   0  0  2  0  0  0  0  0  0  0  0  0
    4.3600   61.8760   70.7370 C   0  0  0  0  0  0  0  0  0  0  0  0
    5.3320   62.2220   71.4910 O   0  0  0  0  0  0  0  0  0  0  0  0
    4.3930   61.4130   69.5640 O   0  0  0  0  0  1  0  0  0  0  0  0
    2.2440   60.6000   71.4240 C   0  0  0  0  0  0  0  0  0  0  0  0
    3.0580   59.4660   72.0520 C   0  0  0  0  0  0  0  0  0  0  0  0
    2.4830   57.1860   71.5900 O   0  0  0  0  0  1  0  0  0  0  0  0
    3.1580   58.1850   71.2100 C   0  0  0  0  0  0  0  0  0  0  0  0
    3.9280   58.2710   70.2050 O   0  0  0  0  0  0  0  0  0  0  0  0
   -0.2450   68.2060   67.8480 N   0  0  0  0  0  0  0  0  0  0  0  0
    0.6700   69.3450   67.7250 C   0  0  0  0  0  0  0  0  0  0  0  0
   -0.7160   67.6540   66.5560 C   0  0  0  0  0  0  0  0  0  0  0  0
    0.3840   67.6800   65.5150 C   0  0  0  0  0  0  0  0  0  0  0  0
    0.5030   68.7490   64.6450 C   0  0  0  0  0  0  0  0  0  0  0  0
    1.4810   68.8310   63.7090 N   0  0  0  0  0  0  0  0  0  0  0  0
    2.3630   67.8300   63.6340 C   0  0  0  0  0  0  0  0  0  0  0  0
    2.2500   66.7450   64.5130 C   0  0  0  0  0  0  0  0  0  0  0  0
    1.2720   66.6580   65.4670 N   0  0  0  0  0  0  0  0  0  0  0  0
    3.2460   65.7880   64.3460 C   0  0  0  0  0  0  0  0  0  0  0  0
    3.2340   64.6080   65.1080 N   0  0  0  0  0  0  0  0  0  0  0  0
    4.2290   65.8740   63.4370 N   0  0  0  0  0  0  0  0  0  0  0  0
    4.2100   66.9440   62.6480 C   0  0  0  0  0  0  0  0  0  0  0  0
    3.3270   67.9300   62.7230 N   0  0  0  0  0  0  0  0  0  0  0  0
    5.2170   67.0630   61.7140 N   0  0  0  0  0  0  0  0  0  0  0  0
    2.8423   65.9907   70.5219 H   0  0  0  0  0  0  0  0  0  0  0  0
    2.1960   67.8762   69.0349 H   0  0  0  0  0  0  0  0  0  0  0  0
   -1.7665   66.2087   68.6576 H   0  0  0  0  0  0  0  0  0  0  0  0
   -1.1240   64.3224   70.1424 H   0  0  0  0  0  0  0  0  0  0  0  0
    2.0862   62.8700   69.6580 H   0  0  0  0  0  0  0  0  0  0  0  0
    3.0987   62.2848   72.4822 H   0  0  0  0  0  0  0  0  0  0  0  0
    1.2987   60.6947   71.9785 H   0  0  0  0  0  0  0  0  0  0  0  0
    2.0922   60.3339   70.3675 H   0  0  0  0  0  0  0  0  0  0  0  0
    4.0783   59.8373   72.2282 H   0  0  0  0  0  0  0  0  0  0  0  0
    2.5264   59.1839   72.9728 H   0  0  0  0  0  0  0  0  0  0  0  0
    0.9533   69.6977   68.7277 H   0  0  0  0  0  0  0  0  0  0  0  0
    1.5718   69.0334   67.1775 H   0  0  0  0  0  0  0  0  0  0  0  0
    0.1714   70.1584   67.1775 H   0  0  0  0  0  0  0  0  0  0  0  0
   -1.0419   66.6144   66.7076 H   0  0  0  0  0  0  0  0  0  0  0  0
   -1.5505   68.2738   66.1962 H   0  0  0  0  0  0  0  0  0  0  0  0
   -0.2276   69.5683   64.7155 H   0  0  0  0  0  0  0  0  0  0  0  0
    3.9747   63.9040   64.9789 H   0  0  0  0  0  0  0  0  0  0  0  0
    2.4845   64.4467   65.7959 H   0  0  0  0  0  0  0  0  0  0  0  0
    5.2403   67.8764   61.0826 H   0  0  0  0  0  0  0  0  0  0  0  0
    5.9461   66.3385   61.6476 H   0  0  0  0  0  0  0  0  0  0  0  0
  2  1  2  0
  3  2  1  0
  4  3  2  0
  5  4  1  0
  6  5  2  0
  6  1  1  0
  8  1  1  0
  8  7  1  0
  9  8  2  0
 10  7  1  0
 11 10  1  0
 12 11  2  0
 13 11  1  0
 14 10  1  0
 15 14  1  0
 17 16  1  0
 17 15  1  0
 18 17  2  0
 19  4  1  0
 20 19  1  0
 21 19  1  0
 22 21  1  0
 23 22  2  0
 24 23  1  0
 25 24  2  0
 26 25  1  0
 27 26  2  0
 27 22  1  0
 28 26  1  0
 29 28  1  0
 30 28  2  0
 31 30  1  0
 32 31  2  0
 32 25  1  0
 33 31  1  0
  2 34  1  0
  3 35  1  0
  5 36  1  0
  6 37  1  0
  7 38  1  0
 10 39  1  1
 14 40  1  0
 14 41  1  0
 15 42  1  0
 15 43  1  0
 20 44  1  0
 20 45  1  0
 20 46  1  0
 21 47  1  0
 21 48  1  0
 23 49  1  0
 29 50  1  0
 29 51  1  0
 33 52  1  0
 33 53  1  0
M  CHG  2  13  -1  16  -1
M  END
>  <score>  (2) 
-9.255

$$$$
=
     RDKit          3D

 53 55  0  0  0  0  0  0  0  0999 V2000
    0.9800   66.4000   69.8260 C   0  0  0  0  0  0  0  0  0  0  0  0
    1.8840   65.3390   69.9340 C   0  0  0  0  0  0  0  0  0  0  0  0
    1.7110   64.3540   70.9140 C   0  0  0  0  0  0  0  0  0  0  0  0
    0.6330   64.4020   71.8080 C   0  0  0  0  0  0  0  0  0  0  0  0
   -0.2810   65.4610   71.6680 C   0  0  0  0  0  0  0  0  0  0  0  0
   -0.1150   66.4490   70.6920 C   0  0  0  0  0  0  0  0  0  0  0  0
    0.5500   67.2230   67.5900 N   0  0  0  0  0  0  0  0  0  0  0  0
    1.2120   67.4330   68.7740 C   0  0  0  0  0  0  0  0  0  0  0  0
    1.9460   68.3840   69.0250 O   0  0  0  0  0  0  0  0  0  0  0  0
    0.3300   68.2950   66.5790 C   0  0  2  0  0  0  0  0  0  0  0  0
   -1.2100   68.3670   66.2500 C   0  0  0  0  0  0  0  0  0  0  0  0
   -1.4600   68.6520   65.0300 O   0  0  0  0  0  0  0  0  0  0  0  0
   -2.0140   68.0690   67.1760 O   0  0  0  0  0  1  0  0  0  0  0  0
    1.1430   67.9390   65.3230 C   0  0  0  0  0  0  0  0  0  0  0  0
    2.6420   67.7610   65.5760 C   0  0  0  0  0  0  0  0  0  0  0  0
    3.7550   69.6690   66.5060 O   0  0  0  0  0  1  0  0  0  0  0  0
    3.4870   69.0380   65.4440 C   0  0  0  0  0  0  0  0  0  0  0  0
    3.8250   69.3270   64.2560 O   0  0  0  0  0  0  0  0  0  0  0  0
    0.4210   63.4510   72.8340 N   0  0  0  0  0  0  0  0  0  0  0  0
   -0.5130   62.3680   72.5150 C   0  0  0  0  0  0  0  0  0  0  0  0
    1.7090   63.0020   73.4150 C   0  0  0  0  0  0  0  0  0  0  0  0
    2.0210   61.5750   73.0160 C   0  0  0  0  0  0  0  0  0  0  0  0
    1.5950   60.5170   73.8000 C   0  0  0  0  0  0  0  0  0  0  0  0
    1.8320   59.2210   73.4780 N   0  0  0  0  0  0  0  0  0  0  0  0
    2.5050   58.9670   72.3510 C   0  0  0  0  0  0  0  0  0  0  0  0
    2.9380   60.0330   71.5520 C   0  0  0  0  0  0  0  0  0  0  0  0
    2.6960   61.3440   71.8640 N   0  0  0  0  0  0  0  0  0  0  0  0
    3.6000   59.6290   70.3980 C   0  0  0  0  0  0  0  0  0  0  0  0
    4.1530   60.5800   69.5240 N   0  0  0  0  0  0  0  0  0  0  0  0
    3.8180   58.3480   70.0620 N   0  0  0  0  0  0  0  0  0  0  0  0
    3.3760   57.4320   70.9180 C   0  0  0  0  0  0  0  0  0  0  0  0
    2.7150   57.6910   72.0380 N   0  0  0  0  0  0  0  0  0  0  0  0
    3.5750   56.1070   70.5910 N   0  0  0  0  0  0  0  0  0  0  0  0
    2.7381   65.2775   69.2435 H   0  0  0  0  0  0  0  0  0  0  0  0
    2.4341   63.5279   70.9833 H   0  0  0  0  0  0  0  0  0  0  0  0
   -1.1481   65.5139   72.3427 H   0  0  0  0  0  0  0  0  0  0  0  0
   -0.8473   67.2653   70.6063 H   0  0  0  0  0  0  0  0  0  0  0  0
    0.1881   66.2794   67.3910 H   0  0  0  0  0  0  0  0  0  0  0  0
    0.6558   69.2761   66.9548 H   0  0  0  0  0  0  0  0  0  0  0  0
    0.7484   66.9982   64.9117 H   0  0  0  0  0  0  0  0  0  0  0  0
    1.0378   68.7850   64.6279 H   0  0  0  0  0  0  0  0  0  0  0  0
    2.7704   67.3726   66.5971 H   0  0  0  0  0  0  0  0  0  0  0  0
    3.0028   67.0756   64.7949 H   0  0  0  0  0  0  0  0  0  0  0  0
   -0.8942   61.9260   73.4474 H   0  0  0  0  0  0  0  0  0  0  0  0
   -1.3531   62.7691   71.9291 H   0  0  0  0  0  0  0  0  0  0  0  0
    0.0072   61.5959   71.9291 H   0  0  0  0  0  0  0  0  0  0  0  0
    2.5139   63.6596   73.0548 H   0  0  0  0  0  0  0  0  0  0  0  0
    1.6320   63.0486   74.5113 H   0  0  0  0  0  0  0  0  0  0  0  0
    1.0403   60.7367   74.7241 H   0  0  0  0  0  0  0  0  0  0  0  0
    4.6419   60.2727   68.6711 H   0  0  0  0  0  0  0  0  0  0  0  0
    4.0695   61.5844   69.7362 H   0  0  0  0  0  0  0  0  0  0  0  0
    3.2481   55.3651   71.2263 H   0  0  0  0  0  0  0  0  0  0  0  0
    4.0505   55.8594   69.7115 H   0  0  0  0  0  0  0  0  0  0  0  0
  2  1  2  0
  3  2  1  0
  4  3  2  0
  5  4  1  0
  6  5  2  0
  6  1  1  0
  8  1  1  0
  8  7  1  0
  9  8  2  0
 10  7  1  0
 11 10  1  0
 12 11  2  0
 13 11  1  0
 14 10  1  0
 15 14  1  0
 17 16  1  0
 17 15  1  0
 18 17  2  0
 19  4  1  0
 20 19  1  0
 21 19  1  0
 22 21  1  0
 23 22  2  0
 24 23  1  0
 25 24  2  0
 26 25  1  0
 27 26  2  0
 27 22  1  0
 28 26  1  0
 29 28  1  0
 30 28  2  0
 31 30  1  0
 32 31  2  0
 32 25  1  0
 33 31  1  0
  2 34  1  0
  3 35  1  0
  5 36  1  0
  6 37  1  0
  7 38  1  0
 10 39  1  1
 14 40  1  0
 14 41  1  0
 15 42  1  0
 15 43  1  0
 20 44  1  0
 20 45  1  0
 20 46  1  0
 21 47  1  0
 21 48  1  0
 23 49  1  0
 29 50  1  0
 29 51  1  0
 33 52  1  0
 33 53  1  0
M  CHG  2  13  -1  16  -1
M  END
>  <score>  (3) 
-9.212

$$$$
=
     RDKit          3D

 53 55  0  0  0  0  0  0  0  0999 V2000
    1.3660   64.7290   70.4040 C   0  0  0  0  0  0  0  0  0  0  0  0
    0.5760   63.6510   70.8150 C   0  0  0  0  0  0  0  0  0  0  0  0
    1.1550   62.4030   71.0750 C   0  0  0  0  0  0  0  0  0  0  0  0
    2.5350   62.2000   70.9340 C   0  0  0  0  0  0  0  0  0  0  0  0
    3.3170   63.3020   70.5450 C   0  0  0  0  0  0  0  0  0  0  0  0
    2.7460   64.5520   70.2830 C   0  0  0  0  0  0  0  0  0  0  0  0
    1.1370   66.6870   68.9980 N   0  0  0  0  0  0  0  0  0  0  0  0
    0.7020   66.0370   70.1270 C   0  0  0  0  0  0  0  0  0  0  0  0
   -0.1710   66.4360   70.8910 O   0  0  0  0  0  0  0  0  0  0  0  0
    0.3630   67.7760   68.3380 C   0  0  2  0  0  0  0  0  0  0  0  0
   -0.7260   67.1220   67.4040 C   0  0  0  0  0  0  0  0  0  0  0  0
   -0.2760   66.7670   66.2620 O   0  0  0  0  0  0  0  0  0  0  0  0
   -1.8780   66.9500   67.8910 O   0  0  0  0  0  1  0  0  0  0  0  0
    1.3470   68.6280   67.5180 C   0  0  0  0  0  0  0  0  0  0  0  0
    2.4180   69.3290   68.3570 C   0  0  0  0  0  0  0  0  0  0  0  0
    3.7690   69.4180   66.3810 O   0  0  0  0  0  1  0  0  0  0  0  0
    3.6600   69.7940   67.5830 C   0  0  0  0  0  0  0  0  0  0  0  0
    4.4600   70.5160   68.2510 O   0  0  0  0  0  0  0  0  0  0  0  0
    3.1720   60.9570   71.1570 N   0  0  0  0  0  0  0  0  0  0  0  0
    4.1370   60.5430   70.1350 C   0  0  0  0  0  0  0  0  0  0  0  0
    3.6700   60.8600   72.5490 C   0  0  0  0  0  0  0  0  0  0  0  0
    3.1840   59.5890   73.2160 C   0  0  0  0  0  0  0  0  0  0  0  0
    2.4020   58.6850   72.5200 C   0  0  0  0  0  0  0  0  0  0  0  0
    1.9570   57.5250   73.0640 N   0  0  0  0  0  0  0  0  0  0  0  0
    2.2980   57.2530   74.3270 C   0  0  0  0  0  0  0  0  0  0  0  0
    3.0910   58.1640   75.0380 C   0  0  0  0  0  0  0  0  0  0  0  0
    3.5510   59.3330   74.4950 N   0  0  0  0  0  0  0  0  0  0  0  0
    3.3930   57.7470   76.3300 C   0  0  0  0  0  0  0  0  0  0  0  0
    4.1250   58.5780   77.1930 N   0  0  0  0  0  0  0  0  0  0  0  0
    2.9750   56.5890   76.8670 N   0  0  0  0  0  0  0  0  0  0  0  0
    2.2090   55.8250   76.0940 C   0  0  0  0  0  0  0  0  0  0  0  0
    1.8700   56.1040   74.8430 N   0  0  0  0  0  0  0  0  0  0  0  0
    1.7770   54.6240   76.6170 N   0  0  0  0  0  0  0  0  0  0  0  0
   -0.5092   63.7845   70.9350 H   0  0  0  0  0  0  0  0  0  0  0  0
    0.5159   61.5671   71.3955 H   0  0  0  0  0  0  0  0  0  0  0  0
    4.4053   63.1781   70.4441 H   0  0  0  0  0  0  0  0  0  0  0  0
    3.3842   65.3957   69.9816 H   0  0  0  0  0  0  0  0  0  0  0  0
    2.0402   66.4088   68.5885 H   0  0  0  0  0  0  0  0  0  0  0  0
   -0.1433   68.4157   69.0758 H   0  0  0  0  0  0  0  0  0  0  0  0
    1.8510   67.9717   66.7933 H   0  0  0  0  0  0  0  0  0  0  0  0
    0.7547   69.4193   67.0353 H   0  0  0  0  0  0  0  0  0  0  0  0
    1.9587   70.2125   68.8244 H   0  0  0  0  0  0  0  0  0  0  0  0
    2.7740   68.5812   69.0809 H   0  0  0  0  0  0  0  0  0  0  0  0
    5.0432   60.1542   70.6225 H   0  0  0  0  0  0  0  0  0  0  0  0
    3.6920   59.7566   69.5077 H   0  0  0  0  0  0  0  0  0  0  0  0
    4.4002   61.4074   69.5077 H   0  0  0  0  0  0  0  0  0  0  0  0
    4.7699   60.8617   72.5378 H   0  0  0  0  0  0  0  0  0  0  0  0
    3.2874   61.7206   73.1173 H   0  0  0  0  0  0  0  0  0  0  0  0
    2.1291   58.9170   71.4799 H   0  0  0  0  0  0  0  0  0  0  0  0
    4.3448   58.2622   78.1484 H   0  0  0  0  0  0  0  0  0  0  0  0
    4.4422   59.5034   76.8707 H   0  0  0  0  0  0  0  0  0  0  0  0
    1.1817   54.0010   76.0528 H   0  0  0  0  0  0  0  0  0  0  0  0
    2.0497   54.3502   77.5718 H   0  0  0  0  0  0  0  0  0  0  0  0
  2  1  2  0
  3  2  1  0
  4  3  2  0
  5  4  1  0
  6  5  2  0
  6  1  1  0
  8  1  1  0
  8  7  1  0
  9  8  2  0
 10  7  1  0
 11 10  1  0
 12 11  2  0
 13 11  1  0
 14 10  1  0
 15 14  1  0
 17 16  1  0
 17 15  1  0
 18 17  2  0
 19  4  1  0
 20 19  1  0
 21 19  1  0
 22 21  1  0
 23 22  2  0
 24 23  1  0
 25 24  2  0
 26 25  1  0
 27 26  2  0
 27 22  1  0
 28 26  1  0
 29 28  1  0
 30 28  2  0
 31 30  1  0
 32 31  2  0
 32 25  1  0
 33 31  1  0
  2 34  1  0
  3 35  1  0
  5 36  1  0
  6 37  1  0
  7 38  1  0
 10 39  1  1
 14 40  1  0
 14 41  1  0
 15 42  1  0
 15 43  1  0
 20 44  1  0
 20 45  1  0
 20 46  1  0
 21 47  1  0
 21 48  1  0
 23 49  1  0
 29 50  1  0
 29 51  1  0
 33 52  1  0
 33 53  1  0
M  CHG  2  13  -1  16  -1
M  END
>  <score>  (4) 
-9.102

$$$$
=
     RDKit          3D

 53 55  0  0  0  0  0  0  0  0999 V2000
    1.1010   65.8190   70.1760 C   0  0  0  0  0  0  0  0  0  0  0  0
    0.0820   65.7550   71.1310 C   0  0  0  0  0  0  0  0  0  0  0  0
    0.0210   64.6870   72.0350 C   0  0  0  0  0  0  0  0  0  0  0  0
    0.9740   63.6610   72.0110 C   0  0  0  0  0  0  0  0  0  0  0  0
    2.0070   63.7550   71.0620 C   0  0  0  0  0  0  0  0  0  0  0  0
    2.0750   64.8180   70.1550 C   0  0  0  0  0  0  0  0  0  0  0  0
    0.3050   66.8350   68.1270 N   0  0  0  0  0  0  0  0  0  0  0  0
    1.1180   66.9690   69.2250 C   0  0  0  0  0  0  0  0  0  0  0  0
    1.8260   67.9390   69.4770 O   0  0  0  0  0  0  0  0  0  0  0  0
   -0.1200   67.9870   67.2830 C   0  0  2  0  0  0  0  0  0  0  0  0
   -1.6840   67.9270   67.1020 C   0  0  0  0  0  0  0  0  0  0  0  0
   -2.2820   67.2700   68.0200 O   0  0  0  0  0  0  0  0  0  0  0  0
   -2.1810   68.5780   66.1410 O   0  0  0  0  0  1  0  0  0  0  0  0
    0.5940   67.8700   65.9250 C   0  0  0  0  0  0  0  0  0  0  0  0
    2.0120   67.3020   66.0100 C   0  0  0  0  0  0  0  0  0  0  0  0
    2.5700   65.2240   64.9560 O   0  0  0  0  0  1  0  0  0  0  0  0
    2.4620   66.4730   64.7970 C   0  0  0  0  0  0  0  0  0  0  0  0
    2.6870   67.1510   63.7480 O   0  0  0  0  0  0  0  0  0  0  0  0
    0.9490   62.5460   72.8820 N   0  0  0  0  0  0  0  0  0  0  0  0
    1.4880   62.7750   74.2250 C   0  0  0  0  0  0  0  0  0  0  0  0
   -0.3750   61.8820   72.8550 C   0  0  0  0  0  0  0  0  0  0  0  0
   -0.2660   60.4260   73.2570 C   0  0  0  0  0  0  0  0  0  0  0  0
   -1.2760   59.8190   73.9820 C   0  0  0  0  0  0  0  0  0  0  0  0
   -1.2360   58.5140   74.3500 N   0  0  0  0  0  0  0  0  0  0  0  0
   -0.1700   57.7930   73.9900 C   0  0  0  0  0  0  0  0  0  0  0  0
    0.8570   58.4010   73.2540 C   0  0  0  0  0  0  0  0  0  0  0  0
    0.8210   59.7140   72.8710 N   0  0  0  0  0  0  0  0  0  0  0  0
    1.8910   57.5320   72.9220 C   0  0  0  0  0  0  0  0  0  0  0  0
    3.0260   58.0050   72.2420 N   0  0  0  0  0  0  0  0  0  0  0  0
    1.9270   56.2350   73.2650 N   0  0  0  0  0  0  0  0  0  0  0  0
    0.9010   55.7870   73.9820 C   0  0  0  0  0  0  0  0  0  0  0  0
   -0.1510   56.5110   74.3420 N   0  0  0  0  0  0  0  0  0  0  0  0
    0.9060   54.4550   74.3360 N   0  0  0  0  0  0  0  0  0  0  0  0
   -0.6776   66.5495   71.1727 H   0  0  0  0  0  0  0  0  0  0  0  0
   -0.7901   64.6534   72.7773 H   0  0  0  0  0  0  0  0  0  0  0  0
    2.7807   62.9737   71.0319 H   0  0  0  0  0  0  0  0  0  0  0  0
    2.8962   64.8656   69.4247 H   0  0  0  0  0  0  0  0  0  0  0  0
   -0.0270   65.8932   67.8746 H   0  0  0  0  0  0  0  0  0  0  0  0
    0.1435   68.9476   67.7496 H   0  0  0  0  0  0  0  0  0  0  0  0
   -0.0031   67.2119   65.2767 H   0  0  0  0  0  0  0  0  0  0  0  0
    0.6854   68.8912   65.5265 H   0  0  0  0  0  0  0  0  0  0  0  0
    2.7094   68.1451   66.1228 H   0  0  0  0  0  0  0  0  0  0  0  0
    2.0120   66.6118   66.8665 H   0  0  0  0  0  0  0  0  0  0  0  0
    0.7479   62.4606   74.9756 H   0  0  0  0  0  0  0  0  0  0  0  0
    2.4116   62.1915   74.3538 H   0  0  0  0  0  0  0  0  0  0  0  0
    1.7092   63.8448   74.3538 H   0  0  0  0  0  0  0  0  0  0  0  0
   -1.0494   62.3978   73.5544 H   0  0  0  0  0  0  0  0  0  0  0  0
   -0.7685   61.9315   71.8290 H   0  0  0  0  0  0  0  0  0  0  0  0
   -2.1496   60.4209   74.2727 H   0  0  0  0  0  0  0  0  0  0  0  0
    3.7883   57.3563   71.9990 H   0  0  0  0  0  0  0  0  0  0  0  0
    3.0957   59.0004   71.9865 H   0  0  0  0  0  0  0  0  0  0  0  0
    0.1303   54.0668   74.8914 H   0  0  0  0  0  0  0  0  0  0  0  0
    1.6855   53.8478   74.0452 H   0  0  0  0  0  0  0  0  0  0  0  0
  2  1  2  0
  3  2  1  0
  4  3  2  0
  5  4  1  0
  6  5  2  0
  6  1  1  0
  8  1  1  0
  8  7  1  0
  9  8  2  0
 10  7  1  0
 11 10  1  0
 12 11  2  0
 13 11  1  0
 14 10  1  0
 15 14  1  0
 17 16  1  0
 17 15  1  0
 18 17  2  0
 19  4  1  0
 20 19  1  0
 21 19  1  0
 22 21  1  0
 23 22  2  0
 24 23  1  0
 25 24  2  0
 26 25  1  0
 27 26  2  0
 27 22  1  0
 28 26  1  0
 29 28  1  0
 30 28  2  0
 31 30  1  0
 32 31  2  0
 32 25  1  0
 33 31  1  0
  2 34  1  0
  3 35  1  0
  5 36  1  0
  6 37  1  0
  7 38  1  0
 10 39  1  1
 14 40  1  0
 14 41  1  0
 15 42  1  0
 15 43  1  0
 20 44  1  0
 20 45  1  0
 20 46  1  0
 21 47  1  0
 21 48  1  0
 23 49  1  0
 29 50  1  0
 29 51  1  0
 33 52  1  0
 33 53  1  0
M  CHG  2  13  -1  16  -1
M  END
>  <score>  (5) 
-8.807

$$$$
=
     RDKit          3D

 53 55  0  0  0  0  0  0  0  0999 V2000
    1.0410   65.8470   70.2370 C   0  0  0  0  0  0  0  0  0  0  0  0
    2.0460   64.8760   70.1870 C   0  0  0  0  0  0  0  0  0  0  0  0
    2.0630   63.8230   71.1090 C   0  0  0  0  0  0  0  0  0  0  0  0
    1.0790   63.7090   72.1000 C   0  0  0  0  0  0  0  0  0  0  0  0
    0.0610   64.6790   72.1190 C   0  0  0  0  0  0  0  0  0  0  0  0
    0.0370   65.7350   71.2010 C   0  0  0  0  0  0  0  0  0  0  0  0
    0.2650   66.7850   68.1430 N   0  0  0  0  0  0  0  0  0  0  0  0
    1.0700   66.9590   69.2410 C   0  0  0  0  0  0  0  0  0  0  0  0
    1.7790   67.9360   69.4620 O   0  0  0  0  0  0  0  0  0  0  0  0
   -0.1490   67.9040   67.2520 C   0  0  2  0  0  0  0  0  0  0  0  0
   -1.7130   67.8430   67.0610 C   0  0  0  0  0  0  0  0  0  0  0  0
   -2.1090   68.2870   65.9310 O   0  0  0  0  0  0  0  0  0  0  0  0
   -2.3870   67.3070   67.9830 O   0  0  0  0  0  1  0  0  0  0  0  0
    0.5740   67.7330   65.9050 C   0  0  0  0  0  0  0  0  0  0  0  0
    2.1000   67.7900   66.0030 C   0  0  0  0  0  0  0  0  0  0  0  0
    2.3230   69.0400   63.9710 O   0  0  0  0  0  1  0  0  0  0  0  0
    2.7740   68.8670   65.1390 C   0  0  0  0  0  0  0  0  0  0  0  0
    3.7350   69.4730   65.7040 O   0  0  0  0  0  0  0  0  0  0  0  0
    1.0600   62.6830   73.0720 N   0  0  0  0  0  0  0  0  0  0  0  0
    1.1130   63.1260   74.4680 C   0  0  0  0  0  0  0  0  0  0  0  0
   -0.0060   61.6960   72.7800 C   0  0  0  0  0  0  0  0  0  0  0  0
    0.5080   60.2780   72.9180 C   0  0  0  0  0  0  0  0  0  0  0  0
    1.7160   59.9110   72.3550 C   0  0  0  0  0  0  0  0  0  0  0  0
    2.2310   58.6600   72.4650 N   0  0  0  0  0  0  0  0  0  0  0  0
    1.5310   57.7530   73.1530 C   0  0  0  0  0  0  0  0  0  0  0  0
    0.3070   58.1180   73.7290 C   0  0  0  0  0  0  0  0  0  0  0  0
   -0.2160   59.3800   73.6290 N   0  0  0  0  0  0  0  0  0  0  0  0
   -0.3030   57.0890   74.4380 C   0  0  0  0  0  0  0  0  0  0  0  0
   -1.5680   57.2770   75.0180 N   0  0  0  0  0  0  0  0  0  0  0  0
    0.2110   55.8560   74.5700 N   0  0  0  0  0  0  0  0  0  0  0  0
    1.3690   55.6320   73.9560 C   0  0  0  0  0  0  0  0  0  0  0  0
    2.0540   56.5360   73.2690 N   0  0  0  0  0  0  0  0  0  0  0  0
    1.9260   54.3770   74.0870 N   0  0  0  0  0  0  0  0  0  0  0  0
    2.8292   64.9402   69.4172 H   0  0  0  0  0  0  0  0  0  0  0  0
    2.8638   63.0709   71.0546 H   0  0  0  0  0  0  0  0  0  0  0  0
   -0.7358   64.6059   72.8738 H   0  0  0  0  0  0  0  0  0  0  0  0
   -0.7736   66.4776   71.2389 H   0  0  0  0  0  0  0  0  0  0  0  0
   -0.0686   65.8352   67.9250 H   0  0  0  0  0  0  0  0  0  0  0  0
    0.1152   68.8806   67.6837 H   0  0  0  0  0  0  0  0  0  0  0  0
    0.2912   66.7575   65.4826 H   0  0  0  0  0  0  0  0  0  0  0  0
    0.2653   68.5766   65.2701 H   0  0  0  0  0  0  0  0  0  0  0  0
    2.3661   67.9811   67.0531 H   0  0  0  0  0  0  0  0  0  0  0  0
    2.4653   66.8240   65.6244 H   0  0  0  0  0  0  0  0  0  0  0  0
    1.0089   62.2560   75.1330 H   0  0  0  0  0  0  0  0  0  0  0  0
    2.0767   63.6206   74.6594 H   0  0  0  0  0  0  0  0  0  0  0  0
    0.2931   63.8340   74.6594 H   0  0  0  0  0  0  0  0  0  0  0  0
   -0.8372   61.8466   73.4846 H   0  0  0  0  0  0  0  0  0  0  0  0
   -0.3442   61.8447   71.7439 H   0  0  0  0  0  0  0  0  0  0  0  0
    2.2851   60.6662   71.7930 H   0  0  0  0  0  0  0  0  0  0  0  0
   -2.0135   56.5101   75.5417 H   0  0  0  0  0  0  0  0  0  0  0  0
   -2.0503   58.1818   74.9197 H   0  0  0  0  0  0  0  0  0  0  0  0
    2.8222   54.1608   73.6277 H   0  0  0  0  0  0  0  0  0  0  0  0
    1.4457   53.6560   74.6441 H   0  0  0  0  0  0  0  0  0  0  0  0
  2  1  2  0
  3  2  1  0
  4  3  2  0
  5  4  1  0
  6  5  2  0
  6  1  1  0
  8  1  1  0
  8  7  1  0
  9  8  2  0
 10  7  1  0
 11 10  1  0
 12 11  2  0
 13 11  1  0
 14 10  1  0
 15 14  1  0
 17 16  1  0
 17 15  1  0
 18 17  2  0
 19  4  1  0
 20 19  1  0
 21 19  1  0
 22 21  1  0
 23 22  2  0
 24 23  1  0
 25 24  2  0
 26 25  1  0
 27 26  2  0
 27 22  1  0
 28 26  1  0
 29 28  1  0
 30 28  2  0
 31 30  1  0
 32 31  2  0
 32 25  1  0
 33 31  1  0
  2 34  1  0
  3 35  1  0
  5 36  1  0
  6 37  1  0
  7 38  1  0
 10 39  1  1
 14 40  1  0
 14 41  1  0
 15 42  1  0
 15 43  1  0
 20 44  1  0
 20 45  1  0
 20 46  1  0
 21 47  1  0
 21 48  1  0
 23 49  1  0
 29 50  1  0
 29 51  1  0
 33 52  1  0
 33 53  1  0
M  CHG  2  13  -1  16  -1
M  END
>  <score>  (6) 
-8.766

$$$$
=
     RDKit          3D

 53 55  0  0  0  0  0  0  0  0999 V2000
   -0.1480   60.8890   72.8840 C   0  0  0  0  0  0  0  0  0  0  0  0
   -0.0250   59.6310   73.4800 C   0  0  0  0  0  0  0  0  0  0  0  0
   -1.0780   59.0930   74.2310 C   0  0  0  0  0  0  0  0  0  0  0  0
   -2.2780   59.7960   74.4040 C   0  0  0  0  0  0  0  0  0  0  0  0
   -2.3940   61.0480   73.7750 C   0  0  0  0  0  0  0  0  0  0  0  0
   -1.3470   61.5920   73.0240 C   0  0  0  0  0  0  0  0  0  0  0  0
    1.9720   60.5090   71.7780 N   0  0  0  0  0  0  0  0  0  0  0  0
    1.0050   61.4270   72.1030 C   0  0  0  0  0  0  0  0  0  0  0  0
    1.0140   62.6160   71.7990 O   0  0  0  0  0  0  0  0  0  0  0  0
    2.9780   60.7340   70.7020 C   0  0  2  0  0  0  0  0  0  0  0  0
    3.5810   59.3410   70.2780 C   0  0  0  0  0  0  0  0  0  0  0  0
    3.4360   58.4300   71.1630 O   0  0  0  0  0  0  0  0  0  0  0  0
    4.0610   59.2470   69.1150 O   0  0  0  0  0  1  0  0  0  0  0  0
    4.0740   61.6580   71.2600 C   0  0  0  0  0  0  0  0  0  0  0  0
    4.4980   62.7750   70.3050 C   0  0  0  0  0  0  0  0  0  0  0  0
    2.5600   64.0290   69.6610 O   0  0  0  0  0  1  0  0  0  0  0  0
    3.4360   63.2020   69.2790 C   0  0  0  0  0  0  0  0  0  0  0  0
    3.5550   62.6590   68.1380 O   0  0  0  0  0  0  0  0  0  0  0  0
   -3.3650   59.3150   75.1710 N   0  0  0  0  0  0  0  0  0  0  0  0
   -3.2590   57.9260   75.6250 C   0  0  0  0  0  0  0  0  0  0  0  0
   -3.7340   60.2830   76.2310 C   0  0  0  0  0  0  0  0  0  0  0  0
   -4.9590   61.0830   75.8380 C   0  0  0  0  0  0  0  0  0  0  0  0
   -5.3020   62.2290   76.5340 C   0  0  0  0  0  0  0  0  0  0  0  0
   -6.3760   62.9920   76.2120 N   0  0  0  0  0  0  0  0  0  0  0  0
   -7.1270   62.6110   75.1730 C   0  0  0  0  0  0  0  0  0  0  0  0
   -6.7840   61.4530   74.4630 C   0  0  0  0  0  0  0  0  0  0  0  0
   -5.6970   60.6820   74.7760 N   0  0  0  0  0  0  0  0  0  0  0  0
   -7.6310   61.1870   73.3920 C   0  0  0  0  0  0  0  0  0  0  0  0
   -7.4600   60.0260   72.6210 N   0  0  0  0  0  0  0  0  0  0  0  0
   -8.6820   61.9500   73.0540 N   0  0  0  0  0  0  0  0  0  0  0  0
   -8.9120   63.0100   73.8240 C   0  0  0  0  0  0  0  0  0  0  0  0
   -8.1670   63.3770   74.8570 N   0  0  0  0  0  0  0  0  0  0  0  0
   -9.9790   63.8180   73.4900 N   0  0  0  0  0  0  0  0  0  0  0  0
    0.9064   59.0585   73.3584 H   0  0  0  0  0  0  0  0  0  0  0  0
   -0.9610   58.1016   74.6929 H   0  0  0  0  0  0  0  0  0  0  0  0
   -3.3318   61.6140   73.8761 H   0  0  0  0  0  0  0  0  0  0  0  0
   -1.4678   62.5740   72.5433 H   0  0  0  0  0  0  0  0  0  0  0  0
    2.0039   59.6230   72.3024 H   0  0  0  0  0  0  0  0  0  0  0  0
    2.5229   61.2045   69.8180 H   0  0  0  0  0  0  0  0  0  0  0  0
    3.6983   62.1192   72.1853 H   0  0  0  0  0  0  0  0  0  0  0  0
    4.9619   61.0305   71.4268 H   0  0  0  0  0  0  0  0  0  0  0  0
    4.7608   63.6563   70.9085 H   0  0  0  0  0  0  0  0  0  0  0  0
    5.3393   62.3727   69.7216 H   0  0  0  0  0  0  0  0  0  0  0  0
   -3.2569   57.8988   76.7247 H   0  0  0  0  0  0  0  0  0  0  0  0
   -4.1158   57.3498   75.2456 H   0  0  0  0  0  0  0  0  0  0  0  0
   -2.3247   57.4865   75.2456 H   0  0  0  0  0  0  0  0  0  0  0  0
   -3.9465   59.7342   77.1603 H   0  0  0  0  0  0  0  0  0  0  0  0
   -2.8945   60.9789   76.3757 H   0  0  0  0  0  0  0  0  0  0  0  0
   -4.6762   62.5343   77.3855 H   0  0  0  0  0  0  0  0  0  0  0  0
   -8.0911   59.8358   71.8295 H   0  0  0  0  0  0  0  0  0  0  0  0
   -6.7035   59.3645   72.8469 H   0  0  0  0  0  0  0  0  0  0  0  0
  -10.1933   64.6494   74.0590 H   0  0  0  0  0  0  0  0  0  0  0  0
  -10.5614   63.5899   72.6717 H   0  0  0  0  0  0  0  0  0  0  0  0
  2  1  2  0
  3  2  1  0
  4  3  2  0
  5  4  1  0
  6  5  2  0
  6  1  1  0
  8  1  1  0
  8  7  1  0
  9  8  2  0
 10  7  1  0
 11 10  1  0
 12 11  2  0
 13 11  1  0
 14 10  1  0
 15 14  1  0
 17 16  1  0
 17 15  1  0
 18 17  2  0
 19  4  1  0
 20 19  1  0
 21 19  1  0
 22 21  1  0
 23 22  2  0
 24 23  1  0
 25 24  2  0
 26 25  1  0
 27 26  2  0
 27 22  1  0
 28 26  1  0
 29 28  1  0
 30 28  2  0
 31 30  1  0
 32 31  2  0
 32 25  1  0
 33 31  1  0
  2 34  1  0
  3 35  1  0
  5 36  1  0
  6 37  1  0
  7 38  1  0
 10 39  1  6
 14 40  1  0
 14 41  1  0
 15 42  1  0
 15 43  1  0
 20 44  1  0
 20 45  1  0
 20 46  1  0
 21 47  1  0
 21 48  1  0
 23 49  1  0
 29 50  1  0
 29 51  1  0
 33 52  1  0
 33 53  1  0
M  CHG  2  13  -1  16  -1
M  END
>  <score>  (7) 
-8.411

$$$$
=
     RDKit          3D

 53 55  0  0  0  0  0  0  0  0999 V2000
    0.6270   65.1320   70.3590 C   0  0  0  0  0  0  0  0  0  0  0  0
    1.5440   66.1130   69.9740 C   0  0  0  0  0  0  0  0  0  0  0  0
    1.2000   67.0710   69.0120 C   0  0  0  0  0  0  0  0  0  0  0  0
   -0.0680   67.0750   68.4140 C   0  0  0  0  0  0  0  0  0  0  0  0
   -0.9880   66.0980   68.8340 C   0  0  0  0  0  0  0  0  0  0  0  0
   -0.6510   65.1370   69.7940 C   0  0  0  0  0  0  0  0  0  0  0  0
    1.9270   63.1720   70.9350 N   0  0  0  0  0  0  0  0  0  0  0  0
    1.0430   64.1240   71.3790 C   0  0  0  0  0  0  0  0  0  0  0  0
    0.5940   64.2090   72.5180 O   0  0  0  0  0  0  0  0  0  0  0  0
    2.7520   62.3370   71.8540 C   0  0  2  0  0  0  0  0  0  0  0  0
    4.2650   62.4760   71.4350 C   0  0  0  0  0  0  0  0  0  0  0  0
    5.0620   61.7830   72.1550 O   0  0  0  0  0  0  0  0  0  0  0  0
    4.5220   63.1750   70.4160 O   0  0  0  0  0  1  0  0  0  0  0  0
    2.2790   60.8790   71.7240 C   0  0  0  0  0  0  0  0  0  0  0  0
    2.1670   60.1360   73.0570 C   0  0  0  0  0  0  0  0  0  0  0  0
    3.0840   58.3230   74.3260 O   0  0  0  0  0  1  0  0  0  0  0  0
    3.1010   58.9270   73.2160 C   0  0  0  0  0  0  0  0  0  0  0  0
    3.8050   58.6640   72.1940 O   0  0  0  0  0  0  0  0  0  0  0  0
   -0.4640   68.0010   67.4210 N   0  0  0  0  0  0  0  0  0  0  0  0
   -1.8840   68.3590   67.4140 C   0  0  0  0  0  0  0  0  0  0  0  0
    0.4630   69.1560   67.3730 C   0  0  0  0  0  0  0  0  0  0  0  0
    1.4300   69.0340   66.2140 C   0  0  0  0  0  0  0  0  0  0  0  0
    0.9800   68.6640   64.9590 C   0  0  0  0  0  0  0  0  0  0  0  0
    1.8010   68.5590   63.8840 N   0  0  0  0  0  0  0  0  0  0  0  0
    3.0980   68.8300   64.0570 C   0  0  0  0  0  0  0  0  0  0  0  0
    3.5610   69.2080   65.3240 C   0  0  0  0  0  0  0  0  0  0  0  0
    2.7390   69.3250   66.4130 N   0  0  0  0  0  0  0  0  0  0  0  0
    4.9230   69.4870   65.3580 C   0  0  0  0  0  0  0  0  0  0  0  0
    5.5520   69.8160   66.5700 N   0  0  0  0  0  0  0  0  0  0  0  0
    5.7360   69.4070   64.2930 N   0  0  0  0  0  0  0  0  0  0  0  0
    5.1770   69.0150   63.1530 C   0  0  0  0  0  0  0  0  0  0  0  0
    3.8890   68.7400   62.9910 N   0  0  0  0  0  0  0  0  0  0  0  0
    5.9870   68.9370   62.0410 N   0  0  0  0  0  0  0  0  0  0  0  0
    2.5447   66.1332   70.4303 H   0  0  0  0  0  0  0  0  0  0  0  0
    1.9374   67.8334   68.7206 H   0  0  0  0  0  0  0  0  0  0  0  0
   -1.9975   66.0888   68.3972 H   0  0  0  0  0  0  0  0  0  0  0  0
   -1.3922   64.3856   70.1038 H   0  0  0  0  0  0  0  0  0  0  0  0
    2.0247   63.0280   69.9198 H   0  0  0  0  0  0  0  0  0  0  0  0
    2.6448   62.6609   72.8997 H   0  0  0  0  0  0  0  0  0  0  0  0
    1.2891   60.8787   71.2444 H   0  0  0  0  0  0  0  0  0  0  0  0
    3.0397   60.3511   71.1302 H   0  0  0  0  0  0  0  0  0  0  0  0
    2.3939   60.8489   73.8634 H   0  0  0  0  0  0  0  0  0  0  0  0
    1.1430   59.7362   73.0969 H   0  0  0  0  0  0  0  0  0  0  0  0
   -2.2443   68.4498   68.4493 H   0  0  0  0  0  0  0  0  0  0  0  0
   -2.0176   69.3189   66.8937 H   0  0  0  0  0  0  0  0  0  0  0  0
   -2.4567   67.5771   66.8937 H   0  0  0  0  0  0  0  0  0  0  0  0
   -0.1215   70.0806   67.2569 H   0  0  0  0  0  0  0  0  0  0  0  0
    1.0413   69.1777   68.3085 H   0  0  0  0  0  0  0  0  0  0  0  0
   -0.0900   68.4455   64.8271 H   0  0  0  0  0  0  0  0  0  0  0  0
    6.5612   70.0214   66.5873 H   0  0  0  0  0  0  0  0  0  0  0  0
    5.0041   69.8519   67.4414 H   0  0  0  0  0  0  0  0  0  0  0  0
    5.5937   68.6375   61.1374 H   0  0  0  0  0  0  0  0  0  0  0  0
    6.9857   69.1782   62.1134 H   0  0  0  0  0  0  0  0  0  0  0  0
  2  1  2  0
  3  2  1  0
  4  3  2  0
  5  4  1  0
  6  5  2  0
  6  1  1  0
  8  1  1  0
  8  7  1  0
  9  8  2  0
 10  7  1  0
 11 10  1  0
 12 11  2  0
 13 11  1  0
 14 10  1  0
 15 14  1  0
 17 16  1  0
 17 15  1  0
 18 17  2  0
 19  4  1  0
 20 19  1  0
 21 19  1  0
 22 21  1  0
 23 22  2  0
 24 23  1  0
 25 24  2  0
 26 25  1  0
 27 26  2  0
 27 22  1  0
 28 26  1  0
 29 28  1  0
 30 28  2  0
 31 30  1  0
 32 31  2  0
 32 25  1  0
 33 31  1  0
  2 34  1  0
  3 35  1  0
  5 36  1  0
  6 37  1  0
  7 38  1  0
 10 39  1  1
 14 40  1  0
 14 41  1  0
 15 42  1  0
 15 43  1  0
 20 44  1  0
 20 45  1  0
 20 46  1  0
 21 47  1  0
 21 48  1  0
 23 49  1  0
 29 50  1  0
 29 51  1  0
 33 52  1  0
 33 53  1  0
M  CHG  2  13  -1  16  -1
M  END
>  <score>  (8) 
-8.334

$$$$
=
     RDKit          3D

 53 55  0  0  0  0  0  0  0  0999 V2000
    0.5090   61.9700   71.9360 C   0  0  0  0  0  0  0  0  0  0  0  0
    1.1110   60.7730   72.3340 C   0  0  0  0  0  0  0  0  0  0  0  0
    0.4200   59.8630   73.1430 C   0  0  0  0  0  0  0  0  0  0  0  0
   -0.8880   60.1220   73.5720 C   0  0  0  0  0  0  0  0  0  0  0  0
   -1.4890   61.3180   73.1410 C   0  0  0  0  0  0  0  0  0  0  0  0
   -0.8050   62.2330   72.3330 C   0  0  0  0  0  0  0  0  0  0  0  0
    2.6530   62.7780   71.1520 N   0  0  0  0  0  0  0  0  0  0  0  0
    1.2890   62.9160   71.0840 C   0  0  0  0  0  0  0  0  0  0  0  0
    0.6840   63.7250   70.3880 O   0  0  0  0  0  0  0  0  0  0  0  0
    3.5780   63.3310   70.1240 C   0  0  2  0  0  0  0  0  0  0  0  0
    3.4060   62.5010   68.7950 C   0  0  0  0  0  0  0  0  0  0  0  0
    3.0470   61.2900   68.9900 O   0  0  0  0  0  0  0  0  0  0  0  0
    3.5580   63.1170   67.7040 O   0  0  0  0  0  1  0  0  0  0  0  0
    5.0140   63.2100   70.6630 C   0  0  0  0  0  0  0  0  0  0  0  0
    5.1400   62.3500   71.9220 C   0  0  0  0  0  0  0  0  0  0  0  0
    4.7090   60.0740   72.5350 O   0  0  0  0  0  1  0  0  0  0  0  0
    5.2390   60.8360   71.6770 C   0  0  0  0  0  0  0  0  0  0  0  0
    5.8610   60.5110   70.6200 O   0  0  0  0  0  0  0  0  0  0  0  0
   -1.6260   59.2530   74.4100 N   0  0  0  0  0  0  0  0  0  0  0  0
   -0.9420   58.0200   74.8080 C   0  0  0  0  0  0  0  0  0  0  0  0
   -2.2520   59.9980   75.5270 C   0  0  0  0  0  0  0  0  0  0  0  0
   -3.7200   60.2570   75.2580 C   0  0  0  0  0  0  0  0  0  0  0  0
   -4.5670   59.2150   74.9230 C   0  0  0  0  0  0  0  0  0  0  0  0
   -5.8920   59.3890   74.6910 N   0  0  0  0  0  0  0  0  0  0  0  0
   -6.3890   60.6250   74.7970 C   0  0  0  0  0  0  0  0  0  0  0  0
   -5.5380   61.6850   75.1380 C   0  0  0  0  0  0  0  0  0  0  0  0
   -4.2020   61.5170   75.3820 N   0  0  0  0  0  0  0  0  0  0  0  0
   -6.1890   62.9100   75.2400 C   0  0  0  0  0  0  0  0  0  0  0  0
   -5.4630   64.0810   75.5100 N   0  0  0  0  0  0  0  0  0  0  0  0
   -7.5040   63.0850   75.0330 N   0  0  0  0  0  0  0  0  0  0  0  0
   -8.1960   62.0020   74.6940 C   0  0  0  0  0  0  0  0  0  0  0  0
   -7.6940   60.7800   74.5840 N   0  0  0  0  0  0  0  0  0  0  0  0
   -9.5510   62.1520   74.4890 N   0  0  0  0  0  0  0  0  0  0  0  0
    2.1366   60.5440   72.0088 H   0  0  0  0  0  0  0  0  0  0  0  0
    0.9131   58.9279   73.4472 H   0  0  0  0  0  0  0  0  0  0  0  0
   -2.5222   61.5397   73.4465 H   0  0  0  0  0  0  0  0  0  0  0  0
   -1.3017   63.1598   72.0101 H   0  0  0  0  0  0  0  0  0  0  0  0
    3.0556   62.2682   71.9513 H   0  0  0  0  0  0  0  0  0  0  0  0
    3.3582   64.3874   69.9104 H   0  0  0  0  0  0  0  0  0  0  0  0
    5.6414   62.7648   69.8767 H   0  0  0  0  0  0  0  0  0  0  0  0
    5.3347   64.2252   70.9398 H   0  0  0  0  0  0  0  0  0  0  0  0
    6.0453   62.6668   72.4606 H   0  0  0  0  0  0  0  0  0  0  0  0
    4.2112   62.5057   72.4905 H   0  0  0  0  0  0  0  0  0  0  0  0
   -0.9075   57.9578   75.9057 H   0  0  0  0  0  0  0  0  0  0  0  0
   -1.4879   57.1526   74.4086 H   0  0  0  0  0  0  0  0  0  0  0  0
    0.0829   58.0239   74.4086 H   0  0  0  0  0  0  0  0  0  0  0  0
   -2.1550   59.4083   76.4505 H   0  0  0  0  0  0  0  0  0  0  0  0
   -1.7405   60.9664   75.6297 H   0  0  0  0  0  0  0  0  0  0  0  0
   -4.1473   58.2015   74.8413 H   0  0  0  0  0  0  0  0  0  0  0  0
   -5.9519   64.9845   75.5841 H   0  0  0  0  0  0  0  0  0  0  0  0
   -4.4415   64.0365   75.6340 H   0  0  0  0  0  0  0  0  0  0  0  0
  -10.1251   61.3386   74.2250 H   0  0  0  0  0  0  0  0  0  0  0  0
   -9.9893   63.0775   74.5999 H   0  0  0  0  0  0  0  0  0  0  0  0
  2  1  2  0
  3  2  1  0
  4  3  2  0
  5  4  1  0
  6  5  2  0
  6  1  1  0
  8  1  1  0
  8  7  1  0
  9  8  2  0
 10  7  1  0
 11 10  1  0
 12 11  2  0
 13 11  1  0
 14 10  1  0
 15 14  1  0
 17 16  1  0
 17 15  1  0
 18 17  2  0
 19  4  1  0
 20 19  1  0
 21 19  1  0
 22 21  1  0
 23 22  2  0
 24 23  1  0
 25 24  2  0
 26 25  1  0
 27 26  2  0
 27 22  1  0
 28 26  1  0
 29 28  1  0
 30 28  2  0
 31 30  1  0
 32 31  2  0
 32 25  1  0
 33 31  1  0
  2 34  1  0
  3 35  1  0
  5 36  1  0
  6 37  1  0
  7 38  1  0
 10 39  1  6
 14 40  1  0
 14 41  1  0
 15 42  1  0
 15 43  1  0
 20 44  1  0
 20 45  1  0
 20 46  1  0
 21 47  1  0
 21 48  1  0
 23 49  1  0
 29 50  1  0
 29 51  1  0
 33 52  1  0
 33 53  1  0
M  CHG  2  13  -1  16  -1
M  END
>  <score>  (9) 
-8.317

$$$$
