=
     RDKit          3D

 65 66  0  0  0  0  0  0  0  0999 V2000
    0.8470   67.7370   64.4130 C   0  0  1  0  0  0  0  0  0  0  0  0
    0.0150   68.9820   64.7150 C   0  0  0  0  0  0  0  0  0  0  0  0
   -0.6810   69.4780   63.4460 C   0  0  1  0  0  0  0  0  0  0  0  0
    0.1980   69.4460   62.2340 C   0  0  0  0  0  0  0  0  0  0  0  0
    1.4010   68.8450   62.2040 C   0  0  0  0  0  0  0  0  0  0  0  0
    1.9660   68.0360   63.3770 C   0  0  1  0  0  0  0  0  0  0  0  0
    3.2790   68.7740   63.8010 C   0  0  2  0  0  0  0  0  0  0  0  0
    4.2940   68.6950   62.6000 C   0  0  2  0  0  0  0  0  0  0  0  0
    3.6290   68.9790   61.2640 C   0  0  0  0  0  0  0  0  0  0  0  0
    2.3020   69.0480   61.0910 C   0  0  0  0  0  0  0  0  0  0  0  0
    5.0270   67.3510   62.4820 C   0  0  0  0  0  0  0  0  0  0  0  0
   -1.8330   68.6840   63.1730 O   0  0  0  0  0  0  0  0  0  0  0  0
    1.3140   67.1880   65.6540 O   0  0  0  0  0  0  0  0  0  0  0  0
    0.4210   67.1460   66.6800 C   0  0  0  0  0  0  0  0  0  0  0  0
   -0.7660   66.8690   66.5730 O   0  0  0  0  0  0  0  0  0  0  0  0
    1.1120   67.5190   67.9790 C   0  0  1  0  0  0  0  0  0  0  0  0
    1.1800   69.0400   68.0770 C   0  0  0  0  0  0  0  0  0  0  0  0
    1.3150   66.2580   70.1890 C   0  0  0  0  0  0  0  0  0  0  0  0
    0.3760   66.8720   69.1620 C   0  0  0  0  0  0  0  0  0  0  0  0
    3.8990   68.3440   65.1450 C   0  0  0  0  0  0  0  0  0  0  0  0
    4.2750   69.4850   66.1110 C   0  0  0  0  0  0  0  0  0  0  0  0
    5.7730   69.5700   66.4480 C   0  0  1  0  0  0  0  0  0  0  0  0
    6.4840   68.8540   65.4380 O   0  0  0  0  0  0  0  0  0  0  0  0
    6.2480   71.0360   66.4840 C   0  0  0  0  0  0  0  0  0  0  0  0
    6.5050   71.5820   67.9020 C   0  0  1  0  0  0  0  0  0  0  0  0
    5.6830   72.7500   68.0870 O   0  0  0  0  0  0  0  0  0  0  0  0
    6.2350   70.6350   69.0590 C   0  0  0  0  0  0  0  0  0  0  0  0
    7.3170   70.8520   70.0980 C   0  0  0  0  0  0  0  0  0  0  0  0
    7.1620   70.2370   71.1880 O   0  0  0  0  0  0  0  0  0  0  0  0
    8.2270   71.6580   69.7430 O   0  0  0  0  0  1  0  0  0  0  0  0
    0.2303   66.9675   63.9257 H   0  0  0  0  0  0  0  0  0  0  0  0
   -0.7440   68.7360   65.4723 H   0  0  0  0  0  0  0  0  0  0  0  0
    0.6801   69.7737   65.0903 H   0  0  0  0  0  0  0  0  0  0  0  0
   -0.9522   70.5253   63.6449 H   0  0  0  0  0  0  0  0  0  0  0  0
   -0.1594   69.9407   61.3188 H   0  0  0  0  0  0  0  0  0  0  0  0
    2.2844   67.0063   63.1570 H   0  0  0  0  0  0  0  0  0  0  0  0
    3.0078   69.8189   64.0121 H   0  0  0  0  0  0  0  0  0  0  0  0
    5.0331   69.4746   62.8364 H   0  0  0  0  0  0  0  0  0  0  0  0
    4.2745   69.1372   60.3875 H   0  0  0  0  0  0  0  0  0  0  0  0
    1.8937   69.2613   60.0921 H   0  0  0  0  0  0  0  0  0  0  0  0
    5.2402   66.9601   63.4878 H   0  0  0  0  0  0  0  0  0  0  0  0
    4.3945   66.6350   61.9368 H   0  0  0  0  0  0  0  0  0  0  0  0
    5.9715   67.4951   61.9368 H   0  0  0  0  0  0  0  0  0  0  0  0
   -2.2469   68.3988   64.0259 H   0  0  0  0  0  0  0  0  0  0  0  0
    2.1431   67.1366   68.0039 H   0  0  0  0  0  0  0  0  0  0  0  0
    1.1934   69.3390   69.1355 H   0  0  0  0  0  0  0  0  0  0  0  0
    2.0951   69.3987   67.5831 H   0  0  0  0  0  0  0  0  0  0  0  0
    0.3006   69.4789   67.5831 H   0  0  0  0  0  0  0  0  0  0  0  0
    0.9553   66.4932   71.2016 H   0  0  0  0  0  0  0  0  0  0  0  0
    1.3429   65.1667   70.0541 H   0  0  0  0  0  0  0  0  0  0  0  0
    2.3259   66.6701   70.0541 H   0  0  0  0  0  0  0  0  0  0  0  0
   -0.2825   66.0811   68.7736 H   0  0  0  0  0  0  0  0  0  0  0  0
   -0.1886   67.6676   69.6701 H   0  0  0  0  0  0  0  0  0  0  0  0
    3.1744   67.6941   65.6574 H   0  0  0  0  0  0  0  0  0  0  0  0
    4.8466   67.8473   64.8893 H   0  0  0  0  0  0  0  0  0  0  0  0
    3.9719   70.4375   65.6517 H   0  0  0  0  0  0  0  0  0  0  0  0
    3.7536   69.2775   67.0571 H   0  0  0  0  0  0  0  0  0  0  0  0
    5.9578   69.1362   67.4418 H   0  0  0  0  0  0  0  0  0  0  0  0
    7.1136   68.2200   65.8642 H   0  0  0  0  0  0  0  0  0  0  0  0
    7.1842   71.1095   65.9111 H   0  0  0  0  0  0  0  0  0  0  0  0
    5.4367   71.6418   66.0542 H   0  0  0  0  0  0  0  0  0  0  0  0
    7.5866   71.7789   67.9376 H   0  0  0  0  0  0  0  0  0  0  0  0
    5.5637   72.9196   69.0550 H   0  0  0  0  0  0  0  0  0  0  0  0
    5.2485   70.8496   69.4957 H   0  0  0  0  0  0  0  0  0  0  0  0
    6.2407   69.5916   68.7107 H   0  0  0  0  0  0  0  0  0  0  0  0
  2  1  1  0
  3  2  1  0
  4  3  1  0
  5  4  2  0
  6  5  1  0
  6  1  1  0
  7  6  1  0
  8  7  1  0
  9  8  1  0
 10  9  2  0
 10  5  1  0
 11  8  1  0
 12  3  1  0
 13  1  1  0
 14 13  1  0
 15 14  2  0
 16 14  1  0
 17 16  1  0
 19 18  1  0
 19 16  1  0
 20  7  1  0
 21 20  1  0
 22 21  1  0
 23 22  1  0
 24 22  1  0
 25 24  1  0
 26 25  1  0
 27 25  1  0
 28 27  1  0
 29 28  2  0
 30 28  1  0
  1 31  1  6
  2 32  1  0
  2 33  1  0
  3 34  1  1
  4 35  1  0
  6 36  1  6
  7 37  1  1
  8 38  1  1
  9 39  1  0
 10 40  1  0
 11 41  1  0
 11 42  1  0
 11 43  1  0
 12 44  1  0
 16 45  1  6
 17 46  1  0
 17 47  1  0
 17 48  1  0
 18 49  1  0
 18 50  1  0
 18 51  1  0
 19 52  1  0
 19 53  1  0
 20 54  1  0
 20 55  1  0
 21 56  1  0
 21 57  1  0
 22 58  1  1
 23 59  1  0
 24 60  1  0
 24 61  1  0
 25 62  1  6
 26 63  1  0
 27 64  1  0
 27 65  1  0
M  CHG  1  30  -1
M  END
>  <score>  (1) 
-9.428

$$$$
=
     RDKit          3D

 65 66  0  0  0  0  0  0  0  0999 V2000
    3.1010   69.0130   64.5140 C   0  0  1  0  0  0  0  0  0  0  0  0
    3.5440   67.9040   63.5620 C   0  0  0  0  0  0  0  0  0  0  0  0
    2.9520   68.1300   62.1700 C   0  0  1  0  0  0  0  0  0  0  0  0
    1.5180   68.5600   62.1950 C   0  0  0  0  0  0  0  0  0  0  0  0
    0.8710   68.9230   63.3160 C   0  0  0  0  0  0  0  0  0  0  0  0
    1.5560   69.0370   64.6840 C   0  0  1  0  0  0  0  0  0  0  0  0
    0.8300   67.9980   65.6020 C   0  0  2  0  0  0  0  0  0  0  0  0
   -0.6720   68.4450   65.7540 C   0  0  2  0  0  0  0  0  0  0  0  0
   -1.2780   68.8840   64.4330 C   0  0  0  0  0  0  0  0  0  0  0  0
   -0.5650   69.0990   63.3190 C   0  0  0  0  0  0  0  0  0  0  0  0
   -0.8930   69.5750   66.7700 C   0  0  0  0  0  0  0  0  0  0  0  0
    3.6960   69.1270   61.4740 O   0  0  0  0  0  0  0  0  0  0  0  0
    3.8330   68.8800   65.7410 O   0  0  0  0  0  0  0  0  0  0  0  0
    4.9850   69.5970   65.8480 C   0  0  0  0  0  0  0  0  0  0  0  0
    5.6830   69.9570   64.9080 O   0  0  0  0  0  0  0  0  0  0  0  0
    5.2910   69.8650   67.3100 C   0  0  1  0  0  0  0  0  0  0  0  0
    6.3500   70.9590   67.3940 C   0  0  0  0  0  0  0  0  0  0  0  0
    4.2250   70.6070   69.5070 C   0  0  0  0  0  0  0  0  0  0  0  0
    3.9960   70.2220   68.0540 C   0  0  0  0  0  0  0  0  0  0  0  0
    1.5090   67.6910   66.9520 C   0  0  0  0  0  0  0  0  0  0  0  0
    0.6190   67.0250   68.0200 C   0  0  0  0  0  0  0  0  0  0  0  0
    1.3330   66.7180   69.3470 C   0  0  1  0  0  0  0  0  0  0  0  0
    1.8430   67.9510   69.8570 O   0  0  0  0  0  0  0  0  0  0  0  0
    0.3590   66.0930   70.3650 C   0  0  0  0  0  0  0  0  0  0  0  0
    0.6980   64.6390   70.7490 C   0  0  1  0  0  0  0  0  0  0  0  0
   -0.0690   63.7620   69.9020 O   0  0  0  0  0  0  0  0  0  0  0  0
    2.1560   64.2260   70.6480 C   0  0  0  0  0  0  0  0  0  0  0  0
    2.1990   62.7950   70.1480 C   0  0  0  0  0  0  0  0  0  0  0  0
    1.9380   61.9080   71.0040 O   0  0  0  0  0  0  0  0  0  0  0  0
    2.5280   62.6780   68.9310 O   0  0  0  0  0  1  0  0  0  0  0  0
    3.3393   70.0015   64.0943 H   0  0  0  0  0  0  0  0  0  0  0  0
    4.6418   67.9021   63.4933 H   0  0  0  0  0  0  0  0  0  0  0  0
    3.1884   66.9377   63.9490 H   0  0  0  0  0  0  0  0  0  0  0  0
    3.0086   67.1565   61.6610 H   0  0  0  0  0  0  0  0  0  0  0  0
    0.9641   68.5799   61.2449 H   0  0  0  0  0  0  0  0  0  0  0  0
    1.4497   69.9963   65.2116 H   0  0  0  0  0  0  0  0  0  0  0  0
    0.8949   67.0217   65.0994 H   0  0  0  0  0  0  0  0  0  0  0  0
   -1.1739   67.5398   66.1265 H   0  0  0  0  0  0  0  0  0  0  0  0
   -2.3667   69.0345   64.3877 H   0  0  0  0  0  0  0  0  0  0  0  0
   -1.0768   69.4126   62.3972 H   0  0  0  0  0  0  0  0  0  0  0  0
   -0.8141   69.1714   67.7902 H   0  0  0  0  0  0  0  0  0  0  0  0
   -0.1302   70.3539   66.6238 H   0  0  0  0  0  0  0  0  0  0  0  0
   -1.8931   70.0091   66.6238 H   0  0  0  0  0  0  0  0  0  0  0  0
    4.1408   69.7231   62.1274 H   0  0  0  0  0  0  0  0  0  0  0  0
    5.6973   68.9686   67.8013 H   0  0  0  0  0  0  0  0  0  0  0  0
    6.5649   71.1810   68.4497 H   0  0  0  0  0  0  0  0  0  0  0  0
    7.2698   70.6179   66.8964 H   0  0  0  0  0  0  0  0  0  0  0  0
    5.9792   71.8673   66.8964 H   0  0  0  0  0  0  0  0  0  0  0  0
    3.7736   69.8481   70.1629 H   0  0  0  0  0  0  0  0  0  0  0  0
    5.3055   70.6666   69.7046 H   0  0  0  0  0  0  0  0  0  0  0  0
    3.7616   71.5849   69.7046 H   0  0  0  0  0  0  0  0  0  0  0  0
    3.3250   69.3509   68.0250 H   0  0  0  0  0  0  0  0  0  0  0  0
    3.5604   71.0970   67.5494 H   0  0  0  0  0  0  0  0  0  0  0  0
    2.3589   67.0206   66.7565 H   0  0  0  0  0  0  0  0  0  0  0  0
    1.7932   68.6680   67.3700 H   0  0  0  0  0  0  0  0  0  0  0  0
   -0.2247   67.6982   68.2320 H   0  0  0  0  0  0  0  0  0  0  0  0
    0.3041   66.0566   67.6039 H   0  0  0  0  0  0  0  0  0  0  0  0
    2.1452   65.9958   69.1771 H   0  0  0  0  0  0  0  0  0  0  0  0
    1.8334   67.9279   70.8467 H   0  0  0  0  0  0  0  0  0  0  0  0
    0.3753   66.7046   71.2792 H   0  0  0  0  0  0  0  0  0  0  0  0
   -0.6308   66.0721   69.8856 H   0  0  0  0  0  0  0  0  0  0  0  0
    0.4522   64.5651   71.8186 H   0  0  0  0  0  0  0  0  0  0  0  0
   -0.6060   63.1479   70.4629 H   0  0  0  0  0  0  0  0  0  0  0  0
    2.6835   64.8848   69.9426 H   0  0  0  0  0  0  0  0  0  0  0  0
    2.6465   64.3049   71.6294 H   0  0  0  0  0  0  0  0  0  0  0  0
  2  1  1  0
  3  2  1  0
  4  3  1  0
  5  4  2  0
  6  5  1  0
  6  1  1  0
  7  6  1  0
  8  7  1  0
  9  8  1  0
 10  9  2  0
 10  5  1  0
 11  8  1  0
 12  3  1  0
 13  1  1  0
 14 13  1  0
 15 14  2  0
 16 14  1  0
 17 16  1  0
 19 18  1  0
 19 16  1  0
 20  7  1  0
 21 20  1  0
 22 21  1  0
 23 22  1  0
 24 22  1  0
 25 24  1  0
 26 25  1  0
 27 25  1  0
 28 27  1  0
 29 28  2  0
 30 28  1  0
  1 31  1  6
  2 32  1  0
  2 33  1  0
  3 34  1  6
  4 35  1  0
  6 36  1  1
  7 37  1  6
  8 38  1  1
  9 39  1  0
 10 40  1  0
 11 41  1  0
 11 42  1  0
 11 43  1  0
 12 44  1  0
 16 45  1  1
 17 46  1  0
 17 47  1  0
 17 48  1  0
 18 49  1  0
 18 50  1  0
 18 51  1  0
 19 52  1  0
 19 53  1  0
 20 54  1  0
 20 55  1  0
 21 56  1  0
 21 57  1  0
 22 58  1  6
 23 59  1  0
 24 60  1  0
 24 61  1  0
 25 62  1  1
 26 63  1  0
 27 64  1  0
 27 65  1  0
M  CHG  1  30  -1
M  END
>  <score>  (2) 
-9.195

$$$$
=
     RDKit          3D

 65 66  0  0  0  0  0  0  0  0999 V2000
   -0.3300   67.7020   67.0360 C   0  0  1  0  0  0  0  0  0  0  0  0
   -1.2700   68.8710   67.3210 C   0  0  0  0  0  0  0  0  0  0  0  0
   -2.2210   69.0900   66.1430 C   0  0  1  0  0  0  0  0  0  0  0  0
   -1.5490   68.9830   64.8080 C   0  0  0  0  0  0  0  0  0  0  0  0
   -0.2950   68.5290   64.6420 C   0  0  0  0  0  0  0  0  0  0  0  0
    0.5580   67.9740   65.7900 C   0  0  1  0  0  0  0  0  0  0  0  0
    1.8040   68.9160   65.8790 C   0  0  2  0  0  0  0  0  0  0  0  0
    2.6170   68.7800   64.5370 C   0  0  2  0  0  0  0  0  0  0  0  0
    1.7160   68.7830   63.3150 C   0  0  0  0  0  0  0  0  0  0  0  0
    0.3820   68.6700   63.3710 C   0  0  0  0  0  0  0  0  0  0  0  0
    3.5040   67.5280   64.4620 C   0  0  0  0  0  0  0  0  0  0  0  0
   -3.2790   68.1340   66.1790 O   0  0  0  0  0  0  0  0  0  0  0  0
    0.4000   67.4000   68.2330 O   0  0  0  0  0  0  0  0  0  0  0  0
   -0.1030   66.4150   69.0260 C   0  0  0  0  0  0  0  0  0  0  0  0
   -1.0690   65.7140   68.7550 O   0  0  0  0  0  0  0  0  0  0  0  0
    0.6990   66.3290   70.3120 C   0  0  1  0  0  0  0  0  0  0  0  0
   -0.2510   65.9980   71.4580 C   0  0  0  0  0  0  0  0  0  0  0  0
    1.5080   63.9530   70.7780 C   0  0  0  0  0  0  0  0  0  0  0  0
    1.8290   65.3010   70.1500 C   0  0  0  0  0  0  0  0  0  0  0  0
    2.6830   68.7640   67.1360 C   0  0  0  0  0  0  0  0  0  0  0  0
    2.5540   69.8830   68.1890 C   0  0  0  0  0  0  0  0  0  0  0  0
    3.8310   70.7130   68.4000 C   0  0  1  0  0  0  0  0  0  0  0  0
    4.2390   70.5400   69.7570 O   0  0  0  0  0  0  0  0  0  0  0  0
    4.9540   70.2480   67.4520 C   0  0  0  0  0  0  0  0  0  0  0  0
    6.2050   71.1480   67.4690 C   0  0  1  0  0  0  0  0  0  0  0  0
    5.8920   72.3360   68.2210 O   0  0  0  0  0  0  0  0  0  0  0  0
    7.4720   70.5480   68.0530 C   0  0  0  0  0  0  0  0  0  0  0  0
    7.6440   71.1000   69.4550 C   0  0  0  0  0  0  0  0  0  0  0  0
    8.4810   72.0340   69.5770 O   0  0  0  0  0  0  0  0  0  0  0  0
    6.9390   70.5200   70.3330 O   0  0  0  0  0  1  0  0  0  0  0  0
   -0.9026   66.8026   66.7656 H   0  0  0  0  0  0  0  0  0  0  0  0
   -1.8572   68.6518   68.2250 H   0  0  0  0  0  0  0  0  0  0  0  0
   -0.6716   69.7818   67.4706 H   0  0  0  0  0  0  0  0  0  0  0  0
   -2.6018   70.1160   66.2539 H   0  0  0  0  0  0  0  0  0  0  0  0
   -2.1125   69.2928   63.9156 H   0  0  0  0  0  0  0  0  0  0  0  0
    0.9802   66.9680   65.6493 H   0  0  0  0  0  0  0  0  0  0  0  0
    1.4259   69.9418   66.0008 H   0  0  0  0  0  0  0  0  0  0  0  0
    3.2670   69.6674   64.5390 H   0  0  0  0  0  0  0  0  0  0  0  0
    2.1859   68.8839   62.3256 H   0  0  0  0  0  0  0  0  0  0  0  0
   -0.2048   68.6846   62.4407 H   0  0  0  0  0  0  0  0  0  0  0  0
    3.7450   67.1879   65.4800 H   0  0  0  0  0  0  0  0  0  0  0  0
    2.9682   66.7306   63.9262 H   0  0  0  0  0  0  0  0  0  0  0  0
    4.4339   67.7690   63.9262 H   0  0  0  0  0  0  0  0  0  0  0  0
   -3.5063   67.9286   67.1204 H   0  0  0  0  0  0  0  0  0  0  0  0
    1.1806   67.2901   70.5450 H   0  0  0  0  0  0  0  0  0  0  0  0
    0.2566   66.1748   72.4177 H   0  0  0  0  0  0  0  0  0  0  0  0
   -1.1429   66.6383   71.3915 H   0  0  0  0  0  0  0  0  0  0  0  0
   -0.5519   64.9421   71.3915 H   0  0  0  0  0  0  0  0  0  0  0  0
    1.5298   64.0446   71.8740 H   0  0  0  0  0  0  0  0  0  0  0  0
    0.5073   63.6279   70.4571 H   0  0  0  0  0  0  0  0  0  0  0  0
    2.2548   63.2118   70.4571 H   0  0  0  0  0  0  0  0  0  0  0  0
    2.7364   65.7011   70.6259 H   0  0  0  0  0  0  0  0  0  0  0  0
    1.9670   65.1344   69.0715 H   0  0  0  0  0  0  0  0  0  0  0  0
    2.4162   67.8132   67.6206 H   0  0  0  0  0  0  0  0  0  0  0  0
    3.7224   68.8104   66.7790 H   0  0  0  0  0  0  0  0  0  0  0  0
    1.7511   70.5637   67.8698 H   0  0  0  0  0  0  0  0  0  0  0  0
    2.3427   69.3865   69.1476 H   0  0  0  0  0  0  0  0  0  0  0  0
    3.6288   71.7720   68.1818 H   0  0  0  0  0  0  0  0  0  0  0  0
    3.5164   70.8464   70.3605 H   0  0  0  0  0  0  0  0  0  0  0  0
    5.2555   69.2318   67.7460 H   0  0  0  0  0  0  0  0  0  0  0  0
    4.5458   70.2916   66.4315 H   0  0  0  0  0  0  0  0  0  0  0  0
    6.4355   71.3306   66.4090 H   0  0  0  0  0  0  0  0  0  0  0  0
    5.9444   72.1370   69.1894 H   0  0  0  0  0  0  0  0  0  0  0  0
    7.3840   69.4522   68.0907 H   0  0  0  0  0  0  0  0  0  0  0  0
    8.3412   70.8054   67.4299 H   0  0  0  0  0  0  0  0  0  0  0  0
  2  1  1  0
  3  2  1  0
  4  3  1  0
  5  4  2  0
  6  5  1  0
  6  1  1  0
  7  6  1  0
  8  7  1  0
  9  8  1  0
 10  9  2  0
 10  5  1  0
 11  8  1  0
 12  3  1  0
 13  1  1  0
 14 13  1  0
 15 14  2  0
 16 14  1  0
 17 16  1  0
 19 18  1  0
 19 16  1  0
 20  7  1  0
 21 20  1  0
 22 21  1  0
 23 22  1  0
 24 22  1  0
 25 24  1  0
 26 25  1  0
 27 25  1  0
 28 27  1  0
 29 28  2  0
 30 28  1  0
  1 31  1  6
  2 32  1  0
  2 33  1  0
  3 34  1  1
  4 35  1  0
  6 36  1  6
  7 37  1  1
  8 38  1  6
  9 39  1  0
 10 40  1  0
 11 41  1  0
 11 42  1  0
 11 43  1  0
 12 44  1  0
 16 45  1  1
 17 46  1  0
 17 47  1  0
 17 48  1  0
 18 49  1  0
 18 50  1  0
 18 51  1  0
 19 52  1  0
 19 53  1  0
 20 54  1  0
 20 55  1  0
 21 56  1  0
 21 57  1  0
 22 58  1  1
 23 59  1  0
 24 60  1  0
 24 61  1  0
 25 62  1  6
 26 63  1  0
 27 64  1  0
 27 65  1  0
M  CHG  1  30  -1
M  END
>  <score>  (3) 
-9.046

$$$$
=
     RDKit          3D

 65 66  0  0  0  0  0  0  0  0999 V2000
    3.5900   67.7980   64.5060 C   0  0  1  0  0  0  0  0  0  0  0  0
    3.9100   68.8760   63.4720 C   0  0  0  0  0  0  0  0  0  0  0  0
    5.2010   69.6060   63.8460 C   0  0  1  0  0  0  0  0  0  0  0  0
    5.3050   69.9220   65.3060 C   0  0  0  0  0  0  0  0  0  0  0  0
    4.4640   69.4310   66.2340 C   0  0  0  0  0  0  0  0  0  0  0  0
    3.3650   68.4100   65.9170 C   0  0  1  0  0  0  0  0  0  0  0  0
    2.0180   69.1190   66.2820 C   0  0  2  0  0  0  0  0  0  0  0  0
    2.0150   69.3960   67.8320 C   0  0  2  0  0  0  0  0  0  0  0  0
    3.3460   69.9380   68.3220 C   0  0  0  0  0  0  0  0  0  0  0  0
    4.4650   69.9530   67.5840 C   0  0  0  0  0  0  0  0  0  0  0  0
    1.6630   68.1720   68.6900 C   0  0  0  0  0  0  0  0  0  0  0  0
    6.3350   68.8190   63.4870 O   0  0  0  0  0  0  0  0  0  0  0  0
    2.4970   67.0070   64.0190 O   0  0  0  0  0  0  0  0  0  0  0  0
    2.4230   65.7240   64.4660 C   0  0  0  0  0  0  0  0  0  0  0  0
    1.3860   65.1100   64.6810 O   0  0  0  0  0  0  0  0  0  0  0  0
    3.8210   65.1720   64.6830 C   0  0  1  0  0  0  0  0  0  0  0  0
    3.7530   64.0740   65.7380 C   0  0  0  0  0  0  0  0  0  0  0  0
    5.0850   63.3330   63.4440 C   0  0  0  0  0  0  0  0  0  0  0  0
    4.3990   64.6870   63.3450 C   0  0  0  0  0  0  0  0  0  0  0  0
    0.7310   68.4290   65.7890 C   0  0  0  0  0  0  0  0  0  0  0  0
   -0.5850   69.1870   66.0540 C   0  0  0  0  0  0  0  0  0  0  0  0
   -1.7890   68.6830   65.2410 C   0  0  1  0  0  0  0  0  0  0  0  0
   -2.9610   69.2910   65.7830 O   0  0  0  0  0  0  0  0  0  0  0  0
   -1.6450   69.0570   63.7520 C   0  0  0  0  0  0  0  0  0  0  0  0
   -0.2100   68.9280   63.2060 C   0  0  1  0  0  0  0  0  0  0  0  0
   -0.1800   67.8200   62.2860 O   0  0  0  0  0  0  0  0  0  0  0  0
    0.3630   70.1410   62.4930 C   0  0  0  0  0  0  0  0  0  0  0  0
    0.6540   69.7410   61.0590 C   0  0  0  0  0  0  0  0  0  0  0  0
   -0.2820   69.9340   60.2370 O   0  0  0  0  0  0  0  0  0  0  0  0
    1.7990   69.2310   60.8830 O   0  0  0  0  0  1  0  0  0  0  0  0
    4.4485   67.1234   64.6397 H   0  0  0  0  0  0  0  0  0  0  0  0
    4.0319   68.4066   62.4847 H   0  0  0  0  0  0  0  0  0  0  0  0
    3.0840   69.6020   63.4456 H   0  0  0  0  0  0  0  0  0  0  0  0
    5.1772   70.5551   63.2905 H   0  0  0  0  0  0  0  0  0  0  0  0
    6.1124   70.5915   65.6374 H   0  0  0  0  0  0  0  0  0  0  0  0
    3.3637   67.4857   66.5133 H   0  0  0  0  0  0  0  0  0  0  0  0
    1.9873   70.0639   65.7196 H   0  0  0  0  0  0  0  0  0  0  0  0
    1.2222   70.1481   67.9577 H   0  0  0  0  0  0  0  0  0  0  0  0
    3.3950   70.3426   69.3437 H   0  0  0  0  0  0  0  0  0  0  0  0
    5.3922   70.3657   68.0082 H   0  0  0  0  0  0  0  0  0  0  0  0
    1.7391   68.4366   69.7550 H   0  0  0  0  0  0  0  0  0  0  0  0
    0.6357   67.8495   68.4648 H   0  0  0  0  0  0  0  0  0  0  0  0
    2.3620   67.3531   68.4648 H   0  0  0  0  0  0  0  0  0  0  0  0
    6.7904   68.5030   64.3073 H   0  0  0  0  0  0  0  0  0  0  0  0
    4.5028   65.9507   65.0555 H   0  0  0  0  0  0  0  0  0  0  0  0
    3.7810   64.5263   66.7403 H   0  0  0  0  0  0  0  0  0  0  0  0
    2.8180   63.5072   65.6175 H   0  0  0  0  0  0  0  0  0  0  0  0
    4.6109   63.3961   65.6175 H   0  0  0  0  0  0  0  0  0  0  0  0
    5.2199   63.0668   64.5028 H   0  0  0  0  0  0  0  0  0  0  0  0
    4.4644   62.5706   62.9504 H   0  0  0  0  0  0  0  0  0  0  0  0
    6.0668   63.3824   62.9504 H   0  0  0  0  0  0  0  0  0  0  0  0
    5.1337   65.4262   62.9931 H   0  0  0  0  0  0  0  0  0  0  0  0
    3.5568   64.5763   62.6461 H   0  0  0  0  0  0  0  0  0  0  0  0
    0.8224   68.2826   64.7026 H   0  0  0  0  0  0  0  0  0  0  0  0
    0.6563   67.4942   66.3639 H   0  0  0  0  0  0  0  0  0  0  0  0
   -0.8277   69.0899   67.1225 H   0  0  0  0  0  0  0  0  0  0  0  0
   -0.4130   70.2281   65.7434 H   0  0  0  0  0  0  0  0  0  0  0  0
   -1.8497   67.5865   65.3039 H   0  0  0  0  0  0  0  0  0  0  0  0
   -2.9173   69.2684   66.7718 H   0  0  0  0  0  0  0  0  0  0  0  0
   -2.2986   68.3950   63.1650 H   0  0  0  0  0  0  0  0  0  0  0  0
   -1.9236   70.1174   63.6633 H   0  0  0  0  0  0  0  0  0  0  0  0
    0.4208   68.7944   64.0972 H   0  0  0  0  0  0  0  0  0  0  0  0
   -0.1570   66.9703   62.7935 H   0  0  0  0  0  0  0  0  0  0  0  0
   -0.3658   70.9647   62.5112 H   0  0  0  0  0  0  0  0  0  0  0  0
    1.2828   70.4809   62.9914 H   0  0  0  0  0  0  0  0  0  0  0  0
  2  1  1  0
  3  2  1  0
  4  3  1  0
  5  4  2  0
  6  5  1  0
  6  1  1  0
  7  6  1  0
  8  7  1  0
  9  8  1  0
 10  9  2  0
 10  5  1  0
 11  8  1  0
 12  3  1  0
 13  1  1  0
 14 13  1  0
 15 14  2  0
 16 14  1  0
 17 16  1  0
 19 18  1  0
 19 16  1  0
 20  7  1  0
 21 20  1  0
 22 21  1  0
 23 22  1  0
 24 22  1  0
 25 24  1  0
 26 25  1  0
 27 25  1  0
 28 27  1  0
 29 28  2  0
 30 28  1  0
  1 31  1  1
  2 32  1  0
  2 33  1  0
  3 34  1  6
  4 35  1  0
  6 36  1  1
  7 37  1  6
  8 38  1  6
  9 39  1  0
 10 40  1  0
 11 41  1  0
 11 42  1  0
 11 43  1  0
 12 44  1  0
 16 45  1  1
 17 46  1  0
 17 47  1  0
 17 48  1  0
 18 49  1  0
 18 50  1  0
 18 51  1  0
 19 52  1  0
 19 53  1  0
 20 54  1  0
 20 55  1  0
 21 56  1  0
 21 57  1  0
 22 58  1  6
 23 59  1  0
 24 60  1  0
 24 61  1  0
 25 62  1  1
 26 63  1  0
 27 64  1  0
 27 65  1  0
M  CHG  1  30  -1
M  END
>  <score>  (4) 
-8.629

$$$$
=
     RDKit          3D

 65 66  0  0  0  0  0  0  0  0999 V2000
    1.4000   67.7600   64.5550 C   0  0  1  0  0  0  0  0  0  0  0  0
    0.3680   68.8170   64.1660 C   0  0  0  0  0  0  0  0  0  0  0  0
    0.3410   69.0010   62.6480 C   0  0  1  0  0  0  0  0  0  0  0  0
    1.7030   69.0270   62.0270 C   0  0  0  0  0  0  0  0  0  0  0  0
    2.8280   68.7070   62.6900 C   0  0  0  0  0  0  0  0  0  0  0  0
    2.8350   68.1800   64.1300 C   0  0  1  0  0  0  0  0  0  0  0  0
    3.6450   69.2330   64.9570 C   0  0  2  0  0  0  0  0  0  0  0  0
    5.1250   69.2440   64.4190 C   0  0  2  0  0  0  0  0  0  0  0  0
    5.1860   69.2210   62.9020 C   0  0  0  0  0  0  0  0  0  0  0  0
    4.1290   68.9760   62.1150 C   0  0  0  0  0  0  0  0  0  0  0  0
    5.9930   68.0900   64.9400 C   0  0  0  0  0  0  0  0  0  0  0  0
   -0.3990   67.9470   62.0370 O   0  0  0  0  0  0  0  0  0  0  0  0
    1.2540   67.4720   65.9530 O   0  0  0  0  0  0  0  0  0  0  0  0
   -0.0060   67.5370   66.4630 C   0  0  0  0  0  0  0  0  0  0  0  0
   -1.0340   67.6120   65.8020 O   0  0  0  0  0  0  0  0  0  0  0  0
    0.0510   67.5280   67.9800 C   0  0  1  0  0  0  0  0  0  0  0  0
   -1.1510   66.7540   68.5100 C   0  0  0  0  0  0  0  0  0  0  0  0
    1.3740   66.4650   69.8870 C   0  0  0  0  0  0  0  0  0  0  0  0
    1.3950   66.9460   68.4440 C   0  0  0  0  0  0  0  0  0  0  0  0
    3.5610   69.1050   66.4910 C   0  0  0  0  0  0  0  0  0  0  0  0
    2.5970   70.0780   67.1980 C   0  0  0  0  0  0  0  0  0  0  0  0
    3.1740   70.7510   68.4530 C   0  0  1  0  0  0  0  0  0  0  0  0
    2.3340   70.4060   69.5540 O   0  0  0  0  0  0  0  0  0  0  0  0
    4.6140   70.2720   68.7230 C   0  0  0  0  0  0  0  0  0  0  0  0
    5.6930   71.0410   67.9350 C   0  0  1  0  0  0  0  0  0  0  0  0
    5.6480   72.4210   68.3460 O   0  0  0  0  0  0  0  0  0  0  0  0
    7.1250   70.5570   68.0840 C   0  0  0  0  0  0  0  0  0  0  0  0
    7.6360   71.0280   69.4320 C   0  0  0  0  0  0  0  0  0  0  0  0
    7.1640   70.4300   70.4360 O   0  0  0  0  0  0  0  0  0  0  0  0
    8.4530   71.9930   69.3710 O   0  0  0  0  0  1  0  0  0  0  0  0
    1.2207   66.8237   64.0062 H   0  0  0  0  0  0  0  0  0  0  0  0
   -0.6265   68.4968   64.5102 H   0  0  0  0  0  0  0  0  0  0  0  0
    0.6408   69.7729   64.6369 H   0  0  0  0  0  0  0  0  0  0  0  0
   -0.1328   69.9785   62.4749 H   0  0  0  0  0  0  0  0  0  0  0  0
    1.7879   69.3240   60.9712 H   0  0  0  0  0  0  0  0  0  0  0  0
    3.3580   67.2282   64.3049 H   0  0  0  0  0  0  0  0  0  0  0  0
    3.1656   70.2095   64.7941 H   0  0  0  0  0  0  0  0  0  0  0  0
    5.5330   70.1888   64.8073 H   0  0  0  0  0  0  0  0  0  0  0  0
    6.1553   69.4171   62.4202 H   0  0  0  0  0  0  0  0  0  0  0  0
    4.2513   68.9794   61.0218 H   0  0  0  0  0  0  0  0  0  0  0  0
    5.9887   68.0957   66.0400 H   0  0  0  0  0  0  0  0  0  0  0  0
    5.5883   67.1338   64.5767 H   0  0  0  0  0  0  0  0  0  0  0  0
    7.0239   68.2136   64.5767 H   0  0  0  0  0  0  0  0  0  0  0  0
   -0.8002   67.3755   62.7388 H   0  0  0  0  0  0  0  0  0  0  0  0
   -0.0057   68.5490   68.3854 H   0  0  0  0  0  0  0  0  0  0  0  0
   -1.1370   66.7630   69.6099 H   0  0  0  0  0  0  0  0  0  0  0  0
   -2.0779   67.2254   68.1512 H   0  0  0  0  0  0  0  0  0  0  0  0
   -1.1054   65.7151   68.1512 H   0  0  0  0  0  0  0  0  0  0  0  0
    1.4118   67.3319   70.5631 H   0  0  0  0  0  0  0  0  0  0  0  0
    0.4502   65.8968   70.0707 H   0  0  0  0  0  0  0  0  0  0  0  0
    2.2448   65.8185   70.0707 H   0  0  0  0  0  0  0  0  0  0  0  0
    2.1656   67.7249   68.3464 H   0  0  0  0  0  0  0  0  0  0  0  0
    1.6083   66.0718   67.8113 H   0  0  0  0  0  0  0  0  0  0  0  0
    3.2374   68.0803   66.7261 H   0  0  0  0  0  0  0  0  0  0  0  0
    4.5642   69.3570   66.8652 H   0  0  0  0  0  0  0  0  0  0  0  0
    2.3195   70.8663   66.4828 H   0  0  0  0  0  0  0  0  0  0  0  0
    1.7383   69.4777   67.5330 H   0  0  0  0  0  0  0  0  0  0  0  0
    3.2069   71.8412   68.3101 H   0  0  0  0  0  0  0  0  0  0  0  0
    2.8058   70.5998   70.4025 H   0  0  0  0  0  0  0  0  0  0  0  0
    4.8212   70.3897   69.7969 H   0  0  0  0  0  0  0  0  0  0  0  0
    4.6664   69.2244   68.3916 H   0  0  0  0  0  0  0  0  0  0  0  0
    5.4427   70.8749   66.8768 H   0  0  0  0  0  0  0  0  0  0  0  0
    5.6464   72.4710   69.3347 H   0  0  0  0  0  0  0  0  0  0  0  0
    7.1556   69.4585   68.0353 H   0  0  0  0  0  0  0  0  0  0  0  0
    7.7522   70.9578   67.2741 H   0  0  0  0  0  0  0  0  0  0  0  0
  2  1  1  0
  3  2  1  0
  4  3  1  0
  5  4  2  0
  6  5  1  0
  6  1  1  0
  7  6  1  0
  8  7  1  0
  9  8  1  0
 10  9  2  0
 10  5  1  0
 11  8  1  0
 12  3  1  0
 13  1  1  0
 14 13  1  0
 15 14  2  0
 16 14  1  0
 17 16  1  0
 19 18  1  0
 19 16  1  0
 20  7  1  0
 21 20  1  0
 22 21  1  0
 23 22  1  0
 24 22  1  0
 25 24  1  0
 26 25  1  0
 27 25  1  0
 28 27  1  0
 29 28  2  0
 30 28  1  0
  1 31  1  6
  2 32  1  0
  2 33  1  0
  3 34  1  1
  4 35  1  0
  6 36  1  6
  7 37  1  1
  8 38  1  1
  9 39  1  0
 10 40  1  0
 11 41  1  0
 11 42  1  0
 11 43  1  0
 12 44  1  0
 16 45  1  1
 17 46  1  0
 17 47  1  0
 17 48  1  0
 18 49  1  0
 18 50  1  0
 18 51  1  0
 19 52  1  0
 19 53  1  0
 20 54  1  0
 20 55  1  0
 21 56  1  0
 21 57  1  0
 22 58  1  6
 23 59  1  0
 24 60  1  0
 24 61  1  0
 25 62  1  6
 26 63  1  0
 27 64  1  0
 27 65  1  0
M  CHG  1  30  -1
M  END
>  <score>  (5) 
-8.539

$$$$
=
     RDKit          3D

 65 66  0  0  0  0  0  0  0  0999 V2000
    2.3670   69.1270   66.1030 C   0  0  1  0  0  0  0  0  0  0  0  0
    1.9290   67.9180   66.9270 C   0  0  0  0  0  0  0  0  0  0  0  0
    1.5760   68.3450   68.3530 C   0  0  1  0  0  0  0  0  0  0  0  0
    2.5420   69.3310   68.9350 C   0  0  0  0  0  0  0  0  0  0  0  0
    3.4960   69.9480   68.2160 C   0  0  0  0  0  0  0  0  0  0  0  0
    3.6410   69.7910   66.6980 C   0  0  1  0  0  0  0  0  0  0  0  0
    5.0560   69.1620   66.4750 C   0  0  2  0  0  0  0  0  0  0  0  0
    6.1350   70.1930   66.9790 C   0  0  2  0  0  0  0  0  0  0  0  0
    5.7540   70.8220   68.3080 C   0  0  0  0  0  0  0  0  0  0  0  0
    4.5430   70.7030   68.8700 C   0  0  0  0  0  0  0  0  0  0  0  0
    6.4270   71.3310   65.9900 C   0  0  0  0  0  0  0  0  0  0  0  0
    0.2780   68.9320   68.3860 O   0  0  0  0  0  0  0  0  0  0  0  0
    2.4910   68.7240   64.7320 O   0  0  0  0  0  0  0  0  0  0  0  0
    1.4070   68.1240   64.1700 C   0  0  0  0  0  0  0  0  0  0  0  0
    1.1890   66.9190   64.1660 O   0  0  0  0  0  0  0  0  0  0  0  0
    0.5160   69.1700   63.5240 C   0  0  1  0  0  0  0  0  0  0  0  0
    0.8180   69.2130   62.0300 C   0  0  0  0  0  0  0  0  0  0  0  0
   -1.2800   68.8990   65.3170 C   0  0  0  0  0  0  0  0  0  0  0  0
   -0.9560   68.8570   63.8320 C   0  0  0  0  0  0  0  0  0  0  0  0
    5.3480   68.6250   65.0600 C   0  0  0  0  0  0  0  0  0  0  0  0
    4.8600   69.5030   63.8910 C   0  0  0  0  0  0  0  0  0  0  0  0
    4.7560   68.7720   62.5420 C   0  0  1  0  0  0  0  0  0  0  0  0
    5.4830   69.5370   61.5800 O   0  0  0  0  0  0  0  0  0  0  0  0
    5.3470   67.3520   62.6380 C   0  0  0  0  0  0  0  0  0  0  0  0
    4.3560   66.2900   63.1560 C   0  0  1  0  0  0  0  0  0  0  0  0
    4.0060   65.4310   62.0540 O   0  0  0  0  0  0  0  0  0  0  0  0
    4.8310   65.4110   64.3000 C   0  0  0  0  0  0  0  0  0  0  0  0
    4.5480   63.9690   63.9250 C   0  0  0  0  0  0  0  0  0  0  0  0
    3.4270   63.5200   64.2860 O   0  0  0  0  0  0  0  0  0  0  0  0
    5.5000   63.3920   63.3210 O   0  0  0  0  0  1  0  0  0  0  0  0
    1.6063   69.9204   66.1444 H   0  0  0  0  0  0  0  0  0  0  0  0
    1.0466   67.4593   66.4569 H   0  0  0  0  0  0  0  0  0  0  0  0
    2.7559   67.1936   66.9655 H   0  0  0  0  0  0  0  0  0  0  0  0
    1.6170   67.4267   68.9572 H   0  0  0  0  0  0  0  0  0  0  0  0
    2.4668   69.5626   70.0077 H   0  0  0  0  0  0  0  0  0  0  0  0
    3.6530   70.7174   66.1051 H   0  0  0  0  0  0  0  0  0  0  0  0
    5.0952   68.2374   67.0697 H   0  0  0  0  0  0  0  0  0  0  0  0
    7.0438   69.5829   67.0874 H   0  0  0  0  0  0  0  0  0  0  0  0
    6.5165   71.4095   68.8404 H   0  0  0  0  0  0  0  0  0  0  0  0
    4.3429   71.1844   69.8386 H   0  0  0  0  0  0  0  0  0  0  0  0
    6.6627   72.2496   66.5473 H   0  0  0  0  0  0  0  0  0  0  0  0
    7.2837   71.0560   65.3572 H   0  0  0  0  0  0  0  0  0  0  0  0
    5.5438   71.5025   65.3572 H   0  0  0  0  0  0  0  0  0  0  0  0
   -0.0029   69.0590   69.3268 H   0  0  0  0  0  0  0  0  0  0  0  0
    0.7168   70.1709   63.9337 H   0  0  0  0  0  0  0  0  0  0  0  0
    1.8966   69.3666   61.8782 H   0  0  0  0  0  0  0  0  0  0  0  0
    0.5142   68.2625   61.5670 H   0  0  0  0  0  0  0  0  0  0  0  0
    0.2610   70.0409   61.5670 H   0  0  0  0  0  0  0  0  0  0  0  0
   -0.3537   68.7789   65.8979 H   0  0  0  0  0  0  0  0  0  0  0  0
   -1.7449   69.8649   65.5637 H   0  0  0  0  0  0  0  0  0  0  0  0
   -1.9758   68.0835   65.5637 H   0  0  0  0  0  0  0  0  0  0  0  0
   -1.1861   67.8505   63.4524 H   0  0  0  0  0  0  0  0  0  0  0  0
   -1.5640   69.6324   63.3430 H   0  0  0  0  0  0  0  0  0  0  0  0
    6.4375   68.5090   64.9620 H   0  0  0  0  0  0  0  0  0  0  0  0
    4.7864   67.6827   64.9782 H   0  0  0  0  0  0  0  0  0  0  0  0
    3.8641   69.8934   64.1475 H   0  0  0  0  0  0  0  0  0  0  0  0
    5.6127   70.2943   63.7598 H   0  0  0  0  0  0  0  0  0  0  0  0
    3.7001   68.6735   62.2497 H   0  0  0  0  0  0  0  0  0  0  0  0
    6.0842   70.1696   62.0475 H   0  0  0  0  0  0  0  0  0  0  0  0
    5.6840   67.0498   61.6354 H   0  0  0  0  0  0  0  0  0  0  0  0
    6.1695   67.3999   63.3669 H   0  0  0  0  0  0  0  0  0  0  0  0
    3.5135   66.8653   63.5673 H   0  0  0  0  0  0  0  0  0  0  0  0
    3.6564   64.5729   62.4026 H   0  0  0  0  0  0  0  0  0  0  0  0
    5.9106   65.5519   64.4568 H   0  0  0  0  0  0  0  0  0  0  0  0
    4.3079   65.6757   65.2308 H   0  0  0  0  0  0  0  0  0  0  0  0
  2  1  1  0
  3  2  1  0
  4  3  1  0
  5  4  2  0
  6  5  1  0
  6  1  1  0
  7  6  1  0
  8  7  1  0
  9  8  1  0
 10  9  2  0
 10  5  1  0
 11  8  1  0
 12  3  1  0
 13  1  1  0
 14 13  1  0
 15 14  2  0
 16 14  1  0
 17 16  1  0
 19 18  1  0
 19 16  1  0
 20  7  1  0
 21 20  1  0
 22 21  1  0
 23 22  1  0
 24 22  1  0
 25 24  1  0
 26 25  1  0
 27 25  1  0
 28 27  1  0
 29 28  2  0
 30 28  1  0
  1 31  1  6
  2 32  1  0
  2 33  1  0
  3 34  1  1
  4 35  1  0
  6 36  1  6
  7 37  1  1
  8 38  1  1
  9 39  1  0
 10 40  1  0
 11 41  1  0
 11 42  1  0
 11 43  1  0
 12 44  1  0
 16 45  1  1
 17 46  1  0
 17 47  1  0
 17 48  1  0
 18 49  1  0
 18 50  1  0
 18 51  1  0
 19 52  1  0
 19 53  1  0
 20 54  1  0
 20 55  1  0
 21 56  1  0
 21 57  1  0
 22 58  1  6
 23 59  1  0
 24 60  1  0
 24 61  1  0
 25 62  1  1
 26 63  1  0
 27 64  1  0
 27 65  1  0
M  CHG  1  30  -1
M  END
>  <score>  (6) 
-8.12

$$$$
=
     RDKit          3D

 65 66  0  0  0  0  0  0  0  0999 V2000
    3.5800   68.0260   65.0950 C   0  0  1  0  0  0  0  0  0  0  0  0
    3.6730   68.9000   63.8460 C   0  0  0  0  0  0  0  0  0  0  0  0
    5.0890   69.4570   63.6900 C   0  0  1  0  0  0  0  0  0  0  0  0
    5.6850   69.9350   64.9790 C   0  0  0  0  0  0  0  0  0  0  0  0
    5.1340   69.7040   66.1830 C   0  0  0  0  0  0  0  0  0  0  0  0
    3.8840   68.8390   66.3850 C   0  0  1  0  0  0  0  0  0  0  0  0
    2.8110   69.7920   67.0080 C   0  0  2  0  0  0  0  0  0  0  0  0
    3.3310   70.2600   68.4180 C   0  0  2  0  0  0  0  0  0  0  0  0
    4.8010   70.6410   68.3920 C   0  0  0  0  0  0  0  0  0  0  0  0
    5.6210   70.3850   67.3630 C   0  0  0  0  0  0  0  0  0  0  0  0
    3.1360   69.2250   69.5360 C   0  0  0  0  0  0  0  0  0  0  0  0
    5.9540   68.4620   63.1490 O   0  0  0  0  0  0  0  0  0  0  0  0
    2.3080   67.3630   65.0950 O   0  0  0  0  0  0  0  0  0  0  0  0
    2.3060   66.0410   64.7740 C   0  0  0  0  0  0  0  0  0  0  0  0
    1.3200   65.3940   64.4450 O   0  0  0  0  0  0  0  0  0  0  0  0
    3.7100   65.4760   64.9070 C   0  0  1  0  0  0  0  0  0  0  0  0
    3.6640   64.2670   65.8340 C   0  0  0  0  0  0  0  0  0  0  0  0
    4.9010   63.7660   63.4340 C   0  0  0  0  0  0  0  0  0  0  0  0
    4.2690   65.1470   63.5150 C   0  0  0  0  0  0  0  0  0  0  0  0
    1.3650   69.2590   67.0430 C   0  0  0  0  0  0  0  0  0  0  0  0
    1.1230   68.0210   67.9300 C   0  0  0  0  0  0  0  0  0  0  0  0
   -0.2880   67.4220   67.8190 C   0  0  1  0  0  0  0  0  0  0  0  0
   -0.3950   66.8030   66.5370 O   0  0  0  0  0  0  0  0  0  0  0  0
   -0.5310   66.3770   68.9270 C   0  0  0  0  0  0  0  0  0  0  0  0
    0.5240   66.3910   70.0500 C   0  0  1  0  0  0  0  0  0  0  0  0
   -0.1590   66.2280   71.3070 O   0  0  0  0  0  0  0  0  0  0  0  0
    1.6190   65.3410   69.9740 C   0  0  0  0  0  0  0  0  0  0  0  0
    1.1240   64.1030   70.6970 C   0  0  0  0  0  0  0  0  0  0  0  0
    1.6580   63.8710   71.8150 O   0  0  0  0  0  0  0  0  0  0  0  0
    0.2540   63.4400   70.0590 O   0  0  0  0  0  1  0  0  0  0  0  0
    4.3562   67.2467   65.0804 H   0  0  0  0  0  0  0  0  0  0  0  0
    3.4214   68.2964   62.9615 H   0  0  0  0  0  0  0  0  0  0  0  0
    2.9681   69.7388   63.9438 H   0  0  0  0  0  0  0  0  0  0  0  0
    4.9973   70.3197   63.0138 H   0  0  0  0  0  0  0  0  0  0  0  0
    6.6244   70.5059   64.9377 H   0  0  0  0  0  0  0  0  0  0  0  0
    3.9684   68.0099   67.1030 H   0  0  0  0  0  0  0  0  0  0  0  0
    2.7089   70.6509   66.3284 H   0  0  0  0  0  0  0  0  0  0  0  0
    2.7084   71.1384   68.6436 H   0  0  0  0  0  0  0  0  0  0  0  0
    5.2173   71.1575   69.2694 H   0  0  0  0  0  0  0  0  0  0  0  0
    6.6748   70.6958   67.4162 H   0  0  0  0  0  0  0  0  0  0  0  0
    3.2292   69.7198   70.5140 H   0  0  0  0  0  0  0  0  0  0  0  0
    2.1369   68.7733   69.4473 H   0  0  0  0  0  0  0  0  0  0  0  0
    3.9022   68.4407   69.4473 H   0  0  0  0  0  0  0  0  0  0  0  0
    6.3868   67.9642   63.8872 H   0  0  0  0  0  0  0  0  0  0  0  0
    4.3940   66.2124   65.3540 H   0  0  0  0  0  0  0  0  0  0  0  0
    3.6769   64.6065   66.8802 H   0  0  0  0  0  0  0  0  0  0  0  0
    2.7434   63.6952   65.6454 H   0  0  0  0  0  0  0  0  0  0  0  0
    4.5384   63.6269   65.6454 H   0  0  0  0  0  0  0  0  0  0  0  0
    5.0763   63.3828   64.4501 H   0  0  0  0  0  0  0  0  0  0  0  0
    4.2252   63.0844   62.8967 H   0  0  0  0  0  0  0  0  0  0  0  0
    5.8586   63.8319   62.8967 H   0  0  0  0  0  0  0  0  0  0  0  0
    5.0324   65.8964   63.2588 H   0  0  0  0  0  0  0  0  0  0  0  0
    3.4234   65.1612   62.8115 H   0  0  0  0  0  0  0  0  0  0  0  0
    0.7167   70.0682   67.4102 H   0  0  0  0  0  0  0  0  0  0  0  0
    1.1427   68.9359   66.0153 H   0  0  0  0  0  0  0  0  0  0  0  0
    1.8487   67.2458   67.6429 H   0  0  0  0  0  0  0  0  0  0  0  0
    1.2393   68.3554   68.9715 H   0  0  0  0  0  0  0  0  0  0  0  0
   -1.0414   68.2148   67.9370 H   0  0  0  0  0  0  0  0  0  0  0  0
   -0.5625   65.8340   66.6514 H   0  0  0  0  0  0  0  0  0  0  0  0
   -1.5158   66.5730   69.3762 H   0  0  0  0  0  0  0  0  0  0  0  0
   -0.4704   65.3885   68.4483 H   0  0  0  0  0  0  0  0  0  0  0  0
    1.0429   67.3545   69.9385 H   0  0  0  0  0  0  0  0  0  0  0  0
    0.4771   66.3798   72.0503 H   0  0  0  0  0  0  0  0  0  0  0  0
    1.8339   65.0996   68.9225 H   0  0  0  0  0  0  0  0  0  0  0  0
    2.5430   65.7146   70.4395 H   0  0  0  0  0  0  0  0  0  0  0  0
  2  1  1  0
  3  2  1  0
  4  3  1  0
  5  4  2  0
  6  5  1  0
  6  1  1  0
  7  6  1  0
  8  7  1  0
  9  8  1  0
 10  9  2  0
 10  5  1  0
 11  8  1  0
 12  3  1  0
 13  1  1  0
 14 13  1  0
 15 14  2  0
 16 14  1  0
 17 16  1  0
 19 18  1  0
 19 16  1  0
 20  7  1  0
 21 20  1  0
 22 21  1  0
 23 22  1  0
 24 22  1  0
 25 24  1  0
 26 25  1  0
 27 25  1  0
 28 27  1  0
 29 28  2  0
 30 28  1  0
  1 31  1  6
  2 32  1  0
  2 33  1  0
  3 34  1  6
  4 35  1  0
  6 36  1  1
  7 37  1  6
  8 38  1  1
  9 39  1  0
 10 40  1  0
 11 41  1  0
 11 42  1  0
 11 43  1  0
 12 44  1  0
 16 45  1  1
 17 46  1  0
 17 47  1  0
 17 48  1  0
 18 49  1  0
 18 50  1  0
 18 51  1  0
 19 52  1  0
 19 53  1  0
 20 54  1  0
 20 55  1  0
 21 56  1  0
 21 57  1  0
 22 58  1  6
 23 59  1  0
 24 60  1  0
 24 61  1  0
 25 62  1  1
 26 63  1  0
 27 64  1  0
 27 65  1  0
M  CHG  1  30  -1
M  END
>  <score>  (7) 
-8.068

$$$$
=
     RDKit          3D

 65 66  0  0  0  0  0  0  0  0999 V2000
    2.4130   59.8360   72.5410 C   0  0  1  0  0  0  0  0  0  0  0  0
    3.7030   60.2660   73.2370 C   0  0  0  0  0  0  0  0  0  0  0  0
    3.8570   59.5320   74.5710 C   0  0  1  0  0  0  0  0  0  0  0  0
    2.5830   59.4440   75.3530 C   0  0  0  0  0  0  0  0  0  0  0  0
    1.3800   59.7760   74.8530 C   0  0  0  0  0  0  0  0  0  0  0  0
    1.1610   60.1870   73.3920 C   0  0  1  0  0  0  0  0  0  0  0  0
    0.6080   61.6510   73.4470 C   0  0  2  0  0  0  0  0  0  0  0  0
   -0.7870   61.6200   74.1760 C   0  0  2  0  0  0  0  0  0  0  0  0
   -0.7710   60.7390   75.4120 C   0  0  0  0  0  0  0  0  0  0  0  0
    0.2260   59.8970   75.7170 C   0  0  0  0  0  0  0  0  0  0  0  0
   -1.9510   61.1590   73.2870 C   0  0  0  0  0  0  0  0  0  0  0  0
    4.3300   58.2050   74.3520 O   0  0  0  0  0  0  0  0  0  0  0  0
    2.4060   60.3850   71.2150 O   0  0  0  0  0  0  0  0  0  0  0  0
    3.3870   59.9640   70.3720 C   0  0  0  0  0  0  0  0  0  0  0  0
    3.8220   58.8210   70.3080 O   0  0  0  0  0  0  0  0  0  0  0  0
    3.8840   61.1290   69.5360 C   0  0  1  0  0  0  0  0  0  0  0  0
    2.6810   61.9330   69.0550 C   0  0  0  0  0  0  0  0  0  0  0  0
    4.4220   63.4000   70.5710 C   0  0  0  0  0  0  0  0  0  0  0  0
    4.8800   61.9660   70.3530 C   0  0  0  0  0  0  0  0  0  0  0  0
    0.5760   62.4170   72.1100 C   0  0  0  0  0  0  0  0  0  0  0  0
    1.0640   63.8780   72.1570 C   0  0  0  0  0  0  0  0  0  0  0  0
    0.2060   64.8660   71.3500 C   0  0  1  0  0  0  0  0  0  0  0  0
   -0.3420   65.8120   72.2680 O   0  0  0  0  0  0  0  0  0  0  0  0
    1.0550   65.5960   70.2900 C   0  0  0  0  0  0  0  0  0  0  0  0
    0.3380   66.7830   69.6170 C   0  0  1  0  0  0  0  0  0  0  0  0
    1.3320   67.5840   68.9490 O   0  0  0  0  0  0  0  0  0  0  0  0
   -0.7450   66.4460   68.6070 C   0  0  0  0  0  0  0  0  0  0  0  0
   -0.5170   67.3050   67.3780 C   0  0  0  0  0  0  0  0  0  0  0  0
   -1.0510   68.4470   67.4010 O   0  0  0  0  0  0  0  0  0  0  0  0
    0.1610   66.7430   66.4680 O   0  0  0  0  0  1  0  0  0  0  0  0
    2.3712   58.7411   72.4434 H   0  0  0  0  0  0  0  0  0  0  0  0
    4.5607   60.0279   72.5907 H   0  0  0  0  0  0  0  0  0  0  0  0
    3.6633   61.3488   73.4269 H   0  0  0  0  0  0  0  0  0  0  0  0
    4.5767   60.1242   75.1553 H   0  0  0  0  0  0  0  0  0  0  0  0
    2.6342   59.0885   76.3927 H   0  0  0  0  0  0  0  0  0  0  0  0
    0.4011   59.6241   72.8301 H   0  0  0  0  0  0  0  0  0  0  0  0
    1.3313   62.2487   74.0211 H   0  0  0  0  0  0  0  0  0  0  0  0
   -0.9561   62.6708   74.4540 H   0  0  0  0  0  0  0  0  0  0  0  0
   -1.6289   60.7950   76.0982 H   0  0  0  0  0  0  0  0  0  0  0  0
    0.1663   59.2918   76.6336 H   0  0  0  0  0  0  0  0  0  0  0  0
   -2.7872   60.8278   73.9203 H   0  0  0  0  0  0  0  0  0  0  0  0
   -2.2805   61.9945   72.6519 H   0  0  0  0  0  0  0  0  0  0  0  0
   -1.6191   60.3244   72.6519 H   0  0  0  0  0  0  0  0  0  0  0  0
    4.4876   57.7628   75.2236 H   0  0  0  0  0  0  0  0  0  0  0  0
    4.4266   60.7761   68.6466 H   0  0  0  0  0  0  0  0  0  0  0  0
    2.1197   62.3081   69.9235 H   0  0  0  0  0  0  0  0  0  0  0  0
    3.0268   62.7822   68.4473 H   0  0  0  0  0  0  0  0  0  0  0  0
    2.0287   61.2887   68.4473 H   0  0  0  0  0  0  0  0  0  0  0  0
    4.3568   63.6041   71.6499 H   0  0  0  0  0  0  0  0  0  0  0  0
    5.1446   64.0897   70.1104 H   0  0  0  0  0  0  0  0  0  0  0  0
    3.4334   63.5432   70.1104 H   0  0  0  0  0  0  0  0  0  0  0  0
    5.8418   61.9837   69.8194 H   0  0  0  0  0  0  0  0  0  0  0  0
    4.9652   61.4963   71.3440 H   0  0  0  0  0  0  0  0  0  0  0  0
    1.2107   61.8729   71.3951 H   0  0  0  0  0  0  0  0  0  0  0  0
   -0.4845   62.4675   71.8223 H   0  0  0  0  0  0  0  0  0  0  0  0
    1.0673   64.2049   73.2073 H   0  0  0  0  0  0  0  0  0  0  0  0
    2.0640   63.8874   71.6989 H   0  0  0  0  0  0  0  0  0  0  0  0
   -0.5914   64.3231   70.8214 H   0  0  0  0  0  0  0  0  0  0  0  0
   -0.1678   65.5113   73.1950 H   0  0  0  0  0  0  0  0  0  0  0  0
    1.9657   65.9741   70.7775 H   0  0  0  0  0  0  0  0  0  0  0  0
    1.2696   64.8645   69.4970 H   0  0  0  0  0  0  0  0  0  0  0  0
   -0.1849   67.2989   70.4358 H   0  0  0  0  0  0  0  0  0  0  0  0
    1.8966   68.0390   69.6230 H   0  0  0  0  0  0  0  0  0  0  0  0
   -0.6855   65.3816   68.3358 H   0  0  0  0  0  0  0  0  0  0  0  0
   -1.7406   66.6406   69.0322 H   0  0  0  0  0  0  0  0  0  0  0  0
  2  1  1  0
  3  2  1  0
  4  3  1  0
  5  4  2  0
  6  5  1  0
  6  1  1  0
  7  6  1  0
  8  7  1  0
  9  8  1  0
 10  9  2  0
 10  5  1  0
 11  8  1  0
 12  3  1  0
 13  1  1  0
 14 13  1  0
 15 14  2  0
 16 14  1  0
 17 16  1  0
 19 18  1  0
 19 16  1  0
 20  7  1  0
 21 20  1  0
 22 21  1  0
 23 22  1  0
 24 22  1  0
 25 24  1  0
 26 25  1  0
 27 25  1  0
 28 27  1  0
 29 28  2  0
 30 28  1  0
  1 31  1  6
  2 32  1  0
  2 33  1  0
  3 34  1  1
  4 35  1  0
  6 36  1  6
  7 37  1  1
  8 38  1  1
  9 39  1  0
 10 40  1  0
 11 41  1  0
 11 42  1  0
 11 43  1  0
 12 44  1  0
 16 45  1  6
 17 46  1  0
 17 47  1  0
 17 48  1  0
 18 49  1  0
 18 50  1  0
 18 51  1  0
 19 52  1  0
 19 53  1  0
 20 54  1  0
 20 55  1  0
 21 56  1  0
 21 57  1  0
 22 58  1  6
 23 59  1  0
 24 60  1  0
 24 61  1  0
 25 62  1  1
 26 63  1  0
 27 64  1  0
 27 65  1  0
M  CHG  1  30  -1
M  END
>  <score>  (8) 
-8.029

$$$$
=
     RDKit          3D

 65 66  0  0  0  0  0  0  0  0999 V2000
    2.6480   60.6640   73.2600 C   0  0  1  0  0  0  0  0  0  0  0  0
    1.5040   59.6570   73.1670 C   0  0  0  0  0  0  0  0  0  0  0  0
    1.9960   58.3470   72.5500 C   0  0  1  0  0  0  0  0  0  0  0  0
    2.9080   58.5470   71.3790 C   0  0  0  0  0  0  0  0  0  0  0  0
    3.4220   59.7400   71.0320 C   0  0  0  0  0  0  0  0  0  0  0  0
    3.2140   61.0160   71.8560 C   0  0  1  0  0  0  0  0  0  0  0  0
    2.4590   62.0070   70.9090 C   0  0  2  0  0  0  0  0  0  0  0  0
    3.4040   62.3400   69.6950 C   0  0  2  0  0  0  0  0  0  0  0  0
    4.0970   61.1040   69.1480 C   0  0  0  0  0  0  0  0  0  0  0  0
    4.0990   59.9150   69.7660 C   0  0  0  0  0  0  0  0  0  0  0  0
    4.4870   63.3830   70.0080 C   0  0  0  0  0  0  0  0  0  0  0  0
    2.6940   57.5750   73.5230 O   0  0  0  0  0  0  0  0  0  0  0  0
    2.2030   61.7940   74.0230 O   0  0  0  0  0  0  0  0  0  0  0  0
    1.8050   61.5510   75.3020 C   0  0  0  0  0  0  0  0  0  0  0  0
    2.2850   60.7020   76.0430 O   0  0  0  0  0  0  0  0  0  0  0  0
    0.6570   62.4740   75.6690 C   0  0  1  0  0  0  0  0  0  0  0  0
    0.9860   63.8810   75.1810 C   0  0  0  0  0  0  0  0  0  0  0  0
   -1.8900   62.4050   75.8340 C   0  0  0  0  0  0  0  0  0  0  0  0
   -0.6550   61.9260   75.0860 C   0  0  0  0  0  0  0  0  0  0  0  0
    1.8630   63.2640   71.5740 C   0  0  0  0  0  0  0  0  0  0  0  0
    0.3620   63.5130   71.3240 C   0  0  0  0  0  0  0  0  0  0  0  0
    0.0080   64.9600   70.9460 C   0  0  1  0  0  0  0  0  0  0  0  0
   -0.3150   65.6540   72.1520 O   0  0  0  0  0  0  0  0  0  0  0  0
    1.1940   65.6530   70.2450 C   0  0  0  0  0  0  0  0  0  0  0  0
    0.7870   66.8180   69.3220 C   0  0  1  0  0  0  0  0  0  0  0  0
    1.7200   66.8670   68.2260 O   0  0  0  0  0  0  0  0  0  0  0  0
   -0.6150   66.7710   68.7380 C   0  0  0  0  0  0  0  0  0  0  0  0
   -0.5810   67.4720   67.3940 C   0  0  0  0  0  0  0  0  0  0  0  0
   -0.4000   66.7280   66.3930 O   0  0  0  0  0  0  0  0  0  0  0  0
   -0.7070   68.7300   67.4590 O   0  0  0  0  0  1  0  0  0  0  0  0
    3.5051   60.2266   73.7929 H   0  0  0  0  0  0  0  0  0  0  0  0
    1.1131   59.4582   74.1758 H   0  0  0  0  0  0  0  0  0  0  0  0
    0.7108   60.0757   72.5302 H   0  0  0  0  0  0  0  0  0  0  0  0
    1.0937   57.8265   72.1965 H   0  0  0  0  0  0  0  0  0  0  0  0
    3.1717   57.6701   70.7696 H   0  0  0  0  0  0  0  0  0  0  0  0
    4.1208   61.5587   72.1612 H   0  0  0  0  0  0  0  0  0  0  0  0
    1.5500   61.4933   70.5628 H   0  0  0  0  0  0  0  0  0  0  0  0
    2.7194   62.7624   68.9447 H   0  0  0  0  0  0  0  0  0  0  0  0
    4.6282   61.1899   68.1886 H   0  0  0  0  0  0  0  0  0  0  0  0
    4.6210   59.0632   69.3056 H   0  0  0  0  0  0  0  0  0  0  0  0
    4.5933   63.4854   71.0981 H   0  0  0  0  0  0  0  0  0  0  0  0
    5.4447   63.0584   69.5751 H   0  0  0  0  0  0  0  0  0  0  0  0
    4.1987   64.3522   69.5751 H   0  0  0  0  0  0  0  0  0  0  0  0
    2.4282   57.8690   74.4302 H   0  0  0  0  0  0  0  0  0  0  0  0
    0.5201   62.5227   76.7594 H   0  0  0  0  0  0  0  0  0  0  0  0
    1.1407   64.5424   76.0462 H   0  0  0  0  0  0  0  0  0  0  0  0
    1.9019   63.8532   74.5724 H   0  0  0  0  0  0  0  0  0  0  0  0
    0.1528   64.2622   74.5724 H   0  0  0  0  0  0  0  0  0  0  0  0
   -1.7122   62.3361   76.9173 H   0  0  0  0  0  0  0  0  0  0  0  0
   -2.1006   63.4500   75.5628 H   0  0  0  0  0  0  0  0  0  0  0  0
   -2.7502   61.7753   75.5628 H   0  0  0  0  0  0  0  0  0  0  0  0
   -0.6246   60.8273   75.1290 H   0  0  0  0  0  0  0  0  0  0  0  0
   -0.7339   62.2973   74.0536 H   0  0  0  0  0  0  0  0  0  0  0  0
    2.0130   63.1735   72.6600 H   0  0  0  0  0  0  0  0  0  0  0  0
    2.3855   64.1175   71.1173 H   0  0  0  0  0  0  0  0  0  0  0  0
    0.0368   62.8550   70.5047 H   0  0  0  0  0  0  0  0  0  0  0  0
   -0.1512   63.3045   72.2743 H   0  0  0  0  0  0  0  0  0  0  0  0
   -0.8417   64.9669   70.2475 H   0  0  0  0  0  0  0  0  0  0  0  0
   -0.0571   65.0999   72.9308 H   0  0  0  0  0  0  0  0  0  0  0  0
    1.8708   66.0454   71.0183 H   0  0  0  0  0  0  0  0  0  0  0  0
    1.6715   64.8950   69.6067 H   0  0  0  0  0  0  0  0  0  0  0  0
    0.7997   67.7082   69.9681 H   0  0  0  0  0  0  0  0  0  0  0  0
    2.6431   66.9155   68.5804 H   0  0  0  0  0  0  0  0  0  0  0  0
   -0.9309   65.7255   68.6068 H   0  0  0  0  0  0  0  0  0  0  0  0
   -1.3288   67.2670   69.4121 H   0  0  0  0  0  0  0  0  0  0  0  0
  2  1  1  0
  3  2  1  0
  4  3  1  0
  5  4  2  0
  6  5  1  0
  6  1  1  0
  7  6  1  0
  8  7  1  0
  9  8  1  0
 10  9  2  0
 10  5  1  0
 11  8  1  0
 12  3  1  0
 13  1  1  0
 14 13  1  0
 15 14  2  0
 16 14  1  0
 17 16  1  0
 19 18  1  0
 19 16  1  0
 20  7  1  0
 21 20  1  0
 22 21  1  0
 23 22  1  0
 24 22  1  0
 25 24  1  0
 26 25  1  0
 27 25  1  0
 28 27  1  0
 29 28  2  0
 30 28  1  0
  1 31  1  1
  2 32  1  0
  2 33  1  0
  3 34  1  6
  4 35  1  0
  6 36  1  1
  7 37  1  6
  8 38  1  6
  9 39  1  0
 10 40  1  0
 11 41  1  0
 11 42  1  0
 11 43  1  0
 12 44  1  0
 16 45  1  1
 17 46  1  0
 17 47  1  0
 17 48  1  0
 18 49  1  0
 18 50  1  0
 18 51  1  0
 19 52  1  0
 19 53  1  0
 20 54  1  0
 20 55  1  0
 21 56  1  0
 21 57  1  0
 22 58  1  6
 23 59  1  0
 24 60  1  0
 24 61  1  0
 25 62  1  1
 26 63  1  0
 27 64  1  0
 27 65  1  0
M  CHG  1  30  -1
M  END
>  <score>  (9) 
-7.879

$$$$
