=
     RDKit          3D

 55 57  0  0  0  0  0  0  0  0999 V2000
    0.0410   65.0490   71.5350 N   0  0  0  0  0  0  0  0  0  0  0  0
    0.2760   65.9180   70.4580 C   0  0  0  0  0  0  0  0  0  0  0  0
   -0.7200   66.0280   69.4730 C   0  0  0  0  0  0  0  0  0  0  0  0
   -0.5350   66.8050   68.3220 C   0  0  0  0  0  0  0  0  0  0  0  0
    0.6720   67.4790   68.1250 C   0  0  0  0  0  0  0  0  0  0  0  0
    1.6750   67.3750   69.0920 C   0  0  0  0  0  0  0  0  0  0  0  0
    1.4820   66.5900   70.2350 C   0  0  0  0  0  0  0  0  0  0  0  0
    0.9390   68.3150   66.9210 C   0  0  0  0  0  0  0  0  0  0  0  0
    0.0290   68.9930   66.4560 O   0  0  0  0  0  0  0  0  0  0  0  0
    2.2150   68.2620   66.4400 N   0  0  0  0  0  0  0  0  0  0  0  0
    2.7600   69.0450   65.3020 C   0  0  2  0  0  0  0  0  0  0  0  0
    2.7540   68.1350   64.0160 C   0  0  0  0  0  0  0  0  0  0  0  0
    1.7600   68.2390   63.2430 O   0  0  0  0  0  0  0  0  0  0  0  0
    3.7320   67.3150   63.9580 O   0  0  0  0  0  1  0  0  0  0  0  0
    4.1890   69.5050   65.6500 C   0  0  0  0  0  0  0  0  0  0  0  0
    4.3930   69.8590   67.1240 C   0  0  0  0  0  0  0  0  0  0  0  0
    5.6940   70.6080   67.4500 C   0  0  0  0  0  0  0  0  0  0  0  0
    5.5890   71.7370   68.0120 O   0  0  0  0  0  0  0  0  0  0  0  0
    6.7550   70.0000   67.1140 O   0  0  0  0  0  1  0  0  0  0  0  0
    0.4490   63.6460   71.4400 C   0  0  0  0  0  0  0  0  0  0  0  0
    4.9230   63.3910   70.2960 O   0  0  0  0  0  0  0  0  0  0  0  0
    3.8130   63.7140   70.6960 C   0  0  0  0  0  0  0  0  0  0  0  0
    2.8310   62.8760   71.1980 N   0  0  0  0  0  0  0  0  0  0  0  0
    1.8190   63.4360   72.1260 C   0  0  2  0  0  0  0  0  0  0  0  0
    1.6690   62.5340   73.3720 C   0  0  0  0  0  0  0  0  0  0  0  0
    1.5040   61.1370   72.9700 N   0  0  0  0  0  0  0  0  0  0  0  0
    2.2210   60.6470   71.8850 C   0  0  0  0  0  0  0  0  0  0  0  0
    2.8730   61.4850   71.0360 C   0  0  0  0  0  0  0  0  0  0  0  0
    3.5340   60.8290   69.8320 C   0  0  0  0  0  0  0  0  0  0  0  0
    3.6630   61.4420   68.7780 O   0  0  0  0  0  0  0  0  0  0  0  0
    3.8840   59.4930   69.9450 N   0  0  0  0  0  0  0  0  0  0  0  0
    3.2330   58.7970   70.8120 C   0  0  0  0  0  0  0  0  0  0  0  0
    2.3200   59.2940   71.6820 N   0  0  0  0  0  0  0  0  0  0  0  0
    3.4340   57.4610   70.9350 N   0  0  0  0  0  0  0  0  0  0  0  0
   -0.4170   65.3972   72.3894 H   0  0  0  0  0  0  0  0  0  0  0  0
   -1.6698   65.4900   69.6092 H   0  0  0  0  0  0  0  0  0  0  0  0
   -1.3387   66.8840   67.5752 H   0  0  0  0  0  0  0  0  0  0  0  0
    2.6238   67.9142   68.9542 H   0  0  0  0  0  0  0  0  0  0  0  0
    2.2941   66.5001   70.9714 H   0  0  0  0  0  0  0  0  0  0  0  0
    2.8633   67.6159   66.9124 H   0  0  0  0  0  0  0  0  0  0  0  0
    2.1451   69.9361   65.1077 H   0  0  0  0  0  0  0  0  0  0  0  0
    4.8852   68.6938   65.3906 H   0  0  0  0  0  0  0  0  0  0  0  0
    4.3732   70.4250   65.0759 H   0  0  0  0  0  0  0  0  0  0  0  0
    3.5498   70.4905   67.4408 H   0  0  0  0  0  0  0  0  0  0  0  0
    4.4542   68.9000   67.6594 H   0  0  0  0  0  0  0  0  0  0  0  0
   -0.3044   63.0151   71.9342 H   0  0  0  0  0  0  0  0  0  0  0  0
    0.5351   63.3703   70.3786 H   0  0  0  0  0  0  0  0  0  0  0  0
    3.5683   64.7856   70.6523 H   0  0  0  0  0  0  0  0  0  0  0  0
    2.1794   64.4262   72.4417 H   0  0  0  0  0  0  0  0  0  0  0  0
    2.5684   62.6277   73.9983 H   0  0  0  0  0  0  0  0  0  0  0  0
    0.7809   62.8508   73.9385 H   0  0  0  0  0  0  0  0  0  0  0  0
    0.8609   60.5209   73.4875 H   0  0  0  0  0  0  0  0  0  0  0  0
    1.6973   58.6523   72.1933 H   0  0  0  0  0  0  0  0  0  0  0  0
    2.9033   56.9226   71.6345 H   0  0  0  0  0  0  0  0  0  0  0  0
    4.1174   56.9851   70.3289 H   0  0  0  0  0  0  0  0  0  0  0  0
  2  1  1  0
  3  2  2  0
  4  3  1  0
  5  4  2  0
  6  5  1  0
  7  6  2  0
  7  2  1  0
  8  5  1  0
  9  8  2  0
 10  8  1  0
 11 10  1  0
 12 11  1  0
 13 12  2  0
 14 12  1  0
 15 11  1  0
 16 15  1  0
 17 16  1  0
 18 17  2  0
 19 17  1  0
 20  1  1  0
 22 21  2  0
 23 22  1  0
 24 23  1  0
 24 20  1  0
 25 24  1  0
 26 25  1  0
 27 26  1  0
 28 27  2  0
 28 23  1  0
 29 28  1  0
 30 29  2  0
 31 29  1  0
 32 31  2  0
 33 32  1  0
 33 27  1  0
 34 32  1  0
  1 35  1  0
  3 36  1  0
  4 37  1  0
  6 38  1  0
  7 39  1  0
 10 40  1  0
 11 41  1  6
 15 42  1  0
 15 43  1  0
 16 44  1  0
 16 45  1  0
 20 46  1  0
 20 47  1  0
 22 48  1  0
 24 49  1  1
 25 50  1  0
 25 51  1  0
 26 52  1  0
 33 53  1  0
 34 54  1  0
 34 55  1  0
M  CHG  2  14  -1  19  -1
M  END
>  <score>  (1) 
-10.101

$$$$
=
     RDKit          3D

 55 57  0  0  0  0  0  0  0  0999 V2000
    1.2930   63.4150   73.6000 N   0  0  0  0  0  0  0  0  0  0  0  0
    0.9100   64.1650   72.4760 C   0  0  0  0  0  0  0  0  0  0  0  0
    1.5650   63.9060   71.2600 C   0  0  0  0  0  0  0  0  0  0  0  0
    1.3060   64.6640   70.1100 C   0  0  0  0  0  0  0  0  0  0  0  0
    0.3920   65.7180   70.1620 C   0  0  0  0  0  0  0  0  0  0  0  0
   -0.2630   65.9910   71.3650 C   0  0  0  0  0  0  0  0  0  0  0  0
    0.0080   65.2330   72.5110 C   0  0  0  0  0  0  0  0  0  0  0  0
    0.0760   66.5680   68.9800 C   0  0  0  0  0  0  0  0  0  0  0  0
   -1.0470   66.5130   68.4920 O   0  0  0  0  0  0  0  0  0  0  0  0
    1.0930   67.3670   68.5440 N   0  0  0  0  0  0  0  0  0  0  0  0
    1.0230   68.3550   67.4370 C   0  0  2  0  0  0  0  0  0  0  0  0
    0.7030   67.5890   66.0980 C   0  0  0  0  0  0  0  0  0  0  0  0
    1.4420   66.6070   65.8060 O   0  0  0  0  0  0  0  0  0  0  0  0
   -0.2270   68.1250   65.4050 O   0  0  0  0  0  1  0  0  0  0  0  0
    2.3690   69.0990   67.3430 C   0  0  0  0  0  0  0  0  0  0  0  0
    2.6160   70.0950   68.4780 C   0  0  0  0  0  0  0  0  0  0  0  0
    4.0840   70.4820   68.7100 C   0  0  0  0  0  0  0  0  0  0  0  0
    4.4830   70.5570   69.9080 O   0  0  0  0  0  0  0  0  0  0  0  0
    4.7520   70.6880   67.6510 O   0  0  0  0  0  1  0  0  0  0  0  0
    1.4230   61.9610   73.4940 C   0  0  0  0  0  0  0  0  0  0  0  0
    5.3690   61.8960   71.0820 O   0  0  0  0  0  0  0  0  0  0  0  0
    4.4480   62.1310   71.8520 C   0  0  0  0  0  0  0  0  0  0  0  0
    3.5580   61.2170   72.3910 N   0  0  0  0  0  0  0  0  0  0  0  0
    2.8990   61.5360   73.6810 C   0  0  2  0  0  0  0  0  0  0  0  0
    2.9990   60.3390   74.6520 C   0  0  0  0  0  0  0  0  0  0  0  0
    2.5890   59.1060   73.9810 N   0  0  0  0  0  0  0  0  0  0  0  0
    2.9310   58.9030   72.6480 C   0  0  0  0  0  0  0  0  0  0  0  0
    3.4110   59.9200   71.8840 C   0  0  0  0  0  0  0  0  0  0  0  0
    3.6510   59.5920   70.4170 C   0  0  0  0  0  0  0  0  0  0  0  0
    3.5520   60.4610   69.5570 O   0  0  0  0  0  0  0  0  0  0  0  0
    3.8780   58.2650   70.0890 N   0  0  0  0  0  0  0  0  0  0  0  0
    3.4180   57.3810   70.9050 C   0  0  0  0  0  0  0  0  0  0  0  0
    2.8320   57.6520   72.0970 N   0  0  0  0  0  0  0  0  0  0  0  0
    3.5070   56.0550   70.6290 N   0  0  0  0  0  0  0  0  0  0  0  0
    1.4818   63.8867   74.4960 H   0  0  0  0  0  0  0  0  0  0  0  0
    2.2990   63.0883   71.2095 H   0  0  0  0  0  0  0  0  0  0  0  0
    1.8222   64.4288   69.1676 H   0  0  0  0  0  0  0  0  0  0  0  0
   -0.9978   66.8082   71.4127 H   0  0  0  0  0  0  0  0  0  0  0  0
   -0.4977   65.4822   73.4555 H   0  0  0  0  0  0  0  0  0  0  0  0
    1.9967   67.2761   69.0297 H   0  0  0  0  0  0  0  0  0  0  0  0
    0.2294   69.0943   67.6202 H   0  0  0  0  0  0  0  0  0  0  0  0
    3.1772   68.3529   67.3568 H   0  0  0  0  0  0  0  0  0  0  0  0
    2.3432   69.6823   66.4108 H   0  0  0  0  0  0  0  0  0  0  0  0
    2.0552   71.0136   68.2509 H   0  0  0  0  0  0  0  0  0  0  0  0
    2.2873   69.5912   69.3989 H   0  0  0  0  0  0  0  0  0  0  0  0
    0.8074   61.4845   74.2712 H   0  0  0  0  0  0  0  0  0  0  0  0
    1.0843   61.6444   72.4965 H   0  0  0  0  0  0  0  0  0  0  0  0
    4.3120   63.1816   72.1483 H   0  0  0  0  0  0  0  0  0  0  0  0
    3.4327   62.3943   74.1152 H   0  0  0  0  0  0  0  0  0  0  0  0
    4.0388   60.2365   74.9959 H   0  0  0  0  0  0  0  0  0  0  0  0
    2.3343   60.5176   75.5101 H   0  0  0  0  0  0  0  0  0  0  0  0
    2.0503   58.3923   74.4922 H   0  0  0  0  0  0  0  0  0  0  0  0
    2.3099   56.9142   72.5909 H   0  0  0  0  0  0  0  0  0  0  0  0
    3.1328   55.3641   71.2950 H   0  0  0  0  0  0  0  0  0  0  0  0
    3.9487   55.7397   69.7536 H   0  0  0  0  0  0  0  0  0  0  0  0
  2  1  1  0
  3  2  2  0
  4  3  1  0
  5  4  2  0
  6  5  1  0
  7  6  2  0
  7  2  1  0
  8  5  1  0
  9  8  2  0
 10  8  1  0
 11 10  1  0
 12 11  1  0
 13 12  2  0
 14 12  1  0
 15 11  1  0
 16 15  1  0
 17 16  1  0
 18 17  2  0
 19 17  1  0
 20  1  1  0
 22 21  2  0
 23 22  1  0
 24 23  1  0
 24 20  1  0
 25 24  1  0
 26 25  1  0
 27 26  1  0
 28 27  2  0
 28 23  1  0
 29 28  1  0
 30 29  2  0
 31 29  1  0
 32 31  2  0
 33 32  1  0
 33 27  1  0
 34 32  1  0
  1 35  1  0
  3 36  1  0
  4 37  1  0
  6 38  1  0
  7 39  1  0
 10 40  1  0
 11 41  1  1
 15 42  1  0
 15 43  1  0
 16 44  1  0
 16 45  1  0
 20 46  1  0
 20 47  1  0
 22 48  1  0
 24 49  1  1
 25 50  1  0
 25 51  1  0
 26 52  1  0
 33 53  1  0
 34 54  1  0
 34 55  1  0
M  CHG  2  14  -1  19  -1
M  END
>  <score>  (2) 
-9.881

$$$$
=
     RDKit          3D

 55 57  0  0  0  0  0  0  0  0999 V2000
    1.2630   61.8970   72.3730 N   0  0  0  0  0  0  0  0  0  0  0  0
    1.2740   63.1240   71.6900 C   0  0  0  0  0  0  0  0  0  0  0  0
    0.2650   64.0530   71.9920 C   0  0  0  0  0  0  0  0  0  0  0  0
    0.1500   65.2660   71.2990 C   0  0  0  0  0  0  0  0  0  0  0  0
    1.0410   65.5640   70.2670 C   0  0  0  0  0  0  0  0  0  0  0  0
    2.0470   64.6480   69.9500 C   0  0  0  0  0  0  0  0  0  0  0  0
    2.1490   63.4350   70.6440 C   0  0  0  0  0  0  0  0  0  0  0  0
    0.9710   66.8300   69.4840 C   0  0  0  0  0  0  0  0  0  0  0  0
    1.7670   67.7280   69.7360 O   0  0  0  0  0  0  0  0  0  0  0  0
    0.0080   66.8700   68.5180 N   0  0  0  0  0  0  0  0  0  0  0  0
   -0.2290   67.9770   67.5570 C   0  0  2  0  0  0  0  0  0  0  0  0
   -1.7120   67.8810   67.0330 C   0  0  0  0  0  0  0  0  0  0  0  0
   -2.5600   67.3470   67.8030 O   0  0  0  0  0  0  0  0  0  0  0  0
   -1.8620   68.2770   65.8280 O   0  0  0  0  0  1  0  0  0  0  0  0
    0.7780   67.8590   66.3970 C   0  0  0  0  0  0  0  0  0  0  0  0
    1.8340   68.9650   66.3670 C   0  0  0  0  0  0  0  0  0  0  0  0
    2.7720   68.9510   65.1510 C   0  0  0  0  0  0  0  0  0  0  0  0
    2.2860   68.5770   64.0450 O   0  0  0  0  0  0  0  0  0  0  0  0
    3.9600   69.3260   65.3930 O   0  0  0  0  0  1  0  0  0  0  0  0
    1.5720   61.8590   73.8040 C   0  0  0  0  0  0  0  0  0  0  0  0
    5.6250   61.5750   71.5940 O   0  0  0  0  0  0  0  0  0  0  0  0
    4.6870   61.8470   72.3320 C   0  0  0  0  0  0  0  0  0  0  0  0
    3.6880   60.9880   72.7610 N   0  0  0  0  0  0  0  0  0  0  0  0
    2.9890   61.2850   74.0340 C   0  0  2  0  0  0  0  0  0  0  0  0
    2.9250   60.0240   74.9250 C   0  0  0  0  0  0  0  0  0  0  0  0
    2.4430   58.8810   74.1500 N   0  0  0  0  0  0  0  0  0  0  0  0
    2.8390   58.7330   72.8260 C   0  0  0  0  0  0  0  0  0  0  0  0
    3.4520   59.7460   72.1580 C   0  0  0  0  0  0  0  0  0  0  0  0
    3.7430   59.4910   70.6870 C   0  0  0  0  0  0  0  0  0  0  0  0
    3.7730   60.4190   69.8850 O   0  0  0  0  0  0  0  0  0  0  0  0
    3.8660   58.1730   70.2790 N   0  0  0  0  0  0  0  0  0  0  0  0
    3.2820   57.2860   71.0080 C   0  0  0  0  0  0  0  0  0  0  0  0
    2.6570   57.5350   72.1850 N   0  0  0  0  0  0  0  0  0  0  0  0
    3.2650   55.9780   70.6460 N   0  0  0  0  0  0  0  0  0  0  0  0
    1.0384   61.0270   71.8694 H   0  0  0  0  0  0  0  0  0  0  0  0
   -0.4533   63.8229   72.7927 H   0  0  0  0  0  0  0  0  0  0  0  0
   -0.6409   65.9816   71.5680 H   0  0  0  0  0  0  0  0  0  0  0  0
    2.7646   64.8808   69.1494 H   0  0  0  0  0  0  0  0  0  0  0  0
    2.9309   62.7147   70.3613 H   0  0  0  0  0  0  0  0  0  0  0  0
   -0.6151   66.0528   68.4487 H   0  0  0  0  0  0  0  0  0  0  0  0
   -0.0875   68.9541   68.0420 H   0  0  0  0  0  0  0  0  0  0  0  0
    1.2943   66.8917   66.4857 H   0  0  0  0  0  0  0  0  0  0  0  0
    0.1991   67.9501   65.4661 H   0  0  0  0  0  0  0  0  0  0  0  0
    1.3115   69.9329   66.3808 H   0  0  0  0  0  0  0  0  0  0  0  0
    2.4749   68.7944   67.2446 H   0  0  0  0  0  0  0  0  0  0  0  0
    1.5234   62.8792   74.2126 H   0  0  0  0  0  0  0  0  0  0  0  0
    0.8390   61.2139   74.3105 H   0  0  0  0  0  0  0  0  0  0  0  0
    4.6312   62.8845   72.6933 H   0  0  0  0  0  0  0  0  0  0  0  0
    3.5733   62.0599   74.5517 H   0  0  0  0  0  0  0  0  0  0  0  0
    3.9301   59.8019   75.3129 H   0  0  0  0  0  0  0  0  0  0  0  0
    2.2325   60.2092   75.7594 H   0  0  0  0  0  0  0  0  0  0  0  0
    1.8138   58.1899   74.5829 H   0  0  0  0  0  0  0  0  0  0  0  0
    2.0422   56.8203   72.5998 H   0  0  0  0  0  0  0  0  0  0  0  0
    2.7924   55.2845   71.2432 H   0  0  0  0  0  0  0  0  0  0  0  0
    3.7247   55.6789   69.7741 H   0  0  0  0  0  0  0  0  0  0  0  0
  2  1  1  0
  3  2  2  0
  4  3  1  0
  5  4  2  0
  6  5  1  0
  7  6  2  0
  7  2  1  0
  8  5  1  0
  9  8  2  0
 10  8  1  0
 11 10  1  0
 12 11  1  0
 13 12  2  0
 14 12  1  0
 15 11  1  0
 16 15  1  0
 17 16  1  0
 18 17  2  0
 19 17  1  0
 20  1  1  0
 22 21  2  0
 23 22  1  0
 24 23  1  0
 24 20  1  0
 25 24  1  0
 26 25  1  0
 27 26  1  0
 28 27  2  0
 28 23  1  0
 29 28  1  0
 30 29  2  0
 31 29  1  0
 32 31  2  0
 33 32  1  0
 33 27  1  0
 34 32  1  0
  1 35  1  0
  3 36  1  0
  4 37  1  0
  6 38  1  0
  7 39  1  0
 10 40  1  0
 11 41  1  1
 15 42  1  0
 15 43  1  0
 16 44  1  0
 16 45  1  0
 20 46  1  0
 20 47  1  0
 22 48  1  0
 24 49  1  1
 25 50  1  0
 25 51  1  0
 26 52  1  0
 33 53  1  0
 34 54  1  0
 34 55  1  0
M  CHG  2  14  -1  19  -1
M  END
>  <score>  (3) 
-9.824

$$$$
=
     RDKit          3D

 55 57  0  0  0  0  0  0  0  0999 V2000
    1.0690   67.3170   69.5170 N   0  0  0  0  0  0  0  0  0  0  0  0
    1.0450   66.1350   70.2750 C   0  0  0  0  0  0  0  0  0  0  0  0
    2.0190   65.1600   70.0010 C   0  0  0  0  0  0  0  0  0  0  0  0
    2.0180   63.9180   70.6500 C   0  0  0  0  0  0  0  0  0  0  0  0
    1.0210   63.6190   71.5800 C   0  0  0  0  0  0  0  0  0  0  0  0
    0.0420   64.5760   71.8600 C   0  0  0  0  0  0  0  0  0  0  0  0
    0.0470   65.8120   71.2000 C   0  0  0  0  0  0  0  0  0  0  0  0
    0.9550   62.3160   72.2990 C   0  0  0  0  0  0  0  0  0  0  0  0
   -0.1410   61.8660   72.6140 O   0  0  0  0  0  0  0  0  0  0  0  0
    2.1570   61.7150   72.5350 N   0  0  0  0  0  0  0  0  0  0  0  0
    2.3690   60.3870   73.1670 C   0  0  2  0  0  0  0  0  0  0  0  0
    3.8630   60.2940   73.6560 C   0  0  0  0  0  0  0  0  0  0  0  0
    4.1320   59.4130   74.5200 O   0  0  0  0  0  0  0  0  0  0  0  0
    4.6210   61.2060   73.1790 O   0  0  0  0  0  1  0  0  0  0  0  0
    2.0520   59.2860   72.1370 C   0  0  0  0  0  0  0  0  0  0  0  0
    3.2520   58.8550   71.2910 C   0  0  0  0  0  0  0  0  0  0  0  0
    3.4220   59.5990   69.9580 C   0  0  0  0  0  0  0  0  0  0  0  0
    2.9590   60.7730   69.8840 O   0  0  0  0  0  0  0  0  0  0  0  0
    4.0230   58.9390   69.0550 O   0  0  0  0  0  1  0  0  0  0  0  0
    1.0680   67.2430   68.0550 C   0  0  0  0  0  0  0  0  0  0  0  0
   -0.3710   69.1010   64.0720 O   0  0  0  0  0  0  0  0  0  0  0  0
   -0.2490   68.6820   65.2150 C   0  0  0  0  0  0  0  0  0  0  0  0
    0.9140   68.6350   65.9660 N   0  0  0  0  0  0  0  0  0  0  0  0
    0.8110   68.6410   67.4450 C   0  0  2  0  0  0  0  0  0  0  0  0
    1.7770   69.6830   68.0510 C   0  0  0  0  0  0  0  0  0  0  0  0
    3.1140   69.5300   67.4770 N   0  0  0  0  0  0  0  0  0  0  0  0
    3.2490   69.2120   66.1300 C   0  0  0  0  0  0  0  0  0  0  0  0
    2.1850   68.7910   65.3970 C   0  0  0  0  0  0  0  0  0  0  0  0
    2.4870   68.3780   63.9640 C   0  0  0  0  0  0  0  0  0  0  0  0
    1.8080   67.5240   63.4020 O   0  0  0  0  0  0  0  0  0  0  0  0
    3.6120   68.9230   63.3660 N   0  0  0  0  0  0  0  0  0  0  0  0
    4.5450   69.3310   64.1550 C   0  0  0  0  0  0  0  0  0  0  0  0
    4.4610   69.3640   65.5070 N   0  0  0  0  0  0  0  0  0  0  0  0
    5.7240   69.7950   63.6690 N   0  0  0  0  0  0  0  0  0  0  0  0
    1.0872   68.2328   69.9881 H   0  0  0  0  0  0  0  0  0  0  0  0
    2.8014   65.3770   69.2589 H   0  0  0  0  0  0  0  0  0  0  0  0
    2.8021   63.1795   70.4268 H   0  0  0  0  0  0  0  0  0  0  0  0
   -0.7382   64.3574   72.6039 H   0  0  0  0  0  0  0  0  0  0  0  0
   -0.7483   66.5414   71.4132 H   0  0  0  0  0  0  0  0  0  0  0  0
    2.9997   62.2324   72.2469 H   0  0  0  0  0  0  0  0  0  0  0  0
    1.7048   60.2542   74.0337 H   0  0  0  0  0  0  0  0  0  0  0  0
    1.6770   58.4048   72.6782 H   0  0  0  0  0  0  0  0  0  0  0  0
    1.3101   59.7068   71.4424 H   0  0  0  0  0  0  0  0  0  0  0  0
    4.1623   59.0155   71.8873 H   0  0  0  0  0  0  0  0  0  0  0  0
    3.0741   57.8017   71.0287 H   0  0  0  0  0  0  0  0  0  0  0  0
    2.0440   66.8708   67.7102 H   0  0  0  0  0  0  0  0  0  0  0  0
    0.2680   66.5603   67.7326 H   0  0  0  0  0  0  0  0  0  0  0  0
   -1.1610   68.3017   65.6983 H   0  0  0  0  0  0  0  0  0  0  0  0
   -0.2222   68.9210   67.6981 H   0  0  0  0  0  0  0  0  0  0  0  0
    1.4025   70.6943   67.8341 H   0  0  0  0  0  0  0  0  0  0  0  0
    1.8345   69.5277   69.1385 H   0  0  0  0  0  0  0  0  0  0  0  0
    3.9492   69.6569   68.0663 H   0  0  0  0  0  0  0  0  0  0  0  0
    5.3122   69.5040   66.0698 H   0  0  0  0  0  0  0  0  0  0  0  0
    6.4573   70.1166   64.3169 H   0  0  0  0  0  0  0  0  0  0  0  0
    5.8856   69.8256   62.6522 H   0  0  0  0  0  0  0  0  0  0  0  0
  2  1  1  0
  3  2  2  0
  4  3  1  0
  5  4  2  0
  6  5  1  0
  7  6  2  0
  7  2  1  0
  8  5  1  0
  9  8  2  0
 10  8  1  0
 11 10  1  0
 12 11  1  0
 13 12  2  0
 14 12  1  0
 15 11  1  0
 16 15  1  0
 17 16  1  0
 18 17  2  0
 19 17  1  0
 20  1  1  0
 22 21  2  0
 23 22  1  0
 24 23  1  0
 24 20  1  0
 25 24  1  0
 26 25  1  0
 27 26  1  0
 28 27  2  0
 28 23  1  0
 29 28  1  0
 30 29  2  0
 31 29  1  0
 32 31  2  0
 33 32  1  0
 33 27  1  0
 34 32  1  0
  1 35  1  0
  3 36  1  0
  4 37  1  0
  6 38  1  0
  7 39  1  0
 10 40  1  0
 11 41  1  1
 15 42  1  0
 15 43  1  0
 16 44  1  0
 16 45  1  0
 20 46  1  0
 20 47  1  0
 22 48  1  0
 24 49  1  6
 25 50  1  0
 25 51  1  0
 26 52  1  0
 33 53  1  0
 34 54  1  0
 34 55  1  0
M  CHG  2  14  -1  19  -1
M  END
>  <score>  (4) 
-9.747

$$$$
=
     RDKit          3D

 55 57  0  0  0  0  0  0  0  0999 V2000
    0.7750   67.3230   69.1360 N   0  0  0  0  0  0  0  0  0  0  0  0
    0.9330   66.1680   69.9170 C   0  0  0  0  0  0  0  0  0  0  0  0
   -0.0180   65.9190   70.9210 C   0  0  0  0  0  0  0  0  0  0  0  0
    0.1080   64.8370   71.8020 C   0  0  0  0  0  0  0  0  0  0  0  0
    1.2100   63.9850   71.7040 C   0  0  0  0  0  0  0  0  0  0  0  0
    2.1670   64.2220   70.7140 C   0  0  0  0  0  0  0  0  0  0  0  0
    2.0360   65.3110   69.8440 C   0  0  0  0  0  0  0  0  0  0  0  0
    1.4110   62.8210   72.6130 C   0  0  0  0  0  0  0  0  0  0  0  0
    0.9850   62.8850   73.7610 O   0  0  0  0  0  0  0  0  0  0  0  0
    2.0550   61.7520   72.0630 N   0  0  0  0  0  0  0  0  0  0  0  0
    2.3200   60.4480   72.7240 C   0  0  2  0  0  0  0  0  0  0  0  0
    3.3400   60.6790   73.9020 C   0  0  0  0  0  0  0  0  0  0  0  0
    2.9250   60.4580   75.0750 O   0  0  0  0  0  0  0  0  0  0  0  0
    4.4610   61.1650   73.5280 O   0  0  0  0  0  1  0  0  0  0  0  0
    2.8870   59.4640   71.6840 C   0  0  0  0  0  0  0  0  0  0  0  0
    3.1590   60.0880   70.3130 C   0  0  0  0  0  0  0  0  0  0  0  0
    4.4490   60.9150   70.2080 C   0  0  0  0  0  0  0  0  0  0  0  0
    5.5320   60.3480   70.5330 O   0  0  0  0  0  0  0  0  0  0  0  0
    4.2850   62.1050   69.7970 O   0  0  0  0  0  1  0  0  0  0  0  0
    0.5840   67.2030   67.6890 C   0  0  0  0  0  0  0  0  0  0  0  0
    1.0440   69.1590   63.5230 O   0  0  0  0  0  0  0  0  0  0  0  0
    0.6460   68.6810   64.5770 C   0  0  0  0  0  0  0  0  0  0  0  0
    1.2940   68.7060   65.8010 N   0  0  0  0  0  0  0  0  0  0  0  0
    0.4850   68.6030   67.0400 C   0  0  2  0  0  0  0  0  0  0  0  0
    0.8960   69.6990   68.0490 C   0  0  0  0  0  0  0  0  0  0  0  0
    2.3500   69.7260   68.2020 N   0  0  0  0  0  0  0  0  0  0  0  0
    3.1620   69.5140   67.0930 C   0  0  0  0  0  0  0  0  0  0  0  0
    2.6500   69.0330   65.9300 C   0  0  0  0  0  0  0  0  0  0  0  0
    3.6590   68.7500   64.8270 C   0  0  0  0  0  0  0  0  0  0  0  0
    3.4510   67.8690   63.9990 O   0  0  0  0  0  0  0  0  0  0  0  0
    4.8550   69.4490   64.8610 N   0  0  0  0  0  0  0  0  0  0  0  0
    5.2280   69.9000   66.0080 C   0  0  0  0  0  0  0  0  0  0  0  0
    4.4940   69.8340   67.1460 N   0  0  0  0  0  0  0  0  0  0  0  0
    6.4260   70.5170   66.1660 N   0  0  0  0  0  0  0  0  0  0  0  0
    0.7933   68.2526   69.5792 H   0  0  0  0  0  0  0  0  0  0  0  0
   -0.8836   66.5908   71.0177 H   0  0  0  0  0  0  0  0  0  0  0  0
   -0.6597   64.6590   72.5694 H   0  0  0  0  0  0  0  0  0  0  0  0
    3.0305   63.5474   70.6174 H   0  0  0  0  0  0  0  0  0  0  0  0
    2.8146   65.4960   69.0893 H   0  0  0  0  0  0  0  0  0  0  0  0
    2.3904   61.8591   71.0950 H   0  0  0  0  0  0  0  0  0  0  0  0
    1.3935   60.0217   73.1361 H   0  0  0  0  0  0  0  0  0  0  0  0
    3.8330   59.0587   72.0724 H   0  0  0  0  0  0  0  0  0  0  0  0
    2.1216   58.6886   71.5322 H   0  0  0  0  0  0  0  0  0  0  0  0
    3.2172   59.2739   69.5755 H   0  0  0  0  0  0  0  0  0  0  0  0
    2.3331   60.7917   70.1319 H   0  0  0  0  0  0  0  0  0  0  0  0
    1.4373   66.6617   67.2545 H   0  0  0  0  0  0  0  0  0  0  0  0
   -0.3496   66.6540   67.4968 H   0  0  0  0  0  0  0  0  0  0  0  0
   -0.3315   68.1773   64.5494 H   0  0  0  0  0  0  0  0  0  0  0  0
   -0.5665   68.7552   66.7549 H   0  0  0  0  0  0  0  0  0  0  0  0
    0.5511   70.6773   67.6831 H   0  0  0  0  0  0  0  0  0  0  0  0
    0.4368   69.4791   69.0241 H   0  0  0  0  0  0  0  0  0  0  0  0
    2.7704   69.9010   69.1259 H   0  0  0  0  0  0  0  0  0  0  0  0
    4.9393   70.0252   68.0549 H   0  0  0  0  0  0  0  0  0  0  0  0
    6.7050   70.8705   67.0923 H   0  0  0  0  0  0  0  0  0  0  0  0
    7.0564   70.6319   65.3596 H   0  0  0  0  0  0  0  0  0  0  0  0
  2  1  1  0
  3  2  2  0
  4  3  1  0
  5  4  2  0
  6  5  1  0
  7  6  2  0
  7  2  1  0
  8  5  1  0
  9  8  2  0
 10  8  1  0
 11 10  1  0
 12 11  1  0
 13 12  2  0
 14 12  1  0
 15 11  1  0
 16 15  1  0
 17 16  1  0
 18 17  2  0
 19 17  1  0
 20  1  1  0
 22 21  2  0
 23 22  1  0
 24 23  1  0
 24 20  1  0
 25 24  1  0
 26 25  1  0
 27 26  1  0
 28 27  2  0
 28 23  1  0
 29 28  1  0
 30 29  2  0
 31 29  1  0
 32 31  2  0
 33 32  1  0
 33 27  1  0
 34 32  1  0
  1 35  1  0
  3 36  1  0
  4 37  1  0
  6 38  1  0
  7 39  1  0
 10 40  1  0
 11 41  1  1
 15 42  1  0
 15 43  1  0
 16 44  1  0
 16 45  1  0
 20 46  1  0
 20 47  1  0
 22 48  1  0
 24 49  1  6
 25 50  1  0
 25 51  1  0
 26 52  1  0
 33 53  1  0
 34 54  1  0
 34 55  1  0
M  CHG  2  14  -1  19  -1
M  END
>  <score>  (5) 
-9.382

$$$$
=
     RDKit          3D

 55 57  0  0  0  0  0  0  0  0999 V2000
    0.2890   67.3250   69.1070 N   0  0  0  0  0  0  0  0  0  0  0  0
    0.7190   66.2850   69.9470 C   0  0  0  0  0  0  0  0  0  0  0  0
    1.9150   65.6260   69.6160 C   0  0  0  0  0  0  0  0  0  0  0  0
    2.3740   64.5230   70.3490 C   0  0  0  0  0  0  0  0  0  0  0  0
    1.6270   64.0440   71.4260 C   0  0  0  0  0  0  0  0  0  0  0  0
    0.4330   64.6850   71.7650 C   0  0  0  0  0  0  0  0  0  0  0  0
   -0.0220   65.7820   71.0210 C   0  0  0  0  0  0  0  0  0  0  0  0
    2.0520   62.8720   72.2420 C   0  0  0  0  0  0  0  0  0  0  0  0
    1.6660   62.7850   73.4030 O   0  0  0  0  0  0  0  0  0  0  0  0
    2.8430   61.9650   71.5990 N   0  0  0  0  0  0  0  0  0  0  0  0
    3.3460   60.6840   72.1570 C   0  0  2  0  0  0  0  0  0  0  0  0
    4.5090   60.1550   71.2360 C   0  0  0  0  0  0  0  0  0  0  0  0
    5.6560   60.6550   71.4130 O   0  0  0  0  0  0  0  0  0  0  0  0
    4.1240   59.3340   70.3360 O   0  0  0  0  0  1  0  0  0  0  0  0
    2.1830   59.6740   72.2170 C   0  0  0  0  0  0  0  0  0  0  0  0
    2.4300   58.4890   73.1530 C   0  0  0  0  0  0  0  0  0  0  0  0
    1.9250   57.1300   72.6460 C   0  0  0  0  0  0  0  0  0  0  0  0
    0.9990   56.5710   73.3020 O   0  0  0  0  0  0  0  0  0  0  0  0
    2.5040   56.7050   71.6000 O   0  0  0  0  0  1  0  0  0  0  0  0
    0.4530   67.2040   67.6580 C   0  0  0  0  0  0  0  0  0  0  0  0
    1.1030   69.1140   63.4950 O   0  0  0  0  0  0  0  0  0  0  0  0
    0.6580   68.6480   64.5360 C   0  0  0  0  0  0  0  0  0  0  0  0
    1.2510   68.6840   65.7870 N   0  0  0  0  0  0  0  0  0  0  0  0
    0.3880   68.5980   66.9890 C   0  0  2  0  0  0  0  0  0  0  0  0
    0.7590   69.7030   68.0040 C   0  0  0  0  0  0  0  0  0  0  0  0
    2.2050   69.7270   68.2210 N   0  0  0  0  0  0  0  0  0  0  0  0
    3.0640   69.4990   67.1510 C   0  0  0  0  0  0  0  0  0  0  0  0
    2.6010   69.0080   65.9710 C   0  0  0  0  0  0  0  0  0  0  0  0
    3.6570   68.7090   64.9170 C   0  0  0  0  0  0  0  0  0  0  0  0
    3.4820   67.8200   64.0900 O   0  0  0  0  0  0  0  0  0  0  0  0
    4.8530   69.4040   64.9960 N   0  0  0  0  0  0  0  0  0  0  0  0
    5.1770   69.8660   66.1540 C   0  0  0  0  0  0  0  0  0  0  0  0
    4.3930   69.8150   67.2590 N   0  0  0  0  0  0  0  0  0  0  0  0
    6.3700   70.4800   66.3570 N   0  0  0  0  0  0  0  0  0  0  0  0
   -0.1404   68.1702   69.5096 H   0  0  0  0  0  0  0  0  0  0  0  0
    2.5058   65.9847   68.7603 H   0  0  0  0  0  0  0  0  0  0  0  0
    3.3216   64.0357   70.0757 H   0  0  0  0  0  0  0  0  0  0  0  0
   -0.1547   64.3259   72.6227 H   0  0  0  0  0  0  0  0  0  0  0  0
   -0.9787   66.2556   71.2865 H   0  0  0  0  0  0  0  0  0  0  0  0
    3.1180   62.1908   70.6324 H   0  0  0  0  0  0  0  0  0  0  0  0
    3.7379   60.8259   73.1750 H   0  0  0  0  0  0  0  0  0  0  0  0
    1.2829   60.2042   72.5616 H   0  0  0  0  0  0  0  0  0  0  0  0
    2.0714   59.2594   71.2043 H   0  0  0  0  0  0  0  0  0  0  0  0
    3.5145   58.4076   73.3179 H   0  0  0  0  0  0  0  0  0  0  0  0
    1.8574   58.7020   74.0678 H   0  0  0  0  0  0  0  0  0  0  0  0
    1.4278   66.7430   67.4409 H   0  0  0  0  0  0  0  0  0  0  0  0
   -0.3587   66.5784   67.2582 H   0  0  0  0  0  0  0  0  0  0  0  0
   -0.3187   68.1463   64.4706 H   0  0  0  0  0  0  0  0  0  0  0  0
   -0.6489   68.7513   66.6554 H   0  0  0  0  0  0  0  0  0  0  0  0
    0.4343   70.6787   67.6133 H   0  0  0  0  0  0  0  0  0  0  0  0
    0.2568   69.4943   68.9601 H   0  0  0  0  0  0  0  0  0  0  0  0
    2.5850   69.9116   69.1604 H   0  0  0  0  0  0  0  0  0  0  0  0
    4.7985   70.0148   68.1845 H   0  0  0  0  0  0  0  0  0  0  0  0
    6.6103   70.8427   67.2906 H   0  0  0  0  0  0  0  0  0  0  0  0
    7.0352   70.5834   65.5775 H   0  0  0  0  0  0  0  0  0  0  0  0
  2  1  1  0
  3  2  2  0
  4  3  1  0
  5  4  2  0
  6  5  1  0
  7  6  2  0
  7  2  1  0
  8  5  1  0
  9  8  2  0
 10  8  1  0
 11 10  1  0
 12 11  1  0
 13 12  2  0
 14 12  1  0
 15 11  1  0
 16 15  1  0
 17 16  1  0
 18 17  2  0
 19 17  1  0
 20  1  1  0
 22 21  2  0
 23 22  1  0
 24 23  1  0
 24 20  1  0
 25 24  1  0
 26 25  1  0
 27 26  1  0
 28 27  2  0
 28 23  1  0
 29 28  1  0
 30 29  2  0
 31 29  1  0
 32 31  2  0
 33 32  1  0
 33 27  1  0
 34 32  1  0
  1 35  1  0
  3 36  1  0
  4 37  1  0
  6 38  1  0
  7 39  1  0
 10 40  1  0
 11 41  1  1
 15 42  1  0
 15 43  1  0
 16 44  1  0
 16 45  1  0
 20 46  1  0
 20 47  1  0
 22 48  1  0
 24 49  1  6
 25 50  1  0
 25 51  1  0
 26 52  1  0
 33 53  1  0
 34 54  1  0
 34 55  1  0
M  CHG  2  14  -1  19  -1
M  END
>  <score>  (6) 
-9.341

$$$$
=
     RDKit          3D

 55 57  0  0  0  0  0  0  0  0999 V2000
    2.3160   62.5600   73.1410 N   0  0  0  0  0  0  0  0  0  0  0  0
    1.7440   63.4320   72.2010 C   0  0  0  0  0  0  0  0  0  0  0  0
    2.5250   63.8090   71.0950 C   0  0  0  0  0  0  0  0  0  0  0  0
    2.0660   64.7410   70.1540 C   0  0  0  0  0  0  0  0  0  0  0  0
    0.8110   65.3310   70.3150 C   0  0  0  0  0  0  0  0  0  0  0  0
    0.0250   64.9710   71.4120 C   0  0  0  0  0  0  0  0  0  0  0  0
    0.4960   64.0450   72.3510 C   0  0  0  0  0  0  0  0  0  0  0  0
    0.2650   66.3340   69.3570 C   0  0  0  0  0  0  0  0  0  0  0  0
   -0.9500   66.4760   69.2750 O   0  0  0  0  0  0  0  0  0  0  0  0
    1.1960   67.0370   68.6490 N   0  0  0  0  0  0  0  0  0  0  0  0
    0.9250   68.1350   67.6870 C   0  0  2  0  0  0  0  0  0  0  0  0
    0.3120   67.5160   66.3750 C   0  0  0  0  0  0  0  0  0  0  0  0
    1.0480   66.7350   65.7090 O   0  0  0  0  0  0  0  0  0  0  0  0
   -0.8500   67.9630   66.0850 O   0  0  0  0  0  1  0  0  0  0  0  0
    2.2430   68.8760   67.3880 C   0  0  0  0  0  0  0  0  0  0  0  0
    2.4670   70.1260   68.2410 C   0  0  0  0  0  0  0  0  0  0  0  0
    3.9280   70.4150   68.6190 C   0  0  0  0  0  0  0  0  0  0  0  0
    4.7610   70.5310   67.6740 O   0  0  0  0  0  0  0  0  0  0  0  0
    4.1450   70.5080   69.8660 O   0  0  0  0  0  1  0  0  0  0  0  0
    3.0440   61.3750   72.6850 C   0  0  0  0  0  0  0  0  0  0  0  0
   -1.1780   59.7550   73.6550 O   0  0  0  0  0  0  0  0  0  0  0  0
   -0.1940   60.3050   73.1800 C   0  0  0  0  0  0  0  0  0  0  0  0
    1.1140   59.8520   73.2170 N   0  0  0  0  0  0  0  0  0  0  0  0
    2.0570   60.3020   72.1660 C   0  0  2  0  0  0  0  0  0  0  0  0
    2.8260   59.0990   71.5750 C   0  0  0  0  0  0  0  0  0  0  0  0
    3.3720   58.2700   72.6490 N   0  0  0  0  0  0  0  0  0  0  0  0
    2.6300   58.0730   73.8090 C   0  0  0  0  0  0  0  0  0  0  0  0
    1.5320   58.8280   74.0770 C   0  0  0  0  0  0  0  0  0  0  0  0
    0.8700   58.5810   75.4250 C   0  0  0  0  0  0  0  0  0  0  0  0
    0.2710   59.4830   76.0030 O   0  0  0  0  0  0  0  0  0  0  0  0
    1.0600   57.3410   76.0120 N   0  0  0  0  0  0  0  0  0  0  0  0
    2.1110   56.6880   75.6550 C   0  0  0  0  0  0  0  0  0  0  0  0
    2.9730   57.0730   74.6810 N   0  0  0  0  0  0  0  0  0  0  0  0
    2.4370   55.5060   76.2370 N   0  0  0  0  0  0  0  0  0  0  0  0
    2.2236   62.7536   74.1484 H   0  0  0  0  0  0  0  0  0  0  0  0
    3.5214   63.3615   70.9646 H   0  0  0  0  0  0  0  0  0  0  0  0
    2.6933   65.0070   69.2905 H   0  0  0  0  0  0  0  0  0  0  0  0
   -0.9718   65.4184   71.5394 H   0  0  0  0  0  0  0  0  0  0  0  0
   -0.1270   63.7952   73.2225 H   0  0  0  0  0  0  0  0  0  0  0  0
    2.1827   66.7810   68.7963 H   0  0  0  0  0  0  0  0  0  0  0  0
    0.2078   68.8559   68.1064 H   0  0  0  0  0  0  0  0  0  0  0  0
    3.0773   68.1819   67.5673 H   0  0  0  0  0  0  0  0  0  0  0  0
    2.1861   69.2128   66.3424 H   0  0  0  0  0  0  0  0  0  0  0  0
    2.0841   70.9918   67.6808 H   0  0  0  0  0  0  0  0  0  0  0  0
    1.9399   69.9434   69.1891 H   0  0  0  0  0  0  0  0  0  0  0  0
    3.7288   61.6606   71.8729 H   0  0  0  0  0  0  0  0  0  0  0  0
    3.6122   60.9583   73.5297 H   0  0  0  0  0  0  0  0  0  0  0  0
   -0.3669   61.2631   72.6681 H   0  0  0  0  0  0  0  0  0  0  0  0
    1.4575   60.7690   71.3707 H   0  0  0  0  0  0  0  0  0  0  0  0
    2.1402   58.4949   70.9629 H   0  0  0  0  0  0  0  0  0  0  0  0
    3.6539   59.4727   70.9546 H   0  0  0  0  0  0  0  0  0  0  0  0
    4.3000   57.8348   72.5471 H   0  0  0  0  0  0  0  0  0  0  0  0
    3.8899   56.6115   74.5964 H   0  0  0  0  0  0  0  0  0  0  0  0
    3.2822   54.9998   75.9365 H   0  0  0  0  0  0  0  0  0  0  0  0
    1.8392   55.1152   76.9792 H   0  0  0  0  0  0  0  0  0  0  0  0
  2  1  1  0
  3  2  2  0
  4  3  1  0
  5  4  2  0
  6  5  1  0
  7  6  2  0
  7  2  1  0
  8  5  1  0
  9  8  2  0
 10  8  1  0
 11 10  1  0
 12 11  1  0
 13 12  2  0
 14 12  1  0
 15 11  1  0
 16 15  1  0
 17 16  1  0
 18 17  2  0
 19 17  1  0
 20  1  1  0
 22 21  2  0
 23 22  1  0
 24 23  1  0
 24 20  1  0
 25 24  1  0
 26 25  1  0
 27 26  1  0
 28 27  2  0
 28 23  1  0
 29 28  1  0
 30 29  2  0
 31 29  1  0
 32 31  2  0
 33 32  1  0
 33 27  1  0
 34 32  1  0
  1 35  1  0
  3 36  1  0
  4 37  1  0
  6 38  1  0
  7 39  1  0
 10 40  1  0
 11 41  1  1
 15 42  1  0
 15 43  1  0
 16 44  1  0
 16 45  1  0
 20 46  1  0
 20 47  1  0
 22 48  1  0
 24 49  1  6
 25 50  1  0
 25 51  1  0
 26 52  1  0
 33 53  1  0
 34 54  1  0
 34 55  1  0
M  CHG  2  14  -1  19  -1
M  END
>  <score>  (7) 
-9.1

$$$$
=
     RDKit          3D

 55 57  0  0  0  0  0  0  0  0999 V2000
    1.2930   62.3250   72.9640 N   0  0  0  0  0  0  0  0  0  0  0  0
    1.1390   63.3940   72.0680 C   0  0  0  0  0  0  0  0  0  0  0  0
    2.1150   63.5620   71.0720 C   0  0  0  0  0  0  0  0  0  0  0  0
    2.0870   64.6500   70.1890 C   0  0  0  0  0  0  0  0  0  0  0  0
    1.0800   65.6110   70.3010 C   0  0  0  0  0  0  0  0  0  0  0  0
    0.1050   65.4610   71.2910 C   0  0  0  0  0  0  0  0  0  0  0  0
    0.1470   64.3740   72.1730 C   0  0  0  0  0  0  0  0  0  0  0  0
    0.9950   66.7950   69.4020 C   0  0  0  0  0  0  0  0  0  0  0  0
    1.7640   67.7340   69.5830 O   0  0  0  0  0  0  0  0  0  0  0  0
    0.0520   66.7200   68.4200 N   0  0  0  0  0  0  0  0  0  0  0  0
   -0.1930   67.7270   67.3550 C   0  0  2  0  0  0  0  0  0  0  0  0
   -1.7410   67.7910   67.0690 C   0  0  0  0  0  0  0  0  0  0  0  0
   -2.5120   67.3660   67.9750 O   0  0  0  0  0  0  0  0  0  0  0  0
   -2.0330   68.1870   65.8890 O   0  0  0  0  0  1  0  0  0  0  0  0
    0.5890   67.3200   66.0910 C   0  0  0  0  0  0  0  0  0  0  0  0
    1.3610   68.4660   65.4350 C   0  0  0  0  0  0  0  0  0  0  0  0
    1.3220   68.4950   63.8990 C   0  0  0  0  0  0  0  0  0  0  0  0
    0.2200   68.2250   63.3400 O   0  0  0  0  0  0  0  0  0  0  0  0
    2.4240   68.7940   63.3460 O   0  0  0  0  0  1  0  0  0  0  0  0
    2.5550   61.5840   73.0030 C   0  0  0  0  0  0  0  0  0  0  0  0
   -0.1640   58.0450   74.2150 O   0  0  0  0  0  0  0  0  0  0  0  0
    0.3870   58.9900   73.6670 C   0  0  0  0  0  0  0  0  0  0  0  0
    1.7300   59.3210   73.7280 N   0  0  0  0  0  0  0  0  0  0  0  0
    2.3240   60.1040   72.6170 C   0  0  2  0  0  0  0  0  0  0  0  0
    3.6440   59.4560   72.1420 C   0  0  0  0  0  0  0  0  0  0  0  0
    4.5060   59.1630   73.2860 N   0  0  0  0  0  0  0  0  0  0  0  0
    3.9400   58.7110   74.4740 C   0  0  0  0  0  0  0  0  0  0  0  0
    2.5990   58.7750   74.6820 C   0  0  0  0  0  0  0  0  0  0  0  0
    2.1190   58.3430   76.0600 C   0  0  0  0  0  0  0  0  0  0  0  0
    1.1060   58.8300   76.5510 O   0  0  0  0  0  0  0  0  0  0  0  0
    2.9240   57.4670   76.7700 N   0  0  0  0  0  0  0  0  0  0  0  0
    4.1750   57.4530   76.4630 C   0  0  0  0  0  0  0  0  0  0  0  0
    4.7320   58.1460   75.4390 N   0  0  0  0  0  0  0  0  0  0  0  0
    5.0620   56.6990   77.1600 N   0  0  0  0  0  0  0  0  0  0  0  0
    0.5203   62.0625   73.5924 H   0  0  0  0  0  0  0  0  0  0  0  0
    2.9224   62.8203   70.9827 H   0  0  0  0  0  0  0  0  0  0  0  0
    2.8568   64.7468   69.4092 H   0  0  0  0  0  0  0  0  0  0  0  0
   -0.7023   66.2031   71.3782 H   0  0  0  0  0  0  0  0  0  0  0  0
   -0.6141   64.2896   72.9627 H   0  0  0  0  0  0  0  0  0  0  0  0
   -0.5492   65.8837   68.4160 H   0  0  0  0  0  0  0  0  0  0  0  0
    0.1501   68.7235   67.6702 H   0  0  0  0  0  0  0  0  0  0  0  0
    1.3073   66.5342   66.3678 H   0  0  0  0  0  0  0  0  0  0  0  0
   -0.1544   66.9782   65.3558 H   0  0  0  0  0  0  0  0  0  0  0  0
    0.9394   69.4131   65.8028 H   0  0  0  0  0  0  0  0  0  0  0  0
    2.4159   68.3151   65.7079 H   0  0  0  0  0  0  0  0  0  0  0  0
    3.2633   62.0371   72.2938 H   0  0  0  0  0  0  0  0  0  0  0  0
    2.9623   61.6269   74.0239 H   0  0  0  0  0  0  0  0  0  0  0  0
   -0.2535   59.6473   73.0606 H   0  0  0  0  0  0  0  0  0  0  0  0
    1.6008   60.0925   71.7882 H   0  0  0  0  0  0  0  0  0  0  0  0
    3.4178   58.5206   71.6091 H   0  0  0  0  0  0  0  0  0  0  0  0
    4.1648   60.1553   71.4714 H   0  0  0  0  0  0  0  0  0  0  0  0
    5.5255   59.2903   73.2130 H   0  0  0  0  0  0  0  0  0  0  0  0
    5.7556   58.2482   75.3863 H   0  0  0  0  0  0  0  0  0  0  0  0
    6.0582   56.7020   76.8981 H   0  0  0  0  0  0  0  0  0  0  0  0
    4.7392   56.1236   77.9510 H   0  0  0  0  0  0  0  0  0  0  0  0
  2  1  1  0
  3  2  2  0
  4  3  1  0
  5  4  2  0
  6  5  1  0
  7  6  2  0
  7  2  1  0
  8  5  1  0
  9  8  2  0
 10  8  1  0
 11 10  1  0
 12 11  1  0
 13 12  2  0
 14 12  1  0
 15 11  1  0
 16 15  1  0
 17 16  1  0
 18 17  2  0
 19 17  1  0
 20  1  1  0
 22 21  2  0
 23 22  1  0
 24 23  1  0
 24 20  1  0
 25 24  1  0
 26 25  1  0
 27 26  1  0
 28 27  2  0
 28 23  1  0
 29 28  1  0
 30 29  2  0
 31 29  1  0
 32 31  2  0
 33 32  1  0
 33 27  1  0
 34 32  1  0
  1 35  1  0
  3 36  1  0
  4 37  1  0
  6 38  1  0
  7 39  1  0
 10 40  1  0
 11 41  1  1
 15 42  1  0
 15 43  1  0
 16 44  1  0
 16 45  1  0
 20 46  1  0
 20 47  1  0
 22 48  1  0
 24 49  1  6
 25 50  1  0
 25 51  1  0
 26 52  1  0
 33 53  1  0
 34 54  1  0
 34 55  1  0
M  CHG  2  14  -1  19  -1
M  END
>  <score>  (8) 
-9.02

$$$$
=
     RDKit          3D

 55 57  0  0  0  0  0  0  0  0999 V2000
    2.4520   60.9390   72.0920 N   0  0  0  0  0  0  0  0  0  0  0  0
    1.8790   62.1100   71.5720 C   0  0  0  0  0  0  0  0  0  0  0  0
    2.7160   62.9990   70.8770 C   0  0  0  0  0  0  0  0  0  0  0  0
    2.2470   64.2300   70.3980 C   0  0  0  0  0  0  0  0  0  0  0  0
    0.9220   64.6060   70.6270 C   0  0  0  0  0  0  0  0  0  0  0  0
    0.0780   63.7360   71.3220 C   0  0  0  0  0  0  0  0  0  0  0  0
    0.5580   62.5110   71.8020 C   0  0  0  0  0  0  0  0  0  0  0  0
    0.3610   65.9030   70.1540 C   0  0  0  0  0  0  0  0  0  0  0  0
   -0.4750   66.4750   70.8460 O   0  0  0  0  0  0  0  0  0  0  0  0
    0.8560   66.3580   68.9670 N   0  0  0  0  0  0  0  0  0  0  0  0
    0.5200   67.6470   68.3100 C   0  0  2  0  0  0  0  0  0  0  0  0
   -0.5590   67.3780   67.1950 C   0  0  0  0  0  0  0  0  0  0  0  0
   -1.7490   67.1950   67.5770 O   0  0  0  0  0  0  0  0  0  0  0  0
   -0.0730   67.2810   66.0170 O   0  0  0  0  0  1  0  0  0  0  0  0
    1.8020   68.2520   67.7070 C   0  0  0  0  0  0  0  0  0  0  0  0
    2.0010   69.7370   68.0160 C   0  0  0  0  0  0  0  0  0  0  0  0
    3.4080   70.1320   68.4890 C   0  0  0  0  0  0  0  0  0  0  0  0
    3.5110   70.6510   69.6380 O   0  0  0  0  0  0  0  0  0  0  0  0
    4.3350   69.8880   67.6580 O   0  0  0  0  0  1  0  0  0  0  0  0
    1.6050   59.9500   72.7600 C   0  0  0  0  0  0  0  0  0  0  0  0
    0.6470   55.5970   73.9970 O   0  0  0  0  0  0  0  0  0  0  0  0
    0.8070   56.6620   73.4170 C   0  0  0  0  0  0  0  0  0  0  0  0
    1.7830   57.6120   73.6710 N   0  0  0  0  0  0  0  0  0  0  0  0
    2.1890   58.5290   72.5790 C   0  0  2  0  0  0  0  0  0  0  0  0
    3.7290   58.5870   72.4640 C   0  0  0  0  0  0  0  0  0  0  0  0
    4.3280   58.8110   73.7800 N   0  0  0  0  0  0  0  0  0  0  0  0
    3.7730   58.1990   74.8990 C   0  0  0  0  0  0  0  0  0  0  0  0
    2.5500   57.6090   74.8430 C   0  0  0  0  0  0  0  0  0  0  0  0
    2.0140   57.0660   76.1600 C   0  0  0  0  0  0  0  0  0  0  0  0
    0.8070   57.0180   76.3720 O   0  0  0  0  0  0  0  0  0  0  0  0
    2.9390   56.7330   77.1370 N   0  0  0  0  0  0  0  0  0  0  0  0
    4.0840   57.3180   77.0720 C   0  0  0  0  0  0  0  0  0  0  0  0
    4.4810   58.1430   76.0710 N   0  0  0  0  0  0  0  0  0  0  0  0
    5.0250   57.1310   78.0310 N   0  0  0  0  0  0  0  0  0  0  0  0
    3.4652   60.7763   72.0038 H   0  0  0  0  0  0  0  0  0  0  0  0
    3.7664   62.7219   70.7043 H   0  0  0  0  0  0  0  0  0  0  0  0
    2.9215   64.8985   69.8428 H   0  0  0  0  0  0  0  0  0  0  0  0
   -0.9720   64.0155   71.4935 H   0  0  0  0  0  0  0  0  0  0  0  0
   -0.1153   61.8522   72.3700 H   0  0  0  0  0  0  0  0  0  0  0  0
    1.5279   65.7486   68.4791 H   0  0  0  0  0  0  0  0  0  0  0  0
    0.1070   68.3617   69.0371 H   0  0  0  0  0  0  0  0  0  0  0  0
    2.6650   67.6983   68.1053 H   0  0  0  0  0  0  0  0  0  0  0  0
    1.7077   68.1667   66.6144 H   0  0  0  0  0  0  0  0  0  0  0  0
    1.7789   70.3061   67.1012 H   0  0  0  0  0  0  0  0  0  0  0  0
    1.3261   69.9637   68.8545 H   0  0  0  0  0  0  0  0  0  0  0  0
    1.5504   60.1854   73.8331 H   0  0  0  0  0  0  0  0  0  0  0  0
    0.5999   59.9820   72.3142 H   0  0  0  0  0  0  0  0  0  0  0  0
    0.0996   56.8901   72.6061 H   0  0  0  0  0  0  0  0  0  0  0  0
    1.7748   58.1238   71.6440 H   0  0  0  0  0  0  0  0  0  0  0  0
    4.0985   57.6354   72.0543 H   0  0  0  0  0  0  0  0  0  0  0  0
    4.0073   59.4171   71.7980 H   0  0  0  0  0  0  0  0  0  0  0  0
    5.1548   59.4176   73.8771 H   0  0  0  0  0  0  0  0  0  0  0  0
    5.3185   58.7301   76.1924 H   0  0  0  0  0  0  0  0  0  0  0  0
    5.9348   57.6086   77.9599 H   0  0  0  0  0  0  0  0  0  0  0  0
    4.8297   56.5114   78.8303 H   0  0  0  0  0  0  0  0  0  0  0  0
  2  1  1  0
  3  2  2  0
  4  3  1  0
  5  4  2  0
  6  5  1  0
  7  6  2  0
  7  2  1  0
  8  5  1  0
  9  8  2  0
 10  8  1  0
 11 10  1  0
 12 11  1  0
 13 12  2  0
 14 12  1  0
 15 11  1  0
 16 15  1  0
 17 16  1  0
 18 17  2  0
 19 17  1  0
 20  1  1  0
 22 21  2  0
 23 22  1  0
 24 23  1  0
 24 20  1  0
 25 24  1  0
 26 25  1  0
 27 26  1  0
 28 27  2  0
 28 23  1  0
 29 28  1  0
 30 29  2  0
 31 29  1  0
 32 31  2  0
 33 32  1  0
 33 27  1  0
 34 32  1  0
  1 35  1  0
  3 36  1  0
  4 37  1  0
  6 38  1  0
  7 39  1  0
 10 40  1  0
 11 41  1  1
 15 42  1  0
 15 43  1  0
 16 44  1  0
 16 45  1  0
 20 46  1  0
 20 47  1  0
 22 48  1  0
 24 49  1  6
 25 50  1  0
 25 51  1  0
 26 52  1  0
 33 53  1  0
 34 54  1  0
 34 55  1  0
M  CHG  2  14  -1  19  -1
M  END
>  <score>  (9) 
-8.94

$$$$
