=
     RDKit          3D

 41 43  0  0  0  0  0  0  0  0999 V2000
    2.6150   68.6110   65.7780 N   0  0  0  0  0  0  0  0  0  0  0  0
    2.8400   68.6910   64.3740 C   0  0  0  0  0  0  0  0  0  0  0  0
    1.8000   68.5970   63.4290 C   0  0  0  0  0  0  0  0  0  0  0  0
    2.0490   68.6610   62.0540 C   0  0  0  0  0  0  0  0  0  0  0  0
    3.3440   68.8350   61.5840 C   0  0  0  0  0  0  0  0  0  0  0  0
    4.3900   68.9630   62.4920 C   0  0  0  0  0  0  0  0  0  0  0  0
    4.1440   68.9060   63.8710 C   0  0  0  0  0  0  0  0  0  0  0  0
    5.5490   69.0600   64.9610 S   0  0  0  0  0  0  0  0  0  0  0  0
    4.7430   69.6600   66.4360 C   0  0  0  0  0  0  0  0  0  0  0  0
    3.3890   69.3600   66.7110 C   0  0  0  0  0  0  0  0  0  0  0  0
    2.8590   69.8400   67.9230 C   0  0  0  0  0  0  0  0  0  0  0  0
    3.6410   70.5650   68.8290 C   0  0  0  0  0  0  0  0  0  0  0  0
    4.9740   70.8340   68.5450 C   0  0  0  0  0  0  0  0  0  0  0  0
    5.5250   70.3830   67.3490 C   0  0  0  0  0  0  0  0  0  0  0  0
    1.4010   67.9170   66.2610 C   0  0  0  0  0  0  0  0  0  0  0  0
    0.1190   68.7100   65.9480 C   0  0  0  0  0  0  0  0  0  0  0  0
   -0.6920   69.0740   67.1930 C   0  0  0  0  0  0  0  0  0  0  0  0
   -2.2450   67.1650   67.6400 C   0  0  0  0  0  0  0  0  0  0  0  0
   -2.1100   68.5690   67.1240 N   0  0  0  0  0  4  0  0  0  0  0  0
   -2.7490   68.7220   65.7740 C   0  0  0  0  0  0  0  0  0  0  0  0
    0.7656   68.4700   63.7811 H   0  0  0  0  0  0  0  0  0  0  0  0
    1.2152   68.5731   61.3419 H   0  0  0  0  0  0  0  0  0  0  0  0
    3.5411   68.8713   60.5024 H   0  0  0  0  0  0  0  0  0  0  0  0
    5.4168   69.1099   62.1257 H   0  0  0  0  0  0  0  0  0  0  0  0
    1.8044   69.6404   68.1640 H   0  0  0  0  0  0  0  0  0  0  0  0
    3.1984   70.9234   69.7701 H   0  0  0  0  0  0  0  0  0  0  0  0
    5.5896   71.3993   69.2601 H   0  0  0  0  0  0  0  0  0  0  0  0
    6.5795   70.5947   67.1185 H   0  0  0  0  0  0  0  0  0  0  0  0
    1.3373   66.9328   65.7740 H   0  0  0  0  0  0  0  0  0  0  0  0
    1.4796   67.8166   67.3536 H   0  0  0  0  0  0  0  0  0  0  0  0
    0.4017   69.6396   65.4324 H   0  0  0  0  0  0  0  0  0  0  0  0
   -0.5170   68.0643   65.3246 H   0  0  0  0  0  0  0  0  0  0  0  0
   -0.2028   68.6335   68.0743 H   0  0  0  0  0  0  0  0  0  0  0  0
   -0.7301   70.1714   67.2589 H   0  0  0  0  0  0  0  0  0  0  0  0
   -2.2439   67.1769   68.7399 H   0  0  0  0  0  0  0  0  0  0  0  0
   -3.1890   66.7309   67.2790 H   0  0  0  0  0  0  0  0  0  0  0  0
   -1.4010   66.5589   67.2790 H   0  0  0  0  0  0  0  0  0  0  0  0
   -2.6382   69.1868   67.7567 H   0  0  0  0  0  0  0  0  0  0  0  0
   -3.8119   68.9765   65.8982 H   0  0  0  0  0  0  0  0  0  0  0  0
   -2.2425   69.5243   65.2174 H   0  0  0  0  0  0  0  0  0  0  0  0
   -2.6608   67.7773   65.2174 H   0  0  0  0  0  0  0  0  0  0  0  0
  2  1  1  0
  3  2  2  0
  4  3  1  0
  5  4  2  0
  6  5  1  0
  7  6  2  0
  7  2  1  0
  8  7  1  0
  9  8  1  0
 10  9  2  0
 10  1  1  0
 11 10  1  0
 12 11  2  0
 13 12  1  0
 14 13  2  0
 14  9  1  0
 15  1  1  0
 16 15  1  0
 17 16  1  0
 19 18  1  0
 19 17  1  0
 20 19  1  0
  3 21  1  0
  4 22  1  0
  5 23  1  0
  6 24  1  0
 11 25  1  0
 12 26  1  0
 13 27  1  0
 14 28  1  0
 15 29  1  0
 15 30  1  0
 16 31  1  0
 16 32  1  0
 17 33  1  0
 17 34  1  0
 18 35  1  0
 18 36  1  0
 18 37  1  0
 19 38  1  0
 20 39  1  0
 20 40  1  0
 20 41  1  0
M  CHG  1  19   1
M  END
>  <score>  (1) 
-9.574

$$$$
=
     RDKit          3D

 41 43  0  0  0  0  0  0  0  0999 V2000
    4.2360   69.6770   66.1140 N   0  0  0  0  0  0  0  0  0  0  0  0
    3.0230   68.9720   66.3570 C   0  0  0  0  0  0  0  0  0  0  0  0
    2.5170   68.0000   65.4740 C   0  0  0  0  0  0  0  0  0  0  0  0
    1.3130   67.3330   65.7270 C   0  0  0  0  0  0  0  0  0  0  0  0
    0.5880   67.6090   66.8780 C   0  0  0  0  0  0  0  0  0  0  0  0
    1.0760   68.5420   67.7860 C   0  0  0  0  0  0  0  0  0  0  0  0
    2.2860   69.2080   67.5400 C   0  0  0  0  0  0  0  0  0  0  0  0
    2.8250   70.4020   68.7520 S   0  0  0  0  0  0  0  0  0  0  0  0
    4.5830   70.3970   68.4430 C   0  0  0  0  0  0  0  0  0  0  0  0
    5.1080   70.0690   67.1710 C   0  0  0  0  0  0  0  0  0  0  0  0
    6.5040   70.1410   67.0160 C   0  0  0  0  0  0  0  0  0  0  0  0
    7.3400   70.5380   68.0660 C   0  0  0  0  0  0  0  0  0  0  0  0
    6.7990   70.8710   69.3020 C   0  0  0  0  0  0  0  0  0  0  0  0
    5.4230   70.8010   69.4910 C   0  0  0  0  0  0  0  0  0  0  0  0
    4.7170   69.7980   64.7200 C   0  0  0  0  0  0  0  0  0  0  0  0
    5.4270   68.5190   64.2410 C   0  0  0  0  0  0  0  0  0  0  0  0
    5.6750   68.4880   62.7320 C   0  0  0  0  0  0  0  0  0  0  0  0
    3.4710   68.3100   61.5630 C   0  0  0  0  0  0  0  0  0  0  0  0
    4.7090   67.5860   62.0080 N   0  0  0  0  0  4  0  0  0  0  0  0
    4.3720   66.3270   62.7540 C   0  0  0  0  0  0  0  0  0  0  0  0
    3.0822   67.7584   64.5618 H   0  0  0  0  0  0  0  0  0  0  0  0
    0.9395   66.5866   65.0105 H   0  0  0  0  0  0  0  0  0  0  0  0
   -0.3647   67.0939   67.0702 H   0  0  0  0  0  0  0  0  0  0  0  0
    0.5095   68.7594   68.7035 H   0  0  0  0  0  0  0  0  0  0  0  0
    6.9500   69.8787   66.0453 H   0  0  0  0  0  0  0  0  0  0  0  0
    8.4281   70.5866   67.9125 H   0  0  0  0  0  0  0  0  0  0  0  0
    7.4552   71.1881   70.1259 H   0  0  0  0  0  0  0  0  0  0  0  0
    4.9910   71.0639   70.4679 H   0  0  0  0  0  0  0  0  0  0  0  0
    3.8565   69.9935   64.0633 H   0  0  0  0  0  0  0  0  0  0  0  0
    5.4428   70.6237   64.6819 H   0  0  0  0  0  0  0  0  0  0  0  0
    6.3968   68.4458   64.7549 H   0  0  0  0  0  0  0  0  0  0  0  0
    4.7648   67.6732   64.4777 H   0  0  0  0  0  0  0  0  0  0  0  0
    5.5694   69.5088   62.3359 H   0  0  0  0  0  0  0  0  0  0  0  0
    6.6887   68.0938   62.5674 H   0  0  0  0  0  0  0  0  0  0  0  0
    2.9034   68.6419   62.4448 H   0  0  0  0  0  0  0  0  0  0  0  0
    3.7548   69.1845   60.9591 H   0  0  0  0  0  0  0  0  0  0  0  0
    2.8479   67.6339   60.9591 H   0  0  0  0  0  0  0  0  0  0  0  0
    5.2152   67.2852   61.1629 H   0  0  0  0  0  0  0  0  0  0  0  0
    4.4229   66.5173   63.8362 H   0  0  0  0  0  0  0  0  0  0  0  0
    3.3555   66.0030   62.4861 H   0  0  0  0  0  0  0  0  0  0  0  0
    5.0907   65.5385   62.4861 H   0  0  0  0  0  0  0  0  0  0  0  0
  2  1  1  0
  3  2  2  0
  4  3  1  0
  5  4  2  0
  6  5  1  0
  7  6  2  0
  7  2  1  0
  8  7  1  0
  9  8  1  0
 10  9  2  0
 10  1  1  0
 11 10  1  0
 12 11  2  0
 13 12  1  0
 14 13  2  0
 14  9  1  0
 15  1  1  0
 16 15  1  0
 17 16  1  0
 19 18  1  0
 19 17  1  0
 20 19  1  0
  3 21  1  0
  4 22  1  0
  5 23  1  0
  6 24  1  0
 11 25  1  0
 12 26  1  0
 13 27  1  0
 14 28  1  0
 15 29  1  0
 15 30  1  0
 16 31  1  0
 16 32  1  0
 17 33  1  0
 17 34  1  0
 18 35  1  0
 18 36  1  0
 18 37  1  0
 19 38  1  0
 20 39  1  0
 20 40  1  0
 20 41  1  0
M  CHG  1  19   1
M  END
>  <score>  (2) 
-9.511

$$$$
=
     RDKit          3D

 41 43  0  0  0  0  0  0  0  0999 V2000
    3.7510   68.9430   65.8950 N   0  0  0  0  0  0  0  0  0  0  0  0
    4.4090   69.7360   66.8780 C   0  0  0  0  0  0  0  0  0  0  0  0
    5.6390   70.3780   66.6400 C   0  0  0  0  0  0  0  0  0  0  0  0
    6.2750   71.1380   67.6290 C   0  0  0  0  0  0  0  0  0  0  0  0
    5.6910   71.2880   68.8790 C   0  0  0  0  0  0  0  0  0  0  0  0
    4.4610   70.6920   69.1370 C   0  0  0  0  0  0  0  0  0  0  0  0
    3.8180   69.9350   68.1470 C   0  0  0  0  0  0  0  0  0  0  0  0
    2.2530   69.1910   68.5730 S   0  0  0  0  0  0  0  0  0  0  0  0
    1.5280   69.0240   66.9500 C   0  0  0  0  0  0  0  0  0  0  0  0
    2.3310   68.8900   65.7940 C   0  0  0  0  0  0  0  0  0  0  0  0
    1.6640   68.7170   64.5670 C   0  0  0  0  0  0  0  0  0  0  0  0
    0.2680   68.6580   64.4930 C   0  0  0  0  0  0  0  0  0  0  0  0
   -0.5000   68.7750   65.6450 C   0  0  0  0  0  0  0  0  0  0  0  0
    0.1290   68.9590   66.8730 C   0  0  0  0  0  0  0  0  0  0  0  0
    4.5610   68.3470   64.8090 C   0  0  0  0  0  0  0  0  0  0  0  0
    4.8900   69.3700   63.7070 C   0  0  0  0  0  0  0  0  0  0  0  0
    5.5670   68.7500   62.4830 C   0  0  0  0  0  0  0  0  0  0  0  0
    3.3620   68.6160   61.3080 C   0  0  0  0  0  0  0  0  0  0  0  0
    4.6250   67.8920   61.6780 N   0  0  0  0  0  4  0  0  0  0  0  0
    4.3320   66.5570   62.2990 C   0  0  0  0  0  0  0  0  0  0  0  0
    6.1124   70.2801   65.6519 H   0  0  0  0  0  0  0  0  0  0  0  0
    7.2412   71.6180   67.4145 H   0  0  0  0  0  0  0  0  0  0  0  0
    6.1973   71.8741   69.6602 H   0  0  0  0  0  0  0  0  0  0  0  0
    3.9899   70.8152   70.1233 H   0  0  0  0  0  0  0  0  0  0  0  0
    2.2546   68.6259   63.6435 H   0  0  0  0  0  0  0  0  0  0  0  0
   -0.2235   68.5184   63.5189 H   0  0  0  0  0  0  0  0  0  0  0  0
   -1.5972   68.7226   65.5870 H   0  0  0  0  0  0  0  0  0  0  0  0
   -0.4743   69.0539   67.7879 H   0  0  0  0  0  0  0  0  0  0  0  0
    5.5021   67.9685   65.2346 H   0  0  0  0  0  0  0  0  0  0  0  0
    3.9748   67.5348   64.3545 H   0  0  0  0  0  0  0  0  0  0  0  0
    3.9530   69.8465   63.3829 H   0  0  0  0  0  0  0  0  0  0  0  0
    5.5981   70.0935   64.1373 H   0  0  0  0  0  0  0  0  0  0  0  0
    5.9443   69.5591   61.8404 H   0  0  0  0  0  0  0  0  0  0  0  0
    6.3834   68.1060   62.8417 H   0  0  0  0  0  0  0  0  0  0  0  0
    2.8321   68.9198   62.2228 H   0  0  0  0  0  0  0  0  0  0  0  0
    3.6112   69.5084   60.7151 H   0  0  0  0  0  0  0  0  0  0  0  0
    2.7178   67.9500   60.7151 H   0  0  0  0  0  0  0  0  0  0  0  0
    5.1357   67.6907   60.8064 H   0  0  0  0  0  0  0  0  0  0  0  0
    4.3524   66.6500   63.3949 H   0  0  0  0  0  0  0  0  0  0  0  0
    3.3372   66.2140   61.9786 H   0  0  0  0  0  0  0  0  0  0  0  0
    5.0917   65.8289   61.9786 H   0  0  0  0  0  0  0  0  0  0  0  0
  2  1  1  0
  3  2  2  0
  4  3  1  0
  5  4  2  0
  6  5  1  0
  7  6  2  0
  7  2  1  0
  8  7  1  0
  9  8  1  0
 10  9  2  0
 10  1  1  0
 11 10  1  0
 12 11  2  0
 13 12  1  0
 14 13  2  0
 14  9  1  0
 15  1  1  0
 16 15  1  0
 17 16  1  0
 19 18  1  0
 19 17  1  0
 20 19  1  0
  3 21  1  0
  4 22  1  0
  5 23  1  0
  6 24  1  0
 11 25  1  0
 12 26  1  0
 13 27  1  0
 14 28  1  0
 15 29  1  0
 15 30  1  0
 16 31  1  0
 16 32  1  0
 17 33  1  0
 17 34  1  0
 18 35  1  0
 18 36  1  0
 18 37  1  0
 19 38  1  0
 20 39  1  0
 20 40  1  0
 20 41  1  0
M  CHG  1  19   1
M  END
>  <score>  (3) 
-8.729

$$$$
=
     RDKit          3D

 41 43  0  0  0  0  0  0  0  0999 V2000
    3.0250   68.9340   66.5090 N   0  0  0  0  0  0  0  0  0  0  0  0
    4.1150   69.7000   67.0110 C   0  0  0  0  0  0  0  0  0  0  0  0
    4.1660   70.1770   68.3340 C   0  0  0  0  0  0  0  0  0  0  0  0
    5.2410   70.9420   68.7990 C   0  0  0  0  0  0  0  0  0  0  0  0
    6.3030   71.2410   67.9570 C   0  0  0  0  0  0  0  0  0  0  0  0
    6.2990   70.7590   66.6520 C   0  0  0  0  0  0  0  0  0  0  0  0
    5.2260   69.9860   66.1850 C   0  0  0  0  0  0  0  0  0  0  0  0
    5.2980   69.4260   64.4910 S   0  0  0  0  0  0  0  0  0  0  0  0
    4.2400   67.9910   64.5860 C   0  0  0  0  0  0  0  0  0  0  0  0
    3.2080   67.8970   65.5480 C   0  0  0  0  0  0  0  0  0  0  0  0
    2.3990   66.7470   65.5100 C   0  0  0  0  0  0  0  0  0  0  0  0
    2.5910   65.7460   64.5510 C   0  0  0  0  0  0  0  0  0  0  0  0
    3.6020   65.8680   63.6060 C   0  0  0  0  0  0  0  0  0  0  0  0
    4.4260   66.9890   63.6230 C   0  0  0  0  0  0  0  0  0  0  0  0
    1.7080   69.0600   67.1720 C   0  0  0  0  0  0  0  0  0  0  0  0
    0.5430   68.8780   66.1820 C   0  0  0  0  0  0  0  0  0  0  0  0
   -0.8340   69.0710   66.8190 C   0  0  0  0  0  0  0  0  0  0  0  0
   -3.0220   68.7460   65.6510 C   0  0  0  0  0  0  0  0  0  0  0  0
   -1.8480   68.0790   66.3090 N   0  0  0  0  0  4  0  0  0  0  0  0
   -2.2900   67.0740   67.3340 C   0  0  0  0  0  0  0  0  0  0  0  0
    3.3391   69.9422   69.0203 H   0  0  0  0  0  0  0  0  0  0  0  0
    5.2446   71.3081   69.8363 H   0  0  0  0  0  0  0  0  0  0  0  0
    7.1414   71.8544   68.3187 H   0  0  0  0  0  0  0  0  0  0  0  0
    7.1421   70.9854   65.9827 H   0  0  0  0  0  0  0  0  0  0  0  0
    1.5956   66.6316   66.2524 H   0  0  0  0  0  0  0  0  0  0  0  0
    1.9394   64.8598   64.5454 H   0  0  0  0  0  0  0  0  0  0  0  0
    3.7501   65.0835   62.8493 H   0  0  0  0  0  0  0  0  0  0  0  0
    5.2279   67.0897   62.8768 H   0  0  0  0  0  0  0  0  0  0  0  0
    1.6305   68.2926   67.9562 H   0  0  0  0  0  0  0  0  0  0  0  0
    1.6374   70.0722   67.5967 H   0  0  0  0  0  0  0  0  0  0  0  0
    0.6574   69.6120   65.3708 H   0  0  0  0  0  0  0  0  0  0  0  0
    0.5880   67.8417   65.8160 H   0  0  0  0  0  0  0  0  0  0  0  0
   -0.7392   68.9507   67.9083 H   0  0  0  0  0  0  0  0  0  0  0  0
   -1.1878   70.0782   66.5537 H   0  0  0  0  0  0  0  0  0  0  0  0
   -3.7036   69.1332   66.4227 H   0  0  0  0  0  0  0  0  0  0  0  0
   -2.6674   69.5775   65.0242 H   0  0  0  0  0  0  0  0  0  0  0  0
   -3.5547   68.0157   65.0242 H   0  0  0  0  0  0  0  0  0  0  0  0
   -1.3479   67.5419   65.5863 H   0  0  0  0  0  0  0  0  0  0  0  0
   -2.1130   67.4765   68.3423 H   0  0  0  0  0  0  0  0  0  0  0  0
   -3.3625   66.8663   67.2052 H   0  0  0  0  0  0  0  0  0  0  0  0
   -1.7182   66.1432   67.2052 H   0  0  0  0  0  0  0  0  0  0  0  0
  2  1  1  0
  3  2  2  0
  4  3  1  0
  5  4  2  0
  6  5  1  0
  7  6  2  0
  7  2  1  0
  8  7  1  0
  9  8  1  0
 10  9  2  0
 10  1  1  0
 11 10  1  0
 12 11  2  0
 13 12  1  0
 14 13  2  0
 14  9  1  0
 15  1  1  0
 16 15  1  0
 17 16  1  0
 19 18  1  0
 19 17  1  0
 20 19  1  0
  3 21  1  0
  4 22  1  0
  5 23  1  0
  6 24  1  0
 11 25  1  0
 12 26  1  0
 13 27  1  0
 14 28  1  0
 15 29  1  0
 15 30  1  0
 16 31  1  0
 16 32  1  0
 17 33  1  0
 17 34  1  0
 18 35  1  0
 18 36  1  0
 18 37  1  0
 19 38  1  0
 20 39  1  0
 20 40  1  0
 20 41  1  0
M  CHG  1  19   1
M  END
>  <score>  (4) 
-8.627

$$$$
=
     RDKit          3D

 41 43  0  0  0  0  0  0  0  0999 V2000
    2.4660   69.0240   66.2800 N   0  0  0  0  0  0  0  0  0  0  0  0
    2.2790   68.9220   64.8730 C   0  0  0  0  0  0  0  0  0  0  0  0
    1.0210   69.0670   64.2580 C   0  0  0  0  0  0  0  0  0  0  0  0
    0.8610   68.9460   62.8730 C   0  0  0  0  0  0  0  0  0  0  0  0
    1.9570   68.6880   62.0620 C   0  0  0  0  0  0  0  0  0  0  0  0
    3.2190   68.5690   62.6340 C   0  0  0  0  0  0  0  0  0  0  0  0
    3.3850   68.6970   64.0210 C   0  0  0  0  0  0  0  0  0  0  0  0
    5.0380   68.5110   64.6680 S   0  0  0  0  0  0  0  0  0  0  0  0
    4.8910   69.4390   66.1870 C   0  0  0  0  0  0  0  0  0  0  0  0
    3.6490   69.5790   66.8480 C   0  0  0  0  0  0  0  0  0  0  0  0
    3.6460   70.2890   68.0630 C   0  0  0  0  0  0  0  0  0  0  0  0
    4.8230   70.8170   68.6060 C   0  0  0  0  0  0  0  0  0  0  0  0
    6.0340   70.6530   67.9460 C   0  0  0  0  0  0  0  0  0  0  0  0
    6.0690   69.9650   66.7370 C   0  0  0  0  0  0  0  0  0  0  0  0
    1.3100   68.7630   67.1670 C   0  0  0  0  0  0  0  0  0  0  0  0
    1.2200   67.2830   67.5790 C   0  0  0  0  0  0  0  0  0  0  0  0
    0.0950   66.9940   68.5750 C   0  0  0  0  0  0  0  0  0  0  0  0
   -0.3450   65.9980   70.8260 C   0  0  0  0  0  0  0  0  0  0  0  0
    0.4630   65.9180   69.5630 N   0  0  0  0  0  4  0  0  0  0  0  0
    1.9340   65.8320   69.8550 C   0  0  0  0  0  0  0  0  0  0  0  0
    0.1410   69.2810   64.8823 H   0  0  0  0  0  0  0  0  0  0  0  0
   -0.1378   69.0559   62.4254 H   0  0  0  0  0  0  0  0  0  0  0  0
    1.8286   68.5784   60.9750 H   0  0  0  0  0  0  0  0  0  0  0  0
    4.0925   68.3733   61.9948 H   0  0  0  0  0  0  0  0  0  0  0  0
    2.6960   70.4324   68.5987 H   0  0  0  0  0  0  0  0  0  0  0  0
    4.7888   71.3642   69.5596 H   0  0  0  0  0  0  0  0  0  0  0  0
    6.9592   71.0642   68.3761 H   0  0  0  0  0  0  0  0  0  0  0  0
    7.0255   69.8330   66.2100 H   0  0  0  0  0  0  0  0  0  0  0  0
    1.4121   69.3780   68.0733 H   0  0  0  0  0  0  0  0  0  0  0  0
    0.3939   69.0173   66.6137 H   0  0  0  0  0  0  0  0  0  0  0  0
    1.0484   66.6798   66.6753 H   0  0  0  0  0  0  0  0  0  0  0  0
    2.1668   67.0278   68.0774 H   0  0  0  0  0  0  0  0  0  0  0  0
   -0.1332   67.9174   69.1275 H   0  0  0  0  0  0  0  0  0  0  0  0
   -0.7755   66.6399   68.0032 H   0  0  0  0  0  0  0  0  0  0  0  0
    0.3258   65.9316   71.6953 H   0  0  0  0  0  0  0  0  0  0  0  0
   -0.8879   66.9543   70.8540 H   0  0  0  0  0  0  0  0  0  0  0  0
   -1.0649   65.1667   70.8540 H   0  0  0  0  0  0  0  0  0  0  0  0
    0.2185   65.0356   69.0913 H   0  0  0  0  0  0  0  0  0  0  0  0
    2.0918   65.8228   70.9436 H   0  0  0  0  0  0  0  0  0  0  0  0
    2.3413   64.9085   69.4176 H   0  0  0  0  0  0  0  0  0  0  0  0
    2.4461   66.7017   69.4176 H   0  0  0  0  0  0  0  0  0  0  0  0
  2  1  1  0
  3  2  2  0
  4  3  1  0
  5  4  2  0
  6  5  1  0
  7  6  2  0
  7  2  1  0
  8  7  1  0
  9  8  1  0
 10  9  2  0
 10  1  1  0
 11 10  1  0
 12 11  2  0
 13 12  1  0
 14 13  2  0
 14  9  1  0
 15  1  1  0
 16 15  1  0
 17 16  1  0
 19 18  1  0
 19 17  1  0
 20 19  1  0
  3 21  1  0
  4 22  1  0
  5 23  1  0
  6 24  1  0
 11 25  1  0
 12 26  1  0
 13 27  1  0
 14 28  1  0
 15 29  1  0
 15 30  1  0
 16 31  1  0
 16 32  1  0
 17 33  1  0
 17 34  1  0
 18 35  1  0
 18 36  1  0
 18 37  1  0
 19 38  1  0
 20 39  1  0
 20 40  1  0
 20 41  1  0
M  CHG  1  19   1
M  END
>  <score>  (5) 
-8.485

$$$$
=
     RDKit          3D

 41 43  0  0  0  0  0  0  0  0999 V2000
    3.7100   68.7350   64.7410 N   0  0  0  0  0  0  0  0  0  0  0  0
    3.9940   69.3290   66.0030 C   0  0  0  0  0  0  0  0  0  0  0  0
    5.2430   69.9010   66.3130 C   0  0  0  0  0  0  0  0  0  0  0  0
    5.5030   70.4640   67.5670 C   0  0  0  0  0  0  0  0  0  0  0  0
    4.5160   70.4840   68.5430 C   0  0  0  0  0  0  0  0  0  0  0  0
    3.2610   69.9550   68.2590 C   0  0  0  0  0  0  0  0  0  0  0  0
    2.9950   69.3960   67.0010 C   0  0  0  0  0  0  0  0  0  0  0  0
    1.3630   68.7240   66.7330 S   0  0  0  0  0  0  0  0  0  0  0  0
    1.2600   68.8410   64.9540 C   0  0  0  0  0  0  0  0  0  0  0  0
    2.4190   68.8070   64.1440 C   0  0  0  0  0  0  0  0  0  0  0  0
    2.2290   68.8580   62.7510 C   0  0  0  0  0  0  0  0  0  0  0  0
    0.9500   68.9190   62.1870 C   0  0  0  0  0  0  0  0  0  0  0  0
   -0.1750   68.9350   63.0030 C   0  0  0  0  0  0  0  0  0  0  0  0
   -0.0210   68.8970   64.3850 C   0  0  0  0  0  0  0  0  0  0  0  0
    4.8400   68.2340   63.9260 C   0  0  0  0  0  0  0  0  0  0  0  0
    4.3620   67.5850   62.6140 C   0  0  0  0  0  0  0  0  0  0  0  0
    4.3420   66.0560   62.6620 C   0  0  0  0  0  0  0  0  0  0  0  0
    5.0640   64.2900   64.2790 C   0  0  0  0  0  0  0  0  0  0  0  0
    4.2370   65.5260   64.0690 N   0  0  0  0  0  4  0  0  0  0  0  0
    2.8270   65.3310   64.5460 C   0  0  0  0  0  0  0  0  0  0  0  0
    6.0347   69.9052   65.5493 H   0  0  0  0  0  0  0  0  0  0  0  0
    6.4934   70.8925   67.7805 H   0  0  0  0  0  0  0  0  0  0  0  0
    4.7246   70.9148   69.5334 H   0  0  0  0  0  0  0  0  0  0  0  0
    2.4727   69.9754   69.0260 H   0  0  0  0  0  0  0  0  0  0  0  0
    3.1075   68.8497   62.0890 H   0  0  0  0  0  0  0  0  0  0  0  0
    0.8344   68.9544   61.0937 H   0  0  0  0  0  0  0  0  0  0  0  0
   -1.1805   68.9774   62.5589 H   0  0  0  0  0  0  0  0  0  0  0  0
   -0.9083   68.9109   65.0350 H   0  0  0  0  0  0  0  0  0  0  0  0
    5.5043   69.0767   63.6839 H   0  0  0  0  0  0  0  0  0  0  0  0
    5.3676   67.4669   64.5119 H   0  0  0  0  0  0  0  0  0  0  0  0
    3.3429   67.9401   62.4009 H   0  0  0  0  0  0  0  0  0  0  0  0
    5.0771   67.8750   61.8300 H   0  0  0  0  0  0  0  0  0  0  0  0
    3.4785   65.6958   62.0836 H   0  0  0  0  0  0  0  0  0  0  0  0
    5.2906   65.6950   62.2378 H   0  0  0  0  0  0  0  0  0  0  0  0
    5.1853   64.1088   65.3572 H   0  0  0  0  0  0  0  0  0  0  0  0
    4.5598   63.4285   63.8168 H   0  0  0  0  0  0  0  0  0  0  0  0
    6.0527   64.4274   63.8168 H   0  0  0  0  0  0  0  0  0  0  0  0
    4.6326   66.2716   64.6593 H   0  0  0  0  0  0  0  0  0  0  0  0
    2.8090   65.3285   65.6459 H   0  0  0  0  0  0  0  0  0  0  0  0
    2.1964   66.1505   64.1708 H   0  0  0  0  0  0  0  0  0  0  0  0
    2.4424   64.3711   64.1708 H   0  0  0  0  0  0  0  0  0  0  0  0
  2  1  1  0
  3  2  2  0
  4  3  1  0
  5  4  2  0
  6  5  1  0
  7  6  2  0
  7  2  1  0
  8  7  1  0
  9  8  1  0
 10  9  2  0
 10  1  1  0
 11 10  1  0
 12 11  2  0
 13 12  1  0
 14 13  2  0
 14  9  1  0
 15  1  1  0
 16 15  1  0
 17 16  1  0
 19 18  1  0
 19 17  1  0
 20 19  1  0
  3 21  1  0
  4 22  1  0
  5 23  1  0
  6 24  1  0
 11 25  1  0
 12 26  1  0
 13 27  1  0
 14 28  1  0
 15 29  1  0
 15 30  1  0
 16 31  1  0
 16 32  1  0
 17 33  1  0
 17 34  1  0
 18 35  1  0
 18 36  1  0
 18 37  1  0
 19 38  1  0
 20 39  1  0
 20 40  1  0
 20 41  1  0
M  CHG  1  19   1
M  END
>  <score>  (6) 
-8.131

$$$$
=
     RDKit          3D

 41 43  0  0  0  0  0  0  0  0999 V2000
    2.2880   67.5450   64.6830 N   0  0  0  0  0  0  0  0  0  0  0  0
    3.0430   66.3520   64.4950 C   0  0  0  0  0  0  0  0  0  0  0  0
    2.9840   65.2640   65.3860 C   0  0  0  0  0  0  0  0  0  0  0  0
    3.7490   64.1090   65.1880 C   0  0  0  0  0  0  0  0  0  0  0  0
    4.5850   64.0050   64.0850 C   0  0  0  0  0  0  0  0  0  0  0  0
    4.6430   65.0490   63.1690 C   0  0  0  0  0  0  0  0  0  0  0  0
    3.8730   66.2050   63.3600 C   0  0  0  0  0  0  0  0  0  0  0  0
    4.0260   67.5010   62.1430 S   0  0  0  0  0  0  0  0  0  0  0  0
    2.4540   68.3220   62.3540 C   0  0  0  0  0  0  0  0  0  0  0  0
    1.7640   68.2890   63.5870 C   0  0  0  0  0  0  0  0  0  0  0  0
    0.5560   69.0060   63.6660 C   0  0  0  0  0  0  0  0  0  0  0  0
    0.0660   69.7390   62.5790 C   0  0  0  0  0  0  0  0  0  0  0  0
    0.7710   69.7700   61.3810 C   0  0  0  0  0  0  0  0  0  0  0  0
    1.9630   69.0620   61.2680 C   0  0  0  0  0  0  0  0  0  0  0  0
    1.8400   67.8890   66.0510 C   0  0  0  0  0  0  0  0  0  0  0  0
    0.3590   67.5350   66.2800 C   0  0  0  0  0  0  0  0  0  0  0  0
   -0.3520   68.4820   67.2480 C   0  0  0  0  0  0  0  0  0  0  0  0
   -2.4060   67.0920   67.5760 C   0  0  0  0  0  0  0  0  0  0  0  0
   -1.8520   68.4130   67.1230 N   0  0  0  0  0  4  0  0  0  0  0  0
   -2.3720   68.7900   65.7650 C   0  0  0  0  0  0  0  0  0  0  0  0
    2.3194   65.3231   66.2606 H   0  0  0  0  0  0  0  0  0  0  0  0
    3.6875   63.2806   65.9091 H   0  0  0  0  0  0  0  0  0  0  0  0
    5.1971   63.1032   63.9368 H   0  0  0  0  0  0  0  0  0  0  0  0
    5.2973   64.9676   62.2885 H   0  0  0  0  0  0  0  0  0  0  0  0
   -0.0172   68.9901   64.6047 H   0  0  0  0  0  0  0  0  0  0  0  0
   -0.8800   70.2924   62.6728 H   0  0  0  0  0  0  0  0  0  0  0  0
    0.3887   70.3504   60.5284 H   0  0  0  0  0  0  0  0  0  0  0  0
    2.5237   69.0825   60.3219 H   0  0  0  0  0  0  0  0  0  0  0  0
    2.4538   67.3339   66.7756 H   0  0  0  0  0  0  0  0  0  0  0  0
    1.9535   68.9752   66.1822 H   0  0  0  0  0  0  0  0  0  0  0  0
   -0.1615   67.5717   65.3116 H   0  0  0  0  0  0  0  0  0  0  0  0
    0.3320   66.5318   66.7304 H   0  0  0  0  0  0  0  0  0  0  0  0
   -0.0706   68.2121   68.2766 H   0  0  0  0  0  0  0  0  0  0  0  0
   -0.0422   69.5081   67.0009 H   0  0  0  0  0  0  0  0  0  0  0  0
   -2.4203   67.0580   68.6754 H   0  0  0  0  0  0  0  0  0  0  0  0
   -3.4299   66.9728   67.1921 H   0  0  0  0  0  0  0  0  0  0  0  0
   -1.7734   66.2781   67.1921 H   0  0  0  0  0  0  0  0  0  0  0  0
   -2.2005   69.1364   67.7681 H   0  0  0  0  0  0  0  0  0  0  0  0
   -3.2579   69.4323   65.8770 H   0  0  0  0  0  0  0  0  0  0  0  0
   -1.5922   69.3340   65.2118 H   0  0  0  0  0  0  0  0  0  0  0  0
   -2.6466   67.8797   65.2118 H   0  0  0  0  0  0  0  0  0  0  0  0
  2  1  1  0
  3  2  2  0
  4  3  1  0
  5  4  2  0
  6  5  1  0
  7  6  2  0
  7  2  1  0
  8  7  1  0
  9  8  1  0
 10  9  2  0
 10  1  1  0
 11 10  1  0
 12 11  2  0
 13 12  1  0
 14 13  2  0
 14  9  1  0
 15  1  1  0
 16 15  1  0
 17 16  1  0
 19 18  1  0
 19 17  1  0
 20 19  1  0
  3 21  1  0
  4 22  1  0
  5 23  1  0
  6 24  1  0
 11 25  1  0
 12 26  1  0
 13 27  1  0
 14 28  1  0
 15 29  1  0
 15 30  1  0
 16 31  1  0
 16 32  1  0
 17 33  1  0
 17 34  1  0
 18 35  1  0
 18 36  1  0
 18 37  1  0
 19 38  1  0
 20 39  1  0
 20 40  1  0
 20 41  1  0
M  CHG  1  19   1
M  END
>  <score>  (7) 
-8.072

$$$$
=
     RDKit          3D

 41 43  0  0  0  0  0  0  0  0999 V2000
    1.8330   67.4360   64.6060 N   0  0  0  0  0  0  0  0  0  0  0  0
    2.7580   66.3760   64.3850 C   0  0  0  0  0  0  0  0  0  0  0  0
    2.7580   65.1930   65.1470 C   0  0  0  0  0  0  0  0  0  0  0  0
    3.6890   64.1730   64.9210 C   0  0  0  0  0  0  0  0  0  0  0  0
    4.6380   64.3020   63.9170 C   0  0  0  0  0  0  0  0  0  0  0  0
    4.6460   65.4450   63.1250 C   0  0  0  0  0  0  0  0  0  0  0  0
    3.7110   66.4670   63.3440 C   0  0  0  0  0  0  0  0  0  0  0  0
    3.8080   67.9050   62.2920 S   0  0  0  0  0  0  0  0  0  0  0  0
    2.1260   68.4940   62.4030 C   0  0  0  0  0  0  0  0  0  0  0  0
    1.3260   68.2320   63.5380 C   0  0  0  0  0  0  0  0  0  0  0  0
    0.0310   68.7800   63.5500 C   0  0  0  0  0  0  0  0  0  0  0  0
   -0.4420   69.5680   62.4950 C   0  0  0  0  0  0  0  0  0  0  0  0
    0.3690   69.8250   61.3960 C   0  0  0  0  0  0  0  0  0  0  0  0
    1.6510   69.2890   61.3490 C   0  0  0  0  0  0  0  0  0  0  0  0
    1.2060   67.5590   65.9410 C   0  0  0  0  0  0  0  0  0  0  0  0
    2.2130   68.0150   67.0120 C   0  0  0  0  0  0  0  0  0  0  0  0
    1.9650   69.4380   67.5160 C   0  0  0  0  0  0  0  0  0  0  0  0
    4.3510   69.7030   66.8140 C   0  0  0  0  0  0  0  0  0  0  0  0
    3.2420   70.2200   67.6860 N   0  0  0  0  0  4  0  0  0  0  0  0
    3.6860   70.3640   69.1130 C   0  0  0  0  0  0  0  0  0  0  0  0
    2.0069   65.0668   65.9407 H   0  0  0  0  0  0  0  0  0  0  0  0
    3.6684   63.2652   65.5419 H   0  0  0  0  0  0  0  0  0  0  0  0
    5.3784   63.5061   63.7488 H   0  0  0  0  0  0  0  0  0  0  0  0
    5.3904   65.5481   62.3217 H   0  0  0  0  0  0  0  0  0  0  0  0
   -0.6263   68.5843   64.4100 H   0  0  0  0  0  0  0  0  0  0  0  0
   -1.4589   69.9854   62.5355 H   0  0  0  0  0  0  0  0  0  0  0  0
   -0.0010   70.4484   60.5687 H   0  0  0  0  0  0  0  0  0  0  0  0
    2.2963   69.4893   60.4809 H   0  0  0  0  0  0  0  0  0  0  0  0
    0.3908   68.2953   65.8838 H   0  0  0  0  0  0  0  0  0  0  0  0
    0.8277   66.5676   66.2310 H   0  0  0  0  0  0  0  0  0  0  0  0
    2.1475   67.3263   67.8672 H   0  0  0  0  0  0  0  0  0  0  0  0
    3.2087   68.0061   66.5447 H   0  0  0  0  0  0  0  0  0  0  0  0
    1.3240   69.9621   66.7919 H   0  0  0  0  0  0  0  0  0  0  0  0
    1.4839   69.3644   68.5025 H   0  0  0  0  0  0  0  0  0  0  0  0
    5.1672   69.3225   67.4458 H   0  0  0  0  0  0  0  0  0  0  0  0
    3.9694   68.8900   66.1789 H   0  0  0  0  0  0  0  0  0  0  0  0
    4.7284   70.5180   66.1789 H   0  0  0  0  0  0  0  0  0  0  0  0
    3.0107   71.1716   67.3668 H   0  0  0  0  0  0  0  0  0  0  0  0
    2.8568   70.0951   69.7839 H   0  0  0  0  0  0  0  0  0  0  0  0
    4.5403   69.6969   69.3003 H   0  0  0  0  0  0  0  0  0  0  0  0
    3.9862   71.4055   69.3003 H   0  0  0  0  0  0  0  0  0  0  0  0
  2  1  1  0
  3  2  2  0
  4  3  1  0
  5  4  2  0
  6  5  1  0
  7  6  2  0
  7  2  1  0
  8  7  1  0
  9  8  1  0
 10  9  2  0
 10  1  1  0
 11 10  1  0
 12 11  2  0
 13 12  1  0
 14 13  2  0
 14  9  1  0
 15  1  1  0
 16 15  1  0
 17 16  1  0
 19 18  1  0
 19 17  1  0
 20 19  1  0
  3 21  1  0
  4 22  1  0
  5 23  1  0
  6 24  1  0
 11 25  1  0
 12 26  1  0
 13 27  1  0
 14 28  1  0
 15 29  1  0
 15 30  1  0
 16 31  1  0
 16 32  1  0
 17 33  1  0
 17 34  1  0
 18 35  1  0
 18 36  1  0
 18 37  1  0
 19 38  1  0
 20 39  1  0
 20 40  1  0
 20 41  1  0
M  CHG  1  19   1
M  END
>  <score>  (8) 
-8.005

$$$$
=
     RDKit          3D

 41 43  0  0  0  0  0  0  0  0999 V2000
    2.2050   68.7210   66.5920 N   0  0  0  0  0  0  0  0  0  0  0  0
    2.3900   68.7330   65.1810 C   0  0  0  0  0  0  0  0  0  0  0  0
    3.6620   68.7360   64.5780 C   0  0  0  0  0  0  0  0  0  0  0  0
    3.8170   68.7650   63.1880 C   0  0  0  0  0  0  0  0  0  0  0  0
    2.7040   68.7780   62.3600 C   0  0  0  0  0  0  0  0  0  0  0  0
    1.4320   68.7440   62.9220 C   0  0  0  0  0  0  0  0  0  0  0  0
    1.2720   68.7080   64.3150 C   0  0  0  0  0  0  0  0  0  0  0  0
   -0.3970   68.6860   64.9470 S   0  0  0  0  0  0  0  0  0  0  0  0
   -0.1230   67.9230   66.5390 C   0  0  0  0  0  0  0  0  0  0  0  0
    1.1180   68.0360   67.2070 C   0  0  0  0  0  0  0  0  0  0  0  0
    1.2180   67.4400   68.4780 C   0  0  0  0  0  0  0  0  0  0  0  0
    0.1330   66.7800   69.0660 C   0  0  0  0  0  0  0  0  0  0  0  0
   -1.0820   66.6960   68.3960 C   0  0  0  0  0  0  0  0  0  0  0  0
   -1.2100   67.2660   67.1340 C   0  0  0  0  0  0  0  0  0  0  0  0
    3.2960   69.2330   67.4520 C   0  0  0  0  0  0  0  0  0  0  0  0
    2.8040   70.3270   68.4170 C   0  0  0  0  0  0  0  0  0  0  0  0
    3.9350   71.1700   69.0110 C   0  0  0  0  0  0  0  0  0  0  0  0
    6.1670   70.5280   69.9400 C   0  0  0  0  0  0  0  0  0  0  0  0
    5.2970   70.5940   68.7180 N   0  0  0  0  0  4  0  0  0  0  0  0
    6.0070   71.2560   67.5720 C   0  0  0  0  0  0  0  0  0  0  0  0
    4.5575   68.7150   65.2165 H   0  0  0  0  0  0  0  0  0  0  0  0
    4.8258   68.7776   62.7496 H   0  0  0  0  0  0  0  0  0  0  0  0
    2.8264   68.8149   61.2675 H   0  0  0  0  0  0  0  0  0  0  0  0
    0.5461   68.7454   62.2699 H   0  0  0  0  0  0  0  0  0  0  0  0
    2.1722   67.4942   69.0225 H   0  0  0  0  0  0  0  0  0  0  0  0
    0.2421   66.3261   70.0620 H   0  0  0  0  0  0  0  0  0  0  0  0
   -1.9364   66.1822   68.8608 H   0  0  0  0  0  0  0  0  0  0  0  0
   -2.1692   67.2012   66.5994 H   0  0  0  0  0  0  0  0  0  0  0  0
    3.7060   68.3987   68.0401 H   0  0  0  0  0  0  0  0  0  0  0  0
    4.0638   69.6750   66.8000 H   0  0  0  0  0  0  0  0  0  0  0  0
    2.1231   70.9946   67.8687 H   0  0  0  0  0  0  0  0  0  0  0  0
    2.3044   69.8188   69.2550 H   0  0  0  0  0  0  0  0  0  0  0  0
    3.8811   72.1830   68.5858 H   0  0  0  0  0  0  0  0  0  0  0  0
    3.8048   71.1834   70.1032 H   0  0  0  0  0  0  0  0  0  0  0  0
    5.5378   70.5757   70.8410 H   0  0  0  0  0  0  0  0  0  0  0  0
    6.7323   69.5844   69.9371 H   0  0  0  0  0  0  0  0  0  0  0  0
    6.8682   71.3755   69.9371 H   0  0  0  0  0  0  0  0  0  0  0  0
    5.1125   69.6274   68.4138 H   0  0  0  0  0  0  0  0  0  0  0  0
    6.7591   71.9573   67.9625 H   0  0  0  0  0  0  0  0  0  0  0  0
    6.5034   70.4909   66.9571 H   0  0  0  0  0  0  0  0  0  0  0  0
    5.2785   71.8047   66.9571 H   0  0  0  0  0  0  0  0  0  0  0  0
  2  1  1  0
  3  2  2  0
  4  3  1  0
  5  4  2  0
  6  5  1  0
  7  6  2  0
  7  2  1  0
  8  7  1  0
  9  8  1  0
 10  9  2  0
 10  1  1  0
 11 10  1  0
 12 11  2  0
 13 12  1  0
 14 13  2  0
 14  9  1  0
 15  1  1  0
 16 15  1  0
 17 16  1  0
 19 18  1  0
 19 17  1  0
 20 19  1  0
  3 21  1  0
  4 22  1  0
  5 23  1  0
  6 24  1  0
 11 25  1  0
 12 26  1  0
 13 27  1  0
 14 28  1  0
 15 29  1  0
 15 30  1  0
 16 31  1  0
 16 32  1  0
 17 33  1  0
 17 34  1  0
 18 35  1  0
 18 36  1  0
 18 37  1  0
 19 38  1  0
 20 39  1  0
 20 40  1  0
 20 41  1  0
M  CHG  1  19   1
M  END
>  <score>  (9) 
-7.932

$$$$
