=
     RDKit          3D

 41 43  0  0  0  0  0  0  0  0999 V2000
    3.7470   68.0110   63.8990 C   0  0  2  0  0  0  0  0  0  0  0  0
    2.4440   67.3070   63.8210 O   0  0  0  0  0  0  0  0  0  0  0  0
    1.2930   68.0630   64.2330 C   0  0  0  0  0  0  0  0  0  0  0  0
    1.3320   68.4100   65.7260 C   0  0  0  0  0  0  0  0  0  0  0  0
    2.6760   68.9260   66.0740 C   0  0  0  0  0  0  0  0  0  0  0  0
    3.7490   68.6990   65.2390 C   0  0  0  0  0  0  0  0  0  0  0  0
    4.8660   69.1880   65.8630 N   0  0  0  0  0  0  0  0  0  0  0  0
    4.5260   69.7900   67.0570 C   0  0  0  0  0  0  0  0  0  0  0  0
    3.1460   69.6320   67.2150 C   0  0  0  0  0  0  0  0  0  0  0  0
    2.5350   70.1340   68.3790 C   0  0  0  0  0  0  0  0  0  0  0  0
    3.3190   70.7780   69.3400 C   0  0  0  0  0  0  0  0  0  0  0  0
    4.6930   70.9210   69.1570 C   0  0  0  0  0  0  0  0  0  0  0  0
    5.3420   70.4330   68.0060 C   0  0  0  0  0  0  0  0  0  0  0  0
    3.4480   68.4890   61.3200 C   0  0  0  0  0  0  0  0  0  0  0  0
    3.7690   69.0120   62.7110 C   0  0  0  0  0  0  0  0  0  0  0  0
    6.8340   70.5750   67.8480 C   0  0  0  0  0  0  0  0  0  0  0  0
    7.5110   70.9020   69.1710 C   0  0  0  0  0  0  0  0  0  0  0  0
    4.7730   66.8780   63.7780 C   0  0  0  0  0  0  0  0  0  0  0  0
    4.3410   65.4200   63.6500 C   0  0  0  0  0  0  0  0  0  0  0  0
    4.2360   64.7610   64.7260 O   0  0  0  0  0  0  0  0  0  0  0  0
    4.1250   65.0300   62.4680 O   0  0  0  0  0  1  0  0  0  0  0  0
    1.2565   68.9970   63.6531 H   0  0  0  0  0  0  0  0  0  0  0  0
    0.4010   67.4450   64.0532 H   0  0  0  0  0  0  0  0  0  0  0  0
    0.5756   69.1782   65.9445 H   0  0  0  0  0  0  0  0  0  0  0  0
    1.1185   67.5087   66.3193 H   0  0  0  0  0  0  0  0  0  0  0  0
    5.8246   69.1164   65.4930 H   0  0  0  0  0  0  0  0  0  0  0  0
    1.4514   70.0207   68.5309 H   0  0  0  0  0  0  0  0  0  0  0  0
    2.8467   71.1761   70.2502 H   0  0  0  0  0  0  0  0  0  0  0  0
    5.2865   71.4284   69.9318 H   0  0  0  0  0  0  0  0  0  0  0  0
    2.8742   67.5542   61.4031 H   0  0  0  0  0  0  0  0  0  0  0  0
    2.8533   69.2370   60.7752 H   0  0  0  0  0  0  0  0  0  0  0  0
    4.3842   68.2974   60.7752 H   0  0  0  0  0  0  0  0  0  0  0  0
    4.7787   69.4465   62.6703 H   0  0  0  0  0  0  0  0  0  0  0  0
    2.9507   69.7130   62.9323 H   0  0  0  0  0  0  0  0  0  0  0  0
    7.2433   69.6297   67.4621 H   0  0  0  0  0  0  0  0  0  0  0  0
    7.0279   71.4025   67.1496 H   0  0  0  0  0  0  0  0  0  0  0  0
    6.8622   70.5886   70.0022 H   0  0  0  0  0  0  0  0  0  0  0  0
    8.4707   70.3681   69.2336 H   0  0  0  0  0  0  0  0  0  0  0  0
    7.6895   71.9856   69.2336 H   0  0  0  0  0  0  0  0  0  0  0  0
    5.3781   67.1015   62.8870 H   0  0  0  0  0  0  0  0  0  0  0  0
    5.2597   66.8941   64.7643 H   0  0  0  0  0  0  0  0  0  0  0  0
  2  1  1  0
  3  2  1  0
  4  3  1  0
  5  4  1  0
  6  1  1  0
  6  5  2  0
  7  6  1  0
  8  7  1  0
  9  8  2  0
  9  5  1  0
 10  9  1  0
 11 10  2  0
 12 11  1  0
 13  8  1  0
 13 12  2  0
 15 14  1  0
  1 15  1  6
 16 13  1  0
 17 16  1  0
 18  1  1  0
 19 18  1  0
 20 19  2  0
 21 19  1  0
  3 22  1  0
  3 23  1  0
  4 24  1  0
  4 25  1  0
  7 26  1  0
 10 27  1  0
 11 28  1  0
 12 29  1  0
 14 30  1  0
 14 31  1  0
 14 32  1  0
 15 33  1  0
 15 34  1  0
 16 35  1  0
 16 36  1  0
 17 37  1  0
 17 38  1  0
 17 39  1  0
 18 40  1  0
 18 41  1  0
M  CHG  1  21  -1
M  END
>  <score>  (1) 
-10.383

$$$$
=
     RDKit          3D

 41 43  0  0  0  0  0  0  0  0999 V2000
    2.8200   68.3520   63.4910 C   0  0  2  0  0  0  0  0  0  0  0  0
    3.6450   68.5840   62.2820 O   0  0  0  0  0  0  0  0  0  0  0  0
    5.0460   68.2910   62.4080 C   0  0  0  0  0  0  0  0  0  0  0  0
    5.7460   69.2250   63.4040 C   0  0  0  0  0  0  0  0  0  0  0  0
    4.9320   69.3240   64.6370 C   0  0  0  0  0  0  0  0  0  0  0  0
    3.6060   68.9500   64.6300 C   0  0  0  0  0  0  0  0  0  0  0  0
    3.0870   69.2510   65.8610 N   0  0  0  0  0  0  0  0  0  0  0  0
    4.0720   69.7500   66.6890 C   0  0  0  0  0  0  0  0  0  0  0  0
    5.2470   69.8110   65.9350 C   0  0  0  0  0  0  0  0  0  0  0  0
    6.4130   70.3180   66.5360 C   0  0  0  0  0  0  0  0  0  0  0  0
    6.3680   70.7430   67.8670 C   0  0  0  0  0  0  0  0  0  0  0  0
    5.1820   70.6720   68.5960 C   0  0  0  0  0  0  0  0  0  0  0  0
    3.9930   70.1700   68.0300 C   0  0  0  0  0  0  0  0  0  0  0  0
    2.7130   66.1920   65.0060 C   0  0  0  0  0  0  0  0  0  0  0  0
    2.6600   66.8120   63.6170 C   0  0  0  0  0  0  0  0  0  0  0  0
    2.7180   70.1330   68.8330 C   0  0  0  0  0  0  0  0  0  0  0  0
    1.9700   68.8220   68.6400 C   0  0  0  0  0  0  0  0  0  0  0  0
    1.5130   69.0910   63.1810 C   0  0  0  0  0  0  0  0  0  0  0  0
    0.1890   68.6690   63.8100 C   0  0  0  0  0  0  0  0  0  0  0  0
    0.1220   68.7080   65.0740 O   0  0  0  0  0  0  0  0  0  0  0  0
   -0.7080   68.3290   62.9880 O   0  0  0  0  0  1  0  0  0  0  0  0
    5.1612   67.2533   62.7543 H   0  0  0  0  0  0  0  0  0  0  0  0
    5.5118   68.4380   61.4224 H   0  0  0  0  0  0  0  0  0  0  0  0
    6.7391   68.8213   63.6507 H   0  0  0  0  0  0  0  0  0  0  0  0
    5.8593   70.2232   62.9560 H   0  0  0  0  0  0  0  0  0  0  0  0
    2.1012   69.1231   66.1307 H   0  0  0  0  0  0  0  0  0  0  0  0
    7.3509   70.3795   65.9645 H   0  0  0  0  0  0  0  0  0  0  0  0
    7.2775   71.1374   68.3438 H   0  0  0  0  0  0  0  0  0  0  0  0
    5.1739   71.0169   69.6405 H   0  0  0  0  0  0  0  0  0  0  0  0
    2.6452   66.9857   65.7646 H   0  0  0  0  0  0  0  0  0  0  0  0
    1.8712   65.4946   65.1286 H   0  0  0  0  0  0  0  0  0  0  0  0
    3.6610   65.6476   65.1286 H   0  0  0  0  0  0  0  0  0  0  0  0
    3.4639   66.3515   63.0240 H   0  0  0  0  0  0  0  0  0  0  0  0
    1.6340   66.6167   63.2717 H   0  0  0  0  0  0  0  0  0  0  0  0
    2.9642   70.2495   69.8987 H   0  0  0  0  0  0  0  0  0  0  0  0
    2.0703   70.9519   68.4866 H   0  0  0  0  0  0  0  0  0  0  0  0
    1.7246   68.3918   69.6222 H   0  0  0  0  0  0  0  0  0  0  0  0
    1.0423   69.0083   68.0791 H   0  0  0  0  0  0  0  0  0  0  0  0
    2.6025   68.1181   68.0791 H   0  0  0  0  0  0  0  0  0  0  0  0
    1.6736   70.1399   63.4708 H   0  0  0  0  0  0  0  0  0  0  0  0
    1.3550   68.8551   62.1183 H   0  0  0  0  0  0  0  0  0  0  0  0
  2  1  1  0
  3  2  1  0
  4  3  1  0
  5  4  1  0
  6  1  1  0
  6  5  2  0
  7  6  1  0
  8  7  1  0
  9  8  2  0
  9  5  1  0
 10  9  1  0
 11 10  2  0
 12 11  1  0
 13  8  1  0
 13 12  2  0
 15 14  1  0
  1 15  1  1
 16 13  1  0
 17 16  1  0
 18  1  1  0
 19 18  1  0
 20 19  2  0
 21 19  1  0
  3 22  1  0
  3 23  1  0
  4 24  1  0
  4 25  1  0
  7 26  1  0
 10 27  1  0
 11 28  1  0
 12 29  1  0
 14 30  1  0
 14 31  1  0
 14 32  1  0
 15 33  1  0
 15 34  1  0
 16 35  1  0
 16 36  1  0
 17 37  1  0
 17 38  1  0
 17 39  1  0
 18 40  1  0
 18 41  1  0
M  CHG  1  21  -1
M  END
>  <score>  (2) 
-9.856

$$$$
=
     RDKit          3D

 41 43  0  0  0  0  0  0  0  0999 V2000
    1.0020   67.9850   64.8430 C   0  0  2  0  0  0  0  0  0  0  0  0
   -0.2010   67.5420   65.5890 O   0  0  0  0  0  0  0  0  0  0  0  0
   -0.7560   68.4930   66.5130 C   0  0  0  0  0  0  0  0  0  0  0  0
    0.1980   68.7940   67.6760 C   0  0  0  0  0  0  0  0  0  0  0  0
    1.5580   69.0390   67.1450 C   0  0  0  0  0  0  0  0  0  0  0  0
    1.8930   68.6310   65.8710 C   0  0  0  0  0  0  0  0  0  0  0  0
    3.2270   68.8860   65.6960 N   0  0  0  0  0  0  0  0  0  0  0  0
    3.7470   69.5160   66.8080 C   0  0  0  0  0  0  0  0  0  0  0  0
    2.7110   69.6180   67.7410 C   0  0  0  0  0  0  0  0  0  0  0  0
    2.9800   70.2020   68.9930 C   0  0  0  0  0  0  0  0  0  0  0  0
    4.2690   70.6650   69.2690 C   0  0  0  0  0  0  0  0  0  0  0  0
    5.2840   70.5490   68.3210 C   0  0  0  0  0  0  0  0  0  0  0  0
    5.0560   69.9720   67.0570 C   0  0  0  0  0  0  0  0  0  0  0  0
    1.1550   68.9670   62.3970 C   0  0  0  0  0  0  0  0  0  0  0  0
    0.4990   68.9900   63.7700 C   0  0  0  0  0  0  0  0  0  0  0  0
    6.1790   69.8330   66.0620 C   0  0  0  0  0  0  0  0  0  0  0  0
    5.6620   69.7810   64.6330 C   0  0  0  0  0  0  0  0  0  0  0  0
    1.5630   66.6810   64.2630 C   0  0  0  0  0  0  0  0  0  0  0  0
    2.9240   66.1390   64.6900 C   0  0  0  0  0  0  0  0  0  0  0  0
    2.9270   65.2810   65.6210 O   0  0  0  0  0  0  0  0  0  0  0  0
    3.9090   66.6080   64.0530 O   0  0  0  0  0  1  0  0  0  0  0  0
   -0.9654   69.4293   65.9749 H   0  0  0  0  0  0  0  0  0  0  0  0
   -1.6753   68.0592   66.9333 H   0  0  0  0  0  0  0  0  0  0  0  0
   -0.1515   69.6864   68.2159 H   0  0  0  0  0  0  0  0  0  0  0  0
    0.2210   67.9361   68.3641 H   0  0  0  0  0  0  0  0  0  0  0  0
    3.7662   68.6419   64.8531 H   0  0  0  0  0  0  0  0  0  0  0  0
    2.1837   70.2930   69.7464 H   0  0  0  0  0  0  0  0  0  0  0  0
    4.4849   71.1257   70.2443 H   0  0  0  0  0  0  0  0  0  0  0  0
    6.2906   70.9182   68.5669 H   0  0  0  0  0  0  0  0  0  0  0  0
    2.2481   68.9287   62.5135 H   0  0  0  0  0  0  0  0  0  0  0  0
    0.8140   68.0803   61.8425 H   0  0  0  0  0  0  0  0  0  0  0  0
    0.8770   69.8754   61.8425 H   0  0  0  0  0  0  0  0  0  0  0  0
    0.6375   70.0011   64.1804 H   0  0  0  0  0  0  0  0  0  0  0  0
   -0.5409   68.6862   63.5794 H   0  0  0  0  0  0  0  0  0  0  0  0
    6.8552   70.6945   66.1652 H   0  0  0  0  0  0  0  0  0  0  0  0
    6.7063   68.8903   66.2701 H   0  0  0  0  0  0  0  0  0  0  0  0
    4.5676   69.6709   64.6428 H   0  0  0  0  0  0  0  0  0  0  0  0
    5.9323   70.7109   64.1112 H   0  0  0  0  0  0  0  0  0  0  0  0
    6.1121   68.9236   64.1112 H   0  0  0  0  0  0  0  0  0  0  0  0
    0.8289   65.8960   64.4974 H   0  0  0  0  0  0  0  0  0  0  0  0
    1.7339   66.9453   63.2090 H   0  0  0  0  0  0  0  0  0  0  0  0
  2  1  1  0
  3  2  1  0
  4  3  1  0
  5  4  1  0
  6  1  1  0
  6  5  2  0
  7  6  1  0
  8  7  1  0
  9  8  2  0
  9  5  1  0
 10  9  1  0
 11 10  2  0
 12 11  1  0
 13  8  1  0
 13 12  2  0
 15 14  1  0
  1 15  1  6
 16 13  1  0
 17 16  1  0
 18  1  1  0
 19 18  1  0
 20 19  2  0
 21 19  1  0
  3 22  1  0
  3 23  1  0
  4 24  1  0
  4 25  1  0
  7 26  1  0
 10 27  1  0
 11 28  1  0
 12 29  1  0
 14 30  1  0
 14 31  1  0
 14 32  1  0
 15 33  1  0
 15 34  1  0
 16 35  1  0
 16 36  1  0
 17 37  1  0
 17 38  1  0
 17 39  1  0
 18 40  1  0
 18 41  1  0
M  CHG  1  21  -1
M  END
>  <score>  (3) 
-9.004

$$$$
=
     RDKit          3D

 41 43  0  0  0  0  0  0  0  0999 V2000
    1.6260   68.9800   67.9750 C   0  0  2  0  0  0  0  0  0  0  0  0
    2.5400   69.1670   69.1260 O   0  0  0  0  0  0  0  0  0  0  0  0
    3.4960   70.2340   69.0070 C   0  0  0  0  0  0  0  0  0  0  0  0
    4.5110   69.9790   67.8850 C   0  0  0  0  0  0  0  0  0  0  0  0
    3.7950   69.5340   66.6680 C   0  0  0  0  0  0  0  0  0  0  0  0
    2.5040   69.0590   66.7520 C   0  0  0  0  0  0  0  0  0  0  0  0
    2.1440   68.6230   65.5050 N   0  0  0  0  0  0  0  0  0  0  0  0
    3.1550   68.8710   64.5980 C   0  0  0  0  0  0  0  0  0  0  0  0
    4.2120   69.4420   65.3120 C   0  0  0  0  0  0  0  0  0  0  0  0
    5.3960   69.7680   64.6250 C   0  0  0  0  0  0  0  0  0  0  0  0
    5.4820   69.5190   63.2530 C   0  0  0  0  0  0  0  0  0  0  0  0
    4.4120   68.9470   62.5660 C   0  0  0  0  0  0  0  0  0  0  0  0
    3.2110   68.6060   63.2170 C   0  0  0  0  0  0  0  0  0  0  0  0
   -0.6790   70.0250   67.2240 C   0  0  0  0  0  0  0  0  0  0  0  0
    0.5950   70.1390   68.0480 C   0  0  0  0  0  0  0  0  0  0  0  0
    2.0810   67.9620   62.4550 C   0  0  0  0  0  0  0  0  0  0  0  0
    1.0070   68.9720   62.0810 C   0  0  0  0  0  0  0  0  0  0  0  0
    1.0230   67.5920   68.2190 C   0  0  0  0  0  0  0  0  0  0  0  0
   -0.1650   67.0850   67.4060 C   0  0  0  0  0  0  0  0  0  0  0  0
    0.0430   66.8510   66.1790 O   0  0  0  0  0  0  0  0  0  0  0  0
   -1.2380   66.9450   68.0580 O   0  0  0  0  0  1  0  0  0  0  0  0
    2.9583   71.1694   68.7927 H   0  0  0  0  0  0  0  0  0  0  0  0
    4.0496   70.2993   69.9553 H   0  0  0  0  0  0  0  0  0  0  0  0
    5.0606   70.9070   67.6691 H   0  0  0  0  0  0  0  0  0  0  0  0
    5.2203   69.1996   68.2004 H   0  0  0  0  0  0  0  0  0  0  0  0
    1.2460   68.1736   65.2760 H   0  0  0  0  0  0  0  0  0  0  0  0
    6.2454   70.2144   65.1629 H   0  0  0  0  0  0  0  0  0  0  0  0
    6.4029   69.7767   62.7094 H   0  0  0  0  0  0  0  0  0  0  0  0
    4.5087   68.7571   61.4868 H   0  0  0  0  0  0  0  0  0  0  0  0
   -1.5454   69.9475   67.8973 H   0  0  0  0  0  0  0  0  0  0  0  0
   -0.7864   70.9171   66.5895 H   0  0  0  0  0  0  0  0  0  0  0  0
   -0.6263   69.1280   66.5895 H   0  0  0  0  0  0  0  0  0  0  0  0
    1.1112   71.0548   67.7242 H   0  0  0  0  0  0  0  0  0  0  0  0
    0.2455   70.1257   69.0909 H   0  0  0  0  0  0  0  0  0  0  0  0
    2.4824   67.5115   61.5353 H   0  0  0  0  0  0  0  0  0  0  0  0
    1.6234   67.1982   63.1009 H   0  0  0  0  0  0  0  0  0  0  0  0
    0.5623   69.3902   62.9961 H   0  0  0  0  0  0  0  0  0  0  0  0
    1.4563   69.7824   61.4882 H   0  0  0  0  0  0  0  0  0  0  0  0
    0.2257   68.4739   61.4882 H   0  0  0  0  0  0  0  0  0  0  0  0
    1.8368   66.8684   68.0638 H   0  0  0  0  0  0  0  0  0  0  0  0
    0.5938   67.6943   69.2266 H   0  0  0  0  0  0  0  0  0  0  0  0
  2  1  1  0
  3  2  1  0
  4  3  1  0
  5  4  1  0
  6  1  1  0
  6  5  2  0
  7  6  1  0
  8  7  1  0
  9  8  2  0
  9  5  1  0
 10  9  1  0
 11 10  2  0
 12 11  1  0
 13  8  1  0
 13 12  2  0
 15 14  1  0
  1 15  1  6
 16 13  1  0
 17 16  1  0
 18  1  1  0
 19 18  1  0
 20 19  2  0
 21 19  1  0
  3 22  1  0
  3 23  1  0
  4 24  1  0
  4 25  1  0
  7 26  1  0
 10 27  1  0
 11 28  1  0
 12 29  1  0
 14 30  1  0
 14 31  1  0
 14 32  1  0
 15 33  1  0
 15 34  1  0
 16 35  1  0
 16 36  1  0
 17 37  1  0
 17 38  1  0
 17 39  1  0
 18 40  1  0
 18 41  1  0
M  CHG  1  21  -1
M  END
>  <score>  (4) 
-8.588

$$$$
=
     RDKit          3D

 41 43  0  0  0  0  0  0  0  0999 V2000
    1.2610   68.8010   67.3910 C   0  0  2  0  0  0  0  0  0  0  0  0
   -0.2060   69.0010   67.4680 O   0  0  0  0  0  0  0  0  0  0  0  0
   -0.9980   68.2240   66.5550 C   0  0  0  0  0  0  0  0  0  0  0  0
   -0.7410   68.6100   65.0930 C   0  0  0  0  0  0  0  0  0  0  0  0
    0.7180   68.7020   64.8590 C   0  0  0  0  0  0  0  0  0  0  0  0
    1.5890   68.8180   65.9200 C   0  0  0  0  0  0  0  0  0  0  0  0
    2.8450   68.9930   65.4040 N   0  0  0  0  0  0  0  0  0  0  0  0
    2.8140   68.9230   64.0270 C   0  0  0  0  0  0  0  0  0  0  0  0
    1.4770   68.7450   63.6580 C   0  0  0  0  0  0  0  0  0  0  0  0
    1.1550   68.6710   62.2900 C   0  0  0  0  0  0  0  0  0  0  0  0
    2.1750   68.7730   61.3400 C   0  0  0  0  0  0  0  0  0  0  0  0
    3.5000   68.9510   61.7360 C   0  0  0  0  0  0  0  0  0  0  0  0
    3.8630   69.0300   63.0950 C   0  0  0  0  0  0  0  0  0  0  0  0
    1.1560   67.2280   69.5090 C   0  0  0  0  0  0  0  0  0  0  0  0
    1.5450   67.4230   68.0510 C   0  0  0  0  0  0  0  0  0  0  0  0
    5.2990   69.2540   63.4930 C   0  0  0  0  0  0  0  0  0  0  0  0
    5.8650   68.0610   64.2490 C   0  0  0  0  0  0  0  0  0  0  0  0
    1.8270   69.9940   68.1700 C   0  0  0  0  0  0  0  0  0  0  0  0
    3.2880   70.0390   68.6090 C   0  0  0  0  0  0  0  0  0  0  0  0
    4.1600   69.9090   67.7000 O   0  0  0  0  0  0  0  0  0  0  0  0
    3.4680   70.2110   69.8480 O   0  0  0  0  0  1  0  0  0  0  0  0
   -0.7520   67.1603   66.6892 H   0  0  0  0  0  0  0  0  0  0  0  0
   -2.0577   68.4203   66.7752 H   0  0  0  0  0  0  0  0  0  0  0  0
   -1.1717   67.8451   64.4301 H   0  0  0  0  0  0  0  0  0  0  0  0
   -1.2096   69.5825   64.8814 H   0  0  0  0  0  0  0  0  0  0  0  0
    3.6935   69.1542   65.9652 H   0  0  0  0  0  0  0  0  0  0  0  0
    0.1110   68.5343   61.9716 H   0  0  0  0  0  0  0  0  0  0  0  0
    1.9301   68.7123   60.2693 H   0  0  0  0  0  0  0  0  0  0  0  0
    4.2825   69.0319   60.9671 H   0  0  0  0  0  0  0  0  0  0  0  0
    1.9507   67.6264   70.1569 H   0  0  0  0  0  0  0  0  0  0  0  0
    0.2156   67.7612   69.7121 H   0  0  0  0  0  0  0  0  0  0  0  0
    1.0205   66.1554   69.7121 H   0  0  0  0  0  0  0  0  0  0  0  0
    2.6275   67.2427   67.9758 H   0  0  0  0  0  0  0  0  0  0  0  0
    0.9006   66.7208   67.5017 H   0  0  0  0  0  0  0  0  0  0  0  0
    5.8990   69.4187   62.5859 H   0  0  0  0  0  0  0  0  0  0  0  0
    5.3388   70.1309   64.1559 H   0  0  0  0  0  0  0  0  0  0  0  0
    5.7805   68.2391   65.3312 H   0  0  0  0  0  0  0  0  0  0  0  0
    5.3004   67.1558   63.9812 H   0  0  0  0  0  0  0  0  0  0  0  0
    6.9233   67.9257   63.9812 H   0  0  0  0  0  0  0  0  0  0  0  0
    1.6648   70.8811   67.5401 H   0  0  0  0  0  0  0  0  0  0  0  0
    1.2939   69.9241   69.1296 H   0  0  0  0  0  0  0  0  0  0  0  0
  2  1  1  0
  3  2  1  0
  4  3  1  0
  5  4  1  0
  6  1  1  0
  6  5  2  0
  7  6  1  0
  8  7  1  0
  9  8  2  0
  9  5  1  0
 10  9  1  0
 11 10  2  0
 12 11  1  0
 13  8  1  0
 13 12  2  0
 15 14  1  0
  1 15  1  1
 16 13  1  0
 17 16  1  0
 18  1  1  0
 19 18  1  0
 20 19  2  0
 21 19  1  0
  3 22  1  0
  3 23  1  0
  4 24  1  0
  4 25  1  0
  7 26  1  0
 10 27  1  0
 11 28  1  0
 12 29  1  0
 14 30  1  0
 14 31  1  0
 14 32  1  0
 15 33  1  0
 15 34  1  0
 16 35  1  0
 16 36  1  0
 17 37  1  0
 17 38  1  0
 17 39  1  0
 18 40  1  0
 18 41  1  0
M  CHG  1  21  -1
M  END
>  <score>  (5) 
-8.441

$$$$
=
     RDKit          3D

 41 43  0  0  0  0  0  0  0  0999 V2000
    2.8290   62.2540   70.5130 C   0  0  2  0  0  0  0  0  0  0  0  0
    2.1530   63.3000   69.7090 O   0  0  0  0  0  0  0  0  0  0  0  0
    1.2750   64.1810   70.4290 C   0  0  0  0  0  0  0  0  0  0  0  0
    0.0580   63.4430   71.0040 C   0  0  0  0  0  0  0  0  0  0  0  0
    0.5090   62.1990   71.6680 C   0  0  0  0  0  0  0  0  0  0  0  0
    1.7550   61.6750   71.3970 C   0  0  0  0  0  0  0  0  0  0  0  0
    1.8520   60.4810   72.0600 N   0  0  0  0  0  0  0  0  0  0  0  0
    0.7170   60.2540   72.8110 C   0  0  0  0  0  0  0  0  0  0  0  0
   -0.1500   61.3250   72.5750 C   0  0  0  0  0  0  0  0  0  0  0  0
   -1.4100   61.3290   73.2020 C   0  0  0  0  0  0  0  0  0  0  0  0
   -1.7590   60.2700   74.0440 C   0  0  0  0  0  0  0  0  0  0  0  0
   -0.8750   59.2140   74.2610 C   0  0  0  0  0  0  0  0  0  0  0  0
    0.3940   59.1720   73.6530 C   0  0  0  0  0  0  0  0  0  0  0  0
    5.1170   63.5700   70.5560 C   0  0  0  0  0  0  0  0  0  0  0  0
    3.9410   62.9800   71.3190 C   0  0  0  0  0  0  0  0  0  0  0  0
    1.3170   58.0030   73.8820 C   0  0  0  0  0  0  0  0  0  0  0  0
    0.7370   56.7110   73.3270 C   0  0  0  0  0  0  0  0  0  0  0  0
    3.3600   61.2780   69.4570 C   0  0  0  0  0  0  0  0  0  0  0  0
    4.0550   59.9780   69.8510 C   0  0  0  0  0  0  0  0  0  0  0  0
    4.8260   60.0260   70.8540 O   0  0  0  0  0  0  0  0  0  0  0  0
    3.7740   58.9820   69.1270 O   0  0  0  0  0  1  0  0  0  0  0  0
    1.8348   64.6402   71.2571 H   0  0  0  0  0  0  0  0  0  0  0  0
    0.9073   64.9416   69.7245 H   0  0  0  0  0  0  0  0  0  0  0  0
   -0.4500   64.0873   71.7367 H   0  0  0  0  0  0  0  0  0  0  0  0
   -0.6402   63.1945   70.1911 H   0  0  0  0  0  0  0  0  0  0  0  0
    2.6583   59.8424   72.0058 H   0  0  0  0  0  0  0  0  0  0  0  0
   -2.1130   62.1576   73.0309 H   0  0  0  0  0  0  0  0  0  0  0  0
   -2.7406   60.2695   74.5404 H   0  0  0  0  0  0  0  0  0  0  0  0
   -1.1774   58.3911   74.9254 H   0  0  0  0  0  0  0  0  0  0  0  0
    5.8655   63.9455   71.2692 H   0  0  0  0  0  0  0  0  0  0  0  0
    5.5708   62.7928   69.9235 H   0  0  0  0  0  0  0  0  0  0  0  0
    4.7652   64.3984   69.9235 H   0  0  0  0  0  0  0  0  0  0  0  0
    4.3500   62.2535   72.0366 H   0  0  0  0  0  0  0  0  0  0  0  0
    3.4340   63.8540   71.7539 H   0  0  0  0  0  0  0  0  0  0  0  0
    2.2776   58.2047   73.3855 H   0  0  0  0  0  0  0  0  0  0  0  0
    1.4520   57.8801   74.9667 H   0  0  0  0  0  0  0  0  0  0  0  0
    0.4422   56.0543   74.1588 H   0  0  0  0  0  0  0  0  0  0  0  0
   -0.1447   56.9400   72.7104 H   0  0  0  0  0  0  0  0  0  0  0  0
    1.4940   56.2043   72.7104 H   0  0  0  0  0  0  0  0  0  0  0  0
    2.4978   60.9932   68.8362 H   0  0  0  0  0  0  0  0  0  0  0  0
    4.1764   61.8517   68.9940 H   0  0  0  0  0  0  0  0  0  0  0  0
  2  1  1  0
  3  2  1  0
  4  3  1  0
  5  4  1  0
  6  1  1  0
  6  5  2  0
  7  6  1  0
  8  7  1  0
  9  8  2  0
  9  5  1  0
 10  9  1  0
 11 10  2  0
 12 11  1  0
 13  8  1  0
 13 12  2  0
 15 14  1  0
  1 15  1  1
 16 13  1  0
 17 16  1  0
 18  1  1  0
 19 18  1  0
 20 19  2  0
 21 19  1  0
  3 22  1  0
  3 23  1  0
  4 24  1  0
  4 25  1  0
  7 26  1  0
 10 27  1  0
 11 28  1  0
 12 29  1  0
 14 30  1  0
 14 31  1  0
 14 32  1  0
 15 33  1  0
 15 34  1  0
 16 35  1  0
 16 36  1  0
 17 37  1  0
 17 38  1  0
 17 39  1  0
 18 40  1  0
 18 41  1  0
M  CHG  1  21  -1
M  END
>  <score>  (6) 
-8.302

$$$$
=
     RDKit          3D

 41 43  0  0  0  0  0  0  0  0999 V2000
    0.0250   68.3860   66.6360 C   0  0  2  0  0  0  0  0  0  0  0  0
   -0.0370   69.0360   67.9670 O   0  0  0  0  0  0  0  0  0  0  0  0
    0.6570   70.2890   68.0900 C   0  0  0  0  0  0  0  0  0  0  0  0
    2.1740   70.1280   67.9310 C   0  0  0  0  0  0  0  0  0  0  0  0
    2.4560   69.2790   66.7500 C   0  0  0  0  0  0  0  0  0  0  0  0
    1.4680   68.4820   66.2120 C   0  0  0  0  0  0  0  0  0  0  0  0
    2.0380   67.7380   65.2150 N   0  0  0  0  0  0  0  0  0  0  0  0
    3.3630   68.0890   65.0500 C   0  0  0  0  0  0  0  0  0  0  0  0
    3.6510   69.0580   66.0140 C   0  0  0  0  0  0  0  0  0  0  0  0
    4.9590   69.5730   66.0880 C   0  0  0  0  0  0  0  0  0  0  0  0
    5.9300   69.1070   65.1970 C   0  0  0  0  0  0  0  0  0  0  0  0
    5.6140   68.1380   64.2460 C   0  0  0  0  0  0  0  0  0  0  0  0
    4.3180   67.5980   64.1390 C   0  0  0  0  0  0  0  0  0  0  0  0
   -2.4080   68.8570   65.7250 C   0  0  0  0  0  0  0  0  0  0  0  0
   -0.9250   69.1980   65.7130 C   0  0  0  0  0  0  0  0  0  0  0  0
    4.0130   66.5300   63.1210 C   0  0  0  0  0  0  0  0  0  0  0  0
    4.1780   65.1340   63.7030 C   0  0  0  0  0  0  0  0  0  0  0  0
   -0.4480   66.9550   66.9140 C   0  0  0  0  0  0  0  0  0  0  0  0
   -1.1500   66.5860   68.2190 C   0  0  0  0  0  0  0  0  0  0  0  0
   -0.4590   65.9700   69.0820 O   0  0  0  0  0  0  0  0  0  0  0  0
   -2.3570   66.9500   68.2960 O   0  0  0  0  0  1  0  0  0  0  0  0
    0.2900   70.9752   67.3126 H   0  0  0  0  0  0  0  0  0  0  0  0
    0.4628   70.6856   69.0975 H   0  0  0  0  0  0  0  0  0  0  0  0
    2.6356   71.1166   67.7913 H   0  0  0  0  0  0  0  0  0  0  0  0
    2.5905   69.6548   68.8325 H   0  0  0  0  0  0  0  0  0  0  0  0
    1.5478   67.0179   64.6653 H   0  0  0  0  0  0  0  0  0  0  0  0
    5.2144   70.3346   66.8395 H   0  0  0  0  0  0  0  0  0  0  0  0
    6.9529   69.5086   65.2467 H   0  0  0  0  0  0  0  0  0  0  0  0
    6.3986   67.7855   63.5603 H   0  0  0  0  0  0  0  0  0  0  0  0
   -2.7574   68.7767   66.7650 H   0  0  0  0  0  0  0  0  0  0  0  0
   -2.9706   69.6492   65.2094 H   0  0  0  0  0  0  0  0  0  0  0  0
   -2.5681   67.8986   65.2094 H   0  0  0  0  0  0  0  0  0  0  0  0
   -0.5686   69.0649   64.6809 H   0  0  0  0  0  0  0  0  0  0  0  0
   -0.8789   70.2228   66.1102 H   0  0  0  0  0  0  0  0  0  0  0  0
    2.9756   66.6521   62.7762 H   0  0  0  0  0  0  0  0  0  0  0  0
    4.7213   66.6395   62.2866 H   0  0  0  0  0  0  0  0  0  0  0  0
    4.1712   65.1915   64.8015 H   0  0  0  0  0  0  0  0  0  0  0  0
    3.3491   64.4951   63.3642 H   0  0  0  0  0  0  0  0  0  0  0  0
    5.1330   64.7060   63.3642 H   0  0  0  0  0  0  0  0  0  0  0  0
   -1.1442   66.6952   66.1029 H   0  0  0  0  0  0  0  0  0  0  0  0
    0.5005   66.4034   66.9916 H   0  0  0  0  0  0  0  0  0  0  0  0
  2  1  1  0
  3  2  1  0
  4  3  1  0
  5  4  1  0
  6  1  1  0
  6  5  2  0
  7  6  1  0
  8  7  1  0
  9  8  2  0
  9  5  1  0
 10  9  1  0
 11 10  2  0
 12 11  1  0
 13  8  1  0
 13 12  2  0
 15 14  1  0
  1 15  1  6
 16 13  1  0
 17 16  1  0
 18  1  1  0
 19 18  1  0
 20 19  2  0
 21 19  1  0
  3 22  1  0
  3 23  1  0
  4 24  1  0
  4 25  1  0
  7 26  1  0
 10 27  1  0
 11 28  1  0
 12 29  1  0
 14 30  1  0
 14 31  1  0
 14 32  1  0
 15 33  1  0
 15 34  1  0
 16 35  1  0
 16 36  1  0
 17 37  1  0
 17 38  1  0
 17 39  1  0
 18 40  1  0
 18 41  1  0
M  CHG  1  21  -1
M  END
>  <score>  (7) 
-8.069

$$$$
=
     RDKit          3D

 41 43  0  0  0  0  0  0  0  0999 V2000
    1.2260   68.3660   64.8430 C   0  0  2  0  0  0  0  0  0  0  0  0
    1.2590   68.4690   63.3650 O   0  0  0  0  0  0  0  0  0  0  0  0
    2.4750   68.0390   62.7300 C   0  0  0  0  0  0  0  0  0  0  0  0
    3.6670   68.9310   63.0960 C   0  0  0  0  0  0  0  0  0  0  0  0
    3.6780   69.1570   64.5600 C   0  0  0  0  0  0  0  0  0  0  0  0
    2.5470   68.9210   65.3110 C   0  0  0  0  0  0  0  0  0  0  0  0
    2.8150   69.3180   66.5940 N   0  0  0  0  0  0  0  0  0  0  0  0
    4.1240   69.7430   66.7030 C   0  0  0  0  0  0  0  0  0  0  0  0
    4.6880   69.6560   65.4270 C   0  0  0  0  0  0  0  0  0  0  0  0
    6.0230   70.0630   65.2470 C   0  0  0  0  0  0  0  0  0  0  0  0
    6.7480   70.5370   66.3440 C   0  0  0  0  0  0  0  0  0  0  0  0
    6.1600   70.6140   67.6050 C   0  0  0  0  0  0  0  0  0  0  0  0
    4.8270   70.2170   67.8270 C   0  0  0  0  0  0  0  0  0  0  0  0
    2.2660   66.1000   65.7110 C   0  0  0  0  0  0  0  0  0  0  0  0
    1.0620   66.8560   65.1690 C   0  0  0  0  0  0  0  0  0  0  0  0
    4.2070   70.3390   69.1950 C   0  0  0  0  0  0  0  0  0  0  0  0
    5.2570   70.5840   70.2680 C   0  0  0  0  0  0  0  0  0  0  0  0
    0.0170   69.2240   65.2350 C   0  0  0  0  0  0  0  0  0  0  0  0
   -1.1240   68.6570   66.0740 C   0  0  0  0  0  0  0  0  0  0  0  0
   -0.9100   68.5320   67.3150 O   0  0  0  0  0  0  0  0  0  0  0  0
   -2.1740   68.3790   65.4280 O   0  0  0  0  0  1  0  0  0  0  0  0
    2.6940   67.0082   63.0456 H   0  0  0  0  0  0  0  0  0  0  0  0
    2.3279   68.1022   61.6417 H   0  0  0  0  0  0  0  0  0  0  0  0
    4.6021   68.4371   62.7934 H   0  0  0  0  0  0  0  0  0  0  0  0
    3.5791   69.8957   62.5749 H   0  0  0  0  0  0  0  0  0  0  0  0
    2.1359   69.3018   67.3682 H   0  0  0  0  0  0  0  0  0  0  0  0
    6.4912   70.0087   64.2531 H   0  0  0  0  0  0  0  0  0  0  0  0
    7.7933   70.8524   66.2105 H   0  0  0  0  0  0  0  0  0  0  0  0
    6.7528   70.9950   68.4497 H   0  0  0  0  0  0  0  0  0  0  0  0
    2.2433   66.1143   66.8107 H   0  0  0  0  0  0  0  0  0  0  0  0
    2.2350   65.0589   65.3571 H   0  0  0  0  0  0  0  0  0  0  0  0
    3.1902   66.5802   65.3571 H   0  0  0  0  0  0  0  0  0  0  0  0
    0.7534   66.3540   64.2402 H   0  0  0  0  0  0  0  0  0  0  0  0
    0.3341   66.8339   65.9934 H   0  0  0  0  0  0  0  0  0  0  0  0
    3.4978   71.1799   69.1914 H   0  0  0  0  0  0  0  0  0  0  0  0
    3.6951   69.3930   69.4254 H   0  0  0  0  0  0  0  0  0  0  0  0
    4.7977   70.4768   71.2617 H   0  0  0  0  0  0  0  0  0  0  0  0
    6.0704   69.8515   70.1591 H   0  0  0  0  0  0  0  0  0  0  0  0
    5.6622   71.6008   70.1591 H   0  0  0  0  0  0  0  0  0  0  0  0
    0.4149   70.0843   65.7931 H   0  0  0  0  0  0  0  0  0  0  0  0
   -0.4695   69.4043   64.2651 H   0  0  0  0  0  0  0  0  0  0  0  0
  2  1  1  0
  3  2  1  0
  4  3  1  0
  5  4  1  0
  6  1  1  0
  6  5  2  0
  7  6  1  0
  8  7  1  0
  9  8  2  0
  9  5  1  0
 10  9  1  0
 11 10  2  0
 12 11  1  0
 13  8  1  0
 13 12  2  0
 15 14  1  0
  1 15  1  6
 16 13  1  0
 17 16  1  0
 18  1  1  0
 19 18  1  0
 20 19  2  0
 21 19  1  0
  3 22  1  0
  3 23  1  0
  4 24  1  0
  4 25  1  0
  7 26  1  0
 10 27  1  0
 11 28  1  0
 12 29  1  0
 14 30  1  0
 14 31  1  0
 14 32  1  0
 15 33  1  0
 15 34  1  0
 16 35  1  0
 16 36  1  0
 17 37  1  0
 17 38  1  0
 17 39  1  0
 18 40  1  0
 18 41  1  0
M  CHG  1  21  -1
M  END
>  <score>  (8) 
-7.969

$$$$
=
     RDKit          3D

 41 43  0  0  0  0  0  0  0  0999 V2000
    3.0100   62.3190   70.5920 C   0  0  2  0  0  0  0  0  0  0  0  0
    4.4410   61.9730   70.7600 O   0  0  0  0  0  0  0  0  0  0  0  0
    4.7570   60.5710   70.7480 C   0  0  0  0  0  0  0  0  0  0  0  0
    4.1490   59.8290   71.9450 C   0  0  0  0  0  0  0  0  0  0  0  0
    2.7330   60.2320   72.1030 C   0  0  0  0  0  0  0  0  0  0  0  0
    2.2620   61.3800   71.5020 C   0  0  0  0  0  0  0  0  0  0  0  0
    0.9660   61.5550   71.9090 N   0  0  0  0  0  0  0  0  0  0  0  0
    0.5660   60.5040   72.7070 C   0  0  0  0  0  0  0  0  0  0  0  0
    1.6690   59.6570   72.8490 C   0  0  0  0  0  0  0  0  0  0  0  0
    1.5420   58.5070   73.6510 C   0  0  0  0  0  0  0  0  0  0  0  0
    0.3210   58.2410   74.2780 C   0  0  0  0  0  0  0  0  0  0  0  0
   -0.7620   59.1040   74.1200 C   0  0  0  0  0  0  0  0  0  0  0  0
   -0.6750   60.2640   73.3260 C   0  0  0  0  0  0  0  0  0  0  0  0
    3.5710   62.7440   68.0470 C   0  0  0  0  0  0  0  0  0  0  0  0
    2.6820   62.0860   69.0910 C   0  0  0  0  0  0  0  0  0  0  0  0
   -1.8540   61.1950   73.1970 C   0  0  0  0  0  0  0  0  0  0  0  0
   -2.9810   60.8090   74.1430 C   0  0  0  0  0  0  0  0  0  0  0  0
    2.9440   63.7890   71.0230 C   0  0  0  0  0  0  0  0  0  0  0  0
    1.7320   64.6600   70.7050 C   0  0  0  0  0  0  0  0  0  0  0  0
    0.7300   64.5410   71.4700 O   0  0  0  0  0  0  0  0  0  0  0  0
    1.8680   65.4190   69.7050 O   0  0  0  0  0  1  0  0  0  0  0  0
    4.3655   60.1277   69.8205 H   0  0  0  0  0  0  0  0  0  0  0  0
    5.8507   60.4711   70.8093 H   0  0  0  0  0  0  0  0  0  0  0  0
    4.2051   58.7442   71.7719 H   0  0  0  0  0  0  0  0  0  0  0  0
    4.7081   60.0820   72.8579 H   0  0  0  0  0  0  0  0  0  0  0  0
    0.3737   62.3584   71.6548 H   0  0  0  0  0  0  0  0  0  0  0  0
    2.3947   57.8247   73.7830 H   0  0  0  0  0  0  0  0  0  0  0  0
    0.2140   57.3416   74.9022 H   0  0  0  0  0  0  0  0  0  0  0  0
   -1.7095   58.8731   74.6288 H   0  0  0  0  0  0  0  0  0  0  0  0
    4.3575   63.3261   68.5495 H   0  0  0  0  0  0  0  0  0  0  0  0
    4.0336   61.9690   67.4182 H   0  0  0  0  0  0  0  0  0  0  0  0
    2.9649   63.4128   67.4182 H   0  0  0  0  0  0  0  0  0  0  0  0
    1.6575   62.4490   68.9216 H   0  0  0  0  0  0  0  0  0  0  0  0
    2.8424   61.0079   68.9428 H   0  0  0  0  0  0  0  0  0  0  0  0
   -1.5271   62.2189   73.4308 H   0  0  0  0  0  0  0  0  0  0  0  0
   -2.2329   61.1282   72.1665 H   0  0  0  0  0  0  0  0  0  0  0  0
   -2.6425   60.9249   75.1832 H   0  0  0  0  0  0  0  0  0  0  0  0
   -3.8487   61.4612   73.9649 H   0  0  0  0  0  0  0  0  0  0  0  0
   -3.2667   59.7618   73.9649 H   0  0  0  0  0  0  0  0  0  0  0  0
    3.0528   63.7965   72.1176 H   0  0  0  0  0  0  0  0  0  0  0  0
    3.7333   64.2502   70.4112 H   0  0  0  0  0  0  0  0  0  0  0  0
  2  1  1  0
  3  2  1  0
  4  3  1  0
  5  4  1  0
  6  1  1  0
  6  5  2  0
  7  6  1  0
  8  7  1  0
  9  8  2  0
  9  5  1  0
 10  9  1  0
 11 10  2  0
 12 11  1  0
 13  8  1  0
 13 12  2  0
 15 14  1  0
  1 15  1  6
 16 13  1  0
 17 16  1  0
 18  1  1  0
 19 18  1  0
 20 19  2  0
 21 19  1  0
  3 22  1  0
  3 23  1  0
  4 24  1  0
  4 25  1  0
  7 26  1  0
 10 27  1  0
 11 28  1  0
 12 29  1  0
 14 30  1  0
 14 31  1  0
 14 32  1  0
 15 33  1  0
 15 34  1  0
 16 35  1  0
 16 36  1  0
 17 37  1  0
 17 38  1  0
 17 39  1  0
 18 40  1  0
 18 41  1  0
M  CHG  1  21  -1
M  END
>  <score>  (9) 
-7.9

$$$$
