=
     RDKit          3D

 10  9  0  0  0  0  0  0  0  0999 V2000
    5.9150   72.4790   68.0730 O   0  0  0  0  0  1  0  0  0  0  0  0
    5.7040   70.8960   68.5170 S   0  0  0  0  0  3  0  0  0  0  0  0
    4.0610   70.7520   69.2570 C   0  0  0  0  0  0  0  0  0  0  0  0
    5.3160   69.9570   67.0220 C   0  0  0  0  0  0  0  0  0  0  0  0
    4.1507   70.7599   70.3533 H   0  0  0  0  0  0  0  0  0  0  0  0
    3.4379   71.5990   68.9340 H   0  0  0  0  0  0  0  0  0  0  0  0
    3.5947   69.8095   68.9340 H   0  0  0  0  0  0  0  0  0  0  0  0
    4.9097   68.9738   67.3017 H   0  0  0  0  0  0  0  0  0  0  0  0
    4.5710   70.5059   66.4273 H   0  0  0  0  0  0  0  0  0  0  0  0
    6.2312   69.8199   66.4273 H   0  0  0  0  0  0  0  0  0  0  0  0
  2  1  1  0
  3  2  1  0
  4  2  1  0
  3  5  1  0
  3  6  1  0
  3  7  1  0
  4  8  1  0
  4  9  1  0
  4 10  1  0
M  CHG  2   1  -1   2   1
M  END
>  <score>  (1) 
-2.991

$$$$
=
     RDKit          3D

 10  9  0  0  0  0  0  0  0  0999 V2000
    5.7910   72.6290   68.0560 O   0  0  0  0  0  1  0  0  0  0  0  0
    5.8890   71.0430   68.5250 S   0  0  0  0  0  3  0  0  0  0  0  0
    6.4020   70.0790   67.0830 C   0  0  0  0  0  0  0  0  0  0  0  0
    7.4340   70.8380   69.4410 C   0  0  0  0  0  0  0  0  0  0  0  0
    6.8944   69.1537   67.4168 H   0  0  0  0  0  0  0  0  0  0  0  0
    5.5189   69.8266   66.4776 H   0  0  0  0  0  0  0  0  0  0  0  0
    7.1047   70.6704   66.4776 H   0  0  0  0  0  0  0  0  0  0  0  0
    7.2264   70.8655   70.5209 H   0  0  0  0  0  0  0  0  0  0  0  0
    7.8897   69.8715   69.1797 H   0  0  0  0  0  0  0  0  0  0  0  0
    8.1260   71.6522   69.1797 H   0  0  0  0  0  0  0  0  0  0  0  0
  2  1  1  0
  3  2  1  0
  4  2  1  0
  3  5  1  0
  3  6  1  0
  3  7  1  0
  4  8  1  0
  4  9  1  0
  4 10  1  0
M  CHG  2   1  -1   2   1
M  END
>  <score>  (2) 
-2.928

$$$$
=
     RDKit          3D

 10  9  0  0  0  0  0  0  0  0999 V2000
    5.9420   72.5910   67.9770 O   0  0  0  0  0  1  0  0  0  0  0  0
    6.0530   70.9790   68.3440 S   0  0  0  0  0  3  0  0  0  0  0  0
    7.3490   70.7930   69.5920 C   0  0  0  0  0  0  0  0  0  0  0  0
    4.6780   70.5740   69.4460 C   0  0  0  0  0  0  0  0  0  0  0  0
    6.9034   70.8569   70.5957 H   0  0  0  0  0  0  0  0  0  0  0  0
    7.8383   69.8154   69.4696 H   0  0  0  0  0  0  0  0  0  0  0  0
    8.0935   71.5935   69.4696 H   0  0  0  0  0  0  0  0  0  0  0  0
    5.0055   70.6705   70.4917 H   0  0  0  0  0  0  0  0  0  0  0  0
    3.8422   71.2641   69.2584 H   0  0  0  0  0  0  0  0  0  0  0  0
    4.3497   69.5410   69.2584 H   0  0  0  0  0  0  0  0  0  0  0  0
  2  1  1  0
  3  2  1  0
  4  2  1  0
  3  5  1  0
  3  6  1  0
  3  7  1  0
  4  8  1  0
  4  9  1  0
  4 10  1  0
M  CHG  2   1  -1   2   1
M  END
>  <score>  (3) 
-2.839

$$$$
=
     RDKit          3D

 10  9  0  0  0  0  0  0  0  0999 V2000
    0.2170   66.8380   66.1250 O   0  0  0  0  0  1  0  0  0  0  0  0
   -0.7140   67.9350   66.9460 S   0  0  0  0  0  3  0  0  0  0  0  0
   -1.6470   68.8830   65.7200 C   0  0  0  0  0  0  0  0  0  0  0  0
   -2.1400   67.0480   67.6160 C   0  0  0  0  0  0  0  0  0  0  0  0
   -2.3291   69.5761   66.2341 H   0  0  0  0  0  0  0  0  0  0  0  0
   -0.9495   69.4547   65.0902 H   0  0  0  0  0  0  0  0  0  0  0  0
   -2.2297   68.1947   65.0902 H   0  0  0  0  0  0  0  0  0  0  0  0
   -2.1029   67.0711   68.7151 H   0  0  0  0  0  0  0  0  0  0  0  0
   -3.0667   67.5293   67.2702 H   0  0  0  0  0  0  0  0  0  0  0  0
   -2.1180   66.0040   67.2702 H   0  0  0  0  0  0  0  0  0  0  0  0
  2  1  1  0
  3  2  1  0
  4  2  1  0
  3  5  1  0
  3  6  1  0
  3  7  1  0
  4  8  1  0
  4  9  1  0
  4 10  1  0
M  CHG  2   1  -1   2   1
M  END
>  <score>  (4) 
-2.587

$$$$
=
     RDKit          3D

 10  9  0  0  0  0  0  0  0  0999 V2000
    4.4500   63.8760   63.0230 O   0  0  0  0  0  1  0  0  0  0  0  0
    4.5350   65.3260   63.8230 S   0  0  0  0  0  3  0  0  0  0  0  0
    4.3760   66.6390   62.5890 C   0  0  0  0  0  0  0  0  0  0  0  0
    2.9300   65.6130   64.6040 C   0  0  0  0  0  0  0  0  0  0  0  0
    4.2587   67.6075   63.0972 H   0  0  0  0  0  0  0  0  0  0  0  0
    5.2779   66.6619   61.9597 H   0  0  0  0  0  0  0  0  0  0  0  0
    3.4947   66.4460   61.9597 H   0  0  0  0  0  0  0  0  0  0  0  0
    3.0455   65.5923   65.6977 H   0  0  0  0  0  0  0  0  0  0  0  0
    2.5421   66.5948   64.2947 H   0  0  0  0  0  0  0  0  0  0  0  0
    2.2259   64.8265   64.2947 H   0  0  0  0  0  0  0  0  0  0  0  0
  2  1  1  0
  3  2  1  0
  4  2  1  0
  3  5  1  0
  3  6  1  0
  3  7  1  0
  4  8  1  0
  4  9  1  0
  4 10  1  0
M  CHG  2   1  -1   2   1
M  END
>  <score>  (5) 
-2.585

$$$$
=
     RDKit          3D

 10  9  0  0  0  0  0  0  0  0999 V2000
    0.2270   66.7900   66.0020 O   0  0  0  0  0  1  0  0  0  0  0  0
   -0.6700   67.7580   67.0040 S   0  0  0  0  0  3  0  0  0  0  0  0
    0.4120   69.0800   67.5970 C   0  0  0  0  0  0  0  0  0  0  0  0
   -1.7000   68.8170   65.9620 C   0  0  0  0  0  0  0  0  0  0  0  0
    0.4160   69.0849   68.6970 H   0  0  0  0  0  0  0  0  0  0  0  0
    1.4341   68.9108   67.2274 H   0  0  0  0  0  0  0  0  0  0  0  0
    0.0441   70.0485   67.2274 H   0  0  0  0  0  0  0  0  0  0  0  0
   -2.3257   69.4603   66.5981 H   0  0  0  0  0  0  0  0  0  0  0  0
   -1.0567   69.4437   65.3269 H   0  0  0  0  0  0  0  0  0  0  0  0
   -2.3444   68.1913   65.3269 H   0  0  0  0  0  0  0  0  0  0  0  0
  2  1  1  0
  3  2  1  0
  4  2  1  0
  3  5  1  0
  3  6  1  0
  3  7  1  0
  4  8  1  0
  4  9  1  0
  4 10  1  0
M  CHG  2   1  -1   2   1
M  END
>  <score>  (6) 
-2.508

$$$$
=
     RDKit          3D

 10  9  0  0  0  0  0  0  0  0999 V2000
    0.3900   66.7390   65.8510 O   0  0  0  0  0  1  0  0  0  0  0  0
   -0.1990   67.7410   67.0320 S   0  0  0  0  0  3  0  0  0  0  0  0
   -1.7850   67.0650   67.5780 C   0  0  0  0  0  0  0  0  0  0  0  0
    0.6940   67.3700   68.5590 C   0  0  0  0  0  0  0  0  0  0  0  0
   -1.8185   67.0507   68.6774 H   0  0  0  0  0  0  0  0  0  0  0  0
   -2.6027   67.6928   67.1944 H   0  0  0  0  0  0  0  0  0  0  0  0
   -1.8984   66.0403   67.1944 H   0  0  0  0  0  0  0  0  0  0  0  0
    0.0660   67.6309   69.4236 H   0  0  0  0  0  0  0  0  0  0  0  0
    0.9351   66.2972   68.5913 H   0  0  0  0  0  0  0  0  0  0  0  0
    1.6243   67.9561   68.5913 H   0  0  0  0  0  0  0  0  0  0  0  0
  2  1  1  0
  3  2  1  0
  4  2  1  0
  3  5  1  0
  3  6  1  0
  3  7  1  0
  4  8  1  0
  4  9  1  0
  4 10  1  0
M  CHG  2   1  -1   2   1
M  END
>  <score>  (7) 
-2.439

$$$$
=
     RDKit          3D

 10  9  0  0  0  0  0  0  0  0999 V2000
    5.9040   69.8180   67.0750 O   0  0  0  0  0  1  0  0  0  0  0  0
    5.8410   71.0670   68.1620 S   0  0  0  0  0  3  0  0  0  0  0  0
    4.5400   70.6840   69.3580 C   0  0  0  0  0  0  0  0  0  0  0  0
    7.2180   70.8590   69.3140 C   0  0  0  0  0  0  0  0  0  0  0  0
    4.9342   70.8001   70.3784 H   0  0  0  0  0  0  0  0  0  0  0  0
    3.6935   71.3711   69.2116 H   0  0  0  0  0  0  0  0  0  0  0  0
    4.2008   69.6479   69.2116 H   0  0  0  0  0  0  0  0  0  0  0  0
    6.8437   70.9155   70.3468 H   0  0  0  0  0  0  0  0  0  0  0  0
    7.6900   69.8794   69.1482 H   0  0  0  0  0  0  0  0  0  0  0  0
    7.9583   71.6555   69.1482 H   0  0  0  0  0  0  0  0  0  0  0  0
  2  1  1  0
  3  2  1  0
  4  2  1  0
  3  5  1  0
  3  6  1  0
  3  7  1  0
  4  8  1  0
  4  9  1  0
  4 10  1  0
M  CHG  2   1  -1   2   1
M  END
>  <score>  (8) 
-2.367

$$$$
=
     RDKit          3D

 10  9  0  0  0  0  0  0  0  0999 V2000
    2.9730   69.0630   60.7570 O   0  0  0  0  0  1  0  0  0  0  0  0
    3.6770   68.1940   61.9800 S   0  0  0  0  0  3  0  0  0  0  0  0
    5.2070   69.0430   62.4400 C   0  0  0  0  0  0  0  0  0  0  0  0
    2.7880   68.5780   63.5060 C   0  0  0  0  0  0  0  0  0  0  0  0
    5.2865   69.0871   63.5362 H   0  0  0  0  0  0  0  0  0  0  0  0
    6.0681   68.4937   62.0317 H   0  0  0  0  0  0  0  0  0  0  0  0
    5.1966   70.0644   62.0317 H   0  0  0  0  0  0  0  0  0  0  0  0
    3.4115   68.3087   64.3713 H   0  0  0  0  0  0  0  0  0  0  0  0
    2.5619   69.6540   63.5377 H   0  0  0  0  0  0  0  0  0  0  0  0
    1.8496   68.0050   63.5377 H   0  0  0  0  0  0  0  0  0  0  0  0
  2  1  1  0
  3  2  1  0
  4  2  1  0
  3  5  1  0
  3  6  1  0
  3  7  1  0
  4  8  1  0
  4  9  1  0
  4 10  1  0
M  CHG  2   1  -1   2   1
M  END
>  <score>  (9) 
-2.346

$$$$
