=
     RDKit          3D

 58 61  0  0  0  0  0  0  0  0999 V2000
    1.1330   66.2710   70.2360 C   0  0  0  0  0  0  0  0  0  0  0  0
    3.1500   61.4930   73.0380 C   0  0  0  0  0  0  0  0  0  0  0  0
    3.1920   62.1330   71.7950 C   0  0  0  0  0  0  0  0  0  0  0  0
    2.2370   63.1000   71.5400 C   0  0  0  0  0  0  0  0  0  0  0  0
    1.2560   63.4560   72.4500 C   0  0  0  0  0  0  0  0  0  0  0  0
    1.2020   62.8330   73.6880 C   0  0  0  0  0  0  0  0  0  0  0  0
    2.1520   61.8430   73.9880 C   0  0  0  0  0  0  0  0  0  0  0  0
    0.3610   64.5410   71.9400 C   0  0  0  0  0  0  0  0  0  0  0  0
    0.8320   64.7880   70.4850 C   0  0  2  0  0  0  0  0  0  0  0  0
    2.0620   63.9010   70.3350 C   0  0  0  0  0  0  0  0  0  0  0  0
    2.8060   63.8200   69.3680 O   0  0  0  0  0  0  0  0  0  0  0  0
    4.0800   59.3180   72.6710 C   0  0  0  0  0  0  0  0  0  0  0  0
    4.0310   60.5160   73.4310 O   0  0  0  0  0  0  0  0  0  0  0  0
    2.2000   61.1580   75.1780 O   0  0  0  0  0  0  0  0  0  0  0  0
    1.1380   61.3530   76.1020 C   0  0  0  0  0  0  0  0  0  0  0  0
    0.4150   66.8120   69.0200 C   0  0  0  0  0  0  0  0  0  0  0  0
   -0.9260   66.4990   68.7830 C   0  0  0  0  0  0  0  0  0  0  0  0
   -1.5630   66.9500   67.6260 C   0  0  0  0  0  0  0  0  0  0  0  0
   -0.8580   67.6970   66.6830 C   0  0  0  0  0  0  0  0  0  0  0  0
    0.4880   68.0200   66.9010 C   0  0  0  0  0  0  0  0  0  0  0  0
    1.1050   67.5940   68.0860 C   0  0  0  0  0  0  0  0  0  0  0  0
    1.2940   68.7300   65.8480 C   0  0  0  0  0  0  0  0  0  0  0  0
    2.7820   68.4500   65.9590 N   0  0  0  0  0  4  0  0  0  0  0  0
    3.5470   69.6220   66.5620 C   0  0  0  0  0  0  0  0  0  0  0  0
    5.0220   69.5150   66.2140 C   0  0  0  0  0  0  0  0  0  0  0  0
    5.2450   69.5870   64.7040 C   0  0  0  0  0  0  0  0  0  0  0  0
    4.0790   69.0060   63.9060 C   0  0  0  0  0  0  0  0  0  0  0  0
    3.3690   67.9070   64.6760 C   0  0  0  0  0  0  0  0  0  0  0  0
    0.8171   66.8478   71.1177 H   0  0  0  0  0  0  0  0  0  0  0  0
    2.2139   66.3667   70.0557 H   0  0  0  0  0  0  0  0  0  0  0  0
    3.9570   61.8764   71.0474 H   0  0  0  0  0  0  0  0  0  0  0  0
    0.4297   63.1091   74.4211 H   0  0  0  0  0  0  0  0  0  0  0  0
   -0.6901   64.2172   71.9578 H   0  0  0  0  0  0  0  0  0  0  0  0
    0.4174   65.4508   72.5558 H   0  0  0  0  0  0  0  0  0  0  0  0
    0.0628   64.5400   69.7388 H   0  0  0  0  0  0  0  0  0  0  0  0
    4.1153   58.4538   73.3506 H   0  0  0  0  0  0  0  0  0  0  0  0
    3.1839   59.2492   72.0367 H   0  0  0  0  0  0  0  0  0  0  0  0
    4.9787   59.3227   72.0367 H   0  0  0  0  0  0  0  0  0  0  0  0
    1.5272   61.2815   77.1284 H   0  0  0  0  0  0  0  0  0  0  0  0
    0.6946   62.3476   75.9464 H   0  0  0  0  0  0  0  0  0  0  0  0
    0.3702   60.5808   75.9464 H   0  0  0  0  0  0  0  0  0  0  0  0
   -1.4831   65.8933   69.5129 H   0  0  0  0  0  0  0  0  0  0  0  0
   -2.6244   66.7155   67.4575 H   0  0  0  0  0  0  0  0  0  0  0  0
   -1.3604   68.0341   65.7643 H   0  0  0  0  0  0  0  0  0  0  0  0
    2.1486   67.8790   68.2850 H   0  0  0  0  0  0  0  0  0  0  0  0
    0.9470   68.4000   64.8577 H   0  0  0  0  0  0  0  0  0  0  0  0
    1.1484   69.8108   65.9917 H   0  0  0  0  0  0  0  0  0  0  0  0
    2.8979   67.6837   66.6374 H   0  0  0  0  0  0  0  0  0  0  0  0
    3.1456   70.5641   66.1604 H   0  0  0  0  0  0  0  0  0  0  0  0
    3.4322   69.6032   67.6558 H   0  0  0  0  0  0  0  0  0  0  0  0
    5.5643   70.3419   66.6957 H   0  0  0  0  0  0  0  0  0  0  0  0
    5.3929   68.5436   66.5729 H   0  0  0  0  0  0  0  0  0  0  0  0
    5.3764   70.6410   64.4178 H   0  0  0  0  0  0  0  0  0  0  0  0
    6.1374   68.9873   64.4716 H   0  0  0  0  0  0  0  0  0  0  0  0
    3.3607   69.8097   63.6865 H   0  0  0  0  0  0  0  0  0  0  0  0
    4.4789   68.5729   62.9773 H   0  0  0  0  0  0  0  0  0  0  0  0
    2.5604   67.4947   64.0546 H   0  0  0  0  0  0  0  0  0  0  0  0
    4.0971   67.1206   64.9241 H   0  0  0  0  0  0  0  0  0  0  0  0
  3  2  2  0
  4  3  1  0
  5  4  2  0
  6  5  1  0
  7  6  2  0
  7  2  1  0
  8  5  1  0
  9  8  1  0
  9  1  1  0
 10  9  1  0
 10  4  1  0
 11 10  2  0
 13 12  1  0
 13  2  1  0
 14  7  1  0
 15 14  1  0
 16  1  1  0
 17 16  2  0
 18 17  1  0
 19 18  2  0
 20 19  1  0
 21 20  2  0
 21 16  1  0
 22 20  1  0
 23 22  1  0
 24 23  1  0
 25 24  1  0
 26 25  1  0
 27 26  1  0
 28 27  1  0
 28 23  1  0
  1 29  1  0
  1 30  1  0
  3 31  1  0
  6 32  1  0
  8 33  1  0
  8 34  1  0
  9 35  1  6
 12 36  1  0
 12 37  1  0
 12 38  1  0
 15 39  1  0
 15 40  1  0
 15 41  1  0
 17 42  1  0
 18 43  1  0
 19 44  1  0
 21 45  1  0
 22 46  1  0
 22 47  1  0
 23 48  1  0
 24 49  1  0
 24 50  1  0
 25 51  1  0
 25 52  1  0
 26 53  1  0
 26 54  1  0
 27 55  1  0
 27 56  1  0
 28 57  1  0
 28 58  1  0
M  CHG  1  23   1
M  END
>  <score>  (1) 
-10.334

$$$$
=
     RDKit          3D

 58 61  0  0  0  0  0  0  0  0999 V2000
   -0.2450   65.3560   69.5510 C   0  0  0  0  0  0  0  0  0  0  0  0
    2.8130   61.9930   73.3040 C   0  0  0  0  0  0  0  0  0  0  0  0
    1.7400   62.8870   73.2610 C   0  0  0  0  0  0  0  0  0  0  0  0
    1.6240   63.6960   72.1440 C   0  0  0  0  0  0  0  0  0  0  0  0
    2.5130   63.6560   71.0830 C   0  0  0  0  0  0  0  0  0  0  0  0
    3.5810   62.7720   71.1100 C   0  0  0  0  0  0  0  0  0  0  0  0
    3.7380   61.9340   72.2250 C   0  0  0  0  0  0  0  0  0  0  0  0
    2.1530   64.6130   69.9920 C   0  0  0  0  0  0  0  0  0  0  0  0
    0.9290   65.3900   70.5380 C   0  0  2  0  0  0  0  0  0  0  0  0
    0.6100   64.7030   71.8610 C   0  0  0  0  0  0  0  0  0  0  0  0
   -0.3250   64.9380   72.6120 O   0  0  0  0  0  0  0  0  0  0  0  0
    2.0940   60.1210   74.6100 C   0  0  0  0  0  0  0  0  0  0  0  0
    3.0560   61.1300   74.3440 O   0  0  0  0  0  0  0  0  0  0  0  0
    4.7540   61.0210   72.3650 O   0  0  0  0  0  0  0  0  0  0  0  0
    5.7020   60.9130   71.3110 C   0  0  0  0  0  0  0  0  0  0  0  0
   -0.3320   66.6090   68.7090 C   0  0  0  0  0  0  0  0  0  0  0  0
   -1.4430   66.8480   67.8960 C   0  0  0  0  0  0  0  0  0  0  0  0
   -1.4870   67.9740   67.0730 C   0  0  0  0  0  0  0  0  0  0  0  0
   -0.4100   68.8600   67.0370 C   0  0  0  0  0  0  0  0  0  0  0  0
    0.7140   68.6360   67.8430 C   0  0  0  0  0  0  0  0  0  0  0  0
    0.7290   67.5220   68.6940 C   0  0  0  0  0  0  0  0  0  0  0  0
    1.9280   69.5180   67.7380 C   0  0  0  0  0  0  0  0  0  0  0  0
    3.0700   68.8570   66.9860 N   0  0  0  0  0  4  0  0  0  0  0  0
    4.2510   69.8010   66.7860 C   0  0  0  0  0  0  0  0  0  0  0  0
    5.1300   69.3010   65.6520 C   0  0  0  0  0  0  0  0  0  0  0  0
    4.3700   69.2760   64.3270 C   0  0  0  0  0  0  0  0  0  0  0  0
    2.8770   69.0040   64.5070 C   0  0  0  0  0  0  0  0  0  0  0  0
    2.6100   68.1490   65.7330 C   0  0  0  0  0  0  0  0  0  0  0  0
   -0.1194   64.4908   68.8835 H   0  0  0  0  0  0  0  0  0  0  0  0
   -1.1724   65.2835   70.1381 H   0  0  0  0  0  0  0  0  0  0  0  0
    1.0138   62.9457   74.0851 H   0  0  0  0  0  0  0  0  0  0  0  0
    4.2926   62.7282   70.2724 H   0  0  0  0  0  0  0  0  0  0  0  0
    2.9879   65.2991   69.7868 H   0  0  0  0  0  0  0  0  0  0  0  0
    1.9312   64.0997   69.0447 H   0  0  0  0  0  0  0  0  0  0  0  0
    1.1319   66.4619   70.6788 H   0  0  0  0  0  0  0  0  0  0  0  0
    1.9796   60.0010   75.6974 H   0  0  0  0  0  0  0  0  0  0  0  0
    1.1284   60.4097   74.1694 H   0  0  0  0  0  0  0  0  0  0  0  0
    2.4284   59.1702   74.1694 H   0  0  0  0  0  0  0  0  0  0  0  0
    6.7104   60.7981   71.7352 H   0  0  0  0  0  0  0  0  0  0  0  0
    5.4629   60.0363   70.6912 H   0  0  0  0  0  0  0  0  0  0  0  0
    5.6662   61.8210   70.6912 H   0  0  0  0  0  0  0  0  0  0  0  0
   -2.2882   66.1441   67.9048 H   0  0  0  0  0  0  0  0  0  0  0  0
   -2.3739   68.1637   66.4505 H   0  0  0  0  0  0  0  0  0  0  0  0
   -0.4433   69.7370   66.3739 H   0  0  0  0  0  0  0  0  0  0  0  0
    1.5890   67.3627   69.3611 H   0  0  0  0  0  0  0  0  0  0  0  0
    1.6473   70.4416   67.2105 H   0  0  0  0  0  0  0  0  0  0  0  0
    2.2785   69.7236   68.7602 H   0  0  0  0  0  0  0  0  0  0  0  0
    3.4334   68.1024   67.5855 H   0  0  0  0  0  0  0  0  0  0  0  0
    3.8766   70.8058   66.5408 H   0  0  0  0  0  0  0  0  0  0  0  0
    4.8434   69.8392   67.7120 H   0  0  0  0  0  0  0  0  0  0  0  0
    5.9999   69.9670   65.5531 H   0  0  0  0  0  0  0  0  0  0  0  0
    5.4487   68.2749   65.8877 H   0  0  0  0  0  0  0  0  0  0  0  0
    4.4927   70.2510   63.8327 H   0  0  0  0  0  0  0  0  0  0  0  0
    4.7857   68.4571   63.7216 H   0  0  0  0  0  0  0  0  0  0  0  0
    2.3501   69.9631   64.6187 H   0  0  0  0  0  0  0  0  0  0  0  0
    2.5167   68.4594   63.6218 H   0  0  0  0  0  0  0  0  0  0  0  0
    1.5308   67.9492   65.8063 H   0  0  0  0  0  0  0  0  0  0  0  0
    3.1661   67.2050   65.6348 H   0  0  0  0  0  0  0  0  0  0  0  0
  3  2  2  0
  4  3  1  0
  5  4  2  0
  6  5  1  0
  7  6  2  0
  7  2  1  0
  8  5  1  0
  9  8  1  0
  9  1  1  0
 10  9  1  0
 10  4  1  0
 11 10  2  0
 13 12  1  0
 13  2  1  0
 14  7  1  0
 15 14  1  0
 16  1  1  0
 17 16  2  0
 18 17  1  0
 19 18  2  0
 20 19  1  0
 21 20  2  0
 21 16  1  0
 22 20  1  0
 23 22  1  0
 24 23  1  0
 25 24  1  0
 26 25  1  0
 27 26  1  0
 28 27  1  0
 28 23  1  0
  1 29  1  0
  1 30  1  0
  3 31  1  0
  6 32  1  0
  8 33  1  0
  8 34  1  0
  9 35  1  1
 12 36  1  0
 12 37  1  0
 12 38  1  0
 15 39  1  0
 15 40  1  0
 15 41  1  0
 17 42  1  0
 18 43  1  0
 19 44  1  0
 21 45  1  0
 22 46  1  0
 22 47  1  0
 23 48  1  0
 24 49  1  0
 24 50  1  0
 25 51  1  0
 25 52  1  0
 26 53  1  0
 26 54  1  0
 27 55  1  0
 27 56  1  0
 28 57  1  0
 28 58  1  0
M  CHG  1  23   1
M  END
>  <score>  (2) 
-9.986

$$$$
=
     RDKit          3D

 58 61  0  0  0  0  0  0  0  0999 V2000
    0.1150   66.5510   69.3340 C   0  0  0  0  0  0  0  0  0  0  0  0
    1.7090   61.5540   72.0250 C   0  0  0  0  0  0  0  0  0  0  0  0
    0.9430   62.7070   72.2220 C   0  0  0  0  0  0  0  0  0  0  0  0
    1.1710   63.7800   71.3780 C   0  0  0  0  0  0  0  0  0  0  0  0
    2.1120   63.7590   70.3620 C   0  0  0  0  0  0  0  0  0  0  0  0
    2.8780   62.6210   70.1520 C   0  0  0  0  0  0  0  0  0  0  0  0
    2.6800   61.5100   70.9870 C   0  0  0  0  0  0  0  0  0  0  0  0
    2.1480   65.0340   69.5820 C   0  0  0  0  0  0  0  0  0  0  0  0
    1.1470   65.9680   70.3080 C   0  0  2  0  0  0  0  0  0  0  0  0
    0.5180   65.0820   71.3770 C   0  0  0  0  0  0  0  0  0  0  0  0
   -0.3800   65.3780   72.1510 O   0  0  0  0  0  0  0  0  0  0  0  0
    1.0000   60.5260   74.0660 C   0  0  0  0  0  0  0  0  0  0  0  0
    1.5930   60.4140   72.7820 O   0  0  0  0  0  0  0  0  0  0  0  0
    3.3760   60.3310   70.8760 O   0  0  0  0  0  0  0  0  0  0  0  0
    4.7630   60.3440   71.1890 C   0  0  0  0  0  0  0  0  0  0  0  0
    0.7470   67.4160   68.2680 C   0  0  0  0  0  0  0  0  0  0  0  0
    0.6580   67.0650   66.9170 C   0  0  0  0  0  0  0  0  0  0  0  0
    1.2990   67.8340   65.9450 C   0  0  0  0  0  0  0  0  0  0  0  0
    2.0550   68.9460   66.3140 C   0  0  0  0  0  0  0  0  0  0  0  0
    2.1590   69.3120   67.6620 C   0  0  0  0  0  0  0  0  0  0  0  0
    1.4780   68.5550   68.6260 C   0  0  0  0  0  0  0  0  0  0  0  0
    3.0560   70.4410   68.0910 C   0  0  0  0  0  0  0  0  0  0  0  0
    4.4400   69.9690   68.5000 N   0  0  0  0  0  4  0  0  0  0  0  0
    4.9530   70.6930   69.7390 C   0  0  0  0  0  0  0  0  0  0  0  0
    6.4650   70.5670   69.8250 C   0  0  0  0  0  0  0  0  0  0  0  0
    7.1490   71.2260   68.6280 C   0  0  0  0  0  0  0  0  0  0  0  0
    6.3030   71.1640   67.3570 C   0  0  0  0  0  0  0  0  0  0  0  0
    5.4100   69.9360   67.3400 C   0  0  0  0  0  0  0  0  0  0  0  0
   -0.4164   65.7211   68.8452 H   0  0  0  0  0  0  0  0  0  0  0  0
   -0.5708   67.1852   69.9149 H   0  0  0  0  0  0  0  0  0  0  0  0
    0.1866   62.7594   73.0189 H   0  0  0  0  0  0  0  0  0  0  0  0
    3.6263   62.5901   69.3463 H   0  0  0  0  0  0  0  0  0  0  0  0
    3.1594   65.4665   69.5922 H   0  0  0  0  0  0  0  0  0  0  0  0
    1.8842   64.8826   68.5249 H   0  0  0  0  0  0  0  0  0  0  0  0
    1.6301   66.8519   70.7500 H   0  0  0  0  0  0  0  0  0  0  0  0
    1.7690   60.3808   74.8390 H   0  0  0  0  0  0  0  0  0  0  0  0
    0.5523   61.5246   74.1773 H   0  0  0  0  0  0  0  0  0  0  0  0
    0.2189   59.7595   74.1773 H   0  0  0  0  0  0  0  0  0  0  0  0
    4.8924   60.3452   72.2814 H   0  0  0  0  0  0  0  0  0  0  0  0
    5.2432   59.4503   70.7639 H   0  0  0  0  0  0  0  0  0  0  0  0
    5.2264   61.2465   70.7639 H   0  0  0  0  0  0  0  0  0  0  0  0
    0.0796   66.1780   66.6192 H   0  0  0  0  0  0  0  0  0  0  0  0
    1.2075   67.5618   64.8831 H   0  0  0  0  0  0  0  0  0  0  0  0
    2.5715   69.5378   65.5439 H   0  0  0  0  0  0  0  0  0  0  0  0
    1.5188   68.8614   69.6817 H   0  0  0  0  0  0  0  0  0  0  0  0
    3.1584   71.1465   67.2533 H   0  0  0  0  0  0  0  0  0  0  0  0
    2.5945   70.9156   68.9695 H   0  0  0  0  0  0  0  0  0  0  0  0
    4.3543   68.9838   68.7879 H   0  0  0  0  0  0  0  0  0  0  0  0
    4.6788   71.7566   69.6793 H   0  0  0  0  0  0  0  0  0  0  0  0
    4.5012   70.2413   70.6345 H   0  0  0  0  0  0  0  0  0  0  0  0
    6.8126   71.0536   70.7483 H   0  0  0  0  0  0  0  0  0  0  0  0
    6.7235   69.4978   69.8257 H   0  0  0  0  0  0  0  0  0  0  0  0
    7.3427   72.2813   68.8706 H   0  0  0  0  0  0  0  0  0  0  0  0
    8.0812   70.6753   68.4336 H   0  0  0  0  0  0  0  0  0  0  0  0
    5.6732   72.0643   67.3030 H   0  0  0  0  0  0  0  0  0  0  0  0
    6.9823   71.1077   66.4936 H   0  0  0  0  0  0  0  0  0  0  0  0
    4.8450   69.9126   66.3965 H   0  0  0  0  0  0  0  0  0  0  0  0
    6.0391   69.0380   67.4283 H   0  0  0  0  0  0  0  0  0  0  0  0
  3  2  2  0
  4  3  1  0
  5  4  2  0
  6  5  1  0
  7  6  2  0
  7  2  1  0
  8  5  1  0
  9  8  1  0
  9  1  1  0
 10  9  1  0
 10  4  1  0
 11 10  2  0
 13 12  1  0
 13  2  1  0
 14  7  1  0
 15 14  1  0
 16  1  1  0
 17 16  2  0
 18 17  1  0
 19 18  2  0
 20 19  1  0
 21 20  2  0
 21 16  1  0
 22 20  1  0
 23 22  1  0
 24 23  1  0
 25 24  1  0
 26 25  1  0
 27 26  1  0
 28 27  1  0
 28 23  1  0
  1 29  1  0
  1 30  1  0
  3 31  1  0
  6 32  1  0
  8 33  1  0
  8 34  1  0
  9 35  1  1
 12 36  1  0
 12 37  1  0
 12 38  1  0
 15 39  1  0
 15 40  1  0
 15 41  1  0
 17 42  1  0
 18 43  1  0
 19 44  1  0
 21 45  1  0
 22 46  1  0
 22 47  1  0
 23 48  1  0
 24 49  1  0
 24 50  1  0
 25 51  1  0
 25 52  1  0
 26 53  1  0
 26 54  1  0
 27 55  1  0
 27 56  1  0
 28 57  1  0
 28 58  1  0
M  CHG  1  23   1
M  END
>  <score>  (3) 
-9.237

$$$$
=
     RDKit          3D

 58 61  0  0  0  0  0  0  0  0999 V2000
    1.5290   67.5330   69.7590 C   0  0  0  0  0  0  0  0  0  0  0  0
    3.4550   68.7060   64.3120 C   0  0  0  0  0  0  0  0  0  0  0  0
    3.1620   69.3310   65.5280 C   0  0  0  0  0  0  0  0  0  0  0  0
    2.3900   68.6320   66.4380 C   0  0  0  0  0  0  0  0  0  0  0  0
    1.9020   67.3580   66.1990 C   0  0  0  0  0  0  0  0  0  0  0  0
    2.1850   66.7240   64.9990 C   0  0  0  0  0  0  0  0  0  0  0  0
    2.9650   67.3980   64.0460 C   0  0  0  0  0  0  0  0  0  0  0  0
    1.1140   66.8160   67.3490 C   0  0  0  0  0  0  0  0  0  0  0  0
    1.0560   67.9800   68.3700 C   0  0  2  0  0  0  0  0  0  0  0  0
    1.9460   69.0570   67.7600 C   0  0  0  0  0  0  0  0  0  0  0  0
    2.2510   70.1330   68.2510 O   0  0  0  0  0  0  0  0  0  0  0  0
    5.6090   69.3830   63.5190 C   0  0  0  0  0  0  0  0  0  0  0  0
    4.2080   69.2750   63.3160 O   0  0  0  0  0  0  0  0  0  0  0  0
    3.3100   66.8730   62.8240 O   0  0  0  0  0  0  0  0  0  0  0  0
    4.3930   65.9540   62.7760 C   0  0  0  0  0  0  0  0  0  0  0  0
    1.2500   66.0710   70.0250 C   0  0  0  0  0  0  0  0  0  0  0  0
   -0.0620   65.6000   70.1240 C   0  0  0  0  0  0  0  0  0  0  0  0
   -0.3100   64.2630   70.4330 C   0  0  0  0  0  0  0  0  0  0  0  0
    0.7500   63.3880   70.6700 C   0  0  0  0  0  0  0  0  0  0  0  0
    2.0720   63.8410   70.5780 C   0  0  0  0  0  0  0  0  0  0  0  0
    2.3090   65.1780   70.2270 C   0  0  0  0  0  0  0  0  0  0  0  0
    3.2250   62.9430   70.9350 C   0  0  0  0  0  0  0  0  0  0  0  0
    2.7910   61.7080   71.7040 N   0  0  0  0  0  4  0  0  0  0  0  0
    3.1100   61.8140   73.1910 C   0  0  0  0  0  0  0  0  0  0  0  0
    3.1210   60.4300   73.8200 C   0  0  0  0  0  0  0  0  0  0  0  0
    4.2090   59.5490   73.2080 C   0  0  0  0  0  0  0  0  0  0  0  0
    4.4860   59.8830   71.7430 C   0  0  0  0  0  0  0  0  0  0  0  0
    3.2480   60.4240   71.0500 C   0  0  0  0  0  0  0  0  0  0  0  0
    2.6130   67.7043   69.8341 H   0  0  0  0  0  0  0  0  0  0  0  0
    0.9732   68.1196   70.5053 H   0  0  0  0  0  0  0  0  0  0  0  0
    3.5322   70.3422   65.7527 H   0  0  0  0  0  0  0  0  0  0  0  0
    1.8054   65.7115   64.7973 H   0  0  0  0  0  0  0  0  0  0  0  0
    0.1014   66.5326   67.0260 H   0  0  0  0  0  0  0  0  0  0  0  0
    1.5701   65.9106   67.7758 H   0  0  0  0  0  0  0  0  0  0  0  0
    0.0338   68.3497   68.5388 H   0  0  0  0  0  0  0  0  0  0  0  0
    5.8230   69.3995   64.5979 H   0  0  0  0  0  0  0  0  0  0  0  0
    6.1138   68.5211   63.0582 H   0  0  0  0  0  0  0  0  0  0  0  0
    5.9757   70.3121   63.0582 H   0  0  0  0  0  0  0  0  0  0  0  0
    4.6991   65.6942   63.8001 H   0  0  0  0  0  0  0  0  0  0  0  0
    4.0780   65.0434   62.2454 H   0  0  0  0  0  0  0  0  0  0  0  0
    5.2402   66.4130   62.2454 H   0  0  0  0  0  0  0  0  0  0  0  0
   -0.9040   66.2879   69.9572 H   0  0  0  0  0  0  0  0  0  0  0  0
   -1.3457   63.8970   70.4901 H   0  0  0  0  0  0  0  0  0  0  0  0
    0.5470   62.3386   70.9300 H   0  0  0  0  0  0  0  0  0  0  0  0
    3.3441   65.5308   70.1085 H   0  0  0  0  0  0  0  0  0  0  0  0
    3.7219   62.6230   70.0073 H   0  0  0  0  0  0  0  0  0  0  0  0
    3.9035   63.5163   71.5838 H   0  0  0  0  0  0  0  0  0  0  0  0
    1.7630   61.6647   71.6573 H   0  0  0  0  0  0  0  0  0  0  0  0
    4.0979   62.2804   73.3193 H   0  0  0  0  0  0  0  0  0  0  0  0
    2.3410   62.4281   73.6825 H   0  0  0  0  0  0  0  0  0  0  0  0
    3.3057   60.5290   74.8999 H   0  0  0  0  0  0  0  0  0  0  0  0
    2.1458   59.9566   73.6330 H   0  0  0  0  0  0  0  0  0  0  0  0
    5.1373   59.6872   73.7817 H   0  0  0  0  0  0  0  0  0  0  0  0
    3.8551   58.5083   73.2495 H   0  0  0  0  0  0  0  0  0  0  0  0
    5.2824   60.6402   71.6938 H   0  0  0  0  0  0  0  0  0  0  0  0
    4.7911   58.9586   71.2308 H   0  0  0  0  0  0  0  0  0  0  0  0
    3.4817   60.6198   69.9931 H   0  0  0  0  0  0  0  0  0  0  0  0
    2.4426   59.6790   71.1297 H   0  0  0  0  0  0  0  0  0  0  0  0
  3  2  2  0
  4  3  1  0
  5  4  2  0
  6  5  1  0
  7  6  2  0
  7  2  1  0
  8  5  1  0
  9  8  1  0
  9  1  1  0
 10  9  1  0
 10  4  1  0
 11 10  2  0
 13 12  1  0
 13  2  1  0
 14  7  1  0
 15 14  1  0
 16  1  1  0
 17 16  2  0
 18 17  1  0
 19 18  2  0
 20 19  1  0
 21 20  2  0
 21 16  1  0
 22 20  1  0
 23 22  1  0
 24 23  1  0
 25 24  1  0
 26 25  1  0
 27 26  1  0
 28 27  1  0
 28 23  1  0
  1 29  1  0
  1 30  1  0
  3 31  1  0
  6 32  1  0
  8 33  1  0
  8 34  1  0
  9 35  1  1
 12 36  1  0
 12 37  1  0
 12 38  1  0
 15 39  1  0
 15 40  1  0
 15 41  1  0
 17 42  1  0
 18 43  1  0
 19 44  1  0
 21 45  1  0
 22 46  1  0
 22 47  1  0
 23 48  1  0
 24 49  1  0
 24 50  1  0
 25 51  1  0
 25 52  1  0
 26 53  1  0
 26 54  1  0
 27 55  1  0
 27 56  1  0
 28 57  1  0
 28 58  1  0
M  CHG  1  23   1
M  END
>  <score>  (4) 
-8.86

$$$$
=
     RDKit          3D

 58 61  0  0  0  0  0  0  0  0999 V2000
    0.5140   62.1900   73.6090 C   0  0  0  0  0  0  0  0  0  0  0  0
   -2.5090   57.4920   75.4900 C   0  0  0  0  0  0  0  0  0  0  0  0
   -1.2610   57.8570   74.9770 C   0  0  0  0  0  0  0  0  0  0  0  0
   -1.1590   59.0890   74.3560 C   0  0  0  0  0  0  0  0  0  0  0  0
   -2.2250   59.9630   74.2230 C   0  0  0  0  0  0  0  0  0  0  0  0
   -3.4690   59.6160   74.7290 C   0  0  0  0  0  0  0  0  0  0  0  0
   -3.6180   58.3740   75.3660 C   0  0  0  0  0  0  0  0  0  0  0  0
   -1.8470   61.2340   73.5330 C   0  0  0  0  0  0  0  0  0  0  0  0
   -0.3670   61.0340   73.1210 C   0  0  2  0  0  0  0  0  0  0  0  0
    0.0150   59.6950   73.7410 C   0  0  0  0  0  0  0  0  0  0  0  0
    1.1140   59.1600   73.7320 O   0  0  0  0  0  0  0  0  0  0  0  0
   -2.6640   55.1060   75.3760 C   0  0  0  0  0  0  0  0  0  0  0  0
   -2.7610   56.3040   76.1310 O   0  0  0  0  0  0  0  0  0  0  0  0
   -4.7980   57.9220   75.9060 O   0  0  0  0  0  0  0  0  0  0  0  0
   -6.0030   58.2140   75.2110 C   0  0  0  0  0  0  0  0  0  0  0  0
    1.1380   62.9650   72.4710 C   0  0  0  0  0  0  0  0  0  0  0  0
    0.3660   63.8220   71.6820 C   0  0  0  0  0  0  0  0  0  0  0  0
    0.9350   64.4840   70.5940 C   0  0  0  0  0  0  0  0  0  0  0  0
    2.2760   64.2780   70.2690 C   0  0  0  0  0  0  0  0  0  0  0  0
    3.0660   63.4210   71.0470 C   0  0  0  0  0  0  0  0  0  0  0  0
    2.4920   62.7920   72.1610 C   0  0  0  0  0  0  0  0  0  0  0  0
    4.4820   63.1010   70.6510 C   0  0  0  0  0  0  0  0  0  0  0  0
    4.6450   61.6740   70.1580 N   0  0  0  0  0  4  0  0  0  0  0  0
    3.3470   61.1050   69.5980 C   0  0  0  0  0  0  0  0  0  0  0  0
    3.4110   59.5870   69.5770 C   0  0  0  0  0  0  0  0  0  0  0  0
    3.5590   59.0150   70.9860 C   0  0  0  0  0  0  0  0  0  0  0  0
    4.3300   59.9440   71.9220 C   0  0  0  0  0  0  0  0  0  0  0  0
    5.3410   60.7870   71.1650 C   0  0  0  0  0  0  0  0  0  0  0  0
   -0.1043   62.8767   74.2057 H   0  0  0  0  0  0  0  0  0  0  0  0
    1.3309   61.7578   74.2055 H   0  0  0  0  0  0  0  0  0  0  0  0
   -0.3915   57.1888   75.0639 H   0  0  0  0  0  0  0  0  0  0  0  0
   -4.3236   60.3019   74.6328 H   0  0  0  0  0  0  0  0  0  0  0  0
   -2.4777   61.3963   72.6465 H   0  0  0  0  0  0  0  0  0  0  0  0
   -1.9835   62.1141   74.1786 H   0  0  0  0  0  0  0  0  0  0  0  0
   -0.2239   61.0289   72.0304 H   0  0  0  0  0  0  0  0  0  0  0  0
   -2.5944   54.2467   76.0592 H   0  0  0  0  0  0  0  0  0  0  0  0
   -3.5564   54.9990   74.7419 H   0  0  0  0  0  0  0  0  0  0  0  0
   -1.7660   55.1439   74.7419 H   0  0  0  0  0  0  0  0  0  0  0  0
   -6.8067   58.4088   75.9364 H   0  0  0  0  0  0  0  0  0  0  0  0
   -5.8559   59.1025   74.5794 H   0  0  0  0  0  0  0  0  0  0  0  0
   -6.2790   57.3567   74.5794 H   0  0  0  0  0  0  0  0  0  0  0  0
   -0.6968   63.9755   71.9204 H   0  0  0  0  0  0  0  0  0  0  0  0
    0.3241   65.1710   69.9900 H   0  0  0  0  0  0  0  0  0  0  0  0
    2.7145   64.7897   69.3996 H   0  0  0  0  0  0  0  0  0  0  0  0
    3.1161   62.1520   72.8020 H   0  0  0  0  0  0  0  0  0  0  0  0
    4.7863   63.7878   69.8474 H   0  0  0  0  0  0  0  0  0  0  0  0
    5.1113   63.2171   71.5457 H   0  0  0  0  0  0  0  0  0  0  0  0
    5.2883   61.7003   69.3540 H   0  0  0  0  0  0  0  0  0  0  0  0
    2.5061   61.4254   70.2306 H   0  0  0  0  0  0  0  0  0  0  0  0
    3.2040   61.4745   68.5718 H   0  0  0  0  0  0  0  0  0  0  0  0
    2.4862   59.1961   69.1275 H   0  0  0  0  0  0  0  0  0  0  0  0
    4.2895   59.2860   68.9875 H   0  0  0  0  0  0  0  0  0  0  0  0
    2.5558   58.8472   71.4048 H   0  0  0  0  0  0  0  0  0  0  0  0
    4.1286   58.0774   70.9056 H   0  0  0  0  0  0  0  0  0  0  0  0
    3.6175   60.6111   72.4294 H   0  0  0  0  0  0  0  0  0  0  0  0
    4.8747   59.3245   72.6496 H   0  0  0  0  0  0  0  0  0  0  0  0
    5.8948   61.4150   71.8784 H   0  0  0  0  0  0  0  0  0  0  0  0
    6.0322   60.1182   70.6312 H   0  0  0  0  0  0  0  0  0  0  0  0
  3  2  2  0
  4  3  1  0
  5  4  2  0
  6  5  1  0
  7  6  2  0
  7  2  1  0
  8  5  1  0
  9  8  1  0
  9  1  1  0
 10  9  1  0
 10  4  1  0
 11 10  2  0
 13 12  1  0
 13  2  1  0
 14  7  1  0
 15 14  1  0
 16  1  1  0
 17 16  2  0
 18 17  1  0
 19 18  2  0
 20 19  1  0
 21 20  2  0
 21 16  1  0
 22 20  1  0
 23 22  1  0
 24 23  1  0
 25 24  1  0
 26 25  1  0
 27 26  1  0
 28 27  1  0
 28 23  1  0
  1 29  1  0
  1 30  1  0
  3 31  1  0
  6 32  1  0
  8 33  1  0
  8 34  1  0
  9 35  1  6
 12 36  1  0
 12 37  1  0
 12 38  1  0
 15 39  1  0
 15 40  1  0
 15 41  1  0
 17 42  1  0
 18 43  1  0
 19 44  1  0
 21 45  1  0
 22 46  1  0
 22 47  1  0
 23 48  1  0
 24 49  1  0
 24 50  1  0
 25 51  1  0
 25 52  1  0
 26 53  1  0
 26 54  1  0
 27 55  1  0
 27 56  1  0
 28 57  1  0
 28 58  1  0
M  CHG  1  23   1
M  END
>  <score>  (5) 
-8.558

$$$$
=
     RDKit          3D

 58 61  0  0  0  0  0  0  0  0999 V2000
    4.1250   62.2570   70.4270 C   0  0  0  0  0  0  0  0  0  0  0  0
    3.1370   58.0170   74.4010 C   0  0  0  0  0  0  0  0  0  0  0  0
    4.0230   59.0590   74.1090 C   0  0  0  0  0  0  0  0  0  0  0  0
    4.0070   59.5720   72.8240 C   0  0  0  0  0  0  0  0  0  0  0  0
    3.1640   59.1040   71.8310 C   0  0  0  0  0  0  0  0  0  0  0  0
    2.2780   58.0720   72.1060 C   0  0  0  0  0  0  0  0  0  0  0  0
    2.2610   57.5210   73.3970 C   0  0  0  0  0  0  0  0  0  0  0  0
    3.3280   59.8390   70.5390 C   0  0  0  0  0  0  0  0  0  0  0  0
    4.5050   60.8160   70.7900 C   0  0  2  0  0  0  0  0  0  0  0  0
    4.8250   60.6430   72.2700 C   0  0  0  0  0  0  0  0  0  0  0  0
    5.6450   61.2650   72.9290 O   0  0  0  0  0  0  0  0  0  0  0  0
    4.2390   57.1690   76.3500 C   0  0  0  0  0  0  0  0  0  0  0  0
    3.0400   57.4110   75.6300 O   0  0  0  0  0  0  0  0  0  0  0  0
    1.4300   56.4990   73.7870 O   0  0  0  0  0  0  0  0  0  0  0  0
    0.0750   56.5430   73.3610 C   0  0  0  0  0  0  0  0  0  0  0  0
    2.7360   62.6270   70.8940 C   0  0  0  0  0  0  0  0  0  0  0  0
    1.7230   62.9110   69.9730 C   0  0  0  0  0  0  0  0  0  0  0  0
    0.4620   63.3140   70.4130 C   0  0  0  0  0  0  0  0  0  0  0  0
    0.2070   63.4610   71.7760 C   0  0  0  0  0  0  0  0  0  0  0  0
    1.2090   63.1840   72.7150 C   0  0  0  0  0  0  0  0  0  0  0  0
    2.4610   62.7410   72.2620 C   0  0  0  0  0  0  0  0  0  0  0  0
    0.9880   63.4390   74.1810 C   0  0  0  0  0  0  0  0  0  0  0  0
    0.3430   62.2630   74.8910 N   0  0  0  0  0  4  0  0  0  0  0  0
    0.8870   60.9250   74.4030 C   0  0  0  0  0  0  0  0  0  0  0  0
   -0.0840   59.8100   74.7520 C   0  0  0  0  0  0  0  0  0  0  0  0
   -1.4310   60.0060   74.0580 C   0  0  0  0  0  0  0  0  0  0  0  0
   -1.7780   61.4790   73.8460 C   0  0  0  0  0  0  0  0  0  0  0  0
   -1.1650   62.3570   74.9220 C   0  0  0  0  0  0  0  0  0  0  0  0
    4.8481   62.9407   70.8957 H   0  0  0  0  0  0  0  0  0  0  0  0
    4.1407   62.3395   69.3302 H   0  0  0  0  0  0  0  0  0  0  0  0
    4.7075   59.4562   74.8729 H   0  0  0  0  0  0  0  0  0  0  0  0
    1.6011   57.6925   71.3263 H   0  0  0  0  0  0  0  0  0  0  0  0
    3.5698   59.1414   69.7236 H   0  0  0  0  0  0  0  0  0  0  0  0
    2.4087   60.3628   70.2381 H   0  0  0  0  0  0  0  0  0  0  0  0
    5.3812   60.6009   70.1607 H   0  0  0  0  0  0  0  0  0  0  0  0
    4.0330   57.2106   77.4297 H   0  0  0  0  0  0  0  0  0  0  0  0
    4.6289   56.1740   76.0891 H   0  0  0  0  0  0  0  0  0  0  0  0
    4.9843   57.9348   76.0891 H   0  0  0  0  0  0  0  0  0  0  0  0
   -0.5853   56.5644   74.2405 H   0  0  0  0  0  0  0  0  0  0  0  0
   -0.0901   57.4470   72.7564 H   0  0  0  0  0  0  0  0  0  0  0  0
   -0.1484   55.6516   72.7564 H   0  0  0  0  0  0  0  0  0  0  0  0
    1.9215   62.8161   68.8952 H   0  0  0  0  0  0  0  0  0  0  0  0
   -0.3344   63.5166   69.6818 H   0  0  0  0  0  0  0  0  0  0  0  0
   -0.7845   63.7957   72.1151 H   0  0  0  0  0  0  0  0  0  0  0  0
    3.2393   62.4790   72.9938 H   0  0  0  0  0  0  0  0  0  0  0  0
    1.9603   63.6442   74.6527 H   0  0  0  0  0  0  0  0  0  0  0  0
    0.3034   64.2955   74.2690 H   0  0  0  0  0  0  0  0  0  0  0  0
    0.6217   62.3153   75.8812 H   0  0  0  0  0  0  0  0  0  0  0  0
    1.0213   60.9627   73.3119 H   0  0  0  0  0  0  0  0  0  0  0  0
    1.8527   60.7284   74.8916 H   0  0  0  0  0  0  0  0  0  0  0  0
    0.3458   58.8486   74.4341 H   0  0  0  0  0  0  0  0  0  0  0  0
   -0.2497   59.8231   75.8394 H   0  0  0  0  0  0  0  0  0  0  0  0
   -1.3973   59.5081   73.0777 H   0  0  0  0  0  0  0  0  0  0  0  0
   -2.2053   59.5732   74.7085 H   0  0  0  0  0  0  0  0  0  0  0  0
   -1.3969   61.7980   72.8647 H   0  0  0  0  0  0  0  0  0  0  0  0
   -2.8717   61.5859   73.8959 H   0  0  0  0  0  0  0  0  0  0  0  0
   -1.4656   63.4012   74.7510 H   0  0  0  0  0  0  0  0  0  0  0  0
   -1.5213   62.0141   75.9046 H   0  0  0  0  0  0  0  0  0  0  0  0
  3  2  2  0
  4  3  1  0
  5  4  2  0
  6  5  1  0
  7  6  2  0
  7  2  1  0
  8  5  1  0
  9  8  1  0
  9  1  1  0
 10  9  1  0
 10  4  1  0
 11 10  2  0
 13 12  1  0
 13  2  1  0
 14  7  1  0
 15 14  1  0
 16  1  1  0
 17 16  2  0
 18 17  1  0
 19 18  2  0
 20 19  1  0
 21 20  2  0
 21 16  1  0
 22 20  1  0
 23 22  1  0
 24 23  1  0
 25 24  1  0
 26 25  1  0
 27 26  1  0
 28 27  1  0
 28 23  1  0
  1 29  1  0
  1 30  1  0
  3 31  1  0
  6 32  1  0
  8 33  1  0
  8 34  1  0
  9 35  1  6
 12 36  1  0
 12 37  1  0
 12 38  1  0
 15 39  1  0
 15 40  1  0
 15 41  1  0
 17 42  1  0
 18 43  1  0
 19 44  1  0
 21 45  1  0
 22 46  1  0
 22 47  1  0
 23 48  1  0
 24 49  1  0
 24 50  1  0
 25 51  1  0
 25 52  1  0
 26 53  1  0
 26 54  1  0
 27 55  1  0
 27 56  1  0
 28 57  1  0
 28 58  1  0
M  CHG  1  23   1
M  END
>  <score>  (6) 
-8.518

$$$$
=
     RDKit          3D

 58 61  0  0  0  0  0  0  0  0999 V2000
   -0.4400   61.8660   72.4980 C   0  0  0  0  0  0  0  0  0  0  0  0
   -0.8430   56.5650   75.0460 C   0  0  0  0  0  0  0  0  0  0  0  0
   -1.2170   57.8990   75.2300 C   0  0  0  0  0  0  0  0  0  0  0  0
   -0.5640   58.8580   74.4760 C   0  0  0  0  0  0  0  0  0  0  0  0
    0.4300   58.5560   73.5610 C   0  0  0  0  0  0  0  0  0  0  0  0
    0.8110   57.2370   73.3650 C   0  0  0  0  0  0  0  0  0  0  0  0
    0.1750   56.2310   74.1100 C   0  0  0  0  0  0  0  0  0  0  0  0
    0.9600   59.7670   72.8620 C   0  0  0  0  0  0  0  0  0  0  0  0
    0.2340   60.9590   73.5360 C   0  0  2  0  0  0  0  0  0  0  0  0
   -0.7630   60.3020   74.4840 C   0  0  0  0  0  0  0  0  0  0  0  0
   -1.6010   60.8550   75.1790 O   0  0  0  0  0  0  0  0  0  0  0  0
   -2.7520   55.1750   75.4350 C   0  0  0  0  0  0  0  0  0  0  0  0
   -1.4020   55.5080   75.7210 O   0  0  0  0  0  0  0  0  0  0  0  0
    0.4660   54.8930   74.0030 O   0  0  0  0  0  0  0  0  0  0  0  0
    1.8210   54.4920   74.1570 C   0  0  0  0  0  0  0  0  0  0  0  0
    0.5380   62.8000   71.8220 C   0  0  0  0  0  0  0  0  0  0  0  0
    0.0840   63.8890   71.0730 C   0  0  0  0  0  0  0  0  0  0  0  0
    0.9900   64.7090   70.3980 C   0  0  0  0  0  0  0  0  0  0  0  0
    2.3570   64.4330   70.4460 C   0  0  0  0  0  0  0  0  0  0  0  0
    2.8310   63.3450   71.1900 C   0  0  0  0  0  0  0  0  0  0  0  0
    1.9140   62.5520   71.8950 C   0  0  0  0  0  0  0  0  0  0  0  0
    4.2870   62.9670   71.1660 C   0  0  0  0  0  0  0  0  0  0  0  0
    4.5430   61.6610   70.4350 N   0  0  0  0  0  4  0  0  0  0  0  0
    3.2880   61.1250   69.7560 C   0  0  0  0  0  0  0  0  0  0  0  0
    3.4450   59.6410   69.4710 C   0  0  0  0  0  0  0  0  0  0  0  0
    3.6130   58.8390   70.7610 C   0  0  0  0  0  0  0  0  0  0  0  0
    4.3160   59.6320   71.8620 C   0  0  0  0  0  0  0  0  0  0  0  0
    5.2810   60.6530   71.2850 C   0  0  0  0  0  0  0  0  0  0  0  0
   -0.9118   61.2342   71.7311 H   0  0  0  0  0  0  0  0  0  0  0  0
   -1.1814   62.4839   73.0258 H   0  0  0  0  0  0  0  0  0  0  0  0
   -2.0023   58.1766   75.9485 H   0  0  0  0  0  0  0  0  0  0  0  0
    1.5974   56.9834   72.6389 H   0  0  0  0  0  0  0  0  0  0  0  0
    2.0485   59.8484   72.9983 H   0  0  0  0  0  0  0  0  0  0  0  0
    0.7837   59.7319   71.7768 H   0  0  0  0  0  0  0  0  0  0  0  0
    0.9210   61.6285   74.0743 H   0  0  0  0  0  0  0  0  0  0  0  0
   -3.3036   55.0389   76.3770 H   0  0  0  0  0  0  0  0  0  0  0  0
   -3.2144   55.9860   74.8532 H   0  0  0  0  0  0  0  0  0  0  0  0
   -2.7842   54.2420   74.8532 H   0  0  0  0  0  0  0  0  0  0  0  0
    2.0628   54.4204   75.2277 H   0  0  0  0  0  0  0  0  0  0  0  0
    1.9695   53.5114   73.6812 H   0  0  0  0  0  0  0  0  0  0  0  0
    2.4793   55.2338   73.6812 H   0  0  0  0  0  0  0  0  0  0  0  0
   -0.9938   64.1013   71.0150 H   0  0  0  0  0  0  0  0  0  0  0  0
    0.6252   65.5753   69.8266 H   0  0  0  0  0  0  0  0  0  0  0  0
    3.0648   65.0720   69.8977 H   0  0  0  0  0  0  0  0  0  0  0  0
    2.2819   61.7215   72.5155 H   0  0  0  0  0  0  0  0  0  0  0  0
    4.8498   63.7674   70.6634 H   0  0  0  0  0  0  0  0  0  0  0  0
    4.6119   62.8328   72.2083 H   0  0  0  0  0  0  0  0  0  0  0  0
    5.1929   61.8657   69.6626 H   0  0  0  0  0  0  0  0  0  0  0  0
    2.4222   61.2795   70.4166 H   0  0  0  0  0  0  0  0  0  0  0  0
    3.1338   61.6605   68.8076 H   0  0  0  0  0  0  0  0  0  0  0  0
    2.5507   59.2821   68.9406 H   0  0  0  0  0  0  0  0  0  0  0  0
    4.3466   59.5005   68.8567 H   0  0  0  0  0  0  0  0  0  0  0  0
    2.6176   58.5417   71.1225 H   0  0  0  0  0  0  0  0  0  0  0  0
    4.2398   57.9653   70.5294 H   0  0  0  0  0  0  0  0  0  0  0  0
    3.5589   60.1563   72.4636 H   0  0  0  0  0  0  0  0  0  0  0  0
    4.8900   58.9271   72.4814 H   0  0  0  0  0  0  0  0  0  0  0  0
    5.7882   61.1769   72.1086 H   0  0  0  0  0  0  0  0  0  0  0  0
    6.0168   60.1300   70.6565 H   0  0  0  0  0  0  0  0  0  0  0  0
  3  2  2  0
  4  3  1  0
  5  4  2  0
  6  5  1  0
  7  6  2  0
  7  2  1  0
  8  5  1  0
  9  8  1  0
  9  1  1  0
 10  9  1  0
 10  4  1  0
 11 10  2  0
 13 12  1  0
 13  2  1  0
 14  7  1  0
 15 14  1  0
 16  1  1  0
 17 16  2  0
 18 17  1  0
 19 18  2  0
 20 19  1  0
 21 20  2  0
 21 16  1  0
 22 20  1  0
 23 22  1  0
 24 23  1  0
 25 24  1  0
 26 25  1  0
 27 26  1  0
 28 27  1  0
 28 23  1  0
  1 29  1  0
  1 30  1  0
  3 31  1  0
  6 32  1  0
  8 33  1  0
  8 34  1  0
  9 35  1  1
 12 36  1  0
 12 37  1  0
 12 38  1  0
 15 39  1  0
 15 40  1  0
 15 41  1  0
 17 42  1  0
 18 43  1  0
 19 44  1  0
 21 45  1  0
 22 46  1  0
 22 47  1  0
 23 48  1  0
 24 49  1  0
 24 50  1  0
 25 51  1  0
 25 52  1  0
 26 53  1  0
 26 54  1  0
 27 55  1  0
 27 56  1  0
 28 57  1  0
 28 58  1  0
M  CHG  1  23   1
M  END
>  <score>  (7) 
-8.402

$$$$
=
     RDKit          3D

 58 61  0  0  0  0  0  0  0  0999 V2000
    3.6950   62.1590   69.2560 C   0  0  0  0  0  0  0  0  0  0  0  0
    2.8220   58.8480   74.0540 C   0  0  0  0  0  0  0  0  0  0  0  0
    3.4700   60.0120   73.6310 C   0  0  0  0  0  0  0  0  0  0  0  0
    3.6480   60.1870   72.2700 C   0  0  0  0  0  0  0  0  0  0  0  0
    3.2170   59.2720   71.3240 C   0  0  0  0  0  0  0  0  0  0  0  0
    2.5710   58.1130   71.7290 C   0  0  0  0  0  0  0  0  0  0  0  0
    2.3710   57.8950   73.1010 C   0  0  0  0  0  0  0  0  0  0  0  0
    3.5110   59.7060   69.9240 C   0  0  0  0  0  0  0  0  0  0  0  0
    4.3130   61.0230   70.0810 C   0  0  2  0  0  0  0  0  0  0  0  0
    4.2890   61.2990   71.5790 C   0  0  0  0  0  0  0  0  0  0  0  0
    4.7430   62.2730   72.1620 O   0  0  0  0  0  0  0  0  0  0  0  0
    3.3670   59.1730   76.3620 C   0  0  0  0  0  0  0  0  0  0  0  0
    2.5750   58.5390   75.3690 O   0  0  0  0  0  0  0  0  0  0  0  0
    1.7450   56.7870   73.6200 O   0  0  0  0  0  0  0  0  0  0  0  0
    0.3340   56.6930   73.4820 C   0  0  0  0  0  0  0  0  0  0  0  0
    2.5660   62.8550   69.9820 C   0  0  0  0  0  0  0  0  0  0  0  0
    1.6220   62.1220   70.7070 C   0  0  0  0  0  0  0  0  0  0  0  0
    0.5470   62.7670   71.3200 C   0  0  0  0  0  0  0  0  0  0  0  0
    0.3920   64.1470   71.1950 C   0  0  0  0  0  0  0  0  0  0  0  0
    1.3260   64.8990   70.4700 C   0  0  0  0  0  0  0  0  0  0  0  0
    2.4230   64.2450   69.8920 C   0  0  0  0  0  0  0  0  0  0  0  0
    1.1180   66.3700   70.2330 C   0  0  0  0  0  0  0  0  0  0  0  0
    0.9650   66.7110   68.7610 N   0  0  0  0  0  4  0  0  0  0  0  0
    1.5240   68.0890   68.4270 C   0  0  0  0  0  0  0  0  0  0  0  0
    0.9350   68.5860   67.1180 C   0  0  0  0  0  0  0  0  0  0  0  0
   -0.5810   68.7490   67.2140 C   0  0  0  0  0  0  0  0  0  0  0  0
   -1.2220   67.7510   68.1770 C   0  0  0  0  0  0  0  0  0  0  0  0
   -0.4330   66.4560   68.2460 C   0  0  0  0  0  0  0  0  0  0  0  0
    4.4782   62.8980   69.0312 H   0  0  0  0  0  0  0  0  0  0  0  0
    3.2796   61.7173   68.3382 H   0  0  0  0  0  0  0  0  0  0  0  0
    3.8254   60.7614   74.3535 H   0  0  0  0  0  0  0  0  0  0  0  0
    2.2219   57.3784   70.9884 H   0  0  0  0  0  0  0  0  0  0  0  0
    4.1104   58.9468   69.4002 H   0  0  0  0  0  0  0  0  0  0  0  0
    2.5955   59.8443   69.3301 H   0  0  0  0  0  0  0  0  0  0  0  0
    5.3427   60.9438   69.7023 H   0  0  0  0  0  0  0  0  0  0  0  0
    3.0052   58.8834   77.3596 H   0  0  0  0  0  0  0  0  0  0  0  0
    4.4160   58.8623   76.2479 H   0  0  0  0  0  0  0  0  0  0  0  0
    3.2934   60.2646   76.2479 H   0  0  0  0  0  0  0  0  0  0  0  0
   -0.1306   56.6620   74.4786 H   0  0  0  0  0  0  0  0  0  0  0  0
   -0.0396   57.5682   72.9303 H   0  0  0  0  0  0  0  0  0  0  0  0
    0.0798   55.7759   72.9303 H   0  0  0  0  0  0  0  0  0  0  0  0
    1.7271   61.0306   70.7948 H   0  0  0  0  0  0  0  0  0  0  0  0
   -0.1808   62.1845   71.9040 H   0  0  0  0  0  0  0  0  0  0  0  0
   -0.4665   64.6471   71.6672 H   0  0  0  0  0  0  0  0  0  0  0  0
    3.1841   64.8336   69.3589 H   0  0  0  0  0  0  0  0  0  0  0  0
    0.2082   66.6867   70.7639 H   0  0  0  0  0  0  0  0  0  0  0  0
    2.0099   66.8956   70.6047 H   0  0  0  0  0  0  0  0  0  0  0  0
    1.5549   66.0521   68.2330 H   0  0  0  0  0  0  0  0  0  0  0  0
    1.2656   68.7919   69.2327 H   0  0  0  0  0  0  0  0  0  0  0  0
    2.6174   68.0204   68.3277 H   0  0  0  0  0  0  0  0  0  0  0  0
    1.3844   69.5589   66.8701 H   0  0  0  0  0  0  0  0  0  0  0  0
    1.1541   67.8437   66.3363 H   0  0  0  0  0  0  0  0  0  0  0  0
   -0.8039   69.7679   67.5634 H   0  0  0  0  0  0  0  0  0  0  0  0
   -0.9991   68.5610   66.2141 H   0  0  0  0  0  0  0  0  0  0  0  0
   -1.2619   68.1987   69.1810 H   0  0  0  0  0  0  0  0  0  0  0  0
   -2.2327   67.5191   67.8101 H   0  0  0  0  0  0  0  0  0  0  0  0
   -0.9454   65.7562   68.9226 H   0  0  0  0  0  0  0  0  0  0  0  0
   -0.3656   66.0277   67.2350 H   0  0  0  0  0  0  0  0  0  0  0  0
  3  2  2  0
  4  3  1  0
  5  4  2  0
  6  5  1  0
  7  6  2  0
  7  2  1  0
  8  5  1  0
  9  8  1  0
  9  1  1  0
 10  9  1  0
 10  4  1  0
 11 10  2  0
 13 12  1  0
 13  2  1  0
 14  7  1  0
 15 14  1  0
 16  1  1  0
 17 16  2  0
 18 17  1  0
 19 18  2  0
 20 19  1  0
 21 20  2  0
 21 16  1  0
 22 20  1  0
 23 22  1  0
 24 23  1  0
 25 24  1  0
 26 25  1  0
 27 26  1  0
 28 27  1  0
 28 23  1  0
  1 29  1  0
  1 30  1  0
  3 31  1  0
  6 32  1  0
  8 33  1  0
  8 34  1  0
  9 35  1  6
 12 36  1  0
 12 37  1  0
 12 38  1  0
 15 39  1  0
 15 40  1  0
 15 41  1  0
 17 42  1  0
 18 43  1  0
 19 44  1  0
 21 45  1  0
 22 46  1  0
 22 47  1  0
 23 48  1  0
 24 49  1  0
 24 50  1  0
 25 51  1  0
 25 52  1  0
 26 53  1  0
 26 54  1  0
 27 55  1  0
 27 56  1  0
 28 57  1  0
 28 58  1  0
M  CHG  1  23   1
M  END
>  <score>  (8) 
-7.877

$$$$
=
     RDKit          3D

 58 61  0  0  0  0  0  0  0  0999 V2000
    0.6630   63.4590   72.3740 C   0  0  0  0  0  0  0  0  0  0  0  0
   -3.4810   61.7200   76.1880 C   0  0  0  0  0  0  0  0  0  0  0  0
   -2.2980   62.4620   76.1200 C   0  0  0  0  0  0  0  0  0  0  0  0
   -1.4940   62.2850   75.0090 C   0  0  0  0  0  0  0  0  0  0  0  0
   -1.8060   61.4160   73.9770 C   0  0  0  0  0  0  0  0  0  0  0  0
   -2.9770   60.6750   74.0280 C   0  0  0  0  0  0  0  0  0  0  0  0
   -3.8230   60.8230   75.1400 C   0  0  0  0  0  0  0  0  0  0  0  0
   -0.7850   61.4250   72.8850 C   0  0  0  0  0  0  0  0  0  0  0  0
    0.3330   62.3670   73.3990 C   0  0  2  0  0  0  0  0  0  0  0  0
   -0.2220   62.9280   74.7030 C   0  0  0  0  0  0  0  0  0  0  0  0
    0.2910   63.7680   75.4270 O   0  0  0  0  0  0  0  0  0  0  0  0
   -5.0230   63.0330   77.4650 C   0  0  0  0  0  0  0  0  0  0  0  0
   -4.3760   61.7920   77.2270 O   0  0  0  0  0  0  0  0  0  0  0  0
   -5.0060   60.1440   75.3020 O   0  0  0  0  0  0  0  0  0  0  0  0
   -6.0600   60.4120   74.3870 C   0  0  0  0  0  0  0  0  0  0  0  0
    1.9820   63.2190   71.6750 C   0  0  0  0  0  0  0  0  0  0  0  0
    2.2170   63.7310   70.3960 C   0  0  0  0  0  0  0  0  0  0  0  0
    3.4110   63.4520   69.7310 C   0  0  0  0  0  0  0  0  0  0  0  0
    4.3730   62.6370   70.3290 C   0  0  0  0  0  0  0  0  0  0  0  0
    4.1560   62.1130   71.6100 C   0  0  0  0  0  0  0  0  0  0  0  0
    2.9680   62.4330   72.2830 C   0  0  0  0  0  0  0  0  0  0  0  0
    5.1310   61.1470   72.2260 C   0  0  0  0  0  0  0  0  0  0  0  0
    4.6130   59.7190   72.2390 N   0  0  0  0  0  4  0  0  0  0  0  0
    3.6660   59.4380   71.0780 C   0  0  0  0  0  0  0  0  0  0  0  0
    2.8150   58.2180   71.3850 C   0  0  0  0  0  0  0  0  0  0  0  0
    1.9350   58.4460   72.6130 C   0  0  0  0  0  0  0  0  0  0  0  0
    2.5760   59.3860   73.6330 C   0  0  0  0  0  0  0  0  0  0  0  0
    4.0910   59.3010   73.5950 C   0  0  0  0  0  0  0  0  0  0  0  0
   -0.1363   63.4868   71.6188 H   0  0  0  0  0  0  0  0  0  0  0  0
    0.7413   64.4129   72.9161 H   0  0  0  0  0  0  0  0  0  0  0  0
   -2.0170   63.1613   76.9213 H   0  0  0  0  0  0  0  0  0  0  0  0
   -3.2387   59.9841   73.2130 H   0  0  0  0  0  0  0  0  0  0  0  0
   -0.3908   60.4123   72.7142 H   0  0  0  0  0  0  0  0  0  0  0  0
   -1.2047   61.7622   71.9258 H   0  0  0  0  0  0  0  0  0  0  0  0
    1.2897   61.8479   73.5578 H   0  0  0  0  0  0  0  0  0  0  0  0
   -5.1097   63.1994   78.5489 H   0  0  0  0  0  0  0  0  0  0  0  0
   -4.4339   63.8458   77.0153 H   0  0  0  0  0  0  0  0  0  0  0  0
   -6.0267   63.0154   77.0153 H   0  0  0  0  0  0  0  0  0  0  0  0
   -6.9790   60.6457   74.9445 H   0  0  0  0  0  0  0  0  0  0  0  0
   -5.7870   61.2693   73.7542 H   0  0  0  0  0  0  0  0  0  0  0  0
   -6.2297   59.5284   73.7542 H   0  0  0  0  0  0  0  0  0  0  0  0
    1.4551   64.3584   69.9104 H   0  0  0  0  0  0  0  0  0  0  0  0
    3.5947   63.8755   68.7326 H   0  0  0  0  0  0  0  0  0  0  0  0
    5.3050   62.4052   69.7927 H   0  0  0  0  0  0  0  0  0  0  0  0
    2.8083   62.0602   73.3055 H   0  0  0  0  0  0  0  0  0  0  0  0
    6.0673   61.1764   71.6494 H   0  0  0  0  0  0  0  0  0  0  0  0
    5.2868   61.4533   73.2709 H   0  0  0  0  0  0  0  0  0  0  0  0
    5.4203   59.1005   72.0755 H   0  0  0  0  0  0  0  0  0  0  0  0
    3.0119   60.3086   70.9226 H   0  0  0  0  0  0  0  0  0  0  0  0
    4.2557   59.2473   70.1692 H   0  0  0  0  0  0  0  0  0  0  0  0
    2.1718   58.0033   70.5188 H   0  0  0  0  0  0  0  0  0  0  0  0
    3.4861   57.3715   71.5927 H   0  0  0  0  0  0  0  0  0  0  0  0
    0.9797   58.8816   72.2851 H   0  0  0  0  0  0  0  0  0  0  0  0
    1.7915   57.4721   73.1038 H   0  0  0  0  0  0  0  0  0  0  0  0
    2.2705   60.4186   73.4084 H   0  0  0  0  0  0  0  0  0  0  0  0
    2.2393   59.0866   74.6365 H   0  0  0  0  0  0  0  0  0  0  0  0
    4.5099   59.9661   74.3645 H   0  0  0  0  0  0  0  0  0  0  0  0
    4.3930   58.2607   73.7863 H   0  0  0  0  0  0  0  0  0  0  0  0
  3  2  2  0
  4  3  1  0
  5  4  2  0
  6  5  1  0
  7  6  2  0
  7  2  1  0
  8  5  1  0
  9  8  1  0
  9  1  1  0
 10  9  1  0
 10  4  1  0
 11 10  2  0
 13 12  1  0
 13  2  1  0
 14  7  1  0
 15 14  1  0
 16  1  1  0
 17 16  2  0
 18 17  1  0
 19 18  2  0
 20 19  1  0
 21 20  2  0
 21 16  1  0
 22 20  1  0
 23 22  1  0
 24 23  1  0
 25 24  1  0
 26 25  1  0
 27 26  1  0
 28 27  1  0
 28 23  1  0
  1 29  1  0
  1 30  1  0
  3 31  1  0
  6 32  1  0
  8 33  1  0
  8 34  1  0
  9 35  1  1
 12 36  1  0
 12 37  1  0
 12 38  1  0
 15 39  1  0
 15 40  1  0
 15 41  1  0
 17 42  1  0
 18 43  1  0
 19 44  1  0
 21 45  1  0
 22 46  1  0
 22 47  1  0
 23 48  1  0
 24 49  1  0
 24 50  1  0
 25 51  1  0
 25 52  1  0
 26 53  1  0
 26 54  1  0
 27 55  1  0
 27 56  1  0
 28 57  1  0
 28 58  1  0
M  CHG  1  23   1
M  END
>  <score>  (9) 
-7.826

$$$$
