=
     RDKit          3D

 40 43  0  0  0  0  0  0  0  0999 V2000
    1.1450   65.2940   70.2840 C   0  0  0  0  0  0  0  0  0  0  0  0
   -0.0160   65.8540   70.5520 N   0  0  0  0  0  0  0  0  0  0  0  0
   -0.2040   66.8370   69.6030 N   0  0  0  0  0  0  0  0  0  0  0  0
    0.8470   66.8100   68.8110 C   0  0  0  0  0  0  0  0  0  0  0  0
    1.7510   65.8510   69.1870 O   0  0  0  0  0  0  0  0  0  0  0  0
    1.1510   67.5690   67.7360 N   0  0  0  0  0  0  0  0  0  0  0  0
    0.1200   68.4610   67.1890 C   0  0  0  0  0  0  0  0  0  0  0  0
   -0.2620   68.0780   65.7410 C   0  0  0  0  0  0  0  0  0  0  0  0
    0.9170   67.9530   64.8570 N   0  0  0  0  0  0  0  0  0  0  0  0
    2.2330   67.9780   65.5220 C   0  0  0  0  0  0  0  0  0  0  0  0
    2.2010   67.1260   66.8080 C   0  0  0  0  0  0  0  0  0  0  0  0
    3.8370   61.1240   72.8760 F   0  0  0  0  0  0  0  0  0  0  0  0
    3.1940   62.1210   72.2550 C   0  0  0  0  0  0  0  0  0  0  0  0
    3.7760   62.7220   71.1460 C   0  0  0  0  0  0  0  0  0  0  0  0
    3.1100   63.7650   70.4940 C   0  0  0  0  0  0  0  0  0  0  0  0
    1.8550   64.2100   70.9490 C   0  0  0  0  0  0  0  0  0  0  0  0
    1.3010   63.5780   72.0710 C   0  0  0  0  0  0  0  0  0  0  0  0
    1.9600   62.5390   72.7250 C   0  0  0  0  0  0  0  0  0  0  0  0
    0.1070   63.9560   72.5510 F   0  0  0  0  0  0  0  0  0  0  0  0
    0.8640   68.5780   63.6120 C   0  0  0  0  0  0  0  0  0  0  0  0
   -0.2840   69.2630   63.2060 C   0  0  0  0  0  0  0  0  0  0  0  0
   -0.3320   69.8700   61.9500 C   0  0  0  0  0  0  0  0  0  0  0  0
    0.7670   69.7770   61.1120 C   0  0  0  0  0  0  0  0  0  0  0  0
    1.8620   69.0700   61.5690 C   0  0  0  0  0  0  0  0  0  0  0  0
    1.9260   68.4750   62.7810 N   0  0  0  0  0  0  0  0  0  0  0  0
   -0.7773   68.3984   67.8222 H   0  0  0  0  0  0  0  0  0  0  0  0
    0.5248   69.4837   67.1764 H   0  0  0  0  0  0  0  0  0  0  0  0
   -0.7924   67.1145   65.7595 H   0  0  0  0  0  0  0  0  0  0  0  0
   -0.8963   68.8821   65.3395 H   0  0  0  0  0  0  0  0  0  0  0  0
    2.9929   67.5730   64.8375 H   0  0  0  0  0  0  0  0  0  0  0  0
    2.4793   69.0166   65.7876 H   0  0  0  0  0  0  0  0  0  0  0  0
    2.0138   66.0771   66.5345 H   0  0  0  0  0  0  0  0  0  0  0  0
    3.1712   67.2382   67.3141 H   0  0  0  0  0  0  0  0  0  0  0  0
    4.7559   62.3793   70.7823 H   0  0  0  0  0  0  0  0  0  0  0  0
    3.5718   64.2420   69.6170 H   0  0  0  0  0  0  0  0  0  0  0  0
    1.5060   62.0569   73.6033 H   0  0  0  0  0  0  0  0  0  0  0  0
   -1.1526   69.3241   63.8782 H   0  0  0  0  0  0  0  0  0  0  0  0
   -1.2318   70.4157   61.6295 H   0  0  0  0  0  0  0  0  0  0  0  0
    0.7677   70.2491   60.1185 H   0  0  0  0  0  0  0  0  0  0  0  0
    2.7356   68.9860   60.9059 H   0  0  0  0  0  0  0  0  0  0  0  0
  2  1  2  0
  3  2  1  0
  4  3  2  0
  5  1  1  0
  5  4  1  0
  6  4  1  0
  7  6  1  0
  8  7  1  0
  9  8  1  0
 10  9  1  0
 11 10  1  0
 11  6  1  0
 13 12  1  0
 14 13  2  0
 15 14  1  0
 16 15  2  0
 16  1  1  0
 17 16  1  0
 18 17  2  0
 18 13  1  0
 19 17  1  0
 20  9  1  0
 21 20  2  0
 22 21  1  0
 23 22  2  0
 24 23  1  0
 25 24  2  0
 25 20  1  0
  7 26  1  0
  7 27  1  0
  8 28  1  0
  8 29  1  0
 10 30  1  0
 10 31  1  0
 11 32  1  0
 11 33  1  0
 14 34  1  0
 15 35  1  0
 18 36  1  0
 21 37  1  0
 22 38  1  0
 23 39  1  0
 24 40  1  0
M  END
>  <score>  (1) 
-8.67

$$$$
=
     RDKit          3D

 40 43  0  0  0  0  0  0  0  0999 V2000
    0.2200   66.7380   68.7780 C   0  0  0  0  0  0  0  0  0  0  0  0
    1.5070   66.9550   68.9540 N   0  0  0  0  0  0  0  0  0  0  0  0
    1.9220   66.0680   69.9250 N   0  0  0  0  0  0  0  0  0  0  0  0
    0.8690   65.3610   70.2750 C   0  0  0  0  0  0  0  0  0  0  0  0
   -0.2540   65.7360   69.5850 O   0  0  0  0  0  0  0  0  0  0  0  0
    0.7430   64.3710   71.1850 N   0  0  0  0  0  0  0  0  0  0  0  0
    1.9580   63.8120   71.7900 C   0  0  0  0  0  0  0  0  0  0  0  0
    2.1340   62.3150   71.4500 C   0  0  0  0  0  0  0  0  0  0  0  0
    0.9240   61.5190   71.7510 N   0  0  0  0  0  0  0  0  0  0  0  0
   -0.2890   62.2850   72.0910 C   0  0  0  0  0  0  0  0  0  0  0  0
   -0.4380   63.4990   71.1500 C   0  0  0  0  0  0  0  0  0  0  0  0
   -3.4330   69.2260   65.3380 F   0  0  0  0  0  0  0  0  0  0  0  0
   -2.5600   68.6290   66.1610 C   0  0  0  0  0  0  0  0  0  0  0  0
   -2.9620   67.5190   66.8940 C   0  0  0  0  0  0  0  0  0  0  0  0
   -2.0540   66.8930   67.7560 C   0  0  0  0  0  0  0  0  0  0  0  0
   -0.7390   67.3760   67.8870 C   0  0  0  0  0  0  0  0  0  0  0  0
   -0.3720   68.4980   67.1300 C   0  0  0  0  0  0  0  0  0  0  0  0
   -1.2720   69.1260   66.2710 C   0  0  0  0  0  0  0  0  0  0  0  0
    0.8670   69.0030   67.2100 F   0  0  0  0  0  0  0  0  0  0  0  0
    1.0910   60.3220   72.4470 C   0  0  0  0  0  0  0  0  0  0  0  0
    0.0630   59.8070   73.2380 C   0  0  0  0  0  0  0  0  0  0  0  0
    0.2480   58.6170   73.9440 C   0  0  0  0  0  0  0  0  0  0  0  0
    1.4640   57.9610   73.8540 C   0  0  0  0  0  0  0  0  0  0  0  0
    2.4440   58.5350   73.0680 C   0  0  0  0  0  0  0  0  0  0  0  0
    2.2830   59.6870   72.3790 N   0  0  0  0  0  0  0  0  0  0  0  0
    2.8302   64.3671   71.4143 H   0  0  0  0  0  0  0  0  0  0  0  0
    1.8692   63.9056   72.8824 H   0  0  0  0  0  0  0  0  0  0  0  0
    2.3601   62.2212   70.3776 H   0  0  0  0  0  0  0  0  0  0  0  0
    2.9533   61.9254   72.0720 H   0  0  0  0  0  0  0  0  0  0  0  0
   -1.1699   61.6346   71.9863 H   0  0  0  0  0  0  0  0  0  0  0  0
   -0.2063   62.6441   73.1274 H   0  0  0  0  0  0  0  0  0  0  0  0
   -0.5807   63.1357   70.1216 H   0  0  0  0  0  0  0  0  0  0  0  0
   -1.3041   64.0866   71.4884 H   0  0  0  0  0  0  0  0  0  0  0  0
   -3.9880   67.1344   66.7974 H   0  0  0  0  0  0  0  0  0  0  0  0
   -2.3717   66.0146   68.3369 H   0  0  0  0  0  0  0  0  0  0  0  0
   -0.9631   70.0058   65.6874 H   0  0  0  0  0  0  0  0  0  0  0  0
   -0.8965   60.3407   73.3054 H   0  0  0  0  0  0  0  0  0  0  0  0
   -0.5621   58.2056   74.5640 H   0  0  0  0  0  0  0  0  0  0  0  0
    1.6431   57.0168   74.3892 H   0  0  0  0  0  0  0  0  0  0  0  0
    3.4153   58.0233   72.9983 H   0  0  0  0  0  0  0  0  0  0  0  0
  2  1  2  0
  3  2  1  0
  4  3  2  0
  5  1  1  0
  5  4  1  0
  6  4  1  0
  7  6  1  0
  8  7  1  0
  9  8  1  0
 10  9  1  0
 11 10  1  0
 11  6  1  0
 13 12  1  0
 14 13  2  0
 15 14  1  0
 16 15  2  0
 16  1  1  0
 17 16  1  0
 18 17  2  0
 18 13  1  0
 19 17  1  0
 20  9  1  0
 21 20  2  0
 22 21  1  0
 23 22  2  0
 24 23  1  0
 25 24  2  0
 25 20  1  0
  7 26  1  0
  7 27  1  0
  8 28  1  0
  8 29  1  0
 10 30  1  0
 10 31  1  0
 11 32  1  0
 11 33  1  0
 14 34  1  0
 15 35  1  0
 18 36  1  0
 21 37  1  0
 22 38  1  0
 23 39  1  0
 24 40  1  0
M  END
>  <score>  (2) 
-8.459

$$$$
=
     RDKit          3D

 40 43  0  0  0  0  0  0  0  0999 V2000
    3.5590   60.1420   72.3560 C   0  0  0  0  0  0  0  0  0  0  0  0
    4.4380   59.8720   73.2970 N   0  0  0  0  0  0  0  0  0  0  0  0
    3.8320   58.9730   74.1510 N   0  0  0  0  0  0  0  0  0  0  0  0
    2.6270   58.7450   73.6750 C   0  0  0  0  0  0  0  0  0  0  0  0
    2.3820   59.4590   72.5310 O   0  0  0  0  0  0  0  0  0  0  0  0
    1.6380   57.9510   74.1410 N   0  0  0  0  0  0  0  0  0  0  0  0
    1.9380   57.0250   75.2400 C   0  0  0  0  0  0  0  0  0  0  0  0
    1.7600   55.5500   74.8150 C   0  0  0  0  0  0  0  0  0  0  0  0
    0.4430   55.2940   74.1920 N   0  0  0  0  0  0  0  0  0  0  0  0
   -0.3650   56.4850   73.8710 C   0  0  0  0  0  0  0  0  0  0  0  0
    0.5230   57.5870   73.2570 C   0  0  0  0  0  0  0  0  0  0  0  0
    3.8860   63.4800   67.8720 F   0  0  0  0  0  0  0  0  0  0  0  0
    3.8070   62.6830   68.9460 C   0  0  0  0  0  0  0  0  0  0  0  0
    3.8050   63.2470   70.2150 C   0  0  0  0  0  0  0  0  0  0  0  0
    3.7240   62.4190   71.3400 C   0  0  0  0  0  0  0  0  0  0  0  0
    3.6440   61.0210   71.1980 C   0  0  0  0  0  0  0  0  0  0  0  0
    3.6490   60.4910   69.9000 C   0  0  0  0  0  0  0  0  0  0  0  0
    3.7300   61.3110   68.7760 C   0  0  0  0  0  0  0  0  0  0  0  0
    3.5730   59.1670   69.7000 F   0  0  0  0  0  0  0  0  0  0  0  0
   -0.2760   54.1820   74.6270 C   0  0  0  0  0  0  0  0  0  0  0  0
   -0.1020   52.9370   74.0190 C   0  0  0  0  0  0  0  0  0  0  0  0
   -0.8400   51.8340   74.4530 C   0  0  0  0  0  0  0  0  0  0  0  0
   -1.7480   51.9930   75.4850 C   0  0  0  0  0  0  0  0  0  0  0  0
   -1.8830   53.2550   76.0310 C   0  0  0  0  0  0  0  0  0  0  0  0
   -1.1780   54.3340   75.6220 N   0  0  0  0  0  0  0  0  0  0  0  0
    2.9786   57.1795   75.5613 H   0  0  0  0  0  0  0  0  0  0  0  0
    1.2351   57.2307   76.0608 H   0  0  0  0  0  0  0  0  0  0  0  0
    2.5480   55.2940   74.0915 H   0  0  0  0  0  0  0  0  0  0  0  0
    1.8263   54.9310   75.7219 H   0  0  0  0  0  0  0  0  0  0  0  0
   -1.1490   56.2079   73.1508 H   0  0  0  0  0  0  0  0  0  0  0  0
   -0.8203   56.8676   74.7964 H   0  0  0  0  0  0  0  0  0  0  0  0
    0.9308   57.2236   72.3022 H   0  0  0  0  0  0  0  0  0  0  0  0
   -0.0994   58.4818   73.1089 H   0  0  0  0  0  0  0  0  0  0  0  0
    3.8668   64.3387   70.3351 H   0  0  0  0  0  0  0  0  0  0  0  0
    3.7228   62.8651   72.3455 H   0  0  0  0  0  0  0  0  0  0  0  0
    3.7327   60.8738   67.7666 H   0  0  0  0  0  0  0  0  0  0  0  0
    0.6187   52.8249   73.1956 H   0  0  0  0  0  0  0  0  0  0  0  0
   -0.7013   50.8505   73.9802 H   0  0  0  0  0  0  0  0  0  0  0  0
   -2.3412   51.1448   75.8574 H   0  0  0  0  0  0  0  0  0  0  0  0
   -2.6076   53.3901   76.8475 H   0  0  0  0  0  0  0  0  0  0  0  0
  2  1  2  0
  3  2  1  0
  4  3  2  0
  5  1  1  0
  5  4  1  0
  6  4  1  0
  7  6  1  0
  8  7  1  0
  9  8  1  0
 10  9  1  0
 11 10  1  0
 11  6  1  0
 13 12  1  0
 14 13  2  0
 15 14  1  0
 16 15  2  0
 16  1  1  0
 17 16  1  0
 18 17  2  0
 18 13  1  0
 19 17  1  0
 20  9  1  0
 21 20  2  0
 22 21  1  0
 23 22  2  0
 24 23  1  0
 25 24  2  0
 25 20  1  0
  7 26  1  0
  7 27  1  0
  8 28  1  0
  8 29  1  0
 10 30  1  0
 10 31  1  0
 11 32  1  0
 11 33  1  0
 14 34  1  0
 15 35  1  0
 18 36  1  0
 21 37  1  0
 22 38  1  0
 23 39  1  0
 24 40  1  0
M  END
>  <score>  (3) 
-8.33

$$$$
=
     RDKit          3D

 40 43  0  0  0  0  0  0  0  0999 V2000
    1.6520   68.3770   66.9420 C   0  0  0  0  0  0  0  0  0  0  0  0
    0.5200   68.9860   67.2290 N   0  0  0  0  0  0  0  0  0  0  0  0
   -0.1380   68.1800   68.1340 N   0  0  0  0  0  0  0  0  0  0  0  0
    0.6340   67.1360   68.3500 C   0  0  0  0  0  0  0  0  0  0  0  0
    1.7930   67.1940   67.6210 O   0  0  0  0  0  0  0  0  0  0  0  0
    0.4470   66.0590   69.1440 N   0  0  0  0  0  0  0  0  0  0  0  0
   -0.6810   66.0660   70.0850 C   0  0  0  0  0  0  0  0  0  0  0  0
   -0.2050   65.9990   71.5540 C   0  0  0  0  0  0  0  0  0  0  0  0
    0.7380   64.8850   71.7950 N   0  0  0  0  0  0  0  0  0  0  0  0
    1.2390   64.1880   70.5960 C   0  0  0  0  0  0  0  0  0  0  0  0
    1.5910   65.2060   69.4910 C   0  0  0  0  0  0  0  0  0  0  0  0
    5.8530   69.8620   63.5510 F   0  0  0  0  0  0  0  0  0  0  0  0
    4.8470   69.5060   64.3610 C   0  0  0  0  0  0  0  0  0  0  0  0
    3.7380   68.8610   63.8290 C   0  0  0  0  0  0  0  0  0  0  0  0
    2.6850   68.4870   64.6700 C   0  0  0  0  0  0  0  0  0  0  0  0
    2.7380   68.7580   66.0500 C   0  0  0  0  0  0  0  0  0  0  0  0
    3.8740   69.4100   66.5480 C   0  0  0  0  0  0  0  0  0  0  0  0
    4.9260   69.7850   65.7150 C   0  0  0  0  0  0  0  0  0  0  0  0
    3.9840   69.6940   67.8540 F   0  0  0  0  0  0  0  0  0  0  0  0
    0.5150   64.0760   72.9080 C   0  0  0  0  0  0  0  0  0  0  0  0
    0.8050   62.7100   72.8680 C   0  0  0  0  0  0  0  0  0  0  0  0
    0.5620   61.9080   73.9840 C   0  0  0  0  0  0  0  0  0  0  0  0
    0.0240   62.4810   75.1240 C   0  0  0  0  0  0  0  0  0  0  0  0
   -0.2550   63.8330   75.0900 C   0  0  0  0  0  0  0  0  0  0  0  0
   -0.0270   64.6250   74.0180 N   0  0  0  0  0  0  0  0  0  0  0  0
   -1.2595   66.9903   69.9402 H   0  0  0  0  0  0  0  0  0  0  0  0
   -1.2979   65.1774   69.8851 H   0  0  0  0  0  0  0  0  0  0  0  0
    0.2958   66.9455   71.8058 H   0  0  0  0  0  0  0  0  0  0  0  0
   -1.0904   65.8289   72.1842 H   0  0  0  0  0  0  0  0  0  0  0  0
    2.1392   63.6136   70.8601 H   0  0  0  0  0  0  0  0  0  0  0  0
    0.4559   63.5118   70.2225 H   0  0  0  0  0  0  0  0  0  0  0  0
    2.4148   65.8434   69.8447 H   0  0  0  0  0  0  0  0  0  0  0  0
    1.8809   64.6438   68.5910 H   0  0  0  0  0  0  0  0  0  0  0  0
    3.6881   68.6454   62.7515 H   0  0  0  0  0  0  0  0  0  0  0  0
    1.8067   67.9760   64.2487 H   0  0  0  0  0  0  0  0  0  0  0  0
    5.8082   70.2963   66.1277 H   0  0  0  0  0  0  0  0  0  0  0  0
    1.2261   62.2653   71.9543 H   0  0  0  0  0  0  0  0  0  0  0  0
    0.7951   60.8333   73.9583 H   0  0  0  0  0  0  0  0  0  0  0  0
   -0.1740   61.8808   76.0243 H   0  0  0  0  0  0  0  0  0  0  0  0
   -0.6891   64.2937   75.9896 H   0  0  0  0  0  0  0  0  0  0  0  0
  2  1  2  0
  3  2  1  0
  4  3  2  0
  5  1  1  0
  5  4  1  0
  6  4  1  0
  7  6  1  0
  8  7  1  0
  9  8  1  0
 10  9  1  0
 11 10  1  0
 11  6  1  0
 13 12  1  0
 14 13  2  0
 15 14  1  0
 16 15  2  0
 16  1  1  0
 17 16  1  0
 18 17  2  0
 18 13  1  0
 19 17  1  0
 20  9  1  0
 21 20  2  0
 22 21  1  0
 23 22  2  0
 24 23  1  0
 25 24  2  0
 25 20  1  0
  7 26  1  0
  7 27  1  0
  8 28  1  0
  8 29  1  0
 10 30  1  0
 10 31  1  0
 11 32  1  0
 11 33  1  0
 14 34  1  0
 15 35  1  0
 18 36  1  0
 21 37  1  0
 22 38  1  0
 23 39  1  0
 24 40  1  0
M  END
>  <score>  (4) 
-7.984

$$$$
=
     RDKit          3D

 40 43  0  0  0  0  0  0  0  0999 V2000
    2.1420   61.4460   71.4420 C   0  0  0  0  0  0  0  0  0  0  0  0
    3.1450   60.6870   71.0560 N   0  0  0  0  0  0  0  0  0  0  0  0
    3.0350   59.5070   71.7630 N   0  0  0  0  0  0  0  0  0  0  0  0
    1.9700   59.6160   72.5270 C   0  0  0  0  0  0  0  0  0  0  0  0
    1.3510   60.8290   72.3770 O   0  0  0  0  0  0  0  0  0  0  0  0
    1.4330   58.7440   73.4090 N   0  0  0  0  0  0  0  0  0  0  0  0
    1.9500   57.3700   73.4440 C   0  0  0  0  0  0  0  0  0  0  0  0
    0.8640   56.3380   73.0660 C   0  0  0  0  0  0  0  0  0  0  0  0
   -0.3760   56.5050   73.8530 N   0  0  0  0  0  0  0  0  0  0  0  0
   -0.4660   57.7270   74.6720 C   0  0  0  0  0  0  0  0  0  0  0  0
    0.0560   58.9440   73.8790 C   0  0  0  0  0  0  0  0  0  0  0  0
    0.7130   66.6330   69.8890 F   0  0  0  0  0  0  0  0  0  0  0  0
    1.0520   65.3920   70.2600 C   0  0  0  0  0  0  0  0  0  0  0  0
    0.0560   64.4690   70.5510 C   0  0  0  0  0  0  0  0  0  0  0  0
    0.4060   63.1710   70.9390 C   0  0  0  0  0  0  0  0  0  0  0  0
    1.7570   62.7920   71.0390 C   0  0  0  0  0  0  0  0  0  0  0  0
    2.7330   63.7520   70.7370 C   0  0  0  0  0  0  0  0  0  0  0  0
    2.3910   65.0460   70.3490 C   0  0  0  0  0  0  0  0  0  0  0  0
    4.0370   63.4500   70.8110 F   0  0  0  0  0  0  0  0  0  0  0  0
   -0.9460   55.3630   74.4160 C   0  0  0  0  0  0  0  0  0  0  0  0
   -2.1460   55.4400   75.1270 C   0  0  0  0  0  0  0  0  0  0  0  0
   -2.6970   54.2940   75.7000 C   0  0  0  0  0  0  0  0  0  0  0  0
   -2.0360   53.0850   75.5620 C   0  0  0  0  0  0  0  0  0  0  0  0
   -0.8460   53.0820   74.8620 C   0  0  0  0  0  0  0  0  0  0  0  0
   -0.2960   54.1830   74.3020 N   0  0  0  0  0  0  0  0  0  0  0  0
    2.7845   57.2854   72.7324 H   0  0  0  0  0  0  0  0  0  0  0  0
    2.2823   57.1560   74.4705 H   0  0  0  0  0  0  0  0  0  0  0  0
    0.6228   56.4549   71.9991 H   0  0  0  0  0  0  0  0  0  0  0  0
    1.2649   55.3370   73.2835 H   0  0  0  0  0  0  0  0  0  0  0  0
   -1.5157   57.8996   74.9519 H   0  0  0  0  0  0  0  0  0  0  0  0
    0.1489   57.5982   75.5750 H   0  0  0  0  0  0  0  0  0  0  0  0
   -0.5964   59.1072   73.0085 H   0  0  0  0  0  0  0  0  0  0  0  0
    0.0489   59.8156   74.5500 H   0  0  0  0  0  0  0  0  0  0  0  0
   -1.0030   64.7570   70.4768 H   0  0  0  0  0  0  0  0  0  0  0  0
   -0.3831   62.4397   71.1681 H   0  0  0  0  0  0  0  0  0  0  0  0
    3.1736   65.7832   70.1164 H   0  0  0  0  0  0  0  0  0  0  0  0
   -2.6580   56.4075   75.2353 H   0  0  0  0  0  0  0  0  0  0  0  0
   -3.6452   54.3499   76.2548 H   0  0  0  0  0  0  0  0  0  0  0  0
   -2.4446   52.1599   75.9947 H   0  0  0  0  0  0  0  0  0  0  0  0
   -0.3130   52.1259   74.7533 H   0  0  0  0  0  0  0  0  0  0  0  0
  2  1  2  0
  3  2  1  0
  4  3  2  0
  5  1  1  0
  5  4  1  0
  6  4  1  0
  7  6  1  0
  8  7  1  0
  9  8  1  0
 10  9  1  0
 11 10  1  0
 11  6  1  0
 13 12  1  0
 14 13  2  0
 15 14  1  0
 16 15  2  0
 16  1  1  0
 17 16  1  0
 18 17  2  0
 18 13  1  0
 19 17  1  0
 20  9  1  0
 21 20  2  0
 22 21  1  0
 23 22  2  0
 24 23  1  0
 25 24  2  0
 25 20  1  0
  7 26  1  0
  7 27  1  0
  8 28  1  0
  8 29  1  0
 10 30  1  0
 10 31  1  0
 11 32  1  0
 11 33  1  0
 14 34  1  0
 15 35  1  0
 18 36  1  0
 21 37  1  0
 22 38  1  0
 23 39  1  0
 24 40  1  0
M  END
>  <score>  (5) 
-7.924

$$$$
=
     RDKit          3D

 40 43  0  0  0  0  0  0  0  0999 V2000
    1.0670   66.8230   68.9620 C   0  0  0  0  0  0  0  0  0  0  0  0
    0.1210   67.1550   69.8140 N   0  0  0  0  0  0  0  0  0  0  0  0
   -0.0380   66.0770   70.6610 N   0  0  0  0  0  0  0  0  0  0  0  0
    0.8260   65.1600   70.2790 C   0  0  0  0  0  0  0  0  0  0  0  0
    1.5640   65.5670   69.1990 O   0  0  0  0  0  0  0  0  0  0  0  0
    1.0670   63.9260   70.7740 N   0  0  0  0  0  0  0  0  0  0  0  0
    0.4410   63.5430   72.0450 C   0  0  0  0  0  0  0  0  0  0  0  0
    1.4940   63.2550   73.1400 C   0  0  0  0  0  0  0  0  0  0  0  0
    2.5270   62.2950   72.6960 N   0  0  0  0  0  0  0  0  0  0  0  0
    2.5270   61.9590   71.2600 C   0  0  0  0  0  0  0  0  0  0  0  0
    2.3090   63.2300   70.4120 C   0  0  0  0  0  0  0  0  0  0  0  0
    3.3200   69.7000   64.7180 F   0  0  0  0  0  0  0  0  0  0  0  0
    2.7800   69.0100   65.7320 C   0  0  0  0  0  0  0  0  0  0  0  0
    2.0260   67.8750   65.4610 C   0  0  0  0  0  0  0  0  0  0  0  0
    1.4600   67.1520   66.5170 C   0  0  0  0  0  0  0  0  0  0  0  0
    1.6480   67.5620   67.8500 C   0  0  0  0  0  0  0  0  0  0  0  0
    2.4160   68.7120   68.0820 C   0  0  0  0  0  0  0  0  0  0  0  0
    2.9820   69.4360   67.0340 C   0  0  0  0  0  0  0  0  0  0  0  0
    2.6320   69.1510   69.3300 F   0  0  0  0  0  0  0  0  0  0  0  0
    2.8510   61.2460   73.5560 C   0  0  0  0  0  0  0  0  0  0  0  0
    3.7850   60.2780   73.1810 C   0  0  0  0  0  0  0  0  0  0  0  0
    4.0880   59.2230   74.0440 C   0  0  0  0  0  0  0  0  0  0  0  0
    3.4470   59.1470   75.2680 C   0  0  0  0  0  0  0  0  0  0  0  0
    2.5220   60.1280   75.5690 C   0  0  0  0  0  0  0  0  0  0  0  0
    2.2140   61.1550   74.7450 N   0  0  0  0  0  0  0  0  0  0  0  0
   -0.2091   64.3634   72.3832 H   0  0  0  0  0  0  0  0  0  0  0  0
   -0.1382   62.6230   71.8773 H   0  0  0  0  0  0  0  0  0  0  0  0
    1.9856   64.2003   73.4135 H   0  0  0  0  0  0  0  0  0  0  0  0
    0.9697   62.8078   73.9974 H   0  0  0  0  0  0  0  0  0  0  0  0
    3.4934   61.5063   70.9933 H   0  0  0  0  0  0  0  0  0  0  0  0
    1.7102   61.2503   71.0586 H   0  0  0  0  0  0  0  0  0  0  0  0
    3.1574   63.9121   70.5697 H   0  0  0  0  0  0  0  0  0  0  0  0
    2.2337   62.9264   69.3574 H   0  0  0  0  0  0  0  0  0  0  0  0
    1.8748   67.5465   64.4221 H   0  0  0  0  0  0  0  0  0  0  0  0
    0.8620   66.2539   66.3029 H   0  0  0  0  0  0  0  0  0  0  0  0
    3.5819   70.3350   67.2388 H   0  0  0  0  0  0  0  0  0  0  0  0
    4.2835   60.3468   72.2029 H   0  0  0  0  0  0  0  0  0  0  0  0
    4.8272   58.4616   73.7544 H   0  0  0  0  0  0  0  0  0  0  0  0
    3.6662   58.3343   75.9762 H   0  0  0  0  0  0  0  0  0  0  0  0
    2.0045   60.0702   76.5380 H   0  0  0  0  0  0  0  0  0  0  0  0
  2  1  2  0
  3  2  1  0
  4  3  2  0
  5  1  1  0
  5  4  1  0
  6  4  1  0
  7  6  1  0
  8  7  1  0
  9  8  1  0
 10  9  1  0
 11 10  1  0
 11  6  1  0
 13 12  1  0
 14 13  2  0
 15 14  1  0
 16 15  2  0
 16  1  1  0
 17 16  1  0
 18 17  2  0
 18 13  1  0
 19 17  1  0
 20  9  1  0
 21 20  2  0
 22 21  1  0
 23 22  2  0
 24 23  1  0
 25 24  2  0
 25 20  1  0
  7 26  1  0
  7 27  1  0
  8 28  1  0
  8 29  1  0
 10 30  1  0
 10 31  1  0
 11 32  1  0
 11 33  1  0
 14 34  1  0
 15 35  1  0
 18 36  1  0
 21 37  1  0
 22 38  1  0
 23 39  1  0
 24 40  1  0
M  END
>  <score>  (6) 
-7.865

$$$$
=
     RDKit          3D

 40 43  0  0  0  0  0  0  0  0999 V2000
    1.9170   60.9230   72.4910 C   0  0  0  0  0  0  0  0  0  0  0  0
    2.4280   60.1370   73.4150 N   0  0  0  0  0  0  0  0  0  0  0  0
    1.4270   59.9210   74.3400 N   0  0  0  0  0  0  0  0  0  0  0  0
    0.3670   60.5780   73.9190 C   0  0  0  0  0  0  0  0  0  0  0  0
    0.6070   61.2430   72.7450 O   0  0  0  0  0  0  0  0  0  0  0  0
   -0.8630   60.6930   74.4640 N   0  0  0  0  0  0  0  0  0  0  0  0
   -1.2110   59.8350   75.6040 C   0  0  0  0  0  0  0  0  0  0  0  0
   -2.3820   58.8830   75.2710 C   0  0  0  0  0  0  0  0  0  0  0  0
   -3.5510   59.5950   74.7090 N   0  0  0  0  0  0  0  0  0  0  0  0
   -3.3380   61.0080   74.3480 C   0  0  0  0  0  0  0  0  0  0  0  0
   -1.9780   61.1830   73.6410 C   0  0  0  0  0  0  0  0  0  0  0  0
    4.1760   63.1110   67.8580 F   0  0  0  0  0  0  0  0  0  0  0  0
    3.6360   62.5860   68.9650 C   0  0  0  0  0  0  0  0  0  0  0  0
    3.6290   61.2070   69.1340 C   0  0  0  0  0  0  0  0  0  0  0  0
    3.0670   60.6530   70.2890 C   0  0  0  0  0  0  0  0  0  0  0  0
    2.5070   61.4790   71.2820 C   0  0  0  0  0  0  0  0  0  0  0  0
    2.5340   62.8650   71.0750 C   0  0  0  0  0  0  0  0  0  0  0  0
    3.0930   63.4230   69.9260 C   0  0  0  0  0  0  0  0  0  0  0  0
    2.0190   63.7040   71.9850 F   0  0  0  0  0  0  0  0  0  0  0  0
   -4.8070   59.2930   75.2330 C   0  0  0  0  0  0  0  0  0  0  0  0
   -5.2270   57.9670   75.3610 C   0  0  0  0  0  0  0  0  0  0  0  0
   -6.4940   57.6780   75.8710 C   0  0  0  0  0  0  0  0  0  0  0  0
   -7.3280   58.7200   76.2380 C   0  0  0  0  0  0  0  0  0  0  0  0
   -6.8570   60.0070   76.0690 C   0  0  0  0  0  0  0  0  0  0  0  0
   -5.6350   60.3060   75.5750 N   0  0  0  0  0  0  0  0  0  0  0  0
   -0.3314   59.2345   75.8790 H   0  0  0  0  0  0  0  0  0  0  0  0
   -1.5239   60.4830   76.4360 H   0  0  0  0  0  0  0  0  0  0  0  0
   -2.0350   58.1408   74.5370 H   0  0  0  0  0  0  0  0  0  0  0  0
   -2.7014   58.4062   76.2094 H   0  0  0  0  0  0  0  0  0  0  0  0
   -4.1424   61.3348   73.6726 H   0  0  0  0  0  0  0  0  0  0  0  0
   -3.3444   61.6156   75.2650 H   0  0  0  0  0  0  0  0  0  0  0  0
   -1.9946   60.6219   72.6950 H   0  0  0  0  0  0  0  0  0  0  0  0
   -1.8229   62.2574   73.4634 H   0  0  0  0  0  0  0  0  0  0  0  0
    4.0635   60.5537   68.3630 H   0  0  0  0  0  0  0  0  0  0  0  0
    3.0626   59.5612   70.4227 H   0  0  0  0  0  0  0  0  0  0  0  0
    3.1027   64.5138   69.7844 H   0  0  0  0  0  0  0  0  0  0  0  0
   -4.5575   57.1481   75.0591 H   0  0  0  0  0  0  0  0  0  0  0  0
   -6.8256   56.6348   75.9799 H   0  0  0  0  0  0  0  0  0  0  0  0
   -8.3302   58.5296   76.6496 H   0  0  0  0  0  0  0  0  0  0  0  0
   -7.5167   60.8398   76.3539 H   0  0  0  0  0  0  0  0  0  0  0  0
  2  1  2  0
  3  2  1  0
  4  3  2  0
  5  1  1  0
  5  4  1  0
  6  4  1  0
  7  6  1  0
  8  7  1  0
  9  8  1  0
 10  9  1  0
 11 10  1  0
 11  6  1  0
 13 12  1  0
 14 13  2  0
 15 14  1  0
 16 15  2  0
 16  1  1  0
 17 16  1  0
 18 17  2  0
 18 13  1  0
 19 17  1  0
 20  9  1  0
 21 20  2  0
 22 21  1  0
 23 22  2  0
 24 23  1  0
 25 24  2  0
 25 20  1  0
  7 26  1  0
  7 27  1  0
  8 28  1  0
  8 29  1  0
 10 30  1  0
 10 31  1  0
 11 32  1  0
 11 33  1  0
 14 34  1  0
 15 35  1  0
 18 36  1  0
 21 37  1  0
 22 38  1  0
 23 39  1  0
 24 40  1  0
M  END
>  <score>  (7) 
-7.57

$$$$
=
     RDKit          3D

 40 43  0  0  0  0  0  0  0  0999 V2000
   -3.8520   62.3010   75.7390 C   0  0  0  0  0  0  0  0  0  0  0  0
   -3.1890   62.6040   76.8350 N   0  0  0  0  0  0  0  0  0  0  0  0
   -1.8530   62.4140   76.5490 N   0  0  0  0  0  0  0  0  0  0  0  0
   -1.7820   62.0170   75.2970 C   0  0  0  0  0  0  0  0  0  0  0  0
   -3.0200   61.9200   74.7170 O   0  0  0  0  0  0  0  0  0  0  0  0
   -0.7100   61.6940   74.5410 N   0  0  0  0  0  0  0  0  0  0  0  0
    0.6320   61.9810   75.0640 C   0  0  0  0  0  0  0  0  0  0  0  0
    1.3880   62.9990   74.1810 C   0  0  0  0  0  0  0  0  0  0  0  0
    1.3980   62.6140   72.7530 N   0  0  0  0  0  0  0  0  0  0  0  0
    0.5200   61.4920   72.3770 C   0  0  0  0  0  0  0  0  0  0  0  0
   -0.8470   61.6210   73.0800 C   0  0  0  0  0  0  0  0  0  0  0  0
   -9.3450   62.3950   74.6580 F   0  0  0  0  0  0  0  0  0  0  0  0
   -8.0310   62.3710   74.9160 C   0  0  0  0  0  0  0  0  0  0  0  0
   -7.3600   61.1540   74.9270 C   0  0  0  0  0  0  0  0  0  0  0  0
   -5.9880   61.1230   75.1970 C   0  0  0  0  0  0  0  0  0  0  0  0
   -5.2800   62.3120   75.4560 C   0  0  0  0  0  0  0  0  0  0  0  0
   -5.9930   63.5190   75.4360 C   0  0  0  0  0  0  0  0  0  0  0  0
   -7.3600   63.5560   75.1680 C   0  0  0  0  0  0  0  0  0  0  0  0
   -5.3740   64.6840   75.6730 F   0  0  0  0  0  0  0  0  0  0  0  0
    2.6140   62.6770   72.0730 C   0  0  0  0  0  0  0  0  0  0  0  0
    2.8120   63.6060   71.0490 C   0  0  0  0  0  0  0  0  0  0  0  0
    4.0270   63.6480   70.3640 C   0  0  0  0  0  0  0  0  0  0  0  0
    5.0270   62.7550   70.7070 C   0  0  0  0  0  0  0  0  0  0  0  0
    4.7590   61.8510   71.7170 C   0  0  0  0  0  0  0  0  0  0  0  0
    3.5880   61.7950   72.3900 N   0  0  0  0  0  0  0  0  0  0  0  0
    0.5375   62.3923   76.0798 H   0  0  0  0  0  0  0  0  0  0  0  0
    1.2046   61.0418   75.0686 H   0  0  0  0  0  0  0  0  0  0  0  0
    0.9007   63.9804   74.2782 H   0  0  0  0  0  0  0  0  0  0  0  0
    2.4321   63.0294   74.5259 H   0  0  0  0  0  0  0  0  0  0  0  0
    0.3694   61.4988   71.2874 H   0  0  0  0  0  0  0  0  0  0  0  0
    0.9934   60.5487   72.6869 H   0  0  0  0  0  0  0  0  0  0  0  0
   -1.3446   62.5351   72.7239 H   0  0  0  0  0  0  0  0  0  0  0  0
   -1.4389   60.7258   72.8386 H   0  0  0  0  0  0  0  0  0  0  0  0
   -7.9050   60.2202   74.7245 H   0  0  0  0  0  0  0  0  0  0  0  0
   -5.4568   60.1598   75.2071 H   0  0  0  0  0  0  0  0  0  0  0  0
   -7.8994   64.5146   75.1567 H   0  0  0  0  0  0  0  0  0  0  0  0
    2.0075   64.3069   70.7816 H   0  0  0  0  0  0  0  0  0  0  0  0
    4.1880   64.3822   69.5609 H   0  0  0  0  0  0  0  0  0  0  0  0
    6.0001   62.7645   70.1941 H   0  0  0  0  0  0  0  0  0  0  0  0
    5.5465   61.1332   71.9901 H   0  0  0  0  0  0  0  0  0  0  0  0
  2  1  2  0
  3  2  1  0
  4  3  2  0
  5  1  1  0
  5  4  1  0
  6  4  1  0
  7  6  1  0
  8  7  1  0
  9  8  1  0
 10  9  1  0
 11 10  1  0
 11  6  1  0
 13 12  1  0
 14 13  2  0
 15 14  1  0
 16 15  2  0
 16  1  1  0
 17 16  1  0
 18 17  2  0
 18 13  1  0
 19 17  1  0
 20  9  1  0
 21 20  2  0
 22 21  1  0
 23 22  2  0
 24 23  1  0
 25 24  2  0
 25 20  1  0
  7 26  1  0
  7 27  1  0
  8 28  1  0
  8 29  1  0
 10 30  1  0
 10 31  1  0
 11 32  1  0
 11 33  1  0
 14 34  1  0
 15 35  1  0
 18 36  1  0
 21 37  1  0
 22 38  1  0
 23 39  1  0
 24 40  1  0
M  END
>  <score>  (8) 
-7.295

$$$$
=
     RDKit          3D

 40 43  0  0  0  0  0  0  0  0999 V2000
   -2.3990   57.8460   75.3440 C   0  0  0  0  0  0  0  0  0  0  0  0
   -3.2620   58.7820   75.0120 N   0  0  0  0  0  0  0  0  0  0  0  0
   -2.5190   59.8750   74.6170 N   0  0  0  0  0  0  0  0  0  0  0  0
   -1.2520   59.5360   74.7230 C   0  0  0  0  0  0  0  0  0  0  0  0
   -1.0990   58.2550   75.1830 O   0  0  0  0  0  0  0  0  0  0  0  0
   -0.1320   60.2470   74.4650 N   0  0  0  0  0  0  0  0  0  0  0  0
   -0.2610   61.5410   73.7830 C   0  0  0  0  0  0  0  0  0  0  0  0
    0.4500   61.5410   72.4110 C   0  0  0  0  0  0  0  0  0  0  0  0
    1.8510   61.0730   72.4970 N   0  0  0  0  0  0  0  0  0  0  0  0
    2.2590   60.4800   73.7830 C   0  0  0  0  0  0  0  0  0  0  0  0
    1.1520   59.5490   74.3200 C   0  0  0  0  0  0  0  0  0  0  0  0
   -3.1700   52.6140   77.1850 F   0  0  0  0  0  0  0  0  0  0  0  0
   -2.9870   53.8660   76.7470 C   0  0  0  0  0  0  0  0  0  0  0  0
   -3.5480   54.9250   77.4490 C   0  0  0  0  0  0  0  0  0  0  0  0
   -3.3590   56.2350   76.9950 C   0  0  0  0  0  0  0  0  0  0  0  0
   -2.6060   56.4900   75.8330 C   0  0  0  0  0  0  0  0  0  0  0  0
   -2.0570   55.3950   75.1520 C   0  0  0  0  0  0  0  0  0  0  0  0
   -2.2420   54.0880   75.6000 C   0  0  0  0  0  0  0  0  0  0  0  0
   -1.3280   55.5740   74.0410 F   0  0  0  0  0  0  0  0  0  0  0  0
    2.8270   61.8280   71.8480 C   0  0  0  0  0  0  0  0  0  0  0  0
    2.5170   63.0710   71.2920 C   0  0  0  0  0  0  0  0  0  0  0  0
    3.4990   63.8090   70.6300 C   0  0  0  0  0  0  0  0  0  0  0  0
    4.7780   63.2910   70.5260 C   0  0  0  0  0  0  0  0  0  0  0  0
    5.0130   62.0490   71.0830 C   0  0  0  0  0  0  0  0  0  0  0  0
    4.0740   61.3190   71.7260 N   0  0  0  0  0  0  0  0  0  0  0  0
   -1.3285   61.7581   73.6306 H   0  0  0  0  0  0  0  0  0  0  0  0
    0.2129   62.3080   74.4132 H   0  0  0  0  0  0  0  0  0  0  0  0
   -0.1017   60.8782   71.7281 H   0  0  0  0  0  0  0  0  0  0  0  0
    0.4667   62.5779   72.0440 H   0  0  0  0  0  0  0  0  0  0  0  0
    3.1822   59.8997   73.6381 H   0  0  0  0  0  0  0  0  0  0  0  0
    2.4308   61.2873   74.5102 H   0  0  0  0  0  0  0  0  0  0  0  0
    1.0231   58.7102   73.6202 H   0  0  0  0  0  0  0  0  0  0  0  0
    1.4597   59.1940   75.3146 H   0  0  0  0  0  0  0  0  0  0  0  0
   -4.1381   54.7348   78.3576 H   0  0  0  0  0  0  0  0  0  0  0  0
   -3.8030   57.0737   77.5513 H   0  0  0  0  0  0  0  0  0  0  0  0
   -1.8020   53.2433   75.0497 H   0  0  0  0  0  0  0  0  0  0  0  0
    1.4952   63.4697   71.3762 H   0  0  0  0  0  0  0  0  0  0  0  0
    3.2593   64.7909   70.1960 H   0  0  0  0  0  0  0  0  0  0  0  0
    5.5788   63.8483   70.0180 H   0  0  0  0  0  0  0  0  0  0  0  0
    6.0258   61.6282   70.9983 H   0  0  0  0  0  0  0  0  0  0  0  0
  2  1  2  0
  3  2  1  0
  4  3  2  0
  5  1  1  0
  5  4  1  0
  6  4  1  0
  7  6  1  0
  8  7  1  0
  9  8  1  0
 10  9  1  0
 11 10  1  0
 11  6  1  0
 13 12  1  0
 14 13  2  0
 15 14  1  0
 16 15  2  0
 16  1  1  0
 17 16  1  0
 18 17  2  0
 18 13  1  0
 19 17  1  0
 20  9  1  0
 21 20  2  0
 22 21  1  0
 23 22  2  0
 24 23  1  0
 25 24  2  0
 25 20  1  0
  7 26  1  0
  7 27  1  0
  8 28  1  0
  8 29  1  0
 10 30  1  0
 10 31  1  0
 11 32  1  0
 11 33  1  0
 14 34  1  0
 15 35  1  0
 18 36  1  0
 21 37  1  0
 22 38  1  0
 23 39  1  0
 24 40  1  0
M  END
>  <score>  (9) 
-6.665

$$$$
