=
     RDKit          3D

 32 33  0  0  0  0  0  0  0  0999 V2000
   -0.0650   69.3010   67.9670 O   0  0  0  0  0  0  0  0  0  0  0  0
    0.9090   68.8870   67.3490 C   0  0  0  0  0  0  0  0  0  0  0  0
    2.2820   69.3840   67.6320 C   0  0  0  0  0  0  0  0  0  0  0  0
    2.5380   69.9510   68.8870 C   0  0  0  0  0  0  0  0  0  0  0  0
    3.8080   70.4460   69.1970 C   0  0  0  0  0  0  0  0  0  0  0  0
    4.8430   70.3880   68.2520 C   0  0  0  0  0  0  0  0  0  0  0  0
    4.5840   69.8110   67.0000 C   0  0  0  0  0  0  0  0  0  0  0  0
    3.3130   69.3150   66.6880 C   0  0  0  0  0  0  0  0  0  0  0  0
    6.2240   70.9000   68.5930 C   0  0  0  0  0  0  0  0  0  0  0  0
    6.5610   70.6560   69.8880 F   0  0  0  0  0  0  0  0  0  0  0  0
    7.2030   70.3300   67.8370 F   0  0  0  0  0  0  0  0  0  0  0  0
    6.3530   72.2440   68.4160 F   0  0  0  0  0  0  0  0  0  0  0  0
    0.6860   67.8700   66.2530 C   0  0  0  0  0  0  0  0  0  0  0  0
   -0.0610   66.9260   66.4780 O   0  0  0  0  0  0  0  0  0  0  0  0
    1.3950   68.0140   64.9530 C   0  0  0  0  0  0  0  0  0  0  0  0
    2.5080   67.1990   64.7100 C   0  0  0  0  0  0  0  0  0  0  0  0
    3.2170   67.3070   63.5110 C   0  0  0  0  0  0  0  0  0  0  0  0
    2.8210   68.2270   62.5290 C   0  0  0  0  0  0  0  0  0  0  0  0
    1.7100   69.0470   62.7810 C   0  0  0  0  0  0  0  0  0  0  0  0
    0.9990   68.9420   63.9820 C   0  0  0  0  0  0  0  0  0  0  0  0
    3.5980   68.3600   61.2410 C   0  0  0  0  0  0  0  0  0  0  0  0
    4.2300   67.2040   60.9010 F   0  0  0  0  0  0  0  0  0  0  0  0
    4.5670   69.3150   61.2990 F   0  0  0  0  0  0  0  0  0  0  0  0
    2.8160   68.6880   60.1750 F   0  0  0  0  0  0  0  0  0  0  0  0
    1.7331   70.0072   69.6347 H   0  0  0  0  0  0  0  0  0  0  0  0
    3.9969   70.8838   70.1883 H   0  0  0  0  0  0  0  0  0  0  0  0
    5.3899   69.7475   66.2540 H   0  0  0  0  0  0  0  0  0  0  0  0
    3.1241   68.8704   65.6997 H   0  0  0  0  0  0  0  0  0  0  0  0
    2.8261   66.4687   65.4686 H   0  0  0  0  0  0  0  0  0  0  0  0
    4.0930   66.6653   63.3356 H   0  0  0  0  0  0  0  0  0  0  0  0
    1.3942   69.7812   62.0252 H   0  0  0  0  0  0  0  0  0  0  0  0
    0.1282   69.5892   64.1633 H   0  0  0  0  0  0  0  0  0  0  0  0
  2  1  2  0
  3  2  1  0
  4  3  2  0
  5  4  1  0
  6  5  2  0
  7  6  1  0
  8  7  2  0
  8  3  1  0
  9  6  1  0
 10  9  1  0
 11  9  1  0
 12  9  1  0
 13  2  1  0
 14 13  2  0
 15 13  1  0
 16 15  2  0
 17 16  1  0
 18 17  2  0
 19 18  1  0
 20 19  2  0
 20 15  1  0
 21 18  1  0
 22 21  1  0
 23 21  1  0
 24 21  1  0
  4 25  1  0
  5 26  1  0
  7 27  1  0
  8 28  1  0
 16 29  1  0
 17 30  1  0
 19 31  1  0
 20 32  1  0
M  END
>  <score>  (1) 
-10.749

$$$$
=
     RDKit          3D

 32 33  0  0  0  0  0  0  0  0999 V2000
   -0.6380   69.4500   67.2610 O   0  0  0  0  0  0  0  0  0  0  0  0
    0.3030   68.6700   67.3610 C   0  0  0  0  0  0  0  0  0  0  0  0
    0.3030   67.5710   68.3620 C   0  0  0  0  0  0  0  0  0  0  0  0
    1.4610   67.3660   69.1230 C   0  0  0  0  0  0  0  0  0  0  0  0
    1.5170   66.3370   70.0680 C   0  0  0  0  0  0  0  0  0  0  0  0
    0.4160   65.4910   70.2620 C   0  0  0  0  0  0  0  0  0  0  0  0
   -0.7440   65.7060   69.5040 C   0  0  0  0  0  0  0  0  0  0  0  0
   -0.8020   66.7350   68.5580 C   0  0  0  0  0  0  0  0  0  0  0  0
    0.4650   64.3930   71.3000 C   0  0  0  0  0  0  0  0  0  0  0  0
   -0.2250   63.2860   70.9150 F   0  0  0  0  0  0  0  0  0  0  0  0
    1.7320   63.9710   71.5680 F   0  0  0  0  0  0  0  0  0  0  0  0
   -0.0620   64.7680   72.4990 F   0  0  0  0  0  0  0  0  0  0  0  0
    1.5000   68.8690   66.4580 C   0  0  0  0  0  0  0  0  0  0  0  0
    1.4010   68.5430   65.2810 O   0  0  0  0  0  0  0  0  0  0  0  0
    2.7650   69.4150   67.0160 C   0  0  0  0  0  0  0  0  0  0  0  0
    3.9330   69.2970   66.2510 C   0  0  0  0  0  0  0  0  0  0  0  0
    5.1510   69.7810   66.7370 C   0  0  0  0  0  0  0  0  0  0  0  0
    5.2210   70.3990   67.9940 C   0  0  0  0  0  0  0  0  0  0  0  0
    4.0510   70.5070   68.7600 C   0  0  0  0  0  0  0  0  0  0  0  0
    2.8300   70.0220   68.2760 C   0  0  0  0  0  0  0  0  0  0  0  0
    6.5400   70.9030   68.5300 C   0  0  0  0  0  0  0  0  0  0  0  0
    6.6770   70.6650   69.8630 F   0  0  0  0  0  0  0  0  0  0  0  0
    6.7020   72.2460   68.3700 F   0  0  0  0  0  0  0  0  0  0  0  0
    7.6180   70.3240   67.9320 F   0  0  0  0  0  0  0  0  0  0  0  0
    2.3333   68.0198   68.9760 H   0  0  0  0  0  0  0  0  0  0  0  0
    2.4305   66.1903   70.6629 H   0  0  0  0  0  0  0  0  0  0  0  0
   -1.6194   65.0573   69.6551 H   0  0  0  0  0  0  0  0  0  0  0  0
   -1.7175   66.8872   67.9674 H   0  0  0  0  0  0  0  0  0  0  0  0
    3.8911   68.8200   65.2607 H   0  0  0  0  0  0  0  0  0  0  0  0
    6.0616   69.6763   66.1288 H   0  0  0  0  0  0  0  0  0  0  0  0
    4.0932   70.9784   69.7530 H   0  0  0  0  0  0  0  0  0  0  0  0
    1.9202   70.1180   68.8868 H   0  0  0  0  0  0  0  0  0  0  0  0
  2  1  2  0
  3  2  1  0
  4  3  2  0
  5  4  1  0
  6  5  2  0
  7  6  1  0
  8  7  2  0
  8  3  1  0
  9  6  1  0
 10  9  1  0
 11  9  1  0
 12  9  1  0
 13  2  1  0
 14 13  2  0
 15 13  1  0
 16 15  2  0
 17 16  1  0
 18 17  2  0
 19 18  1  0
 20 19  2  0
 20 15  1  0
 21 18  1  0
 22 21  1  0
 23 21  1  0
 24 21  1  0
  4 25  1  0
  5 26  1  0
  7 27  1  0
  8 28  1  0
 16 29  1  0
 17 30  1  0
 19 31  1  0
 20 32  1  0
M  END
>  <score>  (2) 
-10.707

$$$$
=
     RDKit          3D

 32 33  0  0  0  0  0  0  0  0999 V2000
    0.3930   66.9570   66.8470 O   0  0  0  0  0  0  0  0  0  0  0  0
    1.0420   67.9440   66.5190 C   0  0  0  0  0  0  0  0  0  0  0  0
    1.7060   68.0370   65.1920 C   0  0  0  0  0  0  0  0  0  0  0  0
    1.1890   68.9390   64.2530 C   0  0  0  0  0  0  0  0  0  0  0  0
    1.7690   69.0540   62.9860 C   0  0  0  0  0  0  0  0  0  0  0  0
    2.8730   68.2630   62.6350 C   0  0  0  0  0  0  0  0  0  0  0  0
    3.3920   67.3690   63.5820 C   0  0  0  0  0  0  0  0  0  0  0  0
    2.8120   67.2520   64.8510 C   0  0  0  0  0  0  0  0  0  0  0  0
    3.5170   68.4040   61.2740 C   0  0  0  0  0  0  0  0  0  0  0  0
    4.4930   69.3500   61.2600 F   0  0  0  0  0  0  0  0  0  0  0  0
    4.1040   67.2520   60.8440 F   0  0  0  0  0  0  0  0  0  0  0  0
    2.6340   68.7570   60.3000 F   0  0  0  0  0  0  0  0  0  0  0  0
    1.1900   69.0700   67.5170 C   0  0  0  0  0  0  0  0  0  0  0  0
    0.1740   69.5570   68.0000 O   0  0  0  0  0  0  0  0  0  0  0  0
    2.5420   69.5820   67.8620 C   0  0  0  0  0  0  0  0  0  0  0  0
    3.5520   69.4950   66.8950 C   0  0  0  0  0  0  0  0  0  0  0  0
    4.8440   69.9490   67.1750 C   0  0  0  0  0  0  0  0  0  0  0  0
    5.1470   70.5050   68.4270 C   0  0  0  0  0  0  0  0  0  0  0  0
    4.1350   70.5820   69.3950 C   0  0  0  0  0  0  0  0  0  0  0  0
    2.8410   70.1270   69.1170 C   0  0  0  0  0  0  0  0  0  0  0  0
    6.5480   70.9760   68.7390 C   0  0  0  0  0  0  0  0  0  0  0  0
    7.4910   70.2780   68.0490 F   0  0  0  0  0  0  0  0  0  0  0  0
    6.8730   70.8460   70.0560 F   0  0  0  0  0  0  0  0  0  0  0  0
    6.7520   72.2880   68.4340 F   0  0  0  0  0  0  0  0  0  0  0  0
    0.3204   69.5613   64.5144 H   0  0  0  0  0  0  0  0  0  0  0  0
    1.3567   69.7697   62.2595 H   0  0  0  0  0  0  0  0  0  0  0  0
    4.2656   66.7519   63.3249 H   0  0  0  0  0  0  0  0  0  0  0  0
    3.2270   66.5414   65.5810 H   0  0  0  0  0  0  0  0  0  0  0  0
    3.3265   69.0660   65.9075 H   0  0  0  0  0  0  0  0  0  0  0  0
    5.6288   69.8698   66.4083 H   0  0  0  0  0  0  0  0  0  0  0  0
    4.3611   71.0052   70.3848 H   0  0  0  0  0  0  0  0  0  0  0  0
    2.0573   70.1976   69.8857 H   0  0  0  0  0  0  0  0  0  0  0  0
  2  1  2  0
  3  2  1  0
  4  3  2  0
  5  4  1  0
  6  5  2  0
  7  6  1  0
  8  7  2  0
  8  3  1  0
  9  6  1  0
 10  9  1  0
 11  9  1  0
 12  9  1  0
 13  2  1  0
 14 13  2  0
 15 13  1  0
 16 15  2  0
 17 16  1  0
 18 17  2  0
 19 18  1  0
 20 19  2  0
 20 15  1  0
 21 18  1  0
 22 21  1  0
 23 21  1  0
 24 21  1  0
  4 25  1  0
  5 26  1  0
  7 27  1  0
  8 28  1  0
 16 29  1  0
 17 30  1  0
 19 31  1  0
 20 32  1  0
M  END
>  <score>  (3) 
-10.703

$$$$
=
     RDKit          3D

 32 33  0  0  0  0  0  0  0  0999 V2000
    4.9880   68.9370   62.6070 O   0  0  0  0  0  0  0  0  0  0  0  0
    4.3570   68.6270   63.6120 C   0  0  0  0  0  0  0  0  0  0  0  0
    4.6690   69.2140   64.9420 C   0  0  0  0  0  0  0  0  0  0  0  0
    5.9620   69.7070   65.1630 C   0  0  0  0  0  0  0  0  0  0  0  0
    6.3100   70.2550   66.4010 C   0  0  0  0  0  0  0  0  0  0  0  0
    5.3720   70.3130   67.4420 C   0  0  0  0  0  0  0  0  0  0  0  0
    4.0760   69.8260   67.2120 C   0  0  0  0  0  0  0  0  0  0  0  0
    3.7260   69.2760   65.9730 C   0  0  0  0  0  0  0  0  0  0  0  0
    5.7370   70.9270   68.7730 C   0  0  0  0  0  0  0  0  0  0  0  0
    6.9930   70.5900   69.1710 F   0  0  0  0  0  0  0  0  0  0  0  0
    5.7020   72.2890   68.7570 F   0  0  0  0  0  0  0  0  0  0  0  0
    4.9070   70.5470   69.7830 F   0  0  0  0  0  0  0  0  0  0  0  0
    3.2590   67.5960   63.4810 C   0  0  0  0  0  0  0  0  0  0  0  0
    3.4700   66.6070   62.7890 O   0  0  0  0  0  0  0  0  0  0  0  0
    1.9530   67.8150   64.1550 C   0  0  0  0  0  0  0  0  0  0  0  0
    1.0760   68.7630   63.6130 C   0  0  0  0  0  0  0  0  0  0  0  0
   -0.1580   69.0160   64.2180 C   0  0  0  0  0  0  0  0  0  0  0  0
   -0.5410   68.3200   65.3740 C   0  0  0  0  0  0  0  0  0  0  0  0
    0.3450   67.3770   65.9190 C   0  0  0  0  0  0  0  0  0  0  0  0
    1.5820   67.1230   65.3140 C   0  0  0  0  0  0  0  0  0  0  0  0
   -1.8640   68.6070   66.0420 C   0  0  0  0  0  0  0  0  0  0  0  0
   -2.1930   67.6570   66.9600 F   0  0  0  0  0  0  0  0  0  0  0  0
   -2.9050   68.6570   65.1650 F   0  0  0  0  0  0  0  0  0  0  0  0
   -1.8820   69.7940   66.7090 F   0  0  0  0  0  0  0  0  0  0  0  0
    6.7086   69.6624   64.3564 H   0  0  0  0  0  0  0  0  0  0  0  0
    7.3268   70.6435   66.5598 H   0  0  0  0  0  0  0  0  0  0  0  0
    3.3260   69.8771   68.0151 H   0  0  0  0  0  0  0  0  0  0  0  0
    2.7081   68.8922   65.8102 H   0  0  0  0  0  0  0  0  0  0  0  0
    1.3608   69.3128   62.7038 H   0  0  0  0  0  0  0  0  0  0  0  0
   -0.8345   69.7671   63.7841 H   0  0  0  0  0  0  0  0  0  0  0  0
    0.0641   66.8314   66.8319 H   0  0  0  0  0  0  0  0  0  0  0  0
    2.2637   66.3781   65.7504 H   0  0  0  0  0  0  0  0  0  0  0  0
  2  1  2  0
  3  2  1  0
  4  3  2  0
  5  4  1  0
  6  5  2  0
  7  6  1  0
  8  7  2  0
  8  3  1  0
  9  6  1  0
 10  9  1  0
 11  9  1  0
 12  9  1  0
 13  2  1  0
 14 13  2  0
 15 13  1  0
 16 15  2  0
 17 16  1  0
 18 17  2  0
 19 18  1  0
 20 19  2  0
 20 15  1  0
 21 18  1  0
 22 21  1  0
 23 21  1  0
 24 21  1  0
  4 25  1  0
  5 26  1  0
  7 27  1  0
  8 28  1  0
 16 29  1  0
 17 30  1  0
 19 31  1  0
 20 32  1  0
M  END
>  <score>  (4) 
-10.333

$$$$
=
     RDKit          3D

 32 33  0  0  0  0  0  0  0  0999 V2000
    3.1460   70.6450   69.5280 O   0  0  0  0  0  0  0  0  0  0  0  0
    3.0250   69.9860   68.5010 C   0  0  0  0  0  0  0  0  0  0  0  0
    1.7530   69.2950   68.1620 C   0  0  0  0  0  0  0  0  0  0  0  0
    0.6950   70.0620   67.6580 C   0  0  0  0  0  0  0  0  0  0  0  0
   -0.5270   69.4610   67.3370 C   0  0  0  0  0  0  0  0  0  0  0  0
   -0.7110   68.0830   67.5210 C   0  0  0  0  0  0  0  0  0  0  0  0
    0.3550   67.3190   68.0160 C   0  0  0  0  0  0  0  0  0  0  0  0
    1.5790   67.9180   68.3390 C   0  0  0  0  0  0  0  0  0  0  0  0
   -2.0220   67.4280   67.1510 C   0  0  0  0  0  0  0  0  0  0  0  0
   -2.9690   67.5860   68.1140 F   0  0  0  0  0  0  0  0  0  0  0  0
   -2.5630   67.9300   66.0060 F   0  0  0  0  0  0  0  0  0  0  0  0
   -1.9090   66.0850   66.9510 F   0  0  0  0  0  0  0  0  0  0  0  0
    4.2220   69.8560   67.5860 C   0  0  0  0  0  0  0  0  0  0  0  0
    5.3360   70.0660   68.0520 O   0  0  0  0  0  0  0  0  0  0  0  0
    4.0250   69.5140   66.1530 C   0  0  0  0  0  0  0  0  0  0  0  0
    5.0760   69.7650   65.2600 C   0  0  0  0  0  0  0  0  0  0  0  0
    4.9350   69.4760   63.9000 C   0  0  0  0  0  0  0  0  0  0  0  0
    3.7420   68.9240   63.4090 C   0  0  0  0  0  0  0  0  0  0  0  0
    2.6900   68.6830   64.3050 C   0  0  0  0  0  0  0  0  0  0  0  0
    2.8290   68.9730   65.6680 C   0  0  0  0  0  0  0  0  0  0  0  0
    3.5800   68.6300   61.9360 C   0  0  0  0  0  0  0  0  0  0  0  0
    3.9520   67.3590   61.6220 F   0  0  0  0  0  0  0  0  0  0  0  0
    4.3280   69.4470   61.1440 F   0  0  0  0  0  0  0  0  0  0  0  0
    2.2960   68.7640   61.5020 F   0  0  0  0  0  0  0  0  0  0  0  0
    0.8257   71.1446   67.5135 H   0  0  0  0  0  0  0  0  0  0  0  0
   -1.3489   70.0734   66.9377 H   0  0  0  0  0  0  0  0  0  0  0  0
    0.2284   66.2349   68.1525 H   0  0  0  0  0  0  0  0  0  0  0  0
    2.4040   67.3057   68.7320 H   0  0  0  0  0  0  0  0  0  0  0  0
    6.0186   70.1926   65.6325 H   0  0  0  0  0  0  0  0  0  0  0  0
    5.7656   69.6828   63.2091 H   0  0  0  0  0  0  0  0  0  0  0  0
    1.7447   68.2613   63.9327 H   0  0  0  0  0  0  0  0  0  0  0  0
    1.9962   68.7751   66.3589 H   0  0  0  0  0  0  0  0  0  0  0  0
  2  1  2  0
  3  2  1  0
  4  3  2  0
  5  4  1  0
  6  5  2  0
  7  6  1  0
  8  7  2  0
  8  3  1  0
  9  6  1  0
 10  9  1  0
 11  9  1  0
 12  9  1  0
 13  2  1  0
 14 13  2  0
 15 13  1  0
 16 15  2  0
 17 16  1  0
 18 17  2  0
 19 18  1  0
 20 19  2  0
 20 15  1  0
 21 18  1  0
 22 21  1  0
 23 21  1  0
 24 21  1  0
  4 25  1  0
  5 26  1  0
  7 27  1  0
  8 28  1  0
 16 29  1  0
 17 30  1  0
 19 31  1  0
 20 32  1  0
M  END
>  <score>  (5) 
-10.016

$$$$
=
     RDKit          3D

 32 33  0  0  0  0  0  0  0  0999 V2000
    2.3780   70.2270   68.3070 O   0  0  0  0  0  0  0  0  0  0  0  0
    1.9750   69.4550   67.4440 C   0  0  0  0  0  0  0  0  0  0  0  0
    2.7410   69.2120   66.1930 C   0  0  0  0  0  0  0  0  0  0  0  0
    4.1180   69.4690   66.1970 C   0  0  0  0  0  0  0  0  0  0  0  0
    4.8800   69.2710   65.0420 C   0  0  0  0  0  0  0  0  0  0  0  0
    4.2750   68.8170   63.8610 C   0  0  0  0  0  0  0  0  0  0  0  0
    2.8980   68.5520   63.8650 C   0  0  0  0  0  0  0  0  0  0  0  0
    2.1330   68.7510   65.0200 C   0  0  0  0  0  0  0  0  0  0  0  0
    5.1010   68.5780   62.6180 C   0  0  0  0  0  0  0  0  0  0  0  0
    4.9280   67.3270   62.1150 F   0  0  0  0  0  0  0  0  0  0  0  0
    4.7960   69.4360   61.6040 F   0  0  0  0  0  0  0  0  0  0  0  0
    6.4390   68.7170   62.8310 F   0  0  0  0  0  0  0  0  0  0  0  0
    0.6460   68.7670   67.6610 C   0  0  0  0  0  0  0  0  0  0  0  0
   -0.3430   69.2210   67.0970 O   0  0  0  0  0  0  0  0  0  0  0  0
    0.5580   67.5920   68.5670 C   0  0  0  0  0  0  0  0  0  0  0  0
    1.6730   67.2780   69.3570 C   0  0  0  0  0  0  0  0  0  0  0  0
    1.6460   66.1750   70.2140 C   0  0  0  0  0  0  0  0  0  0  0  0
    0.5010   65.3690   70.3030 C   0  0  0  0  0  0  0  0  0  0  0  0
   -0.6090   65.6820   69.5040 C   0  0  0  0  0  0  0  0  0  0  0  0
   -0.5840   66.7870   68.6430 C   0  0  0  0  0  0  0  0  0  0  0  0
    0.4770   64.1640   71.2130 C   0  0  0  0  0  0  0  0  0  0  0  0
   -0.2920   63.1580   70.7130 F   0  0  0  0  0  0  0  0  0  0  0  0
   -0.0210   64.4390   72.4500 F   0  0  0  0  0  0  0  0  0  0  0  0
    1.7110   63.6250   71.4200 F   0  0  0  0  0  0  0  0  0  0  0  0
    4.6033   69.8294   67.1160 H   0  0  0  0  0  0  0  0  0  0  0  0
    5.9612   69.4726   65.0595 H   0  0  0  0  0  0  0  0  0  0  0  0
    2.4131   68.1832   62.9491 H   0  0  0  0  0  0  0  0  0  0  0  0
    1.0526   68.5448   65.0057 H   0  0  0  0  0  0  0  0  0  0  0  0
    2.5754   67.9046   69.3016 H   0  0  0  0  0  0  0  0  0  0  0  0
    2.5297   65.9365   70.8240 H   0  0  0  0  0  0  0  0  0  0  0  0
   -1.5096   65.0524   69.5541 H   0  0  0  0  0  0  0  0  0  0  0  0
   -1.4636   67.0221   68.0257 H   0  0  0  0  0  0  0  0  0  0  0  0
  2  1  2  0
  3  2  1  0
  4  3  2  0
  5  4  1  0
  6  5  2  0
  7  6  1  0
  8  7  2  0
  8  3  1  0
  9  6  1  0
 10  9  1  0
 11  9  1  0
 12  9  1  0
 13  2  1  0
 14 13  2  0
 15 13  1  0
 16 15  2  0
 17 16  1  0
 18 17  2  0
 19 18  1  0
 20 19  2  0
 20 15  1  0
 21 18  1  0
 22 21  1  0
 23 21  1  0
 24 21  1  0
  4 25  1  0
  5 26  1  0
  7 27  1  0
  8 28  1  0
 16 29  1  0
 17 30  1  0
 19 31  1  0
 20 32  1  0
M  END
>  <score>  (6) 
-9.947

$$$$
=
     RDKit          3D

 32 33  0  0  0  0  0  0  0  0999 V2000
    4.5160   59.9430   70.2280 O   0  0  0  0  0  0  0  0  0  0  0  0
    3.8950   60.1200   71.2700 C   0  0  0  0  0  0  0  0  0  0  0  0
    3.0180   59.0670   71.8450 C   0  0  0  0  0  0  0  0  0  0  0  0
    2.1660   59.4160   72.9010 C   0  0  0  0  0  0  0  0  0  0  0  0
    1.3320   58.4590   73.4870 C   0  0  0  0  0  0  0  0  0  0  0  0
    1.3400   57.1340   73.0280 C   0  0  0  0  0  0  0  0  0  0  0  0
    2.1870   56.7920   71.9630 C   0  0  0  0  0  0  0  0  0  0  0  0
    3.0240   57.7490   71.3770 C   0  0  0  0  0  0  0  0  0  0  0  0
    0.4200   56.1030   73.6410 C   0  0  0  0  0  0  0  0  0  0  0  0
    0.9890   54.8690   73.6940 F   0  0  0  0  0  0  0  0  0  0  0  0
    0.0610   56.4060   74.9200 F   0  0  0  0  0  0  0  0  0  0  0  0
   -0.7460   55.9510   72.9550 F   0  0  0  0  0  0  0  0  0  0  0  0
    4.0110   61.4630   71.9540 C   0  0  0  0  0  0  0  0  0  0  0  0
    4.8740   61.6070   72.8120 O   0  0  0  0  0  0  0  0  0  0  0  0
    3.0660   62.5570   71.6040 C   0  0  0  0  0  0  0  0  0  0  0  0
    3.4270   63.4430   70.5800 C   0  0  0  0  0  0  0  0  0  0  0  0
    2.5800   64.4960   70.2240 C   0  0  0  0  0  0  0  0  0  0  0  0
    1.3530   64.6780   70.8800 C   0  0  0  0  0  0  0  0  0  0  0  0
    1.0010   63.7930   71.9100 C   0  0  0  0  0  0  0  0  0  0  0  0
    1.8480   62.7380   72.2690 C   0  0  0  0  0  0  0  0  0  0  0  0
    0.4470   65.8280   70.5100 C   0  0  0  0  0  0  0  0  0  0  0  0
   -0.3650   66.1930   71.5400 F   0  0  0  0  0  0  0  0  0  0  0  0
   -0.3790   65.5420   69.4660 F   0  0  0  0  0  0  0  0  0  0  0  0
    1.1260   66.9520   70.1500 F   0  0  0  0  0  0  0  0  0  0  0  0
    2.1531   60.4514   73.2721 H   0  0  0  0  0  0  0  0  0  0  0  0
    0.6654   58.7472   74.3132 H   0  0  0  0  0  0  0  0  0  0  0  0
    2.1934   55.7594   71.5839 H   0  0  0  0  0  0  0  0  0  0  0  0
    3.6874   57.4639   70.5472 H   0  0  0  0  0  0  0  0  0  0  0  0
    4.3832   63.3087   70.0531 H   0  0  0  0  0  0  0  0  0  0  0  0
    2.8777   65.1882   69.4226 H   0  0  0  0  0  0  0  0  0  0  0  0
    0.0479   63.9298   72.4419 H   0  0  0  0  0  0  0  0  0  0  0  0
    1.5556   62.0496   73.0756 H   0  0  0  0  0  0  0  0  0  0  0  0
  2  1  2  0
  3  2  1  0
  4  3  2  0
  5  4  1  0
  6  5  2  0
  7  6  1  0
  8  7  2  0
  8  3  1  0
  9  6  1  0
 10  9  1  0
 11  9  1  0
 12  9  1  0
 13  2  1  0
 14 13  2  0
 15 13  1  0
 16 15  2  0
 17 16  1  0
 18 17  2  0
 19 18  1  0
 20 19  2  0
 20 15  1  0
 21 18  1  0
 22 21  1  0
 23 21  1  0
 24 21  1  0
  4 25  1  0
  5 26  1  0
  7 27  1  0
  8 28  1  0
 16 29  1  0
 17 30  1  0
 19 31  1  0
 20 32  1  0
M  END
>  <score>  (7) 
-9.447

$$$$
=
     RDKit          3D

 32 33  0  0  0  0  0  0  0  0999 V2000
    4.9470   61.5880   72.8910 O   0  0  0  0  0  0  0  0  0  0  0  0
    4.0870   61.4520   72.0280 C   0  0  0  0  0  0  0  0  0  0  0  0
    3.1940   62.5740   71.6310 C   0  0  0  0  0  0  0  0  0  0  0  0
    1.9900   62.7420   72.3270 C   0  0  0  0  0  0  0  0  0  0  0  0
    1.1100   63.7720   71.9830 C   0  0  0  0  0  0  0  0  0  0  0  0
    1.4180   64.6490   70.9330 C   0  0  0  0  0  0  0  0  0  0  0  0
    2.6300   64.4830   70.2460 C   0  0  0  0  0  0  0  0  0  0  0  0
    3.5110   63.4510   70.5880 C   0  0  0  0  0  0  0  0  0  0  0  0
    0.4800   65.7800   70.5760 C   0  0  0  0  0  0  0  0  0  0  0  0
   -0.3280   66.1280   71.6120 F   0  0  0  0  0  0  0  0  0  0  0  0
    1.1350   66.9170   70.2110 F   0  0  0  0  0  0  0  0  0  0  0  0
   -0.3470   65.4790   69.5370 F   0  0  0  0  0  0  0  0  0  0  0  0
    3.9210   60.0940   71.3860 C   0  0  0  0  0  0  0  0  0  0  0  0
    4.5050   59.8730   70.3320 O   0  0  0  0  0  0  0  0  0  0  0  0
    3.0370   59.0780   72.0180 C   0  0  0  0  0  0  0  0  0  0  0  0
    2.9620   57.8070   71.4340 C   0  0  0  0  0  0  0  0  0  0  0  0
    2.1350   56.8230   71.9820 C   0  0  0  0  0  0  0  0  0  0  0  0
    1.3730   57.0900   73.1280 C   0  0  0  0  0  0  0  0  0  0  0  0
    1.4440   58.3680   73.7040 C   0  0  0  0  0  0  0  0  0  0  0  0
    2.2710   59.3550   73.1560 C   0  0  0  0  0  0  0  0  0  0  0  0
    0.4620   56.0350   73.7090 C   0  0  0  0  0  0  0  0  0  0  0  0
   -0.7030   55.9230   73.0140 F   0  0  0  0  0  0  0  0  0  0  0  0
    0.1060   56.2890   74.9990 F   0  0  0  0  0  0  0  0  0  0  0  0
    1.0170   54.7910   73.7140 F   0  0  0  0  0  0  0  0  0  0  0  0
    1.7352   62.0584   73.1502 H   0  0  0  0  0  0  0  0  0  0  0  0
    0.1694   63.8955   72.5397 H   0  0  0  0  0  0  0  0  0  0  0  0
    2.8907   65.1720   69.4291 H   0  0  0  0  0  0  0  0  0  0  0  0
    4.4545   63.3291   70.0358 H   0  0  0  0  0  0  0  0  0  0  0  0
    3.5584   57.5819   70.5376 H   0  0  0  0  0  0  0  0  0  0  0  0
    2.0814   55.8307   71.5103 H   0  0  0  0  0  0  0  0  0  0  0  0
    0.8427   58.5964   74.5964 H   0  0  0  0  0  0  0  0  0  0  0  0
    2.3191   60.3508   73.6208 H   0  0  0  0  0  0  0  0  0  0  0  0
  2  1  2  0
  3  2  1  0
  4  3  2  0
  5  4  1  0
  6  5  2  0
  7  6  1  0
  8  7  2  0
  8  3  1  0
  9  6  1  0
 10  9  1  0
 11  9  1  0
 12  9  1  0
 13  2  1  0
 14 13  2  0
 15 13  1  0
 16 15  2  0
 17 16  1  0
 18 17  2  0
 19 18  1  0
 20 19  2  0
 20 15  1  0
 21 18  1  0
 22 21  1  0
 23 21  1  0
 24 21  1  0
  4 25  1  0
  5 26  1  0
  7 27  1  0
  8 28  1  0
 16 29  1  0
 17 30  1  0
 19 31  1  0
 20 32  1  0
M  END
>  <score>  (8) 
-9.425

$$$$
=
     RDKit          3D

 32 33  0  0  0  0  0  0  0  0999 V2000
    3.3770   60.8490   73.7890 O   0  0  0  0  0  0  0  0  0  0  0  0
    2.6890   60.2820   72.9480 C   0  0  0  0  0  0  0  0  0  0  0  0
    1.8840   59.0760   73.2810 C   0  0  0  0  0  0  0  0  0  0  0  0
    0.5360   59.2510   73.6180 C   0  0  0  0  0  0  0  0  0  0  0  0
   -0.2600   58.1510   73.9530 C   0  0  0  0  0  0  0  0  0  0  0  0
    0.2820   56.8580   73.9610 C   0  0  0  0  0  0  0  0  0  0  0  0
    1.6310   56.6880   73.6140 C   0  0  0  0  0  0  0  0  0  0  0  0
    2.4290   57.7880   73.2790 C   0  0  0  0  0  0  0  0  0  0  0  0
   -0.5820   55.6640   74.2980 C   0  0  0  0  0  0  0  0  0  0  0  0
   -0.6920   54.7960   73.2580 F   0  0  0  0  0  0  0  0  0  0  0  0
   -0.0980   54.9370   75.3440 F   0  0  0  0  0  0  0  0  0  0  0  0
   -1.8540   56.0070   74.6410 F   0  0  0  0  0  0  0  0  0  0  0  0
    2.7000   60.8150   71.5330 C   0  0  0  0  0  0  0  0  0  0  0  0
    3.2100   60.1270   70.6560 O   0  0  0  0  0  0  0  0  0  0  0  0
    2.1310   62.1570   71.2430 C   0  0  0  0  0  0  0  0  0  0  0  0
    0.8030   62.4100   71.6100 C   0  0  0  0  0  0  0  0  0  0  0  0
    0.2180   63.6510   71.3460 C   0  0  0  0  0  0  0  0  0  0  0  0
    0.9530   64.6660   70.7150 C   0  0  0  0  0  0  0  0  0  0  0  0
    2.2800   64.4050   70.3410 C   0  0  0  0  0  0  0  0  0  0  0  0
    2.8680   63.1620   70.6040 C   0  0  0  0  0  0  0  0  0  0  0  0
    0.3170   66.0000   70.4090 C   0  0  0  0  0  0  0  0  0  0  0  0
   -0.4710   65.9520   69.3000 F   0  0  0  0  0  0  0  0  0  0  0  0
    1.2280   66.9860   70.1790 F   0  0  0  0  0  0  0  0  0  0  0  0
   -0.4800   66.4570   71.4150 F   0  0  0  0  0  0  0  0  0  0  0  0
    0.1001   60.2610   73.6192 H   0  0  0  0  0  0  0  0  0  0  0  0
   -1.3185   58.3013   74.2120 H   0  0  0  0  0  0  0  0  0  0  0  0
    2.0666   55.6780   73.6052 H   0  0  0  0  0  0  0  0  0  0  0  0
    3.4861   57.6393   73.0138 H   0  0  0  0  0  0  0  0  0  0  0  0
    0.2161   61.6254   72.1100 H   0  0  0  0  0  0  0  0  0  0  0  0
   -0.8274   63.8338   71.6352 H   0  0  0  0  0  0  0  0  0  0  0  0
    2.8655   65.1867   69.8349 H   0  0  0  0  0  0  0  0  0  0  0  0
    3.9107   62.9743   70.3082 H   0  0  0  0  0  0  0  0  0  0  0  0
  2  1  2  0
  3  2  1  0
  4  3  2  0
  5  4  1  0
  6  5  2  0
  7  6  1  0
  8  7  2  0
  8  3  1  0
  9  6  1  0
 10  9  1  0
 11  9  1  0
 12  9  1  0
 13  2  1  0
 14 13  2  0
 15 13  1  0
 16 15  2  0
 17 16  1  0
 18 17  2  0
 19 18  1  0
 20 19  2  0
 20 15  1  0
 21 18  1  0
 22 21  1  0
 23 21  1  0
 24 21  1  0
  4 25  1  0
  5 26  1  0
  7 27  1  0
  8 28  1  0
 16 29  1  0
 17 30  1  0
 19 31  1  0
 20 32  1  0
M  END
>  <score>  (9) 
-8.759

$$$$
