=
     RDKit          3D

 46 48  0  0  0  0  0  0  0  0999 V2000
    1.6560   67.0330   65.5030 C   0  0  0  0  0  0  0  0  0  0  0  0
    0.5370   66.5240   65.5670 O   0  0  0  0  0  0  0  0  0  0  0  0
    1.9790   68.2410   66.1190 N   0  0  0  0  0  0  0  0  0  0  0  0
    3.1630   69.0410   65.8320 C   0  0  0  0  0  0  0  0  0  0  0  0
    3.8810   69.4600   67.1170 C   0  0  0  0  0  0  0  0  0  0  0  0
    2.9240   69.6920   68.3070 C   0  0  0  0  0  0  0  0  0  0  0  0
    1.5120   70.0170   67.8000 C   0  0  0  0  0  0  0  0  0  0  0  0
    0.9640   68.8600   66.9620 C   0  0  0  0  0  0  0  0  0  0  0  0
    3.1290   66.8380   63.4670 C   0  0  0  0  0  0  0  0  0  0  0  0
    4.1140   66.1250   62.7740 C   0  0  0  0  0  0  0  0  0  0  0  0
    4.6480   64.9450   63.3080 C   0  0  0  0  0  0  0  0  0  0  0  0
    4.2110   64.4680   64.5430 C   0  0  0  0  0  0  0  0  0  0  0  0
    3.2320   65.1640   65.2440 C   0  0  0  0  0  0  0  0  0  0  0  0
    2.6800   66.3320   64.7000 C   0  0  0  0  0  0  0  0  0  0  0  0
    3.0690   68.5820   61.8360 C   0  0  0  0  0  0  0  0  0  0  0  0
    2.5660   68.0080   63.0350 O   0  0  0  0  0  0  0  0  0  0  0  0
    3.4340   70.7890   69.2580 C   0  0  0  0  0  0  0  0  0  0  0  0
    4.9410   70.8810   69.3190 C   0  0  0  0  0  0  0  0  0  0  0  0
    5.6440   70.3380   70.4030 C   0  0  0  0  0  0  0  0  0  0  0  0
    7.0360   70.4180   70.4560 C   0  0  0  0  0  0  0  0  0  0  0  0
    7.7400   71.0410   69.4280 C   0  0  0  0  0  0  0  0  0  0  0  0
    7.0510   71.5870   68.3460 C   0  0  0  0  0  0  0  0  0  0  0  0
    5.6580   71.5090   68.2920 C   0  0  0  0  0  0  0  0  0  0  0  0
    3.8534   68.4487   65.2135 H   0  0  0  0  0  0  0  0  0  0  0  0
    2.8450   69.9507   65.3017 H   0  0  0  0  0  0  0  0  0  0  0  0
    4.5938   68.6686   67.3920 H   0  0  0  0  0  0  0  0  0  0  0  0
    4.3817   70.4177   66.9116 H   0  0  0  0  0  0  0  0  0  0  0  0
    2.8864   68.7590   68.8885 H   0  0  0  0  0  0  0  0  0  0  0  0
    0.8484   70.1866   68.6608 H   0  0  0  0  0  0  0  0  0  0  0  0
    1.5581   70.9197   67.1731 H   0  0  0  0  0  0  0  0  0  0  0  0
    0.5580   68.0960   67.6412 H   0  0  0  0  0  0  0  0  0  0  0  0
    0.1888   69.2707   66.2984 H   0  0  0  0  0  0  0  0  0  0  0  0
    4.4720   66.4943   61.8017 H   0  0  0  0  0  0  0  0  0  0  0  0
    5.4170   64.3913   62.7493 H   0  0  0  0  0  0  0  0  0  0  0  0
    4.6388   63.5449   64.9613 H   0  0  0  0  0  0  0  0  0  0  0  0
    2.8913   64.7984   66.2240 H   0  0  0  0  0  0  0  0  0  0  0  0
    3.7754   69.3881   62.0836 H   0  0  0  0  0  0  0  0  0  0  0  0
    3.5859   67.8092   61.2482 H   0  0  0  0  0  0  0  0  0  0  0  0
    2.2350   68.9930   61.2482 H   0  0  0  0  0  0  0  0  0  0  0  0
    3.0396   71.7572   68.9160 H   0  0  0  0  0  0  0  0  0  0  0  0
    3.0845   70.5295   70.2682 H   0  0  0  0  0  0  0  0  0  0  0  0
    5.0942   69.8450   71.2183 H   0  0  0  0  0  0  0  0  0  0  0  0
    7.5785   69.9884   71.3111 H   0  0  0  0  0  0  0  0  0  0  0  0
    8.8375   71.1020   69.4699 H   0  0  0  0  0  0  0  0  0  0  0  0
    7.6055   72.0799   67.5338 H   0  0  0  0  0  0  0  0  0  0  0  0
    5.1195   71.9437   67.4370 H   0  0  0  0  0  0  0  0  0  0  0  0
  2  1  2  0
  3  1  1  0
  4  3  1  0
  5  4  1  0
  6  5  1  0
  7  6  1  0
  8  7  1  0
  8  3  1  0
 10  9  2  0
 11 10  1  0
 12 11  2  0
 13 12  1  0
 14 13  2  0
 14  9  1  0
 14  1  1  0
 16 15  1  0
 16  9  1  0
 17  6  1  0
 18 17  1  0
 19 18  2  0
 20 19  1  0
 21 20  2  0
 22 21  1  0
 23 18  1  0
 23 22  2  0
  4 24  1  0
  4 25  1  0
  5 26  1  0
  5 27  1  0
  6 28  1  0
  7 29  1  0
  7 30  1  0
  8 31  1  0
  8 32  1  0
 10 33  1  0
 11 34  1  0
 12 35  1  0
 13 36  1  0
 15 37  1  0
 15 38  1  0
 15 39  1  0
 17 40  1  0
 17 41  1  0
 19 42  1  0
 20 43  1  0
 21 44  1  0
 22 45  1  0
 23 46  1  0
M  END
>  <score>  (1) 
-10.067

$$$$
=
     RDKit          3D

 46 48  0  0  0  0  0  0  0  0999 V2000
    1.3650   68.0780   65.4860 C   0  0  0  0  0  0  0  0  0  0  0  0
    0.7360   67.7710   64.4730 O   0  0  0  0  0  0  0  0  0  0  0  0
    0.8500   67.9370   66.7730 N   0  0  0  0  0  0  0  0  0  0  0  0
    1.4020   68.5580   67.9710 C   0  0  0  0  0  0  0  0  0  0  0  0
    1.5500   67.5450   69.1080 C   0  0  0  0  0  0  0  0  0  0  0  0
    0.4620   66.4490   69.1010 C   0  0  0  0  0  0  0  0  0  0  0  0
   -0.7890   66.9460   68.3630 C   0  0  0  0  0  0  0  0  0  0  0  0
   -0.4510   67.2960   66.9130 C   0  0  0  0  0  0  0  0  0  0  0  0
    3.3550   68.6610   64.0510 C   0  0  0  0  0  0  0  0  0  0  0  0
    4.6240   69.2400   63.9570 C   0  0  0  0  0  0  0  0  0  0  0  0
    5.2330   69.8120   65.0810 C   0  0  0  0  0  0  0  0  0  0  0  0
    4.5780   69.8200   66.3110 C   0  0  0  0  0  0  0  0  0  0  0  0
    3.3140   69.2470   66.4240 C   0  0  0  0  0  0  0  0  0  0  0  0
    2.7140   68.6540   65.3040 C   0  0  0  0  0  0  0  0  0  0  0  0
    2.7990   68.7120   61.7290 C   0  0  0  0  0  0  0  0  0  0  0  0
    2.6750   68.0990   63.0050 O   0  0  0  0  0  0  0  0  0  0  0  0
    0.1100   65.9680   70.5200 C   0  0  0  0  0  0  0  0  0  0  0  0
    0.7660   64.6590   70.8920 C   0  0  0  0  0  0  0  0  0  0  0  0
    0.0340   63.6570   71.5450 C   0  0  0  0  0  0  0  0  0  0  0  0
    0.6380   62.4450   71.8830 C   0  0  0  0  0  0  0  0  0  0  0  0
    1.9770   62.2220   71.5750 C   0  0  0  0  0  0  0  0  0  0  0  0
    2.7160   63.2110   70.9280 C   0  0  0  0  0  0  0  0  0  0  0  0
    2.1140   64.4250   70.5880 C   0  0  0  0  0  0  0  0  0  0  0  0
    2.3912   68.9765   67.7337 H   0  0  0  0  0  0  0  0  0  0  0  0
    0.7119   69.3489   68.3000 H   0  0  0  0  0  0  0  0  0  0  0  0
    2.5333   67.0603   69.0169 H   0  0  0  0  0  0  0  0  0  0  0  0
    1.4447   68.0999   70.0519 H   0  0  0  0  0  0  0  0  0  0  0  0
    0.8706   65.5803   68.5639 H   0  0  0  0  0  0  0  0  0  0  0  0
   -1.5547   66.1563   68.3759 H   0  0  0  0  0  0  0  0  0  0  0  0
   -1.1659   67.8474   68.8683 H   0  0  0  0  0  0  0  0  0  0  0  0
   -0.4518   66.3701   66.3191 H   0  0  0  0  0  0  0  0  0  0  0  0
   -1.2102   68.0094   66.5600 H   0  0  0  0  0  0  0  0  0  0  0  0
    5.1494   69.2464   62.9906 H   0  0  0  0  0  0  0  0  0  0  0  0
    6.2347   70.2578   64.9924 H   0  0  0  0  0  0  0  0  0  0  0  0
    5.0576   70.2771   67.1891 H   0  0  0  0  0  0  0  0  0  0  0  0
    2.7874   69.2595   67.3897 H   0  0  0  0  0  0  0  0  0  0  0  0
    3.0156   69.7829   61.8562 H   0  0  0  0  0  0  0  0  0  0  0  0
    3.6190   68.2357   61.1715 H   0  0  0  0  0  0  0  0  0  0  0  0
    1.8584   68.5919   61.1715 H   0  0  0  0  0  0  0  0  0  0  0  0
    0.4331   66.7360   71.2382 H   0  0  0  0  0  0  0  0  0  0  0  0
   -0.9774   65.8041   70.5459 H   0  0  0  0  0  0  0  0  0  0  0  0
   -1.0241   63.8274   71.7927 H   0  0  0  0  0  0  0  0  0  0  0  0
    0.0548   61.6646   72.3937 H   0  0  0  0  0  0  0  0  0  0  0  0
    2.4515   61.2662   71.8419 H   0  0  0  0  0  0  0  0  0  0  0  0
    3.7743   63.0354   70.6848 H   0  0  0  0  0  0  0  0  0  0  0  0
    2.7020   65.2025   70.0783 H   0  0  0  0  0  0  0  0  0  0  0  0
  2  1  2  0
  3  1  1  0
  4  3  1  0
  5  4  1  0
  6  5  1  0
  7  6  1  0
  8  7  1  0
  8  3  1  0
 10  9  2  0
 11 10  1  0
 12 11  2  0
 13 12  1  0
 14 13  2  0
 14  9  1  0
 14  1  1  0
 16 15  1  0
 16  9  1  0
 17  6  1  0
 18 17  1  0
 19 18  2  0
 20 19  1  0
 21 20  2  0
 22 21  1  0
 23 18  1  0
 23 22  2  0
  4 24  1  0
  4 25  1  0
  5 26  1  0
  5 27  1  0
  6 28  1  0
  7 29  1  0
  7 30  1  0
  8 31  1  0
  8 32  1  0
 10 33  1  0
 11 34  1  0
 12 35  1  0
 13 36  1  0
 15 37  1  0
 15 38  1  0
 15 39  1  0
 17 40  1  0
 17 41  1  0
 19 42  1  0
 20 43  1  0
 21 44  1  0
 22 45  1  0
 23 46  1  0
M  END
>  <score>  (2) 
-9.733

$$$$
=
     RDKit          3D

 46 48  0  0  0  0  0  0  0  0999 V2000
    1.7420   67.4700   65.1970 C   0  0  0  0  0  0  0  0  0  0  0  0
    0.6890   66.8360   65.2480 O   0  0  0  0  0  0  0  0  0  0  0  0
    2.0240   68.5460   66.0370 N   0  0  0  0  0  0  0  0  0  0  0  0
    3.0900   69.5180   65.8280 C   0  0  0  0  0  0  0  0  0  0  0  0
    3.9110   69.7310   67.1020 C   0  0  0  0  0  0  0  0  0  0  0  0
    3.0810   69.5930   68.3970 C   0  0  0  0  0  0  0  0  0  0  0  0
    1.5960   69.8570   68.1100 C   0  0  0  0  0  0  0  0  0  0  0  0
    1.0620   68.8510   67.0880 C   0  0  0  0  0  0  0  0  0  0  0  0
    3.4130   65.8530   64.2240 C   0  0  0  0  0  0  0  0  0  0  0  0
    4.3160   65.5470   63.2010 C   0  0  0  0  0  0  0  0  0  0  0  0
    4.5170   66.4360   62.1370 C   0  0  0  0  0  0  0  0  0  0  0  0
    3.8120   67.6370   62.0790 C   0  0  0  0  0  0  0  0  0  0  0  0
    2.9100   67.9580   63.0890 C   0  0  0  0  0  0  0  0  0  0  0  0
    2.7260   67.0790   64.1650 C   0  0  0  0  0  0  0  0  0  0  0  0
    3.8070   63.7870   65.3560 C   0  0  0  0  0  0  0  0  0  0  0  0
    3.1370   65.0380   65.2880 O   0  0  0  0  0  0  0  0  0  0  0  0
    3.5970   70.5100   69.5200 C   0  0  0  0  0  0  0  0  0  0  0  0
    5.0980   70.6740   69.5220 C   0  0  0  0  0  0  0  0  0  0  0  0
    5.8560   70.2800   70.6330 C   0  0  0  0  0  0  0  0  0  0  0  0
    7.2440   70.4260   70.6330 C   0  0  0  0  0  0  0  0  0  0  0  0
    7.8890   70.9680   69.5240 C   0  0  0  0  0  0  0  0  0  0  0  0
    7.1460   71.3660   68.4130 C   0  0  0  0  0  0  0  0  0  0  0  0
    5.7570   71.2210   68.4120 C   0  0  0  0  0  0  0  0  0  0  0  0
    3.7548   69.1539   65.0308 H   0  0  0  0  0  0  0  0  0  0  0  0
    2.6322   70.4780   65.5473 H   0  0  0  0  0  0  0  0  0  0  0  0
    4.7192   68.9851   67.1247 H   0  0  0  0  0  0  0  0  0  0  0  0
    4.2963   70.7609   67.0715 H   0  0  0  0  0  0  0  0  0  0  0  0
    3.1950   68.5587   68.7538 H   0  0  0  0  0  0  0  0  0  0  0  0
    1.0239   69.7621   69.0447 H   0  0  0  0  0  0  0  0  0  0  0  0
    1.4871   70.8723   67.7010 H   0  0  0  0  0  0  0  0  0  0  0  0
    0.8082   67.9183   67.6131 H   0  0  0  0  0  0  0  0  0  0  0  0
    0.1814   69.3033   66.6085 H   0  0  0  0  0  0  0  0  0  0  0  0
    4.8737   64.5994   63.2320 H   0  0  0  0  0  0  0  0  0  0  0  0
    5.2354   66.1847   61.3428 H   0  0  0  0  0  0  0  0  0  0  0  0
    3.9680   68.3286   61.2379 H   0  0  0  0  0  0  0  0  0  0  0  0
    2.3428   68.8994   63.0429 H   0  0  0  0  0  0  0  0  0  0  0  0
    3.9565   63.5079   66.4095 H   0  0  0  0  0  0  0  0  0  0  0  0
    3.1999   63.0182   64.8556 H   0  0  0  0  0  0  0  0  0  0  0  0
    4.7834   63.8663   64.8556 H   0  0  0  0  0  0  0  0  0  0  0  0
    3.1385   71.5024   69.3974 H   0  0  0  0  0  0  0  0  0  0  0  0
    3.3219   70.0383   70.4749 H   0  0  0  0  0  0  0  0  0  0  0  0
    5.3527   69.8520   71.5125 H   0  0  0  0  0  0  0  0  0  0  0  0
    7.8293   70.1126   71.5100 H   0  0  0  0  0  0  0  0  0  0  0  0
    8.9831   71.0820   69.5244 H   0  0  0  0  0  0  0  0  0  0  0  0
    7.6544   71.7945   67.5367 H   0  0  0  0  0  0  0  0  0  0  0  0
    5.1756   71.5383   67.5337 H   0  0  0  0  0  0  0  0  0  0  0  0
  2  1  2  0
  3  1  1  0
  4  3  1  0
  5  4  1  0
  6  5  1  0
  7  6  1  0
  8  7  1  0
  8  3  1  0
 10  9  2  0
 11 10  1  0
 12 11  2  0
 13 12  1  0
 14 13  2  0
 14  9  1  0
 14  1  1  0
 16 15  1  0
 16  9  1  0
 17  6  1  0
 18 17  1  0
 19 18  2  0
 20 19  1  0
 21 20  2  0
 22 21  1  0
 23 18  1  0
 23 22  2  0
  4 24  1  0
  4 25  1  0
  5 26  1  0
  5 27  1  0
  6 28  1  0
  7 29  1  0
  7 30  1  0
  8 31  1  0
  8 32  1  0
 10 33  1  0
 11 34  1  0
 12 35  1  0
 13 36  1  0
 15 37  1  0
 15 38  1  0
 15 39  1  0
 17 40  1  0
 17 41  1  0
 19 42  1  0
 20 43  1  0
 21 44  1  0
 22 45  1  0
 23 46  1  0
M  END
>  <score>  (3) 
-9.464

$$$$
=
     RDKit          3D

 46 48  0  0  0  0  0  0  0  0999 V2000
    0.4650   67.5650   67.9510 C   0  0  0  0  0  0  0  0  0  0  0  0
   -0.6200   67.8060   67.4210 O   0  0  0  0  0  0  0  0  0  0  0  0
    0.5970   66.7660   69.0850 N   0  0  0  0  0  0  0  0  0  0  0  0
    1.7830   66.6960   69.9300 C   0  0  0  0  0  0  0  0  0  0  0  0
    2.1860   65.2470   70.2100 C   0  0  0  0  0  0  0  0  0  0  0  0
    0.9850   64.2800   70.2910 C   0  0  0  0  0  0  0  0  0  0  0  0
   -0.2950   65.0490   70.6510 C   0  0  0  0  0  0  0  0  0  0  0  0
   -0.6000   66.1070   69.5890 C   0  0  0  0  0  0  0  0  0  0  0  0
    2.2220   67.7380   66.1520 C   0  0  0  0  0  0  0  0  0  0  0  0
    3.3510   68.3950   65.6500 C   0  0  0  0  0  0  0  0  0  0  0  0
    3.9010   69.4880   66.3310 C   0  0  0  0  0  0  0  0  0  0  0  0
    3.3280   69.9430   67.5170 C   0  0  0  0  0  0  0  0  0  0  0  0
    2.2050   69.3000   68.0310 C   0  0  0  0  0  0  0  0  0  0  0  0
    1.6670   68.1920   67.3620 C   0  0  0  0  0  0  0  0  0  0  0  0
    2.3750   65.8790   64.6600 C   0  0  0  0  0  0  0  0  0  0  0  0
    1.6030   66.6790   65.5460 O   0  0  0  0  0  0  0  0  0  0  0  0
    1.2310   63.1260   71.2800 C   0  0  0  0  0  0  0  0  0  0  0  0
    2.5140   62.3720   71.0180 C   0  0  0  0  0  0  0  0  0  0  0  0
    2.7330   61.7490   69.7820 C   0  0  0  0  0  0  0  0  0  0  0  0
    3.9200   61.0570   69.5370 C   0  0  0  0  0  0  0  0  0  0  0  0
    4.8990   60.9800   70.5240 C   0  0  0  0  0  0  0  0  0  0  0  0
    4.6920   61.5940   71.7580 C   0  0  0  0  0  0  0  0  0  0  0  0
    3.5050   62.2860   72.0050 C   0  0  0  0  0  0  0  0  0  0  0  0
    2.6145   67.2067   69.4223 H   0  0  0  0  0  0  0  0  0  0  0  0
    1.5528   67.1822   70.8895 H   0  0  0  0  0  0  0  0  0  0  0  0
    2.8522   64.9084   69.4028 H   0  0  0  0  0  0  0  0  0  0  0  0
    2.6810   65.2322   71.1922 H   0  0  0  0  0  0  0  0  0  0  0  0
    0.8593   63.8251   69.2974 H   0  0  0  0  0  0  0  0  0  0  0  0
   -1.1366   64.3433   70.7113 H   0  0  0  0  0  0  0  0  0  0  0  0
   -0.1495   65.5488   71.6201 H   0  0  0  0  0  0  0  0  0  0  0  0
   -1.1140   65.6208   68.7467 H   0  0  0  0  0  0  0  0  0  0  0  0
   -1.2268   66.8776   70.0614 H   0  0  0  0  0  0  0  0  0  0  0  0
    3.8105   68.0498   64.7121 H   0  0  0  0  0  0  0  0  0  0  0  0
    4.7918   69.9911   65.9268 H   0  0  0  0  0  0  0  0  0  0  0  0
    3.7607   70.8058   68.0445 H   0  0  0  0  0  0  0  0  0  0  0  0
    1.7408   69.6610   68.9606 H   0  0  0  0  0  0  0  0  0  0  0  0
    3.0229   65.2076   65.2425 H   0  0  0  0  0  0  0  0  0  0  0  0
    1.7034   65.2815   64.0260 H   0  0  0  0  0  0  0  0  0  0  0  0
    2.9960   66.5289   64.0260 H   0  0  0  0  0  0  0  0  0  0  0  0
    1.2731   63.5421   72.2974 H   0  0  0  0  0  0  0  0  0  0  0  0
    0.4041   62.4113   71.1560 H   0  0  0  0  0  0  0  0  0  0  0  0
    1.9630   61.8058   68.9985 H   0  0  0  0  0  0  0  0  0  0  0  0
    4.0822   60.5719   68.5631 H   0  0  0  0  0  0  0  0  0  0  0  0
    5.8347   60.4352   70.3301 H   0  0  0  0  0  0  0  0  0  0  0  0
    5.4649   61.5332   72.5383 H   0  0  0  0  0  0  0  0  0  0  0  0
    3.3465   62.7672   72.9814 H   0  0  0  0  0  0  0  0  0  0  0  0
  2  1  2  0
  3  1  1  0
  4  3  1  0
  5  4  1  0
  6  5  1  0
  7  6  1  0
  8  7  1  0
  8  3  1  0
 10  9  2  0
 11 10  1  0
 12 11  2  0
 13 12  1  0
 14 13  2  0
 14  9  1  0
 14  1  1  0
 16 15  1  0
 16  9  1  0
 17  6  1  0
 18 17  1  0
 19 18  2  0
 20 19  1  0
 21 20  2  0
 22 21  1  0
 23 18  1  0
 23 22  2  0
  4 24  1  0
  4 25  1  0
  5 26  1  0
  5 27  1  0
  6 28  1  0
  7 29  1  0
  7 30  1  0
  8 31  1  0
  8 32  1  0
 10 33  1  0
 11 34  1  0
 12 35  1  0
 13 36  1  0
 15 37  1  0
 15 38  1  0
 15 39  1  0
 17 40  1  0
 17 41  1  0
 19 42  1  0
 20 43  1  0
 21 44  1  0
 22 45  1  0
 23 46  1  0
M  END
>  <score>  (4) 
-9.209

$$$$
=
     RDKit          3D

 46 48  0  0  0  0  0  0  0  0999 V2000
    1.9340   61.1830   71.7670 C   0  0  0  0  0  0  0  0  0  0  0  0
    2.5770   60.5160   70.9550 O   0  0  0  0  0  0  0  0  0  0  0  0
    1.8700   62.5740   71.7280 N   0  0  0  0  0  0  0  0  0  0  0  0
    1.3980   63.4240   72.8140 C   0  0  0  0  0  0  0  0  0  0  0  0
    0.3920   64.4640   72.3140 C   0  0  0  0  0  0  0  0  0  0  0  0
    0.6690   64.9430   70.8730 C   0  0  0  0  0  0  0  0  0  0  0  0
    2.1470   64.7310   70.5150 C   0  0  0  0  0  0  0  0  0  0  0  0
    2.5120   63.2480   70.6060 C   0  0  0  0  0  0  0  0  0  0  0  0
    1.9260   59.8800   73.9250 C   0  0  0  0  0  0  0  0  0  0  0  0
    1.1900   59.2210   74.9150 C   0  0  0  0  0  0  0  0  0  0  0  0
   -0.2070   59.1520   74.8360 C   0  0  0  0  0  0  0  0  0  0  0  0
   -0.8850   59.7460   73.7730 C   0  0  0  0  0  0  0  0  0  0  0  0
   -0.1670   60.4040   72.7790 C   0  0  0  0  0  0  0  0  0  0  0  0
    1.2320   60.4540   72.8450 C   0  0  0  0  0  0  0  0  0  0  0  0
    4.0630   58.9190   74.3930 C   0  0  0  0  0  0  0  0  0  0  0  0
    3.2880   60.0170   73.9290 O   0  0  0  0  0  0  0  0  0  0  0  0
    0.2550   66.4090   70.6570 C   0  0  0  0  0  0  0  0  0  0  0  0
    0.1410   66.7950   69.2000 C   0  0  0  0  0  0  0  0  0  0  0  0
   -1.0410   66.5490   68.4900 C   0  0  0  0  0  0  0  0  0  0  0  0
   -1.1490   66.9100   67.1460 C   0  0  0  0  0  0  0  0  0  0  0  0
   -0.0770   67.5200   66.4990 C   0  0  0  0  0  0  0  0  0  0  0  0
    1.1050   67.7680   67.1940 C   0  0  0  0  0  0  0  0  0  0  0  0
    1.2150   67.4070   68.5390 C   0  0  0  0  0  0  0  0  0  0  0  0
    0.9138   62.7953   73.5757 H   0  0  0  0  0  0  0  0  0  0  0  0
    2.2628   63.9554   73.2379 H   0  0  0  0  0  0  0  0  0  0  0  0
   -0.6137   64.0196   72.3463 H   0  0  0  0  0  0  0  0  0  0  0  0
    0.4803   65.3423   72.9703 H   0  0  0  0  0  0  0  0  0  0  0  0
    0.0492   64.3348   70.1978 H   0  0  0  0  0  0  0  0  0  0  0  0
    2.3256   65.0857   69.4892 H   0  0  0  0  0  0  0  0  0  0  0  0
    2.7698   65.2953   71.2247 H   0  0  0  0  0  0  0  0  0  0  0  0
    2.2016   62.7522   69.6744 H   0  0  0  0  0  0  0  0  0  0  0  0
    3.5992   63.1843   70.7607 H   0  0  0  0  0  0  0  0  0  0  0  0
    1.7123   58.7531   75.7625 H   0  0  0  0  0  0  0  0  0  0  0  0
   -0.7728   58.6252   75.6185 H   0  0  0  0  0  0  0  0  0  0  0  0
   -1.9825   59.6949   73.7200 H   0  0  0  0  0  0  0  0  0  0  0  0
   -0.6966   60.8841   71.9429 H   0  0  0  0  0  0  0  0  0  0  0  0
    4.0677   58.9124   75.4930 H   0  0  0  0  0  0  0  0  0  0  0  0
    3.6267   57.9797   74.0225 H   0  0  0  0  0  0  0  0  0  0  0  0
    5.0942   59.0155   74.0225 H   0  0  0  0  0  0  0  0  0  0  0  0
   -0.7216   66.5693   71.1371 H   0  0  0  0  0  0  0  0  0  0  0  0
    1.0442   67.0363   71.0971 H   0  0  0  0  0  0  0  0  0  0  0  0
   -1.8910   66.0675   68.9956 H   0  0  0  0  0  0  0  0  0  0  0  0
   -2.0817   66.7125   66.5973 H   0  0  0  0  0  0  0  0  0  0  0  0
   -0.1634   67.8057   65.4403 H   0  0  0  0  0  0  0  0  0  0  0  0
    1.9523   68.2485   66.6830 H   0  0  0  0  0  0  0  0  0  0  0  0
    2.1505   67.6043   69.0829 H   0  0  0  0  0  0  0  0  0  0  0  0
  2  1  2  0
  3  1  1  0
  4  3  1  0
  5  4  1  0
  6  5  1  0
  7  6  1  0
  8  7  1  0
  8  3  1  0
 10  9  2  0
 11 10  1  0
 12 11  2  0
 13 12  1  0
 14 13  2  0
 14  9  1  0
 14  1  1  0
 16 15  1  0
 16  9  1  0
 17  6  1  0
 18 17  1  0
 19 18  2  0
 20 19  1  0
 21 20  2  0
 22 21  1  0
 23 18  1  0
 23 22  2  0
  4 24  1  0
  4 25  1  0
  5 26  1  0
  5 27  1  0
  6 28  1  0
  7 29  1  0
  7 30  1  0
  8 31  1  0
  8 32  1  0
 10 33  1  0
 11 34  1  0
 12 35  1  0
 13 36  1  0
 15 37  1  0
 15 38  1  0
 15 39  1  0
 17 40  1  0
 17 41  1  0
 19 42  1  0
 20 43  1  0
 21 44  1  0
 22 45  1  0
 23 46  1  0
M  END
>  <score>  (5) 
-8.657

$$$$
=
     RDKit          3D

 46 48  0  0  0  0  0  0  0  0999 V2000
    0.2750   67.4550   67.9030 C   0  0  0  0  0  0  0  0  0  0  0  0
   -0.8760   67.7490   67.5790 O   0  0  0  0  0  0  0  0  0  0  0  0
    0.5880   66.8220   69.1040 N   0  0  0  0  0  0  0  0  0  0  0  0
    1.9240   66.7280   69.6810 C   0  0  0  0  0  0  0  0  0  0  0  0
    2.2470   65.2970   70.1170 C   0  0  0  0  0  0  0  0  0  0  0  0
    1.0120   64.5130   70.6130 C   0  0  0  0  0  0  0  0  0  0  0  0
   -0.0770   65.4830   71.0950 C   0  0  0  0  0  0  0  0  0  0  0  0
   -0.5180   66.4020   69.9540 C   0  0  0  0  0  0  0  0  0  0  0  0
    2.0520   69.0500   67.0960 C   0  0  0  0  0  0  0  0  0  0  0  0
    3.0810   69.3250   66.1900 C   0  0  0  0  0  0  0  0  0  0  0  0
    3.4240   68.3980   65.1980 C   0  0  0  0  0  0  0  0  0  0  0  0
    2.7490   67.1820   65.1040 C   0  0  0  0  0  0  0  0  0  0  0  0
    1.7220   66.8930   65.9960 C   0  0  0  0  0  0  0  0  0  0  0  0
    1.3630   67.8300   66.9750 C   0  0  0  0  0  0  0  0  0  0  0  0
    2.6790   70.5060   68.8830 C   0  0  0  0  0  0  0  0  0  0  0  0
    1.6630   69.8840   68.1090 O   0  0  0  0  0  0  0  0  0  0  0  0
    1.3710   63.4970   71.7120 C   0  0  0  0  0  0  0  0  0  0  0  0
    2.5090   62.5790   71.3340 C   0  0  0  0  0  0  0  0  0  0  0  0
    3.8270   63.0560   71.3010 C   0  0  0  0  0  0  0  0  0  0  0  0
    4.8800   62.2060   70.9580 C   0  0  0  0  0  0  0  0  0  0  0  0
    4.6270   60.8730   70.6440 C   0  0  0  0  0  0  0  0  0  0  0  0
    3.3210   60.3880   70.6720 C   0  0  0  0  0  0  0  0  0  0  0  0
    2.2660   61.2360   71.0140 C   0  0  0  0  0  0  0  0  0  0  0  0
    2.6611   67.0478   68.9298 H   0  0  0  0  0  0  0  0  0  0  0  0
    1.9631   67.3765   70.5687 H   0  0  0  0  0  0  0  0  0  0  0  0
    2.6793   64.7605   69.2595 H   0  0  0  0  0  0  0  0  0  0  0  0
    2.9486   65.3655   70.9614 H   0  0  0  0  0  0  0  0  0  0  0  0
    0.6219   63.9360   69.7616 H   0  0  0  0  0  0  0  0  0  0  0  0
   -0.9435   64.9066   71.4513 H   0  0  0  0  0  0  0  0  0  0  0  0
    0.3300   66.0984   71.9109 H   0  0  0  0  0  0  0  0  0  0  0  0
   -1.2521   65.8654   69.3350 H   0  0  0  0  0  0  0  0  0  0  0  0
   -0.9481   67.3074   70.4071 H   0  0  0  0  0  0  0  0  0  0  0  0
    3.6260   70.2781   66.2571 H   0  0  0  0  0  0  0  0  0  0  0  0
    4.2314   68.6310   64.4882 H   0  0  0  0  0  0  0  0  0  0  0  0
    3.0275   66.4542   64.3276 H   0  0  0  0  0  0  0  0  0  0  0  0
    1.1923   65.9310   65.9335 H   0  0  0  0  0  0  0  0  0  0  0  0
    2.4593   70.3715   69.9524 H   0  0  0  0  0  0  0  0  0  0  0  0
    3.6511   70.0481   68.6479 H   0  0  0  0  0  0  0  0  0  0  0  0
    2.7132   71.5800   68.6479 H   0  0  0  0  0  0  0  0  0  0  0  0
    1.6566   64.0508   72.6185 H   0  0  0  0  0  0  0  0  0  0  0  0
    0.4846   62.8654   71.8714 H   0  0  0  0  0  0  0  0  0  0  0  0
    4.0330   64.1081   71.5473 H   0  0  0  0  0  0  0  0  0  0  0  0
    5.9107   62.5896   70.9357 H   0  0  0  0  0  0  0  0  0  0  0  0
    5.4572   60.2037   70.3742 H   0  0  0  0  0  0  0  0  0  0  0  0
    3.1209   59.3351   70.4242 H   0  0  0  0  0  0  0  0  0  0  0  0
    1.2370   60.8476   71.0325 H   0  0  0  0  0  0  0  0  0  0  0  0
  2  1  2  0
  3  1  1  0
  4  3  1  0
  5  4  1  0
  6  5  1  0
  7  6  1  0
  8  7  1  0
  8  3  1  0
 10  9  2  0
 11 10  1  0
 12 11  2  0
 13 12  1  0
 14 13  2  0
 14  9  1  0
 14  1  1  0
 16 15  1  0
 16  9  1  0
 17  6  1  0
 18 17  1  0
 19 18  2  0
 20 19  1  0
 21 20  2  0
 22 21  1  0
 23 18  1  0
 23 22  2  0
  4 24  1  0
  4 25  1  0
  5 26  1  0
  5 27  1  0
  6 28  1  0
  7 29  1  0
  7 30  1  0
  8 31  1  0
  8 32  1  0
 10 33  1  0
 11 34  1  0
 12 35  1  0
 13 36  1  0
 15 37  1  0
 15 38  1  0
 15 39  1  0
 17 40  1  0
 17 41  1  0
 19 42  1  0
 20 43  1  0
 21 44  1  0
 22 45  1  0
 23 46  1  0
M  END
>  <score>  (6) 
-8.431

$$$$
=
     RDKit          3D

 46 48  0  0  0  0  0  0  0  0999 V2000
    1.8270   57.9380   75.1710 C   0  0  0  0  0  0  0  0  0  0  0  0
    1.7960   58.2370   76.3640 O   0  0  0  0  0  0  0  0  0  0  0  0
    2.3270   58.7870   74.1860 N   0  0  0  0  0  0  0  0  0  0  0  0
    2.1110   58.6300   72.7530 C   0  0  0  0  0  0  0  0  0  0  0  0
    3.4220   58.7540   71.9720 C   0  0  0  0  0  0  0  0  0  0  0  0
    4.4280   59.7350   72.6130 C   0  0  0  0  0  0  0  0  0  0  0  0
    3.6920   60.7520   73.4970 C   0  0  0  0  0  0  0  0  0  0  0  0
    2.9360   60.0380   74.6190 C   0  0  0  0  0  0  0  0  0  0  0  0
   -0.1020   56.4500   74.5210 C   0  0  0  0  0  0  0  0  0  0  0  0
   -0.5510   55.1810   74.1420 C   0  0  0  0  0  0  0  0  0  0  0  0
    0.3500   54.1160   74.0100 C   0  0  0  0  0  0  0  0  0  0  0  0
    1.7100   54.3090   74.2490 C   0  0  0  0  0  0  0  0  0  0  0  0
    2.1730   55.5650   74.6280 C   0  0  0  0  0  0  0  0  0  0  0  0
    1.2680   56.6250   74.7820 C   0  0  0  0  0  0  0  0  0  0  0  0
   -2.0570   57.4370   75.4760 C   0  0  0  0  0  0  0  0  0  0  0  0
   -0.9040   57.5520   74.6540 O   0  0  0  0  0  0  0  0  0  0  0  0
    5.2980   60.4460   71.5620 C   0  0  0  0  0  0  0  0  0  0  0  0
    4.5370   61.4520   70.7310 C   0  0  0  0  0  0  0  0  0  0  0  0
    4.5640   62.8140   71.0620 C   0  0  0  0  0  0  0  0  0  0  0  0
    3.8660   63.7450   70.2910 C   0  0  0  0  0  0  0  0  0  0  0  0
    3.1330   63.3250   69.1840 C   0  0  0  0  0  0  0  0  0  0  0  0
    3.0970   61.9730   68.8460 C   0  0  0  0  0  0  0  0  0  0  0  0
    3.7940   61.0410   69.6160 C   0  0  0  0  0  0  0  0  0  0  0  0
    1.6744   57.6383   72.5637 H   0  0  0  0  0  0  0  0  0  0  0  0
    1.4317   59.4271   72.4166 H   0  0  0  0  0  0  0  0  0  0  0  0
    3.8906   57.7603   71.9175 H   0  0  0  0  0  0  0  0  0  0  0  0
    3.1708   59.1507   70.9772 H   0  0  0  0  0  0  0  0  0  0  0  0
    5.1097   59.1449   73.2431 H   0  0  0  0  0  0  0  0  0  0  0  0
    4.4237   61.4452   73.9375 H   0  0  0  0  0  0  0  0  0  0  0  0
    2.9706   61.3054   72.8779 H   0  0  0  0  0  0  0  0  0  0  0  0
    3.6414   59.8211   75.4347 H   0  0  0  0  0  0  0  0  0  0  0  0
    2.1242   60.7044   74.9460 H   0  0  0  0  0  0  0  0  0  0  0  0
   -1.6209   55.0174   73.9458 H   0  0  0  0  0  0  0  0  0  0  0  0
   -0.0178   53.1219   73.7161 H   0  0  0  0  0  0  0  0  0  0  0  0
    2.4143   53.4713   74.1383 H   0  0  0  0  0  0  0  0  0  0  0  0
    3.2464   55.7262   74.8064 H   0  0  0  0  0  0  0  0  0  0  0  0
   -1.7575   57.4669   76.5340 H   0  0  0  0  0  0  0  0  0  0  0  0
   -2.7423   58.2713   75.2652 H   0  0  0  0  0  0  0  0  0  0  0  0
   -2.5640   56.4838   75.2652 H   0  0  0  0  0  0  0  0  0  0  0  0
    6.1138   60.9697   72.0818 H   0  0  0  0  0  0  0  0  0  0  0  0
    5.6704   59.6731   70.8736 H   0  0  0  0  0  0  0  0  0  0  0  0
    5.1398   63.1517   71.9363 H   0  0  0  0  0  0  0  0  0  0  0  0
    3.8950   64.8117   70.5582 H   0  0  0  0  0  0  0  0  0  0  0  0
    2.5830   64.0592   68.5770 H   0  0  0  0  0  0  0  0  0  0  0  0
    2.5186   61.6405   67.9714 H   0  0  0  0  0  0  0  0  0  0  0  0
    3.7600   59.9753   69.3457 H   0  0  0  0  0  0  0  0  0  0  0  0
  2  1  2  0
  3  1  1  0
  4  3  1  0
  5  4  1  0
  6  5  1  0
  7  6  1  0
  8  7  1  0
  8  3  1  0
 10  9  2  0
 11 10  1  0
 12 11  2  0
 13 12  1  0
 14 13  2  0
 14  9  1  0
 14  1  1  0
 16 15  1  0
 16  9  1  0
 17  6  1  0
 18 17  1  0
 19 18  2  0
 20 19  1  0
 21 20  2  0
 22 21  1  0
 23 18  1  0
 23 22  2  0
  4 24  1  0
  4 25  1  0
  5 26  1  0
  5 27  1  0
  6 28  1  0
  7 29  1  0
  7 30  1  0
  8 31  1  0
  8 32  1  0
 10 33  1  0
 11 34  1  0
 12 35  1  0
 13 36  1  0
 15 37  1  0
 15 38  1  0
 15 39  1  0
 17 40  1  0
 17 41  1  0
 19 42  1  0
 20 43  1  0
 21 44  1  0
 22 45  1  0
 23 46  1  0
M  END
>  <score>  (7) 
-8.234

$$$$
=
     RDKit          3D

 46 48  0  0  0  0  0  0  0  0999 V2000
    3.0080   61.2900   73.1190 C   0  0  0  0  0  0  0  0  0  0  0  0
    2.8060   62.0300   74.0820 O   0  0  0  0  0  0  0  0  0  0  0  0
    3.0740   59.9030   73.2270 N   0  0  0  0  0  0  0  0  0  0  0  0
    3.6090   59.0050   72.2100 C   0  0  0  0  0  0  0  0  0  0  0  0
    2.6590   57.8360   71.9400 C   0  0  0  0  0  0  0  0  0  0  0  0
    1.8680   57.3870   73.1880 C   0  0  0  0  0  0  0  0  0  0  0  0
    2.6140   57.7930   74.4670 C   0  0  0  0  0  0  0  0  0  0  0  0
    2.7840   59.3120   74.5280 C   0  0  0  0  0  0  0  0  0  0  0  0
    2.1460   62.2650   70.9600 C   0  0  0  0  0  0  0  0  0  0  0  0
    2.4280   62.8790   69.7350 C   0  0  0  0  0  0  0  0  0  0  0  0
    3.7490   63.1620   69.3670 C   0  0  0  0  0  0  0  0  0  0  0  0
    4.8040   62.8420   70.2210 C   0  0  0  0  0  0  0  0  0  0  0  0
    4.5410   62.2300   71.4420 C   0  0  0  0  0  0  0  0  0  0  0  0
    3.2200   61.9260   71.8010 C   0  0  0  0  0  0  0  0  0  0  0  0
    0.0320   63.0560   71.7450 C   0  0  0  0  0  0  0  0  0  0  0  0
    0.8880   61.9710   71.4120 O   0  0  0  0  0  0  0  0  0  0  0  0
    1.5740   55.8760   73.1790 C   0  0  0  0  0  0  0  0  0  0  0  0
    0.3390   55.4980   73.9640 C   0  0  0  0  0  0  0  0  0  0  0  0
   -0.6660   56.4440   74.2080 C   0  0  0  0  0  0  0  0  0  0  0  0
   -1.8080   56.0940   74.9280 C   0  0  0  0  0  0  0  0  0  0  0  0
   -1.9590   54.7970   75.4120 C   0  0  0  0  0  0  0  0  0  0  0  0
   -0.9660   53.8480   75.1770 C   0  0  0  0  0  0  0  0  0  0  0  0
    0.1790   54.1970   74.4570 C   0  0  0  0  0  0  0  0  0  0  0  0
    3.7567   59.5687   71.2770 H   0  0  0  0  0  0  0  0  0  0  0  0
    4.5631   58.5977   72.5759 H   0  0  0  0  0  0  0  0  0  0  0  0
    1.9418   58.1418   71.1641 H   0  0  0  0  0  0  0  0  0  0  0  0
    3.2764   56.9827   71.6228 H   0  0  0  0  0  0  0  0  0  0  0  0
    0.8956   57.9007   73.1650 H   0  0  0  0  0  0  0  0  0  0  0  0
    2.0397   57.4574   75.3431 H   0  0  0  0  0  0  0  0  0  0  0  0
    3.6087   57.3233   74.4633 H   0  0  0  0  0  0  0  0  0  0  0  0
    1.8540   59.7540   74.9149 H   0  0  0  0  0  0  0  0  0  0  0  0
    3.6411   59.5222   75.1846 H   0  0  0  0  0  0  0  0  0  0  0  0
    1.6045   63.1418   69.0547 H   0  0  0  0  0  0  0  0  0  0  0  0
    3.9559   63.6398   68.3980 H   0  0  0  0  0  0  0  0  0  0  0  0
    5.8395   63.0726   69.9303 H   0  0  0  0  0  0  0  0  0  0  0  0
    5.3678   61.9849   72.1248 H   0  0  0  0  0  0  0  0  0  0  0  0
   -0.0383   63.1451   72.8391 H   0  0  0  0  0  0  0  0  0  0  0  0
    0.4411   63.9875   71.3268 H   0  0  0  0  0  0  0  0  0  0  0  0
   -0.9691   62.8749   71.3268 H   0  0  0  0  0  0  0  0  0  0  0  0
    1.4359   55.5543   72.1362 H   0  0  0  0  0  0  0  0  0  0  0  0
    2.4284   55.3770   73.6595 H   0  0  0  0  0  0  0  0  0  0  0  0
   -0.5532   57.4704   73.8287 H   0  0  0  0  0  0  0  0  0  0  0  0
   -2.5910   56.8439   75.1139 H   0  0  0  0  0  0  0  0  0  0  0  0
   -2.8607   54.5221   75.9789 H   0  0  0  0  0  0  0  0  0  0  0  0
   -1.0839   52.8232   75.5588 H   0  0  0  0  0  0  0  0  0  0  0  0
    0.9606   53.4445   74.2759 H   0  0  0  0  0  0  0  0  0  0  0  0
  2  1  2  0
  3  1  1  0
  4  3  1  0
  5  4  1  0
  6  5  1  0
  7  6  1  0
  8  7  1  0
  8  3  1  0
 10  9  2  0
 11 10  1  0
 12 11  2  0
 13 12  1  0
 14 13  2  0
 14  9  1  0
 14  1  1  0
 16 15  1  0
 16  9  1  0
 17  6  1  0
 18 17  1  0
 19 18  2  0
 20 19  1  0
 21 20  2  0
 22 21  1  0
 23 18  1  0
 23 22  2  0
  4 24  1  0
  4 25  1  0
  5 26  1  0
  5 27  1  0
  6 28  1  0
  7 29  1  0
  7 30  1  0
  8 31  1  0
  8 32  1  0
 10 33  1  0
 11 34  1  0
 12 35  1  0
 13 36  1  0
 15 37  1  0
 15 38  1  0
 15 39  1  0
 17 40  1  0
 17 41  1  0
 19 42  1  0
 20 43  1  0
 21 44  1  0
 22 45  1  0
 23 46  1  0
M  END
>  <score>  (8) 
-7.983

$$$$
=
     RDKit          3D

 46 48  0  0  0  0  0  0  0  0999 V2000
    4.1830   60.4710   72.6910 C   0  0  0  0  0  0  0  0  0  0  0  0
    5.1790   60.9700   73.2120 O   0  0  0  0  0  0  0  0  0  0  0  0
    3.5000   59.3870   73.2390 N   0  0  0  0  0  0  0  0  0  0  0  0
    2.5250   58.5640   72.5340 C   0  0  0  0  0  0  0  0  0  0  0  0
    1.2510   58.3730   73.3600 C   0  0  0  0  0  0  0  0  0  0  0  0
    1.5080   58.3300   74.8830 C   0  0  0  0  0  0  0  0  0  0  0  0
    2.9560   57.9090   75.1680 C   0  0  0  0  0  0  0  0  0  0  0  0
    3.9360   58.9040   74.5430 C   0  0  0  0  0  0  0  0  0  0  0  0
    2.7160   62.0170   71.3440 C   0  0  0  0  0  0  0  0  0  0  0  0
    2.3510   62.5190   70.0910 C   0  0  0  0  0  0  0  0  0  0  0  0
    2.9890   62.0680   68.9290 C   0  0  0  0  0  0  0  0  0  0  0  0
    4.0050   61.1170   69.0050 C   0  0  0  0  0  0  0  0  0  0  0  0
    4.3800   60.6050   70.2440 C   0  0  0  0  0  0  0  0  0  0  0  0
    3.7260   61.0400   71.4050 C   0  0  0  0  0  0  0  0  0  0  0  0
    0.8250   62.0240   72.8040 C   0  0  0  0  0  0  0  0  0  0  0  0
    2.1650   62.4130   72.5330 O   0  0  0  0  0  0  0  0  0  0  0  0
    0.5130   57.4140   75.6160 C   0  0  0  0  0  0  0  0  0  0  0  0
    0.6050   55.9650   75.1950 C   0  0  0  0  0  0  0  0  0  0  0  0
    1.5480   55.1120   75.7850 C   0  0  0  0  0  0  0  0  0  0  0  0
    1.6300   53.7730   75.4010 C   0  0  0  0  0  0  0  0  0  0  0  0
    0.7730   53.2730   74.4240 C   0  0  0  0  0  0  0  0  0  0  0  0
   -0.1670   54.1120   73.8290 C   0  0  0  0  0  0  0  0  0  0  0  0
   -0.2510   55.4520   74.2110 C   0  0  0  0  0  0  0  0  0  0  0  0
    2.2649   59.0530   71.5836 H   0  0  0  0  0  0  0  0  0  0  0  0
    2.9724   57.5750   72.3557 H   0  0  0  0  0  0  0  0  0  0  0  0
    0.5677   59.2078   73.1451 H   0  0  0  0  0  0  0  0  0  0  0  0
    0.8221   57.4009   73.0754 H   0  0  0  0  0  0  0  0  0  0  0  0
    1.3506   59.3463   75.2734 H   0  0  0  0  0  0  0  0  0  0  0  0
    3.1165   57.8775   76.2558 H   0  0  0  0  0  0  0  0  0  0  0  0
    3.1303   56.9151   74.7302 H   0  0  0  0  0  0  0  0  0  0  0  0
    4.0406   59.7653   75.2192 H   0  0  0  0  0  0  0  0  0  0  0  0
    4.8916   58.3789   74.3977 H   0  0  0  0  0  0  0  0  0  0  0  0
    1.5554   63.2751   70.0175 H   0  0  0  0  0  0  0  0  0  0  0  0
    2.6863   62.4670   67.9496 H   0  0  0  0  0  0  0  0  0  0  0  0
    4.5085   60.7724   68.0897 H   0  0  0  0  0  0  0  0  0  0  0  0
    5.1874   59.8610   70.3118 H   0  0  0  0  0  0  0  0  0  0  0  0
    0.6692   61.9788   73.8920 H   0  0  0  0  0  0  0  0  0  0  0  0
    0.1340   62.7586   72.3649 H   0  0  0  0  0  0  0  0  0  0  0  0
    0.6348   61.0336   72.3649 H   0  0  0  0  0  0  0  0  0  0  0  0
    0.7129   57.4762   76.6959 H   0  0  0  0  0  0  0  0  0  0  0  0
   -0.4980   57.7624   75.3583 H   0  0  0  0  0  0  0  0  0  0  0  0
    2.2286   55.5012   76.5566 H   0  0  0  0  0  0  0  0  0  0  0  0
    2.3727   53.1115   75.8708 H   0  0  0  0  0  0  0  0  0  0  0  0
    0.8380   52.2172   74.1223 H   0  0  0  0  0  0  0  0  0  0  0  0
   -0.8441   53.7177   73.0569 H   0  0  0  0  0  0  0  0  0  0  0  0
   -0.9941   56.1098   73.7365 H   0  0  0  0  0  0  0  0  0  0  0  0
  2  1  2  0
  3  1  1  0
  4  3  1  0
  5  4  1  0
  6  5  1  0
  7  6  1  0
  8  7  1  0
  8  3  1  0
 10  9  2  0
 11 10  1  0
 12 11  2  0
 13 12  1  0
 14 13  2  0
 14  9  1  0
 14  1  1  0
 16 15  1  0
 16  9  1  0
 17  6  1  0
 18 17  1  0
 19 18  2  0
 20 19  1  0
 21 20  2  0
 22 21  1  0
 23 18  1  0
 23 22  2  0
  4 24  1  0
  4 25  1  0
  5 26  1  0
  5 27  1  0
  6 28  1  0
  7 29  1  0
  7 30  1  0
  8 31  1  0
  8 32  1  0
 10 33  1  0
 11 34  1  0
 12 35  1  0
 13 36  1  0
 15 37  1  0
 15 38  1  0
 15 39  1  0
 17 40  1  0
 17 41  1  0
 19 42  1  0
 20 43  1  0
 21 44  1  0
 22 45  1  0
 23 46  1  0
M  END
>  <score>  (9) 
-7.738

$$$$
