=
     RDKit          3D

 28 28  0  0  0  0  0  0  0  0999 V2000
    2.5550   68.5770   65.3860 C   0  0  0  0  0  0  0  0  0  0  0  0
    2.0370   69.1570   64.4370 O   0  0  0  0  0  0  0  0  0  0  0  0
    3.5680   69.2430   66.2460 C   0  0  0  0  0  0  0  0  0  0  0  0
    3.2800   69.6930   67.5390 C   0  0  0  0  0  0  0  0  0  0  0  0
    4.2700   70.3280   68.2970 C   0  0  0  0  0  0  0  0  0  0  0  0
    5.5450   70.5190   67.7670 C   0  0  0  0  0  0  0  0  0  0  0  0
    5.8380   70.0760   66.4780 C   0  0  0  0  0  0  0  0  0  0  0  0
    4.8530   69.4410   65.7190 C   0  0  0  0  0  0  0  0  0  0  0  0
    2.0880   67.1640   65.6840 C   0  0  0  0  0  0  0  0  0  0  0  0
    1.5670   66.9030   66.7610 O   0  0  0  0  0  0  0  0  0  0  0  0
    2.3460   66.1380   64.6090 C   0  0  0  0  0  0  0  0  0  0  0  0
    3.7760   66.2540   64.0940 C   0  0  0  0  0  0  0  0  0  0  0  0
    3.7590   63.7960   64.7730 C   0  0  0  0  0  0  0  0  0  0  0  0
    4.5360   64.9260   64.1170 C   0  0  0  0  0  0  0  0  0  0  0  0
    2.2743   69.5475   67.9602 H   0  0  0  0  0  0  0  0  0  0  0  0
    4.0413   70.6777   69.3146 H   0  0  0  0  0  0  0  0  0  0  0  0
    6.3202   71.0194   68.3659 H   0  0  0  0  0  0  0  0  0  0  0  0
    6.8440   70.2266   66.0594 H   0  0  0  0  0  0  0  0  0  0  0  0
    5.0860   69.0938   64.7016 H   0  0  0  0  0  0  0  0  0  0  0  0
    2.1912   65.1313   65.0245 H   0  0  0  0  0  0  0  0  0  0  0  0
    1.6514   66.3141   63.7744 H   0  0  0  0  0  0  0  0  0  0  0  0
    3.7453   66.6211   63.0575 H   0  0  0  0  0  0  0  0  0  0  0  0
    4.3085   66.9463   64.7627 H   0  0  0  0  0  0  0  0  0  0  0  0
    3.8252   63.8922   65.8668 H   0  0  0  0  0  0  0  0  0  0  0  0
    2.7047   63.8479   64.4634 H   0  0  0  0  0  0  0  0  0  0  0  0
    4.1849   62.8302   64.4634 H   0  0  0  0  0  0  0  0  0  0  0  0
    5.4748   65.0713   64.6716 H   0  0  0  0  0  0  0  0  0  0  0  0
    4.7113   64.6345   63.0709 H   0  0  0  0  0  0  0  0  0  0  0  0
  2  1  2  0
  3  1  1  0
  4  3  2  0
  5  4  1  0
  6  5  2  0
  7  6  1  0
  8  3  1  0
  8  7  2  0
  9  1  1  0
 10  9  2  0
 11  9  1  0
 12 11  1  0
 14 13  1  0
 14 12  1  0
  4 15  1  0
  5 16  1  0
  6 17  1  0
  7 18  1  0
  8 19  1  0
 11 20  1  0
 11 21  1  0
 12 22  1  0
 12 23  1  0
 13 24  1  0
 13 25  1  0
 13 26  1  0
 14 27  1  0
 14 28  1  0
M  END
>  <score>  (1) 
-7.519

$$$$
=
     RDKit          3D

 28 28  0  0  0  0  0  0  0  0999 V2000
    4.7510   69.0660   63.9990 C   0  0  0  0  0  0  0  0  0  0  0  0
    5.5750   69.6210   63.2790 O   0  0  0  0  0  0  0  0  0  0  0  0
    4.5830   69.4470   65.4260 C   0  0  0  0  0  0  0  0  0  0  0  0
    3.3790   69.2730   66.1160 C   0  0  0  0  0  0  0  0  0  0  0  0
    3.2750   69.6650   67.4550 C   0  0  0  0  0  0  0  0  0  0  0  0
    4.3680   70.2350   68.1060 C   0  0  0  0  0  0  0  0  0  0  0  0
    5.5690   70.4140   67.4240 C   0  0  0  0  0  0  0  0  0  0  0  0
    5.6770   70.0230   66.0880 C   0  0  0  0  0  0  0  0  0  0  0  0
    3.8700   68.0050   63.3680 C   0  0  0  0  0  0  0  0  0  0  0  0
    2.8930   68.3310   62.7050 O   0  0  0  0  0  0  0  0  0  0  0  0
    4.2510   66.5730   63.6450 C   0  0  0  0  0  0  0  0  0  0  0  0
    3.2220   65.9140   64.5560 C   0  0  0  0  0  0  0  0  0  0  0  0
    4.6960   63.8720   64.1560 C   0  0  0  0  0  0  0  0  0  0  0  0
    3.3340   64.3890   64.5920 C   0  0  0  0  0  0  0  0  0  0  0  0
    2.5127   68.8274   65.6053 H   0  0  0  0  0  0  0  0  0  0  0  0
    2.3277   69.5230   67.9958 H   0  0  0  0  0  0  0  0  0  0  0  0
    4.2819   70.5434   69.1584 H   0  0  0  0  0  0  0  0  0  0  0  0
    6.4319   70.8631   67.9375 H   0  0  0  0  0  0  0  0  0  0  0  0
    6.6262   70.1677   65.5513 H   0  0  0  0  0  0  0  0  0  0  0  0
    4.2996   66.0210   62.6948 H   0  0  0  0  0  0  0  0  0  0  0  0
    5.2312   66.5556   64.1440 H   0  0  0  0  0  0  0  0  0  0  0  0
    3.3625   66.2985   65.5770 H   0  0  0  0  0  0  0  0  0  0  0  0
    2.2275   66.1581   64.1542 H   0  0  0  0  0  0  0  0  0  0  0  0
    5.3024   63.6418   65.0444 H   0  0  0  0  0  0  0  0  0  0  0  0
    4.5667   62.9604   63.5541 H   0  0  0  0  0  0  0  0  0  0  0  0
    5.2041   64.6398   63.5541 H   0  0  0  0  0  0  0  0  0  0  0  0
    2.5704   63.9676   63.9217 H   0  0  0  0  0  0  0  0  0  0  0  0
    3.1883   64.0777   65.6369 H   0  0  0  0  0  0  0  0  0  0  0  0
  2  1  2  0
  3  1  1  0
  4  3  2  0
  5  4  1  0
  6  5  2  0
  7  6  1  0
  8  3  1  0
  8  7  2  0
  9  1  1  0
 10  9  2  0
 11  9  1  0
 12 11  1  0
 14 13  1  0
 14 12  1  0
  4 15  1  0
  5 16  1  0
  6 17  1  0
  7 18  1  0
  8 19  1  0
 11 20  1  0
 11 21  1  0
 12 22  1  0
 12 23  1  0
 13 24  1  0
 13 25  1  0
 13 26  1  0
 14 27  1  0
 14 28  1  0
M  END
>  <score>  (2) 
-7.504

$$$$
=
     RDKit          3D

 28 28  0  0  0  0  0  0  0  0999 V2000
    3.5710   69.0440   65.3670 C   0  0  0  0  0  0  0  0  0  0  0  0
    2.3580   68.9150   65.4930 O   0  0  0  0  0  0  0  0  0  0  0  0
    4.4000   69.6790   66.4250 C   0  0  0  0  0  0  0  0  0  0  0  0
    5.7460   70.0100   66.2330 C   0  0  0  0  0  0  0  0  0  0  0  0
    6.4800   70.5910   67.2710 C   0  0  0  0  0  0  0  0  0  0  0  0
    5.8780   70.8380   68.5040 C   0  0  0  0  0  0  0  0  0  0  0  0
    4.5400   70.5070   68.7050 C   0  0  0  0  0  0  0  0  0  0  0  0
    3.8030   69.9280   67.6700 C   0  0  0  0  0  0  0  0  0  0  0  0
    4.2090   68.4890   64.1080 C   0  0  0  0  0  0  0  0  0  0  0  0
    4.1630   69.1260   63.0620 O   0  0  0  0  0  0  0  0  0  0  0  0
    4.8430   67.1260   64.2290 C   0  0  0  0  0  0  0  0  0  0  0  0
    3.9450   66.0630   63.6040 C   0  0  0  0  0  0  0  0  0  0  0  0
    3.7890   63.8550   64.8700 C   0  0  0  0  0  0  0  0  0  0  0  0
    3.1850   65.2310   64.6380 C   0  0  0  0  0  0  0  0  0  0  0  0
    6.2272   69.8127   65.2637 H   0  0  0  0  0  0  0  0  0  0  0  0
    7.5365   70.8543   67.1145 H   0  0  0  0  0  0  0  0  0  0  0  0
    6.4598   71.2944   69.3183 H   0  0  0  0  0  0  0  0  0  0  0  0
    4.0646   70.7015   69.6777 H   0  0  0  0  0  0  0  0  0  0  0  0
    2.7472   69.6653   67.8318 H   0  0  0  0  0  0  0  0  0  0  0  0
    5.8134   67.1306   63.7110 H   0  0  0  0  0  0  0  0  0  0  0  0
    4.9837   66.8919   65.2945 H   0  0  0  0  0  0  0  0  0  0  0  0
    3.2137   66.5628   62.9519 H   0  0  0  0  0  0  0  0  0  0  0  0
    4.5952   65.3741   63.0448 H   0  0  0  0  0  0  0  0  0  0  0  0
    3.8710   63.6681   65.9509 H   0  0  0  0  0  0  0  0  0  0  0  0
    3.1440   63.0897   64.4135 H   0  0  0  0  0  0  0  0  0  0  0  0
    4.7889   63.8117   64.4135 H   0  0  0  0  0  0  0  0  0  0  0  0
    2.1497   65.1027   64.2892 H   0  0  0  0  0  0  0  0  0  0  0  0
    3.2384   65.7737   65.5933 H   0  0  0  0  0  0  0  0  0  0  0  0
  2  1  2  0
  3  1  1  0
  4  3  2  0
  5  4  1  0
  6  5  2  0
  7  6  1  0
  8  3  1  0
  8  7  2  0
  9  1  1  0
 10  9  2  0
 11  9  1  0
 12 11  1  0
 14 13  1  0
 14 12  1  0
  4 15  1  0
  5 16  1  0
  6 17  1  0
  7 18  1  0
  8 19  1  0
 11 20  1  0
 11 21  1  0
 12 22  1  0
 12 23  1  0
 13 24  1  0
 13 25  1  0
 13 26  1  0
 14 27  1  0
 14 28  1  0
M  END
>  <score>  (3) 
-7.323

$$$$
=
     RDKit          3D

 28 28  0  0  0  0  0  0  0  0999 V2000
    1.1220   68.9610   67.7520 C   0  0  0  0  0  0  0  0  0  0  0  0
    0.2180   69.7900   67.7380 O   0  0  0  0  0  0  0  0  0  0  0  0
    2.5150   69.3240   67.3800 C   0  0  0  0  0  0  0  0  0  0  0  0
    3.0610   69.0330   66.1260 C   0  0  0  0  0  0  0  0  0  0  0  0
    4.3840   69.3840   65.8380 C   0  0  0  0  0  0  0  0  0  0  0  0
    5.1660   70.0200   66.8010 C   0  0  0  0  0  0  0  0  0  0  0  0
    4.6300   70.3100   68.0540 C   0  0  0  0  0  0  0  0  0  0  0  0
    3.3100   69.9620   68.3440 C   0  0  0  0  0  0  0  0  0  0  0  0
    0.7800   67.5560   68.2100 C   0  0  0  0  0  0  0  0  0  0  0  0
    0.0360   66.8540   67.5360 O   0  0  0  0  0  0  0  0  0  0  0  0
    1.3690   67.1240   69.5280 C   0  0  0  0  0  0  0  0  0  0  0  0
    0.4620   66.1050   70.2100 C   0  0  0  0  0  0  0  0  0  0  0  0
    0.2490   63.5910   70.5810 C   0  0  0  0  0  0  0  0  0  0  0  0
    1.1750   64.7980   70.5580 C   0  0  0  0  0  0  0  0  0  0  0  0
    2.4490   68.5272   65.3647 H   0  0  0  0  0  0  0  0  0  0  0  0
    4.8086   69.1575   64.8488 H   0  0  0  0  0  0  0  0  0  0  0  0
    6.2066   70.2930   66.5716 H   0  0  0  0  0  0  0  0  0  0  0  0
    5.2466   70.8127   68.8137 H   0  0  0  0  0  0  0  0  0  0  0  0
    2.8901   70.1894   69.3349 H   0  0  0  0  0  0  0  0  0  0  0  0
    2.3555   66.6701   69.3523 H   0  0  0  0  0  0  0  0  0  0  0  0
    1.4675   68.0049   70.1795 H   0  0  0  0  0  0  0  0  0  0  0  0
    0.0742   66.5491   71.1386 H   0  0  0  0  0  0  0  0  0  0  0  0
   -0.3421   65.8586   69.5010 H   0  0  0  0  0  0  0  0  0  0  0  0
    0.0354   63.3126   71.6235 H   0  0  0  0  0  0  0  0  0  0  0  0
   -0.6915   63.8406   70.0681 H   0  0  0  0  0  0  0  0  0  0  0  0
    0.7337   62.7472   70.0681 H   0  0  0  0  0  0  0  0  0  0  0  0
    1.6329   64.9049   71.5524 H   0  0  0  0  0  0  0  0  0  0  0  0
    1.9234   64.6177   69.7723 H   0  0  0  0  0  0  0  0  0  0  0  0
  2  1  2  0
  3  1  1  0
  4  3  2  0
  5  4  1  0
  6  5  2  0
  7  6  1  0
  8  3  1  0
  8  7  2  0
  9  1  1  0
 10  9  2  0
 11  9  1  0
 12 11  1  0
 14 13  1  0
 14 12  1  0
  4 15  1  0
  5 16  1  0
  6 17  1  0
  7 18  1  0
  8 19  1  0
 11 20  1  0
 11 21  1  0
 12 22  1  0
 12 23  1  0
 13 24  1  0
 13 25  1  0
 13 26  1  0
 14 27  1  0
 14 28  1  0
M  END
>  <score>  (4) 
-7.28

$$$$
=
     RDKit          3D

 28 28  0  0  0  0  0  0  0  0999 V2000
    2.1020   69.1030   66.9760 C   0  0  0  0  0  0  0  0  0  0  0  0
    1.1450   69.4770   67.6470 O   0  0  0  0  0  0  0  0  0  0  0  0
    3.4740   69.6160   67.2250 C   0  0  0  0  0  0  0  0  0  0  0  0
    3.8510   70.2060   68.4370 C   0  0  0  0  0  0  0  0  0  0  0  0
    5.1540   70.6860   68.6080 C   0  0  0  0  0  0  0  0  0  0  0  0
    6.0810   70.5840   67.5710 C   0  0  0  0  0  0  0  0  0  0  0  0
    5.7120   70.0020   66.3600 C   0  0  0  0  0  0  0  0  0  0  0  0
    4.4130   69.5200   66.1860 C   0  0  0  0  0  0  0  0  0  0  0  0
    1.8450   68.0550   65.9100 C   0  0  0  0  0  0  0  0  0  0  0  0
    2.0250   66.8690   66.1570 O   0  0  0  0  0  0  0  0  0  0  0  0
    1.4080   68.5710   64.5620 C   0  0  0  0  0  0  0  0  0  0  0  0
    2.4080   68.1630   63.4860 C   0  0  0  0  0  0  0  0  0  0  0  0
    3.2490   68.8110   61.1670 C   0  0  0  0  0  0  0  0  0  0  0  0
    2.0510   68.6930   62.0960 C   0  0  0  0  0  0  0  0  0  0  0  0
    3.1219   70.2924   69.2561 H   0  0  0  0  0  0  0  0  0  0  0  0
    5.4482   71.1452   69.5633 H   0  0  0  0  0  0  0  0  0  0  0  0
    7.1042   70.9633   67.7093 H   0  0  0  0  0  0  0  0  0  0  0  0
    6.4431   69.9223   65.5420 H   0  0  0  0  0  0  0  0  0  0  0  0
    4.1237   69.0621   65.2286 H   0  0  0  0  0  0  0  0  0  0  0  0
    0.4208   68.1525   64.3165 H   0  0  0  0  0  0  0  0  0  0  0  0
    1.3545   69.6690   64.6009 H   0  0  0  0  0  0  0  0  0  0  0  0
    3.3985   68.5522   63.7643 H   0  0  0  0  0  0  0  0  0  0  0  0
    2.3953   67.0645   63.4291 H   0  0  0  0  0  0  0  0  0  0  0  0
    4.1684   68.9016   61.7640 H   0  0  0  0  0  0  0  0  0  0  0  0
    3.3106   67.9146   60.5325 H   0  0  0  0  0  0  0  0  0  0  0  0
    3.1346   69.7022   60.5325 H   0  0  0  0  0  0  0  0  0  0  0  0
    1.5981   69.6891   62.2087 H   0  0  0  0  0  0  0  0  0  0  0  0
    1.3584   67.9694   61.6413 H   0  0  0  0  0  0  0  0  0  0  0  0
  2  1  2  0
  3  1  1  0
  4  3  2  0
  5  4  1  0
  6  5  2  0
  7  6  1  0
  8  3  1  0
  8  7  2  0
  9  1  1  0
 10  9  2  0
 11  9  1  0
 12 11  1  0
 14 13  1  0
 14 12  1  0
  4 15  1  0
  5 16  1  0
  6 17  1  0
  7 18  1  0
  8 19  1  0
 11 20  1  0
 11 21  1  0
 12 22  1  0
 12 23  1  0
 13 24  1  0
 13 25  1  0
 13 26  1  0
 14 27  1  0
 14 28  1  0
M  END
>  <score>  (5) 
-7.252

$$$$
=
     RDKit          3D

 28 28  0  0  0  0  0  0  0  0999 V2000
    2.5500   68.6460   65.5250 C   0  0  0  0  0  0  0  0  0  0  0  0
    2.2370   69.1050   64.4320 O   0  0  0  0  0  0  0  0  0  0  0  0
    3.5580   69.3150   66.3900 C   0  0  0  0  0  0  0  0  0  0  0  0
    3.2670   69.7570   67.6850 C   0  0  0  0  0  0  0  0  0  0  0  0
    4.2510   70.3950   68.4460 C   0  0  0  0  0  0  0  0  0  0  0  0
    5.5250   70.5980   67.9170 C   0  0  0  0  0  0  0  0  0  0  0  0
    5.8220   70.1640   66.6270 C   0  0  0  0  0  0  0  0  0  0  0  0
    4.8410   69.5260   65.8640 C   0  0  0  0  0  0  0  0  0  0  0  0
    1.8350   67.3920   65.9920 C   0  0  0  0  0  0  0  0  0  0  0  0
    2.1650   66.2980   65.5520 O   0  0  0  0  0  0  0  0  0  0  0  0
    0.7040   67.5950   66.9680 C   0  0  0  0  0  0  0  0  0  0  0  0
   -0.3120   68.5860   66.4080 C   0  0  0  0  0  0  0  0  0  0  0  0
   -1.9050   66.9990   67.6110 C   0  0  0  0  0  0  0  0  0  0  0  0
   -1.7620   68.1600   66.6390 C   0  0  0  0  0  0  0  0  0  0  0  0
    2.2623   69.6023   68.1052 H   0  0  0  0  0  0  0  0  0  0  0  0
    4.0195   70.7379   69.4652 H   0  0  0  0  0  0  0  0  0  0  0  0
    6.2962   71.1012   68.5187 H   0  0  0  0  0  0  0  0  0  0  0  0
    6.8273   70.3234   66.2099 H   0  0  0  0  0  0  0  0  0  0  0  0
    5.0762   69.1870   64.8443 H   0  0  0  0  0  0  0  0  0  0  0  0
    0.2066   66.6312   67.1517 H   0  0  0  0  0  0  0  0  0  0  0  0
    1.1119   67.9957   67.9077 H   0  0  0  0  0  0  0  0  0  0  0  0
   -0.1529   69.5606   66.8925 H   0  0  0  0  0  0  0  0  0  0  0  0
   -0.1555   68.6338   65.3202 H   0  0  0  0  0  0  0  0  0  0  0  0
   -1.8585   67.3769   68.6430 H   0  0  0  0  0  0  0  0  0  0  0  0
   -2.8714   66.5000   67.4465 H   0  0  0  0  0  0  0  0  0  0  0  0
   -1.0886   66.2804   67.4465 H   0  0  0  0  0  0  0  0  0  0  0  0
   -2.1953   67.8610   65.6731 H   0  0  0  0  0  0  0  0  0  0  0  0
   -2.2855   69.0199   67.0824 H   0  0  0  0  0  0  0  0  0  0  0  0
  2  1  2  0
  3  1  1  0
  4  3  2  0
  5  4  1  0
  6  5  2  0
  7  6  1  0
  8  3  1  0
  8  7  2  0
  9  1  1  0
 10  9  2  0
 11  9  1  0
 12 11  1  0
 14 13  1  0
 14 12  1  0
  4 15  1  0
  5 16  1  0
  6 17  1  0
  7 18  1  0
  8 19  1  0
 11 20  1  0
 11 21  1  0
 12 22  1  0
 12 23  1  0
 13 24  1  0
 13 25  1  0
 13 26  1  0
 14 27  1  0
 14 28  1  0
M  END
>  <score>  (6) 
-7.22

$$$$
=
     RDKit          3D

 28 28  0  0  0  0  0  0  0  0999 V2000
    1.6960   67.9020   65.6240 C   0  0  0  0  0  0  0  0  0  0  0  0
    1.6620   66.6830   65.7580 O   0  0  0  0  0  0  0  0  0  0  0  0
    2.6350   68.7450   66.4110 C   0  0  0  0  0  0  0  0  0  0  0  0
    3.9170   69.0720   65.9570 C   0  0  0  0  0  0  0  0  0  0  0  0
    4.7620   69.8560   66.7490 C   0  0  0  0  0  0  0  0  0  0  0  0
    4.3340   70.3110   67.9950 C   0  0  0  0  0  0  0  0  0  0  0  0
    3.0600   69.9860   68.4560 C   0  0  0  0  0  0  0  0  0  0  0  0
    2.2130   69.2040   67.6680 C   0  0  0  0  0  0  0  0  0  0  0  0
    0.7770   68.5210   64.5880 C   0  0  0  0  0  0  0  0  0  0  0  0
   -0.4350   68.5190   64.7620 O   0  0  0  0  0  0  0  0  0  0  0  0
    1.4440   69.0790   63.3560 C   0  0  0  0  0  0  0  0  0  0  0  0
    2.3670   68.0370   62.7320 C   0  0  0  0  0  0  0  0  0  0  0  0
    4.6940   69.0220   62.3860 C   0  0  0  0  0  0  0  0  0  0  0  0
    3.3710   68.6340   61.7440 C   0  0  0  0  0  0  0  0  0  0  0  0
    4.2609   68.7122   64.9761 H   0  0  0  0  0  0  0  0  0  0  0  0
    5.7681   70.1145   66.3872 H   0  0  0  0  0  0  0  0  0  0  0  0
    5.0023   70.9269   68.6146 H   0  0  0  0  0  0  0  0  0  0  0  0
    2.7219   70.3449   69.4393 H   0  0  0  0  0  0  0  0  0  0  0  0
    1.2086   68.9462   68.0350 H   0  0  0  0  0  0  0  0  0  0  0  0
    0.6735   69.3648   62.6248 H   0  0  0  0  0  0  0  0  0  0  0  0
    2.0402   69.9585   63.6407 H   0  0  0  0  0  0  0  0  0  0  0  0
    2.9247   67.5370   63.5376 H   0  0  0  0  0  0  0  0  0  0  0  0
    1.7338   67.3350   62.1697 H   0  0  0  0  0  0  0  0  0  0  0  0
    4.5929   68.9923   63.4809 H   0  0  0  0  0  0  0  0  0  0  0  0
    5.4758   68.3153   62.0707 H   0  0  0  0  0  0  0  0  0  0  0  0
    4.9703   70.0390   62.0707 H   0  0  0  0  0  0  0  0  0  0  0  0
    2.9248   69.5333   61.2944 H   0  0  0  0  0  0  0  0  0  0  0  0
    3.5891   67.8585   60.9950 H   0  0  0  0  0  0  0  0  0  0  0  0
  2  1  2  0
  3  1  1  0
  4  3  2  0
  5  4  1  0
  6  5  2  0
  7  6  1  0
  8  3  1  0
  8  7  2  0
  9  1  1  0
 10  9  2  0
 11  9  1  0
 12 11  1  0
 14 13  1  0
 14 12  1  0
  4 15  1  0
  5 16  1  0
  6 17  1  0
  7 18  1  0
  8 19  1  0
 11 20  1  0
 11 21  1  0
 12 22  1  0
 12 23  1  0
 13 24  1  0
 13 25  1  0
 13 26  1  0
 14 27  1  0
 14 28  1  0
M  END
>  <score>  (7) 
-7.067

$$$$
=
     RDKit          3D

 28 28  0  0  0  0  0  0  0  0999 V2000
    3.8880   67.8630   62.5580 C   0  0  0  0  0  0  0  0  0  0  0  0
    4.1290   66.7510   62.1020 O   0  0  0  0  0  0  0  0  0  0  0  0
    2.4960   68.3740   62.6650 C   0  0  0  0  0  0  0  0  0  0  0  0
    1.7190   68.2130   63.8160 C   0  0  0  0  0  0  0  0  0  0  0  0
    0.4090   68.7010   63.8530 C   0  0  0  0  0  0  0  0  0  0  0  0
   -0.1310   69.3460   62.7410 C   0  0  0  0  0  0  0  0  0  0  0  0
    0.6350   69.5080   61.5890 C   0  0  0  0  0  0  0  0  0  0  0  0
    1.9440   69.0230   61.5490 C   0  0  0  0  0  0  0  0  0  0  0  0
    5.0590   68.6870   63.0580 C   0  0  0  0  0  0  0  0  0  0  0  0
    5.6180   69.4780   62.3090 O   0  0  0  0  0  0  0  0  0  0  0  0
    5.4910   68.4350   64.4810 C   0  0  0  0  0  0  0  0  0  0  0  0
    4.8660   69.4640   65.4170 C   0  0  0  0  0  0  0  0  0  0  0  0
    5.0260   70.4280   67.7720 C   0  0  0  0  0  0  0  0  0  0  0  0
    5.7770   69.8510   66.5830 C   0  0  0  0  0  0  0  0  0  0  0  0
    2.1390   67.7013   64.6945 H   0  0  0  0  0  0  0  0  0  0  0  0
   -0.1973   68.5756   64.7622 H   0  0  0  0  0  0  0  0  0  0  0  0
   -1.1624   69.7271   62.7735 H   0  0  0  0  0  0  0  0  0  0  0  0
    0.2094   70.0173   60.7118 H   0  0  0  0  0  0  0  0  0  0  0  0
    2.5464   69.1502   60.6374 H   0  0  0  0  0  0  0  0  0  0  0  0
    5.1701   67.4274   64.7841 H   0  0  0  0  0  0  0  0  0  0  0  0
    6.5863   68.5172   64.5410 H   0  0  0  0  0  0  0  0  0  0  0  0
    4.6367   70.3701   64.8370 H   0  0  0  0  0  0  0  0  0  0  0  0
    3.9618   69.0079   65.8465 H   0  0  0  0  0  0  0  0  0  0  0  0
    5.4881   70.0730   68.7049 H   0  0  0  0  0  0  0  0  0  0  0  0
    5.0704   71.5265   67.7357 H   0  0  0  0  0  0  0  0  0  0  0  0
    3.9760   70.1021   67.7357 H   0  0  0  0  0  0  0  0  0  0  0  0
    6.4973   70.6027   66.2278 H   0  0  0  0  0  0  0  0  0  0  0  0
    6.2712   68.9306   66.9275 H   0  0  0  0  0  0  0  0  0  0  0  0
  2  1  2  0
  3  1  1  0
  4  3  2  0
  5  4  1  0
  6  5  2  0
  7  6  1  0
  8  3  1  0
  8  7  2  0
  9  1  1  0
 10  9  2  0
 11  9  1  0
 12 11  1  0
 14 13  1  0
 14 12  1  0
  4 15  1  0
  5 16  1  0
  6 17  1  0
  7 18  1  0
  8 19  1  0
 11 20  1  0
 11 21  1  0
 12 22  1  0
 12 23  1  0
 13 24  1  0
 13 25  1  0
 13 26  1  0
 14 27  1  0
 14 28  1  0
M  END
>  <score>  (8) 
-6.946

$$$$
=
     RDKit          3D

 28 28  0  0  0  0  0  0  0  0999 V2000
    2.2020   69.5170   67.4730 C   0  0  0  0  0  0  0  0  0  0  0  0
    1.4850   70.1340   68.2530 O   0  0  0  0  0  0  0  0  0  0  0  0
    3.6540   69.8110   67.3510 C   0  0  0  0  0  0  0  0  0  0  0  0
    4.3880   69.5270   66.1950 C   0  0  0  0  0  0  0  0  0  0  0  0
    5.7560   69.8120   66.1450 C   0  0  0  0  0  0  0  0  0  0  0  0
    6.3970   70.3760   67.2470 C   0  0  0  0  0  0  0  0  0  0  0  0
    5.6730   70.6580   68.4040 C   0  0  0  0  0  0  0  0  0  0  0  0
    4.3070   70.3760   68.4580 C   0  0  0  0  0  0  0  0  0  0  0  0
    1.5650   68.4030   66.6640 C   0  0  0  0  0  0  0  0  0  0  0  0
    1.5860   67.2510   67.0800 O   0  0  0  0  0  0  0  0  0  0  0  0
    0.9630   68.8020   65.3400 C   0  0  0  0  0  0  0  0  0  0  0  0
   -0.5160   68.4360   65.2950 C   0  0  0  0  0  0  0  0  0  0  0  0
   -2.1790   67.9690   67.1710 C   0  0  0  0  0  0  0  0  0  0  0  0
   -1.3160   69.0050   66.4680 C   0  0  0  0  0  0  0  0  0  0  0  0
    3.8883   69.0787   65.3236 H   0  0  0  0  0  0  0  0  0  0  0  0
    6.3287   69.5903   65.2324 H   0  0  0  0  0  0  0  0  0  0  0  0
    7.4734   70.5983   67.2034 H   0  0  0  0  0  0  0  0  0  0  0  0
    6.1778   71.1026   69.2743 H   0  0  0  0  0  0  0  0  0  0  0  0
    3.7387   70.5978   69.3734 H   0  0  0  0  0  0  0  0  0  0  0  0
    1.0715   69.8883   65.2055 H   0  0  0  0  0  0  0  0  0  0  0  0
    1.4870   68.2664   64.5347 H   0  0  0  0  0  0  0  0  0  0  0  0
   -0.9437   68.8252   64.3592 H   0  0  0  0  0  0  0  0  0  0  0  0
   -0.5824   67.3397   65.3566 H   0  0  0  0  0  0  0  0  0  0  0  0
   -2.0802   68.0876   68.2601 H   0  0  0  0  0  0  0  0  0  0  0  0
   -3.2306   68.1098   66.8807 H   0  0  0  0  0  0  0  0  0  0  0  0
   -1.8504   66.9601   66.8807 H   0  0  0  0  0  0  0  0  0  0  0  0
   -1.9701   69.8040   66.0887 H   0  0  0  0  0  0  0  0  0  0  0  0
   -0.5897   69.3766   67.2059 H   0  0  0  0  0  0  0  0  0  0  0  0
  2  1  2  0
  3  1  1  0
  4  3  2  0
  5  4  1  0
  6  5  2  0
  7  6  1  0
  8  3  1  0
  8  7  2  0
  9  1  1  0
 10  9  2  0
 11  9  1  0
 12 11  1  0
 14 13  1  0
 14 12  1  0
  4 15  1  0
  5 16  1  0
  6 17  1  0
  7 18  1  0
  8 19  1  0
 11 20  1  0
 11 21  1  0
 12 22  1  0
 12 23  1  0
 13 24  1  0
 13 25  1  0
 13 26  1  0
 14 27  1  0
 14 28  1  0
M  END
>  <score>  (9) 
-6.927

$$$$
