=
     RDKit          3D

 16 17  0  0  0  0  0  0  0  0999 V2000
    7.2230   71.5260   68.8010 O   0  0  0  0  0  0  0  0  0  0  0  0
    6.3660   71.0030   68.1250 C   0  0  0  0  0  0  0  0  0  0  0  0
    6.4120   70.6790   66.7840 N   0  0  0  0  0  0  0  0  0  0  0  0
    5.2180   70.0870   66.3730 C   0  0  0  0  0  0  0  0  0  0  0  0
    4.3100   69.9830   67.4200 C   0  0  0  0  0  0  0  0  0  0  0  0
    4.9570   70.5500   68.6060 C   0  0  0  0  0  0  0  0  0  0  0  0
    4.4890   70.6420   69.7170 O   0  0  0  0  0  0  0  0  0  0  0  0
    3.0530   69.4290   67.2640 C   0  0  0  0  0  0  0  0  0  0  0  0
    2.7130   68.9640   65.9900 C   0  0  0  0  0  0  0  0  0  0  0  0
    3.6250   69.0650   64.9190 C   0  0  0  0  0  0  0  0  0  0  0  0
    4.8860   69.6310   65.1160 C   0  0  0  0  0  0  0  0  0  0  0  0
    5.7510   69.7260   64.1010 F   0  0  0  0  0  0  0  0  0  0  0  0
    7.2201   70.8514   66.1691 H   0  0  0  0  0  0  0  0  0  0  0  0
    2.3498   69.3571   68.1068 H   0  0  0  0  0  0  0  0  0  0  0  0
    1.7233   68.5145   65.8212 H   0  0  0  0  0  0  0  0  0  0  0  0
    3.3411   68.6956   63.9225 H   0  0  0  0  0  0  0  0  0  0  0  0
  2  1  2  0
  3  2  1  0
  4  3  1  0
  5  4  2  0
  6  5  1  0
  6  2  1  0
  7  6  2  0
  8  5  1  0
  9  8  2  0
 10  9  1  0
 11 10  2  0
 11  4  1  0
 12 11  1  0
  3 13  1  0
  8 14  1  0
  9 15  1  0
 10 16  1  0
M  END
>  <score>  (1) 
-7.658

$$$$
=
     RDKit          3D

 16 17  0  0  0  0  0  0  0  0999 V2000
    5.6180   69.4250   63.7200 O   0  0  0  0  0  0  0  0  0  0  0  0
    5.2820   69.6200   64.8660 C   0  0  0  0  0  0  0  0  0  0  0  0
    6.0450   70.0920   65.9140 N   0  0  0  0  0  0  0  0  0  0  0  0
    5.2890   70.1770   67.0830 C   0  0  0  0  0  0  0  0  0  0  0  0
    3.9790   69.7650   66.8770 C   0  0  0  0  0  0  0  0  0  0  0  0
    3.8660   69.3820   65.4680 C   0  0  0  0  0  0  0  0  0  0  0  0
    2.8810   68.9690   64.9010 O   0  0  0  0  0  0  0  0  0  0  0  0
    3.0320   69.7580   67.8850 C   0  0  0  0  0  0  0  0  0  0  0  0
    3.4430   70.1880   69.1500 C   0  0  0  0  0  0  0  0  0  0  0  0
    4.7710   70.6080   69.3720 C   0  0  0  0  0  0  0  0  0  0  0  0
    5.6980   70.6020   68.3280 C   0  0  0  0  0  0  0  0  0  0  0  0
    6.9570   71.0000   68.5390 F   0  0  0  0  0  0  0  0  0  0  0  0
    7.0402   70.3475   65.8427 H   0  0  0  0  0  0  0  0  0  0  0  0
    1.9992   69.4281   67.6991 H   0  0  0  0  0  0  0  0  0  0  0  0
    2.7228   70.1989   69.9814 H   0  0  0  0  0  0  0  0  0  0  0  0
    5.0783   70.9424   70.3739 H   0  0  0  0  0  0  0  0  0  0  0  0
  2  1  2  0
  3  2  1  0
  4  3  1  0
  5  4  2  0
  6  5  1  0
  6  2  1  0
  7  6  2  0
  8  5  1  0
  9  8  2  0
 10  9  1  0
 11 10  2  0
 11  4  1  0
 12 11  1  0
  3 13  1  0
  8 14  1  0
  9 15  1  0
 10 16  1  0
M  END
>  <score>  (2) 
-7.62

$$$$
=
     RDKit          3D

 16 17  0  0  0  0  0  0  0  0999 V2000
    2.3950   68.6800   64.5810 O   0  0  0  0  0  0  0  0  0  0  0  0
    3.1800   69.1130   65.3940 C   0  0  0  0  0  0  0  0  0  0  0  0
    2.9490   69.4480   66.7130 N   0  0  0  0  0  0  0  0  0  0  0  0
    4.1140   69.9130   67.3200 C   0  0  0  0  0  0  0  0  0  0  0  0
    5.1870   69.9150   66.4370 C   0  0  0  0  0  0  0  0  0  0  0  0
    4.6880   69.4120   65.1560 C   0  0  0  0  0  0  0  0  0  0  0  0
    5.3200   69.2640   64.1350 O   0  0  0  0  0  0  0  0  0  0  0  0
    6.4540   70.3320   66.8040 C   0  0  0  0  0  0  0  0  0  0  0  0
    6.6270   70.7660   68.1220 C   0  0  0  0  0  0  0  0  0  0  0  0
    5.5460   70.7700   69.0270 C   0  0  0  0  0  0  0  0  0  0  0  0
    4.2820   70.3400   68.6200 C   0  0  0  0  0  0  0  0  0  0  0  0
    3.2570   70.3440   69.4790 F   0  0  0  0  0  0  0  0  0  0  0  0
    2.0375   69.3653   67.1854 H   0  0  0  0  0  0  0  0  0  0  0  0
    7.2900   70.3226   66.0892 H   0  0  0  0  0  0  0  0  0  0  0  0
    7.6175   71.1081   68.4564 H   0  0  0  0  0  0  0  0  0  0  0  0
    5.6997   71.1142   70.0604 H   0  0  0  0  0  0  0  0  0  0  0  0
  2  1  2  0
  3  2  1  0
  4  3  1  0
  5  4  2  0
  6  5  1  0
  6  2  1  0
  7  6  2  0
  8  5  1  0
  9  8  2  0
 10  9  1  0
 11 10  2  0
 11  4  1  0
 12 11  1  0
  3 13  1  0
  8 14  1  0
  9 15  1  0
 10 16  1  0
M  END
>  <score>  (3) 
-7.502

$$$$
=
     RDKit          3D

 16 17  0  0  0  0  0  0  0  0999 V2000
   -0.0340   68.7640   67.4650 O   0  0  0  0  0  0  0  0  0  0  0  0
    1.1330   69.0850   67.4350 C   0  0  0  0  0  0  0  0  0  0  0  0
    1.8730   69.7110   68.4160 N   0  0  0  0  0  0  0  0  0  0  0  0
    3.1890   69.9090   67.9980 C   0  0  0  0  0  0  0  0  0  0  0  0
    3.3960   69.4250   66.7120 C   0  0  0  0  0  0  0  0  0  0  0  0
    2.1220   68.8670   66.2530 C   0  0  0  0  0  0  0  0  0  0  0  0
    1.8960   68.3500   65.1840 O   0  0  0  0  0  0  0  0  0  0  0  0
    4.6210   69.5040   66.0740 C   0  0  0  0  0  0  0  0  0  0  0  0
    5.6700   70.1020   66.7780 C   0  0  0  0  0  0  0  0  0  0  0  0
    5.4720   70.5980   68.0830 C   0  0  0  0  0  0  0  0  0  0  0  0
    4.2210   70.4990   68.6940 C   0  0  0  0  0  0  0  0  0  0  0  0
    4.0330   70.9700   69.9320 F   0  0  0  0  0  0  0  0  0  0  0  0
    1.5033   69.9945   69.3346 H   0  0  0  0  0  0  0  0  0  0  0  0
    4.7634   69.1128   65.0558 H   0  0  0  0  0  0  0  0  0  0  0  0
    6.6612   70.1866   66.3087 H   0  0  0  0  0  0  0  0  0  0  0  0
    6.3085   71.0658   68.6228 H   0  0  0  0  0  0  0  0  0  0  0  0
  2  1  2  0
  3  2  1  0
  4  3  1  0
  5  4  2  0
  6  5  1  0
  6  2  1  0
  7  6  2  0
  8  5  1  0
  9  8  2  0
 10  9  1  0
 11 10  2  0
 11  4  1  0
 12 11  1  0
  3 13  1  0
  8 14  1  0
  9 15  1  0
 10 16  1  0
M  END
>  <score>  (4) 
-7.497

$$$$
=
     RDKit          3D

 16 17  0  0  0  0  0  0  0  0999 V2000
    3.7240   70.8210   70.0620 O   0  0  0  0  0  0  0  0  0  0  0  0
    3.8840   70.4490   68.9210 C   0  0  0  0  0  0  0  0  0  0  0  0
    2.9550   69.8990   68.0620 N   0  0  0  0  0  0  0  0  0  0  0  0
    3.5330   69.6000   66.8290 C   0  0  0  0  0  0  0  0  0  0  0  0
    4.8810   69.9350   66.7990 C   0  0  0  0  0  0  0  0  0  0  0  0
    5.2120   70.4960   68.1100 C   0  0  0  0  0  0  0  0  0  0  0  0
    6.2890   70.9060   68.4770 O   0  0  0  0  0  0  0  0  0  0  0  0
    5.6740   69.7350   65.6840 C   0  0  0  0  0  0  0  0  0  0  0  0
    5.0650   69.1710   64.5590 C   0  0  0  0  0  0  0  0  0  0  0  0
    3.6980   68.8250   64.5780 C   0  0  0  0  0  0  0  0  0  0  0  0
    2.9290   69.0430   65.7220 C   0  0  0  0  0  0  0  0  0  0  0  0
    1.6320   68.7150   65.7390 F   0  0  0  0  0  0  0  0  0  0  0  0
    1.9669   69.7317   68.2997 H   0  0  0  0  0  0  0  0  0  0  0  0
    6.7395   70.0082   65.6822 H   0  0  0  0  0  0  0  0  0  0  0  0
    5.6583   68.9953   63.6495 H   0  0  0  0  0  0  0  0  0  0  0  0
    3.2347   68.3802   63.6850 H   0  0  0  0  0  0  0  0  0  0  0  0
  2  1  2  0
  3  2  1  0
  4  3  1  0
  5  4  2  0
  6  5  1  0
  6  2  1  0
  7  6  2  0
  8  5  1  0
  9  8  2  0
 10  9  1  0
 11 10  2  0
 11  4  1  0
 12 11  1  0
  3 13  1  0
  8 14  1  0
  9 15  1  0
 10 16  1  0
M  END
>  <score>  (5) 
-7.441

$$$$
=
     RDKit          3D

 16 17  0  0  0  0  0  0  0  0999 V2000
    2.9300   68.2830   62.1010 O   0  0  0  0  0  0  0  0  0  0  0  0
    3.2690   68.6400   63.2070 C   0  0  0  0  0  0  0  0  0  0  0  0
    2.5140   68.6870   64.3610 N   0  0  0  0  0  0  0  0  0  0  0  0
    3.2710   69.1590   65.4330 C   0  0  0  0  0  0  0  0  0  0  0  0
    4.5740   69.4540   65.0510 C   0  0  0  0  0  0  0  0  0  0  0  0
    4.6800   69.1510   63.6220 C   0  0  0  0  0  0  0  0  0  0  0  0
    5.6570   69.2750   62.9210 O   0  0  0  0  0  0  0  0  0  0  0  0
    5.5190   69.9370   65.9370 C   0  0  0  0  0  0  0  0  0  0  0  0
    5.1160   70.1270   67.2610 C   0  0  0  0  0  0  0  0  0  0  0  0
    3.7960   69.8340   67.6610 C   0  0  0  0  0  0  0  0  0  0  0  0
    2.8700   69.3460   66.7380 C   0  0  0  0  0  0  0  0  0  0  0  0
    1.6170   69.0670   67.1170 F   0  0  0  0  0  0  0  0  0  0  0  0
    1.5237   68.4105   64.4225 H   0  0  0  0  0  0  0  0  0  0  0  0
    6.5457   70.1624   65.6128 H   0  0  0  0  0  0  0  0  0  0  0  0
    5.8361   70.5093   67.9994 H   0  0  0  0  0  0  0  0  0  0  0  0
    3.4943   69.9911   68.7071 H   0  0  0  0  0  0  0  0  0  0  0  0
  2  1  2  0
  3  2  1  0
  4  3  1  0
  5  4  2  0
  6  5  1  0
  6  2  1  0
  7  6  2  0
  8  5  1  0
  9  8  2  0
 10  9  1  0
 11 10  2  0
 11  4  1  0
 12 11  1  0
  3 13  1  0
  8 14  1  0
  9 15  1  0
 10 16  1  0
M  END
>  <score>  (6) 
-7.27

$$$$
=
     RDKit          3D

 16 17  0  0  0  0  0  0  0  0999 V2000
    0.4940   67.9320   63.3690 O   0  0  0  0  0  0  0  0  0  0  0  0
    1.4710   68.3310   63.9620 C   0  0  0  0  0  0  0  0  0  0  0  0
    1.5990   68.6160   65.3060 N   0  0  0  0  0  0  0  0  0  0  0  0
    2.8900   69.0540   65.6020 C   0  0  0  0  0  0  0  0  0  0  0  0
    3.6930   69.0860   64.4690 C   0  0  0  0  0  0  0  0  0  0  0  0
    2.8680   68.6340   63.3460 C   0  0  0  0  0  0  0  0  0  0  0  0
    3.2070   68.5230   62.1910 O   0  0  0  0  0  0  0  0  0  0  0  0
    5.0170   69.4850   64.5040 C   0  0  0  0  0  0  0  0  0  0  0  0
    5.5360   69.8670   65.7440 C   0  0  0  0  0  0  0  0  0  0  0  0
    4.7300   69.8410   66.9020 C   0  0  0  0  0  0  0  0  0  0  0  0
    3.3980   69.4300   66.8260 C   0  0  0  0  0  0  0  0  0  0  0  0
    2.6340   69.4050   67.9240 F   0  0  0  0  0  0  0  0  0  0  0  0
    0.8425   68.5184   65.9982 H   0  0  0  0  0  0  0  0  0  0  0  0
    5.6352   69.5009   63.5943 H   0  0  0  0  0  0  0  0  0  0  0  0
    6.5844   70.1915   65.8182 H   0  0  0  0  0  0  0  0  0  0  0  0
    5.1537   70.1463   67.8701 H   0  0  0  0  0  0  0  0  0  0  0  0
  2  1  2  0
  3  2  1  0
  4  3  1  0
  5  4  2  0
  6  5  1  0
  6  2  1  0
  7  6  2  0
  8  5  1  0
  9  8  2  0
 10  9  1  0
 11 10  2  0
 11  4  1  0
 12 11  1  0
  3 13  1  0
  8 14  1  0
  9 15  1  0
 10 16  1  0
M  END
>  <score>  (7) 
-7.198

$$$$
=
     RDKit          3D

 16 17  0  0  0  0  0  0  0  0999 V2000
    5.9780   70.1640   67.2610 O   0  0  0  0  0  0  0  0  0  0  0  0
    5.3190   69.8360   66.3000 C   0  0  0  0  0  0  0  0  0  0  0  0
    5.7220   69.7150   64.9870 N   0  0  0  0  0  0  0  0  0  0  0  0
    4.6630   69.3110   64.1750 C   0  0  0  0  0  0  0  0  0  0  0  0
    3.4930   69.1410   64.9050 C   0  0  0  0  0  0  0  0  0  0  0  0
    3.8100   69.4560   66.3000 C   0  0  0  0  0  0  0  0  0  0  0  0
    3.0540   69.4260   67.2440 O   0  0  0  0  0  0  0  0  0  0  0  0
    2.3030   68.7430   64.3250 C   0  0  0  0  0  0  0  0  0  0  0  0
    2.3100   68.5120   62.9460 C   0  0  0  0  0  0  0  0  0  0  0  0
    3.4910   68.6820   62.1930 C   0  0  0  0  0  0  0  0  0  0  0  0
    4.6730   69.0850   62.8160 C   0  0  0  0  0  0  0  0  0  0  0  0
    5.7930   69.2460   62.1020 F   0  0  0  0  0  0  0  0  0  0  0  0
    6.6781   69.8986   64.6507 H   0  0  0  0  0  0  0  0  0  0  0  0
    1.3890   68.6135   64.9232 H   0  0  0  0  0  0  0  0  0  0  0  0
    1.3849   68.1943   62.4428 H   0  0  0  0  0  0  0  0  0  0  0  0
    3.4800   68.4959   61.1089 H   0  0  0  0  0  0  0  0  0  0  0  0
  2  1  2  0
  3  2  1  0
  4  3  1  0
  5  4  2  0
  6  5  1  0
  6  2  1  0
  7  6  2  0
  8  5  1  0
  9  8  2  0
 10  9  1  0
 11 10  2  0
 11  4  1  0
 12 11  1  0
  3 13  1  0
  8 14  1  0
  9 15  1  0
 10 16  1  0
M  END
>  <score>  (8) 
-7.193

$$$$
=
     RDKit          3D

 16 17  0  0  0  0  0  0  0  0999 V2000
    0.4380   67.9920   63.3950 O   0  0  0  0  0  0  0  0  0  0  0  0
    1.3980   68.3800   64.0220 C   0  0  0  0  0  0  0  0  0  0  0  0
    2.6590   68.6860   63.5540 N   0  0  0  0  0  0  0  0  0  0  0  0
    3.4900   69.1010   64.5940 C   0  0  0  0  0  0  0  0  0  0  0  0
    2.8260   69.0930   65.8150 C   0  0  0  0  0  0  0  0  0  0  0  0
    1.4580   68.6410   65.5550 C   0  0  0  0  0  0  0  0  0  0  0  0
    0.5700   68.5020   66.3650 O   0  0  0  0  0  0  0  0  0  0  0  0
    3.4370   69.4650   66.9980 C   0  0  0  0  0  0  0  0  0  0  0  0
    4.7770   69.8580   66.9300 C   0  0  0  0  0  0  0  0  0  0  0  0
    5.4630   69.8680   65.6970 C   0  0  0  0  0  0  0  0  0  0  0  0
    4.8110   69.4860   64.5240 C   0  0  0  0  0  0  0  0  0  0  0  0
    5.4610   69.4970   63.3540 F   0  0  0  0  0  0  0  0  0  0  0  0
    2.9482   68.6171   62.5678 H   0  0  0  0  0  0  0  0  0  0  0  0
    2.8915   69.4523   67.9531 H   0  0  0  0  0  0  0  0  0  0  0  0
    5.3020   70.1626   67.8474 H   0  0  0  0  0  0  0  0  0  0  0  0
    6.5176   70.1786   65.6603 H   0  0  0  0  0  0  0  0  0  0  0  0
  2  1  2  0
  3  2  1  0
  4  3  1  0
  5  4  2  0
  6  5  1  0
  6  2  1  0
  7  6  2  0
  8  5  1  0
  9  8  2  0
 10  9  1  0
 11 10  2  0
 11  4  1  0
 12 11  1  0
  3 13  1  0
  8 14  1  0
  9 15  1  0
 10 16  1  0
M  END
>  <score>  (9) 
-7.142

$$$$
