=
     RDKit          3D

 53 55  0  0  0  0  0  0  0  0999 V2000
    0.0060   66.2800   69.7670 C   0  0  0  0  0  0  0  0  0  0  0  0
    1.3140   67.0860   69.6850 C   0  0  0  0  0  0  0  0  0  0  0  0
    1.8490   67.1170   68.2640 C   0  0  0  0  0  0  0  0  0  0  0  0
    0.8700   67.8020   67.3340 N   0  0  0  0  0  4  0  0  0  0  0  0
   -0.5690   67.7680   67.8030 C   0  0  0  0  0  0  0  0  0  0  0  0
   -0.8400   66.4440   68.4880 C   0  0  0  0  0  0  0  0  0  0  0  0
    0.2680   64.3980   71.3590 C   0  0  0  0  0  0  0  0  0  0  0  0
   -0.1290   65.0660   72.3050 O   0  0  0  0  0  0  0  0  0  0  0  0
    0.2920   64.8730   70.0530 N   0  0  0  0  0  0  0  0  0  0  0  0
    1.7360   60.4000   72.0310 C   0  0  0  0  0  0  0  0  0  0  0  0
    0.4880   60.8140   72.5220 C   0  0  0  0  0  0  0  0  0  0  0  0
    0.0180   62.1110   72.2910 C   0  0  0  0  0  0  0  0  0  0  0  0
    0.7930   63.0220   71.5740 C   0  0  0  0  0  0  0  0  0  0  0  0
    2.0260   62.6120   71.0590 C   0  0  0  0  0  0  0  0  0  0  0  0
    2.5000   61.3080   71.2730 C   0  0  0  0  0  0  0  0  0  0  0  0
    2.9390   58.9290   73.4930 C   0  0  0  0  0  0  0  0  0  0  0  0
    2.2580   59.1580   72.2660 O   0  0  0  0  0  0  0  0  0  0  0  0
    3.7290   61.1100   70.6960 O   0  0  0  0  0  0  0  0  0  0  0  0
    4.8860   61.4070   71.4660 C   0  0  0  0  0  0  0  0  0  0  0  0
    1.3210   69.1570   66.8000 C   0  0  0  0  0  0  0  0  0  0  0  0
    2.7890   69.3530   66.5470 C   0  0  0  0  0  0  0  0  0  0  0  0
    3.3160   69.0420   65.2880 C   0  0  0  0  0  0  0  0  0  0  0  0
    2.5040   68.5690   64.3340 F   0  0  0  0  0  0  0  0  0  0  0  0
    4.6640   69.2080   64.9840 C   0  0  0  0  0  0  0  0  0  0  0  0
    5.5300   69.7080   65.9500 C   0  0  0  0  0  0  0  0  0  0  0  0
    5.0350   70.0420   67.2090 C   0  0  0  0  0  0  0  0  0  0  0  0
    3.6760   69.8710   67.5040 C   0  0  0  0  0  0  0  0  0  0  0  0
    3.1470   70.3230   69.0850 Cl  0  0  0  0  0  0  0  0  0  0  0  0
   -0.5945   66.6798   70.5974 H   0  0  0  0  0  0  0  0  0  0  0  0
    1.1226   68.1163   70.0194 H   0  0  0  0  0  0  0  0  0  0  0  0
    2.0630   66.6030   70.3298 H   0  0  0  0  0  0  0  0  0  0  0  0
    2.8028   67.6647   68.2500 H   0  0  0  0  0  0  0  0  0  0  0  0
    1.9956   66.0823   67.9205 H   0  0  0  0  0  0  0  0  0  0  0  0
    0.8819   67.1995   66.4987 H   0  0  0  0  0  0  0  0  0  0  0  0
   -0.7444   68.5911   68.5113 H   0  0  0  0  0  0  0  0  0  0  0  0
   -1.2412   67.8812   66.9397 H   0  0  0  0  0  0  0  0  0  0  0  0
   -1.9055   66.3930   68.7564 H   0  0  0  0  0  0  0  0  0  0  0  0
   -0.5697   65.6361   67.7921 H   0  0  0  0  0  0  0  0  0  0  0  0
    0.5129   64.2295   69.2797 H   0  0  0  0  0  0  0  0  0  0  0  0
   -0.1295   60.1082   73.0969 H   0  0  0  0  0  0  0  0  0  0  0  0
   -0.9668   62.4136   72.6764 H   0  0  0  0  0  0  0  0  0  0  0  0
    2.6336   63.3212   70.4777 H   0  0  0  0  0  0  0  0  0  0  0  0
    2.2663   59.1552   74.3335 H   0  0  0  0  0  0  0  0  0  0  0  0
    3.2525   57.8760   73.5474 H   0  0  0  0  0  0  0  0  0  0  0  0
    3.8250   59.5786   73.5474 H   0  0  0  0  0  0  0  0  0  0  0  0
    4.6403   61.3439   72.5363 H   0  0  0  0  0  0  0  0  0  0  0  0
    5.6799   60.6835   71.2288 H   0  0  0  0  0  0  0  0  0  0  0  0
    5.2333   62.4234   71.2288 H   0  0  0  0  0  0  0  0  0  0  0  0
    0.7978   69.3256   65.8472 H   0  0  0  0  0  0  0  0  0  0  0  0
    1.0795   69.8678   67.6040 H   0  0  0  0  0  0  0  0  0  0  0  0
    5.0421   68.9451   63.9851 H   0  0  0  0  0  0  0  0  0  0  0  0
    6.5981   69.8390   65.7220 H   0  0  0  0  0  0  0  0  0  0  0  0
    5.7149   70.4421   67.9755 H   0  0  0  0  0  0  0  0  0  0  0  0
  2  1  1  0
  3  2  1  0
  4  3  1  0
  5  4  1  0
  6  5  1  0
  6  1  1  0
  8  7  2  0
  9  7  1  0
  9  1  1  0
 11 10  2  0
 12 11  1  0
 13 12  2  0
 13  7  1  0
 14 13  1  0
 15 14  2  0
 15 10  1  0
 17 16  1  0
 17 10  1  0
 18 15  1  0
 19 18  1  0
 20  4  1  0
 21 20  1  0
 22 21  2  0
 23 22  1  0
 24 22  1  0
 25 24  2  0
 26 25  1  0
 27 26  2  0
 27 21  1  0
 28 27  1  0
  1 29  1  0
  2 30  1  0
  2 31  1  0
  3 32  1  0
  3 33  1  0
  4 34  1  0
  5 35  1  0
  5 36  1  0
  6 37  1  0
  6 38  1  0
  9 39  1  0
 11 40  1  0
 12 41  1  0
 14 42  1  0
 16 43  1  0
 16 44  1  0
 16 45  1  0
 19 46  1  0
 19 47  1  0
 19 48  1  0
 20 49  1  0
 20 50  1  0
 24 51  1  0
 25 52  1  0
 26 53  1  0
M  CHG  1   4   1
M  END
>  <score>  (1) 
-9.954

$$$$
=
     RDKit          3D

 53 55  0  0  0  0  0  0  0  0999 V2000
   -0.0300   66.3030   69.7040 C   0  0  0  0  0  0  0  0  0  0  0  0
    1.2860   67.0820   69.5400 C   0  0  0  0  0  0  0  0  0  0  0  0
    1.7600   67.0580   68.0980 C   0  0  0  0  0  0  0  0  0  0  0  0
    0.7530   67.7280   67.1870 N   0  0  0  0  0  4  0  0  0  0  0  0
   -0.6640   67.7350   67.7170 C   0  0  0  0  0  0  0  0  0  0  0  0
   -0.9270   66.4390   68.4570 C   0  0  0  0  0  0  0  0  0  0  0  0
    0.2900   64.4740   71.3460 C   0  0  0  0  0  0  0  0  0  0  0  0
   -0.0370   65.1840   72.2880 O   0  0  0  0  0  0  0  0  0  0  0  0
    0.2460   64.9010   70.0250 N   0  0  0  0  0  0  0  0  0  0  0  0
    1.7170   60.4710   72.0770 C   0  0  0  0  0  0  0  0  0  0  0  0
    0.4950   60.9200   72.6020 C   0  0  0  0  0  0  0  0  0  0  0  0
    0.0380   62.2180   72.3510 C   0  0  0  0  0  0  0  0  0  0  0  0
    0.8000   63.0950   71.5810 C   0  0  0  0  0  0  0  0  0  0  0  0
    2.0060   62.6500   71.0340 C   0  0  0  0  0  0  0  0  0  0  0  0
    2.4660   61.3440   71.2670 C   0  0  0  0  0  0  0  0  0  0  0  0
    2.9380   59.0180   73.5420 C   0  0  0  0  0  0  0  0  0  0  0  0
    2.2260   59.2270   72.3290 O   0  0  0  0  0  0  0  0  0  0  0  0
    3.6700   61.1090   70.6510 O   0  0  0  0  0  0  0  0  0  0  0  0
    4.7900   61.8870   71.0510 C   0  0  0  0  0  0  0  0  0  0  0  0
    1.2020   69.0570   66.5890 C   0  0  0  0  0  0  0  0  0  0  0  0
    2.6760   69.3510   66.5730 C   0  0  0  0  0  0  0  0  0  0  0  0
    3.2880   69.8600   67.7240 C   0  0  0  0  0  0  0  0  0  0  0  0
    2.5470   70.0820   68.8190 F   0  0  0  0  0  0  0  0  0  0  0  0
    4.6490   70.1470   67.7800 C   0  0  0  0  0  0  0  0  0  0  0  0
    5.4450   69.9170   66.6640 C   0  0  0  0  0  0  0  0  0  0  0  0
    4.8710   69.3960   65.5050 C   0  0  0  0  0  0  0  0  0  0  0  0
    3.5000   69.1110   65.4610 C   0  0  0  0  0  0  0  0  0  0  0  0
    2.8760   68.4560   63.9900 Cl  0  0  0  0  0  0  0  0  0  0  0  0
   -0.5884   66.7409   70.5445 H   0  0  0  0  0  0  0  0  0  0  0  0
    1.1263   68.1258   69.8482 H   0  0  0  0  0  0  0  0  0  0  0  0
    2.0538   66.6063   70.1678 H   0  0  0  0  0  0  0  0  0  0  0  0
    2.7205   67.5893   68.0257 H   0  0  0  0  0  0  0  0  0  0  0  0
    1.8759   66.0103   67.7835 H   0  0  0  0  0  0  0  0  0  0  0  0
    0.7198   67.0975   66.3732 H   0  0  0  0  0  0  0  0  0  0  0  0
   -0.7954   68.5839   68.4041 H   0  0  0  0  0  0  0  0  0  0  0  0
   -1.3707   67.8318   66.8796 H   0  0  0  0  0  0  0  0  0  0  0  0
   -1.9808   66.4154   68.7715 H   0  0  0  0  0  0  0  0  0  0  0  0
   -0.6998   65.6039   67.7780 H   0  0  0  0  0  0  0  0  0  0  0  0
    0.4089   64.2257   69.2645 H   0  0  0  0  0  0  0  0  0  0  0  0
   -0.1118   60.2415   73.2196 H   0  0  0  0  0  0  0  0  0  0  0  0
   -0.9270   62.5480   72.7631 H   0  0  0  0  0  0  0  0  0  0  0  0
    2.6037   63.3325   70.4119 H   0  0  0  0  0  0  0  0  0  0  0  0
    2.2727   59.2133   74.3960 H   0  0  0  0  0  0  0  0  0  0  0  0
    3.2931   57.9777   73.5842 H   0  0  0  0  0  0  0  0  0  0  0  0
    3.7990   59.7013   73.5842 H   0  0  0  0  0  0  0  0  0  0  0  0
    4.8392   61.9212   72.1494 H   0  0  0  0  0  0  0  0  0  0  0  0
    5.7112   61.4334   70.6566 H   0  0  0  0  0  0  0  0  0  0  0  0
    4.6864   62.9086   70.6566 H   0  0  0  0  0  0  0  0  0  0  0  0
    0.8497   69.0848   65.5473 H   0  0  0  0  0  0  0  0  0  0  0  0
    0.7722   69.8213   67.2532 H   0  0  0  0  0  0  0  0  0  0  0  0
    5.0916   70.5532   68.7015 H   0  0  0  0  0  0  0  0  0  0  0  0
    6.5208   70.1445   66.6949 H   0  0  0  0  0  0  0  0  0  0  0  0
    5.4977   69.2078   64.6208 H   0  0  0  0  0  0  0  0  0  0  0  0
  2  1  1  0
  3  2  1  0
  4  3  1  0
  5  4  1  0
  6  5  1  0
  6  1  1  0
  8  7  2  0
  9  7  1  0
  9  1  1  0
 11 10  2  0
 12 11  1  0
 13 12  2  0
 13  7  1  0
 14 13  1  0
 15 14  2  0
 15 10  1  0
 17 16  1  0
 17 10  1  0
 18 15  1  0
 19 18  1  0
 20  4  1  0
 21 20  1  0
 22 21  2  0
 23 22  1  0
 24 22  1  0
 25 24  2  0
 26 25  1  0
 27 26  2  0
 27 21  1  0
 28 27  1  0
  1 29  1  0
  2 30  1  0
  2 31  1  0
  3 32  1  0
  3 33  1  0
  4 34  1  0
  5 35  1  0
  5 36  1  0
  6 37  1  0
  6 38  1  0
  9 39  1  0
 11 40  1  0
 12 41  1  0
 14 42  1  0
 16 43  1  0
 16 44  1  0
 16 45  1  0
 19 46  1  0
 19 47  1  0
 19 48  1  0
 20 49  1  0
 20 50  1  0
 24 51  1  0
 25 52  1  0
 26 53  1  0
M  CHG  1   4   1
M  END
>  <score>  (2) 
-9.863

$$$$
=
     RDKit          3D

 53 55  0  0  0  0  0  0  0  0999 V2000
   -0.0720   66.2990   69.7580 C   0  0  0  0  0  0  0  0  0  0  0  0
    1.2180   67.1360   69.7710 C   0  0  0  0  0  0  0  0  0  0  0  0
    1.8530   67.1840   68.3930 C   0  0  0  0  0  0  0  0  0  0  0  0
    0.9270   67.8460   67.3940 N   0  0  0  0  0  4  0  0  0  0  0  0
   -0.5400   67.7760   67.7580 C   0  0  0  0  0  0  0  0  0  0  0  0
   -0.8280   66.4440   68.4210 C   0  0  0  0  0  0  0  0  0  0  0  0
    0.2250   64.4440   71.3760 C   0  0  0  0  0  0  0  0  0  0  0  0
   -0.1630   65.1260   72.3170 O   0  0  0  0  0  0  0  0  0  0  0  0
    0.2270   64.8980   70.0630 N   0  0  0  0  0  0  0  0  0  0  0  0
    1.8330   60.4930   71.9960 C   0  0  0  0  0  0  0  0  0  0  0  0
    2.5600   61.4810   71.3130 C   0  0  0  0  0  0  0  0  0  0  0  0
    2.0330   62.7620   71.1260 C   0  0  0  0  0  0  0  0  0  0  0  0
    0.7620   63.0760   71.6060 C   0  0  0  0  0  0  0  0  0  0  0  0
    0.0400   62.1070   72.3090 C   0  0  0  0  0  0  0  0  0  0  0  0
    0.5680   60.8220   72.5150 C   0  0  0  0  0  0  0  0  0  0  0  0
    3.4810   59.0130   72.9150 C   0  0  0  0  0  0  0  0  0  0  0  0
    2.2890   59.2140   72.1680 O   0  0  0  0  0  0  0  0  0  0  0  0
   -0.2980   60.0210   73.2160 O   0  0  0  0  0  0  0  0  0  0  0  0
   -0.7400   60.4680   74.4920 C   0  0  0  0  0  0  0  0  0  0  0  0
    1.3820   69.2130   66.8960 C   0  0  0  0  0  0  0  0  0  0  0  0
    2.8420   69.3930   66.5880 C   0  0  0  0  0  0  0  0  0  0  0  0
    3.3170   69.0860   65.3080 C   0  0  0  0  0  0  0  0  0  0  0  0
    2.4630   68.6310   64.3810 F   0  0  0  0  0  0  0  0  0  0  0  0
    4.6550   69.2370   64.9540 C   0  0  0  0  0  0  0  0  0  0  0  0
    5.5630   69.7180   65.8910 C   0  0  0  0  0  0  0  0  0  0  0  0
    5.1200   70.0470   67.1700 C   0  0  0  0  0  0  0  0  0  0  0  0
    3.7710   69.8920   67.5150 C   0  0  0  0  0  0  0  0  0  0  0  0
    3.3090   70.3370   69.1190 Cl  0  0  0  0  0  0  0  0  0  0  0  0
   -0.7399   66.6834   70.5430 H   0  0  0  0  0  0  0  0  0  0  0  0
    0.9782   68.1605   70.0918 H   0  0  0  0  0  0  0  0  0  0  0  0
    1.9301   66.6691   70.4674 H   0  0  0  0  0  0  0  0  0  0  0  0
    2.7910   67.7558   68.4484 H   0  0  0  0  0  0  0  0  0  0  0  0
    2.0500   66.1541   68.0607 H   0  0  0  0  0  0  0  0  0  0  0  0
    1.0136   67.2458   66.5614 H   0  0  0  0  0  0  0  0  0  0  0  0
   -0.7858   68.5930   68.4524 H   0  0  0  0  0  0  0  0  0  0  0  0
   -1.1507   67.8748   66.8484 H   0  0  0  0  0  0  0  0  0  0  0  0
   -1.9086   66.3666   68.6119 H   0  0  0  0  0  0  0  0  0  0  0  0
   -0.4896   65.6439   67.7462 H   0  0  0  0  0  0  0  0  0  0  0  0
    0.4407   64.2434   69.2970 H   0  0  0  0  0  0  0  0  0  0  0  0
    3.5592   61.2434   70.9192 H   0  0  0  0  0  0  0  0  0  0  0  0
    2.6232   63.5255   70.5981 H   0  0  0  0  0  0  0  0  0  0  0  0
   -0.9554   62.3544   72.7063 H   0  0  0  0  0  0  0  0  0  0  0  0
    3.2510   59.0518   73.9900 H   0  0  0  0  0  0  0  0  0  0  0  0
    3.9080   58.0302   72.6666 H   0  0  0  0  0  0  0  0  0  0  0  0
    4.2067   59.8015   72.6666 H   0  0  0  0  0  0  0  0  0  0  0  0
   -0.1998   59.9217   75.2792 H   0  0  0  0  0  0  0  0  0  0  0  0
   -0.5424   61.5455   74.5918 H   0  0  0  0  0  0  0  0  0  0  0  0
   -1.8196   60.2825   74.5918 H   0  0  0  0  0  0  0  0  0  0  0  0
    0.8224   69.4299   65.9741 H   0  0  0  0  0  0  0  0  0  0  0  0
    1.1890   69.8943   67.7377 H   0  0  0  0  0  0  0  0  0  0  0  0
    4.9918   68.9775   63.9395 H   0  0  0  0  0  0  0  0  0  0  0  0
    6.6234   69.8378   65.6241 H   0  0  0  0  0  0  0  0  0  0  0  0
    5.8338   70.4309   67.9138 H   0  0  0  0  0  0  0  0  0  0  0  0
  2  1  1  0
  3  2  1  0
  4  3  1  0
  5  4  1  0
  6  5  1  0
  6  1  1  0
  8  7  2  0
  9  7  1  0
  9  1  1  0
 11 10  2  0
 12 11  1  0
 13 12  2  0
 13  7  1  0
 14 13  1  0
 15 14  2  0
 15 10  1  0
 17 16  1  0
 17 10  1  0
 18 15  1  0
 19 18  1  0
 20  4  1  0
 21 20  1  0
 22 21  2  0
 23 22  1  0
 24 22  1  0
 25 24  2  0
 26 25  1  0
 27 26  2  0
 27 21  1  0
 28 27  1  0
  1 29  1  0
  2 30  1  0
  2 31  1  0
  3 32  1  0
  3 33  1  0
  4 34  1  0
  5 35  1  0
  5 36  1  0
  6 37  1  0
  6 38  1  0
  9 39  1  0
 11 40  1  0
 12 41  1  0
 14 42  1  0
 16 43  1  0
 16 44  1  0
 16 45  1  0
 19 46  1  0
 19 47  1  0
 19 48  1  0
 20 49  1  0
 20 50  1  0
 24 51  1  0
 25 52  1  0
 26 53  1  0
M  CHG  1   4   1
M  END
>  <score>  (3) 
-9.546

$$$$
=
     RDKit          3D

 53 55  0  0  0  0  0  0  0  0999 V2000
    1.2200   63.1840   70.8570 C   0  0  0  0  0  0  0  0  0  0  0  0
    1.9200   61.9940   70.1810 C   0  0  0  0  0  0  0  0  0  0  0  0
    3.4220   62.0460   70.3990 C   0  0  0  0  0  0  0  0  0  0  0  0
    3.7580   61.9550   71.8730 N   0  0  0  0  0  4  0  0  0  0  0  0
    2.6510   62.4150   72.7970 C   0  0  0  0  0  0  0  0  0  0  0  0
    1.9280   63.5880   72.1670 C   0  0  0  0  0  0  0  0  0  0  0  0
    0.4320   65.4640   70.2850 C   0  0  0  0  0  0  0  0  0  0  0  0
    0.0170   65.6670   71.4190 O   0  0  0  0  0  0  0  0  0  0  0  0
    1.1170   64.3100   69.9260 N   0  0  0  0  0  0  0  0  0  0  0  0
   -0.3490   68.2950   67.1290 C   0  0  0  0  0  0  0  0  0  0  0  0
   -1.3360   67.4000   67.5710 C   0  0  0  0  0  0  0  0  0  0  0  0
   -1.0740   66.4920   68.6020 C   0  0  0  0  0  0  0  0  0  0  0  0
    0.1840   66.4530   69.2010 C   0  0  0  0  0  0  0  0  0  0  0  0
    1.1660   67.3570   68.7850 C   0  0  0  0  0  0  0  0  0  0  0  0
    0.9080   68.2820   67.7620 C   0  0  0  0  0  0  0  0  0  0  0  0
   -0.1940   68.7600   64.7820 C   0  0  0  0  0  0  0  0  0  0  0  0
   -0.5430   69.1720   66.0970 O   0  0  0  0  0  0  0  0  0  0  0  0
    2.0010   69.0690   67.4980 O   0  0  0  0  0  0  0  0  0  0  0  0
    2.6740   69.6700   68.5960 C   0  0  0  0  0  0  0  0  0  0  0  0
    4.4340   60.6590   72.3050 C   0  0  0  0  0  0  0  0  0  0  0  0
    3.5750   59.4320   72.4300 C   0  0  0  0  0  0  0  0  0  0  0  0
    3.3820   58.6120   71.3130 C   0  0  0  0  0  0  0  0  0  0  0  0
    3.9620   58.9380   70.1500 F   0  0  0  0  0  0  0  0  0  0  0  0
    2.6070   57.4570   71.3620 C   0  0  0  0  0  0  0  0  0  0  0  0
    2.0020   57.0860   72.5580 C   0  0  0  0  0  0  0  0  0  0  0  0
    2.1860   57.8730   73.6940 C   0  0  0  0  0  0  0  0  0  0  0  0
    2.9700   59.0330   73.6330 C   0  0  0  0  0  0  0  0  0  0  0  0
    3.1540   59.9400   75.0910 Cl  0  0  0  0  0  0  0  0  0  0  0  0
    0.2006   62.8742   71.1304 H   0  0  0  0  0  0  0  0  0  0  0  0
    1.5277   61.0582   70.6057 H   0  0  0  0  0  0  0  0  0  0  0  0
    1.7225   62.0413   69.0999 H   0  0  0  0  0  0  0  0  0  0  0  0
    3.8920   61.2039   69.8699 H   0  0  0  0  0  0  0  0  0  0  0  0
    3.8004   63.0032   70.0109 H   0  0  0  0  0  0  0  0  0  0  0  0
    4.4986   62.6615   71.9882 H   0  0  0  0  0  0  0  0  0  0  0  0
    1.9415   61.5903   72.9594 H   0  0  0  0  0  0  0  0  0  0  0  0
    3.0803   62.7220   73.7621 H   0  0  0  0  0  0  0  0  0  0  0  0
    1.1771   63.9667   72.8761 H   0  0  0  0  0  0  0  0  0  0  0  0
    2.6720   64.3628   71.9302 H   0  0  0  0  0  0  0  0  0  0  0  0
    1.5564   64.2456   68.9967 H   0  0  0  0  0  0  0  0  0  0  0  0
   -2.3298   67.4130   67.0997 H   0  0  0  0  0  0  0  0  0  0  0  0
   -1.8639   65.8059   68.9415 H   0  0  0  0  0  0  0  0  0  0  0  0
    2.1549   67.3429   69.2665 H   0  0  0  0  0  0  0  0  0  0  0  0
    0.5161   67.9217   64.8367 H   0  0  0  0  0  0  0  0  0  0  0  0
   -1.0993   68.4392   64.2458 H   0  0  0  0  0  0  0  0  0  0  0  0
    0.2713   69.6003   64.2458 H   0  0  0  0  0  0  0  0  0  0  0  0
    2.2500   69.2914   69.5377 H   0  0  0  0  0  0  0  0  0  0  0  0
    3.7447   69.4220   68.5501 H   0  0  0  0  0  0  0  0  0  0  0  0
    2.5482   70.7618   68.5501 H   0  0  0  0  0  0  0  0  0  0  0  0
    5.2197   60.4365   71.5679 H   0  0  0  0  0  0  0  0  0  0  0  0
    4.7875   60.8568   73.3277 H   0  0  0  0  0  0  0  0  0  0  0  0
    2.4738   56.8413   70.4602 H   0  0  0  0  0  0  0  0  0  0  0  0
    1.3828   56.1782   72.6073 H   0  0  0  0  0  0  0  0  0  0  0  0
    1.7131   57.5818   74.6435 H   0  0  0  0  0  0  0  0  0  0  0  0
  2  1  1  0
  3  2  1  0
  4  3  1  0
  5  4  1  0
  6  5  1  0
  6  1  1  0
  8  7  2  0
  9  7  1  0
  9  1  1  0
 11 10  2  0
 12 11  1  0
 13 12  2  0
 13  7  1  0
 14 13  1  0
 15 14  2  0
 15 10  1  0
 17 16  1  0
 17 10  1  0
 18 15  1  0
 19 18  1  0
 20  4  1  0
 21 20  1  0
 22 21  2  0
 23 22  1  0
 24 22  1  0
 25 24  2  0
 26 25  1  0
 27 26  2  0
 27 21  1  0
 28 27  1  0
  1 29  1  0
  2 30  1  0
  2 31  1  0
  3 32  1  0
  3 33  1  0
  4 34  1  0
  5 35  1  0
  5 36  1  0
  6 37  1  0
  6 38  1  0
  9 39  1  0
 11 40  1  0
 12 41  1  0
 14 42  1  0
 16 43  1  0
 16 44  1  0
 16 45  1  0
 19 46  1  0
 19 47  1  0
 19 48  1  0
 20 49  1  0
 20 50  1  0
 24 51  1  0
 25 52  1  0
 26 53  1  0
M  CHG  1   4   1
M  END
>  <score>  (4) 
-8.429

$$$$
=
     RDKit          3D

 53 55  0  0  0  0  0  0  0  0999 V2000
    1.5450   65.4350   70.3040 C   0  0  0  0  0  0  0  0  0  0  0  0
    0.2460   64.8460   70.8790 C   0  0  0  0  0  0  0  0  0  0  0  0
    0.1250   63.3670   70.5560 C   0  0  0  0  0  0  0  0  0  0  0  0
    1.2590   62.5830   71.1820 N   0  0  0  0  0  4  0  0  0  0  0  0
    2.5090   63.3950   71.4490 C   0  0  0  0  0  0  0  0  0  0  0  0
    2.6950   64.4070   70.3370 C   0  0  0  0  0  0  0  0  0  0  0  0
    1.4210   67.3090   68.6860 C   0  0  0  0  0  0  0  0  0  0  0  0
    1.8470   68.1170   69.5020 O   0  0  0  0  0  0  0  0  0  0  0  0
    1.3160   65.9490   68.9520 N   0  0  0  0  0  0  0  0  0  0  0  0
    0.1230   68.6260   64.7920 C   0  0  0  0  0  0  0  0  0  0  0  0
    1.4450   68.2170   65.0230 C   0  0  0  0  0  0  0  0  0  0  0  0
    1.8540   67.7830   66.2890 C   0  0  0  0  0  0  0  0  0  0  0  0
    0.9490   67.7630   67.3500 C   0  0  0  0  0  0  0  0  0  0  0  0
   -0.3760   68.1440   67.1240 C   0  0  0  0  0  0  0  0  0  0  0  0
   -0.7990   68.5660   65.8540 C   0  0  0  0  0  0  0  0  0  0  0  0
    0.6390   69.2930   62.5470 C   0  0  0  0  0  0  0  0  0  0  0  0
   -0.3140   69.0970   63.5840 O   0  0  0  0  0  0  0  0  0  0  0  0
   -2.1290   68.9050   65.8450 O   0  0  0  0  0  0  0  0  0  0  0  0
   -3.0170   68.1540   66.6630 C   0  0  0  0  0  0  0  0  0  0  0  0
    0.8570   61.6620   72.3280 C   0  0  0  0  0  0  0  0  0  0  0  0
    1.9270   60.8040   72.9420 C   0  0  0  0  0  0  0  0  0  0  0  0
    2.7010   59.9780   72.1190 C   0  0  0  0  0  0  0  0  0  0  0  0
    2.4710   59.9630   70.8000 F   0  0  0  0  0  0  0  0  0  0  0  0
    3.7140   59.1650   72.6210 C   0  0  0  0  0  0  0  0  0  0  0  0
    3.9840   59.1680   73.9850 C   0  0  0  0  0  0  0  0  0  0  0  0
    3.2410   59.9900   74.8310 C   0  0  0  0  0  0  0  0  0  0  0  0
    2.2250   60.8050   74.3140 C   0  0  0  0  0  0  0  0  0  0  0  0
    1.3640   61.8000   75.4330 Cl  0  0  0  0  0  0  0  0  0  0  0  0
    1.8534   66.2773   70.9408 H   0  0  0  0  0  0  0  0  0  0  0  0
    0.2454   64.9762   71.9713 H   0  0  0  0  0  0  0  0  0  0  0  0
   -0.6066   65.3730   70.4258 H   0  0  0  0  0  0  0  0  0  0  0  0
   -0.8319   62.9902   70.9463 H   0  0  0  0  0  0  0  0  0  0  0  0
    0.1709   63.2407   69.4642 H   0  0  0  0  0  0  0  0  0  0  0  0
    1.5311   61.9294   70.4339 H   0  0  0  0  0  0  0  0  0  0  0  0
    2.4080   63.9198   72.4105 H   0  0  0  0  0  0  0  0  0  0  0  0
    3.3815   62.7264   71.4888 H   0  0  0  0  0  0  0  0  0  0  0  0
    3.6447   64.9392   70.4943 H   0  0  0  0  0  0  0  0  0  0  0  0
    2.7003   63.8670   69.3787 H   0  0  0  0  0  0  0  0  0  0  0  0
    1.0751   65.2971   68.1918 H   0  0  0  0  0  0  0  0  0  0  0  0
    2.1708   68.2378   64.1967 H   0  0  0  0  0  0  0  0  0  0  0  0
    2.8924   67.4566   66.4478 H   0  0  0  0  0  0  0  0  0  0  0  0
   -1.0980   68.1128   67.9533 H   0  0  0  0  0  0  0  0  0  0  0  0
    1.6256   69.4959   62.9892 H   0  0  0  0  0  0  0  0  0  0  0  0
    0.6953   68.3876   61.9248 H   0  0  0  0  0  0  0  0  0  0  0  0
    0.3334   70.1471   61.9248 H   0  0  0  0  0  0  0  0  0  0  0  0
   -2.7904   68.3456   67.7222 H   0  0  0  0  0  0  0  0  0  0  0  0
   -4.0538   68.4535   66.4498 H   0  0  0  0  0  0  0  0  0  0  0  0
   -2.8938   67.0819   66.4498 H   0  0  0  0  0  0  0  0  0  0  0  0
    0.4432   62.2938   73.1277 H   0  0  0  0  0  0  0  0  0  0  0  0
    0.1523   60.9479   71.8770 H   0  0  0  0  0  0  0  0  0  0  0  0
    4.2969   58.5245   71.9428 H   0  0  0  0  0  0  0  0  0  0  0  0
    4.7784   58.5262   74.3937 H   0  0  0  0  0  0  0  0  0  0  0  0
    3.4534   59.9989   75.9103 H   0  0  0  0  0  0  0  0  0  0  0  0
  2  1  1  0
  3  2  1  0
  4  3  1  0
  5  4  1  0
  6  5  1  0
  6  1  1  0
  8  7  2  0
  9  7  1  0
  9  1  1  0
 11 10  2  0
 12 11  1  0
 13 12  2  0
 13  7  1  0
 14 13  1  0
 15 14  2  0
 15 10  1  0
 17 16  1  0
 17 10  1  0
 18 15  1  0
 19 18  1  0
 20  4  1  0
 21 20  1  0
 22 21  2  0
 23 22  1  0
 24 22  1  0
 25 24  2  0
 26 25  1  0
 27 26  2  0
 27 21  1  0
 28 27  1  0
  1 29  1  0
  2 30  1  0
  2 31  1  0
  3 32  1  0
  3 33  1  0
  4 34  1  0
  5 35  1  0
  5 36  1  0
  6 37  1  0
  6 38  1  0
  9 39  1  0
 11 40  1  0
 12 41  1  0
 14 42  1  0
 16 43  1  0
 16 44  1  0
 16 45  1  0
 19 46  1  0
 19 47  1  0
 19 48  1  0
 20 49  1  0
 20 50  1  0
 24 51  1  0
 25 52  1  0
 26 53  1  0
M  CHG  1   4   1
M  END
>  <score>  (5) 
-8.093

$$$$
=
     RDKit          3D

 53 55  0  0  0  0  0  0  0  0999 V2000
    0.0090   65.1890   70.4970 C   0  0  0  0  0  0  0  0  0  0  0  0
    0.0880   63.7750   69.8980 C   0  0  0  0  0  0  0  0  0  0  0  0
    1.2270   62.9820   70.5150 C   0  0  0  0  0  0  0  0  0  0  0  0
    1.0140   62.8010   72.0030 N   0  0  0  0  0  4  0  0  0  0  0  0
    0.1400   63.8570   72.6440 C   0  0  0  0  0  0  0  0  0  0  0  0
    0.4090   65.1950   71.9860 C   0  0  0  0  0  0  0  0  0  0  0  0
    0.2710   66.8060   68.6360 C   0  0  0  0  0  0  0  0  0  0  0  0
   -0.9260   66.7910   68.3780 O   0  0  0  0  0  0  0  0  0  0  0  0
    0.8210   66.1210   69.7120 N   0  0  0  0  0  0  0  0  0  0  0  0
    3.0280   69.0080   66.1590 C   0  0  0  0  0  0  0  0  0  0  0  0
    2.7560   69.4000   67.4790 C   0  0  0  0  0  0  0  0  0  0  0  0
    1.8660   68.6730   68.2770 C   0  0  0  0  0  0  0  0  0  0  0  0
    1.2230   67.5470   67.7650 C   0  0  0  0  0  0  0  0  0  0  0  0
    1.5060   67.1340   66.4600 C   0  0  0  0  0  0  0  0  0  0  0  0
    2.4100   67.8480   65.6570 C   0  0  0  0  0  0  0  0  0  0  0  0
    5.2490   69.7370   65.6210 C   0  0  0  0  0  0  0  0  0  0  0  0
    3.8570   69.7090   65.3270 O   0  0  0  0  0  0  0  0  0  0  0  0
    2.5410   67.2860   64.4120 O   0  0  0  0  0  0  0  0  0  0  0  0
    3.6110   66.3740   64.1990 C   0  0  0  0  0  0  0  0  0  0  0  0
    0.6980   61.3760   72.4440 C   0  0  0  0  0  0  0  0  0  0  0  0
    1.8120   60.5700   73.0500 C   0  0  0  0  0  0  0  0  0  0  0  0
    2.7100   59.9000   72.2110 C   0  0  0  0  0  0  0  0  0  0  0  0
    2.5560   59.9840   70.8820 F   0  0  0  0  0  0  0  0  0  0  0  0
    3.7690   59.1430   72.7050 C   0  0  0  0  0  0  0  0  0  0  0  0
    3.9610   59.0470   74.0790 C   0  0  0  0  0  0  0  0  0  0  0  0
    3.0940   59.7140   74.9420 C   0  0  0  0  0  0  0  0  0  0  0  0
    2.0320   60.4730   74.4340 C   0  0  0  0  0  0  0  0  0  0  0  0
    1.0160   61.2760   75.5760 Cl  0  0  0  0  0  0  0  0  0  0  0  0
   -1.0368   65.5264   70.4485 H   0  0  0  0  0  0  0  0  0  0  0  0
   -0.8598   63.2504   70.0893 H   0  0  0  0  0  0  0  0  0  0  0  0
    0.2698   63.8635   68.8167 H   0  0  0  0  0  0  0  0  0  0  0  0
    1.2789   61.9934   70.0355 H   0  0  0  0  0  0  0  0  0  0  0  0
    2.1654   63.5341   70.3584 H   0  0  0  0  0  0  0  0  0  0  0  0
    1.9508   62.9714   72.3957 H   0  0  0  0  0  0  0  0  0  0  0  0
   -0.9184   63.5883   72.5115 H   0  0  0  0  0  0  0  0  0  0  0  0
    0.3674   63.9218   73.7183 H   0  0  0  0  0  0  0  0  0  0  0  0
   -0.1699   65.9715   72.5075 H   0  0  0  0  0  0  0  0  0  0  0  0
    1.4882   65.3979   72.0503 H   0  0  0  0  0  0  0  0  0  0  0  0
    1.8095   66.2701   69.9601 H   0  0  0  0  0  0  0  0  0  0  0  0
    3.2498   70.2919   67.8921 H   0  0  0  0  0  0  0  0  0  0  0  0
    1.6729   68.9910   69.3122 H   0  0  0  0  0  0  0  0  0  0  0  0
    1.0136   66.2370   66.0563 H   0  0  0  0  0  0  0  0  0  0  0  0
    5.3935   69.7399   66.7115 H   0  0  0  0  0  0  0  0  0  0  0  0
    5.7329   68.8484   65.1894 H   0  0  0  0  0  0  0  0  0  0  0  0
    5.6967   70.6443   65.1894 H   0  0  0  0  0  0  0  0  0  0  0  0
    4.0051   66.0381   65.1695 H   0  0  0  0  0  0  0  0  0  0  0  0
    3.2452   65.5057   63.6314 H   0  0  0  0  0  0  0  0  0  0  0  0
    4.4104   66.8728   63.6314 H   0  0  0  0  0  0  0  0  0  0  0  0
   -0.1089   61.4339   73.1893 H   0  0  0  0  0  0  0  0  0  0  0  0
    0.4453   60.8462   71.5137 H   0  0  0  0  0  0  0  0  0  0  0  0
    4.4491   58.6244   72.0132 H   0  0  0  0  0  0  0  0  0  0  0  0
    4.7916   58.4487   74.4817 H   0  0  0  0  0  0  0  0  0  0  0  0
    3.2445   59.6441   76.0294 H   0  0  0  0  0  0  0  0  0  0  0  0
  2  1  1  0
  3  2  1  0
  4  3  1  0
  5  4  1  0
  6  5  1  0
  6  1  1  0
  8  7  2  0
  9  7  1  0
  9  1  1  0
 11 10  2  0
 12 11  1  0
 13 12  2  0
 13  7  1  0
 14 13  1  0
 15 14  2  0
 15 10  1  0
 17 16  1  0
 17 10  1  0
 18 15  1  0
 19 18  1  0
 20  4  1  0
 21 20  1  0
 22 21  2  0
 23 22  1  0
 24 22  1  0
 25 24  2  0
 26 25  1  0
 27 26  2  0
 27 21  1  0
 28 27  1  0
  1 29  1  0
  2 30  1  0
  2 31  1  0
  3 32  1  0
  3 33  1  0
  4 34  1  0
  5 35  1  0
  5 36  1  0
  6 37  1  0
  6 38  1  0
  9 39  1  0
 11 40  1  0
 12 41  1  0
 14 42  1  0
 16 43  1  0
 16 44  1  0
 16 45  1  0
 19 46  1  0
 19 47  1  0
 19 48  1  0
 20 49  1  0
 20 50  1  0
 24 51  1  0
 25 52  1  0
 26 53  1  0
M  CHG  1   4   1
M  END
>  <score>  (6) 
-7.892

$$$$
=
     RDKit          3D

 53 55  0  0  0  0  0  0  0  0999 V2000
   -0.6190   61.7470   74.4660 C   0  0  0  0  0  0  0  0  0  0  0  0
   -0.0700   61.0160   73.2290 C   0  0  0  0  0  0  0  0  0  0  0  0
    0.3460   62.0000   72.1510 C   0  0  0  0  0  0  0  0  0  0  0  0
    1.4610   62.8990   72.6420 N   0  0  0  0  0  4  0  0  0  0  0  0
    1.5180   63.0630   74.1450 C   0  0  0  0  0  0  0  0  0  0  0  0
    0.1080   63.0870   74.6990 C   0  0  0  0  0  0  0  0  0  0  0  0
   -2.9110   61.5740   75.3940 C   0  0  0  0  0  0  0  0  0  0  0  0
   -2.5010   61.2420   76.4990 O   0  0  0  0  0  0  0  0  0  0  0  0
   -2.0670   61.9290   74.3490 N   0  0  0  0  0  0  0  0  0  0  0  0
   -7.1280   61.5300   74.4970 C   0  0  0  0  0  0  0  0  0  0  0  0
   -6.2830   60.4810   74.1000 C   0  0  0  0  0  0  0  0  0  0  0  0
   -4.9180   60.5020   74.4040 C   0  0  0  0  0  0  0  0  0  0  0  0
   -4.3700   61.5780   75.1000 C   0  0  0  0  0  0  0  0  0  0  0  0
   -5.2070   62.6150   75.5210 C   0  0  0  0  0  0  0  0  0  0  0  0
   -6.5810   62.5960   75.2340 C   0  0  0  0  0  0  0  0  0  0  0  0
   -8.8550   62.2250   72.9850 C   0  0  0  0  0  0  0  0  0  0  0  0
   -8.4590   61.5750   74.1870 O   0  0  0  0  0  0  0  0  0  0  0  0
   -7.2200   63.7060   75.7250 O   0  0  0  0  0  0  0  0  0  0  0  0
   -6.9960   64.9510   75.0750 C   0  0  0  0  0  0  0  0  0  0  0  0
    2.8180   62.6660   71.9860 C   0  0  0  0  0  0  0  0  0  0  0  0
    3.1300   61.2780   71.5030 C   0  0  0  0  0  0  0  0  0  0  0  0
    3.4550   60.2840   72.4330 C   0  0  0  0  0  0  0  0  0  0  0  0
    3.4890   60.5890   73.7370 F   0  0  0  0  0  0  0  0  0  0  0  0
    3.7470   58.9760   72.0540 C   0  0  0  0  0  0  0  0  0  0  0  0
    3.7080   58.6270   70.7090 C   0  0  0  0  0  0  0  0  0  0  0  0
    3.3730   59.5890   69.7580 C   0  0  0  0  0  0  0  0  0  0  0  0
    3.0810   60.9010   70.1510 C   0  0  0  0  0  0  0  0  0  0  0  0
    2.6630   62.0240   68.9070 Cl  0  0  0  0  0  0  0  0  0  0  0  0
   -0.4251   61.1222   75.3503 H   0  0  0  0  0  0  0  0  0  0  0  0
    0.8038   60.4167   73.5246 H   0  0  0  0  0  0  0  0  0  0  0  0
   -0.8636   60.3705   72.8246 H   0  0  0  0  0  0  0  0  0  0  0  0
    0.6947   61.4423   71.2693 H   0  0  0  0  0  0  0  0  0  0  0  0
   -0.5213   62.6250   71.8917 H   0  0  0  0  0  0  0  0  0  0  0  0
    1.1830   63.8278   72.2942 H   0  0  0  0  0  0  0  0  0  0  0  0
    2.0719   62.2211   74.5859 H   0  0  0  0  0  0  0  0  0  0  0  0
    2.0283   64.0051   74.3942 H   0  0  0  0  0  0  0  0  0  0  0  0
    0.1530   63.2849   75.7801 H   0  0  0  0  0  0  0  0  0  0  0  0
   -0.4523   63.8766   74.1768 H   0  0  0  0  0  0  0  0  0  0  0  0
   -2.4636   62.3238   73.4842 H   0  0  0  0  0  0  0  0  0  0  0  0
   -6.7008   59.6303   73.5417 H   0  0  0  0  0  0  0  0  0  0  0  0
   -4.2744   59.6660   74.0926 H   0  0  0  0  0  0  0  0  0  0  0  0
   -4.7829   63.4585   76.0855 H   0  0  0  0  0  0  0  0  0  0  0  0
   -9.4129   63.1408   73.2300 H   0  0  0  0  0  0  0  0  0  0  0  0
   -7.9621   62.4857   72.3978 H   0  0  0  0  0  0  0  0  0  0  0  0
   -9.4961   61.5511   72.3978 H   0  0  0  0  0  0  0  0  0  0  0  0
   -6.8543   65.7385   75.8299 H   0  0  0  0  0  0  0  0  0  0  0  0
   -6.0963   64.8797   74.4462 H   0  0  0  0  0  0  0  0  0  0  0  0
   -7.8642   65.1978   74.4462 H   0  0  0  0  0  0  0  0  0  0  0  0
    2.8833   63.3385   71.1180 H   0  0  0  0  0  0  0  0  0  0  0  0
    3.5497   62.8536   72.7856 H   0  0  0  0  0  0  0  0  0  0  0  0
    4.0067   58.2242   72.8138 H   0  0  0  0  0  0  0  0  0  0  0  0
    3.9401   57.5979   70.3973 H   0  0  0  0  0  0  0  0  0  0  0  0
    3.3378   59.3163   68.6929 H   0  0  0  0  0  0  0  0  0  0  0  0
  2  1  1  0
  3  2  1  0
  4  3  1  0
  5  4  1  0
  6  5  1  0
  6  1  1  0
  8  7  2  0
  9  7  1  0
  9  1  1  0
 11 10  2  0
 12 11  1  0
 13 12  2  0
 13  7  1  0
 14 13  1  0
 15 14  2  0
 15 10  1  0
 17 16  1  0
 17 10  1  0
 18 15  1  0
 19 18  1  0
 20  4  1  0
 21 20  1  0
 22 21  2  0
 23 22  1  0
 24 22  1  0
 25 24  2  0
 26 25  1  0
 27 26  2  0
 27 21  1  0
 28 27  1  0
  1 29  1  0
  2 30  1  0
  2 31  1  0
  3 32  1  0
  3 33  1  0
  4 34  1  0
  5 35  1  0
  5 36  1  0
  6 37  1  0
  6 38  1  0
  9 39  1  0
 11 40  1  0
 12 41  1  0
 14 42  1  0
 16 43  1  0
 16 44  1  0
 16 45  1  0
 19 46  1  0
 19 47  1  0
 19 48  1  0
 20 49  1  0
 20 50  1  0
 24 51  1  0
 25 52  1  0
 26 53  1  0
M  CHG  1   4   1
M  END
>  <score>  (7) 
-7.353

$$$$
=
     RDKit          3D

 53 55  0  0  0  0  0  0  0  0999 V2000
    0.1840   57.8730   74.4890 C   0  0  0  0  0  0  0  0  0  0  0  0
    0.3110   56.6540   73.5610 C   0  0  0  0  0  0  0  0  0  0  0  0
    1.6530   55.9670   73.7410 C   0  0  0  0  0  0  0  0  0  0  0  0
    1.8060   55.4420   75.1530 N   0  0  0  0  0  4  0  0  0  0  0  0
    0.9670   56.1660   76.1840 C   0  0  0  0  0  0  0  0  0  0  0  0
    0.9040   57.6390   75.8330 C   0  0  0  0  0  0  0  0  0  0  0  0
   -0.2190   60.0550   73.3820 C   0  0  0  0  0  0  0  0  0  0  0  0
   -1.4110   60.0420   73.6620 O   0  0  0  0  0  0  0  0  0  0  0  0
    0.6700   59.0790   73.8160 N   0  0  0  0  0  0  0  0  0  0  0  0
    1.3370   63.1810   70.8540 C   0  0  0  0  0  0  0  0  0  0  0  0
    0.0460   63.2560   71.4010 C   0  0  0  0  0  0  0  0  0  0  0  0
   -0.4450   62.2400   72.2270 C   0  0  0  0  0  0  0  0  0  0  0  0
    0.3410   61.1240   72.5110 C   0  0  0  0  0  0  0  0  0  0  0  0
    1.6360   61.0520   71.9920 C   0  0  0  0  0  0  0  0  0  0  0  0
    2.1440   62.0740   71.1740 C   0  0  0  0  0  0  0  0  0  0  0  0
    1.4510   65.4820   70.1880 C   0  0  0  0  0  0  0  0  0  0  0  0
    1.8460   64.1280   70.0080 O   0  0  0  0  0  0  0  0  0  0  0  0
    3.4260   61.8080   70.7610 O   0  0  0  0  0  0  0  0  0  0  0  0
    3.6140   61.2980   69.4480 C   0  0  0  0  0  0  0  0  0  0  0  0
    1.7860   53.9240   75.2870 C   0  0  0  0  0  0  0  0  0  0  0  0
    0.5030   53.2790   75.7330 C   0  0  0  0  0  0  0  0  0  0  0  0
   -0.4960   53.0150   74.7900 C   0  0  0  0  0  0  0  0  0  0  0  0
   -0.2950   53.3460   73.5070 F   0  0  0  0  0  0  0  0  0  0  0  0
   -1.7040   52.4130   75.1330 C   0  0  0  0  0  0  0  0  0  0  0  0
   -1.9370   52.0470   76.4540 C   0  0  0  0  0  0  0  0  0  0  0  0
   -0.9560   52.2820   77.4160 C   0  0  0  0  0  0  0  0  0  0  0  0
    0.2560   52.8880   77.0580 C   0  0  0  0  0  0  0  0  0  0  0  0
    1.4180   53.1300   78.3120 Cl  0  0  0  0  0  0  0  0  0  0  0  0
   -0.8812   58.0192   74.7211 H   0  0  0  0  0  0  0  0  0  0  0  0
   -0.4923   55.9397   73.7943 H   0  0  0  0  0  0  0  0  0  0  0  0
    0.2319   56.9984   72.5193 H   0  0  0  0  0  0  0  0  0  0  0  0
    1.7252   55.1269   73.0346 H   0  0  0  0  0  0  0  0  0  0  0  0
    2.4512   56.6993   73.5498 H   0  0  0  0  0  0  0  0  0  0  0  0
    2.7770   55.6904   75.3904 H   0  0  0  0  0  0  0  0  0  0  0  0
   -0.0497   55.7461   76.1911 H   0  0  0  0  0  0  0  0  0  0  0  0
    1.4189   56.0432   77.1793 H   0  0  0  0  0  0  0  0  0  0  0  0
    0.3601   58.1720   76.6267 H   0  0  0  0  0  0  0  0  0  0  0  0
    1.9337   58.0148   75.7413 H   0  0  0  0  0  0  0  0  0  0  0  0
    1.6807   59.2053   73.6627 H   0  0  0  0  0  0  0  0  0  0  0  0
   -0.5882   64.1263   71.1766 H   0  0  0  0  0  0  0  0  0  0  0  0
   -1.4553   62.3216   72.6543 H   0  0  0  0  0  0  0  0  0  0  0  0
    2.2668   60.1822   72.2275 H   0  0  0  0  0  0  0  0  0  0  0  0
    1.3859   65.7051   71.2632 H   0  0  0  0  0  0  0  0  0  0  0  0
    2.1930   66.1457   69.7200 H   0  0  0  0  0  0  0  0  0  0  0  0
    0.4686   65.6427   69.7200 H   0  0  0  0  0  0  0  0  0  0  0  0
    3.9939   60.2673   69.5059 H   0  0  0  0  0  0  0  0  0  0  0  0
    2.6541   61.3053   68.9109 H   0  0  0  0  0  0  0  0  0  0  0  0
    4.3395   61.9266   68.9109 H   0  0  0  0  0  0  0  0  0  0  0  0
    2.0402   53.5038   74.3027 H   0  0  0  0  0  0  0  0  0  0  0  0
    2.5018   53.7064   76.0934 H   0  0  0  0  0  0  0  0  0  0  0  0
   -2.4686   52.2283   74.3641 H   0  0  0  0  0  0  0  0  0  0  0  0
   -2.8892   51.5751   76.7380 H   0  0  0  0  0  0  0  0  0  0  0  0
   -1.1340   51.9903   78.4616 H   0  0  0  0  0  0  0  0  0  0  0  0
  2  1  1  0
  3  2  1  0
  4  3  1  0
  5  4  1  0
  6  5  1  0
  6  1  1  0
  8  7  2  0
  9  7  1  0
  9  1  1  0
 11 10  2  0
 12 11  1  0
 13 12  2  0
 13  7  1  0
 14 13  1  0
 15 14  2  0
 15 10  1  0
 17 16  1  0
 17 10  1  0
 18 15  1  0
 19 18  1  0
 20  4  1  0
 21 20  1  0
 22 21  2  0
 23 22  1  0
 24 22  1  0
 25 24  2  0
 26 25  1  0
 27 26  2  0
 27 21  1  0
 28 27  1  0
  1 29  1  0
  2 30  1  0
  2 31  1  0
  3 32  1  0
  3 33  1  0
  4 34  1  0
  5 35  1  0
  5 36  1  0
  6 37  1  0
  6 38  1  0
  9 39  1  0
 11 40  1  0
 12 41  1  0
 14 42  1  0
 16 43  1  0
 16 44  1  0
 16 45  1  0
 19 46  1  0
 19 47  1  0
 19 48  1  0
 20 49  1  0
 20 50  1  0
 24 51  1  0
 25 52  1  0
 26 53  1  0
M  CHG  1   4   1
M  END
>  <score>  (8) 
-7.102

$$$$
=
     RDKit          3D

 53 55  0  0  0  0  0  0  0  0999 V2000
    1.6850   57.4470   72.6610 C   0  0  0  0  0  0  0  0  0  0  0  0
    2.0630   58.7010   73.4670 C   0  0  0  0  0  0  0  0  0  0  0  0
    3.5700   58.8630   73.5520 C   0  0  0  0  0  0  0  0  0  0  0  0
    4.1720   59.0480   72.1750 N   0  0  0  0  0  4  0  0  0  0  0  0
    3.3450   58.4690   71.0470 C   0  0  0  0  0  0  0  0  0  0  0  0
    2.6870   57.1870   71.5170 C   0  0  0  0  0  0  0  0  0  0  0  0
    0.3200   55.8900   74.0230 C   0  0  0  0  0  0  0  0  0  0  0  0
   -0.7330   56.3710   73.6230 O   0  0  0  0  0  0  0  0  0  0  0  0
    1.5630   56.2880   73.5480 N   0  0  0  0  0  0  0  0  0  0  0  0
    0.3790   52.9200   77.1480 C   0  0  0  0  0  0  0  0  0  0  0  0
    1.2500   54.0200   77.1670 C   0  0  0  0  0  0  0  0  0  0  0  0
    1.2160   54.9820   76.1520 C   0  0  0  0  0  0  0  0  0  0  0  0
    0.3180   54.8550   75.0930 C   0  0  0  0  0  0  0  0  0  0  0  0
   -0.5700   53.7770   75.0780 C   0  0  0  0  0  0  0  0  0  0  0  0
   -0.5540   52.8140   76.1000 C   0  0  0  0  0  0  0  0  0  0  0  0
    1.5350   51.8340   78.9460 C   0  0  0  0  0  0  0  0  0  0  0  0
    0.4020   51.9310   78.0930 O   0  0  0  0  0  0  0  0  0  0  0  0
   -1.4950   51.8360   75.8950 O   0  0  0  0  0  0  0  0  0  0  0  0
   -2.8410   52.2380   75.6720 C   0  0  0  0  0  0  0  0  0  0  0  0
    4.7290   60.4380   71.8910 C   0  0  0  0  0  0  0  0  0  0  0  0
    3.8200   61.4300   71.2210 C   0  0  0  0  0  0  0  0  0  0  0  0
    3.8380   61.5460   69.8270 C   0  0  0  0  0  0  0  0  0  0  0  0
    4.6700   60.7740   69.1140 F   0  0  0  0  0  0  0  0  0  0  0  0
    3.0170   62.4380   69.1430 C   0  0  0  0  0  0  0  0  0  0  0  0
    2.1350   63.2430   69.8540 C   0  0  0  0  0  0  0  0  0  0  0  0
    2.0810   63.1430   71.2430 C   0  0  0  0  0  0  0  0  0  0  0  0
    2.9120   62.2410   71.9210 C   0  0  0  0  0  0  0  0  0  0  0  0
    2.7690   62.1740   73.6410 Cl  0  0  0  0  0  0  0  0  0  0  0  0
    0.7052   57.6213   72.1925 H   0  0  0  0  0  0  0  0  0  0  0  0
    1.6337   59.5866   72.9757 H   0  0  0  0  0  0  0  0  0  0  0  0
    1.6653   58.5935   74.4869 H   0  0  0  0  0  0  0  0  0  0  0  0
    3.8034   59.7437   74.1684 H   0  0  0  0  0  0  0  0  0  0  0  0
    3.9963   57.9547   74.0028 H   0  0  0  0  0  0  0  0  0  0  0  0
    5.0137   58.4553   72.2071 H   0  0  0  0  0  0  0  0  0  0  0  0
    2.5711   59.1920   70.7498 H   0  0  0  0  0  0  0  0  0  0  0  0
    3.9943   58.2560   70.1850 H   0  0  0  0  0  0  0  0  0  0  0  0
    2.1521   56.7299   70.6714 H   0  0  0  0  0  0  0  0  0  0  0  0
    3.4728   56.5163   71.8948 H   0  0  0  0  0  0  0  0  0  0  0  0
    2.4061   55.7636   73.8219 H   0  0  0  0  0  0  0  0  0  0  0  0
    1.9698   54.1274   77.9918 H   0  0  0  0  0  0  0  0  0  0  0  0
    1.9006   55.8422   76.1895 H   0  0  0  0  0  0  0  0  0  0  0  0
   -1.2922   53.6810   74.2539 H   0  0  0  0  0  0  0  0  0  0  0  0
    1.2072   51.8621   79.9956 H   0  0  0  0  0  0  0  0  0  0  0  0
    2.0607   50.8876   78.7512 H   0  0  0  0  0  0  0  0  0  0  0  0
    2.2139   52.6773   78.7512 H   0  0  0  0  0  0  0  0  0  0  0  0
   -3.3438   52.3882   76.6388 H   0  0  0  0  0  0  0  0  0  0  0  0
   -2.8531   53.1789   75.1024 H   0  0  0  0  0  0  0  0  0  0  0  0
   -3.3671   51.4578   75.1024 H   0  0  0  0  0  0  0  0  0  0  0  0
    5.0366   60.8720   72.8538 H   0  0  0  0  0  0  0  0  0  0  0  0
    5.5404   60.2706   71.1674 H   0  0  0  0  0  0  0  0  0  0  0  0
    3.0660   62.5054   68.0462 H   0  0  0  0  0  0  0  0  0  0  0  0
    1.4841   63.9541   69.3242 H   0  0  0  0  0  0  0  0  0  0  0  0
    1.3823   63.7755   71.8102 H   0  0  0  0  0  0  0  0  0  0  0  0
  2  1  1  0
  3  2  1  0
  4  3  1  0
  5  4  1  0
  6  5  1  0
  6  1  1  0
  8  7  2  0
  9  7  1  0
  9  1  1  0
 11 10  2  0
 12 11  1  0
 13 12  2  0
 13  7  1  0
 14 13  1  0
 15 14  2  0
 15 10  1  0
 17 16  1  0
 17 10  1  0
 18 15  1  0
 19 18  1  0
 20  4  1  0
 21 20  1  0
 22 21  2  0
 23 22  1  0
 24 22  1  0
 25 24  2  0
 26 25  1  0
 27 26  2  0
 27 21  1  0
 28 27  1  0
  1 29  1  0
  2 30  1  0
  2 31  1  0
  3 32  1  0
  3 33  1  0
  4 34  1  0
  5 35  1  0
  5 36  1  0
  6 37  1  0
  6 38  1  0
  9 39  1  0
 11 40  1  0
 12 41  1  0
 14 42  1  0
 16 43  1  0
 16 44  1  0
 16 45  1  0
 19 46  1  0
 19 47  1  0
 19 48  1  0
 20 49  1  0
 20 50  1  0
 24 51  1  0
 25 52  1  0
 26 53  1  0
M  CHG  1   4   1
M  END
>  <score>  (9) 
-7.075

$$$$
