=
     RDKit          3D

 42 43  0  0  0  0  0  0  0  0999 V2000
    3.0550   67.7200   63.5470 C   0  0  0  0  0  0  0  0  0  0  0  0
    3.3290   66.7060   62.9140 O   0  0  0  0  0  0  0  0  0  0  0  0
   -0.7080   68.1420   65.6790 C   0  0  0  0  0  0  0  0  0  0  0  0
   -0.4230   68.9050   64.5310 C   0  0  0  0  0  0  0  0  0  0  0  0
    0.7810   68.7790   63.8200 C   0  0  0  0  0  0  0  0  0  0  0  0
    1.7560   67.8810   64.2480 C   0  0  0  0  0  0  0  0  0  0  0  0
    1.5110   67.1200   65.3890 C   0  0  0  0  0  0  0  0  0  0  0  0
    0.3030   67.2560   66.0900 C   0  0  0  0  0  0  0  0  0  0  0  0
   -2.2130   67.3440   67.4630 C   0  0  0  0  0  0  0  0  0  0  0  0
   -1.9030   68.2900   66.3910 N   0  0  0  0  0  0  0  0  0  0  0  0
   -3.0620   68.8750   65.7160 C   0  0  0  0  0  0  0  0  0  0  0  0
    4.0970   68.8110   63.6400 C   0  0  0  0  0  0  0  0  0  0  0  0
    4.5600   69.2640   62.6000 O   0  0  0  0  0  0  0  0  0  0  0  0
    4.5000   69.3300   64.9710 C   0  0  0  0  0  0  0  0  0  0  0  0
    3.6470   69.3150   66.0720 C   0  0  0  0  0  0  0  0  0  0  0  0
    4.0760   69.8360   67.3040 C   0  0  0  0  0  0  0  0  0  0  0  0
    5.3600   70.3790   67.4910 C   0  0  0  0  0  0  0  0  0  0  0  0
    6.1900   70.3910   66.3560 C   0  0  0  0  0  0  0  0  0  0  0  0
    5.7770   69.8730   65.1190 C   0  0  0  0  0  0  0  0  0  0  0  0
    5.7690   70.9120   68.7190 N   0  0  0  0  0  0  0  0  0  0  0  0
    4.8970   70.7620   69.8830 C   0  0  0  0  0  0  0  0  0  0  0  0
    7.1990   71.0030   69.0140 C   0  0  0  0  0  0  0  0  0  0  0  0
   -1.1727   69.6280   64.1772 H   0  0  0  0  0  0  0  0  0  0  0  0
    0.9548   69.3910   62.9226 H   0  0  0  0  0  0  0  0  0  0  0  0
    2.2703   66.4071   65.7431 H   0  0  0  0  0  0  0  0  0  0  0  0
    0.1416   66.6482   66.9925 H   0  0  0  0  0  0  0  0  0  0  0  0
   -2.0540   67.8291   68.4374 H   0  0  0  0  0  0  0  0  0  0  0  0
   -3.2625   67.0255   67.3788 H   0  0  0  0  0  0  0  0  0  0  0  0
   -1.5555   66.4661   67.3788 H   0  0  0  0  0  0  0  0  0  0  0  0
   -3.7795   69.2372   66.4670 H   0  0  0  0  0  0  0  0  0  0  0  0
   -2.7342   69.7156   65.0868 H   0  0  0  0  0  0  0  0  0  0  0  0
   -3.5436   68.1120   65.0868 H   0  0  0  0  0  0  0  0  0  0  0  0
    2.6351   68.8942   65.9766 H   0  0  0  0  0  0  0  0  0  0  0  0
    3.3804   69.8186   68.1560 H   0  0  0  0  0  0  0  0  0  0  0  0
    7.1986   70.8216   66.4408 H   0  0  0  0  0  0  0  0  0  0  0  0
    6.4643   69.8951   64.2604 H   0  0  0  0  0  0  0  0  0  0  0  0
    5.4920   70.8644   70.8025 H   0  0  0  0  0  0  0  0  0  0  0  0
    4.1192   71.5395   69.8611 H   0  0  0  0  0  0  0  0  0  0  0  0
    4.4237   69.7693   69.8611 H   0  0  0  0  0  0  0  0  0  0  0  0
    7.3487   71.0125   70.1037 H   0  0  0  0  0  0  0  0  0  0  0  0
    7.7188   70.1361   68.5800 H   0  0  0  0  0  0  0  0  0  0  0  0
    7.6047   71.9288   68.5800 H   0  0  0  0  0  0  0  0  0  0  0  0
  2  1  2  0
  4  3  2  0
  5  4  1  0
  6  5  2  0
  6  1  1  0
  7  6  1  0
  8  7  2  0
  8  3  1  0
 10  9  1  0
 10  3  1  0
 11 10  1  0
 12  1  1  0
 13 12  2  0
 14 12  1  0
 15 14  2  0
 16 15  1  0
 17 16  2  0
 18 17  1  0
 19 14  1  0
 19 18  2  0
 20 17  1  0
 21 20  1  0
 22 20  1  0
  4 23  1  0
  5 24  1  0
  7 25  1  0
  8 26  1  0
  9 27  1  0
  9 28  1  0
  9 29  1  0
 11 30  1  0
 11 31  1  0
 11 32  1  0
 15 33  1  0
 16 34  1  0
 18 35  1  0
 19 36  1  0
 21 37  1  0
 21 38  1  0
 21 39  1  0
 22 40  1  0
 22 41  1  0
 22 42  1  0
M  END
>  <score>  (1) 
-8.927

$$$$
=
     RDKit          3D

 42 43  0  0  0  0  0  0  0  0999 V2000
    4.2380   68.8680   63.6870 C   0  0  0  0  0  0  0  0  0  0  0  0
    4.6600   69.3210   62.6290 O   0  0  0  0  0  0  0  0  0  0  0  0
    5.4120   70.4110   67.5770 C   0  0  0  0  0  0  0  0  0  0  0  0
    6.3190   70.3580   66.5010 C   0  0  0  0  0  0  0  0  0  0  0  0
    5.9600   69.8730   65.2330 C   0  0  0  0  0  0  0  0  0  0  0  0
    4.6680   69.4100   65.0010 C   0  0  0  0  0  0  0  0  0  0  0  0
    3.7480   69.4350   66.0480 C   0  0  0  0  0  0  0  0  0  0  0  0
    4.1210   69.9230   67.3100 C   0  0  0  0  0  0  0  0  0  0  0  0
    7.2030   70.9010   69.2010 C   0  0  0  0  0  0  0  0  0  0  0  0
    5.7850   70.8790   68.8410 N   0  0  0  0  0  0  0  0  0  0  0  0
    4.8570   70.7120   69.9600 C   0  0  0  0  0  0  0  0  0  0  0  0
    3.2200   67.7520   63.6340 C   0  0  0  0  0  0  0  0  0  0  0  0
    3.5220   66.7160   63.0530 O   0  0  0  0  0  0  0  0  0  0  0  0
    1.9100   67.9190   64.3130 C   0  0  0  0  0  0  0  0  0  0  0  0
    0.9180   68.7700   63.8300 C   0  0  0  0  0  0  0  0  0  0  0  0
   -0.2960   68.9020   64.5220 C   0  0  0  0  0  0  0  0  0  0  0  0
   -0.5740   68.1950   65.7060 C   0  0  0  0  0  0  0  0  0  0  0  0
    0.4540   67.3560   66.1720 C   0  0  0  0  0  0  0  0  0  0  0  0
    1.6720   67.2110   65.4910 C   0  0  0  0  0  0  0  0  0  0  0  0
   -1.7810   68.3490   66.3980 N   0  0  0  0  0  0  0  0  0  0  0  0
   -2.9530   68.8450   65.6770 C   0  0  0  0  0  0  0  0  0  0  0  0
   -2.0680   67.4720   67.5330 C   0  0  0  0  0  0  0  0  0  0  0  0
    7.3489   70.7103   66.6600 H   0  0  0  0  0  0  0  0  0  0  0  0
    6.7018   69.8589   64.4209 H   0  0  0  0  0  0  0  0  0  0  0  0
    2.7233   69.0700   65.8841 H   0  0  0  0  0  0  0  0  0  0  0  0
    3.3762   69.9236   68.1194 H   0  0  0  0  0  0  0  0  0  0  0  0
    7.3032   70.9026   70.2964 H   0  0  0  0  0  0  0  0  0  0  0  0
    7.6999   70.0105   68.7886 H   0  0  0  0  0  0  0  0  0  0  0  0
    7.6720   71.8065   68.7886 H   0  0  0  0  0  0  0  0  0  0  0  0
    5.4050   70.8106   70.9087 H   0  0  0  0  0  0  0  0  0  0  0  0
    4.0751   71.4839   69.9063 H   0  0  0  0  0  0  0  0  0  0  0  0
    4.3933   69.7160   69.9063 H   0  0  0  0  0  0  0  0  0  0  0  0
    1.0867   69.3397   62.9042 H   0  0  0  0  0  0  0  0  0  0  0  0
   -1.0601   69.5852   64.1228 H   0  0  0  0  0  0  0  0  0  0  0  0
    0.2974   66.7932   67.1040 H   0  0  0  0  0  0  0  0  0  0  0  0
    2.4436   66.5352   65.8883 H   0  0  0  0  0  0  0  0  0  0  0  0
   -3.7176   69.1686   66.3986 H   0  0  0  0  0  0  0  0  0  0  0  0
   -2.6614   69.6968   65.0451 H   0  0  0  0  0  0  0  0  0  0  0  0
   -3.3615   68.0426   65.0451 H   0  0  0  0  0  0  0  0  0  0  0  0
   -1.8897   68.0170   68.4717 H   0  0  0  0  0  0  0  0  0  0  0  0
   -3.1187   67.1491   67.4904 H   0  0  0  0  0  0  0  0  0  0  0  0
   -1.4115   66.5904   67.4904 H   0  0  0  0  0  0  0  0  0  0  0  0
  2  1  2  0
  4  3  2  0
  5  4  1  0
  6  5  2  0
  6  1  1  0
  7  6  1  0
  8  7  2  0
  8  3  1  0
 10  9  1  0
 10  3  1  0
 11 10  1  0
 12  1  1  0
 13 12  2  0
 14 12  1  0
 15 14  2  0
 16 15  1  0
 17 16  2  0
 18 17  1  0
 19 14  1  0
 19 18  2  0
 20 17  1  0
 21 20  1  0
 22 20  1  0
  4 23  1  0
  5 24  1  0
  7 25  1  0
  8 26  1  0
  9 27  1  0
  9 28  1  0
  9 29  1  0
 11 30  1  0
 11 31  1  0
 11 32  1  0
 15 33  1  0
 16 34  1  0
 18 35  1  0
 19 36  1  0
 21 37  1  0
 21 38  1  0
 21 39  1  0
 22 40  1  0
 22 41  1  0
 22 42  1  0
M  END
>  <score>  (2) 
-8.87

$$$$
=
     RDKit          3D

 42 43  0  0  0  0  0  0  0  0999 V2000
   -0.4750   68.6910   65.6230 C   0  0  0  0  0  0  0  0  0  0  0  0
   -1.5700   68.5030   65.1040 O   0  0  0  0  0  0  0  0  0  0  0  0
    3.2590   68.6050   63.4000 C   0  0  0  0  0  0  0  0  0  0  0  0
    2.0130   68.5090   62.7510 C   0  0  0  0  0  0  0  0  0  0  0  0
    0.7940   68.5440   63.4470 C   0  0  0  0  0  0  0  0  0  0  0  0
    0.7830   68.6670   64.8340 C   0  0  0  0  0  0  0  0  0  0  0  0
    1.9980   68.7510   65.5090 C   0  0  0  0  0  0  0  0  0  0  0  0
    3.2100   68.7140   64.8010 C   0  0  0  0  0  0  0  0  0  0  0  0
    4.8900   67.2790   62.1090 C   0  0  0  0  0  0  0  0  0  0  0  0
    4.4680   68.5490   62.6990 N   0  0  0  0  0  0  0  0  0  0  0  0
    5.5530   69.4520   63.0870 C   0  0  0  0  0  0  0  0  0  0  0  0
   -0.4250   68.9920   67.1030 C   0  0  0  0  0  0  0  0  0  0  0  0
   -0.7500   70.1120   67.4810 O   0  0  0  0  0  0  0  0  0  0  0  0
   -0.0290   67.9260   68.0580 C   0  0  0  0  0  0  0  0  0  0  0  0
   -0.8640   66.8580   68.3780 C   0  0  0  0  0  0  0  0  0  0  0  0
   -0.4440   65.8870   69.3010 C   0  0  0  0  0  0  0  0  0  0  0  0
    0.8140   65.9330   69.9300 C   0  0  0  0  0  0  0  0  0  0  0  0
    1.6260   67.0320   69.5930 C   0  0  0  0  0  0  0  0  0  0  0  0
    1.2210   68.0090   68.6720 C   0  0  0  0  0  0  0  0  0  0  0  0
    1.2150   64.9700   70.8630 N   0  0  0  0  0  0  0  0  0  0  0  0
    0.2100   64.3780   71.7450 C   0  0  0  0  0  0  0  0  0  0  0  0
    2.3610   64.1140   70.5560 C   0  0  0  0  0  0  0  0  0  0  0  0
    1.9939   68.4025   61.6563 H   0  0  0  0  0  0  0  0  0  0  0  0
   -0.1549   68.4741   62.8950 H   0  0  0  0  0  0  0  0  0  0  0  0
    2.0084   68.8470   66.6048 H   0  0  0  0  0  0  0  0  0  0  0  0
    4.1543   68.7723   65.3621 H   0  0  0  0  0  0  0  0  0  0  0  0
    5.1277   66.5636   62.9100 H   0  0  0  0  0  0  0  0  0  0  0  0
    4.0775   66.8759   61.4866 H   0  0  0  0  0  0  0  0  0  0  0  0
    5.7822   67.4423   61.4866 H   0  0  0  0  0  0  0  0  0  0  0  0
    5.6135   69.5023   64.1842 H   0  0  0  0  0  0  0  0  0  0  0  0
    6.5049   69.0757   62.6842 H   0  0  0  0  0  0  0  0  0  0  0  0
    5.3558   70.4564   62.6842 H   0  0  0  0  0  0  0  0  0  0  0  0
   -1.8544   66.7752   67.9066 H   0  0  0  0  0  0  0  0  0  0  0  0
   -1.1251   65.0576   69.5420 H   0  0  0  0  0  0  0  0  0  0  0  0
    2.6131   67.1280   70.0688 H   0  0  0  0  0  0  0  0  0  0  0  0
    1.8932   68.8461   68.4322 H   0  0  0  0  0  0  0  0  0  0  0  0
    0.4970   64.5470   72.7934 H   0  0  0  0  0  0  0  0  0  0  0  0
   -0.7673   64.8447   71.5525 H   0  0  0  0  0  0  0  0  0  0  0  0
    0.1444   63.2970   71.5525 H   0  0  0  0  0  0  0  0  0  0  0  0
    2.8226   63.7692   71.4931 H   0  0  0  0  0  0  0  0  0  0  0  0
    2.0236   63.2450   69.9721 H   0  0  0  0  0  0  0  0  0  0  0  0
    3.0985   64.6841   69.9721 H   0  0  0  0  0  0  0  0  0  0  0  0
  2  1  2  0
  4  3  2  0
  5  4  1  0
  6  5  2  0
  6  1  1  0
  7  6  1  0
  8  7  2  0
  8  3  1  0
 10  9  1  0
 10  3  1  0
 11 10  1  0
 12  1  1  0
 13 12  2  0
 14 12  1  0
 15 14  2  0
 16 15  1  0
 17 16  2  0
 18 17  1  0
 19 14  1  0
 19 18  2  0
 20 17  1  0
 21 20  1  0
 22 20  1  0
  4 23  1  0
  5 24  1  0
  7 25  1  0
  8 26  1  0
  9 27  1  0
  9 28  1  0
  9 29  1  0
 11 30  1  0
 11 31  1  0
 11 32  1  0
 15 33  1  0
 16 34  1  0
 18 35  1  0
 19 36  1  0
 21 37  1  0
 21 38  1  0
 21 39  1  0
 22 40  1  0
 22 41  1  0
 22 42  1  0
M  END
>  <score>  (3) 
-8.408

$$$$
=
     RDKit          3D

 42 43  0  0  0  0  0  0  0  0999 V2000
   -0.3840   68.9630   67.2000 C   0  0  0  0  0  0  0  0  0  0  0  0
   -0.7310   70.0690   67.5970 O   0  0  0  0  0  0  0  0  0  0  0  0
    0.6880   65.7360   69.9080 C   0  0  0  0  0  0  0  0  0  0  0  0
    1.5750   66.7940   69.6360 C   0  0  0  0  0  0  0  0  0  0  0  0
    1.2480   67.8520   68.7730 C   0  0  0  0  0  0  0  0  0  0  0  0
    0.0090   67.8800   68.1370 C   0  0  0  0  0  0  0  0  0  0  0  0
   -0.8880   66.8400   68.3730 C   0  0  0  0  0  0  0  0  0  0  0  0
   -0.5480   65.7890   69.2380 C   0  0  0  0  0  0  0  0  0  0  0  0
    2.4330   64.2680   70.8490 C   0  0  0  0  0  0  0  0  0  0  0  0
    1.0310   64.6760   70.7540 N   0  0  0  0  0  0  0  0  0  0  0  0
    0.0510   63.6180   70.9960 C   0  0  0  0  0  0  0  0  0  0  0  0
   -0.3990   68.6960   65.7120 C   0  0  0  0  0  0  0  0  0  0  0  0
   -1.4830   68.5690   65.1550 O   0  0  0  0  0  0  0  0  0  0  0  0
    0.8820   68.6360   64.9630 C   0  0  0  0  0  0  0  0  0  0  0  0
    2.1220   68.7390   65.5890 C   0  0  0  0  0  0  0  0  0  0  0  0
    3.3020   68.6940   64.8280 C   0  0  0  0  0  0  0  0  0  0  0  0
    3.2960   68.5360   63.4300 C   0  0  0  0  0  0  0  0  0  0  0  0
    2.0260   68.4500   62.8300 C   0  0  0  0  0  0  0  0  0  0  0  0
    0.8390   68.4920   63.5760 C   0  0  0  0  0  0  0  0  0  0  0  0
    4.4770   68.5110   62.6800 N   0  0  0  0  0  0  0  0  0  0  0  0
    5.5630   69.4240   63.0380 C   0  0  0  0  0  0  0  0  0  0  0  0
    4.8940   67.2590   62.0490 C   0  0  0  0  0  0  0  0  0  0  0  0
    2.5635   66.7920   70.1185 H   0  0  0  0  0  0  0  0  0  0  0  0
    1.9724   68.6612   68.5985 H   0  0  0  0  0  0  0  0  0  0  0  0
   -1.8700   66.8431   67.8774 H   0  0  0  0  0  0  0  0  0  0  0  0
   -1.2734   64.9777   69.3980 H   0  0  0  0  0  0  0  0  0  0  0  0
    2.7197   64.1846   71.9077 H   0  0  0  0  0  0  0  0  0  0  0  0
    2.5657   63.2940   70.3554 H   0  0  0  0  0  0  0  0  0  0  0  0
    3.0676   65.0187   70.3554 H   0  0  0  0  0  0  0  0  0  0  0  0
   -0.0781   63.4786   72.0795 H   0  0  0  0  0  0  0  0  0  0  0  0
   -0.9120   63.9001   70.5453 H   0  0  0  0  0  0  0  0  0  0  0  0
    0.4059   62.6794   70.5453 H   0  0  0  0  0  0  0  0  0  0  0  0
    2.1774   68.8558   66.6814 H   0  0  0  0  0  0  0  0  0  0  0  0
    4.2684   68.7859   65.3454 H   0  0  0  0  0  0  0  0  0  0  0  0
    1.9619   68.3461   61.7368 H   0  0  0  0  0  0  0  0  0  0  0  0
   -0.1315   68.4109   63.0645 H   0  0  0  0  0  0  0  0  0  0  0  0
    5.6409   69.4895   64.1333 H   0  0  0  0  0  0  0  0  0  0  0  0
    6.5102   69.0469   62.6249 H   0  0  0  0  0  0  0  0  0  0  0  0
    5.3543   70.4219   62.6249 H   0  0  0  0  0  0  0  0  0  0  0  0
    5.1399   66.5207   62.8265 H   0  0  0  0  0  0  0  0  0  0  0  0
    4.0757   66.8736   61.4230 H   0  0  0  0  0  0  0  0  0  0  0  0
    5.7800   67.4412   61.4230 H   0  0  0  0  0  0  0  0  0  0  0  0
  2  1  2  0
  4  3  2  0
  5  4  1  0
  6  5  2  0
  6  1  1  0
  7  6  1  0
  8  7  2  0
  8  3  1  0
 10  9  1  0
 10  3  1  0
 11 10  1  0
 12  1  1  0
 13 12  2  0
 14 12  1  0
 15 14  2  0
 16 15  1  0
 17 16  2  0
 18 17  1  0
 19 14  1  0
 19 18  2  0
 20 17  1  0
 21 20  1  0
 22 20  1  0
  4 23  1  0
  5 24  1  0
  7 25  1  0
  8 26  1  0
  9 27  1  0
  9 28  1  0
  9 29  1  0
 11 30  1  0
 11 31  1  0
 11 32  1  0
 15 33  1  0
 16 34  1  0
 18 35  1  0
 19 36  1  0
 21 37  1  0
 21 38  1  0
 21 39  1  0
 22 40  1  0
 22 41  1  0
 22 42  1  0
M  END
>  <score>  (4) 
-8.277

$$$$
=
     RDKit          3D

 42 43  0  0  0  0  0  0  0  0999 V2000
    3.8090   59.2460   70.7680 C   0  0  0  0  0  0  0  0  0  0  0  0
    3.8300   58.6540   69.6940 O   0  0  0  0  0  0  0  0  0  0  0  0
    2.2160   57.5030   74.4170 C   0  0  0  0  0  0  0  0  0  0  0  0
    1.7860   57.0740   73.1480 C   0  0  0  0  0  0  0  0  0  0  0  0
    2.2930   57.6140   71.9550 C   0  0  0  0  0  0  0  0  0  0  0  0
    3.2520   58.6230   71.9960 C   0  0  0  0  0  0  0  0  0  0  0  0
    3.6900   59.0820   73.2370 C   0  0  0  0  0  0  0  0  0  0  0  0
    3.1750   58.5320   74.4210 C   0  0  0  0  0  0  0  0  0  0  0  0
    2.5990   56.6490   76.7000 C   0  0  0  0  0  0  0  0  0  0  0  0
    1.6910   56.9710   75.5990 N   0  0  0  0  0  0  0  0  0  0  0  0
    0.4750   56.1600   75.5310 C   0  0  0  0  0  0  0  0  0  0  0  0
    4.4060   60.6320   70.8360 C   0  0  0  0  0  0  0  0  0  0  0  0
    5.6260   60.7380   70.9040 O   0  0  0  0  0  0  0  0  0  0  0  0
    3.5160   61.8200   70.7780 C   0  0  0  0  0  0  0  0  0  0  0  0
    4.0020   63.1120   70.5920 C   0  0  0  0  0  0  0  0  0  0  0  0
    3.1150   64.2010   70.5630 C   0  0  0  0  0  0  0  0  0  0  0  0
    1.7240   64.0490   70.7070 C   0  0  0  0  0  0  0  0  0  0  0  0
    1.2710   62.7330   70.9070 C   0  0  0  0  0  0  0  0  0  0  0  0
    2.1430   61.6350   70.9370 C   0  0  0  0  0  0  0  0  0  0  0  0
    0.8520   65.1440   70.6960 N   0  0  0  0  0  0  0  0  0  0  0  0
   -0.0010   65.3810   71.8600 C   0  0  0  0  0  0  0  0  0  0  0  0
    1.2170   66.3370   69.9310 C   0  0  0  0  0  0  0  0  0  0  0  0
    1.0225   56.2844   73.0880 H   0  0  0  0  0  0  0  0  0  0  0  0
    1.9319   57.2392   70.9859 H   0  0  0  0  0  0  0  0  0  0  0  0
    4.4445   59.8808   73.2888 H   0  0  0  0  0  0  0  0  0  0  0  0
    3.5339   58.9192   75.3860 H   0  0  0  0  0  0  0  0  0  0  0  0
    2.0910   56.8292   77.6589 H   0  0  0  0  0  0  0  0  0  0  0  0
    2.8942   55.5914   76.6345 H   0  0  0  0  0  0  0  0  0  0  0  0
    3.4946   57.2844   76.6345 H   0  0  0  0  0  0  0  0  0  0  0  0
    0.1302   55.9300   76.5499 H   0  0  0  0  0  0  0  0  0  0  0  0
   -0.3080   56.7173   74.9960 H   0  0  0  0  0  0  0  0  0  0  0  0
    0.6887   55.2229   74.9960 H   0  0  0  0  0  0  0  0  0  0  0  0
    5.0820   63.2799   70.4676 H   0  0  0  0  0  0  0  0  0  0  0  0
    3.5243   65.2123   70.4222 H   0  0  0  0  0  0  0  0  0  0  0  0
    0.1937   62.5584   71.0449 H   0  0  0  0  0  0  0  0  0  0  0  0
    1.7415   60.6219   71.0868 H   0  0  0  0  0  0  0  0  0  0  0  0
    0.5805   65.2194   72.7797 H   0  0  0  0  0  0  0  0  0  0  0  0
   -0.3721   66.4163   71.8379 H   0  0  0  0  0  0  0  0  0  0  0  0
   -0.8530   64.6855   71.8379 H   0  0  0  0  0  0  0  0  0  0  0  0
    1.4671   67.1543   70.6234 H   0  0  0  0  0  0  0  0  0  0  0  0
    2.0880   66.1139   69.2973 H   0  0  0  0  0  0  0  0  0  0  0  0
    0.3703   66.6395   69.2973 H   0  0  0  0  0  0  0  0  0  0  0  0
  2  1  2  0
  4  3  2  0
  5  4  1  0
  6  5  2  0
  6  1  1  0
  7  6  1  0
  8  7  2  0
  8  3  1  0
 10  9  1  0
 10  3  1  0
 11 10  1  0
 12  1  1  0
 13 12  2  0
 14 12  1  0
 15 14  2  0
 16 15  1  0
 17 16  2  0
 18 17  1  0
 19 14  1  0
 19 18  2  0
 20 17  1  0
 21 20  1  0
 22 20  1  0
  4 23  1  0
  5 24  1  0
  7 25  1  0
  8 26  1  0
  9 27  1  0
  9 28  1  0
  9 29  1  0
 11 30  1  0
 11 31  1  0
 11 32  1  0
 15 33  1  0
 16 34  1  0
 18 35  1  0
 19 36  1  0
 21 37  1  0
 21 38  1  0
 21 39  1  0
 22 40  1  0
 22 41  1  0
 22 42  1  0
M  END
>  <score>  (5) 
-8.006

$$$$
=
     RDKit          3D

 42 43  0  0  0  0  0  0  0  0999 V2000
    4.4800   60.6160   70.9440 C   0  0  0  0  0  0  0  0  0  0  0  0
    5.7000   60.7280   70.9930 O   0  0  0  0  0  0  0  0  0  0  0  0
    1.7860   64.0170   70.6820 C   0  0  0  0  0  0  0  0  0  0  0  0
    3.1820   64.1740   70.5820 C   0  0  0  0  0  0  0  0  0  0  0  0
    4.0710   63.0890   70.6540 C   0  0  0  0  0  0  0  0  0  0  0  0
    3.5860   61.7970   70.8410 C   0  0  0  0  0  0  0  0  0  0  0  0
    2.2100   61.6080   70.9570 C   0  0  0  0  0  0  0  0  0  0  0  0
    1.3330   62.7010   70.8840 C   0  0  0  0  0  0  0  0  0  0  0  0
    1.3140   66.3080   69.8990 C   0  0  0  0  0  0  0  0  0  0  0  0
    0.9110   65.1070   70.6290 N   0  0  0  0  0  0  0  0  0  0  0  0
   -0.0110   65.3290   71.7430 C   0  0  0  0  0  0  0  0  0  0  0  0
    3.8870   59.2260   70.9490 C   0  0  0  0  0  0  0  0  0  0  0  0
    3.9160   58.5760   69.9100 O   0  0  0  0  0  0  0  0  0  0  0  0
    3.3250   58.6710   72.2070 C   0  0  0  0  0  0  0  0  0  0  0  0
    3.7640   59.0750   73.4660 C   0  0  0  0  0  0  0  0  0  0  0  0
    3.2090   58.5030   74.6230 C   0  0  0  0  0  0  0  0  0  0  0  0
    2.2000   57.5250   74.5750 C   0  0  0  0  0  0  0  0  0  0  0  0
    1.7910   57.1310   73.2880 C   0  0  0  0  0  0  0  0  0  0  0  0
    2.3340   57.6930   72.1230 C   0  0  0  0  0  0  0  0  0  0  0  0
    1.6680   56.9480   75.7340 N   0  0  0  0  0  0  0  0  0  0  0  0
    0.6560   55.9010   75.6040 C   0  0  0  0  0  0  0  0  0  0  0  0
    2.4980   56.8720   76.9370 C   0  0  0  0  0  0  0  0  0  0  0  0
    3.5918   65.1852   70.4421 H   0  0  0  0  0  0  0  0  0  0  0  0
    5.1537   63.2603   70.5624 H   0  0  0  0  0  0  0  0  0  0  0  0
    1.8086   60.5949   71.1068 H   0  0  0  0  0  0  0  0  0  0  0  0
    0.2527   62.5221   70.9885 H   0  0  0  0  0  0  0  0  0  0  0  0
    1.5798   67.1001   70.6145 H   0  0  0  0  0  0  0  0  0  0  0  0
    2.1842   66.0780   69.2666 H   0  0  0  0  0  0  0  0  0  0  0  0
    0.4812   66.6495   69.2666 H   0  0  0  0  0  0  0  0  0  0  0  0
    0.5257   65.1998   72.6945 H   0  0  0  0  0  0  0  0  0  0  0  0
   -0.4157   66.3503   71.6861 H   0  0  0  0  0  0  0  0  0  0  0  0
   -0.8362   64.6039   71.6861 H   0  0  0  0  0  0  0  0  0  0  0  0
    4.5464   59.8431   73.5543 H   0  0  0  0  0  0  0  0  0  0  0  0
    3.5784   58.8333   75.6051 H   0  0  0  0  0  0  0  0  0  0  0  0
    1.0178   56.3545   73.1917 H   0  0  0  0  0  0  0  0  0  0  0  0
    1.9762   57.3605   71.1374 H   0  0  0  0  0  0  0  0  0  0  0  0
    0.3381   55.5721   76.6044 H   0  0  0  0  0  0  0  0  0  0  0  0
   -0.2116   56.2958   75.0549 H   0  0  0  0  0  0  0  0  0  0  0  0
    1.0800   55.0474   75.0549 H   0  0  0  0  0  0  0  0  0  0  0  0
    1.8570   56.9307   77.8290 H   0  0  0  0  0  0  0  0  0  0  0  0
    3.0485   55.9197   76.9431 H   0  0  0  0  0  0  0  0  0  0  0  0
    3.2123   57.7085   76.9431 H   0  0  0  0  0  0  0  0  0  0  0  0
  2  1  2  0
  4  3  2  0
  5  4  1  0
  6  5  2  0
  6  1  1  0
  7  6  1  0
  8  7  2  0
  8  3  1  0
 10  9  1  0
 10  3  1  0
 11 10  1  0
 12  1  1  0
 13 12  2  0
 14 12  1  0
 15 14  2  0
 16 15  1  0
 17 16  2  0
 18 17  1  0
 19 14  1  0
 19 18  2  0
 20 17  1  0
 21 20  1  0
 22 20  1  0
  4 23  1  0
  5 24  1  0
  7 25  1  0
  8 26  1  0
  9 27  1  0
  9 28  1  0
  9 29  1  0
 11 30  1  0
 11 31  1  0
 11 32  1  0
 15 33  1  0
 16 34  1  0
 18 35  1  0
 19 36  1  0
 21 37  1  0
 21 38  1  0
 21 39  1  0
 22 40  1  0
 22 41  1  0
 22 42  1  0
M  END
>  <score>  (6) 
-7.998

$$$$
=
     RDKit          3D

 42 43  0  0  0  0  0  0  0  0999 V2000
    3.9490   60.5510   70.0600 C   0  0  0  0  0  0  0  0  0  0  0  0
    4.8170   60.3880   69.2090 O   0  0  0  0  0  0  0  0  0  0  0  0
    1.8150   64.3040   70.5620 C   0  0  0  0  0  0  0  0  0  0  0  0
    3.2090   64.2210   70.7360 C   0  0  0  0  0  0  0  0  0  0  0  0
    3.9220   63.0230   70.5700 C   0  0  0  0  0  0  0  0  0  0  0  0
    3.2510   61.8510   70.2300 C   0  0  0  0  0  0  0  0  0  0  0  0
    1.8680   61.8950   70.0630 C   0  0  0  0  0  0  0  0  0  0  0  0
    1.1690   63.1000   70.2320 C   0  0  0  0  0  0  0  0  0  0  0  0
   -0.0780   65.4990   71.5990 C   0  0  0  0  0  0  0  0  0  0  0  0
    1.1130   65.5000   70.7490 N   0  0  0  0  0  0  0  0  0  0  0  0
    1.1200   66.5000   69.6810 C   0  0  0  0  0  0  0  0  0  0  0  0
    3.5640   59.3750   70.9270 C   0  0  0  0  0  0  0  0  0  0  0  0
    3.7940   58.2450   70.5120 O   0  0  0  0  0  0  0  0  0  0  0  0
    2.9580   59.6130   72.2620 C   0  0  0  0  0  0  0  0  0  0  0  0
    1.6440   59.2620   72.5630 C   0  0  0  0  0  0  0  0  0  0  0  0
    1.1180   59.5270   73.8380 C   0  0  0  0  0  0  0  0  0  0  0  0
    1.8720   60.1370   74.8570 C   0  0  0  0  0  0  0  0  0  0  0  0
    3.1900   60.4900   74.5140 C   0  0  0  0  0  0  0  0  0  0  0  0
    3.7300   60.2310   73.2460 C   0  0  0  0  0  0  0  0  0  0  0  0
    1.3310   60.4130   76.1180 N   0  0  0  0  0  0  0  0  0  0  0  0
    1.2530   61.8030   76.5650 C   0  0  0  0  0  0  0  0  0  0  0  0
    0.3110   59.5190   76.6660 C   0  0  0  0  0  0  0  0  0  0  0  0
    3.7619   65.1307   71.0130 H   0  0  0  0  0  0  0  0  0  0  0  0
    5.0131   63.0101   70.7088 H   0  0  0  0  0  0  0  0  0  0  0  0
    1.3206   60.9788   69.7969 H   0  0  0  0  0  0  0  0  0  0  0  0
    0.0768   63.1025   70.1016 H   0  0  0  0  0  0  0  0  0  0  0  0
    0.2260   65.4993   72.6562 H   0  0  0  0  0  0  0  0  0  0  0  0
   -0.6784   66.3966   71.3899 H   0  0  0  0  0  0  0  0  0  0  0  0
   -0.6769   64.6004   71.3899 H   0  0  0  0  0  0  0  0  0  0  0  0
    1.1271   67.5076   70.1222 H   0  0  0  0  0  0  0  0  0  0  0  0
    2.0172   66.3658   69.0589 H   0  0  0  0  0  0  0  0  0  0  0  0
    0.2210   66.3784   69.0589 H   0  0  0  0  0  0  0  0  0  0  0  0
    1.0171   58.7763   71.8006 H   0  0  0  0  0  0  0  0  0  0  0  0
    0.0753   59.2465   74.0481 H   0  0  0  0  0  0  0  0  0  0  0  0
    3.8192   60.9868   75.2672 H   0  0  0  0  0  0  0  0  0  0  0  0
    4.7691   60.5170   73.0258 H   0  0  0  0  0  0  0  0  0  0  0  0
    1.2512   61.8350   77.6645 H   0  0  0  0  0  0  0  0  0  0  0  0
    2.1213   62.3602   76.1834 H   0  0  0  0  0  0  0  0  0  0  0  0
    0.3278   62.2595   76.1834 H   0  0  0  0  0  0  0  0  0  0  0  0
    0.3475   59.5510   77.7649 H   0  0  0  0  0  0  0  0  0  0  0  0
   -0.6827   59.8423   76.3226 H   0  0  0  0  0  0  0  0  0  0  0  0
    0.5012   58.4914   76.3226 H   0  0  0  0  0  0  0  0  0  0  0  0
  2  1  2  0
  4  3  2  0
  5  4  1  0
  6  5  2  0
  6  1  1  0
  7  6  1  0
  8  7  2  0
  8  3  1  0
 10  9  1  0
 10  3  1  0
 11 10  1  0
 12  1  1  0
 13 12  2  0
 14 12  1  0
 15 14  2  0
 16 15  1  0
 17 16  2  0
 18 17  1  0
 19 14  1  0
 19 18  2  0
 20 17  1  0
 21 20  1  0
 22 20  1  0
  4 23  1  0
  5 24  1  0
  7 25  1  0
  8 26  1  0
  9 27  1  0
  9 28  1  0
  9 29  1  0
 11 30  1  0
 11 31  1  0
 11 32  1  0
 15 33  1  0
 16 34  1  0
 18 35  1  0
 19 36  1  0
 21 37  1  0
 21 38  1  0
 21 39  1  0
 22 40  1  0
 22 41  1  0
 22 42  1  0
M  END
>  <score>  (7) 
-7.022

$$$$
=
     RDKit          3D

 42 43  0  0  0  0  0  0  0  0999 V2000
    3.7050   59.9230   71.2700 C   0  0  0  0  0  0  0  0  0  0  0  0
    4.7630   59.7260   70.6810 O   0  0  0  0  0  0  0  0  0  0  0  0
    2.2850   57.2430   74.3830 C   0  0  0  0  0  0  0  0  0  0  0  0
    3.2660   58.2190   74.6420 C   0  0  0  0  0  0  0  0  0  0  0  0
    3.7340   59.1020   73.6560 C   0  0  0  0  0  0  0  0  0  0  0  0
    3.2340   59.0280   72.3580 C   0  0  0  0  0  0  0  0  0  0  0  0
    2.2710   58.0650   72.0640 C   0  0  0  0  0  0  0  0  0  0  0  0
    1.8140   57.1890   73.0600 C   0  0  0  0  0  0  0  0  0  0  0  0
    0.4900   55.8010   75.2700 C   0  0  0  0  0  0  0  0  0  0  0  0
    1.8400   56.3560   75.3690 N   0  0  0  0  0  0  0  0  0  0  0  0
    2.3680   56.4850   76.7280 C   0  0  0  0  0  0  0  0  0  0  0  0
    2.8890   61.1370   70.8920 C   0  0  0  0  0  0  0  0  0  0  0  0
    2.9220   61.5230   69.7290 O   0  0  0  0  0  0  0  0  0  0  0  0
    2.0440   61.8020   71.9170 C   0  0  0  0  0  0  0  0  0  0  0  0
    0.6560   61.8700   71.8150 C   0  0  0  0  0  0  0  0  0  0  0  0
   -0.0920   62.5270   72.8060 C   0  0  0  0  0  0  0  0  0  0  0  0
    0.5020   63.1290   73.9300 C   0  0  0  0  0  0  0  0  0  0  0  0
    1.9060   63.0530   73.9930 C   0  0  0  0  0  0  0  0  0  0  0  0
    2.6670   62.3990   73.0130 C   0  0  0  0  0  0  0  0  0  0  0  0
   -0.2520   63.7980   74.9000 N   0  0  0  0  0  0  0  0  0  0  0  0
   -0.4560   63.1610   76.2010 C   0  0  0  0  0  0  0  0  0  0  0  0
   -0.2640   65.2600   74.9090 C   0  0  0  0  0  0  0  0  0  0  0  0
    3.6824   58.2927   75.6575 H   0  0  0  0  0  0  0  0  0  0  0  0
    4.4966   59.8533   73.9088 H   0  0  0  0  0  0  0  0  0  0  0  0
    1.8662   57.9910   71.0439 H   0  0  0  0  0  0  0  0  0  0  0  0
    1.0600   56.4328   72.7960 H   0  0  0  0  0  0  0  0  0  0  0  0
    0.0867   55.6352   76.2799 H   0  0  0  0  0  0  0  0  0  0  0  0
   -0.1574   56.5059   74.7278 H   0  0  0  0  0  0  0  0  0  0  0  0
    0.5256   54.8446   74.7278 H   0  0  0  0  0  0  0  0  0  0  0  0
    1.5649   56.2888   77.4536 H   0  0  0  0  0  0  0  0  0  0  0  0
    3.1811   55.7591   76.8759 H   0  0  0  0  0  0  0  0  0  0  0  0
    2.7548   57.5041   76.8759 H   0  0  0  0  0  0  0  0  0  0  0  0
    0.1452   61.4085   70.9571 H   0  0  0  0  0  0  0  0  0  0  0  0
   -1.1858   62.5725   72.6988 H   0  0  0  0  0  0  0  0  0  0  0  0
    2.4250   63.5233   74.8412 H   0  0  0  0  0  0  0  0  0  0  0  0
    3.7620   62.3566   73.1093 H   0  0  0  0  0  0  0  0  0  0  0  0
   -0.2258   63.8797   77.0013 H   0  0  0  0  0  0  0  0  0  0  0  0
   -1.5031   62.8361   76.2900 H   0  0  0  0  0  0  0  0  0  0  0  0
    0.2076   62.2882   76.2900 H   0  0  0  0  0  0  0  0  0  0  0  0
   -0.2670   65.6203   75.9483 H   0  0  0  0  0  0  0  0  0  0  0  0
    0.6311   65.6372   74.3927 H   0  0  0  0  0  0  0  0  0  0  0  0
   -1.1652   65.6225   74.3927 H   0  0  0  0  0  0  0  0  0  0  0  0
  2  1  2  0
  4  3  2  0
  5  4  1  0
  6  5  2  0
  6  1  1  0
  7  6  1  0
  8  7  2  0
  8  3  1  0
 10  9  1  0
 10  3  1  0
 11 10  1  0
 12  1  1  0
 13 12  2  0
 14 12  1  0
 15 14  2  0
 16 15  1  0
 17 16  2  0
 18 17  1  0
 19 14  1  0
 19 18  2  0
 20 17  1  0
 21 20  1  0
 22 20  1  0
  4 23  1  0
  5 24  1  0
  7 25  1  0
  8 26  1  0
  9 27  1  0
  9 28  1  0
  9 29  1  0
 11 30  1  0
 11 31  1  0
 11 32  1  0
 15 33  1  0
 16 34  1  0
 18 35  1  0
 19 36  1  0
 21 37  1  0
 21 38  1  0
 21 39  1  0
 22 40  1  0
 22 41  1  0
 22 42  1  0
M  END
>  <score>  (8) 
-6.845

$$$$
=
     RDKit          3D

 42 43  0  0  0  0  0  0  0  0999 V2000
    3.5300   59.8840   71.2620 C   0  0  0  0  0  0  0  0  0  0  0  0
    4.5200   59.7000   70.5630 O   0  0  0  0  0  0  0  0  0  0  0  0
    2.4450   57.1930   74.4980 C   0  0  0  0  0  0  0  0  0  0  0  0
    1.9140   57.0400   73.2030 C   0  0  0  0  0  0  0  0  0  0  0  0
    2.2560   57.8900   72.1400 C   0  0  0  0  0  0  0  0  0  0  0  0
    3.1460   58.9420   72.3440 C   0  0  0  0  0  0  0  0  0  0  0  0
    3.6800   59.1310   73.6170 C   0  0  0  0  0  0  0  0  0  0  0  0
    3.3280   58.2740   74.6700 C   0  0  0  0  0  0  0  0  0  0  0  0
    1.9530   54.9160   75.3090 C   0  0  0  0  0  0  0  0  0  0  0  0
    2.0810   56.3520   75.5550 N   0  0  0  0  0  0  0  0  0  0  0  0
    1.2360   56.8840   76.6240 C   0  0  0  0  0  0  0  0  0  0  0  0
    2.7090   61.1320   71.0280 C   0  0  0  0  0  0  0  0  0  0  0  0
    2.7310   61.6440   69.9150 O   0  0  0  0  0  0  0  0  0  0  0  0
    1.8730   61.6780   72.1280 C   0  0  0  0  0  0  0  0  0  0  0  0
    2.3660   62.5800   73.0670 C   0  0  0  0  0  0  0  0  0  0  0  0
    1.5350   63.0510   74.0970 C   0  0  0  0  0  0  0  0  0  0  0  0
    0.1920   62.6540   74.2280 C   0  0  0  0  0  0  0  0  0  0  0  0
   -0.2680   61.7310   73.2710 C   0  0  0  0  0  0  0  0  0  0  0  0
    0.5490   61.2530   72.2360 C   0  0  0  0  0  0  0  0  0  0  0  0
   -0.6210   63.1140   75.2700 N   0  0  0  0  0  0  0  0  0  0  0  0
   -1.8040   62.3380   75.6410 C   0  0  0  0  0  0  0  0  0  0  0  0
   -0.0190   63.8960   76.3500 C   0  0  0  0  0  0  0  0  0  0  0  0
    1.2028   56.2217   73.0171 H   0  0  0  0  0  0  0  0  0  0  0  0
    1.8203   57.7252   71.1435 H   0  0  0  0  0  0  0  0  0  0  0  0
    4.3825   59.9580   73.7974 H   0  0  0  0  0  0  0  0  0  0  0  0
    3.7581   58.4539   75.6663 H   0  0  0  0  0  0  0  0  0  0  0  0
    1.9054   54.3822   76.2696 H   0  0  0  0  0  0  0  0  0  0  0  0
    1.0341   54.7226   74.7362 H   0  0  0  0  0  0  0  0  0  0  0  0
    2.8233   54.5631   74.7362 H   0  0  0  0  0  0  0  0  0  0  0  0
    1.6656   56.6136   77.5999 H   0  0  0  0  0  0  0  0  0  0  0  0
    1.1820   57.9793   76.5380 H   0  0  0  0  0  0  0  0  0  0  0  0
    0.2250   56.4592   76.5380 H   0  0  0  0  0  0  0  0  0  0  0  0
    3.4086   62.9246   73.0022 H   0  0  0  0  0  0  0  0  0  0  0  0
    1.9509   63.7581   74.8299 H   0  0  0  0  0  0  0  0  0  0  0  0
   -1.3055   61.3714   73.3368 H   0  0  0  0  0  0  0  0  0  0  0  0
    0.1430   60.5384   71.5049 H   0  0  0  0  0  0  0  0  0  0  0  0
   -1.8806   62.2878   76.7372 H   0  0  0  0  0  0  0  0  0  0  0  0
   -2.7032   62.8223   75.2324 H   0  0  0  0  0  0  0  0  0  0  0  0
   -1.7179   61.3203   75.2324 H   0  0  0  0  0  0  0  0  0  0  0  0
   -0.3351   63.4853   77.3203 H   0  0  0  0  0  0  0  0  0  0  0  0
    1.0771   63.8474   76.2709 H   0  0  0  0  0  0  0  0  0  0  0  0
   -0.3463   64.9432   76.2709 H   0  0  0  0  0  0  0  0  0  0  0  0
  2  1  2  0
  4  3  2  0
  5  4  1  0
  6  5  2  0
  6  1  1  0
  7  6  1  0
  8  7  2  0
  8  3  1  0
 10  9  1  0
 10  3  1  0
 11 10  1  0
 12  1  1  0
 13 12  2  0
 14 12  1  0
 15 14  2  0
 16 15  1  0
 17 16  2  0
 18 17  1  0
 19 14  1  0
 19 18  2  0
 20 17  1  0
 21 20  1  0
 22 20  1  0
  4 23  1  0
  5 24  1  0
  7 25  1  0
  8 26  1  0
  9 27  1  0
  9 28  1  0
  9 29  1  0
 11 30  1  0
 11 31  1  0
 11 32  1  0
 15 33  1  0
 16 34  1  0
 18 35  1  0
 19 36  1  0
 21 37  1  0
 21 38  1  0
 21 39  1  0
 22 40  1  0
 22 41  1  0
 22 42  1  0
M  END
>  <score>  (9) 
-6.834

$$$$
