=
     RDKit          3D

 24 25  0  0  0  0  0  0  0  0999 V2000
    2.3910   68.8280   66.5650 O   0  0  0  0  0  0  0  0  0  0  0  0
    3.4430   69.1970   66.0510 C   0  0  0  0  0  0  0  0  0  0  0  0
    4.5020   69.7890   66.9080 C   0  0  0  0  0  0  0  0  0  0  0  0
    5.8300   69.8820   66.4770 C   0  0  0  0  0  0  0  0  0  0  0  0
    6.7980   70.4340   67.3200 C   0  0  0  0  0  0  0  0  0  0  0  0
    6.4450   70.8790   68.5940 C   0  0  0  0  0  0  0  0  0  0  0  0
    5.1260   70.7660   69.0340 C   0  0  0  0  0  0  0  0  0  0  0  0
    4.1560   70.2150   68.1950 C   0  0  0  0  0  0  0  0  0  0  0  0
    3.6270   69.0420   64.5850 C   0  0  0  0  0  0  0  0  0  0  0  0
    2.5120   68.7170   63.8040 C   0  0  0  0  0  0  0  0  0  0  0  0
    2.6440   68.5740   62.4220 C   0  0  0  0  0  0  0  0  0  0  0  0
    3.8850   68.7680   61.8170 C   0  0  0  0  0  0  0  0  0  0  0  0
    4.9950   69.1130   62.5900 C   0  0  0  0  0  0  0  0  0  0  0  0
    4.8680   69.2580   63.9730 C   0  0  0  0  0  0  0  0  0  0  0  0
    6.1113   69.5213   65.4766 H   0  0  0  0  0  0  0  0  0  0  0  0
    7.8402   70.5178   66.9784 H   0  0  0  0  0  0  0  0  0  0  0  0
    7.2078   71.3197   69.2527 H   0  0  0  0  0  0  0  0  0  0  0  0
    4.8505   71.1109   70.0415 H   0  0  0  0  0  0  0  0  0  0  0  0
    3.1183   70.1156   68.5461 H   0  0  0  0  0  0  0  0  0  0  0  0
    1.5306   68.5741   64.2799 H   0  0  0  0  0  0  0  0  0  0  0  0
    1.7692   68.3083   61.8103 H   0  0  0  0  0  0  0  0  0  0  0  0
    3.9897   68.6490   60.7285 H   0  0  0  0  0  0  0  0  0  0  0  0
    5.9715   69.2709   62.1088 H   0  0  0  0  0  0  0  0  0  0  0  0
    5.7404   69.5411   64.5802 H   0  0  0  0  0  0  0  0  0  0  0  0
  2  1  2  0
  3  2  1  0
  4  3  2  0
  5  4  1  0
  6  5  2  0
  7  6  1  0
  8  7  2  0
  8  3  1  0
  9  2  1  0
 10  9  2  0
 11 10  1  0
 12 11  2  0
 13 12  1  0
 14 13  2  0
 14  9  1  0
  4 15  1  0
  5 16  1  0
  6 17  1  0
  7 18  1  0
  8 19  1  0
 10 20  1  0
 11 21  1  0
 12 22  1  0
 13 23  1  0
 14 24  1  0
M  END
>  <score>  (1) 
-9.261

$$$$
=
     RDKit          3D

 24 25  0  0  0  0  0  0  0  0999 V2000
    2.3370   69.0190   66.5980 O   0  0  0  0  0  0  0  0  0  0  0  0
    3.4290   69.3090   66.1170 C   0  0  0  0  0  0  0  0  0  0  0  0
    3.6620   69.1020   64.6650 C   0  0  0  0  0  0  0  0  0  0  0  0
    4.9160   69.3200   64.0820 C   0  0  0  0  0  0  0  0  0  0  0  0
    5.0890   69.1270   62.7100 C   0  0  0  0  0  0  0  0  0  0  0  0
    4.0120   68.7280   61.9180 C   0  0  0  0  0  0  0  0  0  0  0  0
    2.7550   68.5310   62.4930 C   0  0  0  0  0  0  0  0  0  0  0  0
    2.5780   68.7240   63.8640 C   0  0  0  0  0  0  0  0  0  0  0  0
    4.4880   69.8580   67.0020 C   0  0  0  0  0  0  0  0  0  0  0  0
    4.1320   70.2650   68.2940 C   0  0  0  0  0  0  0  0  0  0  0  0
    5.1020   70.7770   69.1580 C   0  0  0  0  0  0  0  0  0  0  0  0
    6.4290   70.8700   68.7390 C   0  0  0  0  0  0  0  0  0  0  0  0
    6.7910   70.4450   67.4600 C   0  0  0  0  0  0  0  0  0  0  0  0
    5.8250   69.9330   66.5910 C   0  0  0  0  0  0  0  0  0  0  0  0
    5.7639   69.6429   64.7040 H   0  0  0  0  0  0  0  0  0  0  0  0
    6.0761   69.2898   62.2528 H   0  0  0  0  0  0  0  0  0  0  0  0
    4.1534   68.5684   60.8389 H   0  0  0  0  0  0  0  0  0  0  0  0
    1.9049   68.2240   61.8661 H   0  0  0  0  0  0  0  0  0  0  0  0
    1.5855   68.5789   64.3156 H   0  0  0  0  0  0  0  0  0  0  0  0
    3.0874   70.1812   68.6283 H   0  0  0  0  0  0  0  0  0  0  0  0
    4.8197   71.1069   70.1687 H   0  0  0  0  0  0  0  0  0  0  0  0
    7.1917   71.2791   69.4179 H   0  0  0  0  0  0  0  0  0  0  0  0
    7.8398   70.5134   67.1355 H   0  0  0  0  0  0  0  0  0  0  0  0
    6.1133   69.5896   65.5865 H   0  0  0  0  0  0  0  0  0  0  0  0
  2  1  2  0
  3  2  1  0
  4  3  2  0
  5  4  1  0
  6  5  2  0
  7  6  1  0
  8  7  2  0
  8  3  1  0
  9  2  1  0
 10  9  2  0
 11 10  1  0
 12 11  2  0
 13 12  1  0
 14 13  2  0
 14  9  1  0
  4 15  1  0
  5 16  1  0
  6 17  1  0
  7 18  1  0
  8 19  1  0
 10 20  1  0
 11 21  1  0
 12 22  1  0
 13 23  1  0
 14 24  1  0
M  END
>  <score>  (2) 
-9.244

$$$$
=
     RDKit          3D

 24 25  0  0  0  0  0  0  0  0999 V2000
    2.5760   70.2820   68.7600 O   0  0  0  0  0  0  0  0  0  0  0  0
    2.3760   69.5160   67.8220 C   0  0  0  0  0  0  0  0  0  0  0  0
    1.1740   68.6430   67.8410 C   0  0  0  0  0  0  0  0  0  0  0  0
    0.0430   68.9310   67.0680 C   0  0  0  0  0  0  0  0  0  0  0  0
   -1.0710   68.0910   67.1250 C   0  0  0  0  0  0  0  0  0  0  0  0
   -1.0630   66.9740   67.9610 C   0  0  0  0  0  0  0  0  0  0  0  0
    0.0550   66.6970   68.7500 C   0  0  0  0  0  0  0  0  0  0  0  0
    1.1700   67.5340   68.6950 C   0  0  0  0  0  0  0  0  0  0  0  0
    3.3410   69.4830   66.6940 C   0  0  0  0  0  0  0  0  0  0  0  0
    4.6640   69.8710   66.9380 C   0  0  0  0  0  0  0  0  0  0  0  0
    5.6020   69.8430   65.9050 C   0  0  0  0  0  0  0  0  0  0  0  0
    5.2250   69.4150   64.6320 C   0  0  0  0  0  0  0  0  0  0  0  0
    3.9130   69.0060   64.3910 C   0  0  0  0  0  0  0  0  0  0  0  0
    2.9700   69.0320   65.4210 C   0  0  0  0  0  0  0  0  0  0  0  0
    0.0319   69.8175   66.4168 H   0  0  0  0  0  0  0  0  0  0  0  0
   -1.9562   68.3103   66.5099 H   0  0  0  0  0  0  0  0  0  0  0  0
   -1.9394   66.3102   67.9985 H   0  0  0  0  0  0  0  0  0  0  0  0
    0.0568   65.8201   69.4141 H   0  0  0  0  0  0  0  0  0  0  0  0
    2.0473   67.3220   69.3238 H   0  0  0  0  0  0  0  0  0  0  0  0
    4.9642   70.1981   67.9444 H   0  0  0  0  0  0  0  0  0  0  0  0
    6.6386   70.1584   66.0946 H   0  0  0  0  0  0  0  0  0  0  0  0
    5.9633   69.3999   63.8168 H   0  0  0  0  0  0  0  0  0  0  0  0
    3.6207   68.6624   63.3878 H   0  0  0  0  0  0  0  0  0  0  0  0
    1.9386   68.6991   65.2329 H   0  0  0  0  0  0  0  0  0  0  0  0
  2  1  2  0
  3  2  1  0
  4  3  2  0
  5  4  1  0
  6  5  2  0
  7  6  1  0
  8  7  2  0
  8  3  1  0
  9  2  1  0
 10  9  2  0
 11 10  1  0
 12 11  2  0
 13 12  1  0
 14 13  2  0
 14  9  1  0
  4 15  1  0
  5 16  1  0
  6 17  1  0
  7 18  1  0
  8 19  1  0
 10 20  1  0
 11 21  1  0
 12 22  1  0
 13 23  1  0
 14 24  1  0
M  END
>  <score>  (3) 
-8.976

$$$$
=
     RDKit          3D

 24 25  0  0  0  0  0  0  0  0999 V2000
    2.3620   66.9910   65.6710 O   0  0  0  0  0  0  0  0  0  0  0  0
    2.6110   68.1180   65.2510 C   0  0  0  0  0  0  0  0  0  0  0  0
    3.5490   68.9850   66.0090 C   0  0  0  0  0  0  0  0  0  0  0  0
    4.8180   69.3060   65.5130 C   0  0  0  0  0  0  0  0  0  0  0  0
    5.6750   70.1130   66.2640 C   0  0  0  0  0  0  0  0  0  0  0  0
    5.2730   70.5890   67.5130 C   0  0  0  0  0  0  0  0  0  0  0  0
    4.0180   70.2510   68.0190 C   0  0  0  0  0  0  0  0  0  0  0  0
    3.1590   69.4440   67.2720 C   0  0  0  0  0  0  0  0  0  0  0  0
    1.9660   68.5840   63.9970 C   0  0  0  0  0  0  0  0  0  0  0  0
    2.7070   68.5370   62.8100 C   0  0  0  0  0  0  0  0  0  0  0  0
    2.1310   68.9560   61.6090 C   0  0  0  0  0  0  0  0  0  0  0  0
    0.8120   69.4100   61.5900 C   0  0  0  0  0  0  0  0  0  0  0  0
    0.0640   69.4370   62.7680 C   0  0  0  0  0  0  0  0  0  0  0  0
    0.6350   69.0190   63.9710 C   0  0  0  0  0  0  0  0  0  0  0  0
    5.1396   68.9231   64.5332 H   0  0  0  0  0  0  0  0  0  0  0  0
    6.6686   70.3740   65.8707 H   0  0  0  0  0  0  0  0  0  0  0  0
    5.9468   71.2314   68.0989 H   0  0  0  0  0  0  0  0  0  0  0  0
    3.7054   70.6205   69.0068 H   0  0  0  0  0  0  0  0  0  0  0  0
    2.1739   69.1683   67.6766 H   0  0  0  0  0  0  0  0  0  0  0  0
    3.7438   68.1697   62.8236 H   0  0  0  0  0  0  0  0  0  0  0  0
    2.7169   68.9281   60.6784 H   0  0  0  0  0  0  0  0  0  0  0  0
    0.3608   69.7472   60.6451 H   0  0  0  0  0  0  0  0  0  0  0  0
   -0.9781   69.7886   62.7483 H   0  0  0  0  0  0  0  0  0  0  0  0
    0.0409   69.0312   64.8967 H   0  0  0  0  0  0  0  0  0  0  0  0
  2  1  2  0
  3  2  1  0
  4  3  2  0
  5  4  1  0
  6  5  2  0
  7  6  1  0
  8  7  2  0
  8  3  1  0
  9  2  1  0
 10  9  2  0
 11 10  1  0
 12 11  2  0
 13 12  1  0
 14 13  2  0
 14  9  1  0
  4 15  1  0
  5 16  1  0
  6 17  1  0
  7 18  1  0
  8 19  1  0
 10 20  1  0
 11 21  1  0
 12 22  1  0
 13 23  1  0
 14 24  1  0
M  END
>  <score>  (4) 
-8.923

$$$$
=
     RDKit          3D

 24 25  0  0  0  0  0  0  0  0999 V2000
    5.8670   68.2100   64.5880 O   0  0  0  0  0  0  0  0  0  0  0  0
    4.8700   68.8310   64.9440 C   0  0  0  0  0  0  0  0  0  0  0  0
    3.6660   68.8340   64.0740 C   0  0  0  0  0  0  0  0  0  0  0  0
    2.3730   68.8490   64.6070 C   0  0  0  0  0  0  0  0  0  0  0  0
    1.2670   68.8380   63.7530 C   0  0  0  0  0  0  0  0  0  0  0  0
    1.4520   68.8000   62.3710 C   0  0  0  0  0  0  0  0  0  0  0  0
    2.7410   68.7630   61.8370 C   0  0  0  0  0  0  0  0  0  0  0  0
    3.8470   68.7730   62.6870 C   0  0  0  0  0  0  0  0  0  0  0  0
    4.8950   69.5620   66.2370 C   0  0  0  0  0  0  0  0  0  0  0  0
    6.0480   70.2810   66.5740 C   0  0  0  0  0  0  0  0  0  0  0  0
    6.1040   70.9890   67.7750 C   0  0  0  0  0  0  0  0  0  0  0  0
    5.0060   70.9910   68.6350 C   0  0  0  0  0  0  0  0  0  0  0  0
    3.8460   70.2930   68.2930 C   0  0  0  0  0  0  0  0  0  0  0  0
    3.7850   69.5830   67.0920 C   0  0  0  0  0  0  0  0  0  0  0  0
    2.2269   68.8694   65.6971 H   0  0  0  0  0  0  0  0  0  0  0  0
    0.2497   68.8593   64.1709 H   0  0  0  0  0  0  0  0  0  0  0  0
    0.5800   68.7992   61.7005 H   0  0  0  0  0  0  0  0  0  0  0  0
    2.8846   68.7260   60.7470 H   0  0  0  0  0  0  0  0  0  0  0  0
    4.8629   68.7329   62.2670 H   0  0  0  0  0  0  0  0  0  0  0  0
    6.9105   70.2878   65.8914 H   0  0  0  0  0  0  0  0  0  0  0  0
    7.0140   71.5455   68.0435 H   0  0  0  0  0  0  0  0  0  0  0  0
    5.0539   71.5437   69.5849 H   0  0  0  0  0  0  0  0  0  0  0  0
    2.9793   70.3024   68.9703 H   0  0  0  0  0  0  0  0  0  0  0  0
    2.8677   69.0414   66.8178 H   0  0  0  0  0  0  0  0  0  0  0  0
  2  1  2  0
  3  2  1  0
  4  3  2  0
  5  4  1  0
  6  5  2  0
  7  6  1  0
  8  7  2  0
  8  3  1  0
  9  2  1  0
 10  9  2  0
 11 10  1  0
 12 11  2  0
 13 12  1  0
 14 13  2  0
 14  9  1  0
  4 15  1  0
  5 16  1  0
  6 17  1  0
  7 18  1  0
  8 19  1  0
 10 20  1  0
 11 21  1  0
 12 22  1  0
 13 23  1  0
 14 24  1  0
M  END
>  <score>  (5) 
-8.917

$$$$
=
     RDKit          3D

 24 25  0  0  0  0  0  0  0  0999 V2000
    5.6160   68.4830   64.9120 O   0  0  0  0  0  0  0  0  0  0  0  0
    4.5220   68.9430   65.2250 C   0  0  0  0  0  0  0  0  0  0  0  0
    4.3440   69.5400   66.5740 C   0  0  0  0  0  0  0  0  0  0  0  0
    3.1210   69.4750   67.2520 C   0  0  0  0  0  0  0  0  0  0  0  0
    2.9920   70.0610   68.5130 C   0  0  0  0  0  0  0  0  0  0  0  0
    4.0760   70.7220   69.0910 C   0  0  0  0  0  0  0  0  0  0  0  0
    5.2900   70.8070   68.4080 C   0  0  0  0  0  0  0  0  0  0  0  0
    5.4220   70.2230   67.1470 C   0  0  0  0  0  0  0  0  0  0  0  0
    3.4050   68.8890   64.2470 C   0  0  0  0  0  0  0  0  0  0  0  0
    3.7170   68.8120   62.8840 C   0  0  0  0  0  0  0  0  0  0  0  0
    2.6940   68.7480   61.9360 C   0  0  0  0  0  0  0  0  0  0  0  0
    1.3610   68.7490   62.3470 C   0  0  0  0  0  0  0  0  0  0  0  0
    1.0470   68.8040   63.7060 C   0  0  0  0  0  0  0  0  0  0  0  0
    2.0660   68.8670   64.6590 C   0  0  0  0  0  0  0  0  0  0  0  0
    2.2628   68.9631   66.7921 H   0  0  0  0  0  0  0  0  0  0  0  0
    2.0345   70.0013   69.0512 H   0  0  0  0  0  0  0  0  0  0  0  0
    3.9736   71.1771   70.0872 H   0  0  0  0  0  0  0  0  0  0  0  0
    6.1420   71.3336   68.8628 H   0  0  0  0  0  0  0  0  0  0  0  0
    6.3750   70.3000   66.6031 H   0  0  0  0  0  0  0  0  0  0  0  0
    4.7682   68.8019   62.5602 H   0  0  0  0  0  0  0  0  0  0  0  0
    2.9392   68.6968   60.8649 H   0  0  0  0  0  0  0  0  0  0  0  0
    0.5558   68.7064   61.5988 H   0  0  0  0  0  0  0  0  0  0  0  0
   -0.0051   68.7977   64.0270 H   0  0  0  0  0  0  0  0  0  0  0  0
    1.8180   68.8993   65.7302 H   0  0  0  0  0  0  0  0  0  0  0  0
  2  1  2  0
  3  2  1  0
  4  3  2  0
  5  4  1  0
  6  5  2  0
  7  6  1  0
  8  7  2  0
  8  3  1  0
  9  2  1  0
 10  9  2  0
 11 10  1  0
 12 11  2  0
 13 12  1  0
 14 13  2  0
 14  9  1  0
  4 15  1  0
  5 16  1  0
  6 17  1  0
  7 18  1  0
  8 19  1  0
 10 20  1  0
 11 21  1  0
 12 22  1  0
 13 23  1  0
 14 24  1  0
M  END
>  <score>  (6) 
-8.808

$$$$
=
     RDKit          3D

 24 25  0  0  0  0  0  0  0  0999 V2000
    2.0070   68.7110   64.2750 O   0  0  0  0  0  0  0  0  0  0  0  0
    1.9300   68.7740   65.4990 C   0  0  0  0  0  0  0  0  0  0  0  0
    0.6770   68.3460   66.1720 C   0  0  0  0  0  0  0  0  0  0  0  0
    0.6930   67.5110   67.2950 C   0  0  0  0  0  0  0  0  0  0  0  0
   -0.5100   67.1210   67.8900 C   0  0  0  0  0  0  0  0  0  0  0  0
   -1.7250   67.5520   67.3580 C   0  0  0  0  0  0  0  0  0  0  0  0
   -1.7440   68.3650   66.2240 C   0  0  0  0  0  0  0  0  0  0  0  0
   -0.5450   68.7570   65.6270 C   0  0  0  0  0  0  0  0  0  0  0  0
    3.0930   69.2770   66.2740 C   0  0  0  0  0  0  0  0  0  0  0  0
    4.3360   69.3530   65.6340 C   0  0  0  0  0  0  0  0  0  0  0  0
    5.4500   69.8320   66.3270 C   0  0  0  0  0  0  0  0  0  0  0  0
    5.3220   70.2460   67.6520 C   0  0  0  0  0  0  0  0  0  0  0  0
    4.0790   70.1920   68.2860 C   0  0  0  0  0  0  0  0  0  0  0  0
    2.9620   69.7140   67.5980 C   0  0  0  0  0  0  0  0  0  0  0  0
    1.6507   67.1623   67.7087 H   0  0  0  0  0  0  0  0  0  0  0  0
   -0.4985   66.4733   68.7790 H   0  0  0  0  0  0  0  0  0  0  0  0
   -2.6701   67.2505   67.8332 H   0  0  0  0  0  0  0  0  0  0  0  0
   -2.7036   68.6968   65.8008 H   0  0  0  0  0  0  0  0  0  0  0  0
   -0.5603   69.3896   64.7272 H   0  0  0  0  0  0  0  0  0  0  0  0
    4.4352   69.0355   64.5855 H   0  0  0  0  0  0  0  0  0  0  0  0
    6.4286   69.8826   65.8272 H   0  0  0  0  0  0  0  0  0  0  0  0
    6.2017   70.6159   68.1991 H   0  0  0  0  0  0  0  0  0  0  0  0
    3.9797   70.5266   69.3292 H   0  0  0  0  0  0  0  0  0  0  0  0
    1.9812   69.6808   68.0949 H   0  0  0  0  0  0  0  0  0  0  0  0
  2  1  2  0
  3  2  1  0
  4  3  2  0
  5  4  1  0
  6  5  2  0
  7  6  1  0
  8  7  2  0
  8  3  1  0
  9  2  1  0
 10  9  2  0
 11 10  1  0
 12 11  2  0
 13 12  1  0
 14 13  2  0
 14  9  1  0
  4 15  1  0
  5 16  1  0
  6 17  1  0
  7 18  1  0
  8 19  1  0
 10 20  1  0
 11 21  1  0
 12 22  1  0
 13 23  1  0
 14 24  1  0
M  END
>  <score>  (7) 
-8.706

$$$$
=
     RDKit          3D

 24 25  0  0  0  0  0  0  0  0999 V2000
    1.7320   66.9500   64.7200 O   0  0  0  0  0  0  0  0  0  0  0  0
    1.4540   67.7460   65.6120 C   0  0  0  0  0  0  0  0  0  0  0  0
    2.5310   68.5800   66.2030 C   0  0  0  0  0  0  0  0  0  0  0  0
    3.7220   68.8400   65.5150 C   0  0  0  0  0  0  0  0  0  0  0  0
    4.7150   69.6190   66.1130 C   0  0  0  0  0  0  0  0  0  0  0  0
    4.5270   70.1270   67.3980 C   0  0  0  0  0  0  0  0  0  0  0  0
    3.3500   69.8510   68.0950 C   0  0  0  0  0  0  0  0  0  0  0  0
    2.3550   69.0730   67.5010 C   0  0  0  0  0  0  0  0  0  0  0  0
    0.0470   67.8520   66.0760 C   0  0  0  0  0  0  0  0  0  0  0  0
   -0.3800   67.0070   67.1080 C   0  0  0  0  0  0  0  0  0  0  0  0
   -1.6920   67.0850   67.5780 C   0  0  0  0  0  0  0  0  0  0  0  0
   -2.5750   68.0140   67.0280 C   0  0  0  0  0  0  0  0  0  0  0  0
   -2.1470   68.8730   66.0140 C   0  0  0  0  0  0  0  0  0  0  0  0
   -0.8350   68.7990   65.5410 C   0  0  0  0  0  0  0  0  0  0  0  0
    3.8755   68.4315   64.5053 H   0  0  0  0  0  0  0  0  0  0  0  0
    5.6472   69.8322   65.5693 H   0  0  0  0  0  0  0  0  0  0  0  0
    5.3080   70.7465   67.8631 H   0  0  0  0  0  0  0  0  0  0  0  0
    3.2065   70.2462   69.1115 H   0  0  0  0  0  0  0  0  0  0  0  0
    1.4312   68.8470   68.0538 H   0  0  0  0  0  0  0  0  0  0  0  0
    0.3192   66.2811   67.5486 H   0  0  0  0  0  0  0  0  0  0  0  0
   -2.0294   66.4141   68.3818 H   0  0  0  0  0  0  0  0  0  0  0  0
   -3.6108   68.0700   67.3939 H   0  0  0  0  0  0  0  0  0  0  0  0
   -2.8441   69.6091   65.5871 H   0  0  0  0  0  0  0  0  0  0  0  0
   -0.4951   69.4833   64.7497 H   0  0  0  0  0  0  0  0  0  0  0  0
  2  1  2  0
  3  2  1  0
  4  3  2  0
  5  4  1  0
  6  5  2  0
  7  6  1  0
  8  7  2  0
  8  3  1  0
  9  2  1  0
 10  9  2  0
 11 10  1  0
 12 11  2  0
 13 12  1  0
 14 13  2  0
 14  9  1  0
  4 15  1  0
  5 16  1  0
  6 17  1  0
  7 18  1  0
  8 19  1  0
 10 20  1  0
 11 21  1  0
 12 22  1  0
 13 23  1  0
 14 24  1  0
M  END
>  <score>  (8) 
-8.594

$$$$
=
     RDKit          3D

 24 25  0  0  0  0  0  0  0  0999 V2000
    4.0290   58.4470   69.9030 O   0  0  0  0  0  0  0  0  0  0  0  0
    3.5080   59.2930   70.6260 C   0  0  0  0  0  0  0  0  0  0  0  0
    3.8410   60.7260   70.4230 C   0  0  0  0  0  0  0  0  0  0  0  0
    3.1880   61.5030   69.4590 C   0  0  0  0  0  0  0  0  0  0  0  0
    3.5400   62.8440   69.2910 C   0  0  0  0  0  0  0  0  0  0  0  0
    4.5490   63.4060   70.0740 C   0  0  0  0  0  0  0  0  0  0  0  0
    5.2170   62.6270   71.0200 C   0  0  0  0  0  0  0  0  0  0  0  0
    4.8680   61.2870   71.1900 C   0  0  0  0  0  0  0  0  0  0  0  0
    2.5610   58.8580   71.6840 C   0  0  0  0  0  0  0  0  0  0  0  0
    1.8340   59.8380   72.3720 C   0  0  0  0  0  0  0  0  0  0  0  0
    0.9260   59.4670   73.3650 C   0  0  0  0  0  0  0  0  0  0  0  0
    0.7330   58.1190   73.6640 C   0  0  0  0  0  0  0  0  0  0  0  0
    1.4390   57.1380   72.9650 C   0  0  0  0  0  0  0  0  0  0  0  0
    2.3490   57.5040   71.9710 C   0  0  0  0  0  0  0  0  0  0  0  0
    2.3990   61.0581   68.8349 H   0  0  0  0  0  0  0  0  0  0  0  0
    3.0210   63.4581   68.5403 H   0  0  0  0  0  0  0  0  0  0  0  0
    4.8184   64.4647   69.9455 H   0  0  0  0  0  0  0  0  0  0  0  0
    6.0178   63.0691   71.6309 H   0  0  0  0  0  0  0  0  0  0  0  0
    5.4012   60.6703   71.9285 H   0  0  0  0  0  0  0  0  0  0  0  0
    1.9789   60.9011   72.1294 H   0  0  0  0  0  0  0  0  0  0  0  0
    0.3629   60.2379   73.9115 H   0  0  0  0  0  0  0  0  0  0  0  0
    0.0231   57.8277   74.4522 H   0  0  0  0  0  0  0  0  0  0  0  0
    1.2781   56.0750   73.1977 H   0  0  0  0  0  0  0  0  0  0  0  0
    2.8982   56.7302   71.4146 H   0  0  0  0  0  0  0  0  0  0  0  0
  2  1  2  0
  3  2  1  0
  4  3  2  0
  5  4  1  0
  6  5  2  0
  7  6  1  0
  8  7  2  0
  8  3  1  0
  9  2  1  0
 10  9  2  0
 11 10  1  0
 12 11  2  0
 13 12  1  0
 14 13  2  0
 14  9  1  0
  4 15  1  0
  5 16  1  0
  6 17  1  0
  7 18  1  0
  8 19  1  0
 10 20  1  0
 11 21  1  0
 12 22  1  0
 13 23  1  0
 14 24  1  0
M  END
>  <score>  (9) 
-8.055

$$$$
