=
     RDKit          3D

 50 52  0  0  0  0  0  0  0  0999 V2000
   -0.2750   67.3630   68.0280 C   0  0  0  0  0  0  0  0  0  0  0  0
   -1.1390   68.1510   67.6400 O   0  0  0  0  0  0  0  0  0  0  0  0
    1.1600   67.4340   67.5290 C   0  0  2  0  0  0  0  0  0  0  0  0
    1.9040   68.6940   68.0000 C   0  0  0  0  0  0  0  0  0  0  0  0
    2.9610   68.9870   66.9730 C   0  0  0  0  0  0  0  0  0  0  0  0
    2.7100   68.4370   65.7170 C   0  0  0  0  0  0  0  0  0  0  0  0
    1.2360   67.4610   65.7030 S   0  0  0  0  0  0  0  0  0  0  0  0
    3.5610   68.6640   64.6460 C   0  0  0  0  0  0  0  0  0  0  0  0
    4.6930   69.4640   64.8390 C   0  0  0  0  0  0  0  0  0  0  0  0
    4.9530   70.0320   66.1120 C   0  0  0  0  0  0  0  0  0  0  0  0
    4.0750   69.7940   67.1790 C   0  0  0  0  0  0  0  0  0  0  0  0
    6.0860   70.8040   66.2020 O   0  0  0  0  0  0  0  0  0  0  0  0
    6.6570   70.9960   67.4880 C   0  0  0  0  0  0  0  0  0  0  0  0
    5.6100   69.7530   63.8580 O   0  0  0  0  0  0  0  0  0  0  0  0
    5.6160   68.9400   62.6930 C   0  0  0  0  0  0  0  0  0  0  0  0
   -0.5970   66.3260   69.0970 C   0  0  0  0  0  0  0  0  0  0  0  0
    0.4340   66.3450   70.2270 C   0  0  0  0  0  0  0  0  0  0  0  0
    1.9200   62.4240   71.1130 N   0  0  0  0  0  4  0  0  0  0  0  0
    0.6330   62.7330   71.3990 C   0  0  0  0  0  0  0  0  0  0  0  0
    0.1300   64.0000   71.1240 C   0  0  0  0  0  0  0  0  0  0  0  0
    0.9550   64.9610   70.5420 C   0  0  0  0  0  0  0  0  0  0  0  0
    2.2780   64.6200   70.2620 C   0  0  0  0  0  0  0  0  0  0  0  0
    2.7410   63.3420   70.5530 C   0  0  0  0  0  0  0  0  0  0  0  0
    2.4280   61.0670   71.4190 C   0  0  0  0  0  0  0  0  0  0  0  0
    3.5660   59.7810   69.5810 C   0  0  0  0  0  0  0  0  0  0  0  0
    3.5760   60.7440   70.5130 C   0  0  0  0  0  0  0  0  0  0  0  0
    1.6372   66.5345   67.9452 H   0  0  0  0  0  0  0  0  0  0  0  0
    1.2050   69.5400   68.0752 H   0  0  0  0  0  0  0  0  0  0  0  0
    2.3521   68.5385   68.9925 H   0  0  0  0  0  0  0  0  0  0  0  0
    3.3498   68.2225   63.6609 H   0  0  0  0  0  0  0  0  0  0  0  0
    4.2648   70.2399   68.1665 H   0  0  0  0  0  0  0  0  0  0  0  0
    5.9143   70.7462   68.2600 H   0  0  0  0  0  0  0  0  0  0  0  0
    7.5358   70.3439   67.6001 H   0  0  0  0  0  0  0  0  0  0  0  0
    6.9633   72.0465   67.6001 H   0  0  0  0  0  0  0  0  0  0  0  0
    5.6238   67.8797   62.9858 H   0  0  0  0  0  0  0  0  0  0  0  0
    4.7163   69.1488   62.0956 H   0  0  0  0  0  0  0  0  0  0  0  0
    6.5125   69.1620   62.0956 H   0  0  0  0  0  0  0  0  0  0  0  0
   -1.5907   66.5421   69.5164 H   0  0  0  0  0  0  0  0  0  0  0  0
   -0.5768   65.3308   68.6288 H   0  0  0  0  0  0  0  0  0  0  0  0
    1.2786   66.9825   69.9264 H   0  0  0  0  0  0  0  0  0  0  0  0
   -0.0584   66.7361   71.1295 H   0  0  0  0  0  0  0  0  0  0  0  0
   -0.0211   61.9743   71.8534 H   0  0  0  0  0  0  0  0  0  0  0  0
   -0.9154   64.2430   71.3650 H   0  0  0  0  0  0  0  0  0  0  0  0
    2.9543   65.3614   69.8115 H   0  0  0  0  0  0  0  0  0  0  0  0
    3.7837   63.0748   70.3261 H   0  0  0  0  0  0  0  0  0  0  0  0
    2.7657   61.0298   72.4652 H   0  0  0  0  0  0  0  0  0  0  0  0
    1.6236   60.3326   71.2653 H   0  0  0  0  0  0  0  0  0  0  0  0
    4.4555   59.6106   68.9567 H   0  0  0  0  0  0  0  0  0  0  0  0
    2.6683   59.1610   69.4403 H   0  0  0  0  0  0  0  0  0  0  0  0
    4.4940   61.3405   70.6203 H   0  0  0  0  0  0  0  0  0  0  0  0
  2  1  2  0
  3  1  1  0
  4  3  1  0
  5  4  1  0
  6  5  2  0
  7  6  1  0
  7  3  1  0
  8  6  1  0
  9  8  2  0
 10  9  1  0
 11 10  2  0
 11  5  1  0
 12 10  1  0
 13 12  1  0
 14  9  1  0
 15 14  1  0
 16  1  1  0
 17 16  1  0
 19 18  2  0
 20 19  1  0
 21 20  2  0
 21 17  1  0
 22 21  1  0
 23 22  2  0
 23 18  1  0
 24 18  1  0
 26 25  2  3
 26 24  1  0
  3 27  1  1
  4 28  1  0
  4 29  1  0
  8 30  1  0
 11 31  1  0
 13 32  1  0
 13 33  1  0
 13 34  1  0
 15 35  1  0
 15 36  1  0
 15 37  1  0
 16 38  1  0
 16 39  1  0
 17 40  1  0
 17 41  1  0
 19 42  1  0
 20 43  1  0
 22 44  1  0
 23 45  1  0
 24 46  1  0
 24 47  1  0
 25 48  1  0
 25 49  1  0
 26 50  1  0
M  CHG  1  18   1
M  END
>  <score>  (1) 
-9.179

$$$$
=
     RDKit          3D

 50 52  0  0  0  0  0  0  0  0999 V2000
    3.8240   67.7360   62.4590 C   0  0  0  0  0  0  0  0  0  0  0  0
    3.9260   67.7730   61.2310 O   0  0  0  0  0  0  0  0  0  0  0  0
    2.5180   67.3630   63.1460 C   0  0  2  0  0  0  0  0  0  0  0  0
    1.6010   68.5700   63.3970 C   0  0  0  0  0  0  0  0  0  0  0  0
    0.7540   68.2330   64.5930 C   0  0  0  0  0  0  0  0  0  0  0  0
    1.2950   67.2520   65.4220 C   0  0  0  0  0  0  0  0  0  0  0  0
    2.8120   66.6060   64.7830 S   0  0  0  0  0  0  0  0  0  0  0  0
    0.6640   66.8700   66.5960 C   0  0  0  0  0  0  0  0  0  0  0  0
   -0.5420   67.4880   66.9480 C   0  0  0  0  0  0  0  0  0  0  0  0
   -1.0960   68.4900   66.1130 C   0  0  0  0  0  0  0  0  0  0  0  0
   -0.4370   68.8650   64.9340 C   0  0  0  0  0  0  0  0  0  0  0  0
   -2.2790   69.0390   66.5440 O   0  0  0  0  0  0  0  0  0  0  0  0
   -3.4200   68.8930   65.7110 C   0  0  0  0  0  0  0  0  0  0  0  0
   -1.2600   67.1890   68.0800 O   0  0  0  0  0  0  0  0  0  0  0  0
   -0.5930   66.4980   69.1270 C   0  0  0  0  0  0  0  0  0  0  0  0
    5.0370   67.9870   63.3450 C   0  0  0  0  0  0  0  0  0  0  0  0
    5.2340   69.4780   63.6210 C   0  0  0  0  0  0  0  0  0  0  0  0
    5.2890   70.3420   67.8170 N   0  0  0  0  0  4  0  0  0  0  0  0
    6.3860   70.5950   67.0670 C   0  0  0  0  0  0  0  0  0  0  0  0
    6.3940   70.3200   65.7040 C   0  0  0  0  0  0  0  0  0  0  0  0
    5.2570   69.7830   65.1010 C   0  0  0  0  0  0  0  0  0  0  0  0
    4.1400   69.5270   65.8960 C   0  0  0  0  0  0  0  0  0  0  0  0
    4.1760   69.8180   67.2550 C   0  0  0  0  0  0  0  0  0  0  0  0
    5.3110   70.6460   69.2670 C   0  0  0  0  0  0  0  0  0  0  0  0
    7.1580   70.2860   70.9370 C   0  0  0  0  0  0  0  0  0  0  0  0
    6.7290   70.7200   69.7440 C   0  0  0  0  0  0  0  0  0  0  0  0
    2.0359   66.6590   62.4518 H   0  0  0  0  0  0  0  0  0  0  0  0
    2.2038   69.4672   63.6010 H   0  0  0  0  0  0  0  0  0  0  0  0
    0.9749   68.7789   62.5170 H   0  0  0  0  0  0  0  0  0  0  0  0
    1.1036   66.0943   67.2402 H   0  0  0  0  0  0  0  0  0  0  0  0
   -0.8566   69.6492   64.2867 H   0  0  0  0  0  0  0  0  0  0  0  0
   -4.3179   68.7781   66.3359 H   0  0  0  0  0  0  0  0  0  0  0  0
   -3.5269   69.7848   65.0760 H   0  0  0  0  0  0  0  0  0  0  0  0
   -3.2989   68.0030   65.0760 H   0  0  0  0  0  0  0  0  0  0  0  0
   -0.9516   66.8695   70.0982 H   0  0  0  0  0  0  0  0  0  0  0  0
   -0.8017   65.4210   69.0467 H   0  0  0  0  0  0  0  0  0  0  0  0
    0.4907   66.6685   69.0467 H   0  0  0  0  0  0  0  0  0  0  0  0
    4.8950   67.4627   64.3015 H   0  0  0  0  0  0  0  0  0  0  0  0
    5.9290   67.6135   62.8208 H   0  0  0  0  0  0  0  0  0  0  0  0
    6.1886   69.7978   63.1779 H   0  0  0  0  0  0  0  0  0  0  0  0
    4.3866   70.0201   63.1761 H   0  0  0  0  0  0  0  0  0  0  0  0
    7.2817   71.0231   67.5407 H   0  0  0  0  0  0  0  0  0  0  0  0
    7.2930   70.5251   65.1042 H   0  0  0  0  0  0  0  0  0  0  0  0
    3.2323   69.0957   65.4486 H   0  0  0  0  0  0  0  0  0  0  0  0
    3.2916   69.6204   67.8785 H   0  0  0  0  0  0  0  0  0  0  0  0
    4.8137   71.6107   69.4463 H   0  0  0  0  0  0  0  0  0  0  0  0
    4.7826   69.8517   69.8146 H   0  0  0  0  0  0  0  0  0  0  0  0
    8.2203   70.3795   71.2068 H   0  0  0  0  0  0  0  0  0  0  0  0
    6.4479   69.8362   71.6465 H   0  0  0  0  0  0  0  0  0  0  0  0
    7.4726   71.1631   69.0653 H   0  0  0  0  0  0  0  0  0  0  0  0
  2  1  2  0
  3  1  1  0
  4  3  1  0
  5  4  1  0
  6  5  2  0
  7  6  1  0
  7  3  1  0
  8  6  1  0
  9  8  2  0
 10  9  1  0
 11 10  2  0
 11  5  1  0
 12 10  1  0
 13 12  1  0
 14  9  1  0
 15 14  1  0
 16  1  1  0
 17 16  1  0
 19 18  2  0
 20 19  1  0
 21 20  2  0
 21 17  1  0
 22 21  1  0
 23 22  2  0
 23 18  1  0
 24 18  1  0
 26 25  2  3
 26 24  1  0
  3 27  1  6
  4 28  1  0
  4 29  1  0
  8 30  1  0
 11 31  1  0
 13 32  1  0
 13 33  1  0
 13 34  1  0
 15 35  1  0
 15 36  1  0
 15 37  1  0
 16 38  1  0
 16 39  1  0
 17 40  1  0
 17 41  1  0
 19 42  1  0
 20 43  1  0
 22 44  1  0
 23 45  1  0
 24 46  1  0
 24 47  1  0
 25 48  1  0
 25 49  1  0
 26 50  1  0
M  CHG  1  18   1
M  END
>  <score>  (2) 
-8.953

$$$$
=
     RDKit          3D

 50 52  0  0  0  0  0  0  0  0999 V2000
    0.1750   67.2530   68.4240 C   0  0  0  0  0  0  0  0  0  0  0  0
   -0.6150   66.5970   67.7420 O   0  0  0  0  0  0  0  0  0  0  0  0
    0.9050   66.6480   69.6130 C   0  0  2  0  0  0  0  0  0  0  0  0
    1.9330   65.5770   69.2120 C   0  0  0  0  0  0  0  0  0  0  0  0
    2.0640   64.6390   70.3780 C   0  0  0  0  0  0  0  0  0  0  0  0
    0.9700   64.6390   71.2420 C   0  0  0  0  0  0  0  0  0  0  0  0
   -0.2520   65.8250   70.7650 S   0  0  0  0  0  0  0  0  0  0  0  0
    0.9110   63.7870   72.3340 C   0  0  0  0  0  0  0  0  0  0  0  0
    1.9780   62.9110   72.5660 C   0  0  0  0  0  0  0  0  0  0  0  0
    3.0920   62.8990   71.6890 C   0  0  0  0  0  0  0  0  0  0  0  0
    3.1260   63.7650   70.5870 C   0  0  0  0  0  0  0  0  0  0  0  0
    4.0860   62.0030   71.9980 O   0  0  0  0  0  0  0  0  0  0  0  0
    4.8790   61.4990   70.9330 C   0  0  0  0  0  0  0  0  0  0  0  0
    2.0360   62.0270   73.6170 O   0  0  0  0  0  0  0  0  0  0  0  0
    1.2580   60.8420   73.5310 C   0  0  0  0  0  0  0  0  0  0  0  0
    0.5150   68.6900   68.0480 C   0  0  0  0  0  0  0  0  0  0  0  0
    1.2550   68.7620   66.7110 C   0  0  0  0  0  0  0  0  0  0  0  0
    5.2970   70.1060   67.1710 N   0  0  0  0  0  4  0  0  0  0  0  0
    4.4320   70.2180   68.2070 C   0  0  0  0  0  0  0  0  0  0  0  0
    3.1150   69.7920   68.0800 C   0  0  0  0  0  0  0  0  0  0  0  0
    2.6790   69.2380   66.8770 C   0  0  0  0  0  0  0  0  0  0  0  0
    3.5880   69.1380   65.8230 C   0  0  0  0  0  0  0  0  0  0  0  0
    4.8970   69.5770   65.9930 C   0  0  0  0  0  0  0  0  0  0  0  0
    6.6940   70.5700   67.3370 C   0  0  0  0  0  0  0  0  0  0  0  0
    7.7030   70.8590   69.6220 C   0  0  0  0  0  0  0  0  0  0  0  0
    6.8470   71.2440   68.6650 C   0  0  0  0  0  0  0  0  0  0  0  0
    1.4123   67.5029   70.0840 H   0  0  0  0  0  0  0  0  0  0  0  0
    1.5827   65.0301   68.3242 H   0  0  0  0  0  0  0  0  0  0  0  0
    2.9021   66.0348   68.9644 H   0  0  0  0  0  0  0  0  0  0  0  0
    0.0407   63.7991   73.0066 H   0  0  0  0  0  0  0  0  0  0  0  0
    3.9819   63.7535   69.8961 H   0  0  0  0  0  0  0  0  0  0  0  0
    5.7401   60.9517   71.3442 H   0  0  0  0  0  0  0  0  0  0  0  0
    4.2738   60.8194   70.3150 H   0  0  0  0  0  0  0  0  0  0  0  0
    5.2373   62.3355   70.3150 H   0  0  0  0  0  0  0  0  0  0  0  0
    1.0227   60.4836   74.5440 H   0  0  0  0  0  0  0  0  0  0  0  0
    0.3236   61.0552   72.9912 H   0  0  0  0  0  0  0  0  0  0  0  0
    1.8252   60.0694   72.9912 H   0  0  0  0  0  0  0  0  0  0  0  0
   -0.4171   69.2692   67.9718 H   0  0  0  0  0  0  0  0  0  0  0  0
    1.1717   69.1035   68.8275 H   0  0  0  0  0  0  0  0  0  0  0  0
    1.2661   67.7602   66.2569 H   0  0  0  0  0  0  0  0  0  0  0  0
    0.7282   69.4839   66.0696 H   0  0  0  0  0  0  0  0  0  0  0  0
    4.7751   70.6504   69.1585 H   0  0  0  0  0  0  0  0  0  0  0  0
    2.4189   69.8916   68.9259 H   0  0  0  0  0  0  0  0  0  0  0  0
    3.2701   68.7129   64.8596 H   0  0  0  0  0  0  0  0  0  0  0  0
    5.6127   69.4930   65.1619 H   0  0  0  0  0  0  0  0  0  0  0  0
    7.3746   69.7074   67.2841 H   0  0  0  0  0  0  0  0  0  0  0  0
    6.9388   71.2831   66.5360 H   0  0  0  0  0  0  0  0  0  0  0  0
    7.7514   71.4121   70.5716 H   0  0  0  0  0  0  0  0  0  0  0  0
    8.3570   69.9899   69.4578 H   0  0  0  0  0  0  0  0  0  0  0  0
    6.2113   72.1180   68.8702 H   0  0  0  0  0  0  0  0  0  0  0  0
  2  1  2  0
  3  1  1  0
  4  3  1  0
  5  4  1  0
  6  5  2  0
  7  6  1  0
  7  3  1  0
  8  6  1  0
  9  8  2  0
 10  9  1  0
 11 10  2  0
 11  5  1  0
 12 10  1  0
 13 12  1  0
 14  9  1  0
 15 14  1  0
 16  1  1  0
 17 16  1  0
 19 18  2  0
 20 19  1  0
 21 20  2  0
 21 17  1  0
 22 21  1  0
 23 22  2  0
 23 18  1  0
 24 18  1  0
 26 25  2  3
 26 24  1  0
  3 27  1  1
  4 28  1  0
  4 29  1  0
  8 30  1  0
 11 31  1  0
 13 32  1  0
 13 33  1  0
 13 34  1  0
 15 35  1  0
 15 36  1  0
 15 37  1  0
 16 38  1  0
 16 39  1  0
 17 40  1  0
 17 41  1  0
 19 42  1  0
 20 43  1  0
 22 44  1  0
 23 45  1  0
 24 46  1  0
 24 47  1  0
 25 48  1  0
 25 49  1  0
 26 50  1  0
M  CHG  1  18   1
M  END
>  <score>  (3) 
-8.592

$$$$
=
     RDKit          3D

 50 52  0  0  0  0  0  0  0  0999 V2000
   -0.1990   67.1160   68.3580 C   0  0  0  0  0  0  0  0  0  0  0  0
   -1.3470   66.8110   68.0310 O   0  0  0  0  0  0  0  0  0  0  0  0
    0.6140   68.1400   67.5810 C   0  0  2  0  0  0  0  0  0  0  0  0
    1.3210   67.5450   66.3520 C   0  0  0  0  0  0  0  0  0  0  0  0
    2.5390   68.3880   66.0980 C   0  0  0  0  0  0  0  0  0  0  0  0
    2.9870   69.1000   67.2100 C   0  0  0  0  0  0  0  0  0  0  0  0
    1.9330   68.8740   68.6120 S   0  0  0  0  0  0  0  0  0  0  0  0
    4.1330   69.8790   67.1550 C   0  0  0  0  0  0  0  0  0  0  0  0
    4.8470   69.9470   65.9530 C   0  0  0  0  0  0  0  0  0  0  0  0
    4.4010   69.2220   64.8190 C   0  0  0  0  0  0  0  0  0  0  0  0
    3.2440   68.4350   64.9010 C   0  0  0  0  0  0  0  0  0  0  0  0
    5.1700   69.3500   63.6880 O   0  0  0  0  0  0  0  0  0  0  0  0
    4.6620   68.8130   62.4760 C   0  0  0  0  0  0  0  0  0  0  0  0
    5.9900   70.6890   65.7760 O   0  0  0  0  0  0  0  0  0  0  0  0
    6.7400   71.0400   66.9300 C   0  0  0  0  0  0  0  0  0  0  0  0
    0.4280   66.5300   69.6170 C   0  0  0  0  0  0  0  0  0  0  0  0
   -0.2900   65.2550   70.0630 C   0  0  0  0  0  0  0  0  0  0  0  0
    2.4390   62.3500   71.6350 N   0  0  0  0  0  4  0  0  0  0  0  0
    1.1060   62.1520   71.7590 C   0  0  0  0  0  0  0  0  0  0  0  0
    0.2010   63.0820   71.2600 C   0  0  0  0  0  0  0  0  0  0  0  0
    0.6690   64.2290   70.6200 C   0  0  0  0  0  0  0  0  0  0  0  0
    2.0480   64.4120   70.5090 C   0  0  0  0  0  0  0  0  0  0  0  0
    2.9170   63.4560   71.0220 C   0  0  0  0  0  0  0  0  0  0  0  0
    3.3780   61.3410   72.1780 C   0  0  0  0  0  0  0  0  0  0  0  0
    5.7250   60.9190   71.3790 C   0  0  0  0  0  0  0  0  0  0  0  0
    4.7860   61.7430   71.8630 C   0  0  0  0  0  0  0  0  0  0  0  0
   -0.1245   68.8921   67.2663 H   0  0  0  0  0  0  0  0  0  0  0  0
    1.6163   66.5045   66.5524 H   0  0  0  0  0  0  0  0  0  0  0  0
    0.6543   67.5429   65.4771 H   0  0  0  0  0  0  0  0  0  0  0  0
    4.4751   70.4340   68.0409 H   0  0  0  0  0  0  0  0  0  0  0  0
    2.8981   67.8614   64.0285 H   0  0  0  0  0  0  0  0  0  0  0  0
    3.9223   68.0311   62.7030 H   0  0  0  0  0  0  0  0  0  0  0  0
    4.1826   69.6131   61.8930 H   0  0  0  0  0  0  0  0  0  0  0  0
    5.4875   68.3787   61.8930 H   0  0  0  0  0  0  0  0  0  0  0  0
    6.1704   70.7734   67.8325 H   0  0  0  0  0  0  0  0  0  0  0  0
    7.6959   70.4957   66.9256 H   0  0  0  0  0  0  0  0  0  0  0  0
    6.9345   72.1227   66.9256 H   0  0  0  0  0  0  0  0  0  0  0  0
    1.4827   66.2931   69.4134 H   0  0  0  0  0  0  0  0  0  0  0  0
    0.3407   67.2737   70.4228 H   0  0  0  0  0  0  0  0  0  0  0  0
   -1.0234   65.5143   70.8408 H   0  0  0  0  0  0  0  0  0  0  0  0
   -0.7815   64.8167   69.1819 H   0  0  0  0  0  0  0  0  0  0  0  0
    0.7347   61.2458   72.2598 H   0  0  0  0  0  0  0  0  0  0  0  0
   -0.8805   62.9135   71.3697 H   0  0  0  0  0  0  0  0  0  0  0  0
    2.4466   65.3112   70.0164 H   0  0  0  0  0  0  0  0  0  0  0  0
    4.0034   63.6007   70.9283 H   0  0  0  0  0  0  0  0  0  0  0  0
    3.2520   61.2734   73.2687 H   0  0  0  0  0  0  0  0  0  0  0  0
    3.1669   60.3628   71.7213 H   0  0  0  0  0  0  0  0  0  0  0  0
    6.7373   61.2981   71.1751 H   0  0  0  0  0  0  0  0  0  0  0  0
    5.4837   59.8634   71.1855 H   0  0  0  0  0  0  0  0  0  0  0  0
    5.0696   62.7906   72.0420 H   0  0  0  0  0  0  0  0  0  0  0  0
  2  1  2  0
  3  1  1  0
  4  3  1  0
  5  4  1  0
  6  5  2  0
  7  6  1  0
  7  3  1  0
  8  6  1  0
  9  8  2  0
 10  9  1  0
 11 10  2  0
 11  5  1  0
 12 10  1  0
 13 12  1  0
 14  9  1  0
 15 14  1  0
 16  1  1  0
 17 16  1  0
 19 18  2  0
 20 19  1  0
 21 20  2  0
 21 17  1  0
 22 21  1  0
 23 22  2  0
 23 18  1  0
 24 18  1  0
 26 25  2  3
 26 24  1  0
  3 27  1  6
  4 28  1  0
  4 29  1  0
  8 30  1  0
 11 31  1  0
 13 32  1  0
 13 33  1  0
 13 34  1  0
 15 35  1  0
 15 36  1  0
 15 37  1  0
 16 38  1  0
 16 39  1  0
 17 40  1  0
 17 41  1  0
 19 42  1  0
 20 43  1  0
 22 44  1  0
 23 45  1  0
 24 46  1  0
 24 47  1  0
 25 48  1  0
 25 49  1  0
 26 50  1  0
M  CHG  1  18   1
M  END
>  <score>  (4) 
-8.48

$$$$
=
     RDKit          3D

 50 52  0  0  0  0  0  0  0  0999 V2000
    0.2930   66.3540   69.3610 C   0  0  0  0  0  0  0  0  0  0  0  0
   -0.8020   66.1870   68.8210 O   0  0  0  0  0  0  0  0  0  0  0  0
    0.7950   65.4310   70.4610 C   0  0  2  0  0  0  0  0  0  0  0  0
    2.2460   64.9680   70.2480 C   0  0  0  0  0  0  0  0  0  0  0  0
    2.3850   63.6380   70.9330 C   0  0  0  0  0  0  0  0  0  0  0  0
    1.1820   62.9590   71.1210 C   0  0  0  0  0  0  0  0  0  0  0  0
   -0.2070   63.9060   70.5680 S   0  0  0  0  0  0  0  0  0  0  0  0
    1.1460   61.6930   71.6850 C   0  0  0  0  0  0  0  0  0  0  0  0
    2.3490   61.0920   72.0720 C   0  0  0  0  0  0  0  0  0  0  0  0
    3.5780   61.7720   71.8790 C   0  0  0  0  0  0  0  0  0  0  0  0
    3.5900   63.0480   71.3000 C   0  0  0  0  0  0  0  0  0  0  0  0
    4.7040   61.0990   72.2880 O   0  0  0  0  0  0  0  0  0  0  0  0
    5.7380   60.8960   71.3350 C   0  0  0  0  0  0  0  0  0  0  0  0
    2.4400   59.8480   72.6470 O   0  0  0  0  0  0  0  0  0  0  0  0
    1.4230   59.4630   73.5620 C   0  0  0  0  0  0  0  0  0  0  0  0
    1.2310   67.4570   68.8870 C   0  0  0  0  0  0  0  0  0  0  0  0
    0.7200   68.1170   67.6050 C   0  0  0  0  0  0  0  0  0  0  0  0
    3.6730   68.1020   64.5000 N   0  0  0  0  0  4  0  0  0  0  0  0
    2.7400   67.1230   64.5410 C   0  0  0  0  0  0  0  0  0  0  0  0
    1.7740   67.1040   65.5410 C   0  0  0  0  0  0  0  0  0  0  0  0
    1.7610   68.1080   66.5090 C   0  0  0  0  0  0  0  0  0  0  0  0
    2.7370   69.1030   66.4480 C   0  0  0  0  0  0  0  0  0  0  0  0
    3.6840   69.0830   65.4310 C   0  0  0  0  0  0  0  0  0  0  0  0
    4.6910   68.0940   63.4230 C   0  0  0  0  0  0  0  0  0  0  0  0
    3.3090   68.7180   61.4160 C   0  0  0  0  0  0  0  0  0  0  0  0
    4.0280   67.8230   62.1070 C   0  0  0  0  0  0  0  0  0  0  0  0
    0.7205   66.0344   71.3777 H   0  0  0  0  0  0  0  0  0  0  0  0
    2.4558   64.8637   69.1732 H   0  0  0  0  0  0  0  0  0  0  0  0
    2.9570   65.6992   70.6601 H   0  0  0  0  0  0  0  0  0  0  0  0
    0.1885   61.1701   71.8258 H   0  0  0  0  0  0  0  0  0  0  0  0
    4.5409   63.5767   71.1377 H   0  0  0  0  0  0  0  0  0  0  0  0
    6.6875   60.7096   71.8582 H   0  0  0  0  0  0  0  0  0  0  0  0
    5.4905   60.0293   70.7045 H   0  0  0  0  0  0  0  0  0  0  0  0
    5.8366   61.7919   70.7045 H   0  0  0  0  0  0  0  0  0  0  0  0
    1.7851   59.6001   74.5916 H   0  0  0  0  0  0  0  0  0  0  0  0
    0.5304   60.0854   73.4013 H   0  0  0  0  0  0  0  0  0  0  0  0
    1.1664   58.4055   73.4013 H   0  0  0  0  0  0  0  0  0  0  0  0
    1.3110   68.2208   69.6745 H   0  0  0  0  0  0  0  0  0  0  0  0
    2.2124   67.0074   68.6755 H   0  0  0  0  0  0  0  0  0  0  0  0
   -0.1688   67.5717   67.2549 H   0  0  0  0  0  0  0  0  0  0  0  0
    0.4789   69.1652   67.8356 H   0  0  0  0  0  0  0  0  0  0  0  0
    2.7457   66.3336   63.7750 H   0  0  0  0  0  0  0  0  0  0  0  0
    1.0232   66.3005   65.5685 H   0  0  0  0  0  0  0  0  0  0  0  0
    2.7570   69.9021   67.2037 H   0  0  0  0  0  0  0  0  0  0  0  0
    4.4491   69.8719   65.3828 H   0  0  0  0  0  0  0  0  0  0  0  0
    5.1923   69.0724   63.3858 H   0  0  0  0  0  0  0  0  0  0  0  0
    5.4328   67.3078   63.6272 H   0  0  0  0  0  0  0  0  0  0  0  0
    2.8552   68.4348   60.4548 H   0  0  0  0  0  0  0  0  0  0  0  0
    3.1725   69.7359   61.8099 H   0  0  0  0  0  0  0  0  0  0  0  0
    4.1395   66.8167   61.6771 H   0  0  0  0  0  0  0  0  0  0  0  0
  2  1  2  0
  3  1  1  0
  4  3  1  0
  5  4  1  0
  6  5  2  0
  7  6  1  0
  7  3  1  0
  8  6  1  0
  9  8  2  0
 10  9  1  0
 11 10  2  0
 11  5  1  0
 12 10  1  0
 13 12  1  0
 14  9  1  0
 15 14  1  0
 16  1  1  0
 17 16  1  0
 19 18  2  0
 20 19  1  0
 21 20  2  0
 21 17  1  0
 22 21  1  0
 23 22  2  0
 23 18  1  0
 24 18  1  0
 26 25  2  3
 26 24  1  0
  3 27  1  1
  4 28  1  0
  4 29  1  0
  8 30  1  0
 11 31  1  0
 13 32  1  0
 13 33  1  0
 13 34  1  0
 15 35  1  0
 15 36  1  0
 15 37  1  0
 16 38  1  0
 16 39  1  0
 17 40  1  0
 17 41  1  0
 19 42  1  0
 20 43  1  0
 22 44  1  0
 23 45  1  0
 24 46  1  0
 24 47  1  0
 25 48  1  0
 25 49  1  0
 26 50  1  0
M  CHG  1  18   1
M  END
>  <score>  (5) 
-8.011

$$$$
=
     RDKit          3D

 50 52  0  0  0  0  0  0  0  0999 V2000
    1.4940   64.3660   70.5740 C   0  0  0  0  0  0  0  0  0  0  0  0
    2.6980   64.6180   70.6430 O   0  0  0  0  0  0  0  0  0  0  0  0
    0.9510   62.9650   70.8140 C   0  0  2  0  0  0  0  0  0  0  0  0
   -0.1230   62.9120   71.9130 C   0  0  0  0  0  0  0  0  0  0  0  0
   -0.0760   61.5300   72.5030 C   0  0  0  0  0  0  0  0  0  0  0  0
    1.1340   60.8660   72.3140 C   0  0  0  0  0  0  0  0  0  0  0  0
    2.2690   61.8150   71.3450 S   0  0  0  0  0  0  0  0  0  0  0  0
    1.3580   59.6050   72.8480 C   0  0  0  0  0  0  0  0  0  0  0  0
    0.3390   58.9950   73.5900 C   0  0  0  0  0  0  0  0  0  0  0  0
   -0.8930   59.6670   73.7920 C   0  0  0  0  0  0  0  0  0  0  0  0
   -1.0930   60.9440   73.2480 C   0  0  0  0  0  0  0  0  0  0  0  0
   -1.8280   58.9890   74.5350 O   0  0  0  0  0  0  0  0  0  0  0  0
   -3.0840   59.6160   74.7530 C   0  0  0  0  0  0  0  0  0  0  0  0
    0.4410   57.7500   74.1600 O   0  0  0  0  0  0  0  0  0  0  0  0
    1.7290   57.3070   74.5650 C   0  0  0  0  0  0  0  0  0  0  0  0
    0.4830   65.4780   70.3230 C   0  0  0  0  0  0  0  0  0  0  0  0
    1.1710   66.7830   69.9210 C   0  0  0  0  0  0  0  0  0  0  0  0
   -0.3390   68.3080   66.2120 N   0  0  0  0  0  4  0  0  0  0  0  0
    0.8850   68.6910   66.6450 C   0  0  0  0  0  0  0  0  0  0  0  0
    1.3950   68.2130   67.8470 C   0  0  0  0  0  0  0  0  0  0  0  0
    0.6410   67.3240   68.6130 C   0  0  0  0  0  0  0  0  0  0  0  0
   -0.6190   66.9480   68.1480 C   0  0  0  0  0  0  0  0  0  0  0  0
   -1.0900   67.4510   66.9400 C   0  0  0  0  0  0  0  0  0  0  0  0
   -0.8550   68.8360   64.9280 C   0  0  0  0  0  0  0  0  0  0  0  0
    0.1020   69.2420   62.6370 C   0  0  0  0  0  0  0  0  0  0  0  0
    0.2290   68.7950   63.8950 C   0  0  0  0  0  0  0  0  0  0  0  0
    0.5179   62.6714   69.8464 H   0  0  0  0  0  0  0  0  0  0  0  0
    0.0920   63.6619   72.6885 H   0  0  0  0  0  0  0  0  0  0  0  0
   -1.1192   63.1306   71.5010 H   0  0  0  0  0  0  0  0  0  0  0  0
    2.3191   59.0935   72.6912 H   0  0  0  0  0  0  0  0  0  0  0  0
   -2.0427   61.4753   73.4088 H   0  0  0  0  0  0  0  0  0  0  0  0
   -3.2658   59.7067   75.8341 H   0  0  0  0  0  0  0  0  0  0  0  0
   -3.0782   60.6170   74.2969 H   0  0  0  0  0  0  0  0  0  0  0  0
   -3.8805   59.0098   74.2969 H   0  0  0  0  0  0  0  0  0  0  0  0
    1.7818   57.2888   75.6636 H   0  0  0  0  0  0  0  0  0  0  0  0
    1.9090   56.2953   74.1725 H   0  0  0  0  0  0  0  0  0  0  0  0
    2.4932   57.9939   74.1725 H   0  0  0  0  0  0  0  0  0  0  0  0
   -0.1953   65.1681   69.5144 H   0  0  0  0  0  0  0  0  0  0  0  0
   -0.0730   65.6549   71.2555 H   0  0  0  0  0  0  0  0  0  0  0  0
    1.0014   67.5312   70.7093 H   0  0  0  0  0  0  0  0  0  0  0  0
    2.2436   66.5756   69.7927 H   0  0  0  0  0  0  0  0  0  0  0  0
    1.4827   69.3880   66.0393 H   0  0  0  0  0  0  0  0  0  0  0  0
    2.3887   68.5345   68.1923 H   0  0  0  0  0  0  0  0  0  0  0  0
   -1.2390   66.2549   68.7356 H   0  0  0  0  0  0  0  0  0  0  0  0
   -2.0822   67.1490   66.5735 H   0  0  0  0  0  0  0  0  0  0  0  0
   -1.7028   68.2202   64.5934 H   0  0  0  0  0  0  0  0  0  0  0  0
   -1.1868   69.8754   65.0678 H   0  0  0  0  0  0  0  0  0  0  0  0
    0.9509   69.1738   61.9407 H   0  0  0  0  0  0  0  0  0  0  0  0
   -0.8510   69.6769   62.3014 H   0  0  0  0  0  0  0  0  0  0  0  0
    1.1988   68.3676   64.1894 H   0  0  0  0  0  0  0  0  0  0  0  0
  2  1  2  0
  3  1  1  0
  4  3  1  0
  5  4  1  0
  6  5  2  0
  7  6  1  0
  7  3  1  0
  8  6  1  0
  9  8  2  0
 10  9  1  0
 11 10  2  0
 11  5  1  0
 12 10  1  0
 13 12  1  0
 14  9  1  0
 15 14  1  0
 16  1  1  0
 17 16  1  0
 19 18  2  0
 20 19  1  0
 21 20  2  0
 21 17  1  0
 22 21  1  0
 23 22  2  0
 23 18  1  0
 24 18  1  0
 26 25  2  3
 26 24  1  0
  3 27  1  6
  4 28  1  0
  4 29  1  0
  8 30  1  0
 11 31  1  0
 13 32  1  0
 13 33  1  0
 13 34  1  0
 15 35  1  0
 15 36  1  0
 15 37  1  0
 16 38  1  0
 16 39  1  0
 17 40  1  0
 17 41  1  0
 19 42  1  0
 20 43  1  0
 22 44  1  0
 23 45  1  0
 24 46  1  0
 24 47  1  0
 25 48  1  0
 25 49  1  0
 26 50  1  0
M  CHG  1  18   1
M  END
>  <score>  (6) 
-7.894

$$$$
=
     RDKit          3D

 50 52  0  0  0  0  0  0  0  0999 V2000
    0.4110   65.5790   70.8660 C   0  0  0  0  0  0  0  0  0  0  0  0
   -0.3310   66.0880   71.7080 O   0  0  0  0  0  0  0  0  0  0  0  0
    0.5540   64.0700   70.7280 C   0  0  2  0  0  0  0  0  0  0  0  0
    0.0230   63.2980   71.9470 C   0  0  0  0  0  0  0  0  0  0  0  0
    0.7850   62.0040   72.0100 C   0  0  0  0  0  0  0  0  0  0  0  0
    2.0140   62.0290   71.3530 C   0  0  0  0  0  0  0  0  0  0  0  0
    2.3030   63.5750   70.5430 S   0  0  0  0  0  0  0  0  0  0  0  0
    2.8640   60.9330   71.3670 C   0  0  0  0  0  0  0  0  0  0  0  0
    2.4700   59.7810   72.0590 C   0  0  0  0  0  0  0  0  0  0  0  0
    1.2240   59.7500   72.7350 C   0  0  0  0  0  0  0  0  0  0  0  0
    0.3850   60.8730   72.7120 C   0  0  0  0  0  0  0  0  0  0  0  0
    0.9270   58.5780   73.3870 O   0  0  0  0  0  0  0  0  0  0  0  0
   -0.3370   58.4750   74.0240 C   0  0  0  0  0  0  0  0  0  0  0  0
    3.2210   58.6340   72.1380 O   0  0  0  0  0  0  0  0  0  0  0  0
    3.3510   57.8430   70.9650 C   0  0  0  0  0  0  0  0  0  0  0  0
    1.1620   66.4500   69.8670 C   0  0  0  0  0  0  0  0  0  0  0  0
    0.2080   67.1150   68.8730 C   0  0  0  0  0  0  0  0  0  0  0  0
    2.2640   68.6050   65.4210 N   0  0  0  0  0  4  0  0  0  0  0  0
    2.6450   69.0120   66.6540 C   0  0  0  0  0  0  0  0  0  0  0  0
    1.9900   68.5450   67.7890 C   0  0  0  0  0  0  0  0  0  0  0  0
    0.9350   67.6440   67.6580 C   0  0  0  0  0  0  0  0  0  0  0  0
    0.5580   67.2430   66.3760 C   0  0  0  0  0  0  0  0  0  0  0  0
    1.2390   67.7350   65.2680 C   0  0  0  0  0  0  0  0  0  0  0  0
    2.9790   69.1210   64.2310 C   0  0  0  0  0  0  0  0  0  0  0  0
    3.1390   68.4500   61.8120 C   0  0  0  0  0  0  0  0  0  0  0  0
    2.5670   68.3420   63.0190 C   0  0  0  0  0  0  0  0  0  0  0  0
   -0.0375   63.8206   69.8347 H   0  0  0  0  0  0  0  0  0  0  0  0
    0.1895   63.8802   72.8653 H   0  0  0  0  0  0  0  0  0  0  0  0
   -1.0578   63.1145   71.8566 H   0  0  0  0  0  0  0  0  0  0  0  0
    3.8309   60.9681   70.8436 H   0  0  0  0  0  0  0  0  0  0  0  0
   -0.5782   60.8592   73.2431 H   0  0  0  0  0  0  0  0  0  0  0  0
   -0.1996   58.4862   75.1153 H   0  0  0  0  0  0  0  0  0  0  0  0
   -0.9685   59.3247   73.7252 H   0  0  0  0  0  0  0  0  0  0  0  0
   -0.8226   57.5343   73.7252 H   0  0  0  0  0  0  0  0  0  0  0  0
    3.5234   56.7939   71.2474 H   0  0  0  0  0  0  0  0  0  0  0  0
    2.4289   57.9157   70.3697 H   0  0  0  0  0  0  0  0  0  0  0  0
    4.2014   58.2070   70.3697 H   0  0  0  0  0  0  0  0  0  0  0  0
    1.7089   67.2316   70.4148 H   0  0  0  0  0  0  0  0  0  0  0  0
    1.8550   65.8084   69.3030 H   0  0  0  0  0  0  0  0  0  0  0  0
   -0.5374   66.3748   68.5466 H   0  0  0  0  0  0  0  0  0  0  0  0
   -0.2715   67.9658   69.3793 H   0  0  0  0  0  0  0  0  0  0  0  0
    3.4809   69.7191   66.7599 H   0  0  0  0  0  0  0  0  0  0  0  0
    2.3038   68.8859   68.7867 H   0  0  0  0  0  0  0  0  0  0  0  0
   -0.2764   66.5389   66.2420 H   0  0  0  0  0  0  0  0  0  0  0  0
    0.9420   67.4143   64.2586 H   0  0  0  0  0  0  0  0  0  0  0  0
    2.7296   70.1825   64.0860 H   0  0  0  0  0  0  0  0  0  0  0  0
    4.0633   69.0144   64.3821 H   0  0  0  0  0  0  0  0  0  0  0  0
    2.7737   67.8388   60.9736 H   0  0  0  0  0  0  0  0  0  0  0  0
    3.9739   69.1498   61.6597 H   0  0  0  0  0  0  0  0  0  0  0  0
    1.7353   67.6304   63.1279 H   0  0  0  0  0  0  0  0  0  0  0  0
  2  1  2  0
  3  1  1  0
  4  3  1  0
  5  4  1  0
  6  5  2  0
  7  6  1  0
  7  3  1  0
  8  6  1  0
  9  8  2  0
 10  9  1  0
 11 10  2  0
 11  5  1  0
 12 10  1  0
 13 12  1  0
 14  9  1  0
 15 14  1  0
 16  1  1  0
 17 16  1  0
 19 18  2  0
 20 19  1  0
 21 20  2  0
 21 17  1  0
 22 21  1  0
 23 22  2  0
 23 18  1  0
 24 18  1  0
 26 25  2  3
 26 24  1  0
  3 27  1  6
  4 28  1  0
  4 29  1  0
  8 30  1  0
 11 31  1  0
 13 32  1  0
 13 33  1  0
 13 34  1  0
 15 35  1  0
 15 36  1  0
 15 37  1  0
 16 38  1  0
 16 39  1  0
 17 40  1  0
 17 41  1  0
 19 42  1  0
 20 43  1  0
 22 44  1  0
 23 45  1  0
 24 46  1  0
 24 47  1  0
 25 48  1  0
 25 49  1  0
 26 50  1  0
M  CHG  1  18   1
M  END
>  <score>  (7) 
-7.884

$$$$
=
     RDKit          3D

 50 52  0  0  0  0  0  0  0  0999 V2000
    4.0140   61.7940   69.9340 C   0  0  0  0  0  0  0  0  0  0  0  0
    3.8580   61.7680   68.7120 O   0  0  0  0  0  0  0  0  0  0  0  0
    4.0690   60.5200   70.7640 C   0  0  2  0  0  0  0  0  0  0  0  0
    2.6790   59.9550   71.0990 C   0  0  0  0  0  0  0  0  0  0  0  0
    2.8180   59.1880   72.3840 C   0  0  0  0  0  0  0  0  0  0  0  0
    3.9120   59.5620   73.1620 C   0  0  0  0  0  0  0  0  0  0  0  0
    4.8980   60.7980   72.3690 S   0  0  0  0  0  0  0  0  0  0  0  0
    4.1470   58.9890   74.4030 C   0  0  0  0  0  0  0  0  0  0  0  0
    3.2600   58.0150   74.8760 C   0  0  0  0  0  0  0  0  0  0  0  0
    2.1400   57.6330   74.0940 C   0  0  0  0  0  0  0  0  0  0  0  0
    1.9200   58.2310   72.8450 C   0  0  0  0  0  0  0  0  0  0  0  0
    1.3270   56.6720   74.6440 O   0  0  0  0  0  0  0  0  0  0  0  0
    0.4150   56.0040   73.7860 C   0  0  0  0  0  0  0  0  0  0  0  0
    3.3920   57.3730   76.0830 O   0  0  0  0  0  0  0  0  0  0  0  0
    3.3710   58.1650   77.2620 C   0  0  0  0  0  0  0  0  0  0  0  0
    4.2430   63.1140   70.6580 C   0  0  0  0  0  0  0  0  0  0  0  0
    2.9800   63.9780   70.6660 C   0  0  0  0  0  0  0  0  0  0  0  0
   -0.0460   62.3650   73.2340 N   0  0  0  0  0  4  0  0  0  0  0  0
   -0.3540   62.6860   71.9560 C   0  0  0  0  0  0  0  0  0  0  0  0
    0.6100   63.2140   71.1050 C   0  0  0  0  0  0  0  0  0  0  0  0
    1.9100   63.4100   71.5690 C   0  0  0  0  0  0  0  0  0  0  0  0
    2.2010   63.0760   72.8920 C   0  0  0  0  0  0  0  0  0  0  0  0
    1.2070   62.5510   73.7090 C   0  0  0  0  0  0  0  0  0  0  0  0
   -1.0960   61.8050   74.1170 C   0  0  0  0  0  0  0  0  0  0  0  0
   -1.3190   59.3020   74.2330 C   0  0  0  0  0  0  0  0  0  0  0  0
   -1.5260   60.4660   73.6020 C   0  0  0  0  0  0  0  0  0  0  0  0
    4.6251   59.8094   70.1349 H   0  0  0  0  0  0  0  0  0  0  0  0
    1.9572   60.7756   71.2244 H   0  0  0  0  0  0  0  0  0  0  0  0
    2.3124   59.3056   70.2904 H   0  0  0  0  0  0  0  0  0  0  0  0
    5.0154   59.2947   75.0051 H   0  0  0  0  0  0  0  0  0  0  0  0
    1.0482   57.9469   72.2373 H   0  0  0  0  0  0  0  0  0  0  0  0
   -0.3264   55.4609   74.3904 H   0  0  0  0  0  0  0  0  0  0  0  0
   -0.0984   56.7412   73.1513 H   0  0  0  0  0  0  0  0  0  0  0  0
    0.9630   55.2921   73.1513 H   0  0  0  0  0  0  0  0  0  0  0  0
    3.3884   57.5089   78.1448 H   0  0  0  0  0  0  0  0  0  0  0  0
    4.2520   58.8235   77.2771 H   0  0  0  0  0  0  0  0  0  0  0  0
    2.4563   58.7759   77.2771 H   0  0  0  0  0  0  0  0  0  0  0  0
    4.5392   62.9049   71.6965 H   0  0  0  0  0  0  0  0  0  0  0  0
    5.0337   63.6649   70.1276 H   0  0  0  0  0  0  0  0  0  0  0  0
    3.2423   64.9868   71.0175 H   0  0  0  0  0  0  0  0  0  0  0  0
    2.5805   64.0043   69.6415 H   0  0  0  0  0  0  0  0  0  0  0  0
   -1.3779   62.5274   71.5867 H   0  0  0  0  0  0  0  0  0  0  0  0
    0.3481   63.4762   70.0693 H   0  0  0  0  0  0  0  0  0  0  0  0
    3.2160   63.2280   73.2879 H   0  0  0  0  0  0  0  0  0  0  0  0
    1.4409   62.2845   74.7503 H   0  0  0  0  0  0  0  0  0  0  0  0
   -0.6963   61.6940   75.1358 H   0  0  0  0  0  0  0  0  0  0  0  0
   -1.9607   62.4848   74.1320 H   0  0  0  0  0  0  0  0  0  0  0  0
   -1.6692   58.3619   73.7818 H   0  0  0  0  0  0  0  0  0  0  0  0
   -0.7989   59.2867   75.2022 H   0  0  0  0  0  0  0  0  0  0  0  0
   -2.0500   60.4358   72.6353 H   0  0  0  0  0  0  0  0  0  0  0  0
  2  1  2  0
  3  1  1  0
  4  3  1  0
  5  4  1  0
  6  5  2  0
  7  6  1  0
  7  3  1  0
  8  6  1  0
  9  8  2  0
 10  9  1  0
 11 10  2  0
 11  5  1  0
 12 10  1  0
 13 12  1  0
 14  9  1  0
 15 14  1  0
 16  1  1  0
 17 16  1  0
 19 18  2  0
 20 19  1  0
 21 20  2  0
 21 17  1  0
 22 21  1  0
 23 22  2  0
 23 18  1  0
 24 18  1  0
 26 25  2  3
 26 24  1  0
  3 27  1  6
  4 28  1  0
  4 29  1  0
  8 30  1  0
 11 31  1  0
 13 32  1  0
 13 33  1  0
 13 34  1  0
 15 35  1  0
 15 36  1  0
 15 37  1  0
 16 38  1  0
 16 39  1  0
 17 40  1  0
 17 41  1  0
 19 42  1  0
 20 43  1  0
 22 44  1  0
 23 45  1  0
 24 46  1  0
 24 47  1  0
 25 48  1  0
 25 49  1  0
 26 50  1  0
M  CHG  1  18   1
M  END
>  <score>  (8) 
-7.601

$$$$
=
     RDKit          3D

 50 52  0  0  0  0  0  0  0  0999 V2000
    0.4440   64.7310   71.8130 C   0  0  0  0  0  0  0  0  0  0  0  0
   -0.3340   65.2720   72.6010 O   0  0  0  0  0  0  0  0  0  0  0  0
    1.4240   63.6570   72.2610 C   0  0  2  0  0  0  0  0  0  0  0  0
    1.3950   62.4030   71.3730 C   0  0  0  0  0  0  0  0  0  0  0  0
    1.8310   61.2490   72.2320 C   0  0  0  0  0  0  0  0  0  0  0  0
    1.6670   61.4580   73.6000 C   0  0  0  0  0  0  0  0  0  0  0  0
    1.0600   63.0800   73.9560 S   0  0  0  0  0  0  0  0  0  0  0  0
    1.9690   60.4670   74.5230 C   0  0  0  0  0  0  0  0  0  0  0  0
    2.4480   59.2360   74.0610 C   0  0  0  0  0  0  0  0  0  0  0  0
    2.6120   59.0140   72.6710 C   0  0  0  0  0  0  0  0  0  0  0  0
    2.2940   60.0270   71.7560 C   0  0  0  0  0  0  0  0  0  0  0  0
    3.0840   57.7740   72.3160 O   0  0  0  0  0  0  0  0  0  0  0  0
    3.0720   57.4280   70.9380 C   0  0  0  0  0  0  0  0  0  0  0  0
    2.7860   58.1840   74.8780 O   0  0  0  0  0  0  0  0  0  0  0  0
    3.8440   58.3770   75.8060 C   0  0  0  0  0  0  0  0  0  0  0  0
    0.3980   65.0650   70.3270 C   0  0  0  0  0  0  0  0  0  0  0  0
    0.9740   66.4540   70.0440 C   0  0  0  0  0  0  0  0  0  0  0  0
   -0.5900   68.1460   66.4310 N   0  0  0  0  0  4  0  0  0  0  0  0
   -1.3900   67.3900   67.2180 C   0  0  0  0  0  0  0  0  0  0  0  0
   -0.9050   66.8270   68.3930 C   0  0  0  0  0  0  0  0  0  0  0  0
    0.4190   67.0480   68.7700 C   0  0  0  0  0  0  0  0  0  0  0  0
    1.2260   67.8270   67.9400 C   0  0  0  0  0  0  0  0  0  0  0  0
    0.7000   68.3700   66.7740 C   0  0  0  0  0  0  0  0  0  0  0  0
   -1.1360   68.7310   65.1850 C   0  0  0  0  0  0  0  0  0  0  0  0
   -0.1670   69.0870   62.8910 C   0  0  0  0  0  0  0  0  0  0  0  0
   -0.0200   68.9890   64.2190 C   0  0  0  0  0  0  0  0  0  0  0  0
    2.4087   64.1433   72.1977 H   0  0  0  0  0  0  0  0  0  0  0  0
    0.3762   62.2301   70.9959 H   0  0  0  0  0  0  0  0  0  0  0  0
    2.0598   62.5203   70.5045 H   0  0  0  0  0  0  0  0  0  0  0  0
    1.8341   60.6460   75.5999 H   0  0  0  0  0  0  0  0  0  0  0  0
    2.4092   59.8577   70.6752 H   0  0  0  0  0  0  0  0  0  0  0  0
    3.0340   56.3335   70.8351 H   0  0  0  0  0  0  0  0  0  0  0  0
    2.1887   57.8725   70.4560 H   0  0  0  0  0  0  0  0  0  0  0  0
    3.9839   57.8102   70.4560 H   0  0  0  0  0  0  0  0  0  0  0  0
    3.4506   58.3052   76.8307 H   0  0  0  0  0  0  0  0  0  0  0  0
    4.6115   57.6040   75.6529 H   0  0  0  0  0  0  0  0  0  0  0  0
    4.2892   59.3712   75.6529 H   0  0  0  0  0  0  0  0  0  0  0  0
    0.9843   64.3160   69.7744 H   0  0  0  0  0  0  0  0  0  0  0  0
   -0.6537   65.0564   70.0047 H   0  0  0  0  0  0  0  0  0  0  0  0
    0.7254   67.1195   70.8839 H   0  0  0  0  0  0  0  0  0  0  0  0
    2.0629   66.3527   69.9256 H   0  0  0  0  0  0  0  0  0  0  0  0
   -2.4363   67.2189   66.9247 H   0  0  0  0  0  0  0  0  0  0  0  0
   -1.5630   66.2099   69.0225 H   0  0  0  0  0  0  0  0  0  0  0  0
    2.2768   68.0110   68.2082 H   0  0  0  0  0  0  0  0  0  0  0  0
    1.3376   68.9873   66.1241 H   0  0  0  0  0  0  0  0  0  0  0  0
   -1.8543   68.0296   64.7355 H   0  0  0  0  0  0  0  0  0  0  0  0
   -1.6432   69.6788   65.4184 H   0  0  0  0  0  0  0  0  0  0  0  0
    0.7086   69.2785   62.2534 H   0  0  0  0  0  0  0  0  0  0  0  0
   -1.1633   68.9759   62.4382 H   0  0  0  0  0  0  0  0  0  0  0  0
    0.9935   69.1065   64.6301 H   0  0  0  0  0  0  0  0  0  0  0  0
  2  1  2  0
  3  1  1  0
  4  3  1  0
  5  4  1  0
  6  5  2  0
  7  6  1  0
  7  3  1  0
  8  6  1  0
  9  8  2  0
 10  9  1  0
 11 10  2  0
 11  5  1  0
 12 10  1  0
 13 12  1  0
 14  9  1  0
 15 14  1  0
 16  1  1  0
 17 16  1  0
 19 18  2  0
 20 19  1  0
 21 20  2  0
 21 17  1  0
 22 21  1  0
 23 22  2  0
 23 18  1  0
 24 18  1  0
 26 25  2  3
 26 24  1  0
  3 27  1  1
  4 28  1  0
  4 29  1  0
  8 30  1  0
 11 31  1  0
 13 32  1  0
 13 33  1  0
 13 34  1  0
 15 35  1  0
 15 36  1  0
 15 37  1  0
 16 38  1  0
 16 39  1  0
 17 40  1  0
 17 41  1  0
 19 42  1  0
 20 43  1  0
 22 44  1  0
 23 45  1  0
 24 46  1  0
 24 47  1  0
 25 48  1  0
 25 49  1  0
 26 50  1  0
M  CHG  1  18   1
M  END
>  <score>  (9) 
-7.423

$$$$
