=
     RDKit          3D

 54 59  0  0  0  0  0  0  0  0999 V2000
    4.1510   62.4810   68.8280 C   0  0  1  0  0  0  0  0  0  0  0  0
    4.6420   63.4420   69.9050 C   0  0  0  0  0  0  0  0  0  0  0  0
    5.0940   62.7420   71.1960 C   0  0  0  0  0  0  0  0  0  0  0  0
    4.4830   61.3410   71.4230 C   0  0  2  0  0  0  0  0  0  0  0  0
    3.1180   61.1200   70.7500 C   0  0  2  0  0  0  0  0  0  0  0  0
    2.9750   61.6030   69.2930 C   0  0  1  0  0  0  0  0  0  0  0  0
    1.7110   62.3360   69.1770 O   0  0  0  0  0  0  0  0  0  0  0  0
    1.3410   62.6410   70.4580 C   0  0  0  0  0  0  0  0  0  0  0  0
    2.1440   62.0370   71.4010 C   0  0  0  0  0  0  0  0  0  0  0  0
    2.0920   62.3600   72.7460 C   0  0  0  0  0  0  0  0  0  0  0  0
    3.1800   61.8650   73.6620 C   0  0  0  0  0  0  0  0  0  0  0  0
    4.2750   61.0200   72.9470 C   0  0  1  0  0  0  0  0  0  0  0  0
    3.9670   59.5010   72.9960 N   0  0  2  0  0  4  0  0  0  0  0  0
    2.6690   59.1320   72.3200 C   0  0  0  0  0  0  0  0  0  0  0  0
    2.6400   59.6580   70.8870 C   0  0  0  0  0  0  0  0  0  0  0  0
    1.0830   63.2360   73.1520 C   0  0  0  0  0  0  0  0  0  0  0  0
    0.1990   63.7950   72.2050 C   0  0  0  0  0  0  0  0  0  0  0  0
    0.3460   63.5110   70.8440 C   0  0  0  0  0  0  0  0  0  0  0  0
    3.8060   63.2110   67.6580 O   0  0  0  0  0  0  0  0  0  0  0  0
   -0.4420   64.0920   69.9020 O   0  0  0  0  0  0  0  0  0  0  0  0
    5.4070   60.3310   70.9430 O   0  0  0  0  0  0  0  0  0  0  0  0
    4.1240   58.8280   74.3430 C   0  0  0  0  0  0  0  0  0  0  0  0
    2.8460   58.2120   74.8800 C   0  0  0  0  0  0  0  0  0  0  0  0
    2.1200   58.9640   76.0280 C   0  0  0  0  0  0  0  0  0  0  0  0
    1.7900   57.5820   76.6270 C   0  0  0  0  0  0  0  0  0  0  0  0
    3.0320   57.0450   75.8880 C   0  0  0  0  0  0  0  0  0  0  0  0
    4.9766   61.7893   68.6044 H   0  0  0  0  0  0  0  0  0  0  0  0
    5.4929   64.0106   69.5017 H   0  0  0  0  0  0  0  0  0  0  0  0
    3.7933   64.0896   70.1700 H   0  0  0  0  0  0  0  0  0  0  0  0
    6.1884   62.6364   71.1626 H   0  0  0  0  0  0  0  0  0  0  0  0
    4.7431   63.3707   72.0276 H   0  0  0  0  0  0  0  0  0  0  0  0
    2.9817   60.7208   68.6359 H   0  0  0  0  0  0  0  0  0  0  0  0
    3.6642   62.7367   74.1264 H   0  0  0  0  0  0  0  0  0  0  0  0
    2.6993   61.2046   74.3988 H   0  0  0  0  0  0  0  0  0  0  0  0
    5.1795   61.2934   73.5102 H   0  0  0  0  0  0  0  0  0  0  0  0
    4.7321   59.1024   72.4332 H   0  0  0  0  0  0  0  0  0  0  0  0
    2.5680   58.0368   72.3050 H   0  0  0  0  0  0  0  0  0  0  0  0
    1.8370   59.5837   72.8801 H   0  0  0  0  0  0  0  0  0  0  0  0
    3.2912   59.0210   70.2705 H   0  0  0  0  0  0  0  0  0  0  0  0
    1.5909   59.6317   70.5572 H   0  0  0  0  0  0  0  0  0  0  0  0
    0.9768   63.4917   74.2166 H   0  0  0  0  0  0  0  0  0  0  0  0
   -0.6116   64.4589   72.5399 H   0  0  0  0  0  0  0  0  0  0  0  0
    3.3977   64.0750   67.9165 H   0  0  0  0  0  0  0  0  0  0  0  0
   -1.1589   64.7183   70.1740 H   0  0  0  0  0  0  0  0  0  0  0  0
    5.8257   59.8734   71.7146 H   0  0  0  0  0  0  0  0  0  0  0  0
    4.8769   58.0320   74.2458 H   0  0  0  0  0  0  0  0  0  0  0  0
    4.4229   59.6106   75.0558 H   0  0  0  0  0  0  0  0  0  0  0  0
    2.3749   58.0795   73.8948 H   0  0  0  0  0  0  0  0  0  0  0  0
    2.7737   59.5910   76.6521 H   0  0  0  0  0  0  0  0  0  0  0  0
    1.3381   59.7115   75.8285 H   0  0  0  0  0  0  0  0  0  0  0  0
    1.8503   57.5306   77.7241 H   0  0  0  0  0  0  0  0  0  0  0  0
    0.7990   57.1197   76.5075 H   0  0  0  0  0  0  0  0  0  0  0  0
    2.9110   56.0407   75.4557 H   0  0  0  0  0  0  0  0  0  0  0  0
    3.9866   56.8729   76.4068 H   0  0  0  0  0  0  0  0  0  0  0  0
  2  1  1  0
  3  2  1  0
  4  3  1  0
  5  4  1  0
  6  5  1  0
  6  1  1  0
  7  6  1  0
  8  7  1  0
  9  8  2  0
  9  5  1  0
 10  9  1  0
 11 10  1  0
 12 11  1  0
 12  4  1  0
 13 12  1  0
 14 13  1  0
 15 14  1  0
  5 15  1  6
 16 10  2  0
 17 16  1  0
 18  8  1  0
 18 17  2  0
 19  1  1  0
 20 18  1  0
  4 21  1  6
 22 13  1  0
 23 22  1  0
 24 23  1  0
 25 24  1  0
 26 23  1  0
 26 25  1  0
  1 27  1  6
  2 28  1  0
  2 29  1  0
  3 30  1  0
  3 31  1  0
  6 32  1  6
 11 33  1  0
 11 34  1  0
 12 35  1  1
 13 36  1  6
 14 37  1  0
 14 38  1  0
 15 39  1  0
 15 40  1  0
 16 41  1  0
 17 42  1  0
 19 43  1  0
 20 44  1  0
 21 45  1  0
 22 46  1  0
 22 47  1  0
 23 48  1  0
 24 49  1  0
 24 50  1  0
 25 51  1  0
 25 52  1  0
 26 53  1  0
 26 54  1  0
M  CHG  1  13   1
M  END
>  <score>  (1) 
-8.667

$$$$
=
     RDKit          3D

 54 59  0  0  0  0  0  0  0  0999 V2000
    2.2890   57.8010   75.0100 C   0  0  1  0  0  0  0  0  0  0  0  0
    3.5630   58.6270   75.1550 C   0  0  0  0  0  0  0  0  0  0  0  0
    3.3140   60.1420   75.1880 C   0  0  0  0  0  0  0  0  0  0  0  0
    1.9930   60.5980   74.5280 C   0  0  2  0  0  0  0  0  0  0  0  0
    1.4650   59.6580   73.4320 C   0  0  2  0  0  0  0  0  0  0  0  0
    1.4860   58.1480   73.7430 C   0  0  1  0  0  0  0  0  0  0  0  0
    2.0390   57.4500   72.5790 O   0  0  0  0  0  0  0  0  0  0  0  0
    2.6720   58.4090   71.8380 C   0  0  0  0  0  0  0  0  0  0  0  0
    2.4440   59.6830   72.3120 C   0  0  0  0  0  0  0  0  0  0  0  0
    3.1400   60.7880   71.8540 C   0  0  0  0  0  0  0  0  0  0  0  0
    3.0330   62.0870   72.6080 C   0  0  0  0  0  0  0  0  0  0  0  0
    2.1150   62.0180   73.8640 C   0  0  1  0  0  0  0  0  0  0  0  0
    0.6560   62.4360   73.5460 N   0  0  2  0  0  4  0  0  0  0  0  0
   -0.0070   61.5570   72.5140 C   0  0  0  0  0  0  0  0  0  0  0  0
    0.0720   60.0900   72.9260 C   0  0  0  0  0  0  0  0  0  0  0  0
    4.0050   60.5940   70.7740 C   0  0  0  0  0  0  0  0  0  0  0  0
    4.1820   59.3060   70.2250 C   0  0  0  0  0  0  0  0  0  0  0  0
    3.5260   58.2030   70.7780 C   0  0  0  0  0  0  0  0  0  0  0  0
    2.6110   56.4170   75.0430 O   0  0  0  0  0  0  0  0  0  0  0  0
    3.7340   56.9410   70.3180 O   0  0  0  0  0  0  0  0  0  0  0  0
    0.9720   60.7420   75.5480 O   0  0  0  0  0  0  0  0  0  0  0  0
    0.4240   63.9080   73.2820 C   0  0  0  0  0  0  0  0  0  0  0  0
    0.1890   64.2450   71.8210 C   0  0  0  0  0  0  0  0  0  0  0  0
    1.4410   64.4710   70.9320 C   0  0  0  0  0  0  0  0  0  0  0  0
    0.6480   65.5880   70.2250 C   0  0  0  0  0  0  0  0  0  0  0  0
   -0.1760   65.7240   71.5220 C   0  0  0  0  0  0  0  0  0  0  0  0
    1.6371   58.0505   75.8602 H   0  0  0  0  0  0  0  0  0  0  0  0
    4.0611   58.3361   76.0916 H   0  0  0  0  0  0  0  0  0  0  0  0
    4.1827   58.4215   74.2697 H   0  0  0  0  0  0  0  0  0  0  0  0
    3.2992   60.4632   76.2400 H   0  0  0  0  0  0  0  0  0  0  0  0
    4.1255   60.6012   74.6043 H   0  0  0  0  0  0  0  0  0  0  0  0
    0.4542   57.8243   73.9447 H   0  0  0  0  0  0  0  0  0  0  0  0
    4.0416   62.3822   72.9328 H   0  0  0  0  0  0  0  0  0  0  0  0
    2.5780   62.8162   71.9216 H   0  0  0  0  0  0  0  0  0  0  0  0
    2.6184   62.7095   74.5556 H   0  0  0  0  0  0  0  0  0  0  0  0
    0.1778   62.2704   74.4431 H   0  0  0  0  0  0  0  0  0  0  0  0
   -1.0632   61.8484   72.4160 H   0  0  0  0  0  0  0  0  0  0  0  0
    0.5139   61.6837   71.5535 H   0  0  0  0  0  0  0  0  0  0  0  0
   -0.6582   59.9160   73.7301 H   0  0  0  0  0  0  0  0  0  0  0  0
   -0.1410   59.4933   72.0268 H   0  0  0  0  0  0  0  0  0  0  0  0
    4.5508   61.4495   70.3495 H   0  0  0  0  0  0  0  0  0  0  0  0
    4.8413   59.1693   69.3552 H   0  0  0  0  0  0  0  0  0  0  0  0
    2.6808   56.1168   75.9838 H   0  0  0  0  0  0  0  0  0  0  0  0
    4.3470   56.7866   69.5561 H   0  0  0  0  0  0  0  0  0  0  0  0
    1.3897   60.6831   76.4436 H   0  0  0  0  0  0  0  0  0  0  0  0
   -0.4580   64.2274   73.8566 H   0  0  0  0  0  0  0  0  0  0  0  0
    1.3414   64.4336   73.5856 H   0  0  0  0  0  0  0  0  0  0  0  0
   -0.5027   63.4106   71.6331 H   0  0  0  0  0  0  0  0  0  0  0  0
    2.3340   64.8144   71.4748 H   0  0  0  0  0  0  0  0  0  0  0  0
    1.9107   63.6491   70.3717 H   0  0  0  0  0  0  0  0  0  0  0  0
    1.2408   66.4765   69.9619 H   0  0  0  0  0  0  0  0  0  0  0  0
    0.1693   65.4301   69.2473 H   0  0  0  0  0  0  0  0  0  0  0  0
   -1.2490   65.9104   71.3674 H   0  0  0  0  0  0  0  0  0  0  0  0
    0.0141   66.5273   72.2490 H   0  0  0  0  0  0  0  0  0  0  0  0
  2  1  1  0
  3  2  1  0
  4  3  1  0
  5  4  1  0
  6  5  1  0
  6  1  1  0
  7  6  1  0
  8  7  1  0
  9  8  2  0
  9  5  1  0
 10  9  1  0
 11 10  1  0
 12 11  1  0
 12  4  1  0
 13 12  1  0
 14 13  1  0
 15 14  1  0
  5 15  1  6
 16 10  2  0
 17 16  1  0
 18  8  1  0
 18 17  2  0
 19  1  1  0
 20 18  1  0
  4 21  1  1
 22 13  1  0
 23 22  1  0
 24 23  1  0
 25 24  1  0
 26 23  1  0
 26 25  1  0
  1 27  1  1
  2 28  1  0
  2 29  1  0
  3 30  1  0
  3 31  1  0
  6 32  1  1
 11 33  1  0
 11 34  1  0
 12 35  1  1
 13 36  1  1
 14 37  1  0
 14 38  1  0
 15 39  1  0
 15 40  1  0
 16 41  1  0
 17 42  1  0
 19 43  1  0
 20 44  1  0
 21 45  1  0
 22 46  1  0
 22 47  1  0
 23 48  1  0
 24 49  1  0
 24 50  1  0
 25 51  1  0
 25 52  1  0
 26 53  1  0
 26 54  1  0
M  CHG  1  13   1
M  END
>  <score>  (2) 
-8.344

$$$$
=
     RDKit          3D

 54 59  0  0  0  0  0  0  0  0999 V2000
    3.5720   65.0640   63.5620 C   0  0  1  0  0  0  0  0  0  0  0  0
    4.0730   65.1440   65.0000 C   0  0  0  0  0  0  0  0  0  0  0  0
    3.0630   65.7750   65.9700 C   0  0  0  0  0  0  0  0  0  0  0  0
    2.0180   66.7010   65.3080 C   0  0  2  0  0  0  0  0  0  0  0  0
    2.4790   67.3520   63.9930 C   0  0  2  0  0  0  0  0  0  0  0  0
    3.1930   66.4380   62.9780 C   0  0  1  0  0  0  0  0  0  0  0  0
    4.3870   67.1370   62.4950 O   0  0  0  0  0  0  0  0  0  0  0  0
    4.6190   68.1390   63.3960 C   0  0  0  0  0  0  0  0  0  0  0  0
    3.6040   68.2690   64.3190 C   0  0  0  0  0  0  0  0  0  0  0  0
    3.7110   69.0710   65.4420 C   0  0  0  0  0  0  0  0  0  0  0  0
    2.6820   68.9450   66.5350 C   0  0  0  0  0  0  0  0  0  0  0  0
    1.5820   67.8810   66.2500 C   0  0  1  0  0  0  0  0  0  0  0  0
    0.3340   68.4970   65.5670 N   0  0  2  0  0  4  0  0  0  0  0  0
    0.6350   69.1310   64.2300 C   0  0  0  0  0  0  0  0  0  0  0  0
    1.3380   68.1370   63.3100 C   0  0  0  0  0  0  0  0  0  0  0  0
    4.8510   69.8720   65.5470 C   0  0  0  0  0  0  0  0  0  0  0  0
    5.8590   69.8110   64.5610 C   0  0  0  0  0  0  0  0  0  0  0  0
    5.7500   68.9190   63.4900 C   0  0  0  0  0  0  0  0  0  0  0  0
    4.5470   64.4220   62.7520 O   0  0  0  0  0  0  0  0  0  0  0  0
    6.7370   68.7840   62.5660 O   0  0  0  0  0  0  0  0  0  0  0  0
    0.8040   65.9490   65.0540 O   0  0  0  0  0  0  0  0  0  0  0  0
   -0.5400   69.3760   66.4350 C   0  0  0  0  0  0  0  0  0  0  0  0
   -1.5170   68.6100   67.3070 C   0  0  0  0  0  0  0  0  0  0  0  0
   -1.1220   67.1670   67.7220 C   0  0  0  0  0  0  0  0  0  0  0  0
   -2.6070   66.7900   67.5560 C   0  0  0  0  0  0  0  0  0  0  0  0
   -2.7210   67.9680   66.5660 C   0  0  0  0  0  0  0  0  0  0  0  0
    2.6459   64.4705   63.5695 H   0  0  0  0  0  0  0  0  0  0  0  0
    4.2979   64.1246   65.3469 H   0  0  0  0  0  0  0  0  0  0  0  0
    4.9627   65.7908   64.9956 H   0  0  0  0  0  0  0  0  0  0  0  0
    2.5252   64.9623   66.4801 H   0  0  0  0  0  0  0  0  0  0  0  0
    3.6464   66.4076   66.6552 H   0  0  0  0  0  0  0  0  0  0  0  0
    2.4963   66.2305   62.1524 H   0  0  0  0  0  0  0  0  0  0  0  0
    3.1984   68.6677   67.4658 H   0  0  0  0  0  0  0  0  0  0  0  0
    2.1730   69.9175   66.6063 H   0  0  0  0  0  0  0  0  0  0  0  0
    1.3715   67.4930   67.2575 H   0  0  0  0  0  0  0  0  0  0  0  0
   -0.2520   67.6686   65.3903 H   0  0  0  0  0  0  0  0  0  0  0  0
   -0.3072   69.4526   63.7621 H   0  0  0  0  0  0  0  0  0  0  0  0
    1.2959   69.9959   64.3885 H   0  0  0  0  0  0  0  0  0  0  0  0
    0.5920   67.4160   62.9443 H   0  0  0  0  0  0  0  0  0  0  0  0
    1.7941   68.7213   62.4972 H   0  0  0  0  0  0  0  0  0  0  0  0
    4.9635   70.5539   66.4028 H   0  0  0  0  0  0  0  0  0  0  0  0
    6.7366   70.4700   64.6357 H   0  0  0  0  0  0  0  0  0  0  0  0
    5.2178   63.9803   63.3307 H   0  0  0  0  0  0  0  0  0  0  0  0
    7.5526   69.3417   62.6279 H   0  0  0  0  0  0  0  0  0  0  0  0
    0.3888   65.6918   65.9152 H   0  0  0  0  0  0  0  0  0  0  0  0
    0.1122   69.9731   67.0893 H   0  0  0  0  0  0  0  0  0  0  0  0
   -1.1415   69.9963   65.7542 H   0  0  0  0  0  0  0  0  0  0  0  0
   -1.6342   69.4084   68.0546 H   0  0  0  0  0  0  0  0  0  0  0  0
   -0.4385   66.6595   67.0254 H   0  0  0  0  0  0  0  0  0  0  0  0
   -0.5717   66.9610   68.6519 H   0  0  0  0  0  0  0  0  0  0  0  0
   -2.7825   65.7987   67.1127 H   0  0  0  0  0  0  0  0  0  0  0  0
   -3.2804   66.6914   68.4201 H   0  0  0  0  0  0  0  0  0  0  0  0
   -3.6598   68.5372   66.6349 H   0  0  0  0  0  0  0  0  0  0  0  0
   -2.7172   67.8136   65.4769 H   0  0  0  0  0  0  0  0  0  0  0  0
  2  1  1  0
  3  2  1  0
  4  3  1  0
  5  4  1  0
  6  5  1  0
  6  1  1  0
  7  6  1  0
  8  7  1  0
  9  8  2  0
  9  5  1  0
 10  9  1  0
 11 10  1  0
 12 11  1  0
 12  4  1  0
 13 12  1  0
 14 13  1  0
 15 14  1  0
  5 15  1  6
 16 10  2  0
 17 16  1  0
 18  8  1  0
 18 17  2  0
 19  1  1  0
 20 18  1  0
  4 21  1  6
 22 13  1  0
 23 22  1  0
 24 23  1  0
 25 24  1  0
 26 23  1  0
 26 25  1  0
  1 27  1  1
  2 28  1  0
  2 29  1  0
  3 30  1  0
  3 31  1  0
  6 32  1  6
 11 33  1  0
 11 34  1  0
 12 35  1  1
 13 36  1  6
 14 37  1  0
 14 38  1  0
 15 39  1  0
 15 40  1  0
 16 41  1  0
 17 42  1  0
 19 43  1  0
 20 44  1  0
 21 45  1  0
 22 46  1  0
 22 47  1  0
 23 48  1  0
 24 49  1  0
 24 50  1  0
 25 51  1  0
 25 52  1  0
 26 53  1  0
 26 54  1  0
M  CHG  1  13   1
M  END
>  <score>  (3) 
-7.472

$$$$
=
     RDKit          3D

 54 59  0  0  0  0  0  0  0  0999 V2000
    0.6510   62.4930   73.4090 C   0  0  1  0  0  0  0  0  0  0  0  0
   -0.1480   61.5460   72.5190 C   0  0  0  0  0  0  0  0  0  0  0  0
   -0.1550   60.0930   73.0170 C   0  0  0  0  0  0  0  0  0  0  0  0
    1.0310   59.7130   73.9310 C   0  0  2  0  0  0  0  0  0  0  0  0
    2.3050   60.5450   73.7080 C   0  0  2  0  0  0  0  0  0  0  0  0
    2.1230   62.0700   73.5710 C   0  0  1  0  0  0  0  0  0  0  0  0
    2.9150   62.5220   72.4240 O   0  0  0  0  0  0  0  0  0  0  0  0
    3.1910   61.3970   71.6970 C   0  0  0  0  0  0  0  0  0  0  0  0
    2.8050   60.2410   72.3410 C   0  0  0  0  0  0  0  0  0  0  0  0
    2.7930   59.0050   71.7170 C   0  0  0  0  0  0  0  0  0  0  0  0
    2.1020   57.8500   72.3920 C   0  0  0  0  0  0  0  0  0  0  0  0
    1.4570   58.2090   73.7630 C   0  0  1  0  0  0  0  0  0  0  0  0
    2.4150   57.9310   74.9510 N   0  0  2  0  0  4  0  0  0  0  0  0
    3.6950   58.7290   74.8870 C   0  0  0  0  0  0  0  0  0  0  0  0
    3.3940   60.2190   74.7540 C   0  0  0  0  0  0  0  0  0  0  0  0
    3.3270   58.9360   70.4280 C   0  0  0  0  0  0  0  0  0  0  0  0
    3.8050   60.1010   69.7910 C   0  0  0  0  0  0  0  0  0  0  0  0
    3.7140   61.3440   70.4240 C   0  0  0  0  0  0  0  0  0  0  0  0
    0.5580   63.8170   72.9020 O   0  0  0  0  0  0  0  0  0  0  0  0
    4.0970   62.4920   69.8070 O   0  0  0  0  0  0  0  0  0  0  0  0
    0.6280   59.8420   75.3180 O   0  0  0  0  0  0  0  0  0  0  0  0
    2.6620   56.4760   75.2870 C   0  0  0  0  0  0  0  0  0  0  0  0
    1.5080   55.5550   74.9350 C   0  0  0  0  0  0  0  0  0  0  0  0
    1.1600   54.4300   75.9470 C   0  0  0  0  0  0  0  0  0  0  0  0
    0.8690   53.5280   74.7310 C   0  0  0  0  0  0  0  0  0  0  0  0
    1.8360   54.4200   73.9270 C   0  0  0  0  0  0  0  0  0  0  0  0
    0.2092   62.4491   74.4154 H   0  0  0  0  0  0  0  0  0  0  0  0
   -1.1873   61.9037   72.4755 H   0  0  0  0  0  0  0  0  0  0  0  0
    0.3363   61.5461   71.5314 H   0  0  0  0  0  0  0  0  0  0  0  0
   -1.0860   59.9290   73.5794 H   0  0  0  0  0  0  0  0  0  0  0  0
   -0.0698   59.4596   72.1217 H   0  0  0  0  0  0  0  0  0  0  0  0
    2.4693   62.5428   74.5019 H   0  0  0  0  0  0  0  0  0  0  0  0
    1.3098   57.4826   71.7231 H   0  0  0  0  0  0  0  0  0  0  0  0
    2.8735   57.0921   72.5929 H   0  0  0  0  0  0  0  0  0  0  0  0
    0.5638   57.5670   73.7722 H   0  0  0  0  0  0  0  0  0  0  0  0
    1.8748   58.2791   75.7559 H   0  0  0  0  0  0  0  0  0  0  0  0
    4.2738   58.5580   75.8066 H   0  0  0  0  0  0  0  0  0  0  0  0
    4.2713   58.4042   74.0082 H   0  0  0  0  0  0  0  0  0  0  0  0
    3.0582   60.5935   75.7323 H   0  0  0  0  0  0  0  0  0  0  0  0
    4.3207   60.7035   74.4127 H   0  0  0  0  0  0  0  0  0  0  0  0
    3.3752   57.9685   69.9068 H   0  0  0  0  0  0  0  0  0  0  0  0
    4.2526   60.0304   68.7887 H   0  0  0  0  0  0  0  0  0  0  0  0
    0.5131   64.4568   73.6562 H   0  0  0  0  0  0  0  0  0  0  0  0
    4.4736   62.4603   68.8920 H   0  0  0  0  0  0  0  0  0  0  0  0
    1.3866   59.5992   75.9060 H   0  0  0  0  0  0  0  0  0  0  0  0
    3.5527   56.1403   74.7356 H   0  0  0  0  0  0  0  0  0  0  0  0
    2.7920   56.4196   76.3778 H   0  0  0  0  0  0  0  0  0  0  0  0
    0.7961   56.3633   74.7115 H   0  0  0  0  0  0  0  0  0  0  0  0
    2.0012   54.0992   76.5739 H   0  0  0  0  0  0  0  0  0  0  0  0
    0.4225   54.5786   76.7495 H   0  0  0  0  0  0  0  0  0  0  0  0
    1.1952   52.4837   74.8454 H   0  0  0  0  0  0  0  0  0  0  0  0
   -0.1575   53.3303   74.3885 H   0  0  0  0  0  0  0  0  0  0  0  0
    1.5234   54.6202   72.8915 H   0  0  0  0  0  0  0  0  0  0  0  0
    2.8706   54.1119   73.7158 H   0  0  0  0  0  0  0  0  0  0  0  0
  2  1  1  0
  3  2  1  0
  4  3  1  0
  5  4  1  0
  6  5  1  0
  6  1  1  0
  7  6  1  0
  8  7  1  0
  9  8  2  0
  9  5  1  0
 10  9  1  0
 11 10  1  0
 12 11  1  0
 12  4  1  0
 13 12  1  0
 14 13  1  0
 15 14  1  0
  5 15  1  1
 16 10  2  0
 17 16  1  0
 18  8  1  0
 18 17  2  0
 19  1  1  0
 20 18  1  0
  4 21  1  1
 22 13  1  0
 23 22  1  0
 24 23  1  0
 25 24  1  0
 26 23  1  0
 26 25  1  0
  1 27  1  1
  2 28  1  0
  2 29  1  0
  3 30  1  0
  3 31  1  0
  6 32  1  1
 11 33  1  0
 11 34  1  0
 12 35  1  1
 13 36  1  1
 14 37  1  0
 14 38  1  0
 15 39  1  0
 15 40  1  0
 16 41  1  0
 17 42  1  0
 19 43  1  0
 20 44  1  0
 21 45  1  0
 22 46  1  0
 22 47  1  0
 23 48  1  0
 24 49  1  0
 24 50  1  0
 25 51  1  0
 25 52  1  0
 26 53  1  0
 26 54  1  0
M  CHG  1  13   1
M  END
>  <score>  (4) 
-7.413

$$$$
=
     RDKit          3D

 54 59  0  0  0  0  0  0  0  0999 V2000
    2.2950   57.2220   74.9530 C   0  0  1  0  0  0  0  0  0  0  0  0
    3.5150   58.0860   75.2540 C   0  0  0  0  0  0  0  0  0  0  0  0
    3.1710   59.5540   75.5470 C   0  0  0  0  0  0  0  0  0  0  0  0
    1.8250   60.0360   74.9610 C   0  0  2  0  0  0  0  0  0  0  0  0
    1.3580   59.2710   73.7120 C   0  0  2  0  0  0  0  0  0  0  0  0
    1.4730   57.7340   73.7560 C   0  0  1  0  0  0  0  0  0  0  0  0
    2.0700   57.2850   72.4950 O   0  0  0  0  0  0  0  0  0  0  0  0
    2.6430   58.3960   71.9400 C   0  0  0  0  0  0  0  0  0  0  0  0
    2.3340   59.5510   72.6250 C   0  0  0  0  0  0  0  0  0  0  0  0
    2.9610   60.7600   72.3740 C   0  0  0  0  0  0  0  0  0  0  0  0
    2.7720   61.8980   73.3420 C   0  0  0  0  0  0  0  0  0  0  0  0
    1.8590   61.5550   74.5560 C   0  0  1  0  0  0  0  0  0  0  0  0
    0.3770   61.9320   74.2990 N   0  0  2  0  0  4  0  0  0  0  0  0
   -0.2290   61.2070   73.1210 C   0  0  0  0  0  0  0  0  0  0  0  0
   -0.0590   59.6980   73.2730 C   0  0  0  0  0  0  0  0  0  0  0  0
    3.8370   60.8100   71.2880 C   0  0  0  0  0  0  0  0  0  0  0  0
    4.0950   59.6520   70.5250 C   0  0  0  0  0  0  0  0  0  0  0  0
    3.5090   58.4310   70.8700 C   0  0  0  0  0  0  0  0  0  0  0  0
    2.7030   55.8760   74.7480 O   0  0  0  0  0  0  0  0  0  0  0  0
    3.7950   57.2840   70.2000 O   0  0  0  0  0  0  0  0  0  0  0  0
    0.7960   59.9370   75.9790 O   0  0  0  0  0  0  0  0  0  0  0  0
    0.0530   63.4100   74.2910 C   0  0  0  0  0  0  0  0  0  0  0  0
   -0.4980   63.9300   75.6060 C   0  0  0  0  0  0  0  0  0  0  0  0
    0.3620   63.7010   76.8790 C   0  0  0  0  0  0  0  0  0  0  0  0
   -0.9570   63.4550   77.6370 C   0  0  0  0  0  0  0  0  0  0  0  0
   -1.5730   63.0390   76.2850 C   0  0  0  0  0  0  0  0  0  0  0  0
    1.6282   57.2797   75.8260 H   0  0  0  0  0  0  0  0  0  0  0  0
    4.0297   57.6675   76.1315 H   0  0  0  0  0  0  0  0  0  0  0  0
    4.1476   58.0761   74.3541 H   0  0  0  0  0  0  0  0  0  0  0  0
    3.1351   59.6853   76.6385 H   0  0  0  0  0  0  0  0  0  0  0  0
    3.9525   60.1569   75.0615 H   0  0  0  0  0  0  0  0  0  0  0  0
    0.4634   57.3170   73.8859 H   0  0  0  0  0  0  0  0  0  0  0  0
    3.7599   62.1932   73.7253 H   0  0  0  0  0  0  0  0  0  0  0  0
    2.2725   62.7063   72.7878 H   0  0  0  0  0  0  0  0  0  0  0  0
    2.3179   62.1449   75.3631 H   0  0  0  0  0  0  0  0  0  0  0  0
   -0.0897   61.5842   75.1488 H   0  0  0  0  0  0  0  0  0  0  0  0
   -1.3012   61.4458   73.0623 H   0  0  0  0  0  0  0  0  0  0  0  0
    0.2841   61.5308   72.2034 H   0  0  0  0  0  0  0  0  0  0  0  0
   -0.7772   59.3424   74.0264 H   0  0  0  0  0  0  0  0  0  0  0  0
   -0.2341   59.2547   72.2816 H   0  0  0  0  0  0  0  0  0  0  0  0
    4.3290   61.7582   71.0258 H   0  0  0  0  0  0  0  0  0  0  0  0
    4.7621   59.7104   69.6523 H   0  0  0  0  0  0  0  0  0  0  0  0
    2.8368   55.4347   75.6240 H   0  0  0  0  0  0  0  0  0  0  0  0
    4.4168   57.3025   69.4299 H   0  0  0  0  0  0  0  0  0  0  0  0
    1.2139   59.9772   76.8756 H   0  0  0  0  0  0  0  0  0  0  0  0
    0.9742   63.9645   74.0589 H   0  0  0  0  0  0  0  0  0  0  0  0
   -0.7334   63.5586   73.5363 H   0  0  0  0  0  0  0  0  0  0  0  0
   -0.7116   64.9430   75.2343 H   0  0  0  0  0  0  0  0  0  0  0  0
    1.0330   62.8307   76.8299 H   0  0  0  0  0  0  0  0  0  0  0  0
    1.0992   64.4417   77.2223 H   0  0  0  0  0  0  0  0  0  0  0  0
   -0.9125   62.6524   78.3879 H   0  0  0  0  0  0  0  0  0  0  0  0
   -1.4155   64.2295   78.2694 H   0  0  0  0  0  0  0  0  0  0  0  0
   -2.6101   63.3715   76.1306 H   0  0  0  0  0  0  0  0  0  0  0  0
   -1.7102   61.9829   76.0098 H   0  0  0  0  0  0  0  0  0  0  0  0
  2  1  1  0
  3  2  1  0
  4  3  1  0
  5  4  1  0
  6  5  1  0
  6  1  1  0
  7  6  1  0
  8  7  1  0
  9  8  2  0
  9  5  1  0
 10  9  1  0
 11 10  1  0
 12 11  1  0
 12  4  1  0
 13 12  1  0
 14 13  1  0
 15 14  1  0
  5 15  1  6
 16 10  2  0
 17 16  1  0
 18  8  1  0
 18 17  2  0
 19  1  1  0
 20 18  1  0
  4 21  1  1
 22 13  1  0
 23 22  1  0
 24 23  1  0
 25 24  1  0
 26 23  1  0
 26 25  1  0
  1 27  1  1
  2 28  1  0
  2 29  1  0
  3 30  1  0
  3 31  1  0
  6 32  1  1
 11 33  1  0
 11 34  1  0
 12 35  1  1
 13 36  1  1
 14 37  1  0
 14 38  1  0
 15 39  1  0
 15 40  1  0
 16 41  1  0
 17 42  1  0
 19 43  1  0
 20 44  1  0
 21 45  1  0
 22 46  1  0
 22 47  1  0
 23 48  1  0
 24 49  1  0
 24 50  1  0
 25 51  1  0
 25 52  1  0
 26 53  1  0
 26 54  1  0
M  CHG  1  13   1
M  END
>  <score>  (5) 
-7.301

$$$$
=
     RDKit          3D

 54 59  0  0  0  0  0  0  0  0999 V2000
   -1.3410   59.9660   76.6480 C   0  0  1  0  0  0  0  0  0  0  0  0
    0.0980   59.6640   77.0520 C   0  0  0  0  0  0  0  0  0  0  0  0
    1.1310   60.5840   76.3830 C   0  0  0  0  0  0  0  0  0  0  0  0
    0.6630   61.2310   75.0600 C   0  0  2  0  0  0  0  0  0  0  0  0
   -0.4070   60.4320   74.2980 C   0  0  2  0  0  0  0  0  0  0  0  0
   -1.5750   59.8660   75.1300 C   0  0  1  0  0  0  0  0  0  0  0  0
   -1.7840   58.4710   74.7330 O   0  0  0  0  0  0  0  0  0  0  0  0
   -0.6430   58.0970   74.0790 C   0  0  0  0  0  0  0  0  0  0  0  0
    0.2150   59.1530   73.8620 C   0  0  0  0  0  0  0  0  0  0  0  0
    1.5120   58.9830   73.4070 C   0  0  0  0  0  0  0  0  0  0  0  0
    2.4660   60.1470   73.4610 C   0  0  0  0  0  0  0  0  0  0  0  0
    1.8480   61.4490   74.0500 C   0  0  1  0  0  0  0  0  0  0  0  0
    1.2670   62.3720   72.9470 N   0  0  2  0  0  4  0  0  0  0  0  0
    0.1610   61.7260   72.1480 C   0  0  0  0  0  0  0  0  0  0  0  0
   -0.9370   61.2070   73.0720 C   0  0  0  0  0  0  0  0  0  0  0  0
    1.8920   57.6920   73.0330 C   0  0  0  0  0  0  0  0  0  0  0  0
    0.9900   56.6150   73.1710 C   0  0  0  0  0  0  0  0  0  0  0  0
   -0.2790   56.8190   73.7200 C   0  0  0  0  0  0  0  0  0  0  0  0
   -2.2250   59.1040   77.3530 O   0  0  0  0  0  0  0  0  0  0  0  0
   -1.1400   55.7900   73.9330 O   0  0  0  0  0  0  0  0  0  0  0  0
    0.1470   62.5590   75.3320 O   0  0  0  0  0  0  0  0  0  0  0  0
    2.2740   63.0790   72.0660 C   0  0  0  0  0  0  0  0  0  0  0  0
    2.2590   62.6230   70.6190 C   0  0  0  0  0  0  0  0  0  0  0  0
    3.1680   61.4230   70.2400 C   0  0  0  0  0  0  0  0  0  0  0  0
    3.4440   62.1470   68.9070 C   0  0  0  0  0  0  0  0  0  0  0  0
    3.1200   63.4650   69.6390 C   0  0  0  0  0  0  0  0  0  0  0  0
   -1.5455   61.0122   76.9193 H   0  0  0  0  0  0  0  0  0  0  0  0
    0.1845   59.7792   78.1425 H   0  0  0  0  0  0  0  0  0  0  0  0
    0.3174   58.6382   76.7208 H   0  0  0  0  0  0  0  0  0  0  0  0
    1.3790   61.3902   77.0891 H   0  0  0  0  0  0  0  0  0  0  0  0
    1.9923   59.9487   76.1289 H   0  0  0  0  0  0  0  0  0  0  0  0
   -2.4696   60.4724   74.9251 H   0  0  0  0  0  0  0  0  0  0  0  0
    3.3259   59.8602   74.0842 H   0  0  0  0  0  0  0  0  0  0  0  0
    2.7501   60.3725   72.4225 H   0  0  0  0  0  0  0  0  0  0  0  0
    2.7061   61.8947   74.5744 H   0  0  0  0  0  0  0  0  0  0  0  0
    0.8453   63.1345   73.4963 H   0  0  0  0  0  0  0  0  0  0  0  0
   -0.2677   62.4682   71.4585 H   0  0  0  0  0  0  0  0  0  0  0  0
    0.5792   60.8793   71.5840 H   0  0  0  0  0  0  0  0  0  0  0  0
   -1.5222   62.0662   73.4316 H   0  0  0  0  0  0  0  0  0  0  0  0
   -1.5421   60.5009   72.4844 H   0  0  0  0  0  0  0  0  0  0  0  0
    2.8994   57.5136   72.6288 H   0  0  0  0  0  0  0  0  0  0  0  0
    1.2880   55.6079   72.8441 H   0  0  0  0  0  0  0  0  0  0  0  0
   -2.0988   59.2270   78.3272 H   0  0  0  0  0  0  0  0  0  0  0  0
   -0.8835   54.8688   73.6768 H   0  0  0  0  0  0  0  0  0  0  0  0
    0.0930   62.6980   76.3107 H   0  0  0  0  0  0  0  0  0  0  0  0
    2.0577   64.1572   72.0907 H   0  0  0  0  0  0  0  0  0  0  0  0
    3.2700   62.8363   72.4648 H   0  0  0  0  0  0  0  0  0  0  0  0
    1.1636   62.5565   70.5443 H   0  0  0  0  0  0  0  0  0  0  0  0
    4.0504   61.2936   70.8839 H   0  0  0  0  0  0  0  0  0  0  0  0
    2.8032   60.3858   70.2723 H   0  0  0  0  0  0  0  0  0  0  0  0
    4.4796   62.0649   68.5454 H   0  0  0  0  0  0  0  0  0  0  0  0
    2.9346   61.8607   67.9751 H   0  0  0  0  0  0  0  0  0  0  0  0
    2.5546   64.1955   69.0417 H   0  0  0  0  0  0  0  0  0  0  0  0
    3.9114   64.1408   69.9953 H   0  0  0  0  0  0  0  0  0  0  0  0
  2  1  1  0
  3  2  1  0
  4  3  1  0
  5  4  1  0
  6  5  1  0
  6  1  1  0
  7  6  1  0
  8  7  1  0
  9  8  2  0
  9  5  1  0
 10  9  1  0
 11 10  1  0
 12 11  1  0
 12  4  1  0
 13 12  1  0
 14 13  1  0
 15 14  1  0
  5 15  1  6
 16 10  2  0
 17 16  1  0
 18  8  1  0
 18 17  2  0
 19  1  1  0
 20 18  1  0
  4 21  1  1
 22 13  1  0
 23 22  1  0
 24 23  1  0
 25 24  1  0
 26 23  1  0
 26 25  1  0
  1 27  1  1
  2 28  1  0
  2 29  1  0
  3 30  1  0
  3 31  1  0
  6 32  1  1
 11 33  1  0
 11 34  1  0
 12 35  1  1
 13 36  1  1
 14 37  1  0
 14 38  1  0
 15 39  1  0
 15 40  1  0
 16 41  1  0
 17 42  1  0
 19 43  1  0
 20 44  1  0
 21 45  1  0
 22 46  1  0
 22 47  1  0
 23 48  1  0
 24 49  1  0
 24 50  1  0
 25 51  1  0
 25 52  1  0
 26 53  1  0
 26 54  1  0
M  CHG  1  13   1
M  END
>  <score>  (6) 
-6.987

$$$$
=
     RDKit          3D

 54 59  0  0  0  0  0  0  0  0999 V2000
    1.9460   62.6920   70.7770 C   0  0  1  0  0  0  0  0  0  0  0  0
    3.1360   62.9130   71.7050 C   0  0  0  0  0  0  0  0  0  0  0  0
    3.4110   61.7310   72.6460 C   0  0  0  0  0  0  0  0  0  0  0  0
    2.1930   60.8180   72.9150 C   0  0  2  0  0  0  0  0  0  0  0  0
    0.8280   61.5100   72.7690 C   0  0  2  0  0  0  0  0  0  0  0  0
    0.6340   62.4130   71.5350 C   0  0  1  0  0  0  0  0  0  0  0  0
    0.0220   63.6680   71.9780 O   0  0  0  0  0  0  0  0  0  0  0  0
    0.2120   63.7150   73.3320 C   0  0  0  0  0  0  0  0  0  0  0  0
    0.7330   62.5430   73.8360 C   0  0  0  0  0  0  0  0  0  0  0  0
    1.2000   62.4280   75.1350 C   0  0  0  0  0  0  0  0  0  0  0  0
    2.0020   61.2140   75.5210 C   0  0  0  0  0  0  0  0  0  0  0  0
    2.2170   60.1990   74.3600 C   0  0  1  0  0  0  0  0  0  0  0  0
    1.1290   59.0940   74.3380 N   0  0  2  0  0  4  0  0  0  0  0  0
   -0.2680   59.6340   74.1470 C   0  0  0  0  0  0  0  0  0  0  0  0
   -0.3400   60.5090   72.8990 C   0  0  0  0  0  0  0  0  0  0  0  0
    0.9960   63.5190   75.9830 C   0  0  0  0  0  0  0  0  0  0  0  0
    0.3830   64.6940   75.5000 C   0  0  0  0  0  0  0  0  0  0  0  0
    0.0100   64.7990   74.1570 C   0  0  0  0  0  0  0  0  0  0  0  0
    1.8010   63.8100   69.9110 O   0  0  0  0  0  0  0  0  0  0  0  0
   -0.5130   65.9440   73.6460 O   0  0  0  0  0  0  0  0  0  0  0  0
    2.2370   59.6830   72.0140 O   0  0  0  0  0  0  0  0  0  0  0  0
    1.2000   58.0630   75.4430 C   0  0  0  0  0  0  0  0  0  0  0  0
    1.0340   56.6320   74.9660 C   0  0  0  0  0  0  0  0  0  0  0  0
    2.1390   55.6160   75.3610 C   0  0  0  0  0  0  0  0  0  0  0  0
    1.9590   54.9870   73.9650 C   0  0  0  0  0  0  0  0  0  0  0  0
    1.4420   56.3620   73.4930 C   0  0  0  0  0  0  0  0  0  0  0  0
    2.1547   61.7885   70.1854 H   0  0  0  0  0  0  0  0  0  0  0  0
    4.0311   63.0818   71.0882 H   0  0  0  0  0  0  0  0  0  0  0  0
    2.8941   63.7793   72.3382 H   0  0  0  0  0  0  0  0  0  0  0  0
    4.2069   61.1167   72.1998 H   0  0  0  0  0  0  0  0  0  0  0  0
    3.6908   62.1670   73.6164 H   0  0  0  0  0  0  0  0  0  0  0  0
   -0.0182   61.8862   70.8229 H   0  0  0  0  0  0  0  0  0  0  0  0
    2.9884   61.5494   75.8738 H   0  0  0  0  0  0  0  0  0  0  0  0
    1.4285   60.6891   76.2992 H   0  0  0  0  0  0  0  0  0  0  0  0
    3.2212   59.8077   74.5804 H   0  0  0  0  0  0  0  0  0  0  0  0
    1.3714   58.5611   73.4906 H   0  0  0  0  0  0  0  0  0  0  0  0
   -0.9690   58.7931   74.0398 H   0  0  0  0  0  0  0  0  0  0  0  0
   -0.5354   60.2432   75.0230 H   0  0  0  0  0  0  0  0  0  0  0  0
   -0.3344   59.8536   72.0156 H   0  0  0  0  0  0  0  0  0  0  0  0
   -1.2624   61.1030   72.9781 H   0  0  0  0  0  0  0  0  0  0  0  0
    1.3154   63.4615   77.0340 H   0  0  0  0  0  0  0  0  0  0  0  0
    0.1971   65.5340   76.1854 H   0  0  0  0  0  0  0  0  0  0  0  0
    1.6942   64.6334   70.4502 H   0  0  0  0  0  0  0  0  0  0  0  0
   -0.6604   66.7265   74.2343 H   0  0  0  0  0  0  0  0  0  0  0  0
    2.2695   58.8450   72.5402 H   0  0  0  0  0  0  0  0  0  0  0  0
    2.1794   58.1516   75.9358 H   0  0  0  0  0  0  0  0  0  0  0  0
    0.3616   58.2698   76.1244 H   0  0  0  0  0  0  0  0  0  0  0  0
    0.0011   56.5229   75.3282 H   0  0  0  0  0  0  0  0  0  0  0  0
    3.1290   56.0606   75.5404 H   0  0  0  0  0  0  0  0  0  0  0  0
    2.0732   55.0158   76.2805 H   0  0  0  0  0  0  0  0  0  0  0  0
    2.8926   54.6577   73.4854 H   0  0  0  0  0  0  0  0  0  0  0  0
    1.3778   54.0653   73.8142 H   0  0  0  0  0  0  0  0  0  0  0  0
    0.6020   56.3185   72.7841 H   0  0  0  0  0  0  0  0  0  0  0  0
    2.0795   57.0597   72.9302 H   0  0  0  0  0  0  0  0  0  0  0  0
  2  1  1  0
  3  2  1  0
  4  3  1  0
  5  4  1  0
  6  5  1  0
  6  1  1  0
  7  6  1  0
  8  7  1  0
  9  8  2  0
  9  5  1  0
 10  9  1  0
 11 10  1  0
 12 11  1  0
 12  4  1  0
 13 12  1  0
 14 13  1  0
 15 14  1  0
  5 15  1  1
 16 10  2  0
 17 16  1  0
 18  8  1  0
 18 17  2  0
 19  1  1  0
 20 18  1  0
  4 21  1  6
 22 13  1  0
 23 22  1  0
 24 23  1  0
 25 24  1  0
 26 23  1  0
 26 25  1  0
  1 27  1  6
  2 28  1  0
  2 29  1  0
  3 30  1  0
  3 31  1  0
  6 32  1  6
 11 33  1  0
 11 34  1  0
 12 35  1  1
 13 36  1  6
 14 37  1  0
 14 38  1  0
 15 39  1  0
 15 40  1  0
 16 41  1  0
 17 42  1  0
 19 43  1  0
 20 44  1  0
 21 45  1  0
 22 46  1  0
 22 47  1  0
 23 48  1  0
 24 49  1  0
 24 50  1  0
 25 51  1  0
 25 52  1  0
 26 53  1  0
 26 54  1  0
M  CHG  1  13   1
M  END
>  <score>  (7) 
-6.959

$$$$
=
     RDKit          3D

 54 59  0  0  0  0  0  0  0  0999 V2000
    1.4220   62.6250   72.7950 C   0  0  1  0  0  0  0  0  0  0  0  0
    0.3440   61.7930   72.1060 C   0  0  0  0  0  0  0  0  0  0  0  0
   -0.2710   60.7130   73.0090 C   0  0  0  0  0  0  0  0  0  0  0  0
    0.6230   60.2650   74.1870 C   0  0  2  0  0  0  0  0  0  0  0  0
    2.1330   60.4390   73.9490 C   0  0  2  0  0  0  0  0  0  0  0  0
    2.5890   61.7750   73.3300 C   0  0  1  0  0  0  0  0  0  0  0  0
    3.5410   61.4780   72.2560 O   0  0  0  0  0  0  0  0  0  0  0  0
    3.3660   60.1540   71.9610 C   0  0  0  0  0  0  0  0  0  0  0  0
    2.5210   59.5200   72.8460 C   0  0  0  0  0  0  0  0  0  0  0  0
    2.0340   58.2410   72.6320 C   0  0  0  0  0  0  0  0  0  0  0  0
    0.9080   57.7310   73.4920 C   0  0  0  0  0  0  0  0  0  0  0  0
    0.4110   58.7520   74.5570 C   0  0  1  0  0  0  0  0  0  0  0  0
    1.1260   58.5710   75.9210 N   0  0  2  0  0  4  0  0  0  0  0  0
    2.6210   58.7680   75.8430 C   0  0  0  0  0  0  0  0  0  0  0  0
    2.9540   60.1190   75.2170 C   0  0  0  0  0  0  0  0  0  0  0  0
    2.5450   57.5410   71.5370 C   0  0  0  0  0  0  0  0  0  0  0  0
    3.4790   58.1500   70.6720 C   0  0  0  0  0  0  0  0  0  0  0  0
    3.8730   59.4760   70.8750 C   0  0  0  0  0  0  0  0  0  0  0  0
    1.8920   63.6270   71.9040 O   0  0  0  0  0  0  0  0  0  0  0  0
    4.7120   60.1130   70.0180 O   0  0  0  0  0  0  0  0  0  0  0  0
    0.2520   61.0040   75.3790 O   0  0  0  0  0  0  0  0  0  0  0  0
    0.7500   57.3410   76.7170 C   0  0  0  0  0  0  0  0  0  0  0  0
    1.4500   57.2330   78.0590 C   0  0  0  0  0  0  0  0  0  0  0  0
    2.3050   55.9620   78.3160 C   0  0  0  0  0  0  0  0  0  0  0  0
    1.8000   56.0060   79.7720 C   0  0  0  0  0  0  0  0  0  0  0  0
    0.5640   56.7640   79.2450 C   0  0  0  0  0  0  0  0  0  0  0  0
    0.9615   63.0971   73.6754 H   0  0  0  0  0  0  0  0  0  0  0  0
   -0.4588   62.4687   71.7760 H   0  0  0  0  0  0  0  0  0  0  0  0
    0.8262   61.2736   71.2648 H   0  0  0  0  0  0  0  0  0  0  0  0
   -1.2102   61.1081   73.4235 H   0  0  0  0  0  0  0  0  0  0  0  0
   -0.4148   59.8255   72.3753 H   0  0  0  0  0  0  0  0  0  0  0  0
    3.0599   62.3776   74.1206 H   0  0  0  0  0  0  0  0  0  0  0  0
    0.0619   57.4746   72.8375 H   0  0  0  0  0  0  0  0  0  0  0  0
    1.2970   56.8616   74.0423 H   0  0  0  0  0  0  0  0  0  0  0  0
   -0.6651   58.5287   74.6038 H   0  0  0  0  0  0  0  0  0  0  0  0
    0.7411   59.3479   76.4770 H   0  0  0  0  0  0  0  0  0  0  0  0
    3.0444   58.7257   76.8574 H   0  0  0  0  0  0  0  0  0  0  0  0
    3.0508   57.9721   75.2170 H   0  0  0  0  0  0  0  0  0  0  0  0
    2.7598   60.9039   75.9628 H   0  0  0  0  0  0  0  0  0  0  0  0
    4.0102   60.0788   74.9124 H   0  0  0  0  0  0  0  0  0  0  0  0
    2.2173   56.5082   71.3475 H   0  0  0  0  0  0  0  0  0  0  0  0
    3.8999   57.5775   69.8323 H   0  0  0  0  0  0  0  0  0  0  0  0
    2.2497   64.3896   72.4241 H   0  0  0  0  0  0  0  0  0  0  0  0
    5.0798   59.6310   69.2354 H   0  0  0  0  0  0  0  0  0  0  0  0
    0.5117   60.4867   76.1822 H   0  0  0  0  0  0  0  0  0  0  0  0
   -0.3354   57.3629   76.8944 H   0  0  0  0  0  0  0  0  0  0  0  0
    1.0663   56.4705   76.1236 H   0  0  0  0  0  0  0  0  0  0  0  0
    1.9084   58.2320   78.0163 H   0  0  0  0  0  0  0  0  0  0  0  0
    1.9912   55.0742   77.7473 H   0  0  0  0  0  0  0  0  0  0  0  0
    3.3775   55.9253   78.0745 H   0  0  0  0  0  0  0  0  0  0  0  0
    1.5820   55.0219   80.2125 H   0  0  0  0  0  0  0  0  0  0  0  0
    2.4197   56.4043   80.5889 H   0  0  0  0  0  0  0  0  0  0  0  0
    0.2069   57.5725   79.8998 H   0  0  0  0  0  0  0  0  0  0  0  0
   -0.4012   56.2610   79.0854 H   0  0  0  0  0  0  0  0  0  0  0  0
  2  1  1  0
  3  2  1  0
  4  3  1  0
  5  4  1  0
  6  5  1  0
  6  1  1  0
  7  6  1  0
  8  7  1  0
  9  8  2  0
  9  5  1  0
 10  9  1  0
 11 10  1  0
 12 11  1  0
 12  4  1  0
 13 12  1  0
 14 13  1  0
 15 14  1  0
  5 15  1  1
 16 10  2  0
 17 16  1  0
 18  8  1  0
 18 17  2  0
 19  1  1  0
 20 18  1  0
  4 21  1  1
 22 13  1  0
 23 22  1  0
 24 23  1  0
 25 24  1  0
 26 23  1  0
 26 25  1  0
  1 27  1  1
  2 28  1  0
  2 29  1  0
  3 30  1  0
  3 31  1  0
  6 32  1  1
 11 33  1  0
 11 34  1  0
 12 35  1  1
 13 36  1  1
 14 37  1  0
 14 38  1  0
 15 39  1  0
 15 40  1  0
 16 41  1  0
 17 42  1  0
 19 43  1  0
 20 44  1  0
 21 45  1  0
 22 46  1  0
 22 47  1  0
 23 48  1  0
 24 49  1  0
 24 50  1  0
 25 51  1  0
 25 52  1  0
 26 53  1  0
 26 54  1  0
M  CHG  1  13   1
M  END
>  <score>  (8) 
-6.488

$$$$
