=
     RDKit          3D

 58 60  0  0  0  0  0  0  0  0999 V2000
    0.0110   65.5810   69.5270 O   0  0  0  0  0  0  0  0  0  0  0  0
    1.5860   60.9450   72.1080 C   0  0  0  0  0  0  0  0  0  0  0  0
    0.8550   62.1000   72.3990 C   0  0  0  0  0  0  0  0  0  0  0  0
    1.1050   63.2260   71.6360 C   0  0  0  0  0  0  0  0  0  0  0  0
    2.0410   63.2580   70.6140 C   0  0  0  0  0  0  0  0  0  0  0  0
    2.7800   62.1230   70.3170 C   0  0  0  0  0  0  0  0  0  0  0  0
    2.5510   60.9550   71.0610 C   0  0  0  0  0  0  0  0  0  0  0  0
    2.1580   64.6140   69.9890 C   0  0  0  0  0  0  0  0  0  0  0  0
    0.9630   65.4150   70.5700 C   0  0  2  0  0  0  0  0  0  0  0  0
    0.4850   64.5390   71.7330 C   0  0  0  0  0  0  0  0  0  0  0  0
   -0.2950   64.8570   72.6180 O   0  0  0  0  0  0  0  0  0  0  0  0
    1.6380   59.7580   74.1850 C   0  0  0  0  0  0  0  0  0  0  0  0
    1.4450   59.7550   72.7780 O   0  0  0  0  0  0  0  0  0  0  0  0
    3.2180   59.7710   70.8600 O   0  0  0  0  0  0  0  0  0  0  0  0
    3.5780   59.4280   69.5300 C   0  0  0  0  0  0  0  0  0  0  0  0
    0.0520   66.6890   68.7350 C   0  0  0  0  0  0  0  0  0  0  0  0
   -1.1300   66.9420   68.0390 C   0  0  0  0  0  0  0  0  0  0  0  0
   -1.2460   68.0620   67.2180 C   0  0  0  0  0  0  0  0  0  0  0  0
   -0.1780   68.9470   67.0950 C   0  0  0  0  0  0  0  0  0  0  0  0
    1.0270   68.7170   67.7850 C   0  0  0  0  0  0  0  0  0  0  0  0
    1.1320   67.5610   68.5830 C   0  0  0  0  0  0  0  0  0  0  0  0
    2.1620   69.7170   67.6340 C   0  0  1  0  0  0  0  0  0  0  0  0
    2.7180   70.3040   68.9380 C   0  0  0  0  0  0  0  0  0  0  0  0
    3.2840   69.1400   66.7560 N   0  0  0  0  0  4  0  0  0  0  0  0
    2.9020   69.0300   65.2900 C   0  0  0  0  0  0  0  0  0  0  0  0
    2.7000   67.5750   64.9060 C   0  0  0  0  0  0  0  0  0  0  0  0
    4.6350   69.7970   66.9680 C   0  0  0  0  0  0  0  0  0  0  0  0
    5.4220   69.8200   65.6690 C   0  0  0  0  0  0  0  0  0  0  0  0
    0.1076   62.1130   73.2060 H   0  0  0  0  0  0  0  0  0  0  0  0
    3.5313   62.1376   69.5137 H   0  0  0  0  0  0  0  0  0  0  0  0
    3.1127   65.0870   70.2626 H   0  0  0  0  0  0  0  0  0  0  0  0
    2.1374   64.5708   68.8900 H   0  0  0  0  0  0  0  0  0  0  0  0
    1.1836   66.4291   70.9346 H   0  0  0  0  0  0  0  0  0  0  0  0
    0.6605   59.7428   74.6892 H   0  0  0  0  0  0  0  0  0  0  0  0
    2.2155   58.8687   74.4778 H   0  0  0  0  0  0  0  0  0  0  0  0
    2.1875   60.6648   74.4778 H   0  0  0  0  0  0  0  0  0  0  0  0
    4.3743   58.6693   69.5497 H   0  0  0  0  0  0  0  0  0  0  0  0
    2.6998   59.0242   69.0050 H   0  0  0  0  0  0  0  0  0  0  0  0
    3.9389   60.3247   69.0050 H   0  0  0  0  0  0  0  0  0  0  0  0
   -1.9794   66.2503   68.1392 H   0  0  0  0  0  0  0  0  0  0  0  0
   -2.1803   68.2468   66.6676 H   0  0  0  0  0  0  0  0  0  0  0  0
   -0.2770   69.8343   66.4525 H   0  0  0  0  0  0  0  0  0  0  0  0
    2.0805   67.3415   69.0949 H   0  0  0  0  0  0  0  0  0  0  0  0
    1.7028   70.5813   67.1318 H   0  0  0  0  0  0  0  0  0  0  0  0
    2.2447   69.8044   69.7961 H   0  0  0  0  0  0  0  0  0  0  0  0
    3.8060   70.1466   68.9764 H   0  0  0  0  0  0  0  0  0  0  0  0
    2.5019   71.3819   68.9764 H   0  0  0  0  0  0  0  0  0  0  0  0
    3.4035   68.1730   67.0900 H   0  0  0  0  0  0  0  0  0  0  0  0
    1.9680   69.5843   65.1158 H   0  0  0  0  0  0  0  0  0  0  0  0
    3.7112   69.4530   64.6766 H   0  0  0  0  0  0  0  0  0  0  0  0
    2.6151   66.9638   65.8166 H   0  0  0  0  0  0  0  0  0  0  0  0
    1.7796   67.4770   64.3116 H   0  0  0  0  0  0  0  0  0  0  0  0
    3.5589   67.2300   64.3116 H   0  0  0  0  0  0  0  0  0  0  0  0
    4.4853   70.8285   67.3194 H   0  0  0  0  0  0  0  0  0  0  0  0
    5.1986   69.2208   67.7166 H   0  0  0  0  0  0  0  0  0  0  0  0
    6.4985   69.8515   65.8930 H   0  0  0  0  0  0  0  0  0  0  0  0
    5.1950   68.9148   65.0867 H   0  0  0  0  0  0  0  0  0  0  0  0
    5.1425   70.7104   65.0867 H   0  0  0  0  0  0  0  0  0  0  0  0
  3  2  2  0
  4  3  1  0
  5  4  2  0
  6  5  1  0
  7  6  2  0
  7  2  1  0
  8  5  1  0
  9  8  1  0
  9  1  1  0
 10  4  1  0
 10  9  1  0
 11 10  2  0
 13 12  1  0
 13  2  1  0
 14  7  1  0
 15 14  1  0
 16  1  1  0
 17 16  2  0
 18 17  1  0
 19 18  2  0
 20 19  1  0
 21 20  2  0
 21 16  1  0
 22 20  1  0
 23 22  1  0
 24 22  1  0
 25 24  1  0
 26 25  1  0
 27 24  1  0
 28 27  1  0
  3 29  1  0
  6 30  1  0
  8 31  1  0
  8 32  1  0
  9 33  1  1
 12 34  1  0
 12 35  1  0
 12 36  1  0
 15 37  1  0
 15 38  1  0
 15 39  1  0
 17 40  1  0
 18 41  1  0
 19 42  1  0
 21 43  1  0
 22 44  1  6
 23 45  1  0
 23 46  1  0
 23 47  1  0
 24 48  1  0
 25 49  1  0
 25 50  1  0
 26 51  1  0
 26 52  1  0
 26 53  1  0
 27 54  1  0
 27 55  1  0
 28 56  1  0
 28 57  1  0
 28 58  1  0
M  CHG  1  24   1
M  END
>  <score>  (1) 
-9.357

$$$$
=
     RDKit          3D

 58 60  0  0  0  0  0  0  0  0999 V2000
   -0.5090   66.1640   69.0360 O   0  0  0  0  0  0  0  0  0  0  0  0
    1.8430   62.4750   72.4270 C   0  0  0  0  0  0  0  0  0  0  0  0
    0.9040   63.5080   72.5040 C   0  0  0  0  0  0  0  0  0  0  0  0
    0.9580   64.4960   71.5380 C   0  0  0  0  0  0  0  0  0  0  0  0
    1.8930   64.5080   70.5150 C   0  0  0  0  0  0  0  0  0  0  0  0
    2.8360   63.4950   70.4280 C   0  0  0  0  0  0  0  0  0  0  0  0
    2.8110   62.4670   71.3840 C   0  0  0  0  0  0  0  0  0  0  0  0
    1.7700   65.7190   69.6420 C   0  0  0  0  0  0  0  0  0  0  0  0
    0.4350   66.3780   70.0780 C   0  0  2  0  0  0  0  0  0  0  0  0
    0.1030   65.6650   71.3930 C   0  0  0  0  0  0  0  0  0  0  0  0
   -0.7420   65.9930   72.2120 O   0  0  0  0  0  0  0  0  0  0  0  0
    1.8220   61.7250   74.6990 C   0  0  0  0  0  0  0  0  0  0  0  0
    1.9100   61.4280   73.3130 O   0  0  0  0  0  0  0  0  0  0  0  0
    3.6910   61.4110   71.4020 O   0  0  0  0  0  0  0  0  0  0  0  0
    5.0710   61.6930   71.2230 C   0  0  0  0  0  0  0  0  0  0  0  0
   -0.5100   66.9720   67.9390 C   0  0  0  0  0  0  0  0  0  0  0  0
   -1.7720   67.4420   67.5740 C   0  0  0  0  0  0  0  0  0  0  0  0
   -1.9220   68.3080   66.4930 C   0  0  0  0  0  0  0  0  0  0  0  0
   -0.8040   68.7210   65.7730 C   0  0  0  0  0  0  0  0  0  0  0  0
    0.4800   68.2630   66.1180 C   0  0  0  0  0  0  0  0  0  0  0  0
    0.6040   67.3630   67.1950 C   0  0  0  0  0  0  0  0  0  0  0  0
    1.6750   68.7510   65.3150 C   0  0  1  0  0  0  0  0  0  0  0  0
    2.9440   69.0650   66.1200 C   0  0  0  0  0  0  0  0  0  0  0  0
    1.9740   67.7970   64.1470 N   0  0  0  0  0  4  0  0  0  0  0  0
    1.8200   68.4490   62.7850 C   0  0  0  0  0  0  0  0  0  0  0  0
    3.1510   68.4630   62.0540 C   0  0  0  0  0  0  0  0  0  0  0  0
    3.2750   67.0290   64.2940 C   0  0  0  0  0  0  0  0  0  0  0  0
    2.9950   65.5760   64.6360 C   0  0  0  0  0  0  0  0  0  0  0  0
    0.1495   63.5339   73.3041 H   0  0  0  0  0  0  0  0  0  0  0  0
    3.5887   63.4968   69.6259 H   0  0  0  0  0  0  0  0  0  0  0  0
    2.6142   66.4047   69.8070 H   0  0  0  0  0  0  0  0  0  0  0  0
    1.7816   65.4660   68.5716 H   0  0  0  0  0  0  0  0  0  0  0  0
    0.4558   67.4657   70.2405 H   0  0  0  0  0  0  0  0  0  0  0  0
    2.0868   60.8313   75.2830 H   0  0  0  0  0  0  0  0  0  0  0  0
    2.5167   62.5420   74.9437 H   0  0  0  0  0  0  0  0  0  0  0  0
    0.7944   62.0317   74.9437 H   0  0  0  0  0  0  0  0  0  0  0  0
    5.5555   61.7920   72.2056 H   0  0  0  0  0  0  0  0  0  0  0  0
    5.5431   60.8728   70.6624 H   0  0  0  0  0  0  0  0  0  0  0  0
    5.1835   62.6327   70.6624 H   0  0  0  0  0  0  0  0  0  0  0  0
   -2.6572   67.1257   68.1453 H   0  0  0  0  0  0  0  0  0  0  0  0
   -2.9228   68.6652   66.2085 H   0  0  0  0  0  0  0  0  0  0  0  0
   -0.9264   69.4122   64.9261 H   0  0  0  0  0  0  0  0  0  0  0  0
    1.5951   66.9620   67.4536 H   0  0  0  0  0  0  0  0  0  0  0  0
    1.3625   69.7311   64.9255 H   0  0  0  0  0  0  0  0  0  0  0  0
    2.7192   69.0094   67.1953 H   0  0  0  0  0  0  0  0  0  0  0  0
    3.7267   68.3335   65.8707 H   0  0  0  0  0  0  0  0  0  0  0  0
    3.2953   70.0772   65.8707 H   0  0  0  0  0  0  0  0  0  0  0  0
    1.2355   67.0810   64.2007 H   0  0  0  0  0  0  0  0  0  0  0  0
    1.0865   67.8827   62.1924 H   0  0  0  0  0  0  0  0  0  0  0  0
    1.4755   69.4848   62.9210 H   0  0  0  0  0  0  0  0  0  0  0  0
    3.9716   68.4716   62.7865 H   0  0  0  0  0  0  0  0  0  0  0  0
    3.2322   67.5657   61.4230 H   0  0  0  0  0  0  0  0  0  0  0  0
    3.2133   69.3619   61.4230 H   0  0  0  0  0  0  0  0  0  0  0  0
    3.8338   67.0777   63.3477 H   0  0  0  0  0  0  0  0  0  0  0  0
    3.8661   67.4794   65.1050 H   0  0  0  0  0  0  0  0  0  0  0  0
    2.9716   65.4545   65.7290 H   0  0  0  0  0  0  0  0  0  0  0  0
    2.0234   65.2805   64.2133 H   0  0  0  0  0  0  0  0  0  0  0  0
    3.7872   64.9406   64.2133 H   0  0  0  0  0  0  0  0  0  0  0  0
  3  2  2  0
  4  3  1  0
  5  4  2  0
  6  5  1  0
  7  6  2  0
  7  2  1  0
  8  5  1  0
  9  8  1  0
  9  1  1  0
 10  4  1  0
 10  9  1  0
 11 10  2  0
 13 12  1  0
 13  2  1  0
 14  7  1  0
 15 14  1  0
 16  1  1  0
 17 16  2  0
 18 17  1  0
 19 18  2  0
 20 19  1  0
 21 20  2  0
 21 16  1  0
 22 20  1  0
 23 22  1  0
 24 22  1  0
 25 24  1  0
 26 25  1  0
 27 24  1  0
 28 27  1  0
  3 29  1  0
  6 30  1  0
  8 31  1  0
  8 32  1  0
  9 33  1  1
 12 34  1  0
 12 35  1  0
 12 36  1  0
 15 37  1  0
 15 38  1  0
 15 39  1  0
 17 40  1  0
 18 41  1  0
 19 42  1  0
 21 43  1  0
 22 44  1  6
 23 45  1  0
 23 46  1  0
 23 47  1  0
 24 48  1  0
 25 49  1  0
 25 50  1  0
 26 51  1  0
 26 52  1  0
 26 53  1  0
 27 54  1  0
 27 55  1  0
 28 56  1  0
 28 57  1  0
 28 58  1  0
M  CHG  1  24   1
M  END
>  <score>  (2) 
-8.881

$$$$
=
     RDKit          3D

 58 60  0  0  0  0  0  0  0  0999 V2000
    1.8440   67.3380   69.5790 O   0  0  0  0  0  0  0  0  0  0  0  0
    3.4080   68.7220   64.4530 C   0  0  0  0  0  0  0  0  0  0  0  0
    3.0390   69.3660   65.6370 C   0  0  0  0  0  0  0  0  0  0  0  0
    2.2580   68.6610   66.5340 C   0  0  0  0  0  0  0  0  0  0  0  0
    1.8260   67.3630   66.3080 C   0  0  0  0  0  0  0  0  0  0  0  0
    2.1770   66.7120   65.1350 C   0  0  0  0  0  0  0  0  0  0  0  0
    2.9770   67.3890   64.2020 C   0  0  0  0  0  0  0  0  0  0  0  0
    0.9450   66.8540   67.4070 C   0  0  0  0  0  0  0  0  0  0  0  0
    1.0750   67.9150   68.5320 C   0  0  2  0  0  0  0  0  0  0  0  0
    1.7470   69.0970   67.8250 C   0  0  0  0  0  0  0  0  0  0  0  0
    1.8610   70.2360   68.2500 O   0  0  0  0  0  0  0  0  0  0  0  0
    5.5550   69.5140   63.7560 C   0  0  0  0  0  0  0  0  0  0  0  0
    4.1810   69.2950   63.4730 O   0  0  0  0  0  0  0  0  0  0  0  0
    3.3900   66.8500   63.0070 O   0  0  0  0  0  0  0  0  0  0  0  0
    4.3830   65.8350   63.0420 C   0  0  0  0  0  0  0  0  0  0  0  0
    1.4950   66.1250   70.0940 C   0  0  0  0  0  0  0  0  0  0  0  0
    0.2520   66.1070   70.7280 C   0  0  0  0  0  0  0  0  0  0  0  0
   -0.2520   64.9280   71.2710 C   0  0  0  0  0  0  0  0  0  0  0  0
    0.4830   63.7490   71.1740 C   0  0  0  0  0  0  0  0  0  0  0  0
    1.7390   63.7370   70.5410 C   0  0  0  0  0  0  0  0  0  0  0  0
    2.2420   64.9480   70.0280 C   0  0  0  0  0  0  0  0  0  0  0  0
    2.5010   62.4250   70.4440 C   0  0  1  0  0  0  0  0  0  0  0  0
    3.0780   62.0840   69.0640 C   0  0  0  0  0  0  0  0  0  0  0  0
    3.5760   62.3360   71.5390 N   0  0  0  0  0  4  0  0  0  0  0  0
    3.2730   61.2880   72.5940 C   0  0  0  0  0  0  0  0  0  0  0  0
    2.0680   60.4600   72.1840 C   0  0  0  0  0  0  0  0  0  0  0  0
    4.9950   62.2480   71.0070 C   0  0  0  0  0  0  0  0  0  0  0  0
    5.6240   60.9210   71.3970 C   0  0  0  0  0  0  0  0  0  0  0  0
    3.3586   70.3972   65.8479 H   0  0  0  0  0  0  0  0  0  0  0  0
    1.8350   65.6849   64.9398 H   0  0  0  0  0  0  0  0  0  0  0  0
   -0.0975   66.7757   67.0649 H   0  0  0  0  0  0  0  0  0  0  0  0
    1.2361   65.8484   67.7447 H   0  0  0  0  0  0  0  0  0  0  0  0
    0.1381   68.2480   69.0024 H   0  0  0  0  0  0  0  0  0  0  0  0
    5.7057   69.5380   64.8454 H   0  0  0  0  0  0  0  0  0  0  0  0
    6.1533   68.6999   63.3209 H   0  0  0  0  0  0  0  0  0  0  0  0
    5.8705   70.4738   63.3209 H   0  0  0  0  0  0  0  0  0  0  0  0
    4.6215   65.5913   64.0878 H   0  0  0  0  0  0  0  0  0  0  0  0
    4.0063   64.9358   62.5326 H   0  0  0  0  0  0  0  0  0  0  0  0
    5.2903   66.1919   62.5326 H   0  0  0  0  0  0  0  0  0  0  0  0
   -0.3359   67.0340   70.7996 H   0  0  0  0  0  0  0  0  0  0  0  0
   -1.2293   64.9278   71.7759 H   0  0  0  0  0  0  0  0  0  0  0  0
    0.0772   62.8180   71.5966 H   0  0  0  0  0  0  0  0  0  0  0  0
    3.2407   64.9667   69.5674 H   0  0  0  0  0  0  0  0  0  0  0  0
    1.7376   61.6502   70.6079 H   0  0  0  0  0  0  0  0  0  0  0  0
    4.0190   61.5279   69.1873 H   0  0  0  0  0  0  0  0  0  0  0  0
    2.3574   61.4666   68.5076 H   0  0  0  0  0  0  0  0  0  0  0  0
    3.2713   63.0130   68.5076 H   0  0  0  0  0  0  0  0  0  0  0  0
    3.5290   63.2442   72.0225 H   0  0  0  0  0  0  0  0  0  0  0  0
    4.1448   60.6273   72.7099 H   0  0  0  0  0  0  0  0  0  0  0  0
    3.0530   61.7925   73.5464 H   0  0  0  0  0  0  0  0  0  0  0  0
    1.5462   60.1015   73.0836 H   0  0  0  0  0  0  0  0  0  0  0  0
    1.3838   61.0796   71.5857 H   0  0  0  0  0  0  0  0  0  0  0  0
    2.4011   59.5991   71.5857 H   0  0  0  0  0  0  0  0  0  0  0  0
    4.9771   62.3326   69.9104 H   0  0  0  0  0  0  0  0  0  0  0  0
    5.5900   63.0662   71.4388 H   0  0  0  0  0  0  0  0  0  0  0  0
    5.6618   60.8413   72.4935 H   0  0  0  0  0  0  0  0  0  0  0  0
    5.0212   60.0958   70.9899 H   0  0  0  0  0  0  0  0  0  0  0  0
    6.6444   60.8652   70.9899 H   0  0  0  0  0  0  0  0  0  0  0  0
  3  2  2  0
  4  3  1  0
  5  4  2  0
  6  5  1  0
  7  6  2  0
  7  2  1  0
  8  5  1  0
  9  8  1  0
  9  1  1  0
 10  4  1  0
 10  9  1  0
 11 10  2  0
 13 12  1  0
 13  2  1  0
 14  7  1  0
 15 14  1  0
 16  1  1  0
 17 16  2  0
 18 17  1  0
 19 18  2  0
 20 19  1  0
 21 20  2  0
 21 16  1  0
 22 20  1  0
 23 22  1  0
 24 22  1  0
 25 24  1  0
 26 25  1  0
 27 24  1  0
 28 27  1  0
  3 29  1  0
  6 30  1  0
  8 31  1  0
  8 32  1  0
  9 33  1  1
 12 34  1  0
 12 35  1  0
 12 36  1  0
 15 37  1  0
 15 38  1  0
 15 39  1  0
 17 40  1  0
 18 41  1  0
 19 42  1  0
 21 43  1  0
 22 44  1  1
 23 45  1  0
 23 46  1  0
 23 47  1  0
 24 48  1  0
 25 49  1  0
 25 50  1  0
 26 51  1  0
 26 52  1  0
 26 53  1  0
 27 54  1  0
 27 55  1  0
 28 56  1  0
 28 57  1  0
 28 58  1  0
M  CHG  1  24   1
M  END
>  <score>  (3) 
-8.807

$$$$
=
     RDKit          3D

 58 60  0  0  0  0  0  0  0  0999 V2000
    0.5320   66.5550   68.8110 O   0  0  0  0  0  0  0  0  0  0  0  0
    0.6890   61.9570   71.8870 C   0  0  0  0  0  0  0  0  0  0  0  0
    0.0580   63.2030   71.9120 C   0  0  0  0  0  0  0  0  0  0  0  0
    0.6590   64.2410   71.2230 C   0  0  0  0  0  0  0  0  0  0  0  0
    1.8480   64.0990   70.5230 C   0  0  0  0  0  0  0  0  0  0  0  0
    2.4910   62.8710   70.4950 C   0  0  0  0  0  0  0  0  0  0  0  0
    1.9090   61.7890   71.1740 C   0  0  0  0  0  0  0  0  0  0  0  0
    2.3120   65.3880   69.9190 C   0  0  0  0  0  0  0  0  0  0  0  0
    1.1110   66.3550   70.0940 C   0  0  2  0  0  0  0  0  0  0  0  0
    0.2090   65.6180   71.0900 C   0  0  0  0  0  0  0  0  0  0  0  0
   -0.7480   66.0800   71.6930 O   0  0  0  0  0  0  0  0  0  0  0  0
   -0.9880   60.9640   73.2750 C   0  0  0  0  0  0  0  0  0  0  0  0
    0.2090   60.8380   72.5220 O   0  0  0  0  0  0  0  0  0  0  0  0
    2.4500   60.5260   71.2170 O   0  0  0  0  0  0  0  0  0  0  0  0
    3.3840   60.1680   70.2090 C   0  0  0  0  0  0  0  0  0  0  0  0
    1.1560   67.3520   67.8980 C   0  0  0  0  0  0  0  0  0  0  0  0
    1.7350   68.5010   68.4370 C   0  0  0  0  0  0  0  0  0  0  0  0
    2.4380   69.3900   67.6280 C   0  0  0  0  0  0  0  0  0  0  0  0
    2.5760   69.1300   66.2670 C   0  0  0  0  0  0  0  0  0  0  0  0
    2.0030   67.9790   65.6950 C   0  0  0  0  0  0  0  0  0  0  0  0
    1.2700   67.1110   66.5270 C   0  0  0  0  0  0  0  0  0  0  0  0
    2.1920   67.7260   64.2080 C   0  0  1  0  0  0  0  0  0  0  0  0
    1.4850   68.7080   63.2640 C   0  0  0  0  0  0  0  0  0  0  0  0
    3.6840   67.5910   63.8630 N   0  0  0  0  0  4  0  0  0  0  0  0
    4.0310   66.2660   63.2080 C   0  0  0  0  0  0  0  0  0  0  0  0
    4.3700   65.2290   64.2650 C   0  0  0  0  0  0  0  0  0  0  0  0
    4.2570   68.7850   63.1220 C   0  0  0  0  0  0  0  0  0  0  0  0
    5.2930   69.4910   63.9800 C   0  0  0  0  0  0  0  0  0  0  0  0
   -0.8837   63.3534   72.4603 H   0  0  0  0  0  0  0  0  0  0  0  0
    3.4391   62.7470   69.9511 H   0  0  0  0  0  0  0  0  0  0  0  0
    3.1978   65.7687   70.4486 H   0  0  0  0  0  0  0  0  0  0  0  0
    2.6062   65.2736   68.8653 H   0  0  0  0  0  0  0  0  0  0  0  0
    1.3426   67.3605   70.4753 H   0  0  0  0  0  0  0  0  0  0  0  0
   -0.7501   60.9390   74.3487 H   0  0  0  0  0  0  0  0  0  0  0  0
   -1.4766   61.9185   73.0299 H   0  0  0  0  0  0  0  0  0  0  0  0
   -1.6647   60.1321   73.0299 H   0  0  0  0  0  0  0  0  0  0  0  0
    4.3126   59.8121   70.6792 H   0  0  0  0  0  0  0  0  0  0  0  0
    2.9600   59.3687   69.5835 H   0  0  0  0  0  0  0  0  0  0  0  0
    3.6029   61.0459   69.5835 H   0  0  0  0  0  0  0  0  0  0  0  0
    1.6351   68.7070   69.5129 H   0  0  0  0  0  0  0  0  0  0  0  0
    2.8837   70.2965   68.0635 H   0  0  0  0  0  0  0  0  0  0  0  0
    3.1384   69.8311   65.6328 H   0  0  0  0  0  0  0  0  0  0  0  0
    0.7792   66.2288   66.0901 H   0  0  0  0  0  0  0  0  0  0  0  0
    1.6793   66.7704   64.0236 H   0  0  0  0  0  0  0  0  0  0  0  0
    0.9434   69.4603   63.8562 H   0  0  0  0  0  0  0  0  0  0  0  0
    2.2313   69.2085   62.6296 H   0  0  0  0  0  0  0  0  0  0  0  0
    0.7736   68.1590   62.6296 H   0  0  0  0  0  0  0  0  0  0  0  0
    4.1621   67.5885   64.7753 H   0  0  0  0  0  0  0  0  0  0  0  0
    3.1706   65.9160   62.6188 H   0  0  0  0  0  0  0  0  0  0  0  0
    4.9031   66.4079   62.5528 H   0  0  0  0  0  0  0  0  0  0  0  0
    4.2276   65.6646   65.2650 H   0  0  0  0  0  0  0  0  0  0  0  0
    3.7103   64.3567   64.1477 H   0  0  0  0  0  0  0  0  0  0  0  0
    5.4176   64.9148   64.1477 H   0  0  0  0  0  0  0  0  0  0  0  0
    4.7307   68.4409   62.1908 H   0  0  0  0  0  0  0  0  0  0  0  0
    3.4428   69.4883   62.8932 H   0  0  0  0  0  0  0  0  0  0  0  0
    5.0590   69.3316   65.0429 H   0  0  0  0  0  0  0  0  0  0  0  0
    6.2908   69.0841   63.7592 H   0  0  0  0  0  0  0  0  0  0  0  0
    5.2793   70.5685   63.7592 H   0  0  0  0  0  0  0  0  0  0  0  0
  3  2  2  0
  4  3  1  0
  5  4  2  0
  6  5  1  0
  7  6  2  0
  7  2  1  0
  8  5  1  0
  9  8  1  0
  9  1  1  0
 10  4  1  0
 10  9  1  0
 11 10  2  0
 13 12  1  0
 13  2  1  0
 14  7  1  0
 15 14  1  0
 16  1  1  0
 17 16  2  0
 18 17  1  0
 19 18  2  0
 20 19  1  0
 21 20  2  0
 21 16  1  0
 22 20  1  0
 23 22  1  0
 24 22  1  0
 25 24  1  0
 26 25  1  0
 27 24  1  0
 28 27  1  0
  3 29  1  0
  6 30  1  0
  8 31  1  0
  8 32  1  0
  9 33  1  1
 12 34  1  0
 12 35  1  0
 12 36  1  0
 15 37  1  0
 15 38  1  0
 15 39  1  0
 17 40  1  0
 18 41  1  0
 19 42  1  0
 21 43  1  0
 22 44  1  6
 23 45  1  0
 23 46  1  0
 23 47  1  0
 24 48  1  0
 25 49  1  0
 25 50  1  0
 26 51  1  0
 26 52  1  0
 26 53  1  0
 27 54  1  0
 27 55  1  0
 28 56  1  0
 28 57  1  0
 28 58  1  0
M  CHG  1  24   1
M  END
>  <score>  (4) 
-8.802

$$$$
=
     RDKit          3D

 58 60  0  0  0  0  0  0  0  0999 V2000
    0.9640   65.8000   70.6030 O   0  0  0  0  0  0  0  0  0  0  0  0
    3.1780   61.4300   73.1790 C   0  0  0  0  0  0  0  0  0  0  0  0
    3.1530   61.9760   71.8930 C   0  0  0  0  0  0  0  0  0  0  0  0
    2.0930   62.8020   71.5680 C   0  0  0  0  0  0  0  0  0  0  0  0
    1.0660   63.1020   72.4490 C   0  0  0  0  0  0  0  0  0  0  0  0
    1.0710   62.5630   73.7270 C   0  0  0  0  0  0  0  0  0  0  0  0
    2.1340   61.7260   74.1010 C   0  0  0  0  0  0  0  0  0  0  0  0
    0.0130   63.9680   71.8270 C   0  0  0  0  0  0  0  0  0  0  0  0
    0.6320   64.4240   70.4790 C   0  0  2  0  0  0  0  0  0  0  0  0
    1.8370   63.4910   70.3120 C   0  0  0  0  0  0  0  0  0  0  0  0
    2.5040   63.3290   69.3010 O   0  0  0  0  0  0  0  0  0  0  0  0
    4.1870   59.2610   73.1620 C   0  0  0  0  0  0  0  0  0  0  0  0
    4.1650   60.5970   73.6430 O   0  0  0  0  0  0  0  0  0  0  0  0
    2.2500   61.1350   75.3360 O   0  0  0  0  0  0  0  0  0  0  0  0
    1.2350   61.3930   76.2950 C   0  0  0  0  0  0  0  0  0  0  0  0
    0.7890   66.6430   69.5470 C   0  0  0  0  0  0  0  0  0  0  0  0
   -0.4000   66.4440   68.8450 C   0  0  0  0  0  0  0  0  0  0  0  0
   -0.7310   67.2570   67.7630 C   0  0  0  0  0  0  0  0  0  0  0  0
    0.1250   68.2870   67.3800 C   0  0  0  0  0  0  0  0  0  0  0  0
    1.3300   68.5110   68.0700 C   0  0  0  0  0  0  0  0  0  0  0  0
    1.6590   67.6560   69.1400 C   0  0  0  0  0  0  0  0  0  0  0  0
    2.2280   69.6560   67.6280 C   0  0  1  0  0  0  0  0  0  0  0  0
    2.7430   70.5740   68.7440 C   0  0  0  0  0  0  0  0  0  0  0  0
    3.3790   69.1390   66.7510 N   0  0  0  0  0  4  0  0  0  0  0  0
    3.0220   69.0600   65.2770 C   0  0  0  0  0  0  0  0  0  0  0  0
    2.8170   67.6140   64.8620 C   0  0  0  0  0  0  0  0  0  0  0  0
    4.7060   69.8310   67.0020 C   0  0  0  0  0  0  0  0  0  0  0  0
    5.5500   69.8310   65.7380 C   0  0  0  0  0  0  0  0  0  0  0  0
    3.9482   61.7565   71.1653 H   0  0  0  0  0  0  0  0  0  0  0  0
    0.2581   62.7870   74.4334 H   0  0  0  0  0  0  0  0  0  0  0  0
   -0.9108   63.3955   71.6569 H   0  0  0  0  0  0  0  0  0  0  0  0
   -0.2634   64.8173   72.4691 H   0  0  0  0  0  0  0  0  0  0  0  0
   -0.0170   64.3550   69.5935 H   0  0  0  0  0  0  0  0  0  0  0  0
    4.1985   58.5648   74.0136 H   0  0  0  0  0  0  0  0  0  0  0  0
    3.2918   59.0769   72.5499 H   0  0  0  0  0  0  0  0  0  0  0  0
    5.0878   59.1064   72.5499 H   0  0  0  0  0  0  0  0  0  0  0  0
    1.6517   61.2871   77.3075 H   0  0  0  0  0  0  0  0  0  0  0  0
    0.8548   62.4164   76.1602 H   0  0  0  0  0  0  0  0  0  0  0  0
    0.4123   60.6754   76.1602 H   0  0  0  0  0  0  0  0  0  0  0  0
   -1.0831   65.6371   69.1488 H   0  0  0  0  0  0  0  0  0  0  0  0
   -1.6674   67.0857   67.2118 H   0  0  0  0  0  0  0  0  0  0  0  0
   -0.1440   68.9312   66.5299 H   0  0  0  0  0  0  0  0  0  0  0  0
    2.6173   67.7887   69.6635 H   0  0  0  0  0  0  0  0  0  0  0  0
    1.5713   70.3083   67.0336 H   0  0  0  0  0  0  0  0  0  0  0  0
    2.4970   70.1354   69.7223 H   0  0  0  0  0  0  0  0  0  0  0  0
    3.8340   70.6830   68.6549 H   0  0  0  0  0  0  0  0  0  0  0  0
    2.2674   71.5618   68.6549 H   0  0  0  0  0  0  0  0  0  0  0  0
    3.5230   68.1667   67.0589 H   0  0  0  0  0  0  0  0  0  0  0  0
    2.0949   69.6242   65.0973 H   0  0  0  0  0  0  0  0  0  0  0  0
    3.8444   69.4891   64.6858 H   0  0  0  0  0  0  0  0  0  0  0  0
    2.7277   66.9841   65.7594 H   0  0  0  0  0  0  0  0  0  0  0  0
    1.8981   67.5312   64.2630 H   0  0  0  0  0  0  0  0  0  0  0  0
    3.6766   67.2791   64.2630 H   0  0  0  0  0  0  0  0  0  0  0  0
    4.5202   70.8694   67.3139 H   0  0  0  0  0  0  0  0  0  0  0  0
    5.2469   69.2903   67.7926 H   0  0  0  0  0  0  0  0  0  0  0  0
    5.7536   68.7939   65.4331 H   0  0  0  0  0  0  0  0  0  0  0  0
    5.0067   70.3495   64.9343 H   0  0  0  0  0  0  0  0  0  0  0  0
    6.5006   70.3495   65.9318 H   0  0  0  0  0  0  0  0  0  0  0  0
  3  2  2  0
  4  3  1  0
  5  4  2  0
  6  5  1  0
  7  6  2  0
  7  2  1  0
  8  5  1  0
  9  8  1  0
  9  1  1  0
 10  4  1  0
 10  9  1  0
 11 10  2  0
 13 12  1  0
 13  2  1  0
 14  7  1  0
 15 14  1  0
 16  1  1  0
 17 16  2  0
 18 17  1  0
 19 18  2  0
 20 19  1  0
 21 20  2  0
 21 16  1  0
 22 20  1  0
 23 22  1  0
 24 22  1  0
 25 24  1  0
 26 25  1  0
 27 24  1  0
 28 27  1  0
  3 29  1  0
  6 30  1  0
  8 31  1  0
  8 32  1  0
  9 33  1  6
 12 34  1  0
 12 35  1  0
 12 36  1  0
 15 37  1  0
 15 38  1  0
 15 39  1  0
 17 40  1  0
 18 41  1  0
 19 42  1  0
 21 43  1  0
 22 44  1  6
 23 45  1  0
 23 46  1  0
 23 47  1  0
 24 48  1  0
 25 49  1  0
 25 50  1  0
 26 51  1  0
 26 52  1  0
 26 53  1  0
 27 54  1  0
 27 55  1  0
 28 56  1  0
 28 57  1  0
 28 58  1  0
M  CHG  1  24   1
M  END
>  <score>  (5) 
-8.704

$$$$
=
     RDKit          3D

 58 60  0  0  0  0  0  0  0  0999 V2000
   -0.2840   64.8930   69.4510 O   0  0  0  0  0  0  0  0  0  0  0  0
    1.9550   68.5600   65.9620 C   0  0  0  0  0  0  0  0  0  0  0  0
    2.1390   68.1320   67.2800 C   0  0  0  0  0  0  0  0  0  0  0  0
    1.0630   67.5440   67.9190 C   0  0  0  0  0  0  0  0  0  0  0  0
   -0.1740   67.3700   67.3180 C   0  0  0  0  0  0  0  0  0  0  0  0
   -0.3750   67.7950   66.0140 C   0  0  0  0  0  0  0  0  0  0  0  0
    0.6940   68.3890   65.3260 C   0  0  0  0  0  0  0  0  0  0  0  0
   -1.1810   66.7650   68.2480 C   0  0  0  0  0  0  0  0  0  0  0  0
   -0.3510   66.3120   69.4780 C   0  0  2  0  0  0  0  0  0  0  0  0
    0.9950   67.0170   69.2740 C   0  0  0  0  0  0  0  0  0  0  0  0
    1.8930   67.1330   70.0930 O   0  0  0  0  0  0  0  0  0  0  0  0
    4.1390   69.5310   65.8510 C   0  0  0  0  0  0  0  0  0  0  0  0
    2.9320   69.1570   65.2030 O   0  0  0  0  0  0  0  0  0  0  0  0
    0.6170   68.8490   64.0330 O   0  0  0  0  0  0  0  0  0  0  0  0
   -0.6650   68.9110   63.4240 C   0  0  0  0  0  0  0  0  0  0  0  0
    0.3750   64.2210   70.4370 C   0  0  0  0  0  0  0  0  0  0  0  0
    0.0540   64.6370   71.7290 C   0  0  0  0  0  0  0  0  0  0  0  0
    0.6230   64.0160   72.8380 C   0  0  0  0  0  0  0  0  0  0  0  0
    1.5140   62.9600   72.6620 C   0  0  0  0  0  0  0  0  0  0  0  0
    1.8550   62.5190   71.3710 C   0  0  0  0  0  0  0  0  0  0  0  0
    1.2930   63.1830   70.2640 C   0  0  0  0  0  0  0  0  0  0  0  0
    2.8200   61.3520   71.2250 C   0  0  1  0  0  0  0  0  0  0  0  0
    3.0550   60.8500   69.7940 C   0  0  0  0  0  0  0  0  0  0  0  0
    4.1480   61.6500   71.9400 N   0  0  0  0  0  4  0  0  0  0  0  0
    4.5470   60.5750   72.9350 C   0  0  0  0  0  0  0  0  0  0  0  0
    3.6670   59.3490   72.7690 C   0  0  0  0  0  0  0  0  0  0  0  0
    5.2780   62.0420   71.0070 C   0  0  0  0  0  0  0  0  0  0  0  0
    5.1670   63.5100   70.6310 C   0  0  0  0  0  0  0  0  0  0  0  0
    3.1051   68.2585   67.7905 H   0  0  0  0  0  0  0  0  0  0  0  0
   -1.3537   67.6690   65.5279 H   0  0  0  0  0  0  0  0  0  0  0  0
   -1.9360   67.5094   68.5412 H   0  0  0  0  0  0  0  0  0  0  0  0
   -1.7308   65.9324   67.7849 H   0  0  0  0  0  0  0  0  0  0  0  0
   -0.7591   66.5702   70.4663 H   0  0  0  0  0  0  0  0  0  0  0  0
    3.9986   69.4875   66.9411 H   0  0  0  0  0  0  0  0  0  0  0  0
    4.9425   68.8397   65.5569 H   0  0  0  0  0  0  0  0  0  0  0  0
    4.4108   70.5555   65.5569 H   0  0  0  0  0  0  0  0  0  0  0  0
   -1.4399   68.9485   64.2038 H   0  0  0  0  0  0  0  0  0  0  0  0
   -0.7305   69.8134   62.7983 H   0  0  0  0  0  0  0  0  0  0  0  0
   -0.8172   68.0192   62.7983 H   0  0  0  0  0  0  0  0  0  0  0  0
   -0.6562   65.4645   71.8735 H   0  0  0  0  0  0  0  0  0  0  0  0
    0.3691   64.3591   73.8518 H   0  0  0  0  0  0  0  0  0  0  0  0
    1.9549   62.4666   73.5407 H   0  0  0  0  0  0  0  0  0  0  0  0
    1.5815   62.8794   69.2469 H   0  0  0  0  0  0  0  0  0  0  0  0
    2.3119   60.5103   71.7183 H   0  0  0  0  0  0  0  0  0  0  0  0
    3.5212   59.8542   69.8267 H   0  0  0  0  0  0  0  0  0  0  0  0
    2.0927   60.7872   69.2648 H   0  0  0  0  0  0  0  0  0  0  0  0
    3.7196   61.5488   69.2648 H   0  0  0  0  0  0  0  0  0  0  0  0
    3.9590   62.4950   72.4978 H   0  0  0  0  0  0  0  0  0  0  0  0
    5.5966   60.2939   72.7638 H   0  0  0  0  0  0  0  0  0  0  0  0
    4.4232   60.9683   73.9548 H   0  0  0  0  0  0  0  0  0  0  0  0
    3.3884   58.9608   73.7598 H   0  0  0  0  0  0  0  0  0  0  0  0
    2.7579   59.6227   72.2135 H   0  0  0  0  0  0  0  0  0  0  0  0
    4.2172   58.5752   72.2135 H   0  0  0  0  0  0  0  0  0  0  0  0
    6.2407   61.8682   71.5101 H   0  0  0  0  0  0  0  0  0  0  0  0
    5.2147   61.4330   70.0931 H   0  0  0  0  0  0  0  0  0  0  0  0
    5.1209   64.1202   71.5451 H   0  0  0  0  0  0  0  0  0  0  0  0
    6.0455   63.8040   70.0378 H   0  0  0  0  0  0  0  0  0  0  0  0
    4.2543   63.6686   70.0378 H   0  0  0  0  0  0  0  0  0  0  0  0
  3  2  2  0
  4  3  1  0
  5  4  2  0
  6  5  1  0
  7  6  2  0
  7  2  1  0
  8  5  1  0
  9  8  1  0
  9  1  1  0
 10  4  1  0
 10  9  1  0
 11 10  2  0
 13 12  1  0
 13  2  1  0
 14  7  1  0
 15 14  1  0
 16  1  1  0
 17 16  2  0
 18 17  1  0
 19 18  2  0
 20 19  1  0
 21 20  2  0
 21 16  1  0
 22 20  1  0
 23 22  1  0
 24 22  1  0
 25 24  1  0
 26 25  1  0
 27 24  1  0
 28 27  1  0
  3 29  1  0
  6 30  1  0
  8 31  1  0
  8 32  1  0
  9 33  1  1
 12 34  1  0
 12 35  1  0
 12 36  1  0
 15 37  1  0
 15 38  1  0
 15 39  1  0
 17 40  1  0
 18 41  1  0
 19 42  1  0
 21 43  1  0
 22 44  1  1
 23 45  1  0
 23 46  1  0
 23 47  1  0
 24 48  1  0
 25 49  1  0
 25 50  1  0
 26 51  1  0
 26 52  1  0
 26 53  1  0
 27 54  1  0
 27 55  1  0
 28 56  1  0
 28 57  1  0
 28 58  1  0
M  CHG  1  24   1
M  END
>  <score>  (6) 
-8.688

$$$$
=
     RDKit          3D

 58 60  0  0  0  0  0  0  0  0999 V2000
    3.4380   59.7030   70.0290 O   0  0  0  0  0  0  0  0  0  0  0  0
    1.4070   58.3910   75.0070 C   0  0  0  0  0  0  0  0  0  0  0  0
    2.4800   59.1140   74.4800 C   0  0  0  0  0  0  0  0  0  0  0  0
    2.9040   58.7930   73.2030 C   0  0  0  0  0  0  0  0  0  0  0  0
    2.3200   57.7950   72.4390 C   0  0  0  0  0  0  0  0  0  0  0  0
    1.2590   57.0630   72.9500 C   0  0  0  0  0  0  0  0  0  0  0  0
    0.7920   57.3630   74.2390 C   0  0  0  0  0  0  0  0  0  0  0  0
    3.0070   57.6100   71.1200 C   0  0  0  0  0  0  0  0  0  0  0  0
    3.9690   58.8220   71.0100 C   0  0  2  0  0  0  0  0  0  0  0  0
    3.9850   59.3900   72.4330 C   0  0  0  0  0  0  0  0  0  0  0  0
    4.7620   60.2170   72.8840 O   0  0  0  0  0  0  0  0  0  0  0  0
    0.4630   59.9170   76.5910 C   0  0  0  0  0  0  0  0  0  0  0  0
    0.8780   58.6000   76.2570 O   0  0  0  0  0  0  0  0  0  0  0  0
   -0.2510   56.7100   74.8510 O   0  0  0  0  0  0  0  0  0  0  0  0
   -0.5290   55.3770   74.4490 C   0  0  0  0  0  0  0  0  0  0  0  0
    3.3410   61.0370   70.2900 C   0  0  0  0  0  0  0  0  0  0  0  0
    4.4510   61.7820   69.8920 C   0  0  0  0  0  0  0  0  0  0  0  0
    4.4780   63.1640   70.0620 C   0  0  0  0  0  0  0  0  0  0  0  0
    3.3830   63.8160   70.6260 C   0  0  0  0  0  0  0  0  0  0  0  0
    2.2510   63.0900   71.0360 C   0  0  0  0  0  0  0  0  0  0  0  0
    2.2600   61.6900   70.8830 C   0  0  0  0  0  0  0  0  0  0  0  0
    1.0720   63.8430   71.6320 C   0  0  1  0  0  0  0  0  0  0  0  0
   -0.0230   64.2670   70.6440 C   0  0  0  0  0  0  0  0  0  0  0  0
    0.4830   63.0770   72.8270 N   0  0  0  0  0  4  0  0  0  0  0  0
    0.2800   63.9450   74.0560 C   0  0  0  0  0  0  0  0  0  0  0  0
    1.1780   63.4770   75.1870 C   0  0  0  0  0  0  0  0  0  0  0  0
   -0.7360   62.2400   72.4850 C   0  0  0  0  0  0  0  0  0  0  0  0
   -0.6010   60.8450   73.0700 C   0  0  0  0  0  0  0  0  0  0  0  0
    2.9701   59.9100   75.0598 H   0  0  0  0  0  0  0  0  0  0  0  0
    0.7925   56.2628   72.3567 H   0  0  0  0  0  0  0  0  0  0  0  0
    3.5691   56.6646   71.1036 H   0  0  0  0  0  0  0  0  0  0  0  0
    2.2967   57.5622   70.2814 H   0  0  0  0  0  0  0  0  0  0  0  0
    4.9973   58.6032   70.6864 H   0  0  0  0  0  0  0  0  0  0  0  0
    0.4292   60.0244   77.6852 H   0  0  0  0  0  0  0  0  0  0  0  0
    1.1759   60.6431   76.1732 H   0  0  0  0  0  0  0  0  0  0  0  0
   -0.5374   60.1033   76.1732 H   0  0  0  0  0  0  0  0  0  0  0  0
   -0.6607   54.7453   75.3398 H   0  0  0  0  0  0  0  0  0  0  0  0
   -1.4500   55.3598   73.8479 H   0  0  0  0  0  0  0  0  0  0  0  0
    0.3084   54.9931   73.8479 H   0  0  0  0  0  0  0  0  0  0  0  0
    5.3143   61.2725   69.4390 H   0  0  0  0  0  0  0  0  0  0  0  0
    5.3622   63.7400   69.7516 H   0  0  0  0  0  0  0  0  0  0  0  0
    3.4046   64.9086   70.7515 H   0  0  0  0  0  0  0  0  0  0  0  0
    1.4006   61.1017   71.2369 H   0  0  0  0  0  0  0  0  0  0  0  0
    1.4994   64.7967   71.9752 H   0  0  0  0  0  0  0  0  0  0  0  0
   -0.9073   64.6094   71.2015 H   0  0  0  0  0  0  0  0  0  0  0  0
    0.3510   65.0853   70.0112 H   0  0  0  0  0  0  0  0  0  0  0  0
   -0.2976   63.4102   70.0112 H   0  0  0  0  0  0  0  0  0  0  0  0
    1.2113   62.3946   73.0815 H   0  0  0  0  0  0  0  0  0  0  0  0
    0.5238   64.9884   73.8074 H   0  0  0  0  0  0  0  0  0  0  0  0
   -0.7691   63.8690   74.3779 H   0  0  0  0  0  0  0  0  0  0  0  0
    0.7097   63.7211   76.1520 H   0  0  0  0  0  0  0  0  0  0  0  0
    1.3224   62.3889   75.1143 H   0  0  0  0  0  0  0  0  0  0  0  0
    2.1526   63.9819   75.1143 H   0  0  0  0  0  0  0  0  0  0  0  0
   -1.6341   62.7214   72.8992 H   0  0  0  0  0  0  0  0  0  0  0  0
   -0.8198   62.1617   71.3910 H   0  0  0  0  0  0  0  0  0  0  0  0
   -0.6069   60.9058   74.1683 H   0  0  0  0  0  0  0  0  0  0  0  0
   -1.4431   60.2229   72.7327 H   0  0  0  0  0  0  0  0  0  0  0  0
    0.3448   60.3959   72.7327 H   0  0  0  0  0  0  0  0  0  0  0  0
  3  2  2  0
  4  3  1  0
  5  4  2  0
  6  5  1  0
  7  6  2  0
  7  2  1  0
  8  5  1  0
  9  8  1  0
  9  1  1  0
 10  4  1  0
 10  9  1  0
 11 10  2  0
 13 12  1  0
 13  2  1  0
 14  7  1  0
 15 14  1  0
 16  1  1  0
 17 16  2  0
 18 17  1  0
 19 18  2  0
 20 19  1  0
 21 20  2  0
 21 16  1  0
 22 20  1  0
 23 22  1  0
 24 22  1  0
 25 24  1  0
 26 25  1  0
 27 24  1  0
 28 27  1  0
  3 29  1  0
  6 30  1  0
  8 31  1  0
  8 32  1  0
  9 33  1  6
 12 34  1  0
 12 35  1  0
 12 36  1  0
 15 37  1  0
 15 38  1  0
 15 39  1  0
 17 40  1  0
 18 41  1  0
 19 42  1  0
 21 43  1  0
 22 44  1  1
 23 45  1  0
 23 46  1  0
 23 47  1  0
 24 48  1  0
 25 49  1  0
 25 50  1  0
 26 51  1  0
 26 52  1  0
 26 53  1  0
 27 54  1  0
 27 55  1  0
 28 56  1  0
 28 57  1  0
 28 58  1  0
M  CHG  1  24   1
M  END
>  <score>  (7) 
-7.784

$$$$
=
     RDKit          3D

 58 60  0  0  0  0  0  0  0  0999 V2000
    3.2500   60.8620   69.5080 O   0  0  0  0  0  0  0  0  0  0  0  0
    2.8550   58.3300   74.4140 C   0  0  0  0  0  0  0  0  0  0  0  0
    3.6490   59.3090   73.8100 C   0  0  0  0  0  0  0  0  0  0  0  0
    3.7320   59.3050   72.4300 C   0  0  0  0  0  0  0  0  0  0  0  0
    3.0760   58.3810   71.6320 C   0  0  0  0  0  0  0  0  0  0  0  0
    2.2910   57.3980   72.2160 C   0  0  0  0  0  0  0  0  0  0  0  0
    2.1720   57.3720   73.6140 C   0  0  0  0  0  0  0  0  0  0  0  0
    3.3830   58.5610   70.1770 C   0  0  0  0  0  0  0  0  0  0  0  0
    4.1320   59.9190   70.1040 C   0  0  2  0  0  0  0  0  0  0  0  0
    4.4790   60.2090   71.5680 C   0  0  0  0  0  0  0  0  0  0  0  0
    5.2520   61.0580   71.9830 O   0  0  0  0  0  0  0  0  0  0  0  0
    3.8170   57.9210   76.5670 C   0  0  0  0  0  0  0  0  0  0  0  0
    2.6770   58.2120   75.7700 O   0  0  0  0  0  0  0  0  0  0  0  0
    1.4230   56.4500   74.3060 O   0  0  0  0  0  0  0  0  0  0  0  0
    1.8080   55.0850   74.2240 C   0  0  0  0  0  0  0  0  0  0  0  0
    2.7080   61.8600   70.2620 C   0  0  0  0  0  0  0  0  0  0  0  0
    3.2140   63.1300   69.9820 C   0  0  0  0  0  0  0  0  0  0  0  0
    2.7270   64.2510   70.6490 C   0  0  0  0  0  0  0  0  0  0  0  0
    1.7180   64.1110   71.5990 C   0  0  0  0  0  0  0  0  0  0  0  0
    1.1890   62.8430   71.9010 C   0  0  0  0  0  0  0  0  0  0  0  0
    1.7190   61.7200   71.2370 C   0  0  0  0  0  0  0  0  0  0  0  0
    0.0770   62.7380   72.9330 C   0  0  1  0  0  0  0  0  0  0  0  0
   -0.8530   61.5250   72.7970 C   0  0  0  0  0  0  0  0  0  0  0  0
    0.6420   62.8540   74.3570 N   0  0  0  0  0  4  0  0  0  0  0  0
   -0.2060   63.7210   75.2710 C   0  0  0  0  0  0  0  0  0  0  0  0
   -0.0710   65.1830   74.8860 C   0  0  0  0  0  0  0  0  0  0  0  0
    1.0180   61.5240   74.9840 C   0  0  0  0  0  0  0  0  0  0  0  0
    1.0430   61.6410   76.4980 C   0  0  0  0  0  0  0  0  0  0  0  0
    4.1884   60.0558   74.4111 H   0  0  0  0  0  0  0  0  0  0  0  0
    1.7717   56.6530   71.5953 H   0  0  0  0  0  0  0  0  0  0  0  0
    4.0220   57.7441   69.8103 H   0  0  0  0  0  0  0  0  0  0  0  0
    2.4770   58.5484   69.5532 H   0  0  0  0  0  0  0  0  0  0  0  0
    5.0474   59.9423   69.4945 H   0  0  0  0  0  0  0  0  0  0  0  0
    3.5476   57.9898   77.6313 H   0  0  0  0  0  0  0  0  0  0  0  0
    4.1708   56.9037   76.3433 H   0  0  0  0  0  0  0  0  0  0  0  0
    4.6151   58.6442   76.3433 H   0  0  0  0  0  0  0  0  0  0  0  0
    1.9236   54.6751   75.2382 H   0  0  0  0  0  0  0  0  0  0  0  0
    1.0348   54.5177   73.6852 H   0  0  0  0  0  0  0  0  0  0  0  0
    2.7637   55.0053   73.6852 H   0  0  0  0  0  0  0  0  0  0  0  0
    4.0054   63.2466   69.2269 H   0  0  0  0  0  0  0  0  0  0  0  0
    3.1387   65.2463   70.4259 H   0  0  0  0  0  0  0  0  0  0  0  0
    1.3312   65.0004   72.1180 H   0  0  0  0  0  0  0  0  0  0  0  0
    1.3476   60.7162   71.4908 H   0  0  0  0  0  0  0  0  0  0  0  0
   -0.5778   63.5961   72.7210 H   0  0  0  0  0  0  0  0  0  0  0  0
   -1.1311   61.1622   73.7975 H   0  0  0  0  0  0  0  0  0  0  0  0
   -1.7600   61.8181   72.2480 H   0  0  0  0  0  0  0  0  0  0  0  0
   -0.3345   60.7252   72.2480 H   0  0  0  0  0  0  0  0  0  0  0  0
    1.5344   63.3551   74.2411 H   0  0  0  0  0  0  0  0  0  0  0  0
   -1.2599   63.4185   75.1828 H   0  0  0  0  0  0  0  0  0  0  0  0
    0.1383   63.5911   76.3076 H   0  0  0  0  0  0  0  0  0  0  0  0
   -0.0142   65.7981   75.7962 H   0  0  0  0  0  0  0  0  0  0  0  0
    0.8439   65.3226   74.2914 H   0  0  0  0  0  0  0  0  0  0  0  0
   -0.9448   65.4878   74.2914 H   0  0  0  0  0  0  0  0  0  0  0  0
    0.2791   60.7635   74.6913 H   0  0  0  0  0  0  0  0  0  0  0  0
    2.0188   61.2336   74.6319 H   0  0  0  0  0  0  0  0  0  0  0  0
    0.8330   60.6582   76.9452 H   0  0  0  0  0  0  0  0  0  0  0  0
    2.0354   61.9871   76.8227 H   0  0  0  0  0  0  0  0  0  0  0  0
    0.2787   62.3624   76.8227 H   0  0  0  0  0  0  0  0  0  0  0  0
  3  2  2  0
  4  3  1  0
  5  4  2  0
  6  5  1  0
  7  6  2  0
  7  2  1  0
  8  5  1  0
  9  8  1  0
  9  1  1  0
 10  4  1  0
 10  9  1  0
 11 10  2  0
 13 12  1  0
 13  2  1  0
 14  7  1  0
 15 14  1  0
 16  1  1  0
 17 16  2  0
 18 17  1  0
 19 18  2  0
 20 19  1  0
 21 20  2  0
 21 16  1  0
 22 20  1  0
 23 22  1  0
 24 22  1  0
 25 24  1  0
 26 25  1  0
 27 24  1  0
 28 27  1  0
  3 29  1  0
  6 30  1  0
  8 31  1  0
  8 32  1  0
  9 33  1  6
 12 34  1  0
 12 35  1  0
 12 36  1  0
 15 37  1  0
 15 38  1  0
 15 39  1  0
 17 40  1  0
 18 41  1  0
 19 42  1  0
 21 43  1  0
 22 44  1  6
 23 45  1  0
 23 46  1  0
 23 47  1  0
 24 48  1  0
 25 49  1  0
 25 50  1  0
 26 51  1  0
 26 52  1  0
 26 53  1  0
 27 54  1  0
 27 55  1  0
 28 56  1  0
 28 57  1  0
 28 58  1  0
M  CHG  1  24   1
M  END
>  <score>  (8) 
-7.693

$$$$
=
     RDKit          3D

 58 60  0  0  0  0  0  0  0  0999 V2000
    1.3250   66.8520   70.0400 O   0  0  0  0  0  0  0  0  0  0  0  0
    2.3540   62.4390   73.2180 C   0  0  0  0  0  0  0  0  0  0  0  0
    2.6370   62.8750   71.9210 C   0  0  0  0  0  0  0  0  0  0  0  0
    1.7910   63.8140   71.3610 C   0  0  0  0  0  0  0  0  0  0  0  0
    0.6860   64.3290   72.0210 C   0  0  0  0  0  0  0  0  0  0  0  0
    0.3860   63.9020   73.3060 C   0  0  0  0  0  0  0  0  0  0  0  0
    1.2260   62.9560   73.9140 C   0  0  0  0  0  0  0  0  0  0  0  0
   -0.0960   65.2820   71.1690 C   0  0  0  0  0  0  0  0  0  0  0  0
    0.8100   65.5310   69.9340 C   0  0  2  0  0  0  0  0  0  0  0  0
    1.8660   64.4260   70.0430 C   0  0  0  0  0  0  0  0  0  0  0  0
    2.6640   64.0870   69.1820 O   0  0  0  0  0  0  0  0  0  0  0  0
    3.3360   60.2580   73.2800 C   0  0  0  0  0  0  0  0  0  0  0  0
    3.1050   61.5140   73.9010 O   0  0  0  0  0  0  0  0  0  0  0  0
    1.0330   62.4590   75.1810 O   0  0  0  0  0  0  0  0  0  0  0  0
    0.7460   63.3810   76.2220 C   0  0  0  0  0  0  0  0  0  0  0  0
    1.5960   67.5720   68.9150 C   0  0  0  0  0  0  0  0  0  0  0  0
    2.1620   68.8240   69.1560 C   0  0  0  0  0  0  0  0  0  0  0  0
    2.5250   69.6550   68.0990 C   0  0  0  0  0  0  0  0  0  0  0  0
    2.3330   69.2340   66.7860 C   0  0  0  0  0  0  0  0  0  0  0  0
    1.7640   67.9770   66.5120 C   0  0  0  0  0  0  0  0  0  0  0  0
    1.3760   67.1660   67.5970 C   0  0  0  0  0  0  0  0  0  0  0  0
    1.5870   67.5500   65.0640 C   0  0  1  0  0  0  0  0  0  0  0  0
    0.8430   68.5400   64.1580 C   0  0  0  0  0  0  0  0  0  0  0  0
    2.9330   67.1300   64.4500 N   0  0  0  0  0  4  0  0  0  0  0  0
    3.0760   65.6270   64.2890 C   0  0  0  0  0  0  0  0  0  0  0  0
    4.5020   65.2720   63.9080 C   0  0  0  0  0  0  0  0  0  0  0  0
    3.3070   67.8990   63.1970 C   0  0  0  0  0  0  0  0  0  0  0  0
    4.3310   68.9730   63.5210 C   0  0  0  0  0  0  0  0  0  0  0  0
    3.5024   62.4849   71.3652 H   0  0  0  0  0  0  0  0  0  0  0  0
   -0.4923   64.2966   73.8378 H   0  0  0  0  0  0  0  0  0  0  0  0
   -1.0541   64.8354   70.8648 H   0  0  0  0  0  0  0  0  0  0  0  0
   -0.3437   66.2125   71.7009 H   0  0  0  0  0  0  0  0  0  0  0  0
    0.3213   65.4813   68.9498 H   0  0  0  0  0  0  0  0  0  0  0  0
    3.4777   59.4876   74.0523 H   0  0  0  0  0  0  0  0  0  0  0  0
    2.4713   59.9943   72.6533 H   0  0  0  0  0  0  0  0  0  0  0  0
    4.2380   60.3192   72.6533 H   0  0  0  0  0  0  0  0  0  0  0  0
    0.8979   62.8931   77.1961 H   0  0  0  0  0  0  0  0  0  0  0  0
    1.4165   64.2490   76.1382 H   0  0  0  0  0  0  0  0  0  0  0  0
   -0.2987   63.7151   76.1382 H   0  0  0  0  0  0  0  0  0  0  0  0
    2.3233   69.1583   70.1915 H   0  0  0  0  0  0  0  0  0  0  0  0
    2.9632   70.6434   68.3015 H   0  0  0  0  0  0  0  0  0  0  0  0
    2.6291   69.8907   65.9547 H   0  0  0  0  0  0  0  0  0  0  0  0
    0.8920   66.1975   67.4027 H   0  0  0  0  0  0  0  0  0  0  0  0
    0.9133   66.6819   65.1133 H   0  0  0  0  0  0  0  0  0  0  0  0
    0.2973   69.2661   64.7785 H   0  0  0  0  0  0  0  0  0  0  0  0
    1.5671   69.0714   63.5230 H   0  0  0  0  0  0  0  0  0  0  0  0
    0.1312   67.9922   63.5230 H   0  0  0  0  0  0  0  0  0  0  0  0
    3.6358   67.4060   65.1506 H   0  0  0  0  0  0  0  0  0  0  0  0
    2.8206   65.1342   65.2387 H   0  0  0  0  0  0  0  0  0  0  0  0
    2.3972   65.2858   63.4934 H   0  0  0  0  0  0  0  0  0  0  0  0
    5.0990   65.1234   64.8199 H   0  0  0  0  0  0  0  0  0  0  0  0
    4.5032   64.3462   63.3140 H   0  0  0  0  0  0  0  0  0  0  0  0
    4.9371   66.0892   63.3140 H   0  0  0  0  0  0  0  0  0  0  0  0
    3.7323   67.2037   62.4584 H   0  0  0  0  0  0  0  0  0  0  0  0
    2.4045   68.3778   62.7893 H   0  0  0  0  0  0  0  0  0  0  0  0
    4.4255   69.0722   64.6124 H   0  0  0  0  0  0  0  0  0  0  0  0
    5.3046   68.6926   63.0926 H   0  0  0  0  0  0  0  0  0  0  0  0
    4.0045   69.9321   63.0926 H   0  0  0  0  0  0  0  0  0  0  0  0
  3  2  2  0
  4  3  1  0
  5  4  2  0
  6  5  1  0
  7  6  2  0
  7  2  1  0
  8  5  1  0
  9  8  1  0
  9  1  1  0
 10  4  1  0
 10  9  1  0
 11 10  2  0
 13 12  1  0
 13  2  1  0
 14  7  1  0
 15 14  1  0
 16  1  1  0
 17 16  2  0
 18 17  1  0
 19 18  2  0
 20 19  1  0
 21 20  2  0
 21 16  1  0
 22 20  1  0
 23 22  1  0
 24 22  1  0
 25 24  1  0
 26 25  1  0
 27 24  1  0
 28 27  1  0
  3 29  1  0
  6 30  1  0
  8 31  1  0
  8 32  1  0
  9 33  1  6
 12 34  1  0
 12 35  1  0
 12 36  1  0
 15 37  1  0
 15 38  1  0
 15 39  1  0
 17 40  1  0
 18 41  1  0
 19 42  1  0
 21 43  1  0
 22 44  1  1
 23 45  1  0
 23 46  1  0
 23 47  1  0
 24 48  1  0
 25 49  1  0
 25 50  1  0
 26 51  1  0
 26 52  1  0
 26 53  1  0
 27 54  1  0
 27 55  1  0
 28 56  1  0
 28 57  1  0
 28 58  1  0
M  CHG  1  24   1
M  END
>  <score>  (9) 
-7.68

$$$$
