=
     RDKit          3D

 55 57  0  0  0  0  0  0  0  0999 V2000
   -0.0710   65.0240   69.4760 O   0  0  0  0  0  0  0  0  0  0  0  0
   -0.2210   66.4410   69.4310 C   0  0  1  0  0  0  0  0  0  0  0  0
    1.1890   67.0670   69.2690 C   0  0  0  0  0  0  0  0  0  0  0  0
    1.2050   67.6100   67.8750 C   0  0  0  0  0  0  0  0  0  0  0  0
   -0.0410   67.5530   67.2700 C   0  0  0  0  0  0  0  0  0  0  0  0
   -0.9740   66.9170   68.1880 C   0  0  0  0  0  0  0  0  0  0  0  0
   -2.1610   66.7770   67.9480 O   0  0  0  0  0  0  0  0  0  0  0  0
   -0.2860   68.0290   65.9940 C   0  0  0  0  0  0  0  0  0  0  0  0
    0.7850   68.5900   65.2940 C   0  0  0  0  0  0  0  0  0  0  0  0
    2.0730   68.6600   65.8960 C   0  0  0  0  0  0  0  0  0  0  0  0
    2.2780   68.1690   67.1960 C   0  0  0  0  0  0  0  0  0  0  0  0
    3.0580   69.2260   65.1250 O   0  0  0  0  0  0  0  0  0  0  0  0
    4.3310   69.4390   65.7190 C   0  0  0  0  0  0  0  0  0  0  0  0
    0.6940   69.0950   64.0200 O   0  0  0  0  0  0  0  0  0  0  0  0
   -0.5000   68.8400   63.2930 C   0  0  0  0  0  0  0  0  0  0  0  0
    1.5460   62.5280   71.5650 C   0  0  0  0  0  0  0  0  0  0  0  0
    1.3110   63.0190   72.8530 C   0  0  0  0  0  0  0  0  0  0  0  0
    0.6050   64.2080   73.0320 C   0  0  0  0  0  0  0  0  0  0  0  0
    0.1250   64.9190   71.9300 C   0  0  0  0  0  0  0  0  0  0  0  0
    0.3430   64.4430   70.6400 C   0  0  0  0  0  0  0  0  0  0  0  0
    1.0570   63.2540   70.4650 C   0  0  0  0  0  0  0  0  0  0  0  0
    2.3100   61.2500   71.3550 C   0  0  0  0  0  0  0  0  0  0  0  0
    3.4450   61.3770   70.3510 N   0  0  0  0  0  4  0  0  0  0  0  0
    4.9350   63.4250   70.3620 C   0  0  0  0  0  0  0  0  0  0  0  0
    4.6950   62.0300   70.9110 C   0  0  0  0  0  0  0  0  0  0  0  0
    3.6600   60.0720   69.6130 C   0  0  0  0  0  0  0  0  0  0  0  0
    3.4660   58.8780   70.5280 C   0  0  0  0  0  0  0  0  0  0  0  0
   -0.7599   66.7293   70.3456 H   0  0  0  0  0  0  0  0  0  0  0  0
    1.3420   67.8734   70.0013 H   0  0  0  0  0  0  0  0  0  0  0  0
    1.9918   66.3347   69.4399 H   0  0  0  0  0  0  0  0  0  0  0  0
   -1.2890   67.9678   65.5465 H   0  0  0  0  0  0  0  0  0  0  0  0
    3.2705   68.2266   67.6668 H   0  0  0  0  0  0  0  0  0  0  0  0
    4.2319   69.4224   66.8144 H   0  0  0  0  0  0  0  0  0  0  0  0
    5.0216   68.6439   65.4012 H   0  0  0  0  0  0  0  0  0  0  0  0
    4.7251   70.4156   65.4012 H   0  0  0  0  0  0  0  0  0  0  0  0
   -1.3270   68.6634   63.9965 H   0  0  0  0  0  0  0  0  0  0  0  0
   -0.7362   69.7079   62.6599 H   0  0  0  0  0  0  0  0  0  0  0  0
   -0.3611   67.9513   62.6599 H   0  0  0  0  0  0  0  0  0  0  0  0
    1.6841   62.4657   73.7274 H   0  0  0  0  0  0  0  0  0  0  0  0
    0.4249   64.5886   74.0482 H   0  0  0  0  0  0  0  0  0  0  0  0
   -0.4271   65.8582   72.0818 H   0  0  0  0  0  0  0  0  0  0  0  0
    1.2397   62.8793   69.4471 H   0  0  0  0  0  0  0  0  0  0  0  0
    2.7332   60.9353   72.3203 H   0  0  0  0  0  0  0  0  0  0  0  0
    1.6011   60.5135   70.9488 H   0  0  0  0  0  0  0  0  0  0  0  0
    3.1550   62.0576   69.6344 H   0  0  0  0  0  0  0  0  0  0  0  0
    5.0565   64.1315   71.1963 H   0  0  0  0  0  0  0  0  0  0  0  0
    5.8463   63.4248   69.7460 H   0  0  0  0  0  0  0  0  0  0  0  0
    4.0760   63.7294   69.7460 H   0  0  0  0  0  0  0  0  0  0  0  0
    5.5615   61.4008   70.6593 H   0  0  0  0  0  0  0  0  0  0  0  0
    4.5568   62.1246   71.9982 H   0  0  0  0  0  0  0  0  0  0  0  0
    2.9403   60.0075   68.7836 H   0  0  0  0  0  0  0  0  0  0  0  0
    4.6935   60.0543   69.2366 H   0  0  0  0  0  0  0  0  0  0  0  0
    3.5194   59.2069   71.5763 H   0  0  0  0  0  0  0  0  0  0  0  0
    2.4824   58.4246   70.3356 H   0  0  0  0  0  0  0  0  0  0  0  0
    4.2555   58.1365   70.3356 H   0  0  0  0  0  0  0  0  0  0  0  0
  2  1  1  0
  3  2  1  0
  4  3  1  0
  5  4  2  0
  6  5  1  0
  6  2  1  0
  7  6  2  0
  8  5  1  0
  9  8  2  0
 10  9  1  0
 11 10  2  0
 11  4  1  0
 12 10  1  0
 13 12  1  0
 14  9  1  0
 15 14  1  0
 17 16  2  0
 18 17  1  0
 19 18  2  0
 20  1  1  0
 20 19  1  0
 21 20  2  0
 21 16  1  0
 22 16  1  0
 23 22  1  0
 25 24  1  0
 25 23  1  0
 26 23  1  0
 27 26  1  0
  2 28  1  1
  3 29  1  0
  3 30  1  0
  8 31  1  0
 11 32  1  0
 13 33  1  0
 13 34  1  0
 13 35  1  0
 15 36  1  0
 15 37  1  0
 15 38  1  0
 17 39  1  0
 18 40  1  0
 19 41  1  0
 21 42  1  0
 22 43  1  0
 22 44  1  0
 23 45  1  0
 24 46  1  0
 24 47  1  0
 24 48  1  0
 25 49  1  0
 25 50  1  0
 26 51  1  0
 26 52  1  0
 27 53  1  0
 27 54  1  0
 27 55  1  0
M  CHG  1  23   1
M  END
>  <score>  (1) 
-8.878

$$$$
=
     RDKit          3D

 55 57  0  0  0  0  0  0  0  0999 V2000
   -0.2630   65.5880   69.2990 O   0  0  0  0  0  0  0  0  0  0  0  0
    0.7260   65.7110   70.3180 C   0  0  1  0  0  0  0  0  0  0  0  0
    0.0260   65.5250   71.6890 C   0  0  0  0  0  0  0  0  0  0  0  0
    0.5140   64.2010   72.1880 C   0  0  0  0  0  0  0  0  0  0  0  0
    1.5270   63.6780   71.3990 C   0  0  0  0  0  0  0  0  0  0  0  0
    1.7570   64.5810   70.2800 C   0  0  0  0  0  0  0  0  0  0  0  0
    2.6280   64.4070   69.4460 O   0  0  0  0  0  0  0  0  0  0  0  0
    2.1640   62.4820   71.6770 C   0  0  0  0  0  0  0  0  0  0  0  0
    1.7540   61.7780   72.8120 C   0  0  0  0  0  0  0  0  0  0  0  0
    0.7170   62.2960   73.6380 C   0  0  0  0  0  0  0  0  0  0  0  0
    0.1000   63.5170   73.3210 C   0  0  0  0  0  0  0  0  0  0  0  0
    0.3870   61.5280   74.7270 O   0  0  0  0  0  0  0  0  0  0  0  0
    0.8080   61.9720   76.0090 C   0  0  0  0  0  0  0  0  0  0  0  0
    2.2890   60.5770   73.2090 O   0  0  0  0  0  0  0  0  0  0  0  0
    3.7050   60.4570   73.2230 C   0  0  0  0  0  0  0  0  0  0  0  0
    0.4250   68.7740   67.6910 C   0  0  0  0  0  0  0  0  0  0  0  0
   -0.7160   68.9640   66.9030 C   0  0  0  0  0  0  0  0  0  0  0  0
   -1.7330   68.0110   66.9030 C   0  0  0  0  0  0  0  0  0  0  0  0
   -1.6250   66.8590   67.6870 C   0  0  0  0  0  0  0  0  0  0  0  0
   -0.5010   66.6560   68.4810 C   0  0  0  0  0  0  0  0  0  0  0  0
    0.5210   67.6110   68.4740 C   0  0  0  0  0  0  0  0  0  0  0  0
    1.5340   69.7900   67.6980 C   0  0  0  0  0  0  0  0  0  0  0  0
    2.8750   69.2320   67.2460 N   0  0  0  0  0  4  0  0  0  0  0  0
    4.3010   69.4110   65.1620 C   0  0  0  0  0  0  0  0  0  0  0  0
    2.9700   68.9860   65.7520 C   0  0  0  0  0  0  0  0  0  0  0  0
    4.0170   70.0160   67.8570 C   0  0  0  0  0  0  0  0  0  0  0  0
    3.6140   70.6520   69.1740 C   0  0  0  0  0  0  0  0  0  0  0  0
    1.2127   66.6861   70.1689 H   0  0  0  0  0  0  0  0  0  0  0  0
    0.3110   66.3299   72.3825 H   0  0  0  0  0  0  0  0  0  0  0  0
   -1.0702   65.5598   71.6048 H   0  0  0  0  0  0  0  0  0  0  0  0
    2.9649   62.0988   71.0275 H   0  0  0  0  0  0  0  0  0  0  0  0
   -0.6976   63.9236   73.9601 H   0  0  0  0  0  0  0  0  0  0  0  0
    0.2727   61.4074   76.7866 H   0  0  0  0  0  0  0  0  0  0  0  0
    1.8904   61.8082   76.1166 H   0  0  0  0  0  0  0  0  0  0  0  0
    0.5869   63.0442   76.1166 H   0  0  0  0  0  0  0  0  0  0  0  0
    4.0602   60.4269   74.2637 H   0  0  0  0  0  0  0  0  0  0  0  0
    3.9996   59.5307   72.7081 H   0  0  0  0  0  0  0  0  0  0  0  0
    4.1513   61.3205   72.7081 H   0  0  0  0  0  0  0  0  0  0  0  0
   -0.8103   69.8673   66.2824 H   0  0  0  0  0  0  0  0  0  0  0  0
   -2.6271   68.1666   66.2815 H   0  0  0  0  0  0  0  0  0  0  0  0
   -2.4312   66.1107   67.6761 H   0  0  0  0  0  0  0  0  0  0  0  0
    1.4160   67.4487   69.0926 H   0  0  0  0  0  0  0  0  0  0  0  0
    1.2552   70.6135   67.0241 H   0  0  0  0  0  0  0  0  0  0  0  0
    1.6583   70.1242   68.7386 H   0  0  0  0  0  0  0  0  0  0  0  0
    2.9605   68.2767   67.6216 H   0  0  0  0  0  0  0  0  0  0  0  0
    5.0071   69.6365   65.9748 H   0  0  0  0  0  0  0  0  0  0  0  0
    4.7038   68.5968   64.5417 H   0  0  0  0  0  0  0  0  0  0  0  0
    4.1574   70.3080   64.5417 H   0  0  0  0  0  0  0  0  0  0  0  0
    2.1693   69.5513   65.2526 H   0  0  0  0  0  0  0  0  0  0  0  0
    2.8713   67.9023   65.5913 H   0  0  0  0  0  0  0  0  0  0  0  0
    4.8634   69.3359   68.0329 H   0  0  0  0  0  0  0  0  0  0  0  0
    4.2972   70.8181   67.1583 H   0  0  0  0  0  0  0  0  0  0  0  0
    3.9985   70.0452   70.0070 H   0  0  0  0  0  0  0  0  0  0  0  0
    4.0343   71.6667   69.2350 H   0  0  0  0  0  0  0  0  0  0  0  0
    2.5170   70.7053   69.2350 H   0  0  0  0  0  0  0  0  0  0  0  0
  2  1  1  0
  3  2  1  0
  4  3  1  0
  5  4  2  0
  6  5  1  0
  6  2  1  0
  7  6  2  0
  8  5  1  0
  9  8  2  0
 10  9  1  0
 11 10  2  0
 11  4  1  0
 12 10  1  0
 13 12  1  0
 14  9  1  0
 15 14  1  0
 17 16  2  0
 18 17  1  0
 19 18  2  0
 20  1  1  0
 20 19  1  0
 21 20  2  0
 21 16  1  0
 22 16  1  0
 23 22  1  0
 25 24  1  0
 25 23  1  0
 26 23  1  0
 27 26  1  0
  2 28  1  1
  3 29  1  0
  3 30  1  0
  8 31  1  0
 11 32  1  0
 13 33  1  0
 13 34  1  0
 13 35  1  0
 15 36  1  0
 15 37  1  0
 15 38  1  0
 17 39  1  0
 18 40  1  0
 19 41  1  0
 21 42  1  0
 22 43  1  0
 22 44  1  0
 23 45  1  0
 24 46  1  0
 24 47  1  0
 24 48  1  0
 25 49  1  0
 25 50  1  0
 26 51  1  0
 26 52  1  0
 27 53  1  0
 27 54  1  0
 27 55  1  0
M  CHG  1  23   1
M  END
>  <score>  (2) 
-8.456

$$$$
=
     RDKit          3D

 55 57  0  0  0  0  0  0  0  0999 V2000
    0.9770   65.8820   70.5010 O   0  0  0  0  0  0  0  0  0  0  0  0
    0.3260   64.6420   70.7690 C   0  0  1  0  0  0  0  0  0  0  0  0
    1.0930   63.5260   70.0110 C   0  0  0  0  0  0  0  0  0  0  0  0
    1.7700   62.7350   71.0850 C   0  0  0  0  0  0  0  0  0  0  0  0
    1.3670   63.1130   72.3560 C   0  0  0  0  0  0  0  0  0  0  0  0
    0.4330   64.2240   72.2360 C   0  0  0  0  0  0  0  0  0  0  0  0
   -0.1300   64.7330   73.1900 O   0  0  0  0  0  0  0  0  0  0  0  0
    1.8260   62.5030   73.5100 C   0  0  0  0  0  0  0  0  0  0  0  0
    2.7410   61.4560   73.3700 C   0  0  0  0  0  0  0  0  0  0  0  0
    3.1680   61.0500   72.0740 C   0  0  0  0  0  0  0  0  0  0  0  0
    2.6730   61.6940   70.9280 C   0  0  0  0  0  0  0  0  0  0  0  0
    4.0700   60.0150   72.0450 O   0  0  0  0  0  0  0  0  0  0  0  0
    3.6350   58.7660   71.5260 C   0  0  0  0  0  0  0  0  0  0  0  0
    3.2870   60.7640   74.4230 O   0  0  0  0  0  0  0  0  0  0  0  0
    2.4040   60.2910   75.4310 C   0  0  0  0  0  0  0  0  0  0  0  0
    1.1450   68.5140   68.0000 C   0  0  0  0  0  0  0  0  0  0  0  0
   -0.0530   68.3380   67.3000 C   0  0  0  0  0  0  0  0  0  0  0  0
   -0.9330   67.3190   67.6620 C   0  0  0  0  0  0  0  0  0  0  0  0
   -0.6300   66.4670   68.7270 C   0  0  0  0  0  0  0  0  0  0  0  0
    0.5540   66.6310   69.4390 C   0  0  0  0  0  0  0  0  0  0  0  0
    1.4380   67.6490   69.0690 C   0  0  0  0  0  0  0  0  0  0  0  0
    2.1080   69.6040   67.6180 C   0  0  0  0  0  0  0  0  0  0  0  0
    3.3020   69.1100   66.8180 N   0  0  0  0  0  4  0  0  0  0  0  0
    3.0230   67.6140   64.7930 C   0  0  0  0  0  0  0  0  0  0  0  0
    3.0560   69.0360   65.3220 C   0  0  0  0  0  0  0  0  0  0  0  0
    4.5680   69.8260   67.2410 C   0  0  0  0  0  0  0  0  0  0  0  0
    5.5040   70.0420   66.0670 C   0  0  0  0  0  0  0  0  0  0  0  0
   -0.7270   64.7687   70.4771 H   0  0  0  0  0  0  0  0  0  0  0  0
    0.3955   62.8924   69.4436 H   0  0  0  0  0  0  0  0  0  0  0  0
    1.8075   63.9338   69.2808 H   0  0  0  0  0  0  0  0  0  0  0  0
    1.4829   62.8306   74.5025 H   0  0  0  0  0  0  0  0  0  0  0  0
    2.9955   61.3786   69.9247 H   0  0  0  0  0  0  0  0  0  0  0  0
    3.3981   58.0859   72.3575 H   0  0  0  0  0  0  0  0  0  0  0  0
    2.7369   58.9179   70.9093 H   0  0  0  0  0  0  0  0  0  0  0  0
    4.4332   58.3271   70.9093 H   0  0  0  0  0  0  0  0  0  0  0  0
    2.8246   60.5163   76.4221 H   0  0  0  0  0  0  0  0  0  0  0  0
    1.4278   60.7870   75.3256 H   0  0  0  0  0  0  0  0  0  0  0  0
    2.2760   59.2036   75.3256 H   0  0  0  0  0  0  0  0  0  0  0  0
   -0.3016   69.0053   66.4616 H   0  0  0  0  0  0  0  0  0  0  0  0
   -1.8722   67.1849   67.1053 H   0  0  0  0  0  0  0  0  0  0  0  0
   -1.3295   65.6643   69.0034 H   0  0  0  0  0  0  0  0  0  0  0  0
    2.3793   67.7754   69.6240 H   0  0  0  0  0  0  0  0  0  0  0  0
    1.5686   70.3481   67.0136 H   0  0  0  0  0  0  0  0  0  0  0  0
    2.5008   70.0290   68.5535 H   0  0  0  0  0  0  0  0  0  0  0  0
    3.4501   68.1189   67.0561 H   0  0  0  0  0  0  0  0  0  0  0  0
    3.0066   66.9090   65.6372 H   0  0  0  0  0  0  0  0  0  0  0  0
    2.1213   67.4720   64.1792 H   0  0  0  0  0  0  0  0  0  0  0  0
    3.9171   67.4303   64.1792 H   0  0  0  0  0  0  0  0  0  0  0  0
    3.8605   69.5821   64.8076 H   0  0  0  0  0  0  0  0  0  0  0  0
    2.0681   69.4800   65.1300 H   0  0  0  0  0  0  0  0  0  0  0  0
    4.2999   70.8033   67.6687 H   0  0  0  0  0  0  0  0  0  0  0  0
    5.0854   69.2016   67.9842 H   0  0  0  0  0  0  0  0  0  0  0  0
    6.5123   70.2747   66.4400 H   0  0  0  0  0  0  0  0  0  0  0  0
    5.5412   69.1288   65.4548 H   0  0  0  0  0  0  0  0  0  0  0  0
    5.1372   70.8791   65.4548 H   0  0  0  0  0  0  0  0  0  0  0  0
  2  1  1  0
  3  2  1  0
  4  3  1  0
  5  4  2  0
  6  5  1  0
  6  2  1  0
  7  6  2  0
  8  5  1  0
  9  8  2  0
 10  9  1  0
 11 10  2  0
 11  4  1  0
 12 10  1  0
 13 12  1  0
 14  9  1  0
 15 14  1  0
 17 16  2  0
 18 17  1  0
 19 18  2  0
 20  1  1  0
 20 19  1  0
 21 20  2  0
 21 16  1  0
 22 16  1  0
 23 22  1  0
 25 24  1  0
 25 23  1  0
 26 23  1  0
 27 26  1  0
  2 28  1  6
  3 29  1  0
  3 30  1  0
  8 31  1  0
 11 32  1  0
 13 33  1  0
 13 34  1  0
 13 35  1  0
 15 36  1  0
 15 37  1  0
 15 38  1  0
 17 39  1  0
 18 40  1  0
 19 41  1  0
 21 42  1  0
 22 43  1  0
 22 44  1  0
 23 45  1  0
 24 46  1  0
 24 47  1  0
 24 48  1  0
 25 49  1  0
 25 50  1  0
 26 51  1  0
 26 52  1  0
 27 53  1  0
 27 54  1  0
 27 55  1  0
M  CHG  1  23   1
M  END
>  <score>  (3) 
-8.399

$$$$
=
     RDKit          3D

 55 57  0  0  0  0  0  0  0  0999 V2000
    5.6810   70.1750   65.3330 O   0  0  0  0  0  0  0  0  0  0  0  0
    5.3520   68.9190   64.7460 C   0  0  1  0  0  0  0  0  0  0  0  0
    4.0360   68.4170   65.3960 C   0  0  0  0  0  0  0  0  0  0  0  0
    3.0100   68.5320   64.3120 C   0  0  0  0  0  0  0  0  0  0  0  0
    3.5690   68.8530   63.0850 C   0  0  0  0  0  0  0  0  0  0  0  0
    5.0030   69.0340   63.2610 C   0  0  0  0  0  0  0  0  0  0  0  0
    5.7670   69.2710   62.3420 O   0  0  0  0  0  0  0  0  0  0  0  0
    2.8270   68.9790   61.9240 C   0  0  0  0  0  0  0  0  0  0  0  0
    1.4490   68.7700   62.0100 C   0  0  0  0  0  0  0  0  0  0  0  0
    0.8530   68.4390   63.2590 C   0  0  0  0  0  0  0  0  0  0  0  0
    1.6440   68.3160   64.4140 C   0  0  0  0  0  0  0  0  0  0  0  0
   -0.5080   68.2570   63.2370 O   0  0  0  0  0  0  0  0  0  0  0  0
   -1.2870   68.9360   64.2110 C   0  0  0  0  0  0  0  0  0  0  0  0
    0.5870   68.8680   60.9450 O   0  0  0  0  0  0  0  0  0  0  0  0
   -0.0590   70.1150   60.7310 C   0  0  0  0  0  0  0  0  0  0  0  0
    3.9710   70.1970   68.5400 C   0  0  0  0  0  0  0  0  0  0  0  0
    4.9950   70.5580   69.4220 C   0  0  0  0  0  0  0  0  0  0  0  0
    6.2830   70.7940   68.9420 C   0  0  0  0  0  0  0  0  0  0  0  0
    6.5630   70.6750   67.5790 C   0  0  0  0  0  0  0  0  0  0  0  0
    5.5560   70.3220   66.6860 C   0  0  0  0  0  0  0  0  0  0  0  0
    4.2670   70.0800   67.1720 C   0  0  0  0  0  0  0  0  0  0  0  0
    2.5790   69.9330   69.0430 C   0  0  0  0  0  0  0  0  0  0  0  0
    1.6550   69.3340   67.9940 N   0  0  0  0  0  4  0  0  0  0  0  0
    1.4910   67.3440   69.5510 C   0  0  0  0  0  0  0  0  0  0  0  0
    1.4750   67.8320   68.1140 C   0  0  0  0  0  0  0  0  0  0  0  0
    0.3790   70.1420   67.8760 C   0  0  0  0  0  0  0  0  0  0  0  0
   -0.7820   69.2830   67.4120 C   0  0  0  0  0  0  0  0  0  0  0  0
    6.2250   68.2655   64.8903 H   0  0  0  0  0  0  0  0  0  0  0  0
    4.1390   67.3720   65.7236 H   0  0  0  0  0  0  0  0  0  0  0  0
    3.7647   68.9981   66.2897 H   0  0  0  0  0  0  0  0  0  0  0  0
    3.3056   69.2347   60.9672 H   0  0  0  0  0  0  0  0  0  0  0  0
    1.1885   68.0535   65.3802 H   0  0  0  0  0  0  0  0  0  0  0  0
   -0.9519   68.6439   65.2172 H   0  0  0  0  0  0  0  0  0  0  0  0
   -1.1661   70.0221   64.0851 H   0  0  0  0  0  0  0  0  0  0  0  0
   -2.3464   68.6680   64.0851 H   0  0  0  0  0  0  0  0  0  0  0  0
   -0.2976   70.5756   61.7010 H   0  0  0  0  0  0  0  0  0  0  0  0
    0.6077   70.7806   60.1631 H   0  0  0  0  0  0  0  0  0  0  0  0
   -0.9873   69.9544   60.1631 H   0  0  0  0  0  0  0  0  0  0  0  0
    4.7838   70.6560   70.4971 H   0  0  0  0  0  0  0  0  0  0  0  0
    7.0837   71.0758   69.6417 H   0  0  0  0  0  0  0  0  0  0  0  0
    7.5826   70.8609   67.2103 H   0  0  0  0  0  0  0  0  0  0  0  0
    3.4704   69.7928   66.4699 H   0  0  0  0  0  0  0  0  0  0  0  0
    2.6422   69.2343   69.8902 H   0  0  0  0  0  0  0  0  0  0  0  0
    2.1513   70.9043   69.3322 H   0  0  0  0  0  0  0  0  0  0  0  0
    2.1225   69.4168   67.0799 H   0  0  0  0  0  0  0  0  0  0  0  0
    1.4627   68.2075   70.2318 H   0  0  0  0  0  0  0  0  0  0  0  0
    0.6133   66.7060   69.7314 H   0  0  0  0  0  0  0  0  0  0  0  0
    2.4086   66.7648   69.7314 H   0  0  0  0  0  0  0  0  0  0  0  0
    2.2907   67.3367   67.5669 H   0  0  0  0  0  0  0  0  0  0  0  0
    0.4886   67.5850   67.6944 H   0  0  0  0  0  0  0  0  0  0  0  0
    0.1355   70.5713   68.8591 H   0  0  0  0  0  0  0  0  0  0  0  0
    0.5405   70.9354   67.1314 H   0  0  0  0  0  0  0  0  0  0  0  0
   -1.3176   68.8867   68.2872 H   0  0  0  0  0  0  0  0  0  0  0  0
   -1.4693   69.8917   66.8062 H   0  0  0  0  0  0  0  0  0  0  0  0
   -0.4009   68.4477   66.8062 H   0  0  0  0  0  0  0  0  0  0  0  0
  2  1  1  0
  3  2  1  0
  4  3  1  0
  5  4  2  0
  6  5  1  0
  6  2  1  0
  7  6  2  0
  8  5  1  0
  9  8  2  0
 10  9  1  0
 11 10  2  0
 11  4  1  0
 12 10  1  0
 13 12  1  0
 14  9  1  0
 15 14  1  0
 17 16  2  0
 18 17  1  0
 19 18  2  0
 20  1  1  0
 20 19  1  0
 21 20  2  0
 21 16  1  0
 22 16  1  0
 23 22  1  0
 25 24  1  0
 25 23  1  0
 26 23  1  0
 27 26  1  0
  2 28  1  6
  3 29  1  0
  3 30  1  0
  8 31  1  0
 11 32  1  0
 13 33  1  0
 13 34  1  0
 13 35  1  0
 15 36  1  0
 15 37  1  0
 15 38  1  0
 17 39  1  0
 18 40  1  0
 19 41  1  0
 21 42  1  0
 22 43  1  0
 22 44  1  0
 23 45  1  0
 24 46  1  0
 24 47  1  0
 24 48  1  0
 25 49  1  0
 25 50  1  0
 26 51  1  0
 26 52  1  0
 27 53  1  0
 27 54  1  0
 27 55  1  0
M  CHG  1  23   1
M  END
>  <score>  (4) 
-7.747

$$$$
=
     RDKit          3D

 55 57  0  0  0  0  0  0  0  0999 V2000
   -0.5260   65.7710   69.1300 O   0  0  0  0  0  0  0  0  0  0  0  0
    0.4960   66.0420   70.0870 C   0  0  1  0  0  0  0  0  0  0  0  0
   -0.1390   65.9640   71.5000 C   0  0  0  0  0  0  0  0  0  0  0  0
    0.4360   64.7220   72.1050 C   0  0  0  0  0  0  0  0  0  0  0  0
    1.4420   64.1700   71.3270 C   0  0  0  0  0  0  0  0  0  0  0  0
    1.5800   64.9640   70.1150 C   0  0  0  0  0  0  0  0  0  0  0  0
    2.4250   64.7480   69.2640 O   0  0  0  0  0  0  0  0  0  0  0  0
    2.1500   63.0390   71.6940 C   0  0  0  0  0  0  0  0  0  0  0  0
    1.8220   62.4360   72.9110 C   0  0  0  0  0  0  0  0  0  0  0  0
    0.7940   62.9860   73.7270 C   0  0  0  0  0  0  0  0  0  0  0  0
    0.1020   64.1380   73.3180 C   0  0  0  0  0  0  0  0  0  0  0  0
    0.5470   62.3170   74.9010 O   0  0  0  0  0  0  0  0  0  0  0  0
    0.8040   62.9970   76.1210 C   0  0  0  0  0  0  0  0  0  0  0  0
    2.4330   61.3070   73.4010 O   0  0  0  0  0  0  0  0  0  0  0  0
    2.5470   60.1890   72.5320 C   0  0  0  0  0  0  0  0  0  0  0  0
    0.2750   68.1330   66.4870 C   0  0  0  0  0  0  0  0  0  0  0  0
   -0.9880   68.6120   66.1210 C   0  0  0  0  0  0  0  0  0  0  0  0
   -2.1310   68.1360   66.7630 C   0  0  0  0  0  0  0  0  0  0  0  0
   -2.0270   67.1790   67.7760 C   0  0  0  0  0  0  0  0  0  0  0  0
   -0.7790   66.6960   68.1570 C   0  0  0  0  0  0  0  0  0  0  0  0
    0.3640   67.1710   67.5070 C   0  0  0  0  0  0  0  0  0  0  0  0
    1.5160   68.6320   65.8000 C   0  0  0  0  0  0  0  0  0  0  0  0
    1.7840   67.9630   64.4620 N   0  0  0  0  0  4  0  0  0  0  0  0
    0.2080   68.7740   62.6530 C   0  0  0  0  0  0  0  0  0  0  0  0
    1.5930   68.8760   63.2650 C   0  0  0  0  0  0  0  0  0  0  0  0
    3.0850   67.1890   64.4970 C   0  0  0  0  0  0  0  0  0  0  0  0
    2.8500   65.7200   64.7950 C   0  0  0  0  0  0  0  0  0  0  0  0
    0.9268   67.0184   69.8203 H   0  0  0  0  0  0  0  0  0  0  0  0
    0.1317   66.8476   72.0966 H   0  0  0  0  0  0  0  0  0  0  0  0
   -1.2381   65.9390   71.4623 H   0  0  0  0  0  0  0  0  0  0  0  0
    2.9426   62.6294   71.0506 H   0  0  0  0  0  0  0  0  0  0  0  0
   -0.6901   64.5690   73.9480 H   0  0  0  0  0  0  0  0  0  0  0  0
    0.5554   62.3392   76.9668 H   0  0  0  0  0  0  0  0  0  0  0  0
    1.8680   63.2717   76.1706 H   0  0  0  0  0  0  0  0  0  0  0  0
    0.1877   63.9068   76.1706 H   0  0  0  0  0  0  0  0  0  0  0  0
    2.6408   59.2693   73.1281 H   0  0  0  0  0  0  0  0  0  0  0  0
    1.6507   60.1249   71.8975 H   0  0  0  0  0  0  0  0  0  0  0  0
    3.4378   60.3071   71.8975 H   0  0  0  0  0  0  0  0  0  0  0  0
   -1.0795   69.3657   65.3251 H   0  0  0  0  0  0  0  0  0  0  0  0
   -3.1207   68.5163   66.4701 H   0  0  0  0  0  0  0  0  0  0  0  0
   -2.9345   66.8064   68.2737 H   0  0  0  0  0  0  0  0  0  0  0  0
    1.3513   66.7843   67.7996 H   0  0  0  0  0  0  0  0  0  0  0  0
    1.4090   69.7138   65.6322 H   0  0  0  0  0  0  0  0  0  0  0  0
    2.3656   68.3913   66.4559 H   0  0  0  0  0  0  0  0  0  0  0  0
    1.0465   67.2603   64.3101 H   0  0  0  0  0  0  0  0  0  0  0  0
   -0.5437   68.7186   63.4542 H   0  0  0  0  0  0  0  0  0  0  0  0
    0.0160   69.6604   62.0306 H   0  0  0  0  0  0  0  0  0  0  0  0
    0.1479   67.8690   62.0306 H   0  0  0  0  0  0  0  0  0  0  0  0
    2.3350   68.6080   62.4984 H   0  0  0  0  0  0  0  0  0  0  0  0
    1.7202   69.9101   63.6178 H   0  0  0  0  0  0  0  0  0  0  0  0
    3.5818   67.2805   63.5198 H   0  0  0  0  0  0  0  0  0  0  0  0
    3.7140   67.6071   65.2967 H   0  0  0  0  0  0  0  0  0  0  0  0
    2.8254   65.5661   65.8839 H   0  0  0  0  0  0  0  0  0  0  0  0
    1.8903   65.4063   64.3586 H   0  0  0  0  0  0  0  0  0  0  0  0
    3.6640   65.1225   64.3586 H   0  0  0  0  0  0  0  0  0  0  0  0
  2  1  1  0
  3  2  1  0
  4  3  1  0
  5  4  2  0
  6  5  1  0
  6  2  1  0
  7  6  2  0
  8  5  1  0
  9  8  2  0
 10  9  1  0
 11 10  2  0
 11  4  1  0
 12 10  1  0
 13 12  1  0
 14  9  1  0
 15 14  1  0
 17 16  2  0
 18 17  1  0
 19 18  2  0
 20  1  1  0
 20 19  1  0
 21 20  2  0
 21 16  1  0
 22 16  1  0
 23 22  1  0
 25 24  1  0
 25 23  1  0
 26 23  1  0
 27 26  1  0
  2 28  1  6
  3 29  1  0
  3 30  1  0
  8 31  1  0
 11 32  1  0
 13 33  1  0
 13 34  1  0
 13 35  1  0
 15 36  1  0
 15 37  1  0
 15 38  1  0
 17 39  1  0
 18 40  1  0
 19 41  1  0
 21 42  1  0
 22 43  1  0
 22 44  1  0
 23 45  1  0
 24 46  1  0
 24 47  1  0
 24 48  1  0
 25 49  1  0
 25 50  1  0
 26 51  1  0
 26 52  1  0
 27 53  1  0
 27 54  1  0
 27 55  1  0
M  CHG  1  23   1
M  END
>  <score>  (5) 
-7.741

$$$$
=
     RDKit          3D

 55 57  0  0  0  0  0  0  0  0999 V2000
    4.1110   59.6460   70.5340 O   0  0  0  0  0  0  0  0  0  0  0  0
    4.1180   58.9690   71.7880 C   0  0  1  0  0  0  0  0  0  0  0  0
    4.1700   60.0390   72.9100 C   0  0  0  0  0  0  0  0  0  0  0  0
    2.8180   59.9850   73.5490 C   0  0  0  0  0  0  0  0  0  0  0  0
    2.0560   58.9230   73.0860 C   0  0  0  0  0  0  0  0  0  0  0  0
    2.8140   58.2190   72.0620 C   0  0  0  0  0  0  0  0  0  0  0  0
    2.4170   57.2070   71.5100 O   0  0  0  0  0  0  0  0  0  0  0  0
    0.7840   58.6420   73.5530 C   0  0  0  0  0  0  0  0  0  0  0  0
    0.2560   59.4800   74.5390 C   0  0  0  0  0  0  0  0  0  0  0  0
    1.0210   60.5760   75.0300 C   0  0  0  0  0  0  0  0  0  0  0  0
    2.3110   60.8220   74.5310 C   0  0  0  0  0  0  0  0  0  0  0  0
    0.4110   61.3390   75.9950 O   0  0  0  0  0  0  0  0  0  0  0  0
    0.9600   62.6190   76.2780 C   0  0  0  0  0  0  0  0  0  0  0  0
   -0.9920   59.3300   75.0910 O   0  0  0  0  0  0  0  0  0  0  0  0
   -2.1060   59.7970   74.3430 C   0  0  0  0  0  0  0  0  0  0  0  0
    2.5290   62.9160   70.4020 C   0  0  0  0  0  0  0  0  0  0  0  0
    3.6260   63.7820   70.4710 C   0  0  0  0  0  0  0  0  0  0  0  0
    4.9190   63.2690   70.5680 C   0  0  0  0  0  0  0  0  0  0  0  0
    5.1320   61.8880   70.5970 C   0  0  0  0  0  0  0  0  0  0  0  0
    4.0540   61.0110   70.5240 C   0  0  0  0  0  0  0  0  0  0  0  0
    2.7580   61.5300   70.4330 C   0  0  0  0  0  0  0  0  0  0  0  0
    1.1280   63.4530   70.3030 C   0  0  0  0  0  0  0  0  0  0  0  0
    0.8120   64.5260   71.3340 N   0  0  0  0  0  4  0  0  0  0  0  0
    1.1610   66.5300   69.8250 C   0  0  0  0  0  0  0  0  0  0  0  0
    0.2100   65.7890   70.7470 C   0  0  0  0  0  0  0  0  0  0  0  0
    0.0750   63.9340   72.5170 C   0  0  0  0  0  0  0  0  0  0  0  0
   -0.3530   62.5040   72.2480 C   0  0  0  0  0  0  0  0  0  0  0  0
    4.9692   58.2726   71.7647 H   0  0  0  0  0  0  0  0  0  0  0  0
    4.9548   59.7962   73.6415 H   0  0  0  0  0  0  0  0  0  0  0  0
    4.4064   61.0400   72.5200 H   0  0  0  0  0  0  0  0  0  0  0  0
    0.2090   57.7896   73.1621 H   0  0  0  0  0  0  0  0  0  0  0  0
    2.9080   61.6635   74.9125 H   0  0  0  0  0  0  0  0  0  0  0  0
    1.0202   62.7594   77.3673 H   0  0  0  0  0  0  0  0  0  0  0  0
    1.9678   62.6901   75.8429 H   0  0  0  0  0  0  0  0  0  0  0  0
    0.3169   63.3982   75.8429 H   0  0  0  0  0  0  0  0  0  0  0  0
   -2.8970   60.1286   75.0317 H   0  0  0  0  0  0  0  0  0  0  0  0
   -1.7945   60.6403   73.7091 H   0  0  0  0  0  0  0  0  0  0  0  0
   -2.4890   58.9837   73.7091 H   0  0  0  0  0  0  0  0  0  0  0  0
    3.4679   64.8704   70.4487 H   0  0  0  0  0  0  0  0  0  0  0  0
    5.7767   63.9555   70.6220 H   0  0  0  0  0  0  0  0  0  0  0  0
    6.1554   61.4929   70.6778 H   0  0  0  0  0  0  0  0  0  0  0  0
    1.9024   60.8403   70.3848 H   0  0  0  0  0  0  0  0  0  0  0  0
    0.9908   63.8834   69.3001 H   0  0  0  0  0  0  0  0  0  0  0  0
    0.4460   62.6114   70.4944 H   0  0  0  0  0  0  0  0  0  0  0  0
    1.7057   64.8750   71.7088 H   0  0  0  0  0  0  0  0  0  0  0  0
    1.8877   67.0962   70.4261 H   0  0  0  0  0  0  0  0  0  0  0  0
    1.6943   65.8069   69.1904 H   0  0  0  0  0  0  0  0  0  0  0  0
    0.5902   67.2239   69.1904 H   0  0  0  0  0  0  0  0  0  0  0  0
   -0.0704   66.4595   71.5727 H   0  0  0  0  0  0  0  0  0  0  0  0
   -0.6610   65.4882   70.1462 H   0  0  0  0  0  0  0  0  0  0  0  0
    0.7378   63.9494   73.3948 H   0  0  0  0  0  0  0  0  0  0  0  0
   -0.8280   64.5359   72.6967 H   0  0  0  0  0  0  0  0  0  0  0  0
   -0.5092   61.9821   73.2036 H   0  0  0  0  0  0  0  0  0  0  0  0
   -1.2905   62.5039   71.6726 H   0  0  0  0  0  0  0  0  0  0  0  0
    0.4303   61.9889   71.6726 H   0  0  0  0  0  0  0  0  0  0  0  0
  2  1  1  0
  3  2  1  0
  4  3  1  0
  5  4  2  0
  6  5  1  0
  6  2  1  0
  7  6  2  0
  8  5  1  0
  9  8  2  0
 10  9  1  0
 11 10  2  0
 11  4  1  0
 12 10  1  0
 13 12  1  0
 14  9  1  0
 15 14  1  0
 17 16  2  0
 18 17  1  0
 19 18  2  0
 20  1  1  0
 20 19  1  0
 21 20  2  0
 21 16  1  0
 22 16  1  0
 23 22  1  0
 25 24  1  0
 25 23  1  0
 26 23  1  0
 27 26  1  0
  2 28  1  6
  3 29  1  0
  3 30  1  0
  8 31  1  0
 11 32  1  0
 13 33  1  0
 13 34  1  0
 13 35  1  0
 15 36  1  0
 15 37  1  0
 15 38  1  0
 17 39  1  0
 18 40  1  0
 19 41  1  0
 21 42  1  0
 22 43  1  0
 22 44  1  0
 23 45  1  0
 24 46  1  0
 24 47  1  0
 24 48  1  0
 25 49  1  0
 25 50  1  0
 26 51  1  0
 26 52  1  0
 27 53  1  0
 27 54  1  0
 27 55  1  0
M  CHG  1  23   1
M  END
>  <score>  (6) 
-7.511

$$$$
=
     RDKit          3D

 55 57  0  0  0  0  0  0  0  0999 V2000
    3.7130   69.0840   62.5180 O   0  0  0  0  0  0  0  0  0  0  0  0
    2.6440   68.1440   62.4330 C   0  0  1  0  0  0  0  0  0  0  0  0
    2.7610   67.1770   63.6410 C   0  0  0  0  0  0  0  0  0  0  0  0
    1.6040   67.5310   64.5220 C   0  0  0  0  0  0  0  0  0  0  0  0
    0.7360   68.4300   63.9230 C   0  0  0  0  0  0  0  0  0  0  0  0
    1.2720   68.7930   62.6180 C   0  0  0  0  0  0  0  0  0  0  0  0
    0.6950   69.5300   61.8370 O   0  0  0  0  0  0  0  0  0  0  0  0
   -0.4250   68.8800   64.5250 C   0  0  0  0  0  0  0  0  0  0  0  0
   -0.7220   68.3960   65.8020 C   0  0  0  0  0  0  0  0  0  0  0  0
    0.1540   67.4710   66.4370 C   0  0  0  0  0  0  0  0  0  0  0  0
    1.3210   67.0360   65.7860 C   0  0  0  0  0  0  0  0  0  0  0  0
   -0.2270   67.0570   67.6900 O   0  0  0  0  0  0  0  0  0  0  0  0
    0.6970   67.2230   68.7560 C   0  0  0  0  0  0  0  0  0  0  0  0
   -1.8330   68.7570   66.5240 O   0  0  0  0  0  0  0  0  0  0  0  0
   -3.0790   68.8000   65.8420 C   0  0  0  0  0  0  0  0  0  0  0  0
    4.9750   69.7880   65.8530 C   0  0  0  0  0  0  0  0  0  0  0  0
    6.1600   69.0440   65.8870 C   0  0  0  0  0  0  0  0  0  0  0  0
    6.5450   68.2880   64.7810 C   0  0  0  0  0  0  0  0  0  0  0  0
    5.7560   68.2660   63.6280 C   0  0  0  0  0  0  0  0  0  0  0  0
    4.5770   69.0040   63.5740 C   0  0  0  0  0  0  0  0  0  0  0  0
    4.1900   69.7560   64.6880 C   0  0  0  0  0  0  0  0  0  0  0  0
    4.5430   70.6030   67.0400 C   0  0  0  0  0  0  0  0  0  0  0  0
    5.3930   70.3740   68.2800 N   0  0  0  0  0  4  0  0  0  0  0  0
    7.5490   70.8960   69.5020 C   0  0  0  0  0  0  0  0  0  0  0  0
    6.6150   71.2690   68.3650 C   0  0  0  0  0  0  0  0  0  0  0  0
    4.5290   70.3200   69.5230 C   0  0  0  0  0  0  0  0  0  0  0  0
    3.0530   70.3210   69.1750 C   0  0  0  0  0  0  0  0  0  0  0  0
    2.7186   67.6690   61.4437 H   0  0  0  0  0  0  0  0  0  0  0  0
    2.6903   66.1307   63.3090 H   0  0  0  0  0  0  0  0  0  0  0  0
    3.7257   67.2737   64.1606 H   0  0  0  0  0  0  0  0  0  0  0  0
   -1.0907   69.5932   64.0169 H   0  0  0  0  0  0  0  0  0  0  0  0
    1.9974   66.3162   66.2701 H   0  0  0  0  0  0  0  0  0  0  0  0
    0.1695   67.1282   69.7166 H   0  0  0  0  0  0  0  0  0  0  0  0
    1.4773   66.4507   68.6885 H   0  0  0  0  0  0  0  0  0  0  0  0
    1.1597   68.2187   68.6885 H   0  0  0  0  0  0  0  0  0  0  0  0
   -3.8979   68.8283   66.5759 H   0  0  0  0  0  0  0  0  0  0  0  0
   -3.1208   69.7001   65.2111 H   0  0  0  0  0  0  0  0  0  0  0  0
   -3.1828   67.9049   65.2111 H   0  0  0  0  0  0  0  0  0  0  0  0
    6.7893   69.0559   66.7891 H   0  0  0  0  0  0  0  0  0  0  0  0
    7.4768   67.7044   64.8162 H   0  0  0  0  0  0  0  0  0  0  0  0
    6.0672   67.6643   62.7613 H   0  0  0  0  0  0  0  0  0  0  0  0
    3.2541   70.3329   64.6515 H   0  0  0  0  0  0  0  0  0  0  0  0
    4.6018   71.6678   66.7703 H   0  0  0  0  0  0  0  0  0  0  0  0
    3.5186   70.2896   67.2898 H   0  0  0  0  0  0  0  0  0  0  0  0
    5.8217   69.4410   68.1990 H   0  0  0  0  0  0  0  0  0  0  0  0
    7.0532   71.0940   70.4638 H   0  0  0  0  0  0  0  0  0  0  0  0
    7.8022   69.8278   69.4331 H   0  0  0  0  0  0  0  0  0  0  0  0
    8.4684   71.4959   69.4331 H   0  0  0  0  0  0  0  0  0  0  0  0
    6.2796   72.3061   68.5135 H   0  0  0  0  0  0  0  0  0  0  0  0
    7.1761   71.1476   67.4267 H   0  0  0  0  0  0  0  0  0  0  0  0
    4.7638   69.4020   70.0818 H   0  0  0  0  0  0  0  0  0  0  0  0
    4.7410   71.2129   70.1294 H   0  0  0  0  0  0  0  0  0  0  0  0
    2.4581   70.3214   70.1003 H   0  0  0  0  0  0  0  0  0  0  0  0
    2.8157   71.2193   68.5861 H   0  0  0  0  0  0  0  0  0  0  0  0
    2.8145   69.4230   68.5861 H   0  0  0  0  0  0  0  0  0  0  0  0
  2  1  1  0
  3  2  1  0
  4  3  1  0
  5  4  2  0
  6  5  1  0
  6  2  1  0
  7  6  2  0
  8  5  1  0
  9  8  2  0
 10  9  1  0
 11 10  2  0
 11  4  1  0
 12 10  1  0
 13 12  1  0
 14  9  1  0
 15 14  1  0
 17 16  2  0
 18 17  1  0
 19 18  2  0
 20  1  1  0
 20 19  1  0
 21 20  2  0
 21 16  1  0
 22 16  1  0
 23 22  1  0
 25 24  1  0
 25 23  1  0
 26 23  1  0
 27 26  1  0
  2 28  1  6
  3 29  1  0
  3 30  1  0
  8 31  1  0
 11 32  1  0
 13 33  1  0
 13 34  1  0
 13 35  1  0
 15 36  1  0
 15 37  1  0
 15 38  1  0
 17 39  1  0
 18 40  1  0
 19 41  1  0
 21 42  1  0
 22 43  1  0
 22 44  1  0
 23 45  1  0
 24 46  1  0
 24 47  1  0
 24 48  1  0
 25 49  1  0
 25 50  1  0
 26 51  1  0
 26 52  1  0
 27 53  1  0
 27 54  1  0
 27 55  1  0
M  CHG  1  23   1
M  END
>  <score>  (7) 
-7.346

$$$$
=
     RDKit          3D

 55 57  0  0  0  0  0  0  0  0999 V2000
    3.3460   60.1770   69.9150 O   0  0  0  0  0  0  0  0  0  0  0  0
    4.1240   59.4090   70.8300 C   0  0  1  0  0  0  0  0  0  0  0  0
    4.4190   60.2960   72.0680 C   0  0  0  0  0  0  0  0  0  0  0  0
    3.6000   59.6970   73.1680 C   0  0  0  0  0  0  0  0  0  0  0  0
    3.0180   58.4940   72.8000 C   0  0  0  0  0  0  0  0  0  0  0  0
    3.3540   58.2220   71.4090 C   0  0  0  0  0  0  0  0  0  0  0  0
    3.0230   57.2040   70.8260 O   0  0  0  0  0  0  0  0  0  0  0  0
    2.2440   57.7320   73.6570 C   0  0  0  0  0  0  0  0  0  0  0  0
    2.0490   58.2130   74.9540 C   0  0  0  0  0  0  0  0  0  0  0  0
    2.6380   59.4460   75.3550 C   0  0  0  0  0  0  0  0  0  0  0  0
    3.4210   60.1860   74.4530 C   0  0  0  0  0  0  0  0  0  0  0  0
    2.3830   59.8320   76.6480 O   0  0  0  0  0  0  0  0  0  0  0  0
    1.5700   60.9780   76.8540 C   0  0  0  0  0  0  0  0  0  0  0  0
    1.3010   57.5710   75.9100 O   0  0  0  0  0  0  0  0  0  0  0  0
    0.1010   56.9360   75.4920 C   0  0  0  0  0  0  0  0  0  0  0  0
    1.5940   63.2270   70.8310 C   0  0  0  0  0  0  0  0  0  0  0  0
    2.5860   64.2010   70.6730 C   0  0  0  0  0  0  0  0  0  0  0  0
    3.8670   63.8360   70.2590 C   0  0  0  0  0  0  0  0  0  0  0  0
    4.1710   62.4980   69.9960 C   0  0  0  0  0  0  0  0  0  0  0  0
    3.1960   61.5160   70.1420 C   0  0  0  0  0  0  0  0  0  0  0  0
    1.9150   61.8850   70.5640 C   0  0  0  0  0  0  0  0  0  0  0  0
    0.2110   63.6040   71.2840 C   0  0  0  0  0  0  0  0  0  0  0  0
   -0.1470   63.0700   72.6620 N   0  0  0  0  0  4  0  0  0  0  0  0
   -0.2240   60.6170   73.2880 C   0  0  0  0  0  0  0  0  0  0  0  0
   -0.9480   61.7820   72.6370 C   0  0  0  0  0  0  0  0  0  0  0  0
    1.0640   63.0740   73.5710 C   0  0  0  0  0  0  0  0  0  0  0  0
    0.8510   63.9680   74.7770 C   0  0  0  0  0  0  0  0  0  0  0  0
    5.0108   59.0642   70.2779 H   0  0  0  0  0  0  0  0  0  0  0  0
    5.4892   60.2660   72.3206 H   0  0  0  0  0  0  0  0  0  0  0  0
    4.1700   61.3529   71.8918 H   0  0  0  0  0  0  0  0  0  0  0  0
    1.7981   56.7815   73.3289 H   0  0  0  0  0  0  0  0  0  0  0  0
    3.8833   61.1355   74.7606 H   0  0  0  0  0  0  0  0  0  0  0  0
    1.4471   61.1512   77.9333 H   0  0  0  0  0  0  0  0  0  0  0  0
    2.0491   61.8549   76.3941 H   0  0  0  0  0  0  0  0  0  0  0  0
    0.5840   60.8156   76.3941 H   0  0  0  0  0  0  0  0  0  0  0  0
   -0.4785   56.6294   76.3753 H   0  0  0  0  0  0  0  0  0  0  0  0
   -0.4940   57.6373   74.8885 H   0  0  0  0  0  0  0  0  0  0  0  0
    0.3462   56.0496   74.8885 H   0  0  0  0  0  0  0  0  0  0  0  0
    2.3551   65.2572   70.8758 H   0  0  0  0  0  0  0  0  0  0  0  0
    4.6428   64.6065   70.1388 H   0  0  0  0  0  0  0  0  0  0  0  0
    5.1848   62.2198   69.6723 H   0  0  0  0  0  0  0  0  0  0  0  0
    1.1441   61.1104   70.6894 H   0  0  0  0  0  0  0  0  0  0  0  0
    0.1403   64.7015   71.3076 H   0  0  0  0  0  0  0  0  0  0  0  0
   -0.4951   63.1535   70.5709 H   0  0  0  0  0  0  0  0  0  0  0  0
   -0.8178   63.7250   73.0884 H   0  0  0  0  0  0  0  0  0  0  0  0
   -0.2839   60.7133   74.3821 H   0  0  0  0  0  0  0  0  0  0  0  0
   -0.6946   59.6727   72.9768 H   0  0  0  0  0  0  0  0  0  0  0  0
    0.8310   60.6209   72.9768 H   0  0  0  0  0  0  0  0  0  0  0  0
   -1.1592   61.5215   71.5894 H   0  0  0  0  0  0  0  0  0  0  0  0
   -1.8693   61.9578   73.2117 H   0  0  0  0  0  0  0  0  0  0  0  0
    1.2549   62.0473   73.9165 H   0  0  0  0  0  0  0  0  0  0  0  0
    1.9216   63.4615   73.0015 H   0  0  0  0  0  0  0  0  0  0  0  0
    0.9907   63.3818   75.6972 H   0  0  0  0  0  0  0  0  0  0  0  0
    1.5776   64.7936   74.7543 H   0  0  0  0  0  0  0  0  0  0  0  0
   -0.1698   64.3772   74.7543 H   0  0  0  0  0  0  0  0  0  0  0  0
  2  1  1  0
  3  2  1  0
  4  3  1  0
  5  4  2  0
  6  5  1  0
  6  2  1  0
  7  6  2  0
  8  5  1  0
  9  8  2  0
 10  9  1  0
 11 10  2  0
 11  4  1  0
 12 10  1  0
 13 12  1  0
 14  9  1  0
 15 14  1  0
 17 16  2  0
 18 17  1  0
 19 18  2  0
 20  1  1  0
 20 19  1  0
 21 20  2  0
 21 16  1  0
 22 16  1  0
 23 22  1  0
 25 24  1  0
 25 23  1  0
 26 23  1  0
 27 26  1  0
  2 28  1  6
  3 29  1  0
  3 30  1  0
  8 31  1  0
 11 32  1  0
 13 33  1  0
 13 34  1  0
 13 35  1  0
 15 36  1  0
 15 37  1  0
 15 38  1  0
 17 39  1  0
 18 40  1  0
 19 41  1  0
 21 42  1  0
 22 43  1  0
 22 44  1  0
 23 45  1  0
 24 46  1  0
 24 47  1  0
 24 48  1  0
 25 49  1  0
 25 50  1  0
 26 51  1  0
 26 52  1  0
 27 53  1  0
 27 54  1  0
 27 55  1  0
M  CHG  1  23   1
M  END
>  <score>  (8) 
-7.027

$$$$
=
     RDKit          3D

 55 57  0  0  0  0  0  0  0  0999 V2000
    3.2700   58.9030   72.0840 O   0  0  0  0  0  0  0  0  0  0  0  0
    2.4840   59.0640   73.2620 C   0  0  1  0  0  0  0  0  0  0  0  0
    1.0930   58.4290   72.9990 C   0  0  0  0  0  0  0  0  0  0  0  0
    1.0690   57.2010   73.8550 C   0  0  0  0  0  0  0  0  0  0  0  0
    2.1600   57.1270   74.7060 C   0  0  0  0  0  0  0  0  0  0  0  0
    3.0280   58.2680   74.4490 C   0  0  0  0  0  0  0  0  0  0  0  0
    4.0420   58.4960   75.0860 O   0  0  0  0  0  0  0  0  0  0  0  0
    2.3420   56.1030   75.6190 C   0  0  0  0  0  0  0  0  0  0  0  0
    1.3690   55.1020   75.6710 C   0  0  0  0  0  0  0  0  0  0  0  0
    0.2390   55.1580   74.8070 C   0  0  0  0  0  0  0  0  0  0  0  0
    0.0910   56.2180   73.8980 C   0  0  0  0  0  0  0  0  0  0  0  0
   -0.6570   54.1250   74.9350 O   0  0  0  0  0  0  0  0  0  0  0  0
   -1.9520   54.4250   75.4350 C   0  0  0  0  0  0  0  0  0  0  0  0
    1.4190   54.0230   76.5190 O   0  0  0  0  0  0  0  0  0  0  0  0
    1.2110   54.2610   77.9040 C   0  0  0  0  0  0  0  0  0  0  0  0
    2.8080   62.2880   70.8450 C   0  0  0  0  0  0  0  0  0  0  0  0
    3.2420   62.1830   69.5190 C   0  0  0  0  0  0  0  0  0  0  0  0
    3.7030   60.9620   69.0270 C   0  0  0  0  0  0  0  0  0  0  0  0
    3.7350   59.8340   69.8500 C   0  0  0  0  0  0  0  0  0  0  0  0
    3.3020   59.9180   71.1700 C   0  0  0  0  0  0  0  0  0  0  0  0
    2.8470   61.1450   71.6620 C   0  0  0  0  0  0  0  0  0  0  0  0
    2.3140   63.5990   71.3920 C   0  0  0  0  0  0  0  0  0  0  0  0
    0.8000   63.7360   71.3710 N   0  0  0  0  0  4  0  0  0  0  0  0
   -0.6640   62.0160   72.5170 C   0  0  0  0  0  0  0  0  0  0  0  0
    0.1230   63.3060   72.6590 C   0  0  0  0  0  0  0  0  0  0  0  0
    0.3890   65.0900   70.8330 C   0  0  0  0  0  0  0  0  0  0  0  0
    1.5430   65.7850   70.1360 C   0  0  0  0  0  0  0  0  0  0  0  0
    2.4730   60.1403   73.4889 H   0  0  0  0  0  0  0  0  0  0  0  0
    0.2891   59.1210   73.2904 H   0  0  0  0  0  0  0  0  0  0  0  0
    0.9347   58.1984   71.9351 H   0  0  0  0  0  0  0  0  0  0  0  0
    3.2210   56.0782   76.2798 H   0  0  0  0  0  0  0  0  0  0  0  0
   -0.7836   56.2680   73.2328 H   0  0  0  0  0  0  0  0  0  0  0  0
   -1.9306   54.4201   76.5348 H   0  0  0  0  0  0  0  0  0  0  0  0
   -2.2615   55.4186   75.0787 H   0  0  0  0  0  0  0  0  0  0  0  0
   -2.6669   53.6687   75.0787 H   0  0  0  0  0  0  0  0  0  0  0  0
    1.8227   53.5611   78.4922 H   0  0  0  0  0  0  0  0  0  0  0  0
    1.5009   55.2941   78.1461 H   0  0  0  0  0  0  0  0  0  0  0  0
    0.1484   54.1121   78.1461 H   0  0  0  0  0  0  0  0  0  0  0  0
    3.2196   63.0656   68.8629 H   0  0  0  0  0  0  0  0  0  0  0  0
    4.0437   60.8869   67.9838 H   0  0  0  0  0  0  0  0  0  0  0  0
    4.1035   58.8763   69.4537 H   0  0  0  0  0  0  0  0  0  0  0  0
    2.5134   61.2172   72.7077 H   0  0  0  0  0  0  0  0  0  0  0  0
    2.6572   63.6929   72.4329 H   0  0  0  0  0  0  0  0  0  0  0  0
    2.7184   64.3912   70.7448 H   0  0  0  0  0  0  0  0  0  0  0  0
    0.4320   63.0468   70.6998 H   0  0  0  0  0  0  0  0  0  0  0  0
   -0.9047   61.6215   73.5152 H   0  0  0  0  0  0  0  0  0  0  0  0
   -1.5956   62.2135   71.9664 H   0  0  0  0  0  0  0  0  0  0  0  0
   -0.0621   61.2780   71.9664 H   0  0  0  0  0  0  0  0  0  0  0  0
   -0.5659   64.1032   72.9753 H   0  0  0  0  0  0  0  0  0  0  0  0
    0.9148   63.1267   73.4013 H   0  0  0  0  0  0  0  0  0  0  0  0
   -0.4331   64.9547   70.1147 H   0  0  0  0  0  0  0  0  0  0  0  0
    0.0702   65.7155   71.6798 H   0  0  0  0  0  0  0  0  0  0  0  0
    2.2302   66.1989   70.8886 H   0  0  0  0  0  0  0  0  0  0  0  0
    2.0812   65.0607   69.5070 H   0  0  0  0  0  0  0  0  0  0  0  0
    1.1545   66.5995   69.5070 H   0  0  0  0  0  0  0  0  0  0  0  0
  2  1  1  0
  3  2  1  0
  4  3  1  0
  5  4  2  0
  6  5  1  0
  6  2  1  0
  7  6  2  0
  8  5  1  0
  9  8  2  0
 10  9  1  0
 11 10  2  0
 11  4  1  0
 12 10  1  0
 13 12  1  0
 14  9  1  0
 15 14  1  0
 17 16  2  0
 18 17  1  0
 19 18  2  0
 20  1  1  0
 20 19  1  0
 21 20  2  0
 21 16  1  0
 22 16  1  0
 23 22  1  0
 25 24  1  0
 25 23  1  0
 26 23  1  0
 27 26  1  0
  2 28  1  1
  3 29  1  0
  3 30  1  0
  8 31  1  0
 11 32  1  0
 13 33  1  0
 13 34  1  0
 13 35  1  0
 15 36  1  0
 15 37  1  0
 15 38  1  0
 17 39  1  0
 18 40  1  0
 19 41  1  0
 21 42  1  0
 22 43  1  0
 22 44  1  0
 23 45  1  0
 24 46  1  0
 24 47  1  0
 24 48  1  0
 25 49  1  0
 25 50  1  0
 26 51  1  0
 26 52  1  0
 27 53  1  0
 27 54  1  0
 27 55  1  0
M  CHG  1  23   1
M  END
>  <score>  (9) 
-6.932

$$$$
