=
     RDKit          3D

 31 31  0  0  0  0  0  0  0  0999 V2000
    1.4300   67.3800   65.4230 C   0  0  0  0  0  0  0  0  0  0  0  0
    2.0590   66.3370   65.5330 O   0  0  0  0  0  0  0  0  0  0  0  0
    1.9040   68.6530   65.3140 N   0  0  0  0  0  0  0  0  0  0  0  0
    3.2470   69.0780   65.2880 C   0  0  0  0  0  0  0  0  0  0  0  0
    3.8930   69.0930   64.0510 C   0  0  0  0  0  0  0  0  0  0  0  0
    5.2150   69.5110   63.9950 C   0  0  0  0  0  0  0  0  0  0  0  0
    5.9150   69.9090   65.0720 N   0  0  0  0  0  0  0  0  0  0  0  0
    5.2680   69.8810   66.2500 C   0  0  0  0  0  0  0  0  0  0  0  0
    3.9530   69.4820   66.4180 C   0  0  0  0  0  0  0  0  0  0  0  0
    6.2030   70.3970   67.5930 Cl  0  0  0  0  0  0  0  0  0  0  0  0
    0.0670   67.4120   65.4190 O   0  0  0  0  0  0  0  0  0  0  0  0
   -0.5000   68.7340   65.4080 C   0  0  0  0  0  0  0  0  0  0  0  0
   -1.1150   69.1020   66.7690 C   0  0  0  0  0  0  0  0  0  0  0  0
   -2.4680   67.1100   67.5370 C   0  0  0  0  0  0  0  0  0  0  0  0
   -2.4990   68.5200   67.0020 N   0  0  0  0  0  4  0  0  0  0  0  0
   -3.4350   68.6750   65.8400 C   0  0  0  0  0  0  0  0  0  0  0  0
    1.1935   69.3952   65.2418 H   0  0  0  0  0  0  0  0  0  0  0  0
    3.3647   68.7797   63.1385 H   0  0  0  0  0  0  0  0  0  0  0  0
    5.7176   69.5171   63.0166 H   0  0  0  0  0  0  0  0  0  0  0  0
    3.4814   69.4841   67.4118 H   0  0  0  0  0  0  0  0  0  0  0  0
    0.2913   69.4590   65.1669 H   0  0  0  0  0  0  0  0  0  0  0  0
   -1.3000   68.7571   64.6533 H   0  0  0  0  0  0  0  0  0  0  0  0
   -0.4471   68.7326   67.5611 H   0  0  0  0  0  0  0  0  0  0  0  0
   -1.2248   70.1964   66.7820 H   0  0  0  0  0  0  0  0  0  0  0  0
   -2.4685   67.1350   68.6367 H   0  0  0  0  0  0  0  0  0  0  0  0
   -3.3543   66.5636   67.1822 H   0  0  0  0  0  0  0  0  0  0  0  0
   -1.5585   66.6031   67.1822 H   0  0  0  0  0  0  0  0  0  0  0  0
   -2.8999   69.1045   67.7493 H   0  0  0  0  0  0  0  0  0  0  0  0
   -4.4563   68.8441   66.2119 H   0  0  0  0  0  0  0  0  0  0  0  0
   -3.1208   69.5333   65.2280 H   0  0  0  0  0  0  0  0  0  0  0  0
   -3.4142   67.7612   65.2280 H   0  0  0  0  0  0  0  0  0  0  0  0
  2  1  2  0
  3  1  1  0
  4  3  1  0
  5  4  2  0
  6  5  1  0
  7  6  2  0
  8  7  1  0
  9  4  1  0
  9  8  2  0
 10  8  1  0
 11  1  1  0
 12 11  1  0
 13 12  1  0
 15 14  1  0
 15 13  1  0
 16 15  1  0
  3 17  1  0
  5 18  1  0
  6 19  1  0
  9 20  1  0
 12 21  1  0
 12 22  1  0
 13 23  1  0
 13 24  1  0
 14 25  1  0
 14 26  1  0
 14 27  1  0
 15 28  1  0
 16 29  1  0
 16 30  1  0
 16 31  1  0
M  CHG  1  15   1
M  END
>  <score>  (1) 
-7.138

$$$$
=
     RDKit          3D

 31 31  0  0  0  0  0  0  0  0999 V2000
    4.9210   68.1040   63.7900 C   0  0  0  0  0  0  0  0  0  0  0  0
    4.8270   67.0170   64.3410 O   0  0  0  0  0  0  0  0  0  0  0  0
    4.9430   69.3450   64.3520 N   0  0  0  0  0  0  0  0  0  0  0  0
    4.8760   69.6790   65.7190 C   0  0  0  0  0  0  0  0  0  0  0  0
    3.6560   69.4880   66.3690 C   0  0  0  0  0  0  0  0  0  0  0  0
    3.5620   69.8040   67.7160 C   0  0  0  0  0  0  0  0  0  0  0  0
    4.5880   70.2860   68.4400 N   0  0  0  0  0  0  0  0  0  0  0  0
    5.7500   70.4640   67.7870 C   0  0  0  0  0  0  0  0  0  0  0  0
    5.9510   70.1820   66.4460 C   0  0  0  0  0  0  0  0  0  0  0  0
    7.0280   71.0810   68.7510 Cl  0  0  0  0  0  0  0  0  0  0  0  0
    4.9970   68.2290   62.4340 O   0  0  0  0  0  0  0  0  0  0  0  0
    3.8380   67.7570   61.7240 C   0  0  0  0  0  0  0  0  0  0  0  0
    2.8490   68.8970   61.4280 C   0  0  0  0  0  0  0  0  0  0  0  0
    0.4170   69.5830   61.3790 C   0  0  0  0  0  0  0  0  0  0  0  0
    1.4530   68.6650   61.9800 N   0  0  0  0  0  4  0  0  0  0  0  0
    1.3830   68.6190   63.4770 C   0  0  0  0  0  0  0  0  0  0  0  0
    5.0178   70.1363   63.6969 H   0  0  0  0  0  0  0  0  0  0  0  0
    2.7857   69.0944   65.8234 H   0  0  0  0  0  0  0  0  0  0  0  0
    2.5959   69.6522   68.2197 H   0  0  0  0  0  0  0  0  0  0  0  0
    6.9287   70.3501   65.9708 H   0  0  0  0  0  0  0  0  0  0  0  0
    4.1607   67.3090   60.7726 H   0  0  0  0  0  0  0  0  0  0  0  0
    3.3273   67.0153   62.3558 H   0  0  0  0  0  0  0  0  0  0  0  0
    3.2461   69.8226   61.8703 H   0  0  0  0  0  0  0  0  0  0  0  0
    2.7519   68.9570   60.3339 H   0  0  0  0  0  0  0  0  0  0  0  0
   -0.1439   70.0800   62.1843 H   0  0  0  0  0  0  0  0  0  0  0  0
    0.9155   70.3413   60.7573 H   0  0  0  0  0  0  0  0  0  0  0  0
   -0.2758   68.9969   60.7573 H   0  0  0  0  0  0  0  0  0  0  0  0
    1.2107   67.7127   61.6713 H   0  0  0  0  0  0  0  0  0  0  0  0
    2.2312   69.1764   63.9010 H   0  0  0  0  0  0  0  0  0  0  0  0
    0.4400   69.0740   63.8141 H   0  0  0  0  0  0  0  0  0  0  0  0
    1.4264   67.5728   63.8141 H   0  0  0  0  0  0  0  0  0  0  0  0
  2  1  2  0
  3  1  1  0
  4  3  1  0
  5  4  2  0
  6  5  1  0
  7  6  2  0
  8  7  1  0
  9  4  1  0
  9  8  2  0
 10  8  1  0
 11  1  1  0
 12 11  1  0
 13 12  1  0
 15 14  1  0
 15 13  1  0
 16 15  1  0
  3 17  1  0
  5 18  1  0
  6 19  1  0
  9 20  1  0
 12 21  1  0
 12 22  1  0
 13 23  1  0
 13 24  1  0
 14 25  1  0
 14 26  1  0
 14 27  1  0
 15 28  1  0
 16 29  1  0
 16 30  1  0
 16 31  1  0
M  CHG  1  15   1
M  END
>  <score>  (2) 
-7.089

$$$$
=
     RDKit          3D

 31 31  0  0  0  0  0  0  0  0999 V2000
    2.4000   67.7030   65.2870 C   0  0  0  0  0  0  0  0  0  0  0  0
    2.1400   66.8580   66.1320 O   0  0  0  0  0  0  0  0  0  0  0  0
    3.0290   68.9010   65.4460 N   0  0  0  0  0  0  0  0  0  0  0  0
    3.5490   69.4570   66.6310 C   0  0  0  0  0  0  0  0  0  0  0  0
    2.6620   69.6610   67.6900 C   0  0  0  0  0  0  0  0  0  0  0  0
    3.1480   70.2020   68.8710 C   0  0  0  0  0  0  0  0  0  0  0  0
    4.4350   70.5440   69.0580 N   0  0  0  0  0  0  0  0  0  0  0  0
    5.2660   70.3400   68.0190 C   0  0  0  0  0  0  0  0  0  0  0  0
    4.8860   69.8080   66.7990 C   0  0  0  0  0  0  0  0  0  0  0  0
    6.8960   70.7930   68.3060 Cl  0  0  0  0  0  0  0  0  0  0  0  0
    2.0460   67.5560   63.9780 O   0  0  0  0  0  0  0  0  0  0  0  0
    2.2810   68.7180   63.1620 C   0  0  0  0  0  0  0  0  0  0  0  0
    2.9460   68.3480   61.8250 C   0  0  0  0  0  0  0  0  0  0  0  0
    4.7520   66.7100   62.4900 C   0  0  0  0  0  0  0  0  0  0  0  0
    4.4370   68.0750   61.9290 N   0  0  0  0  0  4  0  0  0  0  0  0
    5.2180   69.1670   62.5960 C   0  0  0  0  0  0  0  0  0  0  0  0
    3.1377   69.4704   64.5946 H   0  0  0  0  0  0  0  0  0  0  0  0
    1.5987   69.3978   67.5895 H   0  0  0  0  0  0  0  0  0  0  0  0
    2.4422   70.3599   69.6998 H   0  0  0  0  0  0  0  0  0  0  0  0
    5.6163   69.6671   65.9886 H   0  0  0  0  0  0  0  0  0  0  0  0
    1.3190   69.2108   62.9576 H   0  0  0  0  0  0  0  0  0  0  0  0
    2.9592   69.3899   63.7085 H   0  0  0  0  0  0  0  0  0  0  0  0
    2.4557   67.4444   61.4336 H   0  0  0  0  0  0  0  0  0  0  0  0
    2.8279   69.2167   61.1606 H   0  0  0  0  0  0  0  0  0  0  0  0
    4.7418   66.7540   63.5891 H   0  0  0  0  0  0  0  0  0  0  0  0
    3.9967   65.9885   62.1449 H   0  0  0  0  0  0  0  0  0  0  0  0
    5.7470   66.3924   62.1449 H   0  0  0  0  0  0  0  0  0  0  0  0
    4.7653   68.0704   60.9527 H   0  0  0  0  0  0  0  0  0  0  0  0
    5.1406   69.0588   63.6879 H   0  0  0  0  0  0  0  0  0  0  0  0
    6.2738   69.0993   62.2948 H   0  0  0  0  0  0  0  0  0  0  0  0
    4.8127   70.1442   62.2948 H   0  0  0  0  0  0  0  0  0  0  0  0
  2  1  2  0
  3  1  1  0
  4  3  1  0
  5  4  2  0
  6  5  1  0
  7  6  2  0
  8  7  1  0
  9  4  1  0
  9  8  2  0
 10  8  1  0
 11  1  1  0
 12 11  1  0
 13 12  1  0
 15 14  1  0
 15 13  1  0
 16 15  1  0
  3 17  1  0
  5 18  1  0
  6 19  1  0
  9 20  1  0
 12 21  1  0
 12 22  1  0
 13 23  1  0
 13 24  1  0
 14 25  1  0
 14 26  1  0
 14 27  1  0
 15 28  1  0
 16 29  1  0
 16 30  1  0
 16 31  1  0
M  CHG  1  15   1
M  END
>  <score>  (3) 
-7.066

$$$$
=
     RDKit          3D

 31 31  0  0  0  0  0  0  0  0999 V2000
    4.4010   69.1080   64.5060 C   0  0  0  0  0  0  0  0  0  0  0  0
    3.2180   69.3280   64.7260 O   0  0  0  0  0  0  0  0  0  0  0  0
    5.4720   69.3160   65.3220 N   0  0  0  0  0  0  0  0  0  0  0  0
    5.4740   69.8260   66.6360 C   0  0  0  0  0  0  0  0  0  0  0  0
    4.2480   69.9080   67.2970 C   0  0  0  0  0  0  0  0  0  0  0  0
    4.2220   70.4020   68.5930 C   0  0  0  0  0  0  0  0  0  0  0  0
    5.3190   70.8090   69.2560 N   0  0  0  0  0  0  0  0  0  0  0  0
    6.4860   70.7220   68.5930 C   0  0  0  0  0  0  0  0  0  0  0  0
    6.6240   70.2460   67.3000 C   0  0  0  0  0  0  0  0  0  0  0  0
    7.8550   71.2530   69.4800 Cl  0  0  0  0  0  0  0  0  0  0  0  0
    4.8400   68.6120   63.3140 O   0  0  0  0  0  0  0  0  0  0  0  0
    3.9480   67.6700   62.6940 C   0  0  0  0  0  0  0  0  0  0  0  0
    4.4990   66.2350   62.7600 C   0  0  0  0  0  0  0  0  0  0  0  0
    4.5490   64.0500   64.0280 C   0  0  0  0  0  0  0  0  0  0  0  0
    4.2060   65.5180   64.0660 N   0  0  0  0  0  4  0  0  0  0  0  0
    2.8330   65.7750   64.6150 C   0  0  0  0  0  0  0  0  0  0  0  0
    6.3927   69.0706   64.9309 H   0  0  0  0  0  0  0  0  0  0  0  0
    3.3204   69.5873   66.8003 H   0  0  0  0  0  0  0  0  0  0  0  0
    3.2511   70.4642   69.1064 H   0  0  0  0  0  0  0  0  0  0  0  0
    7.6095   70.2011   66.8133 H   0  0  0  0  0  0  0  0  0  0  0  0
    2.9782   67.7035   63.2120 H   0  0  0  0  0  0  0  0  0  0  0  0
    3.8395   67.9469   61.6350 H   0  0  0  0  0  0  0  0  0  0  0  0
    4.0514   65.6550   61.9395 H   0  0  0  0  0  0  0  0  0  0  0  0
    5.5933   66.3113   62.6786 H   0  0  0  0  0  0  0  0  0  0  0  0
    4.6383   63.6676   65.0555 H   0  0  0  0  0  0  0  0  0  0  0  0
    3.7548   63.5014   63.5004 H   0  0  0  0  0  0  0  0  0  0  0  0
    5.5040   63.9101   63.5004 H   0  0  0  0  0  0  0  0  0  0  0  0
    4.8510   65.9486   64.7438 H   0  0  0  0  0  0  0  0  0  0  0  0
    2.8705   65.7680   65.7143 H   0  0  0  0  0  0  0  0  0  0  0  0
    2.4764   66.7555   64.2665 H   0  0  0  0  0  0  0  0  0  0  0  0
    2.1459   64.9899   64.2665 H   0  0  0  0  0  0  0  0  0  0  0  0
  2  1  2  0
  3  1  1  0
  4  3  1  0
  5  4  2  0
  6  5  1  0
  7  6  2  0
  8  7  1  0
  9  4  1  0
  9  8  2  0
 10  8  1  0
 11  1  1  0
 12 11  1  0
 13 12  1  0
 15 14  1  0
 15 13  1  0
 16 15  1  0
  3 17  1  0
  5 18  1  0
  6 19  1  0
  9 20  1  0
 12 21  1  0
 12 22  1  0
 13 23  1  0
 13 24  1  0
 14 25  1  0
 14 26  1  0
 14 27  1  0
 15 28  1  0
 16 29  1  0
 16 30  1  0
 16 31  1  0
M  CHG  1  15   1
M  END
>  <score>  (4) 
-6.929

$$$$
=
     RDKit          3D

 31 31  0  0  0  0  0  0  0  0999 V2000
    1.5170   68.7810   67.8670 C   0  0  0  0  0  0  0  0  0  0  0  0
    1.8820   68.2120   68.8860 O   0  0  0  0  0  0  0  0  0  0  0  0
    2.2660   69.4690   66.9610 N   0  0  0  0  0  0  0  0  0  0  0  0
    3.6590   69.6810   66.9700 C   0  0  0  0  0  0  0  0  0  0  0  0
    4.3630   69.3870   65.8010 C   0  0  0  0  0  0  0  0  0  0  0  0
    5.7350   69.5900   65.7810 C   0  0  0  0  0  0  0  0  0  0  0  0
    6.4330   70.0590   66.8310 N   0  0  0  0  0  0  0  0  0  0  0  0
    5.7290   70.3300   67.9450 C   0  0  0  0  0  0  0  0  0  0  0  0
    4.3610   70.1630   68.0720 C   0  0  0  0  0  0  0  0  0  0  0  0
    6.6640   70.9240   69.2550 Cl  0  0  0  0  0  0  0  0  0  0  0  0
    0.2080   68.8280   67.4880 O   0  0  0  0  0  0  0  0  0  0  0  0
   -0.1290   67.9590   66.3920 C   0  0  0  0  0  0  0  0  0  0  0  0
   -0.6400   68.7500   65.1760 C   0  0  0  0  0  0  0  0  0  0  0  0
    1.3820   67.7690   64.0200 C   0  0  0  0  0  0  0  0  0  0  0  0
   -0.0050   68.3400   63.8580 N   0  0  0  0  0  4  0  0  0  0  0  0
   -0.0750   69.3880   62.7880 C   0  0  0  0  0  0  0  0  0  0  0  0
    1.7508   69.8855   66.1723 H   0  0  0  0  0  0  0  0  0  0  0  0
    3.8400   69.0019   64.9132 H   0  0  0  0  0  0  0  0  0  0  0  0
    6.2821   69.3547   64.8562 H   0  0  0  0  0  0  0  0  0  0  0  0
    3.8448   70.4033   69.0131 H   0  0  0  0  0  0  0  0  0  0  0  0
    0.7667   67.3922   66.0979 H   0  0  0  0  0  0  0  0  0  0  0  0
   -0.9313   67.2835   66.7238 H   0  0  0  0  0  0  0  0  0  0  0  0
   -1.7268   68.5991   65.0976 H   0  0  0  0  0  0  0  0  0  0  0  0
   -0.3684   69.8024   65.3452 H   0  0  0  0  0  0  0  0  0  0  0  0
    1.6161   67.6726   65.0905 H   0  0  0  0  0  0  0  0  0  0  0  0
    1.4287   66.7785   63.5438 H   0  0  0  0  0  0  0  0  0  0  0  0
    2.1125   68.4395   63.5438 H   0  0  0  0  0  0  0  0  0  0  0  0
   -0.5982   67.5700   63.5173 H   0  0  0  0  0  0  0  0  0  0  0  0
   -0.1414   70.3827   63.2528 H   0  0  0  0  0  0  0  0  0  0  0  0
    0.8287   69.3349   62.1631 H   0  0  0  0  0  0  0  0  0  0  0  0
   -0.9636   69.2152   62.1631 H   0  0  0  0  0  0  0  0  0  0  0  0
  2  1  2  0
  3  1  1  0
  4  3  1  0
  5  4  2  0
  6  5  1  0
  7  6  2  0
  8  7  1  0
  9  4  1  0
  9  8  2  0
 10  8  1  0
 11  1  1  0
 12 11  1  0
 13 12  1  0
 15 14  1  0
 15 13  1  0
 16 15  1  0
  3 17  1  0
  5 18  1  0
  6 19  1  0
  9 20  1  0
 12 21  1  0
 12 22  1  0
 13 23  1  0
 13 24  1  0
 14 25  1  0
 14 26  1  0
 14 27  1  0
 15 28  1  0
 16 29  1  0
 16 30  1  0
 16 31  1  0
M  CHG  1  15   1
M  END
>  <score>  (5) 
-6.676

$$$$
=
     RDKit          3D

 31 31  0  0  0  0  0  0  0  0999 V2000
    2.4780   68.7810   66.1610 C   0  0  0  0  0  0  0  0  0  0  0  0
    3.5630   69.3250   66.3100 O   0  0  0  0  0  0  0  0  0  0  0  0
    2.1490   67.7490   65.3350 N   0  0  0  0  0  0  0  0  0  0  0  0
    2.9900   67.0420   64.4540 C   0  0  0  0  0  0  0  0  0  0  0  0
    3.4710   67.7250   63.3360 C   0  0  0  0  0  0  0  0  0  0  0  0
    4.3050   67.0540   62.4540 C   0  0  0  0  0  0  0  0  0  0  0  0
    4.6820   65.7730   62.6150 N   0  0  0  0  0  0  0  0  0  0  0  0
    4.2000   65.1390   63.6980 C   0  0  0  0  0  0  0  0  0  0  0  0
    3.3620   65.7130   64.6400 C   0  0  0  0  0  0  0  0  0  0  0  0
    4.7080   63.5080   63.8590 Cl  0  0  0  0  0  0  0  0  0  0  0  0
    1.3640   69.1830   66.8360 O   0  0  0  0  0  0  0  0  0  0  0  0
    0.2260   68.3160   66.6820 C   0  0  0  0  0  0  0  0  0  0  0  0
   -1.0000   69.0750   66.1460 C   0  0  0  0  0  0  0  0  0  0  0  0
   -2.2510   67.2400   67.3520 C   0  0  0  0  0  0  0  0  0  0  0  0
   -2.3210   68.6160   66.7380 N   0  0  0  0  0  4  0  0  0  0  0  0
   -3.4970   68.7790   65.8210 C   0  0  0  0  0  0  0  0  0  0  0  0
    1.1640   67.4488   65.3575 H   0  0  0  0  0  0  0  0  0  0  0  0
    3.1942   68.7746   63.1579 H   0  0  0  0  0  0  0  0  0  0  0  0
    4.6785   67.5993   61.5747 H   0  0  0  0  0  0  0  0  0  0  0  0
    3.0024   65.1381   65.5061 H   0  0  0  0  0  0  0  0  0  0  0  0
    0.4835   67.5118   65.9770 H   0  0  0  0  0  0  0  0  0  0  0  0
   -0.0295   67.9071   67.6707 H   0  0  0  0  0  0  0  0  0  0  0  0
   -0.8718   70.1434   66.3743 H   0  0  0  0  0  0  0  0  0  0  0  0
   -1.0498   68.8744   65.0656 H   0  0  0  0  0  0  0  0  0  0  0  0
   -2.2554   67.3271   68.4485 H   0  0  0  0  0  0  0  0  0  0  0  0
   -3.1202   66.6491   67.0276 H   0  0  0  0  0  0  0  0  0  0  0  0
   -1.3263   66.7403   67.0276 H   0  0  0  0  0  0  0  0  0  0  0  0
   -2.4939   69.2709   67.5140 H   0  0  0  0  0  0  0  0  0  0  0  0
   -4.4124   68.9059   66.4176 H   0  0  0  0  0  0  0  0  0  0  0  0
   -3.3472   69.6650   65.1865 H   0  0  0  0  0  0  0  0  0  0  0  0
   -3.5938   67.8857   65.1865 H   0  0  0  0  0  0  0  0  0  0  0  0
  2  1  2  0
  3  1  1  0
  4  3  1  0
  5  4  2  0
  6  5  1  0
  7  6  2  0
  8  7  1  0
  9  4  1  0
  9  8  2  0
 10  8  1  0
 11  1  1  0
 12 11  1  0
 13 12  1  0
 15 14  1  0
 15 13  1  0
 16 15  1  0
  3 17  1  0
  5 18  1  0
  6 19  1  0
  9 20  1  0
 12 21  1  0
 12 22  1  0
 13 23  1  0
 13 24  1  0
 14 25  1  0
 14 26  1  0
 14 27  1  0
 15 28  1  0
 16 29  1  0
 16 30  1  0
 16 31  1  0
M  CHG  1  15   1
M  END
>  <score>  (6) 
-6.667

$$$$
=
     RDKit          3D

 31 31  0  0  0  0  0  0  0  0999 V2000
    0.9070   67.4200   68.7550 C   0  0  0  0  0  0  0  0  0  0  0  0
    1.6010   66.9640   69.6520 O   0  0  0  0  0  0  0  0  0  0  0  0
    1.2200   68.3800   67.8410 N   0  0  0  0  0  0  0  0  0  0  0  0
    2.4360   69.0770   67.6970 C   0  0  0  0  0  0  0  0  0  0  0  0
    2.8700   69.8450   68.7790 C   0  0  0  0  0  0  0  0  0  0  0  0
    4.0660   70.5380   68.6670 C   0  0  0  0  0  0  0  0  0  0  0  0
    4.8410   70.5120   67.5670 N   0  0  0  0  0  0  0  0  0  0  0  0
    4.3960   69.7670   66.5400 C   0  0  0  0  0  0  0  0  0  0  0  0
    3.2190   69.0380   66.5460 C   0  0  0  0  0  0  0  0  0  0  0  0
    5.4170   69.7660   65.1610 Cl  0  0  0  0  0  0  0  0  0  0  0  0
   -0.3780   67.0150   68.5510 O   0  0  0  0  0  0  0  0  0  0  0  0
   -0.8450   67.1630   67.1980 C   0  0  0  0  0  0  0  0  0  0  0  0
   -2.1800   67.9260   67.1370 C   0  0  0  0  0  0  0  0  0  0  0  0
   -3.5860   69.0270   65.3500 C   0  0  0  0  0  0  0  0  0  0  0  0
   -2.2450   68.9730   66.0390 N   0  0  0  0  0  4  0  0  0  0  0  0
   -1.1010   68.9220   65.0700 C   0  0  0  0  0  0  0  0  0  0  0  0
    0.4761   68.6269   67.1727 H   0  0  0  0  0  0  0  0  0  0  0  0
    2.2748   69.8994   69.7025 H   0  0  0  0  0  0  0  0  0  0  0  0
    4.3994   71.1418   69.5239 H   0  0  0  0  0  0  0  0  0  0  0  0
    2.9123   68.4473   65.6702 H   0  0  0  0  0  0  0  0  0  0  0  0
   -0.0911   67.7168   66.6192 H   0  0  0  0  0  0  0  0  0  0  0  0
   -1.0045   66.1587   66.7785 H   0  0  0  0  0  0  0  0  0  0  0  0
   -2.9869   67.1977   66.9683 H   0  0  0  0  0  0  0  0  0  0  0  0
   -2.2841   68.4609   68.0925 H   0  0  0  0  0  0  0  0  0  0  0  0
   -4.3852   69.0592   66.1052 H   0  0  0  0  0  0  0  0  0  0  0  0
   -3.6392   69.9280   64.7212 H   0  0  0  0  0  0  0  0  0  0  0  0
   -3.7114   68.1332   64.7212 H   0  0  0  0  0  0  0  0  0  0  0  0
   -2.1362   69.8697   66.5340 H   0  0  0  0  0  0  0  0  0  0  0  0
   -0.1521   68.8797   65.6248 H   0  0  0  0  0  0  0  0  0  0  0  0
   -1.1960   68.0272   64.4373 H   0  0  0  0  0  0  0  0  0  0  0  0
   -1.1160   69.8217   64.4373 H   0  0  0  0  0  0  0  0  0  0  0  0
  2  1  2  0
  3  1  1  0
  4  3  1  0
  5  4  2  0
  6  5  1  0
  7  6  2  0
  8  7  1  0
  9  4  1  0
  9  8  2  0
 10  8  1  0
 11  1  1  0
 12 11  1  0
 13 12  1  0
 15 14  1  0
 15 13  1  0
 16 15  1  0
  3 17  1  0
  5 18  1  0
  6 19  1  0
  9 20  1  0
 12 21  1  0
 12 22  1  0
 13 23  1  0
 13 24  1  0
 14 25  1  0
 14 26  1  0
 14 27  1  0
 15 28  1  0
 16 29  1  0
 16 30  1  0
 16 31  1  0
M  CHG  1  15   1
M  END
>  <score>  (7) 
-6.611

$$$$
=
     RDKit          3D

 31 31  0  0  0  0  0  0  0  0999 V2000
    1.1290   67.8110   66.9460 C   0  0  0  0  0  0  0  0  0  0  0  0
    0.9960   66.8140   66.2490 O   0  0  0  0  0  0  0  0  0  0  0  0
    2.0050   68.8440   66.7970 N   0  0  0  0  0  0  0  0  0  0  0  0
    2.9710   69.0220   65.7870 C   0  0  0  0  0  0  0  0  0  0  0  0
    4.2360   69.4640   66.1760 C   0  0  0  0  0  0  0  0  0  0  0  0
    5.2080   69.6440   65.2030 C   0  0  0  0  0  0  0  0  0  0  0  0
    5.0000   69.4150   63.8940 N   0  0  0  0  0  0  0  0  0  0  0  0
    3.7710   68.9940   63.5470 C   0  0  0  0  0  0  0  0  0  0  0  0
    2.7300   68.7830   64.4360 C   0  0  0  0  0  0  0  0  0  0  0  0
    3.5560   68.7170   61.8680 Cl  0  0  0  0  0  0  0  0  0  0  0  0
    0.3760   68.0240   68.0620 O   0  0  0  0  0  0  0  0  0  0  0  0
    0.0350   66.8300   68.7900 C   0  0  0  0  0  0  0  0  0  0  0  0
    1.1130   66.4660   69.8250 C   0  0  0  0  0  0  0  0  0  0  0  0
    0.2680   64.8270   71.5530 C   0  0  0  0  0  0  0  0  0  0  0  0
    1.0650   65.0200   70.2870 N   0  0  0  0  0  4  0  0  0  0  0  0
    2.4040   64.3460   70.3410 C   0  0  0  0  0  0  0  0  0  0  0  0
    1.9548   69.5855   67.5101 H   0  0  0  0  0  0  0  0  0  0  0  0
    4.4582   69.6659   67.2342 H   0  0  0  0  0  0  0  0  0  0  0  0
    6.2023   69.9927   65.5188 H   0  0  0  0  0  0  0  0  0  0  0  0
    1.7456   68.4381   64.0867 H   0  0  0  0  0  0  0  0  0  0  0  0
   -0.9198   66.9913   69.3118 H   0  0  0  0  0  0  0  0  0  0  0  0
   -0.0431   66.0012   68.0710 H   0  0  0  0  0  0  0  0  0  0  0  0
    2.0998   66.6529   69.3764 H   0  0  0  0  0  0  0  0  0  0  0  0
    0.9249   67.0890   70.7118 H   0  0  0  0  0  0  0  0  0  0  0  0
    0.9203   64.9849   72.4246 H   0  0  0  0  0  0  0  0  0  0  0  0
   -0.5601   65.5506   71.5788 H   0  0  0  0  0  0  0  0  0  0  0  0
   -0.1374   63.8047   71.5788 H   0  0  0  0  0  0  0  0  0  0  0  0
    0.5486   64.5310   69.5419 H   0  0  0  0  0  0  0  0  0  0  0  0
    2.6980   64.1980   71.3906 H   0  0  0  0  0  0  0  0  0  0  0  0
    2.3442   63.3706   69.8360 H   0  0  0  0  0  0  0  0  0  0  0  0
    3.1518   64.9751   69.8360 H   0  0  0  0  0  0  0  0  0  0  0  0
  2  1  2  0
  3  1  1  0
  4  3  1  0
  5  4  2  0
  6  5  1  0
  7  6  2  0
  8  7  1  0
  9  4  1  0
  9  8  2  0
 10  8  1  0
 11  1  1  0
 12 11  1  0
 13 12  1  0
 15 14  1  0
 15 13  1  0
 16 15  1  0
  3 17  1  0
  5 18  1  0
  6 19  1  0
  9 20  1  0
 12 21  1  0
 12 22  1  0
 13 23  1  0
 13 24  1  0
 14 25  1  0
 14 26  1  0
 14 27  1  0
 15 28  1  0
 16 29  1  0
 16 30  1  0
 16 31  1  0
M  CHG  1  15   1
M  END
>  <score>  (8) 
-6.421

$$$$
=
     RDKit          3D

 31 31  0  0  0  0  0  0  0  0999 V2000
    0.9120   64.6680   70.5810 C   0  0  0  0  0  0  0  0  0  0  0  0
    0.4560   64.1140   71.5710 O   0  0  0  0  0  0  0  0  0  0  0  0
    2.0190   64.3420   69.8560 N   0  0  0  0  0  0  0  0  0  0  0  0
    2.9070   63.2690   70.0670 C   0  0  0  0  0  0  0  0  0  0  0  0
    4.1100   63.5460   70.7190 C   0  0  0  0  0  0  0  0  0  0  0  0
    5.0010   62.5080   70.9430 C   0  0  0  0  0  0  0  0  0  0  0  0
    4.7720   61.2370   70.5660 N   0  0  0  0  0  0  0  0  0  0  0  0
    3.6080   61.0000   69.9360 C   0  0  0  0  0  0  0  0  0  0  0  0
    2.6500   61.9610   69.6620 C   0  0  0  0  0  0  0  0  0  0  0  0
    3.3630   59.3650   69.4750 Cl  0  0  0  0  0  0  0  0  0  0  0  0
    0.3430   65.7850   70.0450 O   0  0  0  0  0  0  0  0  0  0  0  0
    1.2800   66.7210   69.4820 C   0  0  0  0  0  0  0  0  0  0  0  0
    0.5980   67.6860   68.4970 C   0  0  0  0  0  0  0  0  0  0  0  0
    0.6370   67.4410   65.9820 C   0  0  0  0  0  0  0  0  0  0  0  0
   -0.0020   67.0060   67.2780 N   0  0  0  0  0  4  0  0  0  0  0  0
   -1.5000   67.0470   67.2250 C   0  0  0  0  0  0  0  0  0  0  0  0
    2.2324   64.9550   69.0562 H   0  0  0  0  0  0  0  0  0  0  0  0
    4.3463   64.5685   71.0487 H   0  0  0  0  0  0  0  0  0  0  0  0
    5.9465   62.7358   71.4569 H   0  0  0  0  0  0  0  0  0  0  0  0
    1.7166   61.7004   69.1416 H   0  0  0  0  0  0  0  0  0  0  0  0
    1.7338   67.3047   70.2965 H   0  0  0  0  0  0  0  0  0  0  0  0
    2.0440   66.1524   68.9315 H   0  0  0  0  0  0  0  0  0  0  0  0
   -0.2073   68.2122   69.0305 H   0  0  0  0  0  0  0  0  0  0  0  0
    1.3789   68.3673   68.1281 H   0  0  0  0  0  0  0  0  0  0  0  0
    1.5285   68.0479   66.1984 H   0  0  0  0  0  0  0  0  0  0  0  0
    0.9295   66.5536   65.4015 H   0  0  0  0  0  0  0  0  0  0  0  0
   -0.0813   68.0385   65.4015 H   0  0  0  0  0  0  0  0  0  0  0  0
    0.2336   66.0105   67.3978 H   0  0  0  0  0  0  0  0  0  0  0  0
   -1.9029   67.0580   68.2485 H   0  0  0  0  0  0  0  0  0  0  0  0
   -1.8234   67.9543   66.6938 H   0  0  0  0  0  0  0  0  0  0  0  0
   -1.8726   66.1587   66.6938 H   0  0  0  0  0  0  0  0  0  0  0  0
  2  1  2  0
  3  1  1  0
  4  3  1  0
  5  4  2  0
  6  5  1  0
  7  6  2  0
  8  7  1  0
  9  4  1  0
  9  8  2  0
 10  8  1  0
 11  1  1  0
 12 11  1  0
 13 12  1  0
 15 14  1  0
 15 13  1  0
 16 15  1  0
  3 17  1  0
  5 18  1  0
  6 19  1  0
  9 20  1  0
 12 21  1  0
 12 22  1  0
 13 23  1  0
 13 24  1  0
 14 25  1  0
 14 26  1  0
 14 27  1  0
 15 28  1  0
 16 29  1  0
 16 30  1  0
 16 31  1  0
M  CHG  1  15   1
M  END
>  <score>  (9) 
-6.325

$$$$
