=
     RDKit          3D

127129  0  0  0  0  0  0  0  0999 V2000
   -0.1050   60.6550   74.5610 C   0  0  2  0  0  0  0  0  0  0  0  0
   -0.2390   59.1090   74.8210 C   0  0  1  0  0  0  0  0  0  0  0  0
    0.3720   58.2400   73.7090 C   0  0  0  0  0  0  0  0  0  0  0  0
    0.3280   58.7080   76.2300 C   0  0  1  0  0  0  0  0  0  0  0  0
   -0.4900   57.5190   76.8270 C   0  0  1  0  0  0  0  0  0  0  0  0
    0.3400   56.4100   77.4690 C   0  0  0  0  0  0  0  0  0  0  0  0
   -1.4290   58.0600   77.8910 C   0  0  0  0  0  0  0  0  0  0  0  0
   -1.0990   58.8550   78.7610 O   0  0  0  0  0  0  0  0  0  0  0  0
   -2.6890   57.5640   77.7330 O   0  0  0  0  0  0  0  0  0  0  0  0
   -3.6410   57.8900   78.7820 C   0  0  1  0  0  0  0  0  0  0  0  0
   -5.0980   57.8570   78.2050 C   0  0  1  0  0  0  0  0  0  0  0  0
   -5.4510   59.1680   77.4150 C   0  0  1  0  0  0  0  0  0  0  0  0
   -4.7300   59.4190   76.0760 C   0  0  2  0  0  0  0  0  0  0  0  0
   -4.6240   60.9390   75.8690 C   0  0  0  0  0  0  0  0  0  0  0  0
   -5.5060   61.5370   75.2470 O   0  0  0  0  0  0  0  0  0  0  0  0
   -3.4650   61.7040   76.5350 C   0  0  1  0  0  0  0  0  0  0  0  0
   -2.0580   61.1890   76.1680 C   0  0  0  0  0  0  0  0  0  0  0  0
   -1.4680   61.4420   74.7550 C   0  0  2  0  0  0  0  0  0  0  0  0
   -2.4440   61.1380   73.6110 C   0  0  0  0  0  0  0  0  0  0  0  0
   -3.6170   63.2140   76.3540 C   0  0  0  0  0  0  0  0  0  0  0  0
   -5.4170   58.7980   74.8520 C   0  0  0  0  0  0  0  0  0  0  0  0
   -5.3690   56.5830   77.3940 C   0  0  0  0  0  0  0  0  0  0  0  0
   -3.3960   56.9030   79.9500 C   0  0  0  0  0  0  0  0  0  0  0  0
   -2.8870   55.5410   79.5010 C   0  0  0  0  0  0  0  0  0  0  0  0
   -1.1660   62.8440   74.7050 O   0  0  0  0  0  0  0  0  0  0  0  0
   -6.8830   59.1760   77.2230 O   0  0  0  0  0  0  0  0  0  0  0  0
   -6.0350   57.8320   79.3040 O   0  0  0  0  0  0  0  0  0  0  0  0
    0.4090   60.8430   73.2280 O   0  0  0  0  0  0  0  0  0  0  0  0
    2.3920   61.6270   72.1580 C   0  0  1  0  0  0  0  0  0  0  0  0
    1.1670   62.0350   73.0100 C   0  0  1  0  0  0  0  0  0  0  0  0
    0.3520   62.9800   72.3290 O   0  0  0  0  0  0  0  0  0  0  0  0
    1.0310   64.2100   72.0870 C   0  0  1  0  0  0  0  0  0  0  0  0
    2.1090   63.9420   71.0450 C   0  0  0  0  0  0  0  0  0  0  0  0
    3.0860   62.8800   71.5590 C   0  0  2  0  0  0  0  0  0  0  0  0
    0.0100   65.2180   71.5810 C   0  0  0  0  0  0  0  0  0  0  0  0
    4.0870   62.5040   70.4400 N   0  0  0  0  0  4  0  0  0  0  0  0
    5.2500   63.4460   70.3270 C   0  0  0  0  0  0  0  0  0  0  0  0
    3.5050   62.1720   69.0910 C   0  0  0  0  0  0  0  0  0  0  0  0
    3.2670   60.8990   73.0720 O   0  0  0  0  0  0  0  0  0  0  0  0
    3.5950   59.6190   72.7710 C   0  0  0  0  0  0  0  0  0  0  0  0
    4.1990   58.8920   73.5510 O   0  0  0  0  0  0  0  0  0  0  0  0
    3.3500   57.7790   71.0920 C   0  0  0  0  0  0  0  0  0  0  0  0
    3.0540   59.2310   71.4210 C   0  0  0  0  0  0  0  0  0  0  0  0
    1.7080   58.3340   76.1120 O   0  0  0  0  0  0  0  0  0  0  0  0
    2.6590   59.2730   76.6050 C   0  0  2  0  0  0  0  0  0  0  0  0
    3.7900   58.5760   77.1330 O   0  0  0  0  0  0  0  0  0  0  0  0
    3.4920   57.8570   78.3400 C   0  0  1  0  0  0  0  0  0  0  0  0
    4.8060   57.2520   78.8250 C   0  0  0  0  0  0  0  0  0  0  0  0
    2.8730   58.7590   79.4300 C   0  0  1  0  0  0  0  0  0  0  0  0
    2.7640   60.2360   78.9860 C   0  0  2  0  0  0  0  0  0  0  0  0
    2.0680   60.2640   77.6140 C   0  0  0  0  0  0  0  0  0  0  0  0
    4.1320   60.9400   78.9150 C   0  0  0  0  0  0  0  0  0  0  0  0
    1.8720   60.9550   79.8730 O   0  0  0  0  0  0  0  0  0  0  0  0
    0.8750   61.7700   79.2690 C   0  0  0  0  0  0  0  0  0  0  0  0
    1.5510   58.2610   79.7160 O   0  0  0  0  0  0  0  0  0  0  0  0
    0.5850   61.0725   75.3091 H   0  0  0  0  0  0  0  0  0  0  0  0
   -1.3191   58.9012   74.8099 H   0  0  0  0  0  0  0  0  0  0  0  0
    0.9490   57.4194   74.1603 H   0  0  0  0  0  0  0  0  0  0  0  0
   -0.4327   57.8229   73.0857 H   0  0  0  0  0  0  0  0  0  0  0  0
    1.0367   58.8561   73.0857 H   0  0  0  0  0  0  0  0  0  0  0  0
    0.2409   59.5732   76.9037 H   0  0  0  0  0  0  0  0  0  0  0  0
   -1.0106   57.0656   75.9706 H   0  0  0  0  0  0  0  0  0  0  0  0
    0.2780   56.4928   78.5641 H   0  0  0  0  0  0  0  0  0  0  0  0
   -0.0491   55.4309   77.1527 H   0  0  0  0  0  0  0  0  0  0  0  0
    1.3890   56.5072   77.1527 H   0  0  0  0  0  0  0  0  0  0  0  0
   -3.5064   58.9105   79.1700 H   0  0  0  0  0  0  0  0  0  0  0  0
   -5.0795   59.9969   78.0354 H   0  0  0  0  0  0  0  0  0  0  0  0
   -3.7473   58.9302   76.1496 H   0  0  0  0  0  0  0  0  0  0  0  0
   -3.5470   61.4893   77.6107 H   0  0  0  0  0  0  0  0  0  0  0  0
   -1.3595   61.6427   76.8865 H   0  0  0  0  0  0  0  0  0  0  0  0
   -2.1818   60.0962   76.1912 H   0  0  0  0  0  0  0  0  0  0  0  0
   -3.4156   60.8354   74.0286 H   0  0  0  0  0  0  0  0  0  0  0  0
   -2.5752   62.0378   72.9921 H   0  0  0  0  0  0  0  0  0  0  0  0
   -2.0410   60.3228   72.9921 H   0  0  0  0  0  0  0  0  0  0  0  0
   -3.6658   63.6985   77.3404 H   0  0  0  0  0  0  0  0  0  0  0  0
   -2.7537   63.6051   75.7957 H   0  0  0  0  0  0  0  0  0  0  0  0
   -4.5409   63.4252   75.7957 H   0  0  0  0  0  0  0  0  0  0  0  0
   -6.1947   58.0951   75.1853 H   0  0  0  0  0  0  0  0  0  0  0  0
   -5.8766   59.5932   74.2467 H   0  0  0  0  0  0  0  0  0  0  0  0
   -4.6721   58.2607   74.2467 H   0  0  0  0  0  0  0  0  0  0  0  0
   -5.5478   55.7424   78.0806 H   0  0  0  0  0  0  0  0  0  0  0  0
   -6.2552   56.7335   76.7600 H   0  0  0  0  0  0  0  0  0  0  0  0
   -4.4982   56.3598   76.7600 H   0  0  0  0  0  0  0  0  0  0  0  0
   -2.6522   57.3456   80.6289 H   0  0  0  0  0  0  0  0  0  0  0  0
   -4.3661   56.7384   80.4417 H   0  0  0  0  0  0  0  0  0  0  0  0
   -2.6572   54.9262   80.3837 H   0  0  0  0  0  0  0  0  0  0  0  0
   -3.6592   55.0417   78.8974 H   0  0  0  0  0  0  0  0  0  0  0  0
   -1.9766   55.6706   78.8974 H   0  0  0  0  0  0  0  0  0  0  0  0
   -1.0897   63.1982   75.6263 H   0  0  0  0  0  0  0  0  0  0  0  0
   -7.3341   59.1785   78.1043 H   0  0  0  0  0  0  0  0  0  0  0  0
   -5.5392   57.8452   80.1608 H   0  0  0  0  0  0  0  0  0  0  0  0
    2.1145   61.0032   71.2955 H   0  0  0  0  0  0  0  0  0  0  0  0
    1.5010   62.4989   73.9498 H   0  0  0  0  0  0  0  0  0  0  0  0
    1.5024   64.6134   72.9953 H   0  0  0  0  0  0  0  0  0  0  0  0
    1.6377   63.5843   70.1177 H   0  0  0  0  0  0  0  0  0  0  0  0
    2.6602   64.8737   70.8496 H   0  0  0  0  0  0  0  0  0  0  0  0
    3.6345   63.3267   72.4014 H   0  0  0  0  0  0  0  0  0  0  0  0
   -0.4815   65.7033   72.4371 H   0  0  0  0  0  0  0  0  0  0  0  0
    0.5177   65.9789   70.9700 H   0  0  0  0  0  0  0  0  0  0  0  0
   -0.7443   64.7006   70.9700 H   0  0  0  0  0  0  0  0  0  0  0  0
    4.4454   61.6017   70.7841 H   0  0  0  0  0  0  0  0  0  0  0  0
    5.5948   63.7253   71.3335 H   0  0  0  0  0  0  0  0  0  0  0  0
    6.0691   62.9536   69.7823 H   0  0  0  0  0  0  0  0  0  0  0  0
    4.9385   64.3495   69.7823 H   0  0  0  0  0  0  0  0  0  0  0  0
    2.5565   61.6310   69.2240 H   0  0  0  0  0  0  0  0  0  0  0  0
    3.3217   63.1014   68.5319 H   0  0  0  0  0  0  0  0  0  0  0  0
    4.2117   61.5412   68.5319 H   0  0  0  0  0  0  0  0  0  0  0  0
    3.4664   57.2080   72.0250 H   0  0  0  0  0  0  0  0  0  0  0  0
    2.5190   57.3590   70.5063 H   0  0  0  0  0  0  0  0  0  0  0  0
    4.2791   57.7178   70.5063 H   0  0  0  0  0  0  0  0  0  0  0  0
    3.5158   59.8711   70.6548 H   0  0  0  0  0  0  0  0  0  0  0  0
    1.9620   59.3620   71.4394 H   0  0  0  0  0  0  0  0  0  0  0  0
    2.9847   59.8947   75.7580 H   0  0  0  0  0  0  0  0  0  0  0  0
    2.7395   57.0817   78.1335 H   0  0  0  0  0  0  0  0  0  0  0  0
    4.8223   57.2445   79.9249 H   0  0  0  0  0  0  0  0  0  0  0  0
    4.8959   56.2218   78.4499 H   0  0  0  0  0  0  0  0  0  0  0  0
    5.6471   57.8535   78.4499 H   0  0  0  0  0  0  0  0  0  0  0  0
    3.5263   58.7304   80.3145 H   0  0  0  0  0  0  0  0  0  0  0  0
    2.1588   61.2786   77.1988 H   0  0  0  0  0  0  0  0  0  0  0  0
    1.0205   59.9708   77.7780 H   0  0  0  0  0  0  0  0  0  0  0  0
    4.5002   61.1295   79.9341 H   0  0  0  0  0  0  0  0  0  0  0  0
    4.8474   60.2981   78.3801 H   0  0  0  0  0  0  0  0  0  0  0  0
    4.0255   61.8953   78.3801 H   0  0  0  0  0  0  0  0  0  0  0  0
    0.2770   62.2588   80.0522 H   0  0  0  0  0  0  0  0  0  0  0  0
    1.3569   62.5361   78.6438 H   0  0  0  0  0  0  0  0  0  0  0  0
    0.2200   61.1454   78.6438 H   0  0  0  0  0  0  0  0  0  0  0  0
    1.4216   58.2123   80.6963 H   0  0  0  0  0  0  0  0  0  0  0  0
  2  1  1  0
  3  2  1  0
  4  2  1  0
  5  4  1  0
  6  5  1  0
  7  5  1  0
  8  7  2  0
  9  7  1  0
 10  9  1  0
 11 10  1  0
 12 11  1  0
 13 12  1  0
 14 13  1  0
 15 14  2  0
 16 14  1  0
 17 16  1  0
 18 17  1  0
 18  1  1  0
 19 18  1  0
 20 16  1  0
 21 13  1  0
 22 11  1  0
 23 10  1  0
 24 23  1  0
 18 25  1  1
 26 12  1  0
 11 27  1  1
 28  1  1  0
 30 29  1  0
 30 28  1  0
 31 30  1  0
 32 31  1  0
 33 32  1  0
 34 33  1  0
 34 29  1  0
 35 32  1  0
 36 34  1  0
 37 36  1  0
 38 36  1  0
 39 29  1  0
 40 39  1  0
 41 40  2  0
 43 42  1  0
 43 40  1  0
 44  4  1  0
 45 44  1  0
 46 45  1  0
 47 46  1  0
 48 47  1  0
 49 47  1  0
 50 49  1  0
 51 45  1  0
 51 50  1  0
 52 50  1  0
 50 53  1  1
 54 53  1  0
 55 49  1  0
  1 56  1  1
  2 57  1  1
  3 58  1  0
  3 59  1  0
  3 60  1  0
  4 61  1  1
  5 62  1  6
  6 63  1  0
  6 64  1  0
  6 65  1  0
 10 66  1  1
 12 67  1  1
 13 68  1  1
 16 69  1  1
 17 70  1  0
 17 71  1  0
 19 72  1  0
 19 73  1  0
 19 74  1  0
 20 75  1  0
 20 76  1  0
 20 77  1  0
 21 78  1  0
 21 79  1  0
 21 80  1  0
 22 81  1  0
 22 82  1  0
 22 83  1  0
 23 84  1  0
 23 85  1  0
 24 86  1  0
 24 87  1  0
 24 88  1  0
 25 89  1  0
 26 90  1  0
 27 91  1  0
 29 92  1  6
 30 93  1  1
 32 94  1  1
 33 95  1  0
 33 96  1  0
 34 97  1  1
 35 98  1  0
 35 99  1  0
 35100  1  0
 36101  1  0
 37102  1  0
 37103  1  0
 37104  1  0
 38105  1  0
 38106  1  0
 38107  1  0
 42108  1  0
 42109  1  0
 42110  1  0
 43111  1  0
 43112  1  0
 45113  1  6
 47114  1  6
 48115  1  0
 48116  1  0
 48117  1  0
 49118  1  1
 51119  1  0
 51120  1  0
 52121  1  0
 52122  1  0
 52123  1  0
 54124  1  0
 54125  1  0
 54126  1  0
 55127  1  0
M  CHG  1  36   1
M  END
>  <score>  (1) 
-6.819

$$$$
=
     RDKit          3D

127129  0  0  0  0  0  0  0  0999 V2000
    0.2770   61.8530   75.1430 C   0  0  2  0  0  0  0  0  0  0  0  0
   -1.1080   61.2100   74.7630 C   0  0  1  0  0  0  0  0  0  0  0  0
   -1.4640   61.3440   73.2730 C   0  0  0  0  0  0  0  0  0  0  0  0
   -1.2010   59.7140   75.2350 C   0  0  1  0  0  0  0  0  0  0  0  0
   -2.6670   59.3630   75.6420 C   0  0  1  0  0  0  0  0  0  0  0  0
   -3.1820   58.0170   75.1360 C   0  0  0  0  0  0  0  0  0  0  0  0
   -2.7610   59.3470   77.1580 C   0  0  0  0  0  0  0  0  0  0  0  0
   -1.9520   58.7960   77.8920 O   0  0  0  0  0  0  0  0  0  0  0  0
   -3.8500   60.0440   77.5900 O   0  0  0  0  0  0  0  0  0  0  0  0
   -4.1320   59.9710   79.0140 C   0  0  1  0  0  0  0  0  0  0  0  0
   -4.9180   61.2510   79.4650 C   0  0  1  0  0  0  0  0  0  0  0  0
   -3.9700   62.4860   79.6700 C   0  0  1  0  0  0  0  0  0  0  0  0
   -3.3150   63.1060   78.4200 C   0  0  2  0  0  0  0  0  0  0  0  0
   -1.9690   63.7190   78.8420 C   0  0  0  0  0  0  0  0  0  0  0  0
   -1.9130   64.9040   79.1820 O   0  0  0  0  0  0  0  0  0  0  0  0
   -0.7300   62.8080   78.9320 C   0  0  1  0  0  0  0  0  0  0  0  0
   -0.3920   62.0510   77.6320 C   0  0  0  0  0  0  0  0  0  0  0  0
    0.1980   62.8030   76.4100 C   0  0  2  0  0  0  0  0  0  0  0  0
   -0.5330   64.1080   76.0710 C   0  0  0  0  0  0  0  0  0  0  0  0
    0.4680   63.5540   79.5210 C   0  0  0  0  0  0  0  0  0  0  0  0
   -4.1560   64.1860   77.7250 C   0  0  0  0  0  0  0  0  0  0  0  0
   -6.1030   61.5560   78.5380 C   0  0  0  0  0  0  0  0  0  0  0  0
   -4.8800   58.6400   79.2690 C   0  0  0  0  0  0  0  0  0  0  0  0
   -4.2290   57.7690   80.3340 C   0  0  0  0  0  0  0  0  0  0  0  0
    1.5430   63.1440   76.7760 O   0  0  0  0  0  0  0  0  0  0  0  0
   -4.7250   63.4870   80.3880 O   0  0  0  0  0  0  0  0  0  0  0  0
   -5.4890   61.0110   80.7700 O   0  0  0  0  0  0  0  0  0  0  0  0
    0.7680   62.5710   73.9950 O   0  0  0  0  0  0  0  0  0  0  0  0
    1.9870   62.7820   71.9540 C   0  0  1  0  0  0  0  0  0  0  0  0
    1.4370   61.7880   73.0030 C   0  0  1  0  0  0  0  0  0  0  0  0
    2.4850   61.0570   73.6260 O   0  0  0  0  0  0  0  0  0  0  0  0
    3.1950   60.2320   72.7040 C   0  0  1  0  0  0  0  0  0  0  0  0
    3.9820   61.1500   71.7780 C   0  0  0  0  0  0  0  0  0  0  0  0
    3.0280   62.0910   71.0350 C   0  0  2  0  0  0  0  0  0  0  0  0
    4.1200   59.3250   73.5020 C   0  0  0  0  0  0  0  0  0  0  0  0
    3.8430   63.1180   70.2110 N   0  0  0  0  0  4  0  0  0  0  0  0
    3.7780   62.8930   68.7290 C   0  0  0  0  0  0  0  0  0  0  0  0
    5.2490   63.3950   70.6730 C   0  0  0  0  0  0  0  0  0  0  0  0
    0.8160   63.2390   71.2110 O   0  0  0  0  0  0  0  0  0  0  0  0
    0.4620   64.5440   71.2990 C   0  0  0  0  0  0  0  0  0  0  0  0
   -0.3110   64.9620   72.1530 O   0  0  0  0  0  0  0  0  0  0  0  0
    0.3320   66.4820   69.7200 C   0  0  0  0  0  0  0  0  0  0  0  0
    1.2000   65.3690   70.2790 C   0  0  0  0  0  0  0  0  0  0  0  0
   -0.7690   58.8420   74.1820 O   0  0  0  0  0  0  0  0  0  0  0  0
    0.5440   58.3040   74.3090 C   0  0  2  0  0  0  0  0  0  0  0  0
    0.5660   56.9700   73.7950 O   0  0  0  0  0  0  0  0  0  0  0  0
   -0.1700   56.0440   74.6100 C   0  0  1  0  0  0  0  0  0  0  0  0
    0.0260   54.6640   73.9900 C   0  0  0  0  0  0  0  0  0  0  0  0
    0.2960   56.0500   76.0820 C   0  0  1  0  0  0  0  0  0  0  0  0
    1.4790   57.0150   76.3260 C   0  0  2  0  0  0  0  0  0  0  0  0
    1.0990   58.3840   75.7360 C   0  0  0  0  0  0  0  0  0  0  0  0
    2.7980   56.5080   75.7140 C   0  0  0  0  0  0  0  0  0  0  0  0
    1.6410   57.2520   77.7470 O   0  0  0  0  0  0  0  0  0  0  0  0
    1.8280   58.5990   78.1620 C   0  0  0  0  0  0  0  0  0  0  0  0
   -0.8180   56.4660   76.8960 O   0  0  0  0  0  0  0  0  0  0  0  0
    0.9681   61.0446   75.4239 H   0  0  0  0  0  0  0  0  0  0  0  0
   -1.8628   61.7942   75.3098 H   0  0  0  0  0  0  0  0  0  0  0  0
   -2.4893   61.7299   73.1743 H   0  0  0  0  0  0  0  0  0  0  0  0
   -0.7623   62.0395   72.7895 H   0  0  0  0  0  0  0  0  0  0  0  0
   -1.3951   60.3584   72.7895 H   0  0  0  0  0  0  0  0  0  0  0  0
   -0.5475   59.5795   76.1096 H   0  0  0  0  0  0  0  0  0  0  0  0
   -3.2925   60.1358   75.1715 H   0  0  0  0  0  0  0  0  0  0  0  0
   -3.4284   57.3730   75.9931 H   0  0  0  0  0  0  0  0  0  0  0  0
   -4.0831   58.1753   74.5253 H   0  0  0  0  0  0  0  0  0  0  0  0
   -2.4054   57.5334   74.5253 H   0  0  0  0  0  0  0  0  0  0  0  0
   -3.2170   59.9634   79.6245 H   0  0  0  0  0  0  0  0  0  0  0  0
   -3.0991   62.1028   80.2220 H   0  0  0  0  0  0  0  0  0  0  0  0
   -3.2018   62.2943   77.6863 H   0  0  0  0  0  0  0  0  0  0  0  0
   -1.0002   62.0067   79.6355 H   0  0  0  0  0  0  0  0  0  0  0  0
    0.3350   61.2709   77.9022 H   0  0  0  0  0  0  0  0  0  0  0  0
   -1.3801   61.7306   77.2700 H   0  0  0  0  0  0  0  0  0  0  0  0
   -0.8198   64.6200   77.0014 H   0  0  0  0  0  0  0  0  0  0  0  0
    0.1318   64.7589   75.4842 H   0  0  0  0  0  0  0  0  0  0  0  0
   -1.4353   63.8811   75.4842 H   0  0  0  0  0  0  0  0  0  0  0  0
    0.4162   63.5217   80.6193 H   0  0  0  0  0  0  0  0  0  0  0  0
    1.3995   63.0760   79.1837 H   0  0  0  0  0  0  0  0  0  0  0  0
    0.4500   64.6008   79.1837 H   0  0  0  0  0  0  0  0  0  0  0  0
   -4.6453   64.8144   78.4837 H   0  0  0  0  0  0  0  0  0  0  0  0
   -3.5040   64.8105   77.0966 H   0  0  0  0  0  0  0  0  0  0  0  0
   -4.9213   63.7069   77.0966 H   0  0  0  0  0  0  0  0  0  0  0  0
   -6.9925   61.7850   79.1432 H   0  0  0  0  0  0  0  0  0  0  0  0
   -5.8589   62.4206   77.9033 H   0  0  0  0  0  0  0  0  0  0  0  0
   -6.3067   60.6810   77.9033 H   0  0  0  0  0  0  0  0  0  0  0  0
   -5.9058   58.8737   79.5903 H   0  0  0  0  0  0  0  0  0  0  0  0
   -4.8554   58.0710   78.3279 H   0  0  0  0  0  0  0  0  0  0  0  0
   -4.5066   58.1404   81.3315 H   0  0  0  0  0  0  0  0  0  0  0  0
   -4.5744   56.7309   80.2201 H   0  0  0  0  0  0  0  0  0  0  0  0
   -3.1355   57.8062   80.2201 H   0  0  0  0  0  0  0  0  0  0  0  0
    1.6215   63.1639   77.7627 H   0  0  0  0  0  0  0  0  0  0  0  0
   -4.6181   63.3453   81.3620 H   0  0  0  0  0  0  0  0  0  0  0  0
   -4.8421   61.2829   81.4683 H   0  0  0  0  0  0  0  0  0  0  0  0
    2.5177   63.6279   72.4154 H   0  0  0  0  0  0  0  0  0  0  0  0
    0.7672   61.0634   72.5169 H   0  0  0  0  0  0  0  0  0  0  0  0
    2.5226   59.6046   72.1004 H   0  0  0  0  0  0  0  0  0  0  0  0
    4.6910   61.7453   72.3721 H   0  0  0  0  0  0  0  0  0  0  0  0
    4.5291   60.5391   71.0448 H   0  0  0  0  0  0  0  0  0  0  0  0
    2.4292   61.4711   70.3515 H   0  0  0  0  0  0  0  0  0  0  0  0
    3.9545   59.4872   74.5773 H   0  0  0  0  0  0  0  0  0  0  0  0
    3.9083   58.2747   73.2528 H   0  0  0  0  0  0  0  0  0  0  0  0
    5.1659   59.5573   73.2528 H   0  0  0  0  0  0  0  0  0  0  0  0
    3.3375   63.9913   70.4175 H   0  0  0  0  0  0  0  0  0  0  0  0
    3.4778   61.8539   68.5287 H   0  0  0  0  0  0  0  0  0  0  0  0
    3.0414   63.5794   68.2859 H   0  0  0  0  0  0  0  0  0  0  0  0
    4.7671   63.0808   68.2859 H   0  0  0  0  0  0  0  0  0  0  0  0
    5.2792   63.4009   71.7726 H   0  0  0  0  0  0  0  0  0  0  0  0
    5.9211   62.6120   70.2920 H   0  0  0  0  0  0  0  0  0  0  0  0
    5.5739   64.3744   70.2920 H   0  0  0  0  0  0  0  0  0  0  0  0
   -0.1125   67.0519   70.5492 H   0  0  0  0  0  0  0  0  0  0  0  0
    0.9480   67.1526   69.1029 H   0  0  0  0  0  0  0  0  0  0  0  0
   -0.4685   66.0479   69.1029 H   0  0  0  0  0  0  0  0  0  0  0  0
    1.5161   64.7149   69.4530 H   0  0  0  0  0  0  0  0  0  0  0  0
    2.0685   65.8282   70.7739 H   0  0  0  0  0  0  0  0  0  0  0  0
    1.2211   58.9300   73.7093 H   0  0  0  0  0  0  0  0  0  0  0  0
   -1.2313   56.3323   74.6330 H   0  0  0  0  0  0  0  0  0  0  0  0
    0.1324   53.9150   74.7886 H   0  0  0  0  0  0  0  0  0  0  0  0
   -0.8457   54.4147   73.3672 H   0  0  0  0  0  0  0  0  0  0  0  0
    0.9327   54.6673   73.3672 H   0  0  0  0  0  0  0  0  0  0  0  0
    0.6409   55.0376   76.3389 H   0  0  0  0  0  0  0  0  0  0  0  0
    1.9969   59.0194   75.7249 H   0  0  0  0  0  0  0  0  0  0  0  0
    0.3013   58.7986   76.3699 H   0  0  0  0  0  0  0  0  0  0  0  0
    3.4968   56.2394   76.5200 H   0  0  0  0  0  0  0  0  0  0  0  0
    2.5975   55.6229   75.0924 H   0  0  0  0  0  0  0  0  0  0  0  0
    3.2419   57.2996   75.0924 H   0  0  0  0  0  0  0  0  0  0  0  0
    1.8346   58.6465   79.2610 H   0  0  0  0  0  0  0  0  0  0  0  0
    2.7866   58.9728   77.7731 H   0  0  0  0  0  0  0  0  0  0  0  0
    1.0074   59.2198   77.7731 H   0  0  0  0  0  0  0  0  0  0  0  0
   -0.5792   56.3768   77.8526 H   0  0  0  0  0  0  0  0  0  0  0  0
  2  1  1  0
  3  2  1  0
  4  2  1  0
  5  4  1  0
  6  5  1  0
  7  5  1  0
  8  7  2  0
  9  7  1  0
 10  9  1  0
 11 10  1  0
 12 11  1  0
 13 12  1  0
 14 13  1  0
 15 14  2  0
 16 14  1  0
 17 16  1  0
 18 17  1  0
 18  1  1  0
 19 18  1  0
 20 16  1  0
 21 13  1  0
 22 11  1  0
 23 10  1  0
 24 23  1  0
 18 25  1  1
 26 12  1  0
 11 27  1  1
 28  1  1  0
 30 29  1  0
 30 28  1  0
 31 30  1  0
 32 31  1  0
 33 32  1  0
 34 33  1  0
 34 29  1  0
 35 32  1  0
 36 34  1  0
 37 36  1  0
 38 36  1  0
 39 29  1  0
 40 39  1  0
 41 40  2  0
 43 42  1  0
 43 40  1  0
 44  4  1  0
 45 44  1  0
 46 45  1  0
 47 46  1  0
 48 47  1  0
 49 47  1  0
 50 49  1  0
 51 45  1  0
 51 50  1  0
 52 50  1  0
 50 53  1  1
 54 53  1  0
 55 49  1  0
  1 56  1  1
  2 57  1  1
  3 58  1  0
  3 59  1  0
  3 60  1  0
  4 61  1  1
  5 62  1  6
  6 63  1  0
  6 64  1  0
  6 65  1  0
 10 66  1  1
 12 67  1  1
 13 68  1  6
 16 69  1  1
 17 70  1  0
 17 71  1  0
 19 72  1  0
 19 73  1  0
 19 74  1  0
 20 75  1  0
 20 76  1  0
 20 77  1  0
 21 78  1  0
 21 79  1  0
 21 80  1  0
 22 81  1  0
 22 82  1  0
 22 83  1  0
 23 84  1  0
 23 85  1  0
 24 86  1  0
 24 87  1  0
 24 88  1  0
 25 89  1  0
 26 90  1  0
 27 91  1  0
 29 92  1  1
 30 93  1  6
 32 94  1  6
 33 95  1  0
 33 96  1  0
 34 97  1  6
 35 98  1  0
 35 99  1  0
 35100  1  0
 36101  1  0
 37102  1  0
 37103  1  0
 37104  1  0
 38105  1  0
 38106  1  0
 38107  1  0
 42108  1  0
 42109  1  0
 42110  1  0
 43111  1  0
 43112  1  0
 45113  1  6
 47114  1  1
 48115  1  0
 48116  1  0
 48117  1  0
 49118  1  1
 51119  1  0
 51120  1  0
 52121  1  0
 52122  1  0
 52123  1  0
 54124  1  0
 54125  1  0
 54126  1  0
 55127  1  0
M  CHG  1  36   1
M  END
>  <score>  (2) 
-6.679

$$$$
=
     RDKit          3D

127129  0  0  0  0  0  0  0  0999 V2000
   -0.6300   61.6630   75.5180 C   0  0  2  0  0  0  0  0  0  0  0  0
   -1.9700   61.2880   74.7810 C   0  0  1  0  0  0  0  0  0  0  0  0
   -1.8360   61.2230   73.2500 C   0  0  0  0  0  0  0  0  0  0  0  0
   -2.5930   59.9630   75.3520 C   0  0  1  0  0  0  0  0  0  0  0  0
   -4.1520   60.0290   75.2980 C   0  0  1  0  0  0  0  0  0  0  0  0
   -4.8430   58.7640   74.7960 C   0  0  0  0  0  0  0  0  0  0  0  0
   -4.6750   60.3120   76.6960 C   0  0  0  0  0  0  0  0  0  0  0  0
   -4.2880   59.7380   77.7050 O   0  0  0  0  0  0  0  0  0  0  0  0
   -5.6120   61.3020   76.6790 O   0  0  0  0  0  0  0  0  0  0  0  0
   -6.2970   61.5550   77.9350 C   0  0  1  0  0  0  0  0  0  0  0  0
   -6.8040   63.0390   77.9730 C   0  0  1  0  0  0  0  0  0  0  0  0
   -5.6580   64.0470   78.3420 C   0  0  1  0  0  0  0  0  0  0  0  0
   -4.5320   64.2650   77.3130 C   0  0  2  0  0  0  0  0  0  0  0  0
   -3.2490   64.6280   78.0800 C   0  0  0  0  0  0  0  0  0  0  0  0
   -2.9760   65.8120   78.2940 O   0  0  0  0  0  0  0  0  0  0  0  0
   -2.3800   63.4960   78.6590 C   0  0  1  0  0  0  0  0  0  0  0  0
   -1.9020   62.4570   77.6230 C   0  0  0  0  0  0  0  0  0  0  0  0
   -0.8080   62.8220   76.5850 C   0  0  2  0  0  0  0  0  0  0  0  0
   -1.0330   64.1730   75.8950 C   0  0  0  0  0  0  0  0  0  0  0  0
   -1.2450   64.0490   79.5210 C   0  0  0  0  0  0  0  0  0  0  0  0
   -4.8160   65.3600   76.2750 C   0  0  0  0  0  0  0  0  0  0  0  0
   -7.5470   63.4270   76.6870 C   0  0  0  0  0  0  0  0  0  0  0  0
   -7.4170   60.4950   78.0730 C   0  0  0  0  0  0  0  0  0  0  0  0
   -7.9750   60.0220   76.7380 C   0  0  0  0  0  0  0  0  0  0  0  0
    0.4160   62.9140   77.3270 O   0  0  0  0  0  0  0  0  0  0  0  0
   -6.2880   65.3050   78.6700 O   0  0  0  0  0  0  0  0  0  0  0  0
   -7.7660   63.1760   79.0410 O   0  0  0  0  0  0  0  0  0  0  0  0
    0.3420   62.0310   74.5210 O   0  0  0  0  0  0  0  0  0  0  0  0
    1.8690   61.5690   72.7460 C   0  0  1  0  0  0  0  0  0  0  0  0
    1.0400   60.9510   73.8960 C   0  0  1  0  0  0  0  0  0  0  0  0
    1.8760   60.3250   74.8620 O   0  0  0  0  0  0  0  0  0  0  0  0
    2.5980   59.2210   74.3210 C   0  0  1  0  0  0  0  0  0  0  0  0
    3.6310   59.7780   73.3510 C   0  0  0  0  0  0  0  0  0  0  0  0
    2.9340   60.5630   72.2340 C   0  0  2  0  0  0  0  0  0  0  0  0
    3.2640   58.4860   75.4760 C   0  0  0  0  0  0  0  0  0  0  0  0
    3.9930   61.2510   71.3380 N   0  0  0  0  0  4  0  0  0  0  0  0
    4.1530   60.6090   69.9910 C   0  0  0  0  0  0  0  0  0  0  0  0
    5.3240   61.5560   71.9730 C   0  0  0  0  0  0  0  0  0  0  0  0
    0.8940   61.9090   71.7140 O   0  0  0  0  0  0  0  0  0  0  0  0
    1.0810   63.0430   70.9970 C   0  0  0  0  0  0  0  0  0  0  0  0
    1.6480   63.0520   69.9100 O   0  0  0  0  0  0  0  0  0  0  0  0
    0.4490   65.4580   70.7990 C   0  0  0  0  0  0  0  0  0  0  0  0
    0.4410   64.2220   71.6810 C   0  0  0  0  0  0  0  0  0  0  0  0
   -2.1300   58.8390   74.5900 O   0  0  0  0  0  0  0  0  0  0  0  0
   -1.0520   58.0980   75.1540 C   0  0  2  0  0  0  0  0  0  0  0  0
   -1.2420   56.7050   74.8950 O   0  0  0  0  0  0  0  0  0  0  0  0
   -2.3460   56.1440   75.6230 C   0  0  1  0  0  0  0  0  0  0  0  0
   -2.3590   54.6500   75.3170 C   0  0  0  0  0  0  0  0  0  0  0  0
   -2.2370   56.3870   77.1440 C   0  0  1  0  0  0  0  0  0  0  0  0
   -0.9400   57.1330   77.5340 C   0  0  2  0  0  0  0  0  0  0  0  0
   -0.8310   58.3840   76.6450 C   0  0  0  0  0  0  0  0  0  0  0  0
    0.3180   56.2560   77.3940 C   0  0  0  0  0  0  0  0  0  0  0  0
   -1.0510   57.6440   78.8860 O   0  0  0  0  0  0  0  0  0  0  0  0
   -0.8110   59.0330   79.0760 C   0  0  0  0  0  0  0  0  0  0  0  0
   -3.3700   57.1830   77.5460 O   0  0  0  0  0  0  0  0  0  0  0  0
   -0.2920   60.7858   76.0892 H   0  0  0  0  0  0  0  0  0  0  0  0
   -2.6631   62.1161   74.9907 H   0  0  0  0  0  0  0  0  0  0  0  0
   -0.8753   60.7570   72.9855 H   0  0  0  0  0  0  0  0  0  0  0  0
   -2.6604   60.6247   72.8348 H   0  0  0  0  0  0  0  0  0  0  0  0
   -1.8764   62.2408   72.8348 H   0  0  0  0  0  0  0  0  0  0  0  0
   -2.2780   59.8480   76.3996 H   0  0  0  0  0  0  0  0  0  0  0  0
   -4.3855   60.8224   74.5728 H   0  0  0  0  0  0  0  0  0  0  0  0
   -5.1725   58.1608   75.6548 H   0  0  0  0  0  0  0  0  0  0  0  0
   -5.7155   59.0403   74.1857 H   0  0  0  0  0  0  0  0  0  0  0  0
   -4.1390   58.1792   74.1857 H   0  0  0  0  0  0  0  0  0  0  0  0
   -5.6311   61.4540   78.8047 H   0  0  0  0  0  0  0  0  0  0  0  0
   -5.1171   63.5867   79.1820 H   0  0  0  0  0  0  0  0  0  0  0  0
   -4.4373   63.3282   76.7443 H   0  0  0  0  0  0  0  0  0  0  0  0
   -3.0452   62.9187   79.3180 H   0  0  0  0  0  0  0  0  0  0  0  0
   -1.5206   61.5969   78.1929 H   0  0  0  0  0  0  0  0  0  0  0  0
   -2.7939   62.3048   76.9974 H   0  0  0  0  0  0  0  0  0  0  0  0
   -1.1634   64.9563   76.6562 H   0  0  0  0  0  0  0  0  0  0  0  0
   -0.1625   64.4134   75.2669 H   0  0  0  0  0  0  0  0  0  0  0  0
   -1.9344   64.1183   75.2669 H   0  0  0  0  0  0  0  0  0  0  0  0
   -1.4985   63.9255   80.5842 H   0  0  0  0  0  0  0  0  0  0  0  0
   -0.3165   63.5023   79.2995 H   0  0  0  0  0  0  0  0  0  0  0  0
   -1.1033   65.1171   79.2995 H   0  0  0  0  0  0  0  0  0  0  0  0
   -5.0599   66.3002   76.7912 H   0  0  0  0  0  0  0  0  0  0  0  0
   -3.9264   65.5076   75.6450 H   0  0  0  0  0  0  0  0  0  0  0  0
   -5.6652   65.0567   75.6450 H   0  0  0  0  0  0  0  0  0  0  0  0
   -8.4946   63.9219   76.9461 H   0  0  0  0  0  0  0  0  0  0  0  0
   -6.9237   64.1147   76.0967 H   0  0  0  0  0  0  0  0  0  0  0  0
   -7.7551   62.5225   76.0967 H   0  0  0  0  0  0  0  0  0  0  0  0
   -7.0084   59.6246   78.6073 H   0  0  0  0  0  0  0  0  0  0  0  0
   -8.2454   60.9696   78.6194 H   0  0  0  0  0  0  0  0  0  0  0  0
   -8.8032   59.3200   76.9148 H   0  0  0  0  0  0  0  0  0  0  0  0
   -8.3433   60.8872   76.1673 H   0  0  0  0  0  0  0  0  0  0  0  0
   -7.1818   59.5170   76.1673 H   0  0  0  0  0  0  0  0  0  0  0  0
    0.2161   62.8990   78.2965 H   0  0  0  0  0  0  0  0  0  0  0  0
   -6.3370   65.4029   79.6539 H   0  0  0  0  0  0  0  0  0  0  0  0
   -7.3024   63.1100   79.9132 H   0  0  0  0  0  0  0  0  0  0  0  0
    2.4333   62.4574   73.0657 H   0  0  0  0  0  0  0  0  0  0  0  0
    0.3590   60.1849   73.4968 H   0  0  0  0  0  0  0  0  0  0  0  0
    1.9451   58.5169   73.7843 H   0  0  0  0  0  0  0  0  0  0  0  0
    4.3159   60.4467   73.8930 H   0  0  0  0  0  0  0  0  0  0  0  0
    4.1953   58.9444   72.9076 H   0  0  0  0  0  0  0  0  0  0  0  0
    2.3676   59.8363   71.6331 H   0  0  0  0  0  0  0  0  0  0  0  0
    2.8961   58.8920   76.4298 H   0  0  0  0  0  0  0  0  0  0  0  0
    3.0230   57.4144   75.4163 H   0  0  0  0  0  0  0  0  0  0  0  0
    4.3541   58.6205   75.4163 H   0  0  0  0  0  0  0  0  0  0  0  0
    3.5684   62.1785   71.1957 H   0  0  0  0  0  0  0  0  0  0  0  0
    4.4172   59.5489   70.1191 H   0  0  0  0  0  0  0  0  0  0  0  0
    3.2081   60.6866   69.4333 H   0  0  0  0  0  0  0  0  0  0  0  0
    4.9510   61.1210   69.4333 H   0  0  0  0  0  0  0  0  0  0  0  0
    5.2218   61.5326   73.0680 H   0  0  0  0  0  0  0  0  0  0  0  0
    6.0618   60.8036   71.6574 H   0  0  0  0  0  0  0  0  0  0  0  0
    5.6606   62.5546   71.6574 H   0  0  0  0  0  0  0  0  0  0  0  0
    0.4548   66.3588   71.4302 H   0  0  0  0  0  0  0  0  0  0  0  0
    1.3471   65.4495   70.1639 H   0  0  0  0  0  0  0  0  0  0  0  0
   -0.4491   65.4611   70.1639 H   0  0  0  0  0  0  0  0  0  0  0  0
    0.9949   64.4409   72.6058 H   0  0  0  0  0  0  0  0  0  0  0  0
   -0.6059   63.9641   71.8989 H   0  0  0  0  0  0  0  0  0  0  0  0
   -0.1254   58.4308   74.6634 H   0  0  0  0  0  0  0  0  0  0  0  0
   -3.2818   56.6304   75.3103 H   0  0  0  0  0  0  0  0  0  0  0  0
   -2.3639   54.0827   76.2594 H   0  0  0  0  0  0  0  0  0  0  0  0
   -3.2593   54.4027   74.7354 H   0  0  0  0  0  0  0  0  0  0  0  0
   -1.4631   54.3870   74.7354 H   0  0  0  0  0  0  0  0  0  0  0  0
   -2.2174   55.4102   77.6495 H   0  0  0  0  0  0  0  0  0  0  0  0
    0.1734   58.8143   76.7716 H   0  0  0  0  0  0  0  0  0  0  0  0
   -1.6251   59.0759   76.9623 H   0  0  0  0  0  0  0  0  0  0  0  0
    0.6949   55.9933   78.3935 H   0  0  0  0  0  0  0  0  0  0  0  0
    0.0652   55.3374   76.8443 H   0  0  0  0  0  0  0  0  0  0  0  0
    1.0925   56.8109   76.8443 H   0  0  0  0  0  0  0  0  0  0  0  0
   -0.7727   59.2546   80.1528 H   0  0  0  0  0  0  0  0  0  0  0  0
    0.1477   59.3064   78.6111 H   0  0  0  0  0  0  0  0  0  0  0  0
   -1.6224   59.6123   78.6111 H   0  0  0  0  0  0  0  0  0  0  0  0
   -3.4164   57.2156   78.5344 H   0  0  0  0  0  0  0  0  0  0  0  0
  2  1  1  0
  3  2  1  0
  4  2  1  0
  5  4  1  0
  6  5  1  0
  7  5  1  0
  8  7  2  0
  9  7  1  0
 10  9  1  0
 11 10  1  0
 12 11  1  0
 13 12  1  0
 14 13  1  0
 15 14  2  0
 16 14  1  0
 17 16  1  0
 18 17  1  0
 18  1  1  0
 19 18  1  0
 20 16  1  0
 21 13  1  0
 22 11  1  0
 23 10  1  0
 24 23  1  0
 18 25  1  1
 26 12  1  0
 11 27  1  1
 28  1  1  0
 30 29  1  0
 30 28  1  0
 31 30  1  0
 32 31  1  0
 33 32  1  0
 34 33  1  0
 34 29  1  0
 35 32  1  0
 36 34  1  0
 37 36  1  0
 38 36  1  0
 39 29  1  0
 40 39  1  0
 41 40  2  0
 43 42  1  0
 43 40  1  0
 44  4  1  0
 45 44  1  0
 46 45  1  0
 47 46  1  0
 48 47  1  0
 49 47  1  0
 50 49  1  0
 51 45  1  0
 51 50  1  0
 52 50  1  0
 50 53  1  1
 54 53  1  0
 55 49  1  0
  1 56  1  1
  2 57  1  6
  3 58  1  0
  3 59  1  0
  3 60  1  0
  4 61  1  1
  5 62  1  6
  6 63  1  0
  6 64  1  0
  6 65  1  0
 10 66  1  1
 12 67  1  1
 13 68  1  6
 16 69  1  1
 17 70  1  0
 17 71  1  0
 19 72  1  0
 19 73  1  0
 19 74  1  0
 20 75  1  0
 20 76  1  0
 20 77  1  0
 21 78  1  0
 21 79  1  0
 21 80  1  0
 22 81  1  0
 22 82  1  0
 22 83  1  0
 23 84  1  0
 23 85  1  0
 24 86  1  0
 24 87  1  0
 24 88  1  0
 25 89  1  0
 26 90  1  0
 27 91  1  0
 29 92  1  1
 30 93  1  6
 32 94  1  6
 33 95  1  0
 33 96  1  0
 34 97  1  6
 35 98  1  0
 35 99  1  0
 35100  1  0
 36101  1  0
 37102  1  0
 37103  1  0
 37104  1  0
 38105  1  0
 38106  1  0
 38107  1  0
 42108  1  0
 42109  1  0
 42110  1  0
 43111  1  0
 43112  1  0
 45113  1  6
 47114  1  6
 48115  1  0
 48116  1  0
 48117  1  0
 49118  1  1
 51119  1  0
 51120  1  0
 52121  1  0
 52122  1  0
 52123  1  0
 54124  1  0
 54125  1  0
 54126  1  0
 55127  1  0
M  CHG  1  36   1
M  END
>  <score>  (3) 
-6.372

$$$$
=
     RDKit          3D

127129  0  0  0  0  0  0  0  0999 V2000
   -1.7570   61.8060   76.8500 C   0  0  2  0  0  0  0  0  0  0  0  0
   -1.3590   60.5060   77.6430 C   0  0  1  0  0  0  0  0  0  0  0  0
   -1.2030   60.7280   79.1560 C   0  0  0  0  0  0  0  0  0  0  0  0
   -2.3460   59.3200   77.3430 C   0  0  1  0  0  0  0  0  0  0  0  0
   -1.5840   57.9580   77.3790 C   0  0  1  0  0  0  0  0  0  0  0  0
   -2.2980   56.8280   78.1190 C   0  0  0  0  0  0  0  0  0  0  0  0
   -1.3520   57.4920   75.9520 C   0  0  0  0  0  0  0  0  0  0  0  0
   -2.2070   57.5010   75.0760 O   0  0  0  0  0  0  0  0  0  0  0  0
   -0.0630   57.0870   75.7710 O   0  0  0  0  0  0  0  0  0  0  0  0
    0.2410   56.4770   74.4870 C   0  0  1  0  0  0  0  0  0  0  0  0
    1.7620   56.6670   74.1570 C   0  0  1  0  0  0  0  0  0  0  0  0
    2.0710   58.1020   73.5980 C   0  0  1  0  0  0  0  0  0  0  0  0
    1.9440   59.2950   74.5670 C   0  0  2  0  0  0  0  0  0  0  0  0
    1.5560   60.5360   73.7460 C   0  0  0  0  0  0  0  0  0  0  0  0
    2.4350   61.2800   73.3030 O   0  0  0  0  0  0  0  0  0  0  0  0
    0.0720   60.7700   73.4040 C   0  0  1  0  0  0  0  0  0  0  0  0
   -0.8680   60.8330   74.6260 C   0  0  0  0  0  0  0  0  0  0  0  0
   -0.8500   62.0610   75.5740 C   0  0  2  0  0  0  0  0  0  0  0  0
    0.5580   62.5080   75.9840 C   0  0  0  0  0  0  0  0  0  0  0  0
   -0.1010   61.9540   72.4530 C   0  0  0  0  0  0  0  0  0  0  0  0
    3.2160   59.6070   75.3680 C   0  0  0  0  0  0  0  0  0  0  0  0
    2.6620   56.2820   75.3380 C   0  0  0  0  0  0  0  0  0  0  0  0
   -0.2150   54.9990   74.5590 C   0  0  0  0  0  0  0  0  0  0  0  0
   -0.1600   54.4120   75.9630 C   0  0  0  0  0  0  0  0  0  0  0  0
   -1.4460   63.1340   74.8310 O   0  0  0  0  0  0  0  0  0  0  0  0
    3.3970   58.0600   73.0270 O   0  0  0  0  0  0  0  0  0  0  0  0
    2.1210   55.7740   73.0800 O   0  0  0  0  0  0  0  0  0  0  0  0
   -1.6900   62.9230   77.7570 O   0  0  0  0  0  0  0  0  0  0  0  0
   -3.5920   63.9090   76.7070 C   0  0  1  0  0  0  0  0  0  0  0  0
   -2.9330   63.5590   78.0620 C   0  0  1  0  0  0  0  0  0  0  0  0
   -3.7360   62.6590   78.8140 O   0  0  0  0  0  0  0  0  0  0  0  0
   -4.9940   63.2260   79.1770 C   0  0  1  0  0  0  0  0  0  0  0  0
   -5.8170   63.3670   77.9040 C   0  0  0  0  0  0  0  0  0  0  0  0
   -5.0890   64.2690   76.9020 C   0  0  2  0  0  0  0  0  0  0  0  0
   -5.6640   62.2860   80.1680 C   0  0  0  0  0  0  0  0  0  0  0  0
   -5.8570   64.2870   75.5580 N   0  0  0  0  0  4  0  0  0  0  0  0
   -6.9520   65.3120   75.5010 C   0  0  0  0  0  0  0  0  0  0  0  0
   -6.3090   62.9560   75.0170 C   0  0  0  0  0  0  0  0  0  0  0  0
   -2.8200   65.0330   76.1870 O   0  0  0  0  0  0  0  0  0  0  0  0
   -3.3870   66.2630   76.1880 C   0  0  0  0  0  0  0  0  0  0  0  0
   -3.9230   66.7440   75.1960 O   0  0  0  0  0  0  0  0  0  0  0  0
   -4.6590   67.4820   77.9670 C   0  0  0  0  0  0  0  0  0  0  0  0
   -3.3260   66.8810   77.5590 C   0  0  0  0  0  0  0  0  0  0  0  0
   -3.4030   59.3090   78.3130 O   0  0  0  0  0  0  0  0  0  0  0  0
   -4.6620   59.8110   77.8760 C   0  0  2  0  0  0  0  0  0  0  0  0
   -5.7150   59.0830   78.5140 O   0  0  0  0  0  0  0  0  0  0  0  0
   -5.8110   57.7240   78.0610 C   0  0  1  0  0  0  0  0  0  0  0  0
   -7.0250   57.1150   78.7550 C   0  0  0  0  0  0  0  0  0  0  0  0
   -5.9510   57.6190   76.5260 C   0  0  1  0  0  0  0  0  0  0  0  0
   -6.0080   59.0030   75.8400 C   0  0  2  0  0  0  0  0  0  0  0  0
   -4.8140   59.8290   76.3500 C   0  0  0  0  0  0  0  0  0  0  0  0
   -7.3310   59.7450   76.0990 C   0  0  0  0  0  0  0  0  0  0  0  0
   -5.7810   58.8590   74.4160 O   0  0  0  0  0  0  0  0  0  0  0  0
   -6.6480   59.5750   73.5450 C   0  0  0  0  0  0  0  0  0  0  0  0
   -4.8080   56.8980   76.0260 O   0  0  0  0  0  0  0  0  0  0  0  0
   -2.7789   61.6767   76.4640 H   0  0  0  0  0  0  0  0  0  0  0  0
   -0.3610   60.2296   77.2721 H   0  0  0  0  0  0  0  0  0  0  0  0
   -1.7527   59.9457   79.7000 H   0  0  0  0  0  0  0  0  0  0  0  0
   -0.1375   60.6822   79.4254 H   0  0  0  0  0  0  0  0  0  0  0  0
   -1.6072   61.7149   79.4254 H   0  0  0  0  0  0  0  0  0  0  0  0
   -2.7736   59.4616   76.3395 H   0  0  0  0  0  0  0  0  0  0  0  0
   -0.6549   58.1593   77.9324 H   0  0  0  0  0  0  0  0  0  0  0  0
   -2.2010   56.9815   79.2039 H   0  0  0  0  0  0  0  0  0  0  0  0
   -3.3628   56.8242   77.8429 H   0  0  0  0  0  0  0  0  0  0  0  0
   -1.8442   55.8647   77.8429 H   0  0  0  0  0  0  0  0  0  0  0  0
   -0.2980   56.9551   73.6558 H   0  0  0  0  0  0  0  0  0  0  0  0
    1.2770   58.3121   72.8663 H   0  0  0  0  0  0  0  0  0  0  0  0
    1.1804   59.0206   75.3097 H   0  0  0  0  0  0  0  0  0  0  0  0
   -0.2560   59.8658   72.8703 H   0  0  0  0  0  0  0  0  0  0  0  0
   -1.8940   60.7499   74.2383 H   0  0  0  0  0  0  0  0  0  0  0  0
   -0.4930   60.0216   75.2671 H   0  0  0  0  0  0  0  0  0  0  0  0
    0.6304   62.5310   77.0814 H   0  0  0  0  0  0  0  0  0  0  0  0
    1.2987   61.8008   75.5824 H   0  0  0  0  0  0  0  0  0  0  0  0
    0.7552   63.5129   75.5824 H   0  0  0  0  0  0  0  0  0  0  0  0
   -0.2358   62.8765   73.0368 H   0  0  0  0  0  0  0  0  0  0  0  0
    0.7929   62.0486   71.8189 H   0  0  0  0  0  0  0  0  0  0  0  0
   -0.9846   61.7889   71.8189 H   0  0  0  0  0  0  0  0  0  0  0  0
    2.9943   59.5526   76.4440 H   0  0  0  0  0  0  0  0  0  0  0  0
    3.9965   58.8737   75.1169 H   0  0  0  0  0  0  0  0  0  0  0  0
    3.5686   60.6183   75.1169 H   0  0  0  0  0  0  0  0  0  0  0  0
    2.1430   56.5040   76.2821 H   0  0  0  0  0  0  0  0  0  0  0  0
    2.8909   55.2072   75.2894 H   0  0  0  0  0  0  0  0  0  0  0  0
    3.5974   56.8587   75.2894 H   0  0  0  0  0  0  0  0  0  0  0  0
   -1.2516   54.9368   74.1964 H   0  0  0  0  0  0  0  0  0  0  0  0
    0.4810   54.4160   73.9380 H   0  0  0  0  0  0  0  0  0  0  0  0
   -0.2360   55.2227   76.7026 H   0  0  0  0  0  0  0  0  0  0  0  0
   -0.9964   53.7109   76.1003 H   0  0  0  0  0  0  0  0  0  0  0  0
    0.7921   53.8784   76.1003 H   0  0  0  0  0  0  0  0  0  0  0  0
   -1.8178   63.8033   75.4586 H   0  0  0  0  0  0  0  0  0  0  0  0
    4.0688   58.0387   73.7539 H   0  0  0  0  0  0  0  0  0  0  0  0
    2.4626   54.9242   73.4559 H   0  0  0  0  0  0  0  0  0  0  0  0
   -3.5816   63.0633   76.0037 H   0  0  0  0  0  0  0  0  0  0  0  0
   -2.8031   64.4716   78.6622 H   0  0  0  0  0  0  0  0  0  0  0  0
   -4.8876   64.2146   79.6476 H   0  0  0  0  0  0  0  0  0  0  0  0
   -5.9674   62.3735   77.4564 H   0  0  0  0  0  0  0  0  0  0  0  0
   -6.7893   63.8173   78.1526 H   0  0  0  0  0  0  0  0  0  0  0  0
   -5.0806   65.2831   77.3280 H   0  0  0  0  0  0  0  0  0  0  0  0
   -5.4334   62.6096   81.1937 H   0  0  0  0  0  0  0  0  0  0  0  0
   -6.7529   62.3057   80.0134 H   0  0  0  0  0  0  0  0  0  0  0  0
   -5.2902   61.2631   80.0134 H   0  0  0  0  0  0  0  0  0  0  0  0
   -5.1171   64.5816   74.9048 H   0  0  0  0  0  0  0  0  0  0  0  0
   -7.2482   65.5893   76.5234 H   0  0  0  0  0  0  0  0  0  0  0  0
   -6.5913   66.2046   74.9689 H   0  0  0  0  0  0  0  0  0  0  0  0
   -7.8189   64.8932   74.9689 H   0  0  0  0  0  0  0  0  0  0  0  0
   -6.5388   62.2793   75.8532 H   0  0  0  0  0  0  0  0  0  0  0  0
   -7.2096   63.0971   74.4014 H   0  0  0  0  0  0  0  0  0  0  0  0
   -5.5087   62.5195   74.4014 H   0  0  0  0  0  0  0  0  0  0  0  0
   -4.7269   67.5126   79.0645 H   0  0  0  0  0  0  0  0  0  0  0  0
   -4.7389   68.5032   77.5661 H   0  0  0  0  0  0  0  0  0  0  0  0
   -5.4772   66.8657   77.5661 H   0  0  0  0  0  0  0  0  0  0  0  0
   -2.5634   67.6737   77.5585 H   0  0  0  0  0  0  0  0  0  0  0  0
   -3.0733   66.0893   78.2797 H   0  0  0  0  0  0  0  0  0  0  0  0
   -4.7226   60.8673   78.1769 H   0  0  0  0  0  0  0  0  0  0  0  0
   -4.8866   57.1835   78.3125 H   0  0  0  0  0  0  0  0  0  0  0  0
   -6.8950   57.1802   79.8454 H   0  0  0  0  0  0  0  0  0  0  0  0
   -7.9305   57.6656   78.4601 H   0  0  0  0  0  0  0  0  0  0  0  0
   -7.1250   56.0600   78.4601 H   0  0  0  0  0  0  0  0  0  0  0  0
   -6.8956   57.1027   76.2999 H   0  0  0  0  0  0  0  0  0  0  0  0
   -4.9488   60.8716   76.0262 H   0  0  0  0  0  0  0  0  0  0  0  0
   -3.9046   59.3747   75.9299 H   0  0  0  0  0  0  0  0  0  0  0  0
   -7.4940   59.8364   77.1830 H   0  0  0  0  0  0  0  0  0  0  0  0
   -7.2830   60.7478   75.6496 H   0  0  0  0  0  0  0  0  0  0  0  0
   -8.1617   59.1811   75.6496 H   0  0  0  0  0  0  0  0  0  0  0  0
   -7.3612   60.1640   74.1403 H   0  0  0  0  0  0  0  0  0  0  0  0
   -6.0548   60.2499   72.9105 H   0  0  0  0  0  0  0  0  0  0  0  0
   -7.1986   58.8649   72.9105 H   0  0  0  0  0  0  0  0  0  0  0  0
   -4.2723   56.5601   76.7869 H   0  0  0  0  0  0  0  0  0  0  0  0
  2  1  1  0
  3  2  1  0
  4  2  1  0
  5  4  1  0
  6  5  1  0
  7  5  1  0
  8  7  2  0
  9  7  1  0
 10  9  1  0
 11 10  1  0
 12 11  1  0
 13 12  1  0
 14 13  1  0
 15 14  2  0
 16 14  1  0
 17 16  1  0
 18 17  1  0
 18  1  1  0
 19 18  1  0
 20 16  1  0
 21 13  1  0
 22 11  1  0
 23 10  1  0
 24 23  1  0
 18 25  1  6
 26 12  1  0
 11 27  1  6
 28  1  1  0
 30 29  1  0
 30 28  1  0
 31 30  1  0
 32 31  1  0
 33 32  1  0
 34 33  1  0
 34 29  1  0
 35 32  1  0
 36 34  1  0
 37 36  1  0
 38 36  1  0
 39 29  1  0
 40 39  1  0
 41 40  2  0
 43 42  1  0
 43 40  1  0
 44  4  1  0
 45 44  1  0
 46 45  1  0
 47 46  1  0
 48 47  1  0
 49 47  1  0
 50 49  1  0
 51 45  1  0
 51 50  1  0
 52 50  1  0
 50 53  1  6
 54 53  1  0
 55 49  1  0
  1 56  1  6
  2 57  1  6
  3 58  1  0
  3 59  1  0
  3 60  1  0
  4 61  1  6
  5 62  1  1
  6 63  1  0
  6 64  1  0
  6 65  1  0
 10 66  1  6
 12 67  1  6
 13 68  1  1
 16 69  1  6
 17 70  1  0
 17 71  1  0
 19 72  1  0
 19 73  1  0
 19 74  1  0
 20 75  1  0
 20 76  1  0
 20 77  1  0
 21 78  1  0
 21 79  1  0
 21 80  1  0
 22 81  1  0
 22 82  1  0
 22 83  1  0
 23 84  1  0
 23 85  1  0
 24 86  1  0
 24 87  1  0
 24 88  1  0
 25 89  1  0
 26 90  1  0
 27 91  1  0
 29 92  1  6
 30 93  1  1
 32 94  1  1
 33 95  1  0
 33 96  1  0
 34 97  1  1
 35 98  1  0
 35 99  1  0
 35100  1  0
 36101  1  0
 37102  1  0
 37103  1  0
 37104  1  0
 38105  1  0
 38106  1  0
 38107  1  0
 42108  1  0
 42109  1  0
 42110  1  0
 43111  1  0
 43112  1  0
 45113  1  1
 47114  1  1
 48115  1  0
 48116  1  0
 48117  1  0
 49118  1  1
 51119  1  0
 51120  1  0
 52121  1  0
 52122  1  0
 52123  1  0
 54124  1  0
 54125  1  0
 54126  1  0
 55127  1  0
M  CHG  1  36   1
M  END
>  <score>  (4) 
-6.174

$$$$
=
     RDKit          3D

127129  0  0  0  0  0  0  0  0999 V2000
   -1.0660   60.3170   74.8730 C   0  0  2  0  0  0  0  0  0  0  0  0
   -1.4320   58.8020   75.0930 C   0  0  1  0  0  0  0  0  0  0  0  0
   -0.8080   57.8580   74.0530 C   0  0  0  0  0  0  0  0  0  0  0  0
   -1.1010   58.3320   76.5550 C   0  0  1  0  0  0  0  0  0  0  0  0
   -2.1350   57.2640   77.0310 C   0  0  1  0  0  0  0  0  0  0  0  0
   -1.5430   56.0560   77.7540 C   0  0  0  0  0  0  0  0  0  0  0  0
   -3.1190   57.9260   77.9790 C   0  0  0  0  0  0  0  0  0  0  0  0
   -2.7970   58.6720   78.8950 O   0  0  0  0  0  0  0  0  0  0  0  0
   -4.4040   57.6000   77.6620 O   0  0  0  0  0  0  0  0  0  0  0  0
   -5.4260   58.0510   78.5920 C   0  0  1  0  0  0  0  0  0  0  0  0
   -6.7930   58.2090   77.8390 C   0  0  1  0  0  0  0  0  0  0  0  0
   -6.8710   59.5540   77.0320 C   0  0  1  0  0  0  0  0  0  0  0  0
   -5.9640   59.7040   75.7940 C   0  0  2  0  0  0  0  0  0  0  0  0
   -5.6350   61.1970   75.6230 C   0  0  0  0  0  0  0  0  0  0  0  0
   -6.3480   61.9050   74.9070 O   0  0  0  0  0  0  0  0  0  0  0  0
   -4.4770   61.8040   76.4370 C   0  0  1  0  0  0  0  0  0  0  0  0
   -3.1150   61.1070   76.2370 C   0  0  0  0  0  0  0  0  0  0  0  0
   -2.3280   61.2770   74.9110 C   0  0  2  0  0  0  0  0  0  0  0  0
   -3.1860   61.1010   73.6520 C   0  0  0  0  0  0  0  0  0  0  0  0
   -4.4050   63.3210   76.2590 C   0  0  0  0  0  0  0  0  0  0  0  0
   -6.5710   59.1770   74.4870 C   0  0  0  0  0  0  0  0  0  0  0  0
   -7.1270   56.9800   76.9840 C   0  0  0  0  0  0  0  0  0  0  0  0
   -5.4580   57.0430   79.7670 C   0  0  0  0  0  0  0  0  0  0  0  0
   -5.0930   55.6220   79.3610 C   0  0  0  0  0  0  0  0  0  0  0  0
   -1.8410   62.6260   74.9180 O   0  0  0  0  0  0  0  0  0  0  0  0
   -8.2550   59.7500   76.6650 O   0  0  0  0  0  0  0  0  0  0  0  0
   -7.8530   58.3110   78.8150 O   0  0  0  0  0  0  0  0  0  0  0  0
   -0.3720   60.4330   73.6170 O   0  0  0  0  0  0  0  0  0  0  0  0
    1.7580   60.9300   72.6630 C   0  0  1  0  0  0  0  0  0  0  0  0
    0.6000   61.4770   73.5300 C   0  0  1  0  0  0  0  0  0  0  0  0
   -0.0030   62.6170   72.9310 O   0  0  0  0  0  0  0  0  0  0  0  0
    0.8990   63.7160   72.8230 C   0  0  1  0  0  0  0  0  0  0  0  0
    1.9450   63.3500   71.7790 C   0  0  0  0  0  0  0  0  0  0  0  0
    2.6910   62.0810   72.2020 C   0  0  2  0  0  0  0  0  0  0  0  0
    0.0990   64.9400   72.4010 C   0  0  0  0  0  0  0  0  0  0  0  0
    3.6460   61.6310   71.0700 N   0  0  0  0  0  4  0  0  0  0  0  0
    4.9380   62.3940   71.0290 C   0  0  0  0  0  0  0  0  0  0  0  0
    3.0440   61.4770   69.6970 C   0  0  0  0  0  0  0  0  0  0  0  0
    2.4510   59.9690   73.5170 O   0  0  0  0  0  0  0  0  0  0  0  0
    3.3230   59.1050   72.9420 C   0  0  0  0  0  0  0  0  0  0  0  0
    4.5340   59.1800   73.1110 O   0  0  0  0  0  0  0  0  0  0  0  0
    3.2850   57.7260   70.8530 C   0  0  0  0  0  0  0  0  0  0  0  0
    2.5920   58.0430   72.1660 C   0  0  0  0  0  0  0  0  0  0  0  0
    0.2220   57.7790   76.6020 O   0  0  0  0  0  0  0  0  0  0  0  0
    0.8850   57.8390   77.8610 C   0  0  2  0  0  0  0  0  0  0  0  0
    1.0700   59.2050   78.2400 O   0  0  0  0  0  0  0  0  0  0  0  0
    2.0250   59.8910   77.4160 C   0  0  1  0  0  0  0  0  0  0  0  0
    2.1810   61.2910   77.9990 C   0  0  0  0  0  0  0  0  0  0  0  0
    3.3900   59.1690   77.3630 C   0  0  1  0  0  0  0  0  0  0  0  0
    3.4250   57.9030   78.2500 C   0  0  2  0  0  0  0  0  0  0  0  0
    2.1970   57.0460   77.8960 C   0  0  0  0  0  0  0  0  0  0  0  0
    3.4440   58.2280   79.7550 C   0  0  0  0  0  0  0  0  0  0  0  0
    4.5670   57.0830   77.8970 O   0  0  0  0  0  0  0  0  0  0  0  0
    5.4450   56.7050   78.9510 C   0  0  0  0  0  0  0  0  0  0  0  0
    3.6340   58.7850   75.9960 O   0  0  0  0  0  0  0  0  0  0  0  0
   -0.4245   60.6420   75.7054 H   0  0  0  0  0  0  0  0  0  0  0  0
   -2.5204   58.7391   74.9466 H   0  0  0  0  0  0  0  0  0  0  0  0
   -0.2721   57.0474   74.5685 H   0  0  0  0  0  0  0  0  0  0  0  0
   -1.6019   57.4302   73.4231 H   0  0  0  0  0  0  0  0  0  0  0  0
   -0.1034   58.4208   73.4231 H   0  0  0  0  0  0  0  0  0  0  0  0
   -1.1564   59.2027   77.2250 H   0  0  0  0  0  0  0  0  0  0  0  0
   -2.6015   56.8819   76.1110 H   0  0  0  0  0  0  0  0  0  0  0  0
   -1.6169   56.2068   78.8411 H   0  0  0  0  0  0  0  0  0  0  0  0
   -2.0993   55.1503   77.4708 H   0  0  0  0  0  0  0  0  0  0  0  0
   -0.4863   55.9408   77.4708 H   0  0  0  0  0  0  0  0  0  0  0  0
   -5.2076   59.0452   79.0091 H   0  0  0  0  0  0  0  0  0  0  0  0
   -6.4742   60.3277   77.7057 H   0  0  0  0  0  0  0  0  0  0  0  0
   -5.0708   59.0894   75.9797 H   0  0  0  0  0  0  0  0  0  0  0  0
   -4.7192   61.6049   77.4914 H   0  0  0  0  0  0  0  0  0  0  0  0
   -2.4567   61.4659   77.0418 H   0  0  0  0  0  0  0  0  0  0  0  0
   -3.3831   60.0402   76.2292 H   0  0  0  0  0  0  0  0  0  0  0  0
   -4.2251   60.8879   73.9433 H   0  0  0  0  0  0  0  0  0  0  0  0
   -3.1546   62.0243   73.0549 H   0  0  0  0  0  0  0  0  0  0  0  0
   -2.7937   60.2646   73.0549 H   0  0  0  0  0  0  0  0  0  0  0  0
   -4.3820   63.8054   77.2464 H   0  0  0  0  0  0  0  0  0  0  0  0
   -3.4935   63.5819   75.7013 H   0  0  0  0  0  0  0  0  0  0  0  0
   -5.2877   63.6671   75.7013 H   0  0  0  0  0  0  0  0  0  0  0  0
   -7.3831   58.4719   74.7180 H   0  0  0  0  0  0  0  0  0  0  0  0
   -6.9713   60.0188   73.9030 H   0  0  0  0  0  0  0  0  0  0  0  0
   -5.7937   58.6624   73.9030 H   0  0  0  0  0  0  0  0  0  0  0  0
   -7.3584   56.1284   77.6407 H   0  0  0  0  0  0  0  0  0  0  0  0
   -7.9977   57.2007   76.3491 H   0  0  0  0  0  0  0  0  0  0  0  0
   -6.2643   56.7296   76.3491 H   0  0  0  0  0  0  0  0  0  0  0  0
   -4.7446   57.3798   80.5336 H   0  0  0  0  0  0  0  0  0  0  0  0
   -6.4922   57.0161   80.1409 H   0  0  0  0  0  0  0  0  0  0  0  0
   -4.9363   55.0118   80.2627 H   0  0  0  0  0  0  0  0  0  0  0  0
   -5.9094   55.1902   78.7634 H   0  0  0  0  0  0  0  0  0  0  0  0
   -4.1696   55.6371   78.7634 H   0  0  0  0  0  0  0  0  0  0  0  0
   -1.7305   62.9321   75.8530 H   0  0  0  0  0  0  0  0  0  0  0  0
   -8.8057   59.8280   77.4840 H   0  0  0  0  0  0  0  0  0  0  0  0
   -7.4674   58.2739   79.7261 H   0  0  0  0  0  0  0  0  0  0  0  0
    1.4015   60.4530   71.7381 H   0  0  0  0  0  0  0  0  0  0  0  0
    0.9808   61.7797   74.5166 H   0  0  0  0  0  0  0  0  0  0  0  0
    1.4044   63.9379   73.7745 H   0  0  0  0  0  0  0  0  0  0  0  0
    1.4489   63.1752   70.8129 H   0  0  0  0  0  0  0  0  0  0  0  0
    2.6651   64.1764   71.6865 H   0  0  0  0  0  0  0  0  0  0  0  0
    3.2825   62.3369   73.0934 H   0  0  0  0  0  0  0  0  0  0  0  0
   -0.2511   65.4756   73.2958 H   0  0  0  0  0  0  0  0  0  0  0  0
    0.7367   65.6059   71.8011 H   0  0  0  0  0  0  0  0  0  0  0  0
   -0.7669   64.6232   71.8011 H   0  0  0  0  0  0  0  0  0  0  0  0
    3.8617   60.6655   71.3568 H   0  0  0  0  0  0  0  0  0  0  0  0
    5.2780   62.5948   72.0557 H   0  0  0  0  0  0  0  0  0  0  0  0
    5.6981   61.7998   70.5006 H   0  0  0  0  0  0  0  0  0  0  0  0
    4.7847   63.3465   70.5006 H   0  0  0  0  0  0  0  0  0  0  0  0
    1.9822   61.2054   69.7906 H   0  0  0  0  0  0  0  0  0  0  0  0
    3.1326   62.4267   69.1491 H   0  0  0  0  0  0  0  0  0  0  0  0
    3.5778   60.6865   69.1491 H   0  0  0  0  0  0  0  0  0  0  0  0
    4.2681   57.2763   71.0565 H   0  0  0  0  0  0  0  0  0  0  0  0
    2.6709   57.0192   70.2756 H   0  0  0  0  0  0  0  0  0  0  0  0
    3.4181   58.6527   70.2756 H   0  0  0  0  0  0  0  0  0  0  0  0
    1.5719   58.3957   71.9540 H   0  0  0  0  0  0  0  0  0  0  0  0
    2.5753   57.1262   72.7737 H   0  0  0  0  0  0  0  0  0  0  0  0
    0.2389   57.3462   78.6024 H   0  0  0  0  0  0  0  0  0  0  0  0
    1.6638   59.9211   76.3774 H   0  0  0  0  0  0  0  0  0  0  0  0
    2.1746   61.2336   79.0975 H   0  0  0  0  0  0  0  0  0  0  0  0
    3.1331   61.7253   77.6601 H   0  0  0  0  0  0  0  0  0  0  0  0
    1.3479   61.9243   77.6601 H   0  0  0  0  0  0  0  0  0  0  0  0
    4.1598   59.8571   77.7425 H   0  0  0  0  0  0  0  0  0  0  0  0
    2.1013   56.2482   78.6473 H   0  0  0  0  0  0  0  0  0  0  0  0
    2.3614   56.6492   76.8833 H   0  0  0  0  0  0  0  0  0  0  0  0
    3.3894   57.2935   80.3326 H   0  0  0  0  0  0  0  0  0  0  0  0
    4.3747   58.7589   80.0037 H   0  0  0  0  0  0  0  0  0  0  0  0
    2.5815   58.8638   80.0037 H   0  0  0  0  0  0  0  0  0  0  0  0
    4.9657   56.9114   79.9193 H   0  0  0  0  0  0  0  0  0  0  0  0
    5.6689   55.6308   78.8742 H   0  0  0  0  0  0  0  0  0  0  0  0
    6.3792   57.2806   78.8742 H   0  0  0  0  0  0  0  0  0  0  0  0
    4.1649   57.9496   75.9776 H   0  0  0  0  0  0  0  0  0  0  0  0
  2  1  1  0
  3  2  1  0
  4  2  1  0
  5  4  1  0
  6  5  1  0
  7  5  1  0
  8  7  2  0
  9  7  1  0
 10  9  1  0
 11 10  1  0
 12 11  1  0
 13 12  1  0
 14 13  1  0
 15 14  2  0
 16 14  1  0
 17 16  1  0
 18 17  1  0
 18  1  1  0
 19 18  1  0
 20 16  1  0
 21 13  1  0
 22 11  1  0
 23 10  1  0
 24 23  1  0
 18 25  1  1
 26 12  1  0
 11 27  1  1
 28  1  1  0
 30 29  1  0
 30 28  1  0
 31 30  1  0
 32 31  1  0
 33 32  1  0
 34 33  1  0
 34 29  1  0
 35 32  1  0
 36 34  1  0
 37 36  1  0
 38 36  1  0
 39 29  1  0
 40 39  1  0
 41 40  2  0
 43 42  1  0
 43 40  1  0
 44  4  1  0
 45 44  1  0
 46 45  1  0
 47 46  1  0
 48 47  1  0
 49 47  1  0
 50 49  1  0
 51 45  1  0
 51 50  1  0
 52 50  1  0
 50 53  1  6
 54 53  1  0
 55 49  1  0
  1 56  1  1
  2 57  1  1
  3 58  1  0
  3 59  1  0
  3 60  1  0
  4 61  1  1
  5 62  1  6
  6 63  1  0
  6 64  1  0
  6 65  1  0
 10 66  1  1
 12 67  1  1
 13 68  1  1
 16 69  1  1
 17 70  1  0
 17 71  1  0
 19 72  1  0
 19 73  1  0
 19 74  1  0
 20 75  1  0
 20 76  1  0
 20 77  1  0
 21 78  1  0
 21 79  1  0
 21 80  1  0
 22 81  1  0
 22 82  1  0
 22 83  1  0
 23 84  1  0
 23 85  1  0
 24 86  1  0
 24 87  1  0
 24 88  1  0
 25 89  1  0
 26 90  1  0
 27 91  1  0
 29 92  1  6
 30 93  1  1
 32 94  1  1
 33 95  1  0
 33 96  1  0
 34 97  1  1
 35 98  1  0
 35 99  1  0
 35100  1  0
 36101  1  0
 37102  1  0
 37103  1  0
 37104  1  0
 38105  1  0
 38106  1  0
 38107  1  0
 42108  1  0
 42109  1  0
 42110  1  0
 43111  1  0
 43112  1  0
 45113  1  1
 47114  1  6
 48115  1  0
 48116  1  0
 48117  1  0
 49118  1  1
 51119  1  0
 51120  1  0
 52121  1  0
 52122  1  0
 52123  1  0
 54124  1  0
 54125  1  0
 54126  1  0
 55127  1  0
M  CHG  1  36   1
M  END
>  <score>  (5) 
-6.041

$$$$
=
     RDKit          3D

127129  0  0  0  0  0  0  0  0999 V2000
   -2.1190   61.4130   76.9710 C   0  0  2  0  0  0  0  0  0  0  0  0
   -1.5980   60.2010   77.8280 C   0  0  1  0  0  0  0  0  0  0  0  0
   -1.4900   60.5070   79.3310 C   0  0  0  0  0  0  0  0  0  0  0  0
   -2.4490   58.9040   77.5740 C   0  0  1  0  0  0  0  0  0  0  0  0
   -1.5490   57.6340   77.6810 C   0  0  1  0  0  0  0  0  0  0  0  0
   -2.1500   56.4700   78.4660 C   0  0  0  0  0  0  0  0  0  0  0  0
   -1.2460   57.1310   76.2800 C   0  0  0  0  0  0  0  0  0  0  0  0
   -2.0840   57.0090   75.3960 O   0  0  0  0  0  0  0  0  0  0  0  0
    0.0810   56.8580   76.1320 O   0  0  0  0  0  0  0  0  0  0  0  0
    0.4680   56.2250   74.8820 C   0  0  1  0  0  0  0  0  0  0  0  0
    1.9650   56.5610   74.5590 C   0  0  1  0  0  0  0  0  0  0  0  0
    2.1290   57.9940   73.9370 C   0  0  1  0  0  0  0  0  0  0  0  0
    1.8620   59.2090   74.8470 C   0  0  2  0  0  0  0  0  0  0  0  0
    1.3570   60.3640   73.9650 C   0  0  0  0  0  0  0  0  0  0  0  0
    2.1590   61.1750   73.4970 O   0  0  0  0  0  0  0  0  0  0  0  0
   -0.1380   60.4220   73.5970 C   0  0  1  0  0  0  0  0  0  0  0  0
   -1.0980   60.4410   74.8040 C   0  0  0  0  0  0  0  0  0  0  0  0
   -1.2250   61.7050   75.6940 C   0  0  2  0  0  0  0  0  0  0  0  0
    0.1220   62.3180   76.0970 C   0  0  0  0  0  0  0  0  0  0  0  0
   -0.4210   61.5370   72.5890 C   0  0  0  0  0  0  0  0  0  0  0  0
    3.0810   59.6920   75.6460 C   0  0  0  0  0  0  0  0  0  0  0  0
    2.8820   56.3280   75.7670 C   0  0  0  0  0  0  0  0  0  0  0  0
    0.1690   54.7120   75.0180 C   0  0  0  0  0  0  0  0  0  0  0  0
   -0.6480   54.1460   73.8650 C   0  0  0  0  0  0  0  0  0  0  0  0
   -1.9200   62.6740   74.8950 O   0  0  0  0  0  0  0  0  0  0  0  0
    3.4600   58.0670   73.3820 O   0  0  0  0  0  0  0  0  0  0  0  0
    2.4320   55.6630   73.5290 O   0  0  0  0  0  0  0  0  0  0  0  0
   -2.1850   62.5710   77.8250 O   0  0  0  0  0  0  0  0  0  0  0  0
   -3.3000   64.4650   78.7540 C   0  0  1  0  0  0  0  0  0  0  0  0
   -3.4930   63.0800   78.0940 C   0  0  1  0  0  0  0  0  0  0  0  0
   -4.2060   63.1830   76.8680 O   0  0  0  0  0  0  0  0  0  0  0  0
   -5.5350   63.6680   77.0520 C   0  0  1  0  0  0  0  0  0  0  0  0
   -5.4360   65.1310   77.4620 C   0  0  0  0  0  0  0  0  0  0  0  0
   -4.6320   65.2610   78.7600 C   0  0  2  0  0  0  0  0  0  0  0  0
   -6.2770   63.5130   75.7330 C   0  0  0  0  0  0  0  0  0  0  0  0
   -4.4080   66.7570   79.0910 N   0  0  0  0  0  4  0  0  0  0  0  0
   -5.6720   67.5040   79.4010 C   0  0  0  0  0  0  0  0  0  0  0  0
   -3.5160   67.5320   78.1560 C   0  0  0  0  0  0  0  0  0  0  0  0
   -2.8240   64.1800   80.1050 O   0  0  0  0  0  0  0  0  0  0  0  0
   -1.7010   64.8010   80.5390 C   0  0  0  0  0  0  0  0  0  0  0  0
   -1.6560   66.0050   80.7620 O   0  0  0  0  0  0  0  0  0  0  0  0
    0.4810   63.9040   79.7000 C   0  0  0  0  0  0  0  0  0  0  0  0
   -0.5940   63.8070   80.7680 C   0  0  0  0  0  0  0  0  0  0  0  0
   -3.5150   58.8250   78.5320 O   0  0  0  0  0  0  0  0  0  0  0  0
   -4.7610   59.3880   78.1350 C   0  0  2  0  0  0  0  0  0  0  0  0
   -5.8300   58.5710   78.6170 O   0  0  0  0  0  0  0  0  0  0  0  0
   -5.9040   57.2970   77.9580 C   0  0  1  0  0  0  0  0  0  0  0  0
   -7.1380   56.5900   78.5100 C   0  0  0  0  0  0  0  0  0  0  0  0
   -5.9930   57.4290   76.4220 C   0  0  1  0  0  0  0  0  0  0  0  0
   -6.0330   58.9020   75.9550 C   0  0  2  0  0  0  0  0  0  0  0  0
   -4.8620   59.6400   76.6250 C   0  0  0  0  0  0  0  0  0  0  0  0
   -7.3690   59.5960   76.2800 C   0  0  0  0  0  0  0  0  0  0  0  0
   -5.7580   58.9780   74.5330 O   0  0  0  0  0  0  0  0  0  0  0  0
   -6.1340   60.1750   73.8630 C   0  0  0  0  0  0  0  0  0  0  0  0
   -4.8300   56.7930   75.8560 O   0  0  0  0  0  0  0  0  0  0  0  0
   -3.1153   61.1576   76.5809 H   0  0  0  0  0  0  0  0  0  0  0  0
   -0.5707   60.0162   77.4808 H   0  0  0  0  0  0  0  0  0  0  0  0
   -1.8016   59.6240   79.9083 H   0  0  0  0  0  0  0  0  0  0  0  0
   -0.4486   60.7590   79.5800 H   0  0  0  0  0  0  0  0  0  0  0  0
   -2.1425   61.3569   79.5800 H   0  0  0  0  0  0  0  0  0  0  0  0
   -2.8732   58.9536   76.5603 H   0  0  0  0  0  0  0  0  0  0  0  0
   -0.6550   57.9579   78.2340 H   0  0  0  0  0  0  0  0  0  0  0  0
   -2.0497   56.6642   79.5441 H   0  0  0  0  0  0  0  0  0  0  0  0
   -3.2146   56.3657   78.2097 H   0  0  0  0  0  0  0  0  0  0  0  0
   -1.6185   55.5416   78.2097 H   0  0  0  0  0  0  0  0  0  0  0  0
   -0.1055   56.6041   74.0233 H   0  0  0  0  0  0  0  0  0  0  0  0
    1.3281   58.0853   73.1885 H   0  0  0  0  0  0  0  0  0  0  0  0
    1.1207   58.8876   75.5935 H   0  0  0  0  0  0  0  0  0  0  0  0
   -0.3597   59.4641   73.1037 H   0  0  0  0  0  0  0  0  0  0  0  0
   -2.1033   60.2321   74.4094 H   0  0  0  0  0  0  0  0  0  0  0  0
   -0.6491   59.7043   75.4864 H   0  0  0  0  0  0  0  0  0  0  0  0
    0.1960   62.3517   77.1940 H   0  0  0  0  0  0  0  0  0  0  0  0
    0.9400   61.7035   75.6930 H   0  0  0  0  0  0  0  0  0  0  0  0
    0.1960   63.3385   75.6930 H   0  0  0  0  0  0  0  0  0  0  0  0
   -0.6570   62.4668   73.1274 H   0  0  0  0  0  0  0  0  0  0  0  0
    0.4658   61.6940   71.9573 H   0  0  0  0  0  0  0  0  0  0  0  0
   -1.2753   61.2521   71.9573 H   0  0  0  0  0  0  0  0  0  0  0  0
    2.8704   59.6085   76.7224 H   0  0  0  0  0  0  0  0  0  0  0  0
    3.9538   59.0717   75.3940 H   0  0  0  0  0  0  0  0  0  0  0  0
    3.2921   60.7417   75.3940 H   0  0  0  0  0  0  0  0  0  0  0  0
    2.3098   56.4734   76.6951 H   0  0  0  0  0  0  0  0  0  0  0  0
    3.2756   55.3013   75.7359 H   0  0  0  0  0  0  0  0  0  0  0  0
    3.7180   57.0423   75.7359 H   0  0  0  0  0  0  0  0  0  0  0  0
    1.1258   54.1713   75.0645 H   0  0  0  0  0  0  0  0  0  0  0  0
   -0.4298   54.5825   75.9316 H   0  0  0  0  0  0  0  0  0  0  0  0
   -1.4905   53.5623   74.2644 H   0  0  0  0  0  0  0  0  0  0  0  0
   -1.0334   54.9716   73.2487 H   0  0  0  0  0  0  0  0  0  0  0  0
   -0.0105   53.4950   73.2487 H   0  0  0  0  0  0  0  0  0  0  0  0
   -2.3826   63.3190   75.4867 H   0  0  0  0  0  0  0  0  0  0  0  0
    4.1224   58.1033   74.1168 H   0  0  0  0  0  0  0  0  0  0  0  0
    2.8459   54.8672   73.9478 H   0  0  0  0  0  0  0  0  0  0  0  0
   -2.5834   65.0950   78.2066 H   0  0  0  0  0  0  0  0  0  0  0  0
   -4.0703   62.4242   78.7623 H   0  0  0  0  0  0  0  0  0  0  0  0
   -6.0796   63.1125   77.8298 H   0  0  0  0  0  0  0  0  0  0  0  0
   -4.9342   65.6991   76.6648 H   0  0  0  0  0  0  0  0  0  0  0  0
   -6.4487   65.5286   77.6245 H   0  0  0  0  0  0  0  0  0  0  0  0
   -5.2315   64.7994   79.5585 H   0  0  0  0  0  0  0  0  0  0  0  0
   -7.3360   63.2918   75.9318 H   0  0  0  0  0  0  0  0  0  0  0  0
   -6.1994   64.4467   75.1567 H   0  0  0  0  0  0  0  0  0  0  0  0
   -5.8321   62.6884   75.1567 H   0  0  0  0  0  0  0  0  0  0  0  0
   -3.8605   66.6932   79.9611 H   0  0  0  0  0  0  0  0  0  0  0  0
   -5.7964   67.5775   80.4915 H   0  0  0  0  0  0  0  0  0  0  0  0
   -5.6161   68.5142   78.9694 H   0  0  0  0  0  0  0  0  0  0  0  0
   -6.5300   66.9678   78.9694 H   0  0  0  0  0  0  0  0  0  0  0  0
   -2.8132   68.1427   78.7418 H   0  0  0  0  0  0  0  0  0  0  0  0
   -2.9528   66.8316   77.5218 H   0  0  0  0  0  0  0  0  0  0  0  0
   -4.1309   68.1875   77.5218 H   0  0  0  0  0  0  0  0  0  0  0  0
    1.4671   63.9930   80.1793 H   0  0  0  0  0  0  0  0  0  0  0  0
    0.4581   63.0001   79.0735 H   0  0  0  0  0  0  0  0  0  0  0  0
    0.2966   64.7892   79.0735 H   0  0  0  0  0  0  0  0  0  0  0  0
   -1.0183   62.7922   80.7549 H   0  0  0  0  0  0  0  0  0  0  0  0
   -0.1307   64.0294   81.7406 H   0  0  0  0  0  0  0  0  0  0  0  0
   -4.8372   60.3855   78.5924 H   0  0  0  0  0  0  0  0  0  0  0  0
   -4.9860   56.7236   78.1540 H   0  0  0  0  0  0  0  0  0  0  0  0
   -7.1090   56.6066   79.6095 H   0  0  0  0  0  0  0  0  0  0  0  0
   -8.0439   57.1061   78.1593 H   0  0  0  0  0  0  0  0  0  0  0  0
   -7.1509   55.5475   78.1593 H   0  0  0  0  0  0  0  0  0  0  0  0
   -6.9273   56.9542   76.0879 H   0  0  0  0  0  0  0  0  0  0  0  0
   -4.9917   60.7199   76.4605 H   0  0  0  0  0  0  0  0  0  0  0  0
   -3.9365   59.2560   76.1711 H   0  0  0  0  0  0  0  0  0  0  0  0
   -7.4929   59.6603   77.3711 H   0  0  0  0  0  0  0  0  0  0  0  0
   -7.3701   60.6087   75.8505 H   0  0  0  0  0  0  0  0  0  0  0  0
   -8.1982   59.0146   75.8505 H   0  0  0  0  0  0  0  0  0  0  0  0
   -6.3773   60.9496   74.6051 H   0  0  0  0  0  0  0  0  0  0  0  0
   -5.3009   60.5197   73.2329 H   0  0  0  0  0  0  0  0  0  0  0  0
   -7.0146   59.9814   73.2329 H   0  0  0  0  0  0  0  0  0  0  0  0
   -4.2421   56.4715   76.5848 H   0  0  0  0  0  0  0  0  0  0  0  0
  2  1  1  0
  3  2  1  0
  4  2  1  0
  5  4  1  0
  6  5  1  0
  7  5  1  0
  8  7  2  0
  9  7  1  0
 10  9  1  0
 11 10  1  0
 12 11  1  0
 13 12  1  0
 14 13  1  0
 15 14  2  0
 16 14  1  0
 17 16  1  0
 18 17  1  0
 18  1  1  0
 19 18  1  0
 20 16  1  0
 21 13  1  0
 22 11  1  0
 23 10  1  0
 24 23  1  0
 18 25  1  6
 26 12  1  0
 11 27  1  6
 28  1  1  0
 30 29  1  0
 30 28  1  0
 31 30  1  0
 32 31  1  0
 33 32  1  0
 34 33  1  0
 34 29  1  0
 35 32  1  0
 36 34  1  0
 37 36  1  0
 38 36  1  0
 39 29  1  0
 40 39  1  0
 41 40  2  0
 43 42  1  0
 43 40  1  0
 44  4  1  0
 45 44  1  0
 46 45  1  0
 47 46  1  0
 48 47  1  0
 49 47  1  0
 50 49  1  0
 51 45  1  0
 51 50  1  0
 52 50  1  0
 50 53  1  6
 54 53  1  0
 55 49  1  0
  1 56  1  6
  2 57  1  6
  3 58  1  0
  3 59  1  0
  3 60  1  0
  4 61  1  6
  5 62  1  1
  6 63  1  0
  6 64  1  0
  6 65  1  0
 10 66  1  6
 12 67  1  6
 13 68  1  1
 16 69  1  6
 17 70  1  0
 17 71  1  0
 19 72  1  0
 19 73  1  0
 19 74  1  0
 20 75  1  0
 20 76  1  0
 20 77  1  0
 21 78  1  0
 21 79  1  0
 21 80  1  0
 22 81  1  0
 22 82  1  0
 22 83  1  0
 23 84  1  0
 23 85  1  0
 24 86  1  0
 24 87  1  0
 24 88  1  0
 25 89  1  0
 26 90  1  0
 27 91  1  0
 29 92  1  6
 30 93  1  1
 32 94  1  1
 33 95  1  0
 33 96  1  0
 34 97  1  1
 35 98  1  0
 35 99  1  0
 35100  1  0
 36101  1  0
 37102  1  0
 37103  1  0
 37104  1  0
 38105  1  0
 38106  1  0
 38107  1  0
 42108  1  0
 42109  1  0
 42110  1  0
 43111  1  0
 43112  1  0
 45113  1  1
 47114  1  6
 48115  1  0
 48116  1  0
 48117  1  0
 49118  1  6
 51119  1  0
 51120  1  0
 52121  1  0
 52122  1  0
 52123  1  0
 54124  1  0
 54125  1  0
 54126  1  0
 55127  1  0
M  CHG  1  36   1
M  END
>  <score>  (6) 
-5.944

$$$$
=
     RDKit          3D

127129  0  0  0  0  0  0  0  0999 V2000
   -2.6970   60.6860   76.5210 C   0  0  2  0  0  0  0  0  0  0  0  0
   -2.2420   59.6840   77.6450 C   0  0  1  0  0  0  0  0  0  0  0  0
   -2.5750   60.1590   79.0690 C   0  0  0  0  0  0  0  0  0  0  0  0
   -2.7920   58.2350   77.3880 C   0  0  1  0  0  0  0  0  0  0  0  0
   -1.7700   57.1680   77.8910 C   0  0  1  0  0  0  0  0  0  0  0  0
   -2.3730   56.0010   78.6710 C   0  0  0  0  0  0  0  0  0  0  0  0
   -1.0420   56.5860   76.6920 C   0  0  0  0  0  0  0  0  0  0  0  0
   -1.5930   56.2230   75.6610 O   0  0  0  0  0  0  0  0  0  0  0  0
    0.3030   56.5460   76.9060 O   0  0  0  0  0  0  0  0  0  0  0  0
    1.0930   55.8680   75.8910 C   0  0  1  0  0  0  0  0  0  0  0  0
    2.5540   56.4360   75.8890 C   0  0  1  0  0  0  0  0  0  0  0  0
    2.6570   57.8030   75.1210 C   0  0  1  0  0  0  0  0  0  0  0  0
    1.9830   59.0360   75.7540 C   0  0  2  0  0  0  0  0  0  0  0  0
    1.5570   59.9820   74.6180 C   0  0  0  0  0  0  0  0  0  0  0  0
    2.3220   60.8730   74.2420 O   0  0  0  0  0  0  0  0  0  0  0  0
    0.2180   59.7280   73.8990 C   0  0  1  0  0  0  0  0  0  0  0  0
   -1.0140   59.6970   74.8260 C   0  0  0  0  0  0  0  0  0  0  0  0
   -1.5570   61.0020   75.4660 C   0  0  2  0  0  0  0  0  0  0  0  0
   -0.4690   61.8890   76.0850 C   0  0  0  0  0  0  0  0  0  0  0  0
    0.0430   60.6620   72.7020 C   0  0  0  0  0  0  0  0  0  0  0  0
    2.8650   59.8130   76.7410 C   0  0  0  0  0  0  0  0  0  0  0  0
    3.1500   56.5000   77.3020 C   0  0  0  0  0  0  0  0  0  0  0  0
    1.0000   54.3480   76.1710 C   0  0  0  0  0  0  0  0  0  0  0  0
    0.5620   53.5320   74.9630 C   0  0  0  0  0  0  0  0  0  0  0  0
   -2.1570   61.7400   74.3910 O   0  0  0  0  0  0  0  0  0  0  0  0
    4.0610   58.0590   74.8960 O   0  0  0  0  0  0  0  0  0  0  0  0
    3.4030   55.5370   75.1430 O   0  0  0  0  0  0  0  0  0  0  0  0
   -3.1560   61.8940   77.1560 O   0  0  0  0  0  0  0  0  0  0  0  0
   -4.6090   63.7740   76.9330 C   0  0  1  0  0  0  0  0  0  0  0  0
   -4.5300   62.2300   76.9490 C   0  0  1  0  0  0  0  0  0  0  0  0
   -4.9570   61.6740   75.7120 O   0  0  0  0  0  0  0  0  0  0  0  0
   -6.3290   61.9500   75.4370 C   0  0  1  0  0  0  0  0  0  0  0  0
   -6.4500   63.4400   75.1520 C   0  0  0  0  0  0  0  0  0  0  0  0
   -5.9710   64.2490   76.3620 C   0  0  2  0  0  0  0  0  0  0  0  0
   -6.7420   61.1200   74.2300 C   0  0  0  0  0  0  0  0  0  0  0  0
   -5.9550   65.7570   76.0120 N   0  0  0  0  0  4  0  0  0  0  0  0
   -6.7300   66.6100   76.9730 C   0  0  0  0  0  0  0  0  0  0  0  0
   -6.2460   66.1240   74.5800 C   0  0  0  0  0  0  0  0  0  0  0  0
   -4.4250   64.1790   78.3240 O   0  0  0  0  0  0  0  0  0  0  0  0
   -3.4840   65.1130   78.6060 C   0  0  0  0  0  0  0  0  0  0  0  0
   -3.3870   66.1630   77.9820 O   0  0  0  0  0  0  0  0  0  0  0  0
   -1.4530   63.8880   79.4070 C   0  0  0  0  0  0  0  0  0  0  0  0
   -2.6680   64.7060   79.8040 C   0  0  0  0  0  0  0  0  0  0  0  0
   -4.0460   58.0620   78.0640 O   0  0  0  0  0  0  0  0  0  0  0  0
   -5.1830   57.8400   77.2360 C   0  0  2  0  0  0  0  0  0  0  0  0
   -6.0260   58.9950   77.2630 O   0  0  0  0  0  0  0  0  0  0  0  0
   -6.6690   59.1900   78.5330 C   0  0  1  0  0  0  0  0  0  0  0  0
   -7.5960   60.3900   78.3740 C   0  0  0  0  0  0  0  0  0  0  0  0
   -7.4610   57.9460   78.9930 C   0  0  1  0  0  0  0  0  0  0  0  0
   -7.4200   56.8000   77.9570 C   0  0  2  0  0  0  0  0  0  0  0  0
   -5.9470   56.5570   77.5820 C   0  0  0  0  0  0  0  0  0  0  0  0
   -8.2570   57.1000   76.7000 C   0  0  0  0  0  0  0  0  0  0  0  0
   -7.8580   55.5620   78.5700 O   0  0  0  0  0  0  0  0  0  0  0  0
   -6.9560   54.4640   78.5320 C   0  0  0  0  0  0  0  0  0  0  0  0
   -6.8760   57.4810   80.2250 O   0  0  0  0  0  0  0  0  0  0  0  0
   -3.5072   60.2145   75.9454 H   0  0  0  0  0  0  0  0  0  0  0  0
   -1.1441   59.6537   77.5835 H   0  0  0  0  0  0  0  0  0  0  0  0
   -2.1031   59.4858   79.7998 H   0  0  0  0  0  0  0  0  0  0  0  0
   -2.1947   61.1811   79.2129 H   0  0  0  0  0  0  0  0  0  0  0  0
   -3.6655   60.1499   79.2129 H   0  0  0  0  0  0  0  0  0  0  0  0
   -2.9402   58.1015   76.3062 H   0  0  0  0  0  0  0  0  0  0  0  0
   -1.1094   57.7050   78.5876 H   0  0  0  0  0  0  0  0  0  0  0  0
   -2.2747   56.1913   79.7499 H   0  0  0  0  0  0  0  0  0  0  0  0
   -3.4372   55.8980   78.4123 H   0  0  0  0  0  0  0  0  0  0  0  0
   -1.8413   55.0734   78.4123 H   0  0  0  0  0  0  0  0  0  0  0  0
    0.7123   56.0453   74.8743 H   0  0  0  0  0  0  0  0  0  0  0  0
    2.0747   57.6698   74.1973 H   0  0  0  0  0  0  0  0  0  0  0  0
    1.1305   58.6636   76.3409 H   0  0  0  0  0  0  0  0  0  0  0  0
    0.2784   58.7001   73.5121 H   0  0  0  0  0  0  0  0  0  0  0  0
   -1.8390   59.2687   74.2379 H   0  0  0  0  0  0  0  0  0  0  0  0
   -0.6519   59.1296   75.6960 H   0  0  0  0  0  0  0  0  0  0  0  0
   -0.5333   61.8366   77.1819 H   0  0  0  0  0  0  0  0  0  0  0  0
    0.5207   61.5371   75.7585 H   0  0  0  0  0  0  0  0  0  0  0  0
   -0.6143   62.9293   75.7585 H   0  0  0  0  0  0  0  0  0  0  0  0
   -0.1486   61.6844   73.0596 H   0  0  0  0  0  0  0  0  0  0  0  0
    0.9586   60.6523   72.0924 H   0  0  0  0  0  0  0  0  0  0  0  0
   -0.8070   60.3215   72.0924 H   0  0  0  0  0  0  0  0  0  0  0  0
    2.5753   59.5578   77.7710 H   0  0  0  0  0  0  0  0  0  0  0  0
    3.9196   59.5451   76.5797 H   0  0  0  0  0  0  0  0  0  0  0  0
    2.7322   60.8930   76.5797 H   0  0  0  0  0  0  0  0  0  0  0  0
    2.3431   56.4134   78.0446 H   0  0  0  0  0  0  0  0  0  0  0  0
    3.8629   55.6732   77.4370 H   0  0  0  0  0  0  0  0  0  0  0  0
    3.6711   57.4593   77.4370 H   0  0  0  0  0  0  0  0  0  0  0  0
    1.9905   53.9920   76.4907 H   0  0  0  0  0  0  0  0  0  0  0  0
    0.2347   54.2093   76.9489 H   0  0  0  0  0  0  0  0  0  0  0  0
    0.0672   52.6103   75.3030 H   0  0  0  0  0  0  0  0  0  0  0  0
   -0.1402   54.1228   74.3565 H   0  0  0  0  0  0  0  0  0  0  0  0
    1.4425   53.2733   74.3565 H   0  0  0  0  0  0  0  0  0  0  0  0
   -2.7359   62.4521   74.7623 H   0  0  0  0  0  0  0  0  0  0  0  0
    4.5247   58.1435   75.7666 H   0  0  0  0  0  0  0  0  0  0  0  0
    3.9281   54.9810   75.7717 H   0  0  0  0  0  0  0  0  0  0  0  0
   -3.8446   64.2268   76.2843 H   0  0  0  0  0  0  0  0  0  0  0  0
   -5.1840   61.8304   77.7380 H   0  0  0  0  0  0  0  0  0  0  0  0
   -6.9846   61.6923   76.2819 H   0  0  0  0  0  0  0  0  0  0  0  0
   -5.8333   63.6942   74.2773 H   0  0  0  0  0  0  0  0  0  0  0  0
   -7.5037   63.6833   74.9510 H   0  0  0  0  0  0  0  0  0  0  0  0
   -6.6924   64.0737   77.1736 H   0  0  0  0  0  0  0  0  0  0  0  0
   -7.2079   60.1837   74.5709 H   0  0  0  0  0  0  0  0  0  0  0  0
   -7.4624   61.6883   73.6233 H   0  0  0  0  0  0  0  0  0  0  0  0
   -5.8542   60.8881   73.6233 H   0  0  0  0  0  0  0  0  0  0  0  0
   -4.9566   65.9817   76.1284 H   0  0  0  0  0  0  0  0  0  0  0  0
   -6.4727   66.3269   78.0043 H   0  0  0  0  0  0  0  0  0  0  0  0
   -6.4779   67.6682   76.8096 H   0  0  0  0  0  0  0  0  0  0  0  0
   -7.8074   66.4603   76.8096 H   0  0  0  0  0  0  0  0  0  0  0  0
   -6.9292   66.9857   74.5539 H   0  0  0  0  0  0  0  0  0  0  0  0
   -5.3068   66.3852   74.0703 H   0  0  0  0  0  0  0  0  0  0  0  0
   -6.7144   65.2691   74.0703 H   0  0  0  0  0  0  0  0  0  0  0  0
   -0.9344   63.5388   80.3121 H   0  0  0  0  0  0  0  0  0  0  0  0
   -1.7736   63.0211   78.8106 H   0  0  0  0  0  0  0  0  0  0  0  0
   -0.7704   64.5111   78.8106 H   0  0  0  0  0  0  0  0  0  0  0  0
   -3.2978   64.1047   80.4762 H   0  0  0  0  0  0  0  0  0  0  0  0
   -2.3160   65.6202   80.3044 H   0  0  0  0  0  0  0  0  0  0  0  0
   -4.8231   57.6827   76.2085 H   0  0  0  0  0  0  0  0  0  0  0  0
   -5.9107   59.3634   79.3108 H   0  0  0  0  0  0  0  0  0  0  0  0
   -7.8850   60.7642   79.3672 H   0  0  0  0  0  0  0  0  0  0  0  0
   -7.0751   61.1849   77.8200 H   0  0  0  0  0  0  0  0  0  0  0  0
   -8.4966   60.0867   77.8200 H   0  0  0  0  0  0  0  0  0  0  0  0
   -8.5149   58.2348   79.1192 H   0  0  0  0  0  0  0  0  0  0  0  0
   -5.9159   55.8876   76.7097 H   0  0  0  0  0  0  0  0  0  0  0  0
   -5.4576   56.1175   78.4637 H   0  0  0  0  0  0  0  0  0  0  0  0
   -9.2534   57.4571   76.9996 H   0  0  0  0  0  0  0  0  0  0  0  0
   -7.7548   57.8741   76.1012 H   0  0  0  0  0  0  0  0  0  0  0  0
   -8.3608   56.1831   76.1012 H   0  0  0  0  0  0  0  0  0  0  0  0
   -6.7057   54.1594   79.5589 H   0  0  0  0  0  0  0  0  0  0  0  0
   -7.4261   53.6214   78.0038 H   0  0  0  0  0  0  0  0  0  0  0  0
   -6.0381   54.7616   78.0038 H   0  0  0  0  0  0  0  0  0  0  0  0
   -7.3668   57.8711   80.9912 H   0  0  0  0  0  0  0  0  0  0  0  0
  2  1  1  0
  3  2  1  0
  4  2  1  0
  5  4  1  0
  6  5  1  0
  7  5  1  0
  8  7  2  0
  9  7  1  0
 10  9  1  0
 11 10  1  0
 12 11  1  0
 13 12  1  0
 14 13  1  0
 15 14  2  0
 16 14  1  0
 17 16  1  0
 18 17  1  0
 18  1  1  0
 19 18  1  0
 20 16  1  0
 21 13  1  0
 22 11  1  0
 23 10  1  0
 24 23  1  0
 18 25  1  6
 26 12  1  0
 11 27  1  6
 28  1  1  0
 30 29  1  0
 30 28  1  0
 31 30  1  0
 32 31  1  0
 33 32  1  0
 34 33  1  0
 34 29  1  0
 35 32  1  0
 36 34  1  0
 37 36  1  0
 38 36  1  0
 39 29  1  0
 40 39  1  0
 41 40  2  0
 43 42  1  0
 43 40  1  0
 44  4  1  0
 45 44  1  0
 46 45  1  0
 47 46  1  0
 48 47  1  0
 49 47  1  0
 50 49  1  0
 51 45  1  0
 51 50  1  0
 52 50  1  0
 50 53  1  1
 54 53  1  0
 55 49  1  0
  1 56  1  6
  2 57  1  1
  3 58  1  0
  3 59  1  0
  3 60  1  0
  4 61  1  6
  5 62  1  1
  6 63  1  0
  6 64  1  0
  6 65  1  0
 10 66  1  6
 12 67  1  6
 13 68  1  1
 16 69  1  6
 17 70  1  0
 17 71  1  0
 19 72  1  0
 19 73  1  0
 19 74  1  0
 20 75  1  0
 20 76  1  0
 20 77  1  0
 21 78  1  0
 21 79  1  0
 21 80  1  0
 22 81  1  0
 22 82  1  0
 22 83  1  0
 23 84  1  0
 23 85  1  0
 24 86  1  0
 24 87  1  0
 24 88  1  0
 25 89  1  0
 26 90  1  0
 27 91  1  0
 29 92  1  6
 30 93  1  1
 32 94  1  1
 33 95  1  0
 33 96  1  0
 34 97  1  1
 35 98  1  0
 35 99  1  0
 35100  1  0
 36101  1  0
 37102  1  0
 37103  1  0
 37104  1  0
 38105  1  0
 38106  1  0
 38107  1  0
 42108  1  0
 42109  1  0
 42110  1  0
 43111  1  0
 43112  1  0
 45113  1  6
 47114  1  1
 48115  1  0
 48116  1  0
 48117  1  0
 49118  1  1
 51119  1  0
 51120  1  0
 52121  1  0
 52122  1  0
 52123  1  0
 54124  1  0
 54125  1  0
 54126  1  0
 55127  1  0
M  CHG  1  36   1
M  END
>  <score>  (7) 
-5.904

$$$$
=
     RDKit          3D

127129  0  0  0  0  0  0  0  0999 V2000
   -3.4170   59.7380   76.5640 C   0  0  2  0  0  0  0  0  0  0  0  0
   -2.8860   60.4600   75.2700 C   0  0  1  0  0  0  0  0  0  0  0  0
   -4.0010   60.9190   74.3170 C   0  0  0  0  0  0  0  0  0  0  0  0
   -1.9190   61.6470   75.6250 C   0  0  1  0  0  0  0  0  0  0  0  0
   -0.8110   61.7890   74.5340 C   0  0  1  0  0  0  0  0  0  0  0  0
   -0.5160   63.2180   74.0830 C   0  0  0  0  0  0  0  0  0  0  0  0
    0.4830   61.2050   75.0750 C   0  0  0  0  0  0  0  0  0  0  0  0
    0.9270   61.4320   76.1930 O   0  0  0  0  0  0  0  0  0  0  0  0
    1.0680   60.3790   74.1630 O   0  0  0  0  0  0  0  0  0  0  0  0
    2.3900   59.8800   74.5070 C   0  0  1  0  0  0  0  0  0  0  0  0
    2.6480   58.5160   73.7790 C   0  0  1  0  0  0  0  0  0  0  0  0
    1.9540   57.3130   74.5120 C   0  0  1  0  0  0  0  0  0  0  0  0
    0.4140   57.2450   74.4850 C   0  0  2  0  0  0  0  0  0  0  0  0
   -0.0540   56.5340   75.7670 C   0  0  0  0  0  0  0  0  0  0  0  0
   -0.2240   55.3120   75.7640 O   0  0  0  0  0  0  0  0  0  0  0  0
   -0.2000   57.3520   77.0630 C   0  0  1  0  0  0  0  0  0  0  0  0
   -1.1460   58.5660   76.9550 C   0  0  0  0  0  0  0  0  0  0  0  0
   -2.6820   58.3650   76.8600 C   0  0  2  0  0  0  0  0  0  0  0  0
   -3.1060   57.2890   75.8520 C   0  0  0  0  0  0  0  0  0  0  0  0
   -0.5140   56.4520   78.2580 C   0  0  0  0  0  0  0  0  0  0  0  0
   -0.1740   56.5150   73.2700 C   0  0  0  0  0  0  0  0  0  0  0  0
    2.3000   58.5840   72.2860 C   0  0  0  0  0  0  0  0  0  0  0  0
    3.4090   60.9920   74.1570 C   0  0  0  0  0  0  0  0  0  0  0  0
    2.9840   61.8580   72.9790 C   0  0  0  0  0  0  0  0  0  0  0  0
   -3.0980   57.9260   78.1610 O   0  0  0  0  0  0  0  0  0  0  0  0
    2.5180   56.1000   73.9680 O   0  0  0  0  0  0  0  0  0  0  0  0
    4.0590   58.2130   73.8420 O   0  0  0  0  0  0  0  0  0  0  0  0
   -4.8350   59.5380   76.4160 O   0  0  0  0  0  0  0  0  0  0  0  0
   -7.0000   60.3770   76.9680 C   0  0  1  0  0  0  0  0  0  0  0  0
   -5.6420   59.9050   77.5380 C   0  0  1  0  0  0  0  0  0  0  0  0
   -5.7980   58.7710   78.3820 O   0  0  0  0  0  0  0  0  0  0  0  0
   -6.5790   59.0580   79.5390 C   0  0  1  0  0  0  0  0  0  0  0  0
   -8.0130   59.2860   79.0800 C   0  0  0  0  0  0  0  0  0  0  0  0
   -8.0690   60.4540   78.0900 C   0  0  2  0  0  0  0  0  0  0  0  0
   -6.4820   57.8640   80.4780 C   0  0  0  0  0  0  0  0  0  0  0  0
   -9.5010   60.5840   77.5150 N   0  0  0  0  0  4  0  0  0  0  0  0
  -10.1440   61.9120   77.7890 C   0  0  0  0  0  0  0  0  0  0  0  0
  -10.4440   59.4400   77.7780 C   0  0  0  0  0  0  0  0  0  0  0  0
   -6.7310   61.6830   76.3750 O   0  0  0  0  0  0  0  0  0  0  0  0
   -7.3890   62.0270   75.2420 C   0  0  0  0  0  0  0  0  0  0  0  0
   -7.6980   63.1840   74.9820 O   0  0  0  0  0  0  0  0  0  0  0  0
   -7.8080   61.2210   72.9080 C   0  0  0  0  0  0  0  0  0  0  0  0
   -7.5990   60.8250   74.3590 C   0  0  0  0  0  0  0  0  0  0  0  0
   -2.6620   62.8700   75.7210 O   0  0  0  0  0  0  0  0  0  0  0  0
   -2.3400   63.7170   76.8200 C   0  0  2  0  0  0  0  0  0  0  0  0
   -2.7840   63.1120   78.0370 O   0  0  0  0  0  0  0  0  0  0  0  0
   -4.2150   63.0740   78.1550 C   0  0  1  0  0  0  0  0  0  0  0  0
   -4.5250   62.4950   79.5310 C   0  0  0  0  0  0  0  0  0  0  0  0
   -4.8600   64.4680   77.9920 C   0  0  1  0  0  0  0  0  0  0  0  0
   -3.8120   65.5870   77.7920 C   0  0  2  0  0  0  0  0  0  0  0  0
   -2.8670   65.1480   76.6590 C   0  0  0  0  0  0  0  0  0  0  0  0
   -3.0160   65.8970   79.0730 C   0  0  0  0  0  0  0  0  0  0  0  0
   -4.4580   66.7860   77.2960 O   0  0  0  0  0  0  0  0  0  0  0  0
   -5.1480   67.5900   78.2450 C   0  0  0  0  0  0  0  0  0  0  0  0
   -5.7210   64.4240   76.8370 O   0  0  0  0  0  0  0  0  0  0  0  0
   -3.2009   60.3797   77.4309 H   0  0  0  0  0  0  0  0  0  0  0  0
   -2.3128   59.6977   74.7220 H   0  0  0  0  0  0  0  0  0  0  0  0
   -4.8617   61.2733   74.9033 H   0  0  0  0  0  0  0  0  0  0  0  0
   -3.6278   61.7366   73.6828 H   0  0  0  0  0  0  0  0  0  0  0  0
   -4.3116   60.0756   73.6828 H   0  0  0  0  0  0  0  0  0  0  0  0
   -1.4409   61.4344   76.5926 H   0  0  0  0  0  0  0  0  0  0  0  0
   -1.1995   61.2556   73.6539 H   0  0  0  0  0  0  0  0  0  0  0  0
   -0.3833   63.8610   74.9656 H   0  0  0  0  0  0  0  0  0  0  0  0
    0.4035   63.2295   73.4793 H   0  0  0  0  0  0  0  0  0  0  0  0
   -1.3557   63.5927   73.4793 H   0  0  0  0  0  0  0  0  0  0  0  0
    2.4899   59.6588   75.5799 H   0  0  0  0  0  0  0  0  0  0  0  0
    2.1609   57.4597   75.5824 H   0  0  0  0  0  0  0  0  0  0  0  0
    0.0525   58.2817   74.4167 H   0  0  0  0  0  0  0  0  0  0  0  0
    0.7861   57.8061   77.2402 H   0  0  0  0  0  0  0  0  0  0  0  0
   -0.9644   59.1865   77.8449 H   0  0  0  0  0  0  0  0  0  0  0  0
   -0.8919   58.9894   75.9721 H   0  0  0  0  0  0  0  0  0  0  0  0
   -3.4572   56.3979   76.3929 H   0  0  0  0  0  0  0  0  0  0  0  0
   -3.9180   57.6781   75.2202 H   0  0  0  0  0  0  0  0  0  0  0  0
   -2.2468   57.0195   75.2202 H   0  0  0  0  0  0  0  0  0  0  0  0
   -0.3222   57.0016   79.1914 H   0  0  0  0  0  0  0  0  0  0  0  0
   -1.5709   56.1492   78.2213 H   0  0  0  0  0  0  0  0  0  0  0  0
    0.1252   55.5575   78.2213 H   0  0  0  0  0  0  0  0  0  0  0  0
   -0.8296   55.7011   73.6132 H   0  0  0  0  0  0  0  0  0  0  0  0
   -0.7564   57.2237   72.6629 H   0  0  0  0  0  0  0  0  0  0  0  0
    0.6425   56.0969   72.6629 H   0  0  0  0  0  0  0  0  0  0  0  0
    1.2266   58.7938   72.1689 H   0  0  0  0  0  0  0  0  0  0  0  0
    2.8842   59.3850   71.8094 H   0  0  0  0  0  0  0  0  0  0  0  0
    2.5398   57.6220   71.8094 H   0  0  0  0  0  0  0  0  0  0  0  0
    3.5338   61.6393   75.0376 H   0  0  0  0  0  0  0  0  0  0  0  0
    4.3460   60.4926   73.8694 H   0  0  0  0  0  0  0  0  0  0  0  0
    2.5282   62.7869   73.3524 H   0  0  0  0  0  0  0  0  0  0  0  0
    3.8647   62.1021   72.3668 H   0  0  0  0  0  0  0  0  0  0  0  0
    2.2521   61.3107   72.3668 H   0  0  0  0  0  0  0  0  0  0  0  0
   -2.6115   58.4394   78.8537 H   0  0  0  0  0  0  0  0  0  0  0  0
    2.7951   55.5040   74.7083 H   0  0  0  0  0  0  0  0  0  0  0  0
    4.3415   58.1523   74.7889 H   0  0  0  0  0  0  0  0  0  0  0  0
   -7.4072   59.6799   76.2208 H   0  0  0  0  0  0  0  0  0  0  0  0
   -5.1882   60.7076   78.1379 H   0  0  0  0  0  0  0  0  0  0  0  0
   -6.2256   59.9537   80.0707 H   0  0  0  0  0  0  0  0  0  0  0  0
   -8.3874   58.3752   78.5898 H   0  0  0  0  0  0  0  0  0  0  0  0
   -8.6374   59.5241   79.9538 H   0  0  0  0  0  0  0  0  0  0  0  0
   -7.8194   61.3662   78.6517 H   0  0  0  0  0  0  0  0  0  0  0  0
   -6.5104   58.2141   81.5204 H   0  0  0  0  0  0  0  0  0  0  0  0
   -7.3279   57.1848   80.2961 H   0  0  0  0  0  0  0  0  0  0  0  0
   -5.5375   57.3302   80.2961 H   0  0  0  0  0  0  0  0  0  0  0  0
   -9.3203   60.5268   76.5026 H   0  0  0  0  0  0  0  0  0  0  0  0
  -10.2186   62.0660   78.8756 H   0  0  0  0  0  0  0  0  0  0  0  0
   -9.5340   62.7131   77.3461 H   0  0  0  0  0  0  0  0  0  0  0  0
  -11.1507   61.9303   77.3461 H   0  0  0  0  0  0  0  0  0  0  0  0
  -10.5584   59.3012   78.8632 H   0  0  0  0  0  0  0  0  0  0  0  0
  -11.4243   59.6628   77.3315 H   0  0  0  0  0  0  0  0  0  0  0  0
  -10.0382   58.5202   77.3315 H   0  0  0  0  0  0  0  0  0  0  0  0
   -8.3210   62.1930   72.8634 H   0  0  0  0  0  0  0  0  0  0  0  0
   -6.8329   61.2976   72.4047 H   0  0  0  0  0  0  0  0  0  0  0  0
   -8.4215   60.4592   72.4047 H   0  0  0  0  0  0  0  0  0  0  0  0
   -8.4855   60.2762   74.7096 H   0  0  0  0  0  0  0  0  0  0  0  0
   -6.6975   60.1973   74.4157 H   0  0  0  0  0  0  0  0  0  0  0  0
   -1.2455   63.8222   76.8515 H   0  0  0  0  0  0  0  0  0  0  0  0
   -4.6379   62.4553   77.3498 H   0  0  0  0  0  0  0  0  0  0  0  0
   -4.1578   63.1809   80.3086 H   0  0  0  0  0  0  0  0  0  0  0  0
   -5.6122   62.3671   79.6385 H   0  0  0  0  0  0  0  0  0  0  0  0
   -4.0286   61.5193   79.6385 H   0  0  0  0  0  0  0  0  0  0  0  0
   -5.4154   64.7014   78.9123 H   0  0  0  0  0  0  0  0  0  0  0  0
   -2.0079   65.8347   76.6368 H   0  0  0  0  0  0  0  0  0  0  0  0
   -3.4479   65.1750   75.7253 H   0  0  0  0  0  0  0  0  0  0  0  0
   -3.6305   65.6577   79.9534 H   0  0  0  0  0  0  0  0  0  0  0  0
   -2.0985   65.2905   79.0904 H   0  0  0  0  0  0  0  0  0  0  0  0
   -2.7504   66.9643   79.0904 H   0  0  0  0  0  0  0  0  0  0  0  0
   -4.8752   67.2722   79.2621 H   0  0  0  0  0  0  0  0  0  0  0  0
   -4.8696   68.6447   78.1034 H   0  0  0  0  0  0  0  0  0  0  0  0
   -6.2328   67.4749   78.1034 H   0  0  0  0  0  0  0  0  0  0  0  0
   -6.6651   64.3758   77.1309 H   0  0  0  0  0  0  0  0  0  0  0  0
  2  1  1  0
  3  2  1  0
  4  2  1  0
  5  4  1  0
  6  5  1  0
  7  5  1  0
  8  7  2  0
  9  7  1  0
 10  9  1  0
 11 10  1  0
 12 11  1  0
 13 12  1  0
 14 13  1  0
 15 14  2  0
 16 14  1  0
 17 16  1  0
 18 17  1  0
 18  1  1  0
 19 18  1  0
 20 16  1  0
 21 13  1  0
 22 11  1  0
 23 10  1  0
 24 23  1  0
 18 25  1  1
 26 12  1  0
 11 27  1  6
 28  1  1  0
 30 29  1  0
 30 28  1  0
 31 30  1  0
 32 31  1  0
 33 32  1  0
 34 33  1  0
 34 29  1  0
 35 32  1  0
 36 34  1  0
 37 36  1  0
 38 36  1  0
 39 29  1  0
 40 39  1  0
 41 40  2  0
 43 42  1  0
 43 40  1  0
 44  4  1  0
 45 44  1  0
 46 45  1  0
 47 46  1  0
 48 47  1  0
 49 47  1  0
 50 49  1  0
 51 45  1  0
 51 50  1  0
 52 50  1  0
 50 53  1  6
 54 53  1  0
 55 49  1  0
  1 56  1  1
  2 57  1  6
  3 58  1  0
  3 59  1  0
  3 60  1  0
  4 61  1  1
  5 62  1  6
  6 63  1  0
  6 64  1  0
  6 65  1  0
 10 66  1  1
 12 67  1  1
 13 68  1  1
 16 69  1  1
 17 70  1  0
 17 71  1  0
 19 72  1  0
 19 73  1  0
 19 74  1  0
 20 75  1  0
 20 76  1  0
 20 77  1  0
 21 78  1  0
 21 79  1  0
 21 80  1  0
 22 81  1  0
 22 82  1  0
 22 83  1  0
 23 84  1  0
 23 85  1  0
 24 86  1  0
 24 87  1  0
 24 88  1  0
 25 89  1  0
 26 90  1  0
 27 91  1  0
 29 92  1  6
 30 93  1  1
 32 94  1  1
 33 95  1  0
 33 96  1  0
 34 97  1  1
 35 98  1  0
 35 99  1  0
 35100  1  0
 36101  1  0
 37102  1  0
 37103  1  0
 37104  1  0
 38105  1  0
 38106  1  0
 38107  1  0
 42108  1  0
 42109  1  0
 42110  1  0
 43111  1  0
 43112  1  0
 45113  1  1
 47114  1  6
 48115  1  0
 48116  1  0
 48117  1  0
 49118  1  1
 51119  1  0
 51120  1  0
 52121  1  0
 52122  1  0
 52123  1  0
 54124  1  0
 54125  1  0
 54126  1  0
 55127  1  0
M  CHG  1  36   1
M  END
>  <score>  (8) 
-5.794

$$$$
=
     RDKit          3D

127129  0  0  0  0  0  0  0  0999 V2000
   -0.1360   61.0230   75.8100 C   0  0  2  0  0  0  0  0  0  0  0  0
   -1.4230   60.4000   75.1510 C   0  0  1  0  0  0  0  0  0  0  0  0
   -1.2890   60.1580   73.6390 C   0  0  0  0  0  0  0  0  0  0  0  0
   -1.8790   59.0940   75.8960 C   0  0  1  0  0  0  0  0  0  0  0  0
   -3.4350   58.9660   75.8650 C   0  0  1  0  0  0  0  0  0  0  0  0
   -3.9710   57.5740   75.5390 C   0  0  0  0  0  0  0  0  0  0  0  0
   -3.9830   59.3590   77.2260 C   0  0  0  0  0  0  0  0  0  0  0  0
   -3.5260   58.9670   78.2920 O   0  0  0  0  0  0  0  0  0  0  0  0
   -5.0330   60.2200   77.1030 O   0  0  0  0  0  0  0  0  0  0  0  0
   -5.7380   60.5470   78.3310 C   0  0  1  0  0  0  0  0  0  0  0  0
   -6.4210   61.9520   78.1920 C   0  0  1  0  0  0  0  0  0  0  0  0
   -5.4030   63.1280   78.4100 C   0  0  1  0  0  0  0  0  0  0  0  0
   -4.3150   63.3470   77.3400 C   0  0  2  0  0  0  0  0  0  0  0  0
   -3.0830   63.9550   78.0300 C   0  0  0  0  0  0  0  0  0  0  0  0
   -2.9530   65.1800   78.0900 O   0  0  0  0  0  0  0  0  0  0  0  0
   -2.0810   63.0160   78.7300 C   0  0  1  0  0  0  0  0  0  0  0  0
   -1.4850   61.9200   77.8240 C   0  0  0  0  0  0  0  0  0  0  0  0
   -0.4480   62.2780   76.7270 C   0  0  2  0  0  0  0  0  0  0  0  0
   -0.8370   63.4940   75.8770 C   0  0  0  0  0  0  0  0  0  0  0  0
   -1.0180   63.8060   79.4940 C   0  0  0  0  0  0  0  0  0  0  0  0
   -4.7340   64.2600   76.1790 C   0  0  0  0  0  0  0  0  0  0  0  0
   -7.2100   62.0830   76.8830 C   0  0  0  0  0  0  0  0  0  0  0  0
   -6.7210   59.3870   78.6220 C   0  0  0  0  0  0  0  0  0  0  0  0
   -7.2510   58.7080   77.3660 C   0  0  0  0  0  0  0  0  0  0  0  0
    0.7600   62.6090   77.4280 O   0  0  0  0  0  0  0  0  0  0  0  0
   -6.1780   64.3340   78.5900 O   0  0  0  0  0  0  0  0  0  0  0  0
   -7.3880   62.1080   79.2530 O   0  0  0  0  0  0  0  0  0  0  0  0
    0.7810   61.3740   74.7560 O   0  0  0  0  0  0  0  0  0  0  0  0
    2.3760   60.8960   73.0460 C   0  0  1  0  0  0  0  0  0  0  0  0
    1.5680   60.3050   74.2250 C   0  0  1  0  0  0  0  0  0  0  0  0
    2.4250   59.8140   75.2480 O   0  0  0  0  0  0  0  0  0  0  0  0
    3.2360   58.7290   74.8040 C   0  0  1  0  0  0  0  0  0  0  0  0
    4.2470   59.2870   73.8110 C   0  0  0  0  0  0  0  0  0  0  0  0
    3.5210   59.9360   72.6280 C   0  0  2  0  0  0  0  0  0  0  0  0
    3.9270   58.1300   76.0200 C   0  0  0  0  0  0  0  0  0  0  0  0
    4.5470   60.6310   71.7010 N   0  0  0  0  0  4  0  0  0  0  0  0
    4.8570   62.0460   72.0940 C   0  0  0  0  0  0  0  0  0  0  0  0
    4.3170   60.5010   70.2180 C   0  0  0  0  0  0  0  0  0  0  0  0
    1.4010   61.0880   71.9760 O   0  0  0  0  0  0  0  0  0  0  0  0
    1.0650   62.3540   71.6280 C   0  0  0  0  0  0  0  0  0  0  0  0
    0.3510   63.0630   72.3270 O   0  0  0  0  0  0  0  0  0  0  0  0
    2.3200   64.1560   70.4250 C   0  0  0  0  0  0  0  0  0  0  0  0
    1.7420   62.7540   70.3440 C   0  0  0  0  0  0  0  0  0  0  0  0
   -1.2870   57.9450   75.2730 O   0  0  0  0  0  0  0  0  0  0  0  0
   -0.3370   57.2250   76.0530 C   0  0  2  0  0  0  0  0  0  0  0  0
    0.7770   56.8630   75.2340 O   0  0  0  0  0  0  0  0  0  0  0  0
    0.4500   55.8690   74.2490 C   0  0  1  0  0  0  0  0  0  0  0  0
    1.7480   55.5230   73.5280 C   0  0  0  0  0  0  0  0  0  0  0  0
   -0.1820   54.6040   74.8710 C   0  0  1  0  0  0  0  0  0  0  0  0
   -0.2680   54.6810   76.4130 C   0  0  2  0  0  0  0  0  0  0  0  0
   -0.9380   56.0170   76.7800 C   0  0  0  0  0  0  0  0  0  0  0  0
    1.1070   54.5580   77.0950 C   0  0  0  0  0  0  0  0  0  0  0  0
   -1.1700   53.6610   76.9100 O   0  0  0  0  0  0  0  0  0  0  0  0
   -0.5940   52.5890   77.6450 C   0  0  0  0  0  0  0  0  0  0  0  0
   -1.5130   54.4680   74.3370 O   0  0  0  0  0  0  0  0  0  0  0  0
    0.3072   60.2725   76.4810 H   0  0  0  0  0  0  0  0  0  0  0  0
   -2.2101   61.1596   75.2675 H   0  0  0  0  0  0  0  0  0  0  0  0
   -0.7629   59.2078   73.4650 H   0  0  0  0  0  0  0  0  0  0  0  0
   -2.2899   60.1114   73.1850 H   0  0  0  0  0  0  0  0  0  0  0  0
   -0.7184   60.9816   73.1850 H   0  0  0  0  0  0  0  0  0  0  0  0
   -1.5477   59.1521   76.9433 H   0  0  0  0  0  0  0  0  0  0  0  0
   -3.7649   59.6279   75.0507 H   0  0  0  0  0  0  0  0  0  0  0  0
   -4.1793   57.0331   76.4739 H   0  0  0  0  0  0  0  0  0  0  0  0
   -4.8981   57.6658   74.9541 H   0  0  0  0  0  0  0  0  0  0  0  0
   -3.2218   57.0203   74.9541 H   0  0  0  0  0  0  0  0  0  0  0  0
   -5.0611   60.6378   79.1933 H   0  0  0  0  0  0  0  0  0  0  0  0
   -4.8078   62.8445   79.2905 H   0  0  0  0  0  0  0  0  0  0  0  0
   -4.1094   62.3637   76.8917 H   0  0  0  0  0  0  0  0  0  0  0  0
   -2.6689   62.4508   79.4682 H   0  0  0  0  0  0  0  0  0  0  0  0
   -0.9995   61.1913   78.4898 H   0  0  0  0  0  0  0  0  0  0  0  0
   -2.3546   61.5843   77.2399 H   0  0  0  0  0  0  0  0  0  0  0  0
   -1.1051   64.3321   76.5371 H   0  0  0  0  0  0  0  0  0  0  0  0
    0.0130   63.7846   75.2422 H   0  0  0  0  0  0  0  0  0  0  0  0
   -1.6979   63.2373   75.2422 H   0  0  0  0  0  0  0  0  0  0  0  0
   -1.1790   63.6863   80.5756 H   0  0  0  0  0  0  0  0  0  0  0  0
   -0.0194   63.4291   79.2280 H   0  0  0  0  0  0  0  0  0  0  0  0
   -1.0908   64.8709   79.2280 H   0  0  0  0  0  0  0  0  0  0  0  0
   -5.1612   65.1908   76.5803 H   0  0  0  0  0  0  0  0  0  0  0  0
   -3.8542   64.4963   75.5624 H   0  0  0  0  0  0  0  0  0  0  0  0
   -5.4868   63.7470   75.5624 H   0  0  0  0  0  0  0  0  0  0  0  0
   -8.2716   62.2593   77.1108 H   0  0  0  0  0  0  0  0  0  0  0  0
   -6.8150   62.9279   76.2998 H   0  0  0  0  0  0  0  0  0  0  0  0
   -7.1092   61.1558   76.2998 H   0  0  0  0  0  0  0  0  0  0  0  0
   -6.1997   58.6338   79.2310 H   0  0  0  0  0  0  0  0  0  0  0  0
   -7.5866   59.8207   79.1442 H   0  0  0  0  0  0  0  0  0  0  0  0
   -7.9049   57.8703   77.6502 H   0  0  0  0  0  0  0  0  0  0  0  0
   -7.8235   59.4343   76.7703 H   0  0  0  0  0  0  0  0  0  0  0  0
   -6.4075   58.3290   76.7703 H   0  0  0  0  0  0  0  0  0  0  0  0
    0.5981   62.5646   78.4037 H   0  0  0  0  0  0  0  0  0  0  0  0
   -6.2921   64.5116   79.5572 H   0  0  0  0  0  0  0  0  0  0  0  0
   -6.9319   62.0344   80.1286 H   0  0  0  0  0  0  0  0  0  0  0  0
    2.8690   61.8439   73.3075 H   0  0  0  0  0  0  0  0  0  0  0  0
    0.9522   59.4643   73.8729 H   0  0  0  0  0  0  0  0  0  0  0  0
    2.6467   57.9414   74.3117 H   0  0  0  0  0  0  0  0  0  0  0  0
    4.8714   60.0410   74.3126 H   0  0  0  0  0  0  0  0  0  0  0  0
    4.8774   58.4657   73.4395 H   0  0  0  0  0  0  0  0  0  0  0  0
    3.0210   59.1283   72.0733 H   0  0  0  0  0  0  0  0  0  0  0  0
    3.4672   58.5286   76.9364 H   0  0  0  0  0  0  0  0  0  0  0  0
    3.8184   57.0355   76.0014 H   0  0  0  0  0  0  0  0  0  0  0  0
    4.9950   58.3928   76.0014 H   0  0  0  0  0  0  0  0  0  0  0  0
    5.3912   60.0664   71.8724 H   0  0  0  0  0  0  0  0  0  0  0  0
    4.8746   62.1264   73.1909 H   0  0  0  0  0  0  0  0  0  0  0  0
    5.8391   62.3321   71.6896 H   0  0  0  0  0  0  0  0  0  0  0  0
    4.0845   62.7165   71.6896 H   0  0  0  0  0  0  0  0  0  0  0  0
    3.3722   59.9670   70.0389 H   0  0  0  0  0  0  0  0  0  0  0  0
    4.2635   61.5024   69.7661 H   0  0  0  0  0  0  0  0  0  0  0  0
    5.1474   59.9387   69.7661 H   0  0  0  0  0  0  0  0  0  0  0  0
    2.4385   64.4434   71.4802 H   0  0  0  0  0  0  0  0  0  0  0  0
    3.3004   64.1778   69.9267 H   0  0  0  0  0  0  0  0  0  0  0  0
    1.6397   64.8624   69.9267 H   0  0  0  0  0  0  0  0  0  0  0  0
    1.0060   62.7188   69.5273 H   0  0  0  0  0  0  0  0  0  0  0  0
    2.5694   62.0528   70.1605 H   0  0  0  0  0  0  0  0  0  0  0  0
    0.0105   57.8913   76.8563 H   0  0  0  0  0  0  0  0  0  0  0  0
   -0.3050   56.2681   73.5557 H   0  0  0  0  0  0  0  0  0  0  0  0
    2.5341   55.3135   74.2684 H   0  0  0  0  0  0  0  0  0  0  0  0
    1.5919   54.6351   72.8977 H   0  0  0  0  0  0  0  0  0  0  0  0
    2.0546   56.3708   72.8977 H   0  0  0  0  0  0  0  0  0  0  0  0
    0.4535   53.7415   74.6216 H   0  0  0  0  0  0  0  0  0  0  0  0
   -0.8301   56.1741   77.8634 H   0  0  0  0  0  0  0  0  0  0  0  0
   -1.9911   55.9454   76.4705 H   0  0  0  0  0  0  0  0  0  0  0  0
    0.9769   54.5696   78.1872 H   0  0  0  0  0  0  0  0  0  0  0  0
    1.5832   53.6137   76.7925 H   0  0  0  0  0  0  0  0  0  0  0  0
    1.7432   55.4028   76.7925 H   0  0  0  0  0  0  0  0  0  0  0  0
   -0.6992   52.7848   78.7223 H   0  0  0  0  0  0  0  0  0  0  0  0
   -1.1097   51.6513   77.3907 H   0  0  0  0  0  0  0  0  0  0  0  0
    0.4726   52.5015   77.3907 H   0  0  0  0  0  0  0  0  0  0  0  0
   -2.1621   54.4017   75.0816 H   0  0  0  0  0  0  0  0  0  0  0  0
  2  1  1  0
  3  2  1  0
  4  2  1  0
  5  4  1  0
  6  5  1  0
  7  5  1  0
  8  7  2  0
  9  7  1  0
 10  9  1  0
 11 10  1  0
 12 11  1  0
 13 12  1  0
 14 13  1  0
 15 14  2  0
 16 14  1  0
 17 16  1  0
 18 17  1  0
 18  1  1  0
 19 18  1  0
 20 16  1  0
 21 13  1  0
 22 11  1  0
 23 10  1  0
 24 23  1  0
 18 25  1  1
 26 12  1  0
 11 27  1  1
 28  1  1  0
 30 29  1  0
 30 28  1  0
 31 30  1  0
 32 31  1  0
 33 32  1  0
 34 33  1  0
 34 29  1  0
 35 32  1  0
 36 34  1  0
 37 36  1  0
 38 36  1  0
 39 29  1  0
 40 39  1  0
 41 40  2  0
 43 42  1  0
 43 40  1  0
 44  4  1  0
 45 44  1  0
 46 45  1  0
 47 46  1  0
 48 47  1  0
 49 47  1  0
 50 49  1  0
 51 45  1  0
 51 50  1  0
 52 50  1  0
 50 53  1  1
 54 53  1  0
 55 49  1  0
  1 56  1  1
  2 57  1  6
  3 58  1  0
  3 59  1  0
  3 60  1  0
  4 61  1  1
  5 62  1  6
  6 63  1  0
  6 64  1  0
  6 65  1  0
 10 66  1  1
 12 67  1  1
 13 68  1  6
 16 69  1  1
 17 70  1  0
 17 71  1  0
 19 72  1  0
 19 73  1  0
 19 74  1  0
 20 75  1  0
 20 76  1  0
 20 77  1  0
 21 78  1  0
 21 79  1  0
 21 80  1  0
 22 81  1  0
 22 82  1  0
 22 83  1  0
 23 84  1  0
 23 85  1  0
 24 86  1  0
 24 87  1  0
 24 88  1  0
 25 89  1  0
 26 90  1  0
 27 91  1  0
 29 92  1  1
 30 93  1  6
 32 94  1  6
 33 95  1  0
 33 96  1  0
 34 97  1  6
 35 98  1  0
 35 99  1  0
 35100  1  0
 36101  1  0
 37102  1  0
 37103  1  0
 37104  1  0
 38105  1  0
 38106  1  0
 38107  1  0
 42108  1  0
 42109  1  0
 42110  1  0
 43111  1  0
 43112  1  0
 45113  1  1
 47114  1  6
 48115  1  0
 48116  1  0
 48117  1  0
 49118  1  1
 51119  1  0
 51120  1  0
 52121  1  0
 52122  1  0
 52123  1  0
 54124  1  0
 54125  1  0
 54126  1  0
 55127  1  0
M  CHG  1  36   1
M  END
>  <score>  (9) 
-5.773

$$$$
