=
     RDKit          3D

 44 43  0  0  0  0  0  0  0  0999 V2000
   -0.0900   67.4540   67.0710 C   0  0  0  0  0  0  0  0  0  0  0  0
   -1.0870   68.4860   66.9950 O   0  0  0  0  0  0  0  0  0  0  0  0
   -0.5550   68.9120   64.8940 N   0  0  0  0  0  0  0  0  0  0  0  0
   -1.5890   68.7280   65.7590 C   0  0  0  0  0  0  0  0  0  0  0  0
   -2.7730   68.7640   65.4670 O   0  0  0  0  0  0  0  0  0  0  0  0
   -0.7420   69.0910   63.4730 C   0  0  0  0  0  0  0  0  0  0  0  0
    0.3470   68.3790   62.6720 C   0  0  0  0  0  0  0  0  0  0  0  0
    2.8840   68.6420   62.6430 C   0  0  0  0  0  0  0  0  0  0  0  0
    1.6590   68.2220   63.4410 C   0  0  0  0  0  0  0  0  0  0  0  0
    1.0520   67.9000   67.9790 C   0  0  0  0  0  0  0  0  0  0  0  0
    1.3680   69.3930   67.8750 C   0  0  0  0  0  0  0  0  0  0  0  0
    2.8700   69.6920   67.8990 C   0  0  0  0  0  0  0  0  0  0  0  0
    3.5440   69.5040   66.5350 C   0  0  0  0  0  0  0  0  0  0  0  0
    4.9970   69.9830   66.5090 C   0  0  0  0  0  0  0  0  0  0  0  0
    5.5700   70.2450   67.9070 C   0  0  0  0  0  0  0  0  0  0  0  0
    6.4780   71.4670   67.9970 C   0  0  0  0  0  0  0  0  0  0  0  0
    5.7140   72.6600   68.1070 O   0  0  0  0  0  0  0  0  0  0  0  0
   -0.5434   66.5383   67.4784 H   0  0  0  0  0  0  0  0  0  0  0  0
    0.3047   67.2573   66.0633 H   0  0  0  0  0  0  0  0  0  0  0  0
    0.4041   68.9242   65.2693 H   0  0  0  0  0  0  0  0  0  0  0  0
   -1.7220   68.6815   63.1868 H   0  0  0  0  0  0  0  0  0  0  0  0
   -0.6875   70.1668   63.2500 H   0  0  0  0  0  0  0  0  0  0  0  0
   -0.0189   67.3785   62.3980 H   0  0  0  0  0  0  0  0  0  0  0  0
    0.5595   68.9991   61.7886 H   0  0  0  0  0  0  0  0  0  0  0  0
    3.6939   68.9197   63.3336 H   0  0  0  0  0  0  0  0  0  0  0  0
    3.2132   67.8054   62.0092 H   0  0  0  0  0  0  0  0  0  0  0  0
    2.6307   69.5046   62.0092 H   0  0  0  0  0  0  0  0  0  0  0  0
    1.7729   67.1649   63.7231 H   0  0  0  0  0  0  0  0  0  0  0  0
    1.6014   68.8839   64.3177 H   0  0  0  0  0  0  0  0  0  0  0  0
    0.7775   67.6741   69.0200 H   0  0  0  0  0  0  0  0  0  0  0  0
    1.9522   67.3560   67.6570 H   0  0  0  0  0  0  0  0  0  0  0  0
    0.9501   69.7745   66.9317 H   0  0  0  0  0  0  0  0  0  0  0  0
    0.9215   69.8848   68.7518 H   0  0  0  0  0  0  0  0  0  0  0  0
    3.0141   70.7343   68.2197 H   0  0  0  0  0  0  0  0  0  0  0  0
    3.3348   68.9781   68.5950 H   0  0  0  0  0  0  0  0  0  0  0  0
    3.5240   68.4342   66.2797 H   0  0  0  0  0  0  0  0  0  0  0  0
    2.9862   70.1129   65.8083 H   0  0  0  0  0  0  0  0  0  0  0  0
    5.6105   69.2132   66.0180 H   0  0  0  0  0  0  0  0  0  0  0  0
    5.0176   70.9373   65.9623 H   0  0  0  0  0  0  0  0  0  0  0  0
    4.7295   70.3890   68.6018 H   0  0  0  0  0  0  0  0  0  0  0  0
    6.1911   69.3731   68.1601 H   0  0  0  0  0  0  0  0  0  0  0  0
    7.1246   71.3707   68.8816 H   0  0  0  0  0  0  0  0  0  0  0  0
    7.0849   71.5218   67.0812 H   0  0  0  0  0  0  0  0  0  0  0  0
    5.5755   72.8762   69.0631 H   0  0  0  0  0  0  0  0  0  0  0  0
  2  1  1  0
  4  3  1  0
  4  2  1  0
  5  4  2  0
  6  3  1  0
  7  6  1  0
  9  8  1  0
  9  7  1  0
 10  1  1  0
 11 10  1  0
 12 11  1  0
 13 12  1  0
 14 13  1  0
 15 14  1  0
 16 15  1  0
 17 16  1  0
  1 18  1  0
  1 19  1  0
  3 20  1  0
  6 21  1  0
  6 22  1  0
  7 23  1  0
  7 24  1  0
  8 25  1  0
  8 26  1  0
  8 27  1  0
  9 28  1  0
  9 29  1  0
 10 30  1  0
 10 31  1  0
 11 32  1  0
 11 33  1  0
 12 34  1  0
 12 35  1  0
 13 36  1  0
 13 37  1  0
 14 38  1  0
 14 39  1  0
 15 40  1  0
 15 41  1  0
 16 42  1  0
 16 43  1  0
 17 44  1  0
M  END
>  <score>  (1) 
-6.351

$$$$
=
     RDKit          3D

 44 43  0  0  0  0  0  0  0  0999 V2000
    3.0870   68.2970   62.9750 C   0  0  0  0  0  0  0  0  0  0  0  0
    3.0460   67.3070   64.0160 O   0  0  0  0  0  0  0  0  0  0  0  0
    1.2820   68.3880   64.7920 N   0  0  0  0  0  0  0  0  0  0  0  0
    1.8520   67.1610   64.6410 C   0  0  0  0  0  0  0  0  0  0  0  0
    1.3610   66.1030   65.0000 O   0  0  0  0  0  0  0  0  0  0  0  0
   -0.0430   68.5770   65.3310 C   0  0  0  0  0  0  0  0  0  0  0  0
    0.0050   68.9590   66.8100 C   0  0  0  0  0  0  0  0  0  0  0  0
    1.0120   67.3070   68.4730 C   0  0  0  0  0  0  0  0  0  0  0  0
   -0.2410   67.7770   67.7490 C   0  0  0  0  0  0  0  0  0  0  0  0
    4.4100   69.0550   63.0300 C   0  0  0  0  0  0  0  0  0  0  0  0
    5.3520   68.5610   64.1300 C   0  0  0  0  0  0  0  0  0  0  0  0
    5.6020   69.6070   65.2190 C   0  0  0  0  0  0  0  0  0  0  0  0
    4.4030   69.8040   66.1530 C   0  0  0  0  0  0  0  0  0  0  0  0
    4.8050   70.0170   67.6140 C   0  0  0  0  0  0  0  0  0  0  0  0
    6.3010   70.2990   67.7930 C   0  0  0  0  0  0  0  0  0  0  0  0
    6.6170   71.6430   68.4400 C   0  0  0  0  0  0  0  0  0  0  0  0
    5.6560   72.6230   68.0690 O   0  0  0  0  0  0  0  0  0  0  0  0
    2.9907   67.8022   61.9973 H   0  0  0  0  0  0  0  0  0  0  0  0
    2.2578   69.0057   63.1168 H   0  0  0  0  0  0  0  0  0  0  0  0
    1.8208   69.2188   64.5087 H   0  0  0  0  0  0  0  0  0  0  0  0
   -0.5462   69.3787   64.7706 H   0  0  0  0  0  0  0  0  0  0  0  0
   -0.5933   67.6293   65.2363 H   0  0  0  0  0  0  0  0  0  0  0  0
    0.9976   69.3788   67.0300 H   0  0  0  0  0  0  0  0  0  0  0  0
   -0.8012   69.6868   66.9846 H   0  0  0  0  0  0  0  0  0  0  0  0
    0.8519   67.3671   69.5596 H   0  0  0  0  0  0  0  0  0  0  0  0
    1.2295   66.2661   68.1914 H   0  0  0  0  0  0  0  0  0  0  0  0
    1.8604   67.9480   68.1914 H   0  0  0  0  0  0  0  0  0  0  0  0
   -0.6365   66.9384   67.1571 H   0  0  0  0  0  0  0  0  0  0  0  0
   -0.9511   68.1162   68.5175 H   0  0  0  0  0  0  0  0  0  0  0  0
    4.9170   68.9410   62.0605 H   0  0  0  0  0  0  0  0  0  0  0  0
    4.1719   70.1049   63.2558 H   0  0  0  0  0  0  0  0  0  0  0  0
    4.9086   67.6688   64.5963 H   0  0  0  0  0  0  0  0  0  0  0  0
    6.3208   68.3399   63.6582 H   0  0  0  0  0  0  0  0  0  0  0  0
    6.4650   69.2859   65.8208 H   0  0  0  0  0  0  0  0  0  0  0  0
    5.7847   70.5672   64.7144 H   0  0  0  0  0  0  0  0  0  0  0  0
    3.8371   70.6843   65.8143 H   0  0  0  0  0  0  0  0  0  0  0  0
    3.8012   68.8842   66.1105 H   0  0  0  0  0  0  0  0  0  0  0  0
    4.2380   70.8716   68.0117 H   0  0  0  0  0  0  0  0  0  0  0  0
    4.5807   69.0854   68.1542 H   0  0  0  0  0  0  0  0  0  0  0  0
    6.7274   69.5051   68.4238 H   0  0  0  0  0  0  0  0  0  0  0  0
    6.7376   70.3268   66.7837 H   0  0  0  0  0  0  0  0  0  0  0  0
    6.6092   71.5269   69.5338 H   0  0  0  0  0  0  0  0  0  0  0  0
    7.6079   71.9744   68.0960 H   0  0  0  0  0  0  0  0  0  0  0  0
    5.2624   73.0243   68.8839 H   0  0  0  0  0  0  0  0  0  0  0  0
  2  1  1  0
  4  3  1  0
  4  2  1  0
  5  4  2  0
  6  3  1  0
  7  6  1  0
  9  8  1  0
  9  7  1  0
 10  1  1  0
 11 10  1  0
 12 11  1  0
 13 12  1  0
 14 13  1  0
 15 14  1  0
 16 15  1  0
 17 16  1  0
  1 18  1  0
  1 19  1  0
  3 20  1  0
  6 21  1  0
  6 22  1  0
  7 23  1  0
  7 24  1  0
  8 25  1  0
  8 26  1  0
  8 27  1  0
  9 28  1  0
  9 29  1  0
 10 30  1  0
 10 31  1  0
 11 32  1  0
 11 33  1  0
 12 34  1  0
 12 35  1  0
 13 36  1  0
 13 37  1  0
 14 38  1  0
 14 39  1  0
 15 40  1  0
 15 41  1  0
 16 42  1  0
 16 43  1  0
 17 44  1  0
M  END
>  <score>  (2) 
-6.271

$$$$
=
     RDKit          3D

 44 43  0  0  0  0  0  0  0  0999 V2000
    1.3050   66.3120   69.9920 C   0  0  0  0  0  0  0  0  0  0  0  0
    0.2900   66.4060   68.9780 O   0  0  0  0  0  0  0  0  0  0  0  0
    1.1020   68.4050   68.5030 N   0  0  0  0  0  0  0  0  0  0  0  0
    0.5430   67.2820   67.9750 C   0  0  0  0  0  0  0  0  0  0  0  0
    0.3160   67.0930   66.7910 O   0  0  0  0  0  0  0  0  0  0  0  0
    1.5850   69.4980   67.6930 C   0  0  0  0  0  0  0  0  0  0  0  0
    3.0980   69.6660   67.8260 C   0  0  0  0  0  0  0  0  0  0  0  0
    5.3080   69.9050   66.5750 C   0  0  0  0  0  0  0  0  0  0  0  0
    3.8440   69.4980   66.5010 C   0  0  0  0  0  0  0  0  0  0  0  0
    1.2610   64.9330   70.6430 C   0  0  0  0  0  0  0  0  0  0  0  0
    2.5390   64.1170   70.4350 C   0  0  0  0  0  0  0  0  0  0  0  0
    2.2770   62.7350   69.8330 C   0  0  0  0  0  0  0  0  0  0  0  0
    3.4940   62.1510   69.1080 C   0  0  0  0  0  0  0  0  0  0  0  0
    3.8150   60.7150   69.5260 C   0  0  0  0  0  0  0  0  0  0  0  0
    4.1240   60.5780   71.0220 C   0  0  0  0  0  0  0  0  0  0  0  0
    5.5210   61.0410   71.4220 C   0  0  0  0  0  0  0  0  0  0  0  0
    5.5280   61.5390   72.7530 O   0  0  0  0  0  0  0  0  0  0  0  0
    2.2932   66.4683   69.5348 H   0  0  0  0  0  0  0  0  0  0  0  0
    1.1245   67.0805   70.7580 H   0  0  0  0  0  0  0  0  0  0  0  0
    1.1842   68.4784   69.5271 H   0  0  0  0  0  0  0  0  0  0  0  0
    1.3385   69.2987   66.6397 H   0  0  0  0  0  0  0  0  0  0  0  0
    1.1026   70.4241   68.0390 H   0  0  0  0  0  0  0  0  0  0  0  0
    3.3044   70.6729   68.2177 H   0  0  0  0  0  0  0  0  0  0  0  0
    3.4553   68.8765   68.5036 H   0  0  0  0  0  0  0  0  0  0  0  0
    5.6122   69.9896   67.6287 H   0  0  0  0  0  0  0  0  0  0  0  0
    5.9257   69.1445   66.0749 H   0  0  0  0  0  0  0  0  0  0  0  0
    5.4446   70.8752   66.0749 H   0  0  0  0  0  0  0  0  0  0  0  0
    3.3477   70.1188   65.7405 H   0  0  0  0  0  0  0  0  0  0  0  0
    3.8173   68.4280   66.2472 H   0  0  0  0  0  0  0  0  0  0  0  0
    1.1035   65.0634   71.7238 H   0  0  0  0  0  0  0  0  0  0  0  0
    0.4412   64.3764   70.1653 H   0  0  0  0  0  0  0  0  0  0  0  0
    3.2035   64.6736   69.7578 H   0  0  0  0  0  0  0  0  0  0  0  0
    2.9946   63.9630   71.4243 H   0  0  0  0  0  0  0  0  0  0  0  0
    1.9910   62.0491   70.6440 H   0  0  0  0  0  0  0  0  0  0  0  0
    1.4767   62.8501   69.0871 H   0  0  0  0  0  0  0  0  0  0  0  0
    3.2953   62.1637   68.0262 H   0  0  0  0  0  0  0  0  0  0  0  0
    4.3621   62.7707   69.3770 H   0  0  0  0  0  0  0  0  0  0  0  0
    2.9494   60.0794   69.2878 H   0  0  0  0  0  0  0  0  0  0  0  0
    4.7163   60.4072   68.9757 H   0  0  0  0  0  0  0  0  0  0  0  0
    3.3899   61.1768   71.5811 H   0  0  0  0  0  0  0  0  0  0  0  0
    4.0700   59.5047   71.2566 H   0  0  0  0  0  0  0  0  0  0  0  0
    6.2160   60.1913   71.3516 H   0  0  0  0  0  0  0  0  0  0  0  0
    5.8317   61.8485   70.7428 H   0  0  0  0  0  0  0  0  0  0  0  0
    5.5173   60.7805   73.3892 H   0  0  0  0  0  0  0  0  0  0  0  0
  2  1  1  0
  4  3  1  0
  4  2  1  0
  5  4  2  0
  6  3  1  0
  7  6  1  0
  9  8  1  0
  9  7  1  0
 10  1  1  0
 11 10  1  0
 12 11  1  0
 13 12  1  0
 14 13  1  0
 15 14  1  0
 16 15  1  0
 17 16  1  0
  1 18  1  0
  1 19  1  0
  3 20  1  0
  6 21  1  0
  6 22  1  0
  7 23  1  0
  7 24  1  0
  8 25  1  0
  8 26  1  0
  8 27  1  0
  9 28  1  0
  9 29  1  0
 10 30  1  0
 10 31  1  0
 11 32  1  0
 11 33  1  0
 12 34  1  0
 12 35  1  0
 13 36  1  0
 13 37  1  0
 14 38  1  0
 14 39  1  0
 15 40  1  0
 15 41  1  0
 16 42  1  0
 16 43  1  0
 17 44  1  0
M  END
>  <score>  (3) 
-6.194

$$$$
=
     RDKit          3D

 44 43  0  0  0  0  0  0  0  0999 V2000
    2.6430   68.9210   64.8770 C   0  0  0  0  0  0  0  0  0  0  0  0
    1.4700   68.9510   65.7070 O   0  0  0  0  0  0  0  0  0  0  0  0
    0.5260   68.1160   67.5220 N   0  0  0  0  0  0  0  0  0  0  0  0
    1.2000   67.8060   66.3810 C   0  0  0  0  0  0  0  0  0  0  0  0
    1.5010   66.6800   66.0200 O   0  0  0  0  0  0  0  0  0  0  0  0
   -0.0010   67.1160   68.4200 C   0  0  0  0  0  0  0  0  0  0  0  0
    0.9870   66.7960   69.5410 C   0  0  0  0  0  0  0  0  0  0  0  0
    0.4410   64.5130   70.5390 C   0  0  0  0  0  0  0  0  0  0  0  0
    0.3570   66.0230   70.7010 C   0  0  0  0  0  0  0  0  0  0  0  0
    3.8960   68.9740   65.7450 C   0  0  0  0  0  0  0  0  0  0  0  0
    5.0610   69.7210   65.0920 C   0  0  0  0  0  0  0  0  0  0  0  0
    6.0130   70.3550   66.1110 C   0  0  0  0  0  0  0  0  0  0  0  0
    5.6430   70.0350   67.5630 C   0  0  0  0  0  0  0  0  0  0  0  0
    5.2540   71.2730   68.3730 C   0  0  0  0  0  0  0  0  0  0  0  0
    4.1840   70.9880   69.4330 C   0  0  0  0  0  0  0  0  0  0  0  0
    3.1670   69.9250   69.0320 C   0  0  0  0  0  0  0  0  0  0  0  0
    1.9960   70.5210   68.4900 O   0  0  0  0  0  0  0  0  0  0  0  0
    2.6478   67.9932   64.2861 H   0  0  0  0  0  0  0  0  0  0  0  0
    2.6322   69.7910   64.2040 H   0  0  0  0  0  0  0  0  0  0  0  0
    0.3855   69.1093   67.7555 H   0  0  0  0  0  0  0  0  0  0  0  0
   -0.9358   67.4900   68.8630 H   0  0  0  0  0  0  0  0  0  0  0  0
   -0.1818   66.1957   67.8452 H   0  0  0  0  0  0  0  0  0  0  0  0
    1.8057   66.1920   69.1228 H   0  0  0  0  0  0  0  0  0  0  0  0
    1.3435   67.7552   69.9445 H   0  0  0  0  0  0  0  0  0  0  0  0
    0.4674   64.0387   71.5311 H   0  0  0  0  0  0  0  0  0  0  0  0
   -0.4386   64.1542   69.9844 H   0  0  0  0  0  0  0  0  0  0  0  0
    1.3549   64.2540   69.9844 H   0  0  0  0  0  0  0  0  0  0  0  0
   -0.7032   66.3071   70.7740 H   0  0  0  0  0  0  0  0  0  0  0  0
    0.9215   66.2834   71.6085 H   0  0  0  0  0  0  0  0  0  0  0  0
    3.6442   69.4792   66.6891 H   0  0  0  0  0  0  0  0  0  0  0  0
    4.2248   67.9360   65.9014 H   0  0  0  0  0  0  0  0  0  0  0  0
    5.6308   69.0107   64.4749 H   0  0  0  0  0  0  0  0  0  0  0  0
    4.6327   70.5365   64.4907 H   0  0  0  0  0  0  0  0  0  0  0  0
    7.0298   69.9818   65.9189 H   0  0  0  0  0  0  0  0  0  0  0  0
    5.9434   71.4460   65.9887 H   0  0  0  0  0  0  0  0  0  0  0  0
    4.7928   69.3370   67.5614 H   0  0  0  0  0  0  0  0  0  0  0  0
    6.5342   69.5999   68.0390 H   0  0  0  0  0  0  0  0  0  0  0  0
    6.1526   71.6575   68.8776 H   0  0  0  0  0  0  0  0  0  0  0  0
    4.8309   72.0050   67.6693 H   0  0  0  0  0  0  0  0  0  0  0  0
    4.6895   70.6517   70.3503 H   0  0  0  0  0  0  0  0  0  0  0  0
    3.6221   71.9235   69.5711 H   0  0  0  0  0  0  0  0  0  0  0  0
    3.6166   69.2633   68.2770 H   0  0  0  0  0  0  0  0  0  0  0  0
    2.8866   69.3517   69.9279 H   0  0  0  0  0  0  0  0  0  0  0  0
    1.4069   70.8208   69.2270 H   0  0  0  0  0  0  0  0  0  0  0  0
  2  1  1  0
  4  3  1  0
  4  2  1  0
  5  4  2  0
  6  3  1  0
  7  6  1  0
  9  8  1  0
  9  7  1  0
 10  1  1  0
 11 10  1  0
 12 11  1  0
 13 12  1  0
 14 13  1  0
 15 14  1  0
 16 15  1  0
 17 16  1  0
  1 18  1  0
  1 19  1  0
  3 20  1  0
  6 21  1  0
  6 22  1  0
  7 23  1  0
  7 24  1  0
  8 25  1  0
  8 26  1  0
  8 27  1  0
  9 28  1  0
  9 29  1  0
 10 30  1  0
 10 31  1  0
 11 32  1  0
 11 33  1  0
 12 34  1  0
 12 35  1  0
 13 36  1  0
 13 37  1  0
 14 38  1  0
 14 39  1  0
 15 40  1  0
 15 41  1  0
 16 42  1  0
 16 43  1  0
 17 44  1  0
M  END
>  <score>  (4) 
-6.177

$$$$
=
     RDKit          3D

 44 43  0  0  0  0  0  0  0  0999 V2000
    1.7660   67.1220   64.8710 C   0  0  0  0  0  0  0  0  0  0  0  0
    0.4190   67.0320   65.3650 O   0  0  0  0  0  0  0  0  0  0  0  0
    1.1250   67.2140   67.4510 N   0  0  0  0  0  0  0  0  0  0  0  0
    0.1890   67.6360   66.5570 C   0  0  0  0  0  0  0  0  0  0  0  0
   -0.7030   68.4360   66.7890 O   0  0  0  0  0  0  0  0  0  0  0  0
    1.2260   67.7430   68.7910 C   0  0  0  0  0  0  0  0  0  0  0  0
    1.4780   66.6340   69.8110 C   0  0  0  0  0  0  0  0  0  0  0  0
    0.5030   64.5630   70.9350 C   0  0  0  0  0  0  0  0  0  0  0  0
    0.2170   65.8510   70.1780 C   0  0  0  0  0  0  0  0  0  0  0  0
    2.0660   68.5550   64.4410 C   0  0  0  0  0  0  0  0  0  0  0  0
    3.5410   68.9380   64.5770 C   0  0  0  0  0  0  0  0  0  0  0  0
    3.9320   69.3220   66.0060 C   0  0  0  0  0  0  0  0  0  0  0  0
    5.2970   70.0110   66.0940 C   0  0  0  0  0  0  0  0  0  0  0  0
    5.8550   70.0680   67.5180 C   0  0  0  0  0  0  0  0  0  0  0  0
    5.2130   71.1670   68.3730 C   0  0  0  0  0  0  0  0  0  0  0  0
    4.5090   70.6610   69.6270 C   0  0  0  0  0  0  0  0  0  0  0  0
    3.1000   70.6350   69.4430 O   0  0  0  0  0  0  0  0  0  0  0  0
    2.4666   66.8252   65.6654 H   0  0  0  0  0  0  0  0  0  0  0  0
    1.8802   66.4525   64.0057 H   0  0  0  0  0  0  0  0  0  0  0  0
    1.7910   66.4847   67.1586 H   0  0  0  0  0  0  0  0  0  0  0  0
    2.0582   68.4612   68.8304 H   0  0  0  0  0  0  0  0  0  0  0  0
    0.2742   68.2340   69.0418 H   0  0  0  0  0  0  0  0  0  0  0  0
    2.2138   65.9331   69.3899 H   0  0  0  0  0  0  0  0  0  0  0  0
    1.8421   67.1145   70.7311 H   0  0  0  0  0  0  0  0  0  0  0  0
    0.4601   64.7564   72.0170 H   0  0  0  0  0  0  0  0  0  0  0  0
   -0.2489   63.8059   70.6677 H   0  0  0  0  0  0  0  0  0  0  0  0
    1.5047   64.1953   70.6677 H   0  0  0  0  0  0  0  0  0  0  0  0
   -0.3186   65.5987   69.2509 H   0  0  0  0  0  0  0  0  0  0  0  0
   -0.3805   66.4920   70.8430 H   0  0  0  0  0  0  0  0  0  0  0  0
    1.7721   68.6709   63.3873 H   0  0  0  0  0  0  0  0  0  0  0  0
    1.4970   69.2185   65.1088 H   0  0  0  0  0  0  0  0  0  0  0  0
    4.1556   68.0810   64.2641 H   0  0  0  0  0  0  0  0  0  0  0  0
    3.7108   69.8201   63.9421 H   0  0  0  0  0  0  0  0  0  0  0  0
    3.1688   70.0061   66.4053 H   0  0  0  0  0  0  0  0  0  0  0  0
    3.9979   68.3909   66.5881 H   0  0  0  0  0  0  0  0  0  0  0  0
    6.0083   69.4590   65.4620 H   0  0  0  0  0  0  0  0  0  0  0  0
    5.1609   71.0487   65.7553 H   0  0  0  0  0  0  0  0  0  0  0  0
    5.6754   69.0973   68.0033 H   0  0  0  0  0  0  0  0  0  0  0  0
    6.9279   70.2980   67.4405 H   0  0  0  0  0  0  0  0  0  0  0  0
    6.0026   71.8680   68.6813 H   0  0  0  0  0  0  0  0  0  0  0  0
    4.4399   71.6383   67.7484 H   0  0  0  0  0  0  0  0  0  0  0  0
    4.8615   69.6436   69.8520 H   0  0  0  0  0  0  0  0  0  0  0  0
    4.7419   71.3416   70.4592 H   0  0  0  0  0  0  0  0  0  0  0  0
    2.6520   70.6267   70.3258 H   0  0  0  0  0  0  0  0  0  0  0  0
  2  1  1  0
  4  3  1  0
  4  2  1  0
  5  4  2  0
  6  3  1  0
  7  6  1  0
  9  8  1  0
  9  7  1  0
 10  1  1  0
 11 10  1  0
 12 11  1  0
 13 12  1  0
 14 13  1  0
 15 14  1  0
 16 15  1  0
 17 16  1  0
  1 18  1  0
  1 19  1  0
  3 20  1  0
  6 21  1  0
  6 22  1  0
  7 23  1  0
  7 24  1  0
  8 25  1  0
  8 26  1  0
  8 27  1  0
  9 28  1  0
  9 29  1  0
 10 30  1  0
 10 31  1  0
 11 32  1  0
 11 33  1  0
 12 34  1  0
 12 35  1  0
 13 36  1  0
 13 37  1  0
 14 38  1  0
 14 39  1  0
 15 40  1  0
 15 41  1  0
 16 42  1  0
 16 43  1  0
 17 44  1  0
M  END
>  <score>  (5) 
-6.173

$$$$
=
     RDKit          3D

 44 43  0  0  0  0  0  0  0  0999 V2000
    1.5230   67.7310   69.0070 C   0  0  0  0  0  0  0  0  0  0  0  0
    0.4640   66.7780   69.1910 O   0  0  0  0  0  0  0  0  0  0  0  0
    1.5780   65.0010   69.8880 N   0  0  0  0  0  0  0  0  0  0  0  0
    0.6250   65.9140   70.2230 C   0  0  0  0  0  0  0  0  0  0  0  0
    0.0230   65.9520   71.2840 O   0  0  0  0  0  0  0  0  0  0  0  0
    2.0620   63.9980   70.8060 C   0  0  0  0  0  0  0  0  0  0  0  0
    3.5600   63.7530   70.6260 C   0  0  0  0  0  0  0  0  0  0  0  0
    2.9260   61.7350   69.2010 C   0  0  0  0  0  0  0  0  0  0  0  0
    3.8910   62.8930   69.4050 C   0  0  0  0  0  0  0  0  0  0  0  0
    1.1710   68.6860   67.8700 C   0  0  0  0  0  0  0  0  0  0  0  0
    2.2250   68.7300   66.7610 C   0  0  0  0  0  0  0  0  0  0  0  0
    3.4360   69.5950   67.1190 C   0  0  0  0  0  0  0  0  0  0  0  0
    4.6150   69.4100   66.1570 C   0  0  0  0  0  0  0  0  0  0  0  0
    5.6740   70.5070   66.2830 C   0  0  0  0  0  0  0  0  0  0  0  0
    6.6080   70.3090   67.4820 C   0  0  0  0  0  0  0  0  0  0  0  0
    6.5690   71.4400   68.5050 C   0  0  0  0  0  0  0  0  0  0  0  0
    5.8240   72.5450   68.0120 O   0  0  0  0  0  0  0  0  0  0  0  0
    1.6626   68.3047   69.9351 H   0  0  0  0  0  0  0  0  0  0  0  0
    2.4514   67.1967   68.7567 H   0  0  0  0  0  0  0  0  0  0  0  0
    1.9713   65.0274   68.9364 H   0  0  0  0  0  0  0  0  0  0  0  0
    1.8760   64.3361   71.8361 H   0  0  0  0  0  0  0  0  0  0  0  0
    1.5305   63.0568   70.6019 H   0  0  0  0  0  0  0  0  0  0  0  0
    4.0617   64.7255   70.5142 H   0  0  0  0  0  0  0  0  0  0  0  0
    3.9092   63.2055   71.5139 H   0  0  0  0  0  0  0  0  0  0  0  0
    2.6043   61.3490   70.1795 H   0  0  0  0  0  0  0  0  0  0  0  0
    2.0479   62.0843   68.6380 H   0  0  0  0  0  0  0  0  0  0  0  0
    3.4279   60.9343   68.6380 H   0  0  0  0  0  0  0  0  0  0  0  0
    4.9044   62.4841   69.5311 H   0  0  0  0  0  0  0  0  0  0  0  0
    3.8109   63.5416   68.5202 H   0  0  0  0  0  0  0  0  0  0  0  0
    0.2153   68.3656   67.4295 H   0  0  0  0  0  0  0  0  0  0  0  0
    1.1136   69.6960   68.3020 H   0  0  0  0  0  0  0  0  0  0  0  0
    2.5722   67.7044   66.5668 H   0  0  0  0  0  0  0  0  0  0  0  0
    1.7513   69.1785   65.8753 H   0  0  0  0  0  0  0  0  0  0  0  0
    3.1298   70.6513   67.0978 H   0  0  0  0  0  0  0  0  0  0  0  0
    3.7766   69.2838   68.1176 H   0  0  0  0  0  0  0  0  0  0  0  0
    5.0894   68.4403   66.3680 H   0  0  0  0  0  0  0  0  0  0  0  0
    4.2131   69.4598   65.1343 H   0  0  0  0  0  0  0  0  0  0  0  0
    6.2801   70.5150   65.3651 H   0  0  0  0  0  0  0  0  0  0  0  0
    5.1431   71.4582   66.4355 H   0  0  0  0  0  0  0  0  0  0  0  0
    6.3228   69.3759   67.9898 H   0  0  0  0  0  0  0  0  0  0  0  0
    7.6321   70.2835   67.0812 H   0  0  0  0  0  0  0  0  0  0  0  0
    6.0995   71.0731   69.4296 H   0  0  0  0  0  0  0  0  0  0  0  0
    7.5994   71.7710   68.7020 H   0  0  0  0  0  0  0  0  0  0  0  0
    5.4700   73.0701   68.7729 H   0  0  0  0  0  0  0  0  0  0  0  0
  2  1  1  0
  4  3  1  0
  4  2  1  0
  5  4  2  0
  6  3  1  0
  7  6  1  0
  9  8  1  0
  9  7  1  0
 10  1  1  0
 11 10  1  0
 12 11  1  0
 13 12  1  0
 14 13  1  0
 15 14  1  0
 16 15  1  0
 17 16  1  0
  1 18  1  0
  1 19  1  0
  3 20  1  0
  6 21  1  0
  6 22  1  0
  7 23  1  0
  7 24  1  0
  8 25  1  0
  8 26  1  0
  8 27  1  0
  9 28  1  0
  9 29  1  0
 10 30  1  0
 10 31  1  0
 11 32  1  0
 11 33  1  0
 12 34  1  0
 12 35  1  0
 13 36  1  0
 13 37  1  0
 14 38  1  0
 14 39  1  0
 15 40  1  0
 15 41  1  0
 16 42  1  0
 16 43  1  0
 17 44  1  0
M  END
>  <score>  (6) 
-6.166

$$$$
=
     RDKit          3D

 44 43  0  0  0  0  0  0  0  0999 V2000
    3.1660   67.5030   63.6060 C   0  0  0  0  0  0  0  0  0  0  0  0
    3.6790   68.8430   63.5150 O   0  0  0  0  0  0  0  0  0  0  0  0
    4.6690   69.7360   65.2770 N   0  0  0  0  0  0  0  0  0  0  0  0
    4.8750   69.0540   64.1170 C   0  0  0  0  0  0  0  0  0  0  0  0
    5.9590   68.6860   63.6940 O   0  0  0  0  0  0  0  0  0  0  0  0
    5.7290   70.0350   66.2110 C   0  0  0  0  0  0  0  0  0  0  0  0
    5.1910   70.1990   67.6320 C   0  0  0  0  0  0  0  0  0  0  0  0
    7.2110   70.9580   68.9920 C   0  0  0  0  0  0  0  0  0  0  0  0
    5.8590   71.3360   68.4050 C   0  0  0  0  0  0  0  0  0  0  0  0
    1.8120   67.5130   64.3090 C   0  0  0  0  0  0  0  0  0  0  0  0
    1.9000   67.2240   65.8090 C   0  0  0  0  0  0  0  0  0  0  0  0
    1.8810   68.4930   66.6660 C   0  0  0  0  0  0  0  0  0  0  0  0
    0.5890   68.6560   67.4740 C   0  0  0  0  0  0  0  0  0  0  0  0
    0.1780   67.3830   68.2180 C   0  0  0  0  0  0  0  0  0  0  0  0
   -1.2380   66.9110   67.8670 C   0  0  0  0  0  0  0  0  0  0  0  0
   -2.0230   67.8740   66.9840 C   0  0  0  0  0  0  0  0  0  0  0  0
   -3.3150   68.1180   67.5210 O   0  0  0  0  0  0  0  0  0  0  0  0
    3.0488   67.0876   62.5942 H   0  0  0  0  0  0  0  0  0  0  0  0
    3.8692   66.8839   64.1824 H   0  0  0  0  0  0  0  0  0  0  0  0
    3.7143   70.0530   65.4984 H   0  0  0  0  0  0  0  0  0  0  0  0
    6.4599   69.2131   66.1978 H   0  0  0  0  0  0  0  0  0  0  0  0
    6.2002   70.9817   65.9081 H   0  0  0  0  0  0  0  0  0  0  0  0
    4.1115   70.4028   67.5751 H   0  0  0  0  0  0  0  0  0  0  0  0
    5.4093   69.2660   68.1723 H   0  0  0  0  0  0  0  0  0  0  0  0
    7.1515   70.9746   70.0903 H   0  0  0  0  0  0  0  0  0  0  0  0
    7.4876   69.9481   68.6550 H   0  0  0  0  0  0  0  0  0  0  0  0
    7.9713   71.6780   68.6550 H   0  0  0  0  0  0  0  0  0  0  0  0
    5.1935   71.6357   69.2280 H   0  0  0  0  0  0  0  0  0  0  0  0
    6.0335   72.1543   67.6909 H   0  0  0  0  0  0  0  0  0  0  0  0
    1.3559   68.5046   64.1718 H   0  0  0  0  0  0  0  0  0  0  0  0
    1.2088   66.7101   63.8600 H   0  0  0  0  0  0  0  0  0  0  0  0
    1.0442   66.5950   66.0954 H   0  0  0  0  0  0  0  0  0  0  0  0
    2.8603   66.7192   65.9906 H   0  0  0  0  0  0  0  0  0  0  0  0
    2.7287   68.4550   67.3659 H   0  0  0  0  0  0  0  0  0  0  0  0
    1.9490   69.3512   65.9812 H   0  0  0  0  0  0  0  0  0  0  0  0
    0.7365   69.4593   68.2108 H   0  0  0  0  0  0  0  0  0  0  0  0
   -0.2148   68.8916   66.7609 H   0  0  0  0  0  0  0  0  0  0  0  0
    0.8875   66.5827   67.9607 H   0  0  0  0  0  0  0  0  0  0  0  0
    0.1893   67.6138   69.2934 H   0  0  0  0  0  0  0  0  0  0  0  0
   -1.1590   65.9484   67.3405 H   0  0  0  0  0  0  0  0  0  0  0  0
   -1.7882   66.8371   68.8166 H   0  0  0  0  0  0  0  0  0  0  0  0
   -1.4763   68.8260   66.9151 H   0  0  0  0  0  0  0  0  0  0  0  0
   -2.1370   67.4224   65.9875 H   0  0  0  0  0  0  0  0  0  0  0  0
   -3.2684   68.1092   68.5099 H   0  0  0  0  0  0  0  0  0  0  0  0
  2  1  1  0
  4  3  1  0
  4  2  1  0
  5  4  2  0
  6  3  1  0
  7  6  1  0
  9  8  1  0
  9  7  1  0
 10  1  1  0
 11 10  1  0
 12 11  1  0
 13 12  1  0
 14 13  1  0
 15 14  1  0
 16 15  1  0
 17 16  1  0
  1 18  1  0
  1 19  1  0
  3 20  1  0
  6 21  1  0
  6 22  1  0
  7 23  1  0
  7 24  1  0
  8 25  1  0
  8 26  1  0
  8 27  1  0
  9 28  1  0
  9 29  1  0
 10 30  1  0
 10 31  1  0
 11 32  1  0
 11 33  1  0
 12 34  1  0
 12 35  1  0
 13 36  1  0
 13 37  1  0
 14 38  1  0
 14 39  1  0
 15 40  1  0
 15 41  1  0
 16 42  1  0
 16 43  1  0
 17 44  1  0
M  END
>  <score>  (7) 
-6.042

$$$$
=
     RDKit          3D

 44 43  0  0  0  0  0  0  0  0999 V2000
    1.4950   67.1210   64.8200 C   0  0  0  0  0  0  0  0  0  0  0  0
    2.0630   65.8170   65.0270 O   0  0  0  0  0  0  0  0  0  0  0  0
    3.4080   66.5340   63.4270 N   0  0  0  0  0  0  0  0  0  0  0  0
    3.2260   65.5730   64.3740 C   0  0  0  0  0  0  0  0  0  0  0  0
    3.9910   64.6510   64.6040 O   0  0  0  0  0  0  0  0  0  0  0  0
    4.6010   66.6250   62.6200 C   0  0  0  0  0  0  0  0  0  0  0  0
    5.1070   68.0650   62.5320 C   0  0  0  0  0  0  0  0  0  0  0  0
    4.7340   69.4950   64.6110 C   0  0  0  0  0  0  0  0  0  0  0  0
    5.6850   68.5850   63.8480 C   0  0  0  0  0  0  0  0  0  0  0  0
    1.8380   68.0290   65.9970 C   0  0  0  0  0  0  0  0  0  0  0  0
    1.1820   67.6000   67.3120 C   0  0  0  0  0  0  0  0  0  0  0  0
    1.6280   68.4450   68.5080 C   0  0  0  0  0  0  0  0  0  0  0  0
    2.1500   69.8290   68.1080 C   0  0  0  0  0  0  0  0  0  0  0  0
    3.3810   70.2640   68.9070 C   0  0  0  0  0  0  0  0  0  0  0  0
    4.6410   70.4000   68.0450 C   0  0  0  0  0  0  0  0  0  0  0  0
    5.7400   71.2570   68.6650 C   0  0  0  0  0  0  0  0  0  0  0  0
    5.7390   72.5650   68.1100 O   0  0  0  0  0  0  0  0  0  0  0  0
    1.9026   67.5538   63.8945 H   0  0  0  0  0  0  0  0  0  0  0  0
    0.4017   67.0312   64.7382 H   0  0  0  0  0  0  0  0  0  0  0  0
    2.6606   67.2273   63.2799 H   0  0  0  0  0  0  0  0  0  0  0  0
    5.3850   65.9970   63.0683 H   0  0  0  0  0  0  0  0  0  0  0  0
    4.3584   66.2808   61.6038 H   0  0  0  0  0  0  0  0  0  0  0  0
    5.8921   68.1127   61.7630 H   0  0  0  0  0  0  0  0  0  0  0  0
    4.2432   68.6989   62.2829 H   0  0  0  0  0  0  0  0  0  0  0  0
    4.8806   69.3547   65.6921 H   0  0  0  0  0  0  0  0  0  0  0  0
    4.9379   70.5430   64.3463 H   0  0  0  0  0  0  0  0  0  0  0  0
    3.6960   69.2452   64.3463 H   0  0  0  0  0  0  0  0  0  0  0  0
    6.6034   69.1485   63.6264 H   0  0  0  0  0  0  0  0  0  0  0  0
    5.8764   67.7094   64.4857 H   0  0  0  0  0  0  0  0  0  0  0  0
    2.9294   68.0232   66.1345 H   0  0  0  0  0  0  0  0  0  0  0  0
    1.4527   69.0306   65.7554 H   0  0  0  0  0  0  0  0  0  0  0  0
    0.0910   67.6919   67.2055 H   0  0  0  0  0  0  0  0  0  0  0  0
    1.4900   66.5627   67.5096 H   0  0  0  0  0  0  0  0  0  0  0  0
    0.7692   68.5768   69.1826 H   0  0  0  0  0  0  0  0  0  0  0  0
    2.4574   67.9108   68.9945 H   0  0  0  0  0  0  0  0  0  0  0  0
    2.4158   69.8072   67.0408 H   0  0  0  0  0  0  0  0  0  0  0  0
    1.3501   70.5536   68.3203 H   0  0  0  0  0  0  0  0  0  0  0  0
    3.1694   71.2375   69.3735 H   0  0  0  0  0  0  0  0  0  0  0  0
    3.5788   69.4825   69.6554 H   0  0  0  0  0  0  0  0  0  0  0  0
    5.0479   69.3932   67.8694 H   0  0  0  0  0  0  0  0  0  0  0  0
    4.3337   70.9064   67.1181 H   0  0  0  0  0  0  0  0  0  0  0  0
    5.5732   71.3264   69.7501 H   0  0  0  0  0  0  0  0  0  0  0  0
    6.7121   70.7873   68.4541 H   0  0  0  0  0  0  0  0  0  0  0  0
    5.7385   73.2334   68.8403 H   0  0  0  0  0  0  0  0  0  0  0  0
  2  1  1  0
  4  3  1  0
  4  2  1  0
  5  4  2  0
  6  3  1  0
  7  6  1  0
  9  8  1  0
  9  7  1  0
 10  1  1  0
 11 10  1  0
 12 11  1  0
 13 12  1  0
 14 13  1  0
 15 14  1  0
 16 15  1  0
 17 16  1  0
  1 18  1  0
  1 19  1  0
  3 20  1  0
  6 21  1  0
  6 22  1  0
  7 23  1  0
  7 24  1  0
  8 25  1  0
  8 26  1  0
  8 27  1  0
  9 28  1  0
  9 29  1  0
 10 30  1  0
 10 31  1  0
 11 32  1  0
 11 33  1  0
 12 34  1  0
 12 35  1  0
 13 36  1  0
 13 37  1  0
 14 38  1  0
 14 39  1  0
 15 40  1  0
 15 41  1  0
 16 42  1  0
 16 43  1  0
 17 44  1  0
M  END
>  <score>  (8) 
-5.854

$$$$
=
     RDKit          3D

 44 43  0  0  0  0  0  0  0  0999 V2000
    5.2590   69.6620   64.8650 C   0  0  0  0  0  0  0  0  0  0  0  0
    5.1900   69.5910   63.4310 O   0  0  0  0  0  0  0  0  0  0  0  0
    4.9440   67.3970   63.3300 N   0  0  0  0  0  0  0  0  0  0  0  0
    4.4260   68.5900   62.9290 C   0  0  0  0  0  0  0  0  0  0  0  0
    3.4290   68.7340   62.2390 O   0  0  0  0  0  0  0  0  0  0  0  0
    4.3090   66.1310   63.0510 C   0  0  0  0  0  0  0  0  0  0  0  0
    3.4100   65.6900   64.2050 C   0  0  0  0  0  0  0  0  0  0  0  0
    4.7000   63.5010   63.9830 C   0  0  0  0  0  0  0  0  0  0  0  0
    3.8920   64.4130   64.8940 C   0  0  0  0  0  0  0  0  0  0  0  0
    3.8700   69.4520   65.4620 C   0  0  0  0  0  0  0  0  0  0  0  0
    3.8490   69.5020   66.9920 C   0  0  0  0  0  0  0  0  0  0  0  0
    2.4330   69.4580   67.5730 C   0  0  0  0  0  0  0  0  0  0  0  0
    1.4570   68.6370   66.7230 C   0  0  0  0  0  0  0  0  0  0  0  0
    0.5520   67.7250   67.5550 C   0  0  0  0  0  0  0  0  0  0  0  0
   -0.8920   67.6800   67.0430 C   0  0  0  0  0  0  0  0  0  0  0  0
   -1.1860   68.6450   65.9000 C   0  0  0  0  0  0  0  0  0  0  0  0
   -2.2630   69.5110   66.2300 O   0  0  0  0  0  0  0  0  0  0  0  0
    5.9380   68.8805   65.2368 H   0  0  0  0  0  0  0  0  0  0  0  0
    5.6350   70.6524   65.1613 H   0  0  0  0  0  0  0  0  0  0  0  0
    5.8293   67.3975   63.8564 H   0  0  0  0  0  0  0  0  0  0  0  0
    3.6996   66.2296   62.1405 H   0  0  0  0  0  0  0  0  0  0  0  0
    5.0945   65.3729   62.9158 H   0  0  0  0  0  0  0  0  0  0  0  0
    3.3777   66.4980   64.9507 H   0  0  0  0  0  0  0  0  0  0  0  0
    2.4176   65.4766   63.7813 H   0  0  0  0  0  0  0  0  0  0  0  0
    5.3066   62.8164   64.5940 H   0  0  0  0  0  0  0  0  0  0  0  0
    4.0166   62.9180   63.3481 H   0  0  0  0  0  0  0  0  0  0  0  0
    5.3611   64.1092   63.3481 H   0  0  0  0  0  0  0  0  0  0  0  0
    3.0128   63.8574   65.2522 H   0  0  0  0  0  0  0  0  0  0  0  0
    4.5550   64.7192   65.7166 H   0  0  0  0  0  0  0  0  0  0  0  0
    3.2037   70.2389   65.0787 H   0  0  0  0  0  0  0  0  0  0  0  0
    3.5397   68.4452   65.1666 H   0  0  0  0  0  0  0  0  0  0  0  0
    4.4134   68.6406   67.3786 H   0  0  0  0  0  0  0  0  0  0  0  0
    4.2997   70.4583   67.2960 H   0  0  0  0  0  0  0  0  0  0  0  0
    2.4811   69.0132   68.5779 H   0  0  0  0  0  0  0  0  0  0  0  0
    2.0569   70.4914   67.5962 H   0  0  0  0  0  0  0  0  0  0  0  0
    0.8233   69.3304   66.1507 H   0  0  0  0  0  0  0  0  0  0  0  0
    2.0588   67.9902   66.0676 H   0  0  0  0  0  0  0  0  0  0  0  0
    0.9642   66.7055   67.5295 H   0  0  0  0  0  0  0  0  0  0  0  0
    0.5249   68.1335   68.5760 H   0  0  0  0  0  0  0  0  0  0  0  0
   -1.1011   66.6584   66.6929 H   0  0  0  0  0  0  0  0  0  0  0  0
   -1.5325   67.9851   67.8836 H   0  0  0  0  0  0  0  0  0  0  0  0
   -0.2883   69.2479   65.6981 H   0  0  0  0  0  0  0  0  0  0  0  0
   -1.4654   68.0608   65.0108 H   0  0  0  0  0  0  0  0  0  0  0  0
   -2.3442   69.5763   67.2145 H   0  0  0  0  0  0  0  0  0  0  0  0
  2  1  1  0
  4  3  1  0
  4  2  1  0
  5  4  2  0
  6  3  1  0
  7  6  1  0
  9  8  1  0
  9  7  1  0
 10  1  1  0
 11 10  1  0
 12 11  1  0
 13 12  1  0
 14 13  1  0
 15 14  1  0
 16 15  1  0
 17 16  1  0
  1 18  1  0
  1 19  1  0
  3 20  1  0
  6 21  1  0
  6 22  1  0
  7 23  1  0
  7 24  1  0
  8 25  1  0
  8 26  1  0
  8 27  1  0
  9 28  1  0
  9 29  1  0
 10 30  1  0
 10 31  1  0
 11 32  1  0
 11 33  1  0
 12 34  1  0
 12 35  1  0
 13 36  1  0
 13 37  1  0
 14 38  1  0
 14 39  1  0
 15 40  1  0
 15 41  1  0
 16 42  1  0
 16 43  1  0
 17 44  1  0
M  END
>  <score>  (9) 
-5.804

$$$$
