=
     RDKit          3D

 68 72  0  0  0  0  0  0  0  0999 V2000
    0.2330   66.3470   69.1660 C   0  0  0  0  0  0  0  0  0  0  0  0
   -0.5660   65.2560   69.5050 C   0  0  0  0  0  0  0  0  0  0  0  0
   -0.1010   64.2810   70.4010 C   0  0  0  0  0  0  0  0  0  0  0  0
    1.1710   64.3680   70.9830 C   0  0  0  0  0  0  0  0  0  0  0  0
    1.9660   65.4670   70.6140 C   0  0  0  0  0  0  0  0  0  0  0  0
    1.5090   66.4430   69.7190 C   0  0  0  0  0  0  0  0  0  0  0  0
    1.2330   69.1050   62.6520 C   0  0  0  0  0  0  0  0  0  0  0  0
    0.3450   69.3140   63.7110 C   0  0  0  0  0  0  0  0  0  0  0  0
    0.4860   68.5180   64.8330 C   0  0  0  0  0  0  0  0  0  0  0  0
    1.4640   67.5330   64.9470 C   0  0  0  0  0  0  0  0  0  0  0  0
    2.3520   67.3140   63.9050 C   0  0  0  0  0  0  0  0  0  0  0  0
    2.2400   68.1020   62.7480 C   0  0  0  0  0  0  0  0  0  0  0  0
    1.3860   66.8200   66.2640 C   0  0  0  0  0  0  0  0  0  0  0  0
    0.2400   67.5020   66.9680 C   0  0  0  0  0  0  0  0  0  0  0  0
   -0.2640   67.3250   68.1970 C   0  0  0  0  0  0  0  0  0  0  0  0
   -0.3150   68.5510   66.0590 C   0  0  0  0  0  0  0  0  0  0  0  0
   -1.2450   69.2980   66.2860 O   0  0  0  0  0  0  0  0  0  0  0  0
   -0.0360   69.9570   60.8130 C   0  0  0  0  0  0  0  0  0  0  0  0
    1.2120   69.8190   61.4780 O   0  0  0  0  0  0  0  0  0  0  0  0
    3.0590   67.9800   61.6520 O   0  0  0  0  0  0  0  0  0  0  0  0
    4.3180   67.3470   61.8280 C   0  0  0  0  0  0  0  0  0  0  0  0
    1.6870   63.4040   71.8670 N   0  0  0  0  0  0  0  0  0  0  0  0
    0.6520   62.5610   72.5000 C   0  0  0  0  0  0  0  0  0  0  0  0
    1.2390   61.7710   73.6920 C   0  0  0  0  0  0  0  0  0  0  0  0
    2.5070   60.9480   73.3140 N   0  0  0  0  0  4  0  0  0  0  0  0
    3.5190   61.9180   72.6470 C   0  0  0  0  0  0  0  0  0  0  0  0
    2.9090   62.6870   71.4570 C   0  0  0  0  0  0  0  0  0  0  0  0
    3.1280   60.4270   74.6070 C   0  0  0  0  0  0  0  0  0  0  0  0
    2.1060   59.7710   72.4010 C   0  0  0  0  0  0  0  0  0  0  0  0
    1.3650   58.6260   73.0480 C   0  0  0  0  0  0  0  0  0  0  0  0
    0.0700   58.8060   73.5610 C   0  0  0  0  0  0  0  0  0  0  0  0
   -0.6140   57.7480   74.1680 C   0  0  0  0  0  0  0  0  0  0  0  0
   -0.0150   56.4940   74.2660 C   0  0  0  0  0  0  0  0  0  0  0  0
    1.2610   56.2980   73.7470 C   0  0  0  0  0  0  0  0  0  0  0  0
    1.9480   57.3500   73.1370 C   0  0  0  0  0  0  0  0  0  0  0  0
    2.0070   54.7540   73.8580 Cl  0  0  0  0  0  0  0  0  0  0  0  0
   -1.5700   65.1585   69.0662 H   0  0  0  0  0  0  0  0  0  0  0  0
   -0.7498   63.4290   70.6523 H   0  0  0  0  0  0  0  0  0  0  0  0
    2.9755   65.5633   71.0401 H   0  0  0  0  0  0  0  0  0  0  0  0
    2.1597   67.2886   69.4515 H   0  0  0  0  0  0  0  0  0  0  0  0
   -0.4382   70.0843   63.6540 H   0  0  0  0  0  0  0  0  0  0  0  0
    3.1285   66.5388   63.9830 H   0  0  0  0  0  0  0  0  0  0  0  0
    1.1773   65.7497   66.1196 H   0  0  0  0  0  0  0  0  0  0  0  0
    2.3265   66.8675   66.8326 H   0  0  0  0  0  0  0  0  0  0  0  0
   -1.1106   67.9592   68.4988 H   0  0  0  0  0  0  0  0  0  0  0  0
   -0.8405   70.0460   61.5579 H   0  0  0  0  0  0  0  0  0  0  0  0
   -0.0181   70.8586   60.1831 H   0  0  0  0  0  0  0  0  0  0  0  0
   -0.2156   69.0732   60.1831 H   0  0  0  0  0  0  0  0  0  0  0  0
    4.5282   67.2413   62.9025 H   0  0  0  0  0  0  0  0  0  0  0  0
    4.2970   66.3523   61.3589 H   0  0  0  0  0  0  0  0  0  0  0  0
    5.1039   67.9571   61.3589 H   0  0  0  0  0  0  0  0  0  0  0  0
   -0.1650   63.2033   72.8606 H   0  0  0  0  0  0  0  0  0  0  0  0
    0.2764   61.8451   71.7540 H   0  0  0  0  0  0  0  0  0  0  0  0
    1.5077   62.4834   74.4859 H   0  0  0  0  0  0  0  0  0  0  0  0
    0.4706   61.0567   74.0227 H   0  0  0  0  0  0  0  0  0  0  0  0
    3.8582   62.6451   73.3995 H   0  0  0  0  0  0  0  0  0  0  0  0
    4.3534   61.3143   72.2605 H   0  0  0  0  0  0  0  0  0  0  0  0
    3.6448   63.4137   71.0821 H   0  0  0  0  0  0  0  0  0  0  0  0
    2.6467   61.9659   70.6688 H   0  0  0  0  0  0  0  0  0  0  0  0
    2.6040   60.8666   75.4685 H   0  0  0  0  0  0  0  0  0  0  0  0
    3.0365   59.3314   74.6422 H   0  0  0  0  0  0  0  0  0  0  0  0
    4.1911   60.7075   74.6422 H   0  0  0  0  0  0  0  0  0  0  0  0
    1.4646   60.1731   71.6029 H   0  0  0  0  0  0  0  0  0  0  0  0
    3.0570   59.3387   72.0564 H   0  0  0  0  0  0  0  0  0  0  0  0
   -0.4123   59.7916   73.4844 H   0  0  0  0  0  0  0  0  0  0  0  0
   -1.6262   57.9061   74.5686 H   0  0  0  0  0  0  0  0  0  0  0  0
   -0.5481   55.6631   74.7512 H   0  0  0  0  0  0  0  0  0  0  0  0
    2.9527   57.1788   72.7232 H   0  0  0  0  0  0  0  0  0  0  0  0
  2  1  2  0
  3  2  1  0
  4  3  2  0
  5  4  1  0
  6  5  2  0
  6  1  1  0
  8  7  2  0
  9  8  1  0
 10  9  2  0
 11 10  1  0
 12 11  2  0
 12  7  1  0
 13 10  1  0
 14 13  1  0
 15 14  2  0
 15  1  1  0
 16  9  1  0
 16 14  1  0
 17 16  2  0
 19 18  1  0
 19  7  1  0
 20 12  1  0
 21 20  1  0
 22  4  1  0
 23 22  1  0
 24 23  1  0
 25 24  1  0
 26 25  1  0
 27 26  1  0
 27 22  1  0
 28 25  1  0
 29 25  1  0
 30 29  1  0
 31 30  2  0
 32 31  1  0
 33 32  2  0
 34 33  1  0
 35 34  2  0
 35 30  1  0
 36 34  1  0
  2 37  1  0
  3 38  1  0
  5 39  1  0
  6 40  1  0
  8 41  1  0
 11 42  1  0
 13 43  1  0
 13 44  1  0
 15 45  1  0
 18 46  1  0
 18 47  1  0
 18 48  1  0
 21 49  1  0
 21 50  1  0
 21 51  1  0
 23 52  1  0
 23 53  1  0
 24 54  1  0
 24 55  1  0
 26 56  1  0
 26 57  1  0
 27 58  1  0
 27 59  1  0
 28 60  1  0
 28 61  1  0
 28 62  1  0
 29 63  1  0
 29 64  1  0
 31 65  1  0
 32 66  1  0
 33 67  1  0
 35 68  1  0
M  CHG  1  25   1
M  END
>  <score>  (1) 
-9.846

$$$$
=
     RDKit          3D

 68 72  0  0  0  0  0  0  0  0999 V2000
    1.6900   63.3630   72.3580 C   0  0  0  0  0  0  0  0  0  0  0  0
    0.5430   64.1000   72.6510 C   0  0  0  0  0  0  0  0  0  0  0  0
    0.0890   65.0940   71.7710 C   0  0  0  0  0  0  0  0  0  0  0  0
    0.7640   65.3780   70.5760 C   0  0  0  0  0  0  0  0  0  0  0  0
    1.9270   64.6350   70.3090 C   0  0  0  0  0  0  0  0  0  0  0  0
    2.3870   63.6430   71.1840 C   0  0  0  0  0  0  0  0  0  0  0  0
    0.0050   57.2950   75.7330 C   0  0  0  0  0  0  0  0  0  0  0  0
    1.0940   58.1720   75.7160 C   0  0  0  0  0  0  0  0  0  0  0  0
    1.0260   59.2620   74.8680 C   0  0  0  0  0  0  0  0  0  0  0  0
   -0.0690   59.5180   74.0450 C   0  0  0  0  0  0  0  0  0  0  0  0
   -1.1560   58.6580   74.0510 C   0  0  0  0  0  0  0  0  0  0  0  0
   -1.1240   57.5380   74.8980 C   0  0  0  0  0  0  0  0  0  0  0  0
    0.1260   60.7610   73.2300 C   0  0  0  0  0  0  0  0  0  0  0  0
    1.4800   61.2620   73.6650 C   0  0  0  0  0  0  0  0  0  0  0  0
    2.1620   62.3620   73.3160 C   0  0  0  0  0  0  0  0  0  0  0  0
    2.0310   60.3120   74.6800 C   0  0  0  0  0  0  0  0  0  0  0  0
    3.1000   60.3890   75.2490 O   0  0  0  0  0  0  0  0  0  0  0  0
    0.8750   55.1370   76.2820 C   0  0  0  0  0  0  0  0  0  0  0  0
   -0.0670   56.1730   76.5220 O   0  0  0  0  0  0  0  0  0  0  0  0
   -2.1380   56.6160   74.9920 O   0  0  0  0  0  0  0  0  0  0  0  0
   -3.3250   56.9980   75.6720 C   0  0  0  0  0  0  0  0  0  0  0  0
    0.3590   66.3800   69.6760 N   0  0  0  0  0  0  0  0  0  0  0  0
    1.4820   67.0990   69.0400 C   0  0  0  0  0  0  0  0  0  0  0  0
    0.9860   68.3860   68.3420 C   0  0  0  0  0  0  0  0  0  0  0  0
   -0.1790   68.1270   67.3400 N   0  0  0  0  0  4  0  0  0  0  0  0
   -1.2930   67.3580   68.1000 C   0  0  0  0  0  0  0  0  0  0  0  0
   -0.7720   66.0750   68.7800 C   0  0  0  0  0  0  0  0  0  0  0  0
   -0.7400   69.4820   66.9160 C   0  0  0  0  0  0  0  0  0  0  0  0
    0.3550   67.3600   66.1120 C   0  0  0  0  0  0  0  0  0  0  0  0
    1.4850   68.0040   65.3440 C   0  0  0  0  0  0  0  0  0  0  0  0
    1.4390   68.1000   63.9430 C   0  0  0  0  0  0  0  0  0  0  0  0
    2.4890   68.6880   63.2320 C   0  0  0  0  0  0  0  0  0  0  0  0
    3.5970   69.1940   63.9100 C   0  0  0  0  0  0  0  0  0  0  0  0
    3.6460   69.1190   65.2980 C   0  0  0  0  0  0  0  0  0  0  0  0
    2.5990   68.5360   66.0150 C   0  0  0  0  0  0  0  0  0  0  0  0
    5.0040   69.7450   66.1450 Cl  0  0  0  0  0  0  0  0  0  0  0  0
   -0.0107   63.9003   73.5803 H   0  0  0  0  0  0  0  0  0  0  0  0
   -0.8173   65.6634   72.0247 H   0  0  0  0  0  0  0  0  0  0  0  0
    2.4915   64.8384   69.3871 H   0  0  0  0  0  0  0  0  0  0  0  0
    3.3024   63.0824   70.9437 H   0  0  0  0  0  0  0  0  0  0  0  0
    1.9733   58.0009   76.3544 H   0  0  0  0  0  0  0  0  0  0  0  0
   -2.0260   58.8488   73.4055 H   0  0  0  0  0  0  0  0  0  0  0  0
    0.1196   60.5304   72.1545 H   0  0  0  0  0  0  0  0  0  0  0  0
   -0.6728   61.5016   73.3826 H   0  0  0  0  0  0  0  0  0  0  0  0
    3.1451   62.5237   73.7822 H   0  0  0  0  0  0  0  0  0  0  0  0
    1.2360   54.7400   77.2422 H   0  0  0  0  0  0  0  0  0  0  0  0
    0.3947   54.3302   75.7090 H   0  0  0  0  0  0  0  0  0  0  0  0
    1.7237   55.5386   75.7090 H   0  0  0  0  0  0  0  0  0  0  0  0
   -3.1588   56.9445   76.7581 H   0  0  0  0  0  0  0  0  0  0  0  0
   -3.5926   58.0276   75.3923 H   0  0  0  0  0  0  0  0  0  0  0  0
   -4.1429   56.3177   75.3923 H   0  0  0  0  0  0  0  0  0  0  0  0
    2.2200   67.3681   69.8100 H   0  0  0  0  0  0  0  0  0  0  0  0
    1.9382   66.4421   68.2847 H   0  0  0  0  0  0  0  0  0  0  0  0
    0.6359   69.0893   69.1119 H   0  0  0  0  0  0  0  0  0  0  0  0
    1.8300   68.7932   67.7660 H   0  0  0  0  0  0  0  0  0  0  0  0
   -1.7138   68.0194   68.8717 H   0  0  0  0  0  0  0  0  0  0  0  0
   -2.0527   67.0587   67.3629 H   0  0  0  0  0  0  0  0  0  0  0  0
   -1.5849   65.6220   69.3665 H   0  0  0  0  0  0  0  0  0  0  0  0
   -0.4275   65.3782   68.0017 H   0  0  0  0  0  0  0  0  0  0  0  0
   -0.9849   70.0736   67.8105 H   0  0  0  0  0  0  0  0  0  0  0  0
    0.0102   70.0180   66.3160 H   0  0  0  0  0  0  0  0  0  0  0  0
   -1.6495   69.3308   66.3160 H   0  0  0  0  0  0  0  0  0  0  0  0
    0.7071   66.3779   66.4606 H   0  0  0  0  0  0  0  0  0  0  0  0
   -0.4882   67.3243   65.4065 H   0  0  0  0  0  0  0  0  0  0  0  0
    0.5667   67.7079   63.3995 H   0  0  0  0  0  0  0  0  0  0  0  0
    2.4409   68.7516   62.1349 H   0  0  0  0  0  0  0  0  0  0  0  0
    4.4274   69.6498   63.3507 H   0  0  0  0  0  0  0  0  0  0  0  0
    2.6468   68.4929   67.1131 H   0  0  0  0  0  0  0  0  0  0  0  0
  2  1  2  0
  3  2  1  0
  4  3  2  0
  5  4  1  0
  6  5  2  0
  6  1  1  0
  8  7  2  0
  9  8  1  0
 10  9  2  0
 11 10  1  0
 12 11  2  0
 12  7  1  0
 13 10  1  0
 14 13  1  0
 15 14  2  0
 15  1  1  0
 16  9  1  0
 16 14  1  0
 17 16  2  0
 19 18  1  0
 19  7  1  0
 20 12  1  0
 21 20  1  0
 22  4  1  0
 23 22  1  0
 24 23  1  0
 25 24  1  0
 26 25  1  0
 27 26  1  0
 27 22  1  0
 28 25  1  0
 29 25  1  0
 30 29  1  0
 31 30  2  0
 32 31  1  0
 33 32  2  0
 34 33  1  0
 35 34  2  0
 35 30  1  0
 36 34  1  0
  2 37  1  0
  3 38  1  0
  5 39  1  0
  6 40  1  0
  8 41  1  0
 11 42  1  0
 13 43  1  0
 13 44  1  0
 15 45  1  0
 18 46  1  0
 18 47  1  0
 18 48  1  0
 21 49  1  0
 21 50  1  0
 21 51  1  0
 23 52  1  0
 23 53  1  0
 24 54  1  0
 24 55  1  0
 26 56  1  0
 26 57  1  0
 27 58  1  0
 27 59  1  0
 28 60  1  0
 28 61  1  0
 28 62  1  0
 29 63  1  0
 29 64  1  0
 31 65  1  0
 32 66  1  0
 33 67  1  0
 35 68  1  0
M  CHG  1  25   1
M  END
>  <score>  (2) 
-9.394

$$$$
=
     RDKit          3D

 68 72  0  0  0  0  0  0  0  0999 V2000
    0.7160   63.0280   72.1300 C   0  0  0  0  0  0  0  0  0  0  0  0
    1.1260   62.9710   70.7980 C   0  0  0  0  0  0  0  0  0  0  0  0
    0.9900   64.0880   69.9610 C   0  0  0  0  0  0  0  0  0  0  0  0
    0.4440   65.2920   70.4280 C   0  0  0  0  0  0  0  0  0  0  0  0
    0.0220   65.3220   71.7680 C   0  0  0  0  0  0  0  0  0  0  0  0
    0.1540   64.2100   72.6100 C   0  0  0  0  0  0  0  0  0  0  0  0
   -2.9520   58.1150   75.7970 C   0  0  0  0  0  0  0  0  0  0  0  0
   -1.6040   58.3900   75.5470 C   0  0  0  0  0  0  0  0  0  0  0  0
   -1.3110   59.4670   74.7310 C   0  0  0  0  0  0  0  0  0  0  0  0
   -2.2900   60.2770   74.1610 C   0  0  0  0  0  0  0  0  0  0  0  0
   -3.6300   60.0170   74.4000 C   0  0  0  0  0  0  0  0  0  0  0  0
   -3.9690   58.9300   75.2220 C   0  0  0  0  0  0  0  0  0  0  0  0
   -1.6910   61.3650   73.3200 C   0  0  0  0  0  0  0  0  0  0  0  0
   -0.2060   61.1420   73.4550 C   0  0  0  0  0  0  0  0  0  0  0  0
    0.8330   61.8330   72.9670 C   0  0  0  0  0  0  0  0  0  0  0  0
    0.0140   59.9500   74.3310 C   0  0  0  0  0  0  0  0  0  0  0  0
    1.0800   59.4700   74.6590 O   0  0  0  0  0  0  0  0  0  0  0  0
   -2.4170   56.1950   77.1190 C   0  0  0  0  0  0  0  0  0  0  0  0
   -3.3930   57.0800   76.5860 O   0  0  0  0  0  0  0  0  0  0  0  0
   -5.2580   58.5740   75.5330 O   0  0  0  0  0  0  0  0  0  0  0  0
   -6.2230   58.5900   74.4910 C   0  0  0  0  0  0  0  0  0  0  0  0
    0.2670   66.4280   69.6190 N   0  0  0  0  0  0  0  0  0  0  0  0
    1.5330   67.0650   69.2000 C   0  0  0  0  0  0  0  0  0  0  0  0
    1.2750   68.4720   68.6160 C   0  0  0  0  0  0  0  0  0  0  0  0
    0.2180   68.4730   67.4710 N   0  0  0  0  0  4  0  0  0  0  0  0
   -1.0600   67.7740   68.0070 C   0  0  0  0  0  0  0  0  0  0  0  0
   -0.7740   66.3680   68.5760 C   0  0  0  0  0  0  0  0  0  0  0  0
   -0.1300   69.9260   67.1580 C   0  0  0  0  0  0  0  0  0  0  0  0
    0.8070   67.7830   66.2220 C   0  0  0  0  0  0  0  0  0  0  0  0
    2.0800   68.3650   65.6580 C   0  0  0  0  0  0  0  0  0  0  0  0
    2.3140   68.3750   64.2730 C   0  0  0  0  0  0  0  0  0  0  0  0
    3.4970   68.9050   63.7500 C   0  0  0  0  0  0  0  0  0  0  0  0
    4.4610   69.4390   64.6040 C   0  0  0  0  0  0  0  0  0  0  0  0
    4.2330   69.4510   65.9760 C   0  0  0  0  0  0  0  0  0  0  0  0
    3.0530   68.9240   66.5040 C   0  0  0  0  0  0  0  0  0  0  0  0
    5.4120   70.1120   67.0370 Cl  0  0  0  0  0  0  0  0  0  0  0  0
    1.5599   62.0416   70.4005 H   0  0  0  0  0  0  0  0  0  0  0  0
    1.3193   64.0179   68.9138 H   0  0  0  0  0  0  0  0  0  0  0  0
   -0.4246   66.2446   72.1672 H   0  0  0  0  0  0  0  0  0  0  0  0
   -0.1872   64.2699   73.6540 H   0  0  0  0  0  0  0  0  0  0  0  0
   -0.8057   57.7719   75.9837 H   0  0  0  0  0  0  0  0  0  0  0  0
   -4.4123   60.6493   73.9548 H   0  0  0  0  0  0  0  0  0  0  0  0
   -2.0084   61.2702   72.2711 H   0  0  0  0  0  0  0  0  0  0  0  0
   -2.0024   62.3709   73.6380 H   0  0  0  0  0  0  0  0  0  0  0  0
    1.8446   61.4774   73.2125 H   0  0  0  0  0  0  0  0  0  0  0  0
   -2.4533   56.2279   78.2179 H   0  0  0  0  0  0  0  0  0  0  0  0
   -2.6244   55.1707   76.7758 H   0  0  0  0  0  0  0  0  0  0  0  0
   -1.4178   56.5014   76.7758 H   0  0  0  0  0  0  0  0  0  0  0  0
   -7.2329   58.6067   74.9267 H   0  0  0  0  0  0  0  0  0  0  0  0
   -6.0769   59.4858   73.8696 H   0  0  0  0  0  0  0  0  0  0  0  0
   -6.1066   57.6898   73.8696 H   0  0  0  0  0  0  0  0  0  0  0  0
    2.1977   67.1533   70.0720 H   0  0  0  0  0  0  0  0  0  0  0  0
    1.9997   66.4419   68.4229 H   0  0  0  0  0  0  0  0  0  0  0  0
    0.9165   69.1264   69.4242 H   0  0  0  0  0  0  0  0  0  0  0  0
    2.2233   68.8289   68.1879 H   0  0  0  0  0  0  0  0  0  0  0  0
   -1.4930   68.3954   68.8047 H   0  0  0  0  0  0  0  0  0  0  0  0
   -1.7543   67.6562   67.1620 H   0  0  0  0  0  0  0  0  0  0  0  0
   -1.6981   65.9602   69.0116 H   0  0  0  0  0  0  0  0  0  0  0  0
   -0.4188   65.7222   67.7594 H   0  0  0  0  0  0  0  0  0  0  0  0
   -0.2631   70.4818   68.0979 H   0  0  0  0  0  0  0  0  0  0  0  0
    0.6846   70.3808   66.5753 H   0  0  0  0  0  0  0  0  0  0  0  0
   -1.0623   69.9624   66.5753 H   0  0  0  0  0  0  0  0  0  0  0  0
    1.0091   66.7344   66.4857 H   0  0  0  0  0  0  0  0  0  0  0  0
    0.0529   67.9239   65.4337 H   0  0  0  0  0  0  0  0  0  0  0  0
    1.5567   67.9605   63.5913 H   0  0  0  0  0  0  0  0  0  0  0  0
    3.6676   68.9008   62.6633 H   0  0  0  0  0  0  0  0  0  0  0  0
    5.3965   69.8485   64.1951 H   0  0  0  0  0  0  0  0  0  0  0  0
    2.8835   68.9465   67.5906 H   0  0  0  0  0  0  0  0  0  0  0  0
  2  1  2  0
  3  2  1  0
  4  3  2  0
  5  4  1  0
  6  5  2  0
  6  1  1  0
  8  7  2  0
  9  8  1  0
 10  9  2  0
 11 10  1  0
 12 11  2  0
 12  7  1  0
 13 10  1  0
 14 13  1  0
 15 14  2  0
 15  1  1  0
 16  9  1  0
 16 14  1  0
 17 16  2  0
 19 18  1  0
 19  7  1  0
 20 12  1  0
 21 20  1  0
 22  4  1  0
 23 22  1  0
 24 23  1  0
 25 24  1  0
 26 25  1  0
 27 26  1  0
 27 22  1  0
 28 25  1  0
 29 25  1  0
 30 29  1  0
 31 30  2  0
 32 31  1  0
 33 32  2  0
 34 33  1  0
 35 34  2  0
 35 30  1  0
 36 34  1  0
  2 37  1  0
  3 38  1  0
  5 39  1  0
  6 40  1  0
  8 41  1  0
 11 42  1  0
 13 43  1  0
 13 44  1  0
 15 45  1  0
 18 46  1  0
 18 47  1  0
 18 48  1  0
 21 49  1  0
 21 50  1  0
 21 51  1  0
 23 52  1  0
 23 53  1  0
 24 54  1  0
 24 55  1  0
 26 56  1  0
 26 57  1  0
 27 58  1  0
 27 59  1  0
 28 60  1  0
 28 61  1  0
 28 62  1  0
 29 63  1  0
 29 64  1  0
 31 65  1  0
 32 66  1  0
 33 67  1  0
 35 68  1  0
M  CHG  1  25   1
M  END
>  <score>  (3) 
-9.113

$$$$
=
     RDKit          3D

 68 72  0  0  0  0  0  0  0  0999 V2000
    0.1890   66.1350   70.1940 C   0  0  0  0  0  0  0  0  0  0  0  0
    1.3170   66.8670   69.8260 C   0  0  0  0  0  0  0  0  0  0  0  0
    1.3510   67.5640   68.6090 C   0  0  0  0  0  0  0  0  0  0  0  0
    0.2620   67.5500   67.7260 C   0  0  0  0  0  0  0  0  0  0  0  0
   -0.8580   66.7920   68.1090 C   0  0  0  0  0  0  0  0  0  0  0  0
   -0.8980   66.0930   69.3220 C   0  0  0  0  0  0  0  0  0  0  0  0
    2.5300   60.1980   73.4050 C   0  0  0  0  0  0  0  0  0  0  0  0
    1.7560   61.3040   73.7680 C   0  0  0  0  0  0  0  0  0  0  0  0
    1.5500   62.2830   72.8140 C   0  0  0  0  0  0  0  0  0  0  0  0
    2.0730   62.2100   71.5250 C   0  0  0  0  0  0  0  0  0  0  0  0
    2.8430   61.1200   71.1500 C   0  0  0  0  0  0  0  0  0  0  0  0
    3.0760   60.1050   72.0920 C   0  0  0  0  0  0  0  0  0  0  0  0
    1.6980   63.4080   70.7040 C   0  0  0  0  0  0  0  0  0  0  0  0
    0.8540   64.2320   71.6430 C   0  0  0  0  0  0  0  0  0  0  0  0
    0.2000   65.3850   71.4510 C   0  0  0  0  0  0  0  0  0  0  0  0
    0.7790   63.5210   72.9560 C   0  0  0  0  0  0  0  0  0  0  0  0
    0.1900   63.8870   73.9530 O   0  0  0  0  0  0  0  0  0  0  0  0
    2.9820   59.4390   75.6270 C   0  0  0  0  0  0  0  0  0  0  0  0
    2.8180   59.1500   74.2460 O   0  0  0  0  0  0  0  0  0  0  0  0
    3.8190   58.9780   71.8390 O   0  0  0  0  0  0  0  0  0  0  0  0
    3.2330   57.9570   71.0460 C   0  0  0  0  0  0  0  0  0  0  0  0
    0.2600   68.2140   66.4870 N   0  0  0  0  0  0  0  0  0  0  0  0
    1.6080   68.4130   65.9160 C   0  0  0  0  0  0  0  0  0  0  0  0
    1.5670   69.4280   64.7500 C   0  0  0  0  0  0  0  0  0  0  0  0
    0.5220   69.0580   63.6550 N   0  0  0  0  0  4  0  0  0  0  0  0
   -0.8480   68.8570   64.3580 C   0  0  0  0  0  0  0  0  0  0  0  0
   -0.7790   67.8340   65.5110 C   0  0  0  0  0  0  0  0  0  0  0  0
    0.3990   70.2470   62.7060 C   0  0  0  0  0  0  0  0  0  0  0  0
    0.9970   67.8070   62.8870 C   0  0  0  0  0  0  0  0  0  0  0  0
    2.4840   67.5510   62.8540 C   0  0  0  0  0  0  0  0  0  0  0  0
    3.3520   68.4390   62.1970 C   0  0  0  0  0  0  0  0  0  0  0  0
    4.7280   68.1980   62.1590 C   0  0  0  0  0  0  0  0  0  0  0  0
    5.2580   67.0680   62.7810 C   0  0  0  0  0  0  0  0  0  0  0  0
    4.4100   66.1900   63.4480 C   0  0  0  0  0  0  0  0  0  0  0  0
    3.0350   66.4270   63.4930 C   0  0  0  0  0  0  0  0  0  0  0  0
    5.0530   64.7970   64.2230 Cl  0  0  0  0  0  0  0  0  0  0  0  0
    2.1886   66.8983   70.4963 H   0  0  0  0  0  0  0  0  0  0  0  0
    2.2526   68.1345   68.3414 H   0  0  0  0  0  0  0  0  0  0  0  0
   -1.7277   66.7465   67.4370 H   0  0  0  0  0  0  0  0  0  0  0  0
   -1.7910   65.5083   69.5879 H   0  0  0  0  0  0  0  0  0  0  0  0
    1.3262   61.3921   74.7767 H   0  0  0  0  0  0  0  0  0  0  0  0
    3.2628   61.0516   70.1356 H   0  0  0  0  0  0  0  0  0  0  0  0
    2.5933   63.9646   70.3899 H   0  0  0  0  0  0  0  0  0  0  0  0
    1.1696   63.1419   69.7767 H   0  0  0  0  0  0  0  0  0  0  0  0
   -0.3688   65.7973   72.2974 H   0  0  0  0  0  0  0  0  0  0  0  0
    2.5267   58.6367   76.2261 H   0  0  0  0  0  0  0  0  0  0  0  0
    4.0543   59.5088   75.8622 H   0  0  0  0  0  0  0  0  0  0  0  0
    2.4920   60.3954   75.8622 H   0  0  0  0  0  0  0  0  0  0  0  0
    2.7932   57.1907   71.7013 H   0  0  0  0  0  0  0  0  0  0  0  0
    2.4469   58.3916   70.4111 H   0  0  0  0  0  0  0  0  0  0  0  0
    4.0048   57.4974   70.4111 H   0  0  0  0  0  0  0  0  0  0  0  0
    2.2794   68.7921   66.7005 H   0  0  0  0  0  0  0  0  0  0  0  0
    1.9734   67.4494   65.5315 H   0  0  0  0  0  0  0  0  0  0  0  0
    1.3129   70.4181   65.1563 H   0  0  0  0  0  0  0  0  0  0  0  0
    2.5584   69.4209   64.2735 H   0  0  0  0  0  0  0  0  0  0  0  0
   -1.1807   69.8236   64.7641 H   0  0  0  0  0  0  0  0  0  0  0  0
   -1.5529   68.4674   63.6088 H   0  0  0  0  0  0  0  0  0  0  0  0
   -1.7542   67.7964   66.0186 H   0  0  0  0  0  0  0  0  0  0  0  0
   -0.5266   66.8483   65.0931 H   0  0  0  0  0  0  0  0  0  0  0  0
    0.3031   71.1741   63.2903 H   0  0  0  0  0  0  0  0  0  0  0  0
    1.2960   70.3044   62.0719 H   0  0  0  0  0  0  0  0  0  0  0  0
   -0.4908   70.1195   62.0719 H   0  0  0  0  0  0  0  0  0  0  0  0
    0.5190   66.9312   63.3500 H   0  0  0  0  0  0  0  0  0  0  0  0
    0.7134   67.9880   61.8397 H   0  0  0  0  0  0  0  0  0  0  0  0
    2.9436   69.3349   61.7065 H   0  0  0  0  0  0  0  0  0  0  0  0
    5.3943   68.9009   61.6375 H   0  0  0  0  0  0  0  0  0  0  0  0
    6.3398   66.8722   62.7444 H   0  0  0  0  0  0  0  0  0  0  0  0
    2.3780   65.7289   64.0325 H   0  0  0  0  0  0  0  0  0  0  0  0
  2  1  2  0
  3  2  1  0
  4  3  2  0
  5  4  1  0
  6  5  2  0
  6  1  1  0
  8  7  2  0
  9  8  1  0
 10  9  2  0
 11 10  1  0
 12 11  2  0
 12  7  1  0
 13 10  1  0
 14 13  1  0
 15 14  2  0
 15  1  1  0
 16  9  1  0
 16 14  1  0
 17 16  2  0
 19 18  1  0
 19  7  1  0
 20 12  1  0
 21 20  1  0
 22  4  1  0
 23 22  1  0
 24 23  1  0
 25 24  1  0
 26 25  1  0
 27 26  1  0
 27 22  1  0
 28 25  1  0
 29 25  1  0
 30 29  1  0
 31 30  2  0
 32 31  1  0
 33 32  2  0
 34 33  1  0
 35 34  2  0
 35 30  1  0
 36 34  1  0
  2 37  1  0
  3 38  1  0
  5 39  1  0
  6 40  1  0
  8 41  1  0
 11 42  1  0
 13 43  1  0
 13 44  1  0
 15 45  1  0
 18 46  1  0
 18 47  1  0
 18 48  1  0
 21 49  1  0
 21 50  1  0
 21 51  1  0
 23 52  1  0
 23 53  1  0
 24 54  1  0
 24 55  1  0
 26 56  1  0
 26 57  1  0
 27 58  1  0
 27 59  1  0
 28 60  1  0
 28 61  1  0
 28 62  1  0
 29 63  1  0
 29 64  1  0
 31 65  1  0
 32 66  1  0
 33 67  1  0
 35 68  1  0
M  CHG  1  25   1
M  END
>  <score>  (4) 
-8.412

$$$$
=
     RDKit          3D

 68 72  0  0  0  0  0  0  0  0999 V2000
    1.2890   63.7250   72.7740 C   0  0  0  0  0  0  0  0  0  0  0  0
    2.1940   63.5940   71.7220 C   0  0  0  0  0  0  0  0  0  0  0  0
    2.0130   64.3090   70.5290 C   0  0  0  0  0  0  0  0  0  0  0  0
    0.9240   65.1750   70.3530 C   0  0  0  0  0  0  0  0  0  0  0  0
    0.0150   65.2800   71.4190 C   0  0  0  0  0  0  0  0  0  0  0  0
    0.1900   64.5670   72.6120 C   0  0  0  0  0  0  0  0  0  0  0  0
    1.2540   57.1130   75.4780 C   0  0  0  0  0  0  0  0  0  0  0  0
    1.4740   58.4030   75.9690 C   0  0  0  0  0  0  0  0  0  0  0  0
    1.4070   59.4510   75.0700 C   0  0  0  0  0  0  0  0  0  0  0  0
    1.1320   59.2740   73.7160 C   0  0  0  0  0  0  0  0  0  0  0  0
    0.9120   58.0010   73.2140 C   0  0  0  0  0  0  0  0  0  0  0  0
    0.9720   56.9100   74.0970 C   0  0  0  0  0  0  0  0  0  0  0  0
    1.1260   60.5780   72.9740 C   0  0  0  0  0  0  0  0  0  0  0  0
    1.4140   61.5980   74.0470 C   0  0  0  0  0  0  0  0  0  0  0  0
    1.4830   62.9350   73.9900 C   0  0  0  0  0  0  0  0  0  0  0  0
    1.5960   60.8780   75.3450 C   0  0  0  0  0  0  0  0  0  0  0  0
    1.8450   61.3720   76.4260 O   0  0  0  0  0  0  0  0  0  0  0  0
    1.7000   56.1150   77.6050 C   0  0  0  0  0  0  0  0  0  0  0  0
    1.2890   55.9780   76.2520 O   0  0  0  0  0  0  0  0  0  0  0  0
    0.7720   55.6040   73.7190 O   0  0  0  0  0  0  0  0  0  0  0  0
   -0.5610   55.1160   73.6900 C   0  0  0  0  0  0  0  0  0  0  0  0
    0.6890   65.8940   69.1670 N   0  0  0  0  0  0  0  0  0  0  0  0
   -0.4800   66.7940   69.2380 C   0  0  0  0  0  0  0  0  0  0  0  0
   -0.8830   67.2850   67.8280 C   0  0  0  0  0  0  0  0  0  0  0  0
    0.3000   67.9300   67.0450 N   0  0  0  0  0  4  0  0  0  0  0  0
    1.4750   66.9140   67.0430 C   0  0  0  0  0  0  0  0  0  0  0  0
    1.8600   66.4490   68.4620 C   0  0  0  0  0  0  0  0  0  0  0  0
   -0.1530   68.1370   65.6030 C   0  0  0  0  0  0  0  0  0  0  0  0
    0.6710   69.2820   67.6890 C   0  0  0  0  0  0  0  0  0  0  0  0
    2.1380   69.6320   67.7460 C   0  0  0  0  0  0  0  0  0  0  0  0
    2.7130   70.1320   68.9270 C   0  0  0  0  0  0  0  0  0  0  0  0
    4.0700   70.4640   68.9770 C   0  0  0  0  0  0  0  0  0  0  0  0
    4.8730   70.2950   67.8510 C   0  0  0  0  0  0  0  0  0  0  0  0
    4.3200   69.7840   66.6820 C   0  0  0  0  0  0  0  0  0  0  0  0
    2.9650   69.4490   66.6250 C   0  0  0  0  0  0  0  0  0  0  0  0
    5.3030   69.5660   65.2890 Cl  0  0  0  0  0  0  0  0  0  0  0  0
    3.0591   62.9229   71.8285 H   0  0  0  0  0  0  0  0  0  0  0  0
    2.7412   64.1878   69.7135 H   0  0  0  0  0  0  0  0  0  0  0  0
   -0.8584   65.9404   71.3139 H   0  0  0  0  0  0  0  0  0  0  0  0
   -0.5435   64.6721   73.4250 H   0  0  0  0  0  0  0  0  0  0  0  0
    1.6926   58.5781   77.0327 H   0  0  0  0  0  0  0  0  0  0  0  0
    0.6950   57.8481   72.1465 H   0  0  0  0  0  0  0  0  0  0  0  0
    1.9063   60.5924   72.1989 H   0  0  0  0  0  0  0  0  0  0  0  0
    0.1781   60.7664   72.4486 H   0  0  0  0  0  0  0  0  0  0  0  0
    1.7007   63.4763   74.9225 H   0  0  0  0  0  0  0  0  0  0  0  0
    0.8691   55.8380   78.2705 H   0  0  0  0  0  0  0  0  0  0  0  0
    2.5586   55.4545   77.7961 H   0  0  0  0  0  0  0  0  0  0  0  0
    1.9906   57.1586   77.7961 H   0  0  0  0  0  0  0  0  0  0  0  0
   -0.9251   54.9827   74.7194 H   0  0  0  0  0  0  0  0  0  0  0  0
   -1.2041   55.8370   73.1641 H   0  0  0  0  0  0  0  0  0  0  0  0
   -0.5865   54.1502   73.1641 H   0  0  0  0  0  0  0  0  0  0  0  0
   -1.3256   66.2517   69.6862 H   0  0  0  0  0  0  0  0  0  0  0  0
   -0.2153   67.6671   69.8525 H   0  0  0  0  0  0  0  0  0  0  0  0
   -1.2575   66.4261   67.2518 H   0  0  0  0  0  0  0  0  0  0  0  0
   -1.6525   68.0603   67.9577 H   0  0  0  0  0  0  0  0  0  0  0  0
    1.1791   66.0345   66.4523 H   0  0  0  0  0  0  0  0  0  0  0  0
    2.3508   67.4186   66.6090 H   0  0  0  0  0  0  0  0  0  0  0  0
    2.6376   65.6744   68.3891 H   0  0  0  0  0  0  0  0  0  0  0  0
    2.2342   67.3151   69.0275 H   0  0  0  0  0  0  0  0  0  0  0  0
   -1.1535   68.5942   65.5950 H   0  0  0  0  0  0  0  0  0  0  0  0
    0.5572   68.7999   65.0871 H   0  0  0  0  0  0  0  0  0  0  0  0
   -0.1894   67.1661   65.0871 H   0  0  0  0  0  0  0  0  0  0  0  0
    0.1628   70.0727   67.1176 H   0  0  0  0  0  0  0  0  0  0  0  0
    0.3561   69.1951   68.7394 H   0  0  0  0  0  0  0  0  0  0  0  0
    2.0879   70.2636   69.8225 H   0  0  0  0  0  0  0  0  0  0  0  0
    4.5046   70.8594   69.9070 H   0  0  0  0  0  0  0  0  0  0  0  0
    5.9389   70.5644   67.8866 H   0  0  0  0  0  0  0  0  0  0  0  0
    2.5425   69.0390   65.6958 H   0  0  0  0  0  0  0  0  0  0  0  0
  2  1  2  0
  3  2  1  0
  4  3  2  0
  5  4  1  0
  6  5  2  0
  6  1  1  0
  8  7  2  0
  9  8  1  0
 10  9  2  0
 11 10  1  0
 12 11  2  0
 12  7  1  0
 13 10  1  0
 14 13  1  0
 15 14  2  0
 15  1  1  0
 16  9  1  0
 16 14  1  0
 17 16  2  0
 19 18  1  0
 19  7  1  0
 20 12  1  0
 21 20  1  0
 22  4  1  0
 23 22  1  0
 24 23  1  0
 25 24  1  0
 26 25  1  0
 27 26  1  0
 27 22  1  0
 28 25  1  0
 29 25  1  0
 30 29  1  0
 31 30  2  0
 32 31  1  0
 33 32  2  0
 34 33  1  0
 35 34  2  0
 35 30  1  0
 36 34  1  0
  2 37  1  0
  3 38  1  0
  5 39  1  0
  6 40  1  0
  8 41  1  0
 11 42  1  0
 13 43  1  0
 13 44  1  0
 15 45  1  0
 18 46  1  0
 18 47  1  0
 18 48  1  0
 21 49  1  0
 21 50  1  0
 21 51  1  0
 23 52  1  0
 23 53  1  0
 24 54  1  0
 24 55  1  0
 26 56  1  0
 26 57  1  0
 27 58  1  0
 27 59  1  0
 28 60  1  0
 28 61  1  0
 28 62  1  0
 29 63  1  0
 29 64  1  0
 31 65  1  0
 32 66  1  0
 33 67  1  0
 35 68  1  0
M  CHG  1  25   1
M  END
>  <score>  (5) 
-8.346

$$$$
=
     RDKit          3D

 68 72  0  0  0  0  0  0  0  0999 V2000
    0.0540   66.1870   70.2750 C   0  0  0  0  0  0  0  0  0  0  0  0
   -1.0940   66.1440   69.4850 C   0  0  0  0  0  0  0  0  0  0  0  0
   -1.0380   66.4830   68.1250 C   0  0  0  0  0  0  0  0  0  0  0  0
    0.1640   66.8720   67.5160 C   0  0  0  0  0  0  0  0  0  0  0  0
    1.3040   66.9250   68.3350 C   0  0  0  0  0  0  0  0  0  0  0  0
    1.2550   66.5890   69.6950 C   0  0  0  0  0  0  0  0  0  0  0  0
    1.5350   61.2790   75.2520 C   0  0  0  0  0  0  0  0  0  0  0  0
    0.9190   62.5340   75.2240 C   0  0  0  0  0  0  0  0  0  0  0  0
    0.8560   63.1890   74.0070 C   0  0  0  0  0  0  0  0  0  0  0  0
    1.3710   62.6550   72.8290 C   0  0  0  0  0  0  0  0  0  0  0  0
    1.9840   61.4120   72.8410 C   0  0  0  0  0  0  0  0  0  0  0  0
    2.0700   60.7160   74.0580 C   0  0  0  0  0  0  0  0  0  0  0  0
    1.1690   63.5790   71.6640 C   0  0  0  0  0  0  0  0  0  0  0  0
    0.4410   64.7550   72.2660 C   0  0  0  0  0  0  0  0  0  0  0  0
   -0.0460   65.8670   71.7000 C   0  0  0  0  0  0  0  0  0  0  0  0
    0.2620   64.5000   73.7280 C   0  0  0  0  0  0  0  0  0  0  0  0
   -0.2770   65.2280   74.5370 O   0  0  0  0  0  0  0  0  0  0  0  0
    1.6300   61.1810   77.6390 C   0  0  0  0  0  0  0  0  0  0  0  0
    1.6710   60.5140   76.3850 O   0  0  0  0  0  0  0  0  0  0  0  0
    2.6520   59.4800   74.1960 O   0  0  0  0  0  0  0  0  0  0  0  0
    4.0050   59.3320   73.7940 C   0  0  0  0  0  0  0  0  0  0  0  0
    0.2630   67.2430   66.1640 N   0  0  0  0  0  0  0  0  0  0  0  0
   -0.3170   68.5680   65.8640 C   0  0  0  0  0  0  0  0  0  0  0  0
   -0.4830   68.7650   64.3400 C   0  0  0  0  0  0  0  0  0  0  0  0
    0.8330   68.5150   63.5450 N   0  0  0  0  0  4  0  0  0  0  0  0
    1.3640   67.1100   63.9400 C   0  0  0  0  0  0  0  0  0  0  0  0
    1.5280   66.9450   65.4660 C   0  0  0  0  0  0  0  0  0  0  0  0
    0.4830   68.4900   62.0590 C   0  0  0  0  0  0  0  0  0  0  0  0
    1.8390   69.6470   63.8390 C   0  0  0  0  0  0  0  0  0  0  0  0
    3.2880   69.2510   63.9930 C   0  0  0  0  0  0  0  0  0  0  0  0
    3.9470   68.5300   62.9830 C   0  0  0  0  0  0  0  0  0  0  0  0
    5.2850   68.1550   63.1280 C   0  0  0  0  0  0  0  0  0  0  0  0
    5.9870   68.5010   64.2820 C   0  0  0  0  0  0  0  0  0  0  0  0
    5.3500   69.2290   65.2820 C   0  0  0  0  0  0  0  0  0  0  0  0
    4.0140   69.6090   65.1410 C   0  0  0  0  0  0  0  0  0  0  0  0
    6.2070   69.6660   66.7060 Cl  0  0  0  0  0  0  0  0  0  0  0  0
   -2.0524   65.8415   69.9323 H   0  0  0  0  0  0  0  0  0  0  0  0
   -1.9575   66.4428   67.5226 H   0  0  0  0  0  0  0  0  0  0  0  0
    2.2627   67.2392   67.8965 H   0  0  0  0  0  0  0  0  0  0  0  0
    2.1679   66.6430   70.3062 H   0  0  0  0  0  0  0  0  0  0  0  0
    0.4999   62.9840   76.1361 H   0  0  0  0  0  0  0  0  0  0  0  0
    2.3946   60.9795   71.9167 H   0  0  0  0  0  0  0  0  0  0  0  0
    2.1341   63.8907   71.2380 H   0  0  0  0  0  0  0  0  0  0  0  0
    0.6142   63.1102   70.8379 H   0  0  0  0  0  0  0  0  0  0  0  0
   -0.5571   66.5908   72.3519 H   0  0  0  0  0  0  0  0  0  0  0  0
    1.6756   60.4396   78.4503 H   0  0  0  0  0  0  0  0  0  0  0  0
    2.4878   61.8650   77.7187 H   0  0  0  0  0  0  0  0  0  0  0  0
    0.6949   61.7548   77.7187 H   0  0  0  0  0  0  0  0  0  0  0  0
    4.6466   59.2618   74.6848 H   0  0  0  0  0  0  0  0  0  0  0  0
    4.1109   58.4169   73.1928 H   0  0  0  0  0  0  0  0  0  0  0  0
    4.3062   60.2026   73.1928 H   0  0  0  0  0  0  0  0  0  0  0  0
   -1.3021   68.6476   66.3469 H   0  0  0  0  0  0  0  0  0  0  0  0
    0.3623   69.3439   66.2468 H   0  0  0  0  0  0  0  0  0  0  0  0
   -1.2494   68.0640   63.9778 H   0  0  0  0  0  0  0  0  0  0  0  0
   -0.7724   69.8132   64.1742 H   0  0  0  0  0  0  0  0  0  0  0  0
    0.6552   66.3508   63.5777 H   0  0  0  0  0  0  0  0  0  0  0  0
    2.3572   66.9886   63.4831 H   0  0  0  0  0  0  0  0  0  0  0  0
    1.8265   65.9095   65.6868 H   0  0  0  0  0  0  0  0  0  0  0  0
    2.2980   67.6483   65.8160 H   0  0  0  0  0  0  0  0  0  0  0  0
   -0.6078   68.4121   61.9405 H   0  0  0  0  0  0  0  0  0  0  0  0
    0.8383   69.4158   61.5830 H   0  0  0  0  0  0  0  0  0  0  0  0
    0.9663   67.6241   61.5830 H   0  0  0  0  0  0  0  0  0  0  0  0
    1.7781   70.3689   63.0112 H   0  0  0  0  0  0  0  0  0  0  0  0
    1.5445   70.0440   64.8217 H   0  0  0  0  0  0  0  0  0  0  0  0
    3.4027   68.2574   62.0668 H   0  0  0  0  0  0  0  0  0  0  0  0
    5.7854   67.5860   62.3306 H   0  0  0  0  0  0  0  0  0  0  0  0
    7.0383   68.2001   64.4011 H   0  0  0  0  0  0  0  0  0  0  0  0
    3.5261   70.1933   65.9351 H   0  0  0  0  0  0  0  0  0  0  0  0
  2  1  2  0
  3  2  1  0
  4  3  2  0
  5  4  1  0
  6  5  2  0
  6  1  1  0
  8  7  2  0
  9  8  1  0
 10  9  2  0
 11 10  1  0
 12 11  2  0
 12  7  1  0
 13 10  1  0
 14 13  1  0
 15 14  2  0
 15  1  1  0
 16  9  1  0
 16 14  1  0
 17 16  2  0
 19 18  1  0
 19  7  1  0
 20 12  1  0
 21 20  1  0
 22  4  1  0
 23 22  1  0
 24 23  1  0
 25 24  1  0
 26 25  1  0
 27 26  1  0
 27 22  1  0
 28 25  1  0
 29 25  1  0
 30 29  1  0
 31 30  2  0
 32 31  1  0
 33 32  2  0
 34 33  1  0
 35 34  2  0
 35 30  1  0
 36 34  1  0
  2 37  1  0
  3 38  1  0
  5 39  1  0
  6 40  1  0
  8 41  1  0
 11 42  1  0
 13 43  1  0
 13 44  1  0
 15 45  1  0
 18 46  1  0
 18 47  1  0
 18 48  1  0
 21 49  1  0
 21 50  1  0
 21 51  1  0
 23 52  1  0
 23 53  1  0
 24 54  1  0
 24 55  1  0
 26 56  1  0
 26 57  1  0
 27 58  1  0
 27 59  1  0
 28 60  1  0
 28 61  1  0
 28 62  1  0
 29 63  1  0
 29 64  1  0
 31 65  1  0
 32 66  1  0
 33 67  1  0
 35 68  1  0
M  CHG  1  25   1
M  END
>  <score>  (6) 
-7.913

$$$$
=
     RDKit          3D

 68 72  0  0  0  0  0  0  0  0999 V2000
    1.7690   62.7770   71.4390 C   0  0  0  0  0  0  0  0  0  0  0  0
    2.7290   63.6680   70.9620 C   0  0  0  0  0  0  0  0  0  0  0  0
    2.3450   64.8420   70.2970 C   0  0  0  0  0  0  0  0  0  0  0  0
    0.9940   65.1600   70.0910 C   0  0  0  0  0  0  0  0  0  0  0  0
    0.0450   64.2390   70.5660 C   0  0  0  0  0  0  0  0  0  0  0  0
    0.4210   63.0640   71.2300 C   0  0  0  0  0  0  0  0  0  0  0  0
    2.4960   59.4690   77.7300 C   0  0  0  0  0  0  0  0  0  0  0  0
    2.7610   59.1620   76.3920 C   0  0  0  0  0  0  0  0  0  0  0  0
    2.4360   60.1120   75.4410 C   0  0  0  0  0  0  0  0  0  0  0  0
    1.8670   61.3430   75.7590 C   0  0  0  0  0  0  0  0  0  0  0  0
    1.5990   61.6610   77.0810 C   0  0  0  0  0  0  0  0  0  0  0  0
    1.9130   60.7210   78.0770 C   0  0  0  0  0  0  0  0  0  0  0  0
    1.6160   62.1730   74.5360 C   0  0  0  0  0  0  0  0  0  0  0  0
    2.1210   61.3070   73.4090 C   0  0  0  0  0  0  0  0  0  0  0  0
    2.2020   61.5400   72.0920 C   0  0  0  0  0  0  0  0  0  0  0  0
    2.6200   60.0230   73.9900 C   0  0  0  0  0  0  0  0  0  0  0  0
    3.0950   59.0830   73.3850 O   0  0  0  0  0  0  0  0  0  0  0  0
    4.0970   58.1560   78.9260 C   0  0  0  0  0  0  0  0  0  0  0  0
    2.7640   58.6250   78.7810 O   0  0  0  0  0  0  0  0  0  0  0  0
    1.6960   60.9210   79.4180 O   0  0  0  0  0  0  0  0  0  0  0  0
    1.8270   62.2410   79.9250 C   0  0  0  0  0  0  0  0  0  0  0  0
    0.5640   66.3120   69.4110 N   0  0  0  0  0  0  0  0  0  0  0  0
    1.6260   66.9710   68.6230 C   0  0  0  0  0  0  0  0  0  0  0  0
    1.1900   68.3880   68.1870 C   0  0  0  0  0  0  0  0  0  0  0  0
   -0.1790   68.4040   67.4430 N   0  0  0  0  0  4  0  0  0  0  0  0
   -1.2150   67.6800   68.3450 C   0  0  0  0  0  0  0  0  0  0  0  0
   -0.7570   66.2650   68.7570 C   0  0  0  0  0  0  0  0  0  0  0  0
   -0.6130   69.8600   67.2950 C   0  0  0  0  0  0  0  0  0  0  0  0
   -0.0220   67.7480   66.0550 C   0  0  0  0  0  0  0  0  0  0  0  0
    1.3850   67.5880   65.5310 C   0  0  0  0  0  0  0  0  0  0  0  0
    1.8160   66.3650   64.9910 C   0  0  0  0  0  0  0  0  0  0  0  0
    3.1210   66.2140   64.5140 C   0  0  0  0  0  0  0  0  0  0  0  0
    4.0120   67.2840   64.5630 C   0  0  0  0  0  0  0  0  0  0  0  0
    3.5910   68.5050   65.0800 C   0  0  0  0  0  0  0  0  0  0  0  0
    2.2880   68.6630   65.5560 C   0  0  0  0  0  0  0  0  0  0  0  0
    4.6800   69.8340   65.1410 Cl  0  0  0  0  0  0  0  0  0  0  0  0
    3.7969   63.4487   71.1083 H   0  0  0  0  0  0  0  0  0  0  0  0
    3.1209   65.5291   69.9285 H   0  0  0  0  0  0  0  0  0  0  0  0
   -1.0242   64.4466   70.4120 H   0  0  0  0  0  0  0  0  0  0  0  0
   -0.3500   62.3657   71.5876 H   0  0  0  0  0  0  0  0  0  0  0  0
    3.2115   58.2000   76.1062 H   0  0  0  0  0  0  0  0  0  0  0  0
    1.1496   62.6296   77.3452 H   0  0  0  0  0  0  0  0  0  0  0  0
    0.5429   62.3843   74.4183 H   0  0  0  0  0  0  0  0  0  0  0  0
    2.1122   63.1539   74.5763 H   0  0  0  0  0  0  0  0  0  0  0  0
    2.6232   60.7466   71.4570 H   0  0  0  0  0  0  0  0  0  0  0  0
    4.3412   58.0701   79.9951 H   0  0  0  0  0  0  0  0  0  0  0  0
    4.1929   57.1701   78.4476 H   0  0  0  0  0  0  0  0  0  0  0  0
    4.7891   58.8646   78.4476 H   0  0  0  0  0  0  0  0  0  0  0  0
    1.8243   62.2134   81.0246 H   0  0  0  0  0  0  0  0  0  0  0  0
    2.7729   62.6774   79.5715 H   0  0  0  0  0  0  0  0  0  0  0  0
    0.9854   62.8548   79.5715 H   0  0  0  0  0  0  0  0  0  0  0  0
    2.5356   67.0470   69.2370 H   0  0  0  0  0  0  0  0  0  0  0  0
    1.8197   66.3700   67.7223 H   0  0  0  0  0  0  0  0  0  0  0  0
    1.1089   69.0207   69.0832 H   0  0  0  0  0  0  0  0  0  0  0  0
    1.9493   68.7636   67.4853 H   0  0  0  0  0  0  0  0  0  0  0  0
   -1.3697   68.2790   69.2545 H   0  0  0  0  0  0  0  0  0  0  0  0
   -2.1443   67.5740   67.7661 H   0  0  0  0  0  0  0  0  0  0  0  0
   -1.4907   65.8378   69.4564 H   0  0  0  0  0  0  0  0  0  0  0  0
   -0.6813   65.6419   67.8537 H   0  0  0  0  0  0  0  0  0  0  0  0
   -0.7460   70.3061   68.2917 H   0  0  0  0  0  0  0  0  0  0  0  0
    0.1578   70.4181   66.7433 H   0  0  0  0  0  0  0  0  0  0  0  0
   -1.5636   69.9050   66.7433 H   0  0  0  0  0  0  0  0  0  0  0  0
   -0.4730   66.7461   66.1079 H   0  0  0  0  0  0  0  0  0  0  0  0
   -0.5126   68.4390   65.3537 H   0  0  0  0  0  0  0  0  0  0  0  0
    1.1182   65.5161   64.9430 H   0  0  0  0  0  0  0  0  0  0  0  0
    3.4453   65.2483   64.0990 H   0  0  0  0  0  0  0  0  0  0  0  0
    5.0417   67.1641   64.1952 H   0  0  0  0  0  0  0  0  0  0  0  0
    1.9664   69.6369   65.9536 H   0  0  0  0  0  0  0  0  0  0  0  0
  2  1  2  0
  3  2  1  0
  4  3  2  0
  5  4  1  0
  6  5  2  0
  6  1  1  0
  8  7  2  0
  9  8  1  0
 10  9  2  0
 11 10  1  0
 12 11  2  0
 12  7  1  0
 13 10  1  0
 14 13  1  0
 15 14  2  0
 15  1  1  0
 16  9  1  0
 16 14  1  0
 17 16  2  0
 19 18  1  0
 19  7  1  0
 20 12  1  0
 21 20  1  0
 22  4  1  0
 23 22  1  0
 24 23  1  0
 25 24  1  0
 26 25  1  0
 27 26  1  0
 27 22  1  0
 28 25  1  0
 29 25  1  0
 30 29  1  0
 31 30  2  0
 32 31  1  0
 33 32  2  0
 34 33  1  0
 35 34  2  0
 35 30  1  0
 36 34  1  0
  2 37  1  0
  3 38  1  0
  5 39  1  0
  6 40  1  0
  8 41  1  0
 11 42  1  0
 13 43  1  0
 13 44  1  0
 15 45  1  0
 18 46  1  0
 18 47  1  0
 18 48  1  0
 21 49  1  0
 21 50  1  0
 21 51  1  0
 23 52  1  0
 23 53  1  0
 24 54  1  0
 24 55  1  0
 26 56  1  0
 26 57  1  0
 27 58  1  0
 27 59  1  0
 28 60  1  0
 28 61  1  0
 28 62  1  0
 29 63  1  0
 29 64  1  0
 31 65  1  0
 32 66  1  0
 33 67  1  0
 35 68  1  0
M  CHG  1  25   1
M  END
>  <score>  (7) 
-7.772

$$$$
=
     RDKit          3D

 68 72  0  0  0  0  0  0  0  0999 V2000
    0.8820   66.2790   70.1480 C   0  0  0  0  0  0  0  0  0  0  0  0
   -0.1620   66.0850   71.0520 C   0  0  0  0  0  0  0  0  0  0  0  0
   -0.1530   64.9890   71.9280 C   0  0  0  0  0  0  0  0  0  0  0  0
    0.8960   64.0590   71.9280 C   0  0  0  0  0  0  0  0  0  0  0  0
    1.9290   64.2650   70.9970 C   0  0  0  0  0  0  0  0  0  0  0  0
    1.9250   65.3560   70.1180 C   0  0  0  0  0  0  0  0  0  0  0  0
    2.5050   68.4670   63.5430 C   0  0  0  0  0  0  0  0  0  0  0  0
    1.9130   69.0320   64.6760 C   0  0  0  0  0  0  0  0  0  0  0  0
    1.7580   68.2240   65.7880 C   0  0  0  0  0  0  0  0  0  0  0  0
    2.1630   66.8920   65.8230 C   0  0  0  0  0  0  0  0  0  0  0  0
    2.7520   66.3180   64.7070 C   0  0  0  0  0  0  0  0  0  0  0  0
    2.9260   67.1060   63.5570 C   0  0  0  0  0  0  0  0  0  0  0  0
    1.8700   66.2550   67.1480 C   0  0  0  0  0  0  0  0  0  0  0  0
    1.2440   67.3700   67.9470 C   0  0  0  0  0  0  0  0  0  0  0  0
    0.8230   67.4080   69.2190 C   0  0  0  0  0  0  0  0  0  0  0  0
    1.1740   68.5880   67.0820 C   0  0  0  0  0  0  0  0  0  0  0  0
    0.7270   69.6750   67.3860 O   0  0  0  0  0  0  0  0  0  0  0  0
    4.0300   69.1000   61.8130 C   0  0  0  0  0  0  0  0  0  0  0  0
    2.7230   69.1460   62.3690 O   0  0  0  0  0  0  0  0  0  0  0  0
    3.4950   66.6510   62.3930 O   0  0  0  0  0  0  0  0  0  0  0  0
    4.5710   65.7300   62.4920 C   0  0  0  0  0  0  0  0  0  0  0  0
    0.9360   62.9350   72.7710 N   0  0  0  0  0  0  0  0  0  0  0  0
    0.1050   61.8070   72.3000 C   0  0  0  0  0  0  0  0  0  0  0  0
   -0.0780   60.7550   73.4170 C   0  0  0  0  0  0  0  0  0  0  0  0
    1.2710   60.2680   74.0250 N   0  0  0  0  0  4  0  0  0  0  0  0
    2.0690   61.5220   74.4720 C   0  0  0  0  0  0  0  0  0  0  0  0
    2.2430   62.5510   73.3350 C   0  0  0  0  0  0  0  0  0  0  0  0
    0.9520   59.4390   75.2670 C   0  0  0  0  0  0  0  0  0  0  0  0
    2.0250   59.4090   72.9880 C   0  0  0  0  0  0  0  0  0  0  0  0
    3.1600   60.0740   72.2470 C   0  0  0  0  0  0  0  0  0  0  0  0
    4.4450   60.1410   72.8100 C   0  0  0  0  0  0  0  0  0  0  0  0
    5.4940   60.7640   72.1280 C   0  0  0  0  0  0  0  0  0  0  0  0
    5.2760   61.3230   70.8700 C   0  0  0  0  0  0  0  0  0  0  0  0
    4.0110   61.2480   70.2940 C   0  0  0  0  0  0  0  0  0  0  0  0
    2.9600   60.6250   70.9700 C   0  0  0  0  0  0  0  0  0  0  0  0
    3.7320   61.9300   68.7410 Cl  0  0  0  0  0  0  0  0  0  0  0  0
   -0.9998   66.7974   71.0785 H   0  0  0  0  0  0  0  0  0  0  0  0
   -0.9885   64.8564   72.6311 H   0  0  0  0  0  0  0  0  0  0  0  0
    2.7637   63.5497   70.9575 H   0  0  0  0  0  0  0  0  0  0  0  0
    2.7492   65.4843   69.4009 H   0  0  0  0  0  0  0  0  0  0  0  0
    1.5823   70.0811   64.6832 H   0  0  0  0  0  0  0  0  0  0  0  0
    3.0765   65.2670   64.7216 H   0  0  0  0  0  0  0  0  0  0  0  0
    1.1708   65.4136   67.0332 H   0  0  0  0  0  0  0  0  0  0  0  0
    2.7666   65.8362   67.6284 H   0  0  0  0  0  0  0  0  0  0  0  0
    0.4036   68.3546   69.5907 H   0  0  0  0  0  0  0  0  0  0  0  0
    4.7727   69.0739   62.6240 H   0  0  0  0  0  0  0  0  0  0  0  0
    4.1329   68.1977   61.1923 H   0  0  0  0  0  0  0  0  0  0  0  0
    4.1961   69.9929   61.1923 H   0  0  0  0  0  0  0  0  0  0  0  0
    4.7939   65.5392   63.5521 H   0  0  0  0  0  0  0  0  0  0  0  0
    4.2923   64.7863   62.0003 H   0  0  0  0  0  0  0  0  0  0  0  0
    5.4604   66.1510   62.0003 H   0  0  0  0  0  0  0  0  0  0  0  0
   -0.8819   62.1877   71.9983 H   0  0  0  0  0  0  0  0  0  0  0  0
    0.6094   61.3303   71.4465 H   0  0  0  0  0  0  0  0  0  0  0  0
   -0.6839   61.1993   74.2204 H   0  0  0  0  0  0  0  0  0  0  0  0
   -0.5693   59.8801   72.9662 H   0  0  0  0  0  0  0  0  0  0  0  0
    1.5328   62.0029   75.3034 H   0  0  0  0  0  0  0  0  0  0  0  0
    3.0721   61.1879   74.7755 H   0  0  0  0  0  0  0  0  0  0  0  0
    2.7412   63.4473   73.7330 H   0  0  0  0  0  0  0  0  0  0  0  0
    2.8506   62.0966   72.5385 H   0  0  0  0  0  0  0  0  0  0  0  0
    1.1783   60.0272   76.1685 H   0  0  0  0  0  0  0  0  0  0  0  0
   -0.1143   59.1688   75.2636 H   0  0  0  0  0  0  0  0  0  0  0  0
    1.5622   58.5237   75.2636 H   0  0  0  0  0  0  0  0  0  0  0  0
    2.4384   58.5371   73.5160 H   0  0  0  0  0  0  0  0  0  0  0  0
    1.2788   59.1703   72.2158 H   0  0  0  0  0  0  0  0  0  0  0  0
    4.6281   59.6977   73.7999 H   0  0  0  0  0  0  0  0  0  0  0  0
    6.4934   60.8132   72.5849 H   0  0  0  0  0  0  0  0  0  0  0  0
    6.0987   61.8205   70.3355 H   0  0  0  0  0  0  0  0  0  0  0  0
    1.9677   60.5651   70.4991 H   0  0  0  0  0  0  0  0  0  0  0  0
  2  1  2  0
  3  2  1  0
  4  3  2  0
  5  4  1  0
  6  5  2  0
  6  1  1  0
  8  7  2  0
  9  8  1  0
 10  9  2  0
 11 10  1  0
 12 11  2  0
 12  7  1  0
 13 10  1  0
 14 13  1  0
 15 14  2  0
 15  1  1  0
 16  9  1  0
 16 14  1  0
 17 16  2  0
 19 18  1  0
 19  7  1  0
 20 12  1  0
 21 20  1  0
 22  4  1  0
 23 22  1  0
 24 23  1  0
 25 24  1  0
 26 25  1  0
 27 26  1  0
 27 22  1  0
 28 25  1  0
 29 25  1  0
 30 29  1  0
 31 30  2  0
 32 31  1  0
 33 32  2  0
 34 33  1  0
 35 34  2  0
 35 30  1  0
 36 34  1  0
  2 37  1  0
  3 38  1  0
  5 39  1  0
  6 40  1  0
  8 41  1  0
 11 42  1  0
 13 43  1  0
 13 44  1  0
 15 45  1  0
 18 46  1  0
 18 47  1  0
 18 48  1  0
 21 49  1  0
 21 50  1  0
 21 51  1  0
 23 52  1  0
 23 53  1  0
 24 54  1  0
 24 55  1  0
 26 56  1  0
 26 57  1  0
 27 58  1  0
 27 59  1  0
 28 60  1  0
 28 61  1  0
 28 62  1  0
 29 63  1  0
 29 64  1  0
 31 65  1  0
 32 66  1  0
 33 67  1  0
 35 68  1  0
M  CHG  1  25   1
M  END
>  <score>  (8) 
-7.511

$$$$
=
     RDKit          3D

 68 72  0  0  0  0  0  0  0  0999 V2000
    1.5210   63.0270   71.9650 C   0  0  0  0  0  0  0  0  0  0  0  0
    2.5760   63.6590   71.3080 C   0  0  0  0  0  0  0  0  0  0  0  0
    2.3270   64.5990   70.2970 C   0  0  0  0  0  0  0  0  0  0  0  0
    1.0200   64.9350   69.9150 C   0  0  0  0  0  0  0  0  0  0  0  0
   -0.0270   64.2740   70.5780 C   0  0  0  0  0  0  0  0  0  0  0  0
    0.2140   63.3330   71.5870 C   0  0  0  0  0  0  0  0  0  0  0  0
    1.2820   61.6010   78.9610 C   0  0  0  0  0  0  0  0  0  0  0  0
    1.7060   60.9330   77.8090 C   0  0  0  0  0  0  0  0  0  0  0  0
    1.5480   61.5810   76.5980 C   0  0  0  0  0  0  0  0  0  0  0  0
    0.9940   62.8540   76.4830 C   0  0  0  0  0  0  0  0  0  0  0  0
    0.5680   63.5280   77.6170 C   0  0  0  0  0  0  0  0  0  0  0  0
    0.7100   62.9030   78.8660 C   0  0  0  0  0  0  0  0  0  0  0  0
    0.9390   63.3110   75.0560 C   0  0  0  0  0  0  0  0  0  0  0  0
    1.5510   62.1630   74.2920 C   0  0  0  0  0  0  0  0  0  0  0  0
    1.8130   62.0200   72.9860 C   0  0  0  0  0  0  0  0  0  0  0  0
    1.9170   61.0900   75.2670 C   0  0  0  0  0  0  0  0  0  0  0  0
    2.4280   60.0180   75.0160 O   0  0  0  0  0  0  0  0  0  0  0  0
    2.6120   60.4980   80.6140 C   0  0  0  0  0  0  0  0  0  0  0  0
    1.3750   61.0830   80.2310 O   0  0  0  0  0  0  0  0  0  0  0  0
    0.3280   63.4690   80.0580 O   0  0  0  0  0  0  0  0  0  0  0  0
    1.0080   64.6390   80.4880 C   0  0  0  0  0  0  0  0  0  0  0  0
    0.7240   65.8540   68.8920 N   0  0  0  0  0  0  0  0  0  0  0  0
   -0.3500   66.8070   69.2400 C   0  0  0  0  0  0  0  0  0  0  0  0
   -0.8550   67.5500   67.9820 C   0  0  0  0  0  0  0  0  0  0  0  0
    0.2890   68.2330   67.1750 N   0  0  0  0  0  4  0  0  0  0  0  0
    1.3640   67.1540   66.8750 C   0  0  0  0  0  0  0  0  0  0  0  0
    1.8570   66.4360   68.1490 C   0  0  0  0  0  0  0  0  0  0  0  0
   -0.2950   68.7050   65.8460 C   0  0  0  0  0  0  0  0  0  0  0  0
    0.8410   69.4320   67.9730 C   0  0  0  0  0  0  0  0  0  0  0  0
    2.3200   69.7110   67.8510 C   0  0  0  0  0  0  0  0  0  0  0  0
    3.0500   70.2120   68.9420 C   0  0  0  0  0  0  0  0  0  0  0  0
    4.4170   70.4790   68.8260 C   0  0  0  0  0  0  0  0  0  0  0  0
    5.0760   70.2430   67.6210 C   0  0  0  0  0  0  0  0  0  0  0  0
    4.3670   69.7320   66.5380 C   0  0  0  0  0  0  0  0  0  0  0  0
    3.0020   69.4610   66.6480 C   0  0  0  0  0  0  0  0  0  0  0  0
    5.1710   69.4320   65.0490 Cl  0  0  0  0  0  0  0  0  0  0  0  0
    3.6130   63.4183   71.5850 H   0  0  0  0  0  0  0  0  0  0  0  0
    3.1759   65.0835   69.7924 H   0  0  0  0  0  0  0  0  0  0  0  0
   -1.0658   64.5018   70.2968 H   0  0  0  0  0  0  0  0  0  0  0  0
   -0.6310   62.8333   72.0833 H   0  0  0  0  0  0  0  0  0  0  0  0
    2.1495   59.9278   77.8638 H   0  0  0  0  0  0  0  0  0  0  0  0
    0.1273   64.5329   77.5397 H   0  0  0  0  0  0  0  0  0  0  0  0
   -0.0999   63.4843   74.7389 H   0  0  0  0  0  0  0  0  0  0  0  0
    1.4653   64.2628   74.8914 H   0  0  0  0  0  0  0  0  0  0  0  0
    2.2804   61.0798   72.6581 H   0  0  0  0  0  0  0  0  0  0  0  0
    2.6785   60.4666   81.7115 H   0  0  0  0  0  0  0  0  0  0  0  0
    2.6736   59.4754   80.2135 H   0  0  0  0  0  0  0  0  0  0  0  0
    3.4415   61.0992   80.2135 H   0  0  0  0  0  0  0  0  0  0  0  0
    1.0258   64.6696   81.5874 H   0  0  0  0  0  0  0  0  0  0  0  0
    2.0390   64.6256   80.1048 H   0  0  0  0  0  0  0  0  0  0  0  0
    0.4860   65.5282   80.1048 H   0  0  0  0  0  0  0  0  0  0  0  0
   -1.1872   66.2565   69.6939 H   0  0  0  0  0  0  0  0  0  0  0  0
    0.0515   67.5466   69.9484 H   0  0  0  0  0  0  0  0  0  0  0  0
   -1.3610   66.8254   67.3271 H   0  0  0  0  0  0  0  0  0  0  0  0
   -1.5361   68.3442   68.3216 H   0  0  0  0  0  0  0  0  0  0  0  0
    0.9317   66.4060   66.1941 H   0  0  0  0  0  0  0  0  0  0  0  0
    2.2288   67.6623   66.4236 H   0  0  0  0  0  0  0  0  0  0  0  0
    2.5526   65.6328   67.8643 H   0  0  0  0  0  0  0  0  0  0  0  0
    2.3632   67.1692   68.7942 H   0  0  0  0  0  0  0  0  0  0  0  0
   -1.1375   69.3859   66.0369 H   0  0  0  0  0  0  0  0  0  0  0  0
    0.4804   69.2331   65.2717 H   0  0  0  0  0  0  0  0  0  0  0  0
   -0.6487   67.8361   65.2717 H   0  0  0  0  0  0  0  0  0  0  0  0
    0.3043   70.3310   67.6358 H   0  0  0  0  0  0  0  0  0  0  0  0
    0.6849   69.1695   69.0297 H   0  0  0  0  0  0  0  0  0  0  0  0
    2.5396   70.3963   69.8988 H   0  0  0  0  0  0  0  0  0  0  0  0
    4.9738   70.8762   69.6875 H   0  0  0  0  0  0  0  0  0  0  0  0
    6.1504   70.4594   67.5264 H   0  0  0  0  0  0  0  0  0  0  0  0
    2.4562   69.0487   65.7866 H   0  0  0  0  0  0  0  0  0  0  0  0
  2  1  2  0
  3  2  1  0
  4  3  2  0
  5  4  1  0
  6  5  2  0
  6  1  1  0
  8  7  2  0
  9  8  1  0
 10  9  2  0
 11 10  1  0
 12 11  2  0
 12  7  1  0
 13 10  1  0
 14 13  1  0
 15 14  2  0
 15  1  1  0
 16  9  1  0
 16 14  1  0
 17 16  2  0
 19 18  1  0
 19  7  1  0
 20 12  1  0
 21 20  1  0
 22  4  1  0
 23 22  1  0
 24 23  1  0
 25 24  1  0
 26 25  1  0
 27 26  1  0
 27 22  1  0
 28 25  1  0
 29 25  1  0
 30 29  1  0
 31 30  2  0
 32 31  1  0
 33 32  2  0
 34 33  1  0
 35 34  2  0
 35 30  1  0
 36 34  1  0
  2 37  1  0
  3 38  1  0
  5 39  1  0
  6 40  1  0
  8 41  1  0
 11 42  1  0
 13 43  1  0
 13 44  1  0
 15 45  1  0
 18 46  1  0
 18 47  1  0
 18 48  1  0
 21 49  1  0
 21 50  1  0
 21 51  1  0
 23 52  1  0
 23 53  1  0
 24 54  1  0
 24 55  1  0
 26 56  1  0
 26 57  1  0
 27 58  1  0
 27 59  1  0
 28 60  1  0
 28 61  1  0
 28 62  1  0
 29 63  1  0
 29 64  1  0
 31 65  1  0
 32 66  1  0
 33 67  1  0
 35 68  1  0
M  CHG  1  25   1
M  END
>  <score>  (9) 
-7.39

$$$$
