=
     RDKit          3D

 53 56  0  0  0  0  0  0  0  0999 V2000
    0.4300   67.7700   66.6300 C   0  0  0  0  0  0  0  0  0  0  0  0
   -0.9280   67.1250   66.9670 C   0  0  0  0  0  0  0  0  0  0  0  0
   -1.1090   66.8160   68.4510 C   0  0  0  0  0  0  0  0  0  0  0  0
    0.2190   66.4480   69.0480 N   0  0  0  0  0  4  0  0  0  0  0  0
    1.2020   67.6000   69.0420 C   0  0  0  0  0  0  0  0  0  0  0  0
    0.9830   68.5220   67.8410 C   0  0  0  0  0  0  0  0  0  0  0  0
    0.3640   68.6230   65.3480 C   0  0  0  0  0  0  0  0  0  0  0  0
    0.8310   67.9180   64.0680 C   0  0  0  0  0  0  0  0  0  0  0  0
    4.7320   69.6280   66.2020 C   0  0  0  0  0  0  0  0  0  0  0  0
    5.7260   69.8720   65.2470 C   0  0  0  0  0  0  0  0  0  0  0  0
    5.5070   69.6180   63.8850 C   0  0  0  0  0  0  0  0  0  0  0  0
    4.2560   69.1160   63.5430 C   0  0  0  0  0  0  0  0  0  0  0  0
    3.2460   68.8610   64.4510 C   0  0  0  0  0  0  0  0  0  0  0  0
    3.4810   69.1190   65.8110 C   0  0  0  0  0  0  0  0  0  0  0  0
    2.1870   68.3690   63.6490 C   0  0  0  0  0  0  0  0  0  0  0  0
    2.5270   68.3240   62.3530 N   0  0  0  0  0  0  0  0  0  0  0  0
    3.8290   68.7970   62.2920 O   0  0  0  0  0  0  0  0  0  0  0  0
    5.8150   70.7950   67.9740 C   0  0  0  0  0  0  0  0  0  0  0  0
    4.8470   69.8400   67.5510 O   0  0  0  0  0  0  0  0  0  0  0  0
    0.0730   65.8130   70.4170 C   0  0  0  0  0  0  0  0  0  0  0  0
    0.9700   64.6210   70.6040 C   0  0  0  0  0  0  0  0  0  0  0  0
    0.4570   63.4100   71.0950 C   0  0  0  0  0  0  0  0  0  0  0  0
    1.2980   62.3170   71.2990 C   0  0  0  0  0  0  0  0  0  0  0  0
    2.6580   62.4200   71.0160 C   0  0  0  0  0  0  0  0  0  0  0  0
    3.1800   63.6140   70.5240 C   0  0  0  0  0  0  0  0  0  0  0  0
    2.3420   64.7110   70.3180 C   0  0  0  0  0  0  0  0  0  0  0  0
    1.1488   66.9693   66.4013 H   0  0  0  0  0  0  0  0  0  0  0  0
   -1.7267   67.8144   66.6559 H   0  0  0  0  0  0  0  0  0  0  0  0
   -0.9699   66.1652   66.4313 H   0  0  0  0  0  0  0  0  0  0  0  0
   -1.5095   67.7025   68.9645 H   0  0  0  0  0  0  0  0  0  0  0  0
   -1.8108   65.9773   68.5694 H   0  0  0  0  0  0  0  0  0  0  0  0
    0.6254   65.7284   68.4332 H   0  0  0  0  0  0  0  0  0  0  0  0
    1.0751   68.1822   69.9666 H   0  0  0  0  0  0  0  0  0  0  0  0
    2.2183   67.1843   68.9754 H   0  0  0  0  0  0  0  0  0  0  0  0
    0.2700   69.3102   68.1246 H   0  0  0  0  0  0  0  0  0  0  0  0
    1.9576   68.9470   67.5589 H   0  0  0  0  0  0  0  0  0  0  0  0
   -0.6801   68.9368   65.2018 H   0  0  0  0  0  0  0  0  0  0  0  0
    1.0580   69.4620   65.5042 H   0  0  0  0  0  0  0  0  0  0  0  0
    0.8570   66.8333   64.2487 H   0  0  0  0  0  0  0  0  0  0  0  0
    0.1244   68.1690   63.2632 H   0  0  0  0  0  0  0  0  0  0  0  0
    6.6985   70.2710   65.5712 H   0  0  0  0  0  0  0  0  0  0  0  0
    6.2829   69.8058   63.1282 H   0  0  0  0  0  0  0  0  0  0  0  0
    2.6982   68.9258   66.5593 H   0  0  0  0  0  0  0  0  0  0  0  0
    5.8449   70.8245   69.0732 H   0  0  0  0  0  0  0  0  0  0  0  0
    6.8047   70.5097   67.5878 H   0  0  0  0  0  0  0  0  0  0  0  0
    5.5431   71.7884   67.5878 H   0  0  0  0  0  0  0  0  0  0  0  0
    0.3221   66.5639   71.1813 H   0  0  0  0  0  0  0  0  0  0  0  0
   -0.9659   65.4643   70.5117 H   0  0  0  0  0  0  0  0  0  0  0  0
   -0.6161   63.3229   71.3204 H   0  0  0  0  0  0  0  0  0  0  0  0
    0.8871   61.3720   71.6839 H   0  0  0  0  0  0  0  0  0  0  0  0
    3.3204   61.5575   71.1812 H   0  0  0  0  0  0  0  0  0  0  0  0
    4.2536   63.6924   70.2976 H   0  0  0  0  0  0  0  0  0  0  0  0
    2.7588   65.6518   69.9292 H   0  0  0  0  0  0  0  0  0  0  0  0
  2  1  1  0
  3  2  1  0
  4  3  1  0
  5  4  1  0
  6  5  1  0
  6  1  1  0
  7  1  1  0
  8  7  1  0
 10  9  2  0
 11 10  1  0
 12 11  2  0
 13 12  1  0
 14 13  2  0
 14  9  1  0
 15 13  1  0
 15  8  1  0
 16 15  2  0
 17 16  1  0
 17 12  1  0
 19  9  1  0
 19 18  1  0
 20  4  1  0
 21 20  1  0
 22 21  2  0
 23 22  1  0
 24 23  2  0
 25 24  1  0
 26 25  2  0
 26 21  1  0
  1 27  1  0
  2 28  1  0
  2 29  1  0
  3 30  1  0
  3 31  1  0
  4 32  1  0
  5 33  1  0
  5 34  1  0
  6 35  1  0
  6 36  1  0
  7 37  1  0
  7 38  1  0
  8 39  1  0
  8 40  1  0
 10 41  1  0
 11 42  1  0
 14 43  1  0
 18 44  1  0
 18 45  1  0
 18 46  1  0
 20 47  1  0
 20 48  1  0
 22 49  1  0
 23 50  1  0
 24 51  1  0
 25 52  1  0
 26 53  1  0
M  CHG  1   4   1
M  END
>  <score>  (1) 
-10.394

$$$$
=
     RDKit          3D

 53 56  0  0  0  0  0  0  0  0999 V2000
    0.3710   65.5000   70.2580 C   0  0  0  0  0  0  0  0  0  0  0  0
    1.9100   65.4220   70.2290 C   0  0  0  0  0  0  0  0  0  0  0  0
    2.4680   64.1230   70.8060 C   0  0  0  0  0  0  0  0  0  0  0  0
    1.5770   63.6490   71.9180 N   0  0  0  0  0  4  0  0  0  0  0  0
    0.1960   63.2580   71.4340 C   0  0  0  0  0  0  0  0  0  0  0  0
   -0.2390   64.0990   70.2320 C   0  0  0  0  0  0  0  0  0  0  0  0
   -0.1810   66.4370   69.1650 C   0  0  0  0  0  0  0  0  0  0  0  0
    0.7700   67.5560   68.7200 C   0  0  0  0  0  0  0  0  0  0  0  0
    3.9140   69.4190   65.6650 C   0  0  0  0  0  0  0  0  0  0  0  0
    3.5870   69.0410   64.3580 C   0  0  0  0  0  0  0  0  0  0  0  0
    2.4740   68.2290   64.0910 C   0  0  0  0  0  0  0  0  0  0  0  0
    1.7230   67.8280   65.1910 C   0  0  0  0  0  0  0  0  0  0  0  0
    2.0090   68.1790   66.4970 C   0  0  0  0  0  0  0  0  0  0  0  0
    3.1270   68.9910   66.7480 C   0  0  0  0  0  0  0  0  0  0  0  0
    0.9870   67.5470   67.2470 C   0  0  0  0  0  0  0  0  0  0  0  0
    0.1470   66.8610   66.4600 N   0  0  0  0  0  0  0  0  0  0  0  0
    0.6130   67.0430   65.1660 O   0  0  0  0  0  0  0  0  0  0  0  0
    5.3340   70.2120   67.4060 C   0  0  0  0  0  0  0  0  0  0  0  0
    4.9760   70.2050   66.0290 O   0  0  0  0  0  0  0  0  0  0  0  0
    2.2320   62.5640   72.7500 C   0  0  0  0  0  0  0  0  0  0  0  0
    3.1900   61.7190   71.9570 C   0  0  0  0  0  0  0  0  0  0  0  0
    4.5750   61.8530   72.1320 C   0  0  0  0  0  0  0  0  0  0  0  0
    5.4610   61.0910   71.3710 C   0  0  0  0  0  0  0  0  0  0  0  0
    4.9740   60.1890   70.4280 C   0  0  0  0  0  0  0  0  0  0  0  0
    3.6010   60.0420   70.2460 C   0  0  0  0  0  0  0  0  0  0  0  0
    2.7100   60.8020   71.0060 C   0  0  0  0  0  0  0  0  0  0  0  0
    0.0628   65.9592   71.2089 H   0  0  0  0  0  0  0  0  0  0  0  0
    2.2429   65.5095   69.1842 H   0  0  0  0  0  0  0  0  0  0  0  0
    2.2861   66.2420   70.8584 H   0  0  0  0  0  0  0  0  0  0  0  0
    2.5085   63.3581   70.0165 H   0  0  0  0  0  0  0  0  0  0  0  0
    3.4812   64.2992   71.1962 H   0  0  0  0  0  0  0  0  0  0  0  0
    1.4379   64.4550   72.5441 H   0  0  0  0  0  0  0  0  0  0  0  0
    0.2070   62.1974   71.1423 H   0  0  0  0  0  0  0  0  0  0  0  0
   -0.5177   63.4331   72.2526 H   0  0  0  0  0  0  0  0  0  0  0  0
    0.0795   63.5908   69.3099 H   0  0  0  0  0  0  0  0  0  0  0  0
   -1.3331   64.2057   70.2721 H   0  0  0  0  0  0  0  0  0  0  0  0
   -0.4226   65.8255   68.2832 H   0  0  0  0  0  0  0  0  0  0  0  0
   -1.0552   66.9379   69.6064 H   0  0  0  0  0  0  0  0  0  0  0  0
    0.3388   68.5255   69.0100 H   0  0  0  0  0  0  0  0  0  0  0  0
    1.7417   67.3921   69.2088 H   0  0  0  0  0  0  0  0  0  0  0  0
    4.2146   69.3871   63.5235 H   0  0  0  0  0  0  0  0  0  0  0  0
    2.2098   67.9260   63.0671 H   0  0  0  0  0  0  0  0  0  0  0  0
    3.3827   69.2874   67.7760 H   0  0  0  0  0  0  0  0  0  0  0  0
    4.4227   70.1942   68.0219 H   0  0  0  0  0  0  0  0  0  0  0  0
    5.9456   69.3256   67.6304 H   0  0  0  0  0  0  0  0  0  0  0  0
    5.9105   71.1216   67.6304 H   0  0  0  0  0  0  0  0  0  0  0  0
    2.7826   63.0386   73.5756 H   0  0  0  0  0  0  0  0  0  0  0  0
    1.4341   61.9024   73.1183 H   0  0  0  0  0  0  0  0  0  0  0  0
    4.9653   62.5643   72.8748 H   0  0  0  0  0  0  0  0  0  0  0  0
    6.5457   61.2024   71.5156 H   0  0  0  0  0  0  0  0  0  0  0  0
    5.6748   59.5919   69.8261 H   0  0  0  0  0  0  0  0  0  0  0  0
    3.2184   59.3267   69.5030 H   0  0  0  0  0  0  0  0  0  0  0  0
    1.6263   60.6825   70.8598 H   0  0  0  0  0  0  0  0  0  0  0  0
  2  1  1  0
  3  2  1  0
  4  3  1  0
  5  4  1  0
  6  5  1  0
  6  1  1  0
  7  1  1  0
  8  7  1  0
 10  9  2  0
 11 10  1  0
 12 11  2  0
 13 12  1  0
 14 13  2  0
 14  9  1  0
 15 13  1  0
 15  8  1  0
 16 15  2  0
 17 16  1  0
 17 12  1  0
 19  9  1  0
 19 18  1  0
 20  4  1  0
 21 20  1  0
 22 21  2  0
 23 22  1  0
 24 23  2  0
 25 24  1  0
 26 25  2  0
 26 21  1  0
  1 27  1  0
  2 28  1  0
  2 29  1  0
  3 30  1  0
  3 31  1  0
  4 32  1  0
  5 33  1  0
  5 34  1  0
  6 35  1  0
  6 36  1  0
  7 37  1  0
  7 38  1  0
  8 39  1  0
  8 40  1  0
 10 41  1  0
 11 42  1  0
 14 43  1  0
 18 44  1  0
 18 45  1  0
 18 46  1  0
 20 47  1  0
 20 48  1  0
 22 49  1  0
 23 50  1  0
 24 51  1  0
 25 52  1  0
 26 53  1  0
M  CHG  1   4   1
M  END
>  <score>  (2) 
-10.303

$$$$
=
     RDKit          3D

 53 56  0  0  0  0  0  0  0  0999 V2000
    0.6810   66.9040   68.7610 C   0  0  0  0  0  0  0  0  0  0  0  0
    1.2240   68.3190   68.4820 C   0  0  0  0  0  0  0  0  0  0  0  0
    0.4260   69.0860   67.4320 C   0  0  0  0  0  0  0  0  0  0  0  0
   -0.1050   68.1240   66.4080 N   0  0  0  0  0  4  0  0  0  0  0  0
   -1.1160   67.1550   66.9850 C   0  0  0  0  0  0  0  0  0  0  0  0
   -0.8140   66.8320   68.4500 C   0  0  0  0  0  0  0  0  0  0  0  0
    1.0450   66.4120   70.1760 C   0  0  0  0  0  0  0  0  0  0  0  0
    1.9350   65.1640   70.2260 C   0  0  0  0  0  0  0  0  0  0  0  0
    3.0610   60.7060   71.4720 C   0  0  0  0  0  0  0  0  0  0  0  0
    2.0180   60.1450   72.2190 C   0  0  0  0  0  0  0  0  0  0  0  0
    0.8520   60.8710   72.5040 C   0  0  0  0  0  0  0  0  0  0  0  0
    0.7940   62.1680   72.0050 C   0  0  0  0  0  0  0  0  0  0  0  0
    1.7980   62.7610   71.2630 C   0  0  0  0  0  0  0  0  0  0  0  0
    2.9600   62.0210   70.9880 C   0  0  0  0  0  0  0  0  0  0  0  0
    1.2940   64.0560   70.9880 C   0  0  0  0  0  0  0  0  0  0  0  0
    0.0790   64.2390   71.5240 N   0  0  0  0  0  0  0  0  0  0  0  0
   -0.2310   63.0470   72.1610 O   0  0  0  0  0  0  0  0  0  0  0  0
    5.4300   60.8470   71.2630 C   0  0  0  0  0  0  0  0  0  0  0  0
    4.2350   60.0820   71.1430 O   0  0  0  0  0  0  0  0  0  0  0  0
   -0.6170   68.8320   65.1700 C   0  0  0  0  0  0  0  0  0  0  0  0
    0.3640   68.7950   64.0310 C   0  0  0  0  0  0  0  0  0  0  0  0
    1.6770   68.3450   64.2330 C   0  0  0  0  0  0  0  0  0  0  0  0
    2.5930   68.3430   63.1810 C   0  0  0  0  0  0  0  0  0  0  0  0
    2.2090   68.7900   61.9190 C   0  0  0  0  0  0  0  0  0  0  0  0
    0.9070   69.2350   61.7030 C   0  0  0  0  0  0  0  0  0  0  0  0
   -0.0130   69.2390   62.7520 C   0  0  0  0  0  0  0  0  0  0  0  0
    1.1788   66.1986   68.0794 H   0  0  0  0  0  0  0  0  0  0  0  0
    1.2018   68.8910   69.4213 H   0  0  0  0  0  0  0  0  0  0  0  0
    2.2438   68.2000   68.0872 H   0  0  0  0  0  0  0  0  0  0  0  0
   -0.4133   69.6063   67.9167 H   0  0  0  0  0  0  0  0  0  0  0  0
    1.0784   69.8228   66.9405 H   0  0  0  0  0  0  0  0  0  0  0  0
    0.6951   67.5497   66.1064 H   0  0  0  0  0  0  0  0  0  0  0  0
   -2.1185   67.6027   66.9175 H   0  0  0  0  0  0  0  0  0  0  0  0
   -1.0639   66.2196   66.4086 H   0  0  0  0  0  0  0  0  0  0  0  0
   -1.3438   67.5543   69.0885 H   0  0  0  0  0  0  0  0  0  0  0  0
   -1.1503   65.8030   68.6451 H   0  0  0  0  0  0  0  0  0  0  0  0
    1.5722   67.2266   70.6941 H   0  0  0  0  0  0  0  0  0  0  0  0
    0.0955   66.1284   70.6536 H   0  0  0  0  0  0  0  0  0  0  0  0
    2.1285   64.8235   69.1981 H   0  0  0  0  0  0  0  0  0  0  0  0
    2.8713   65.4327   70.7370 H   0  0  0  0  0  0  0  0  0  0  0  0
    2.1149   59.1140   72.5899 H   0  0  0  0  0  0  0  0  0  0  0  0
    0.0282   60.4380   73.0904 H   0  0  0  0  0  0  0  0  0  0  0  0
    3.7787   62.4646   70.4024 H   0  0  0  0  0  0  0  0  0  0  0  0
    5.6641   60.9969   72.3273 H   0  0  0  0  0  0  0  0  0  0  0  0
    6.2588   60.3111   70.7772 H   0  0  0  0  0  0  0  0  0  0  0  0
    5.2903   61.8240   70.7772 H   0  0  0  0  0  0  0  0  0  0  0  0
   -1.5493   68.3456   64.8470 H   0  0  0  0  0  0  0  0  0  0  0  0
   -0.7783   69.8875   65.4345 H   0  0  0  0  0  0  0  0  0  0  0  0
    1.9864   67.9913   65.2276 H   0  0  0  0  0  0  0  0  0  0  0  0
    3.6205   67.9877   63.3484 H   0  0  0  0  0  0  0  0  0  0  0  0
    2.9346   68.7916   61.0922 H   0  0  0  0  0  0  0  0  0  0  0  0
    0.6038   69.5835   60.7047 H   0  0  0  0  0  0  0  0  0  0  0  0
   -1.0400   69.5919   62.5768 H   0  0  0  0  0  0  0  0  0  0  0  0
  2  1  1  0
  3  2  1  0
  4  3  1  0
  5  4  1  0
  6  5  1  0
  6  1  1  0
  7  1  1  0
  8  7  1  0
 10  9  2  0
 11 10  1  0
 12 11  2  0
 13 12  1  0
 14 13  2  0
 14  9  1  0
 15 13  1  0
 15  8  1  0
 16 15  2  0
 17 16  1  0
 17 12  1  0
 19  9  1  0
 19 18  1  0
 20  4  1  0
 21 20  1  0
 22 21  2  0
 23 22  1  0
 24 23  2  0
 25 24  1  0
 26 25  2  0
 26 21  1  0
  1 27  1  0
  2 28  1  0
  2 29  1  0
  3 30  1  0
  3 31  1  0
  4 32  1  0
  5 33  1  0
  5 34  1  0
  6 35  1  0
  6 36  1  0
  7 37  1  0
  7 38  1  0
  8 39  1  0
  8 40  1  0
 10 41  1  0
 11 42  1  0
 14 43  1  0
 18 44  1  0
 18 45  1  0
 18 46  1  0
 20 47  1  0
 20 48  1  0
 22 49  1  0
 23 50  1  0
 24 51  1  0
 25 52  1  0
 26 53  1  0
M  CHG  1   4   1
M  END
>  <score>  (3) 
-10.078

$$$$
=
     RDKit          3D

 53 56  0  0  0  0  0  0  0  0999 V2000
    0.6080   65.8070   69.5760 C   0  0  0  0  0  0  0  0  0  0  0  0
    1.6550   66.8890   69.9050 C   0  0  0  0  0  0  0  0  0  0  0  0
    1.5190   68.1510   69.0570 C   0  0  0  0  0  0  0  0  0  0  0  0
    1.0280   67.7800   67.6870 N   0  0  0  0  0  4  0  0  0  0  0  0
   -0.3750   67.2100   67.7030 C   0  0  0  0  0  0  0  0  0  0  0  0
   -0.6560   66.4410   68.9960 C   0  0  0  0  0  0  0  0  0  0  0  0
    0.3420   64.8760   70.7760 C   0  0  0  0  0  0  0  0  0  0  0  0
    0.5420   63.3800   70.5020 C   0  0  0  0  0  0  0  0  0  0  0  0
    3.7610   61.0570   73.1340 C   0  0  0  0  0  0  0  0  0  0  0  0
    4.9950   61.0450   72.4740 C   0  0  0  0  0  0  0  0  0  0  0  0
    5.1580   61.6570   71.2220 C   0  0  0  0  0  0  0  0  0  0  0  0
    4.0320   62.2710   70.6830 C   0  0  0  0  0  0  0  0  0  0  0  0
    2.7960   62.3080   71.3010 C   0  0  0  0  0  0  0  0  0  0  0  0
    2.6490   61.6890   72.5530 C   0  0  0  0  0  0  0  0  0  0  0  0
    1.9840   63.0260   70.3880 C   0  0  0  0  0  0  0  0  0  0  0  0
    2.6710   63.3940   69.2980 N   0  0  0  0  0  0  0  0  0  0  0  0
    3.9600   62.9190   69.4900 O   0  0  0  0  0  0  0  0  0  0  0  0
    3.7880   59.1010   74.4950 C   0  0  0  0  0  0  0  0  0  0  0  0
    3.5010   60.4880   74.3540 O   0  0  0  0  0  0  0  0  0  0  0  0
    1.1830   68.9180   66.6980 C   0  0  0  0  0  0  0  0  0  0  0  0
    2.6140   69.1500   66.2980 C   0  0  0  0  0  0  0  0  0  0  0  0
    3.0630   68.7990   65.0150 C   0  0  0  0  0  0  0  0  0  0  0  0
    4.3990   68.9860   64.6590 C   0  0  0  0  0  0  0  0  0  0  0  0
    5.2990   69.5230   65.5770 C   0  0  0  0  0  0  0  0  0  0  0  0
    4.8650   69.8800   66.8510 C   0  0  0  0  0  0  0  0  0  0  0  0
    3.5290   69.6960   67.2130 C   0  0  0  0  0  0  0  0  0  0  0  0
    1.0172   65.1512   68.7934 H   0  0  0  0  0  0  0  0  0  0  0  0
    1.5455   67.1681   70.9634 H   0  0  0  0  0  0  0  0  0  0  0  0
    2.6430   66.4583   69.6851 H   0  0  0  0  0  0  0  0  0  0  0  0
    0.8011   68.8363   69.5312 H   0  0  0  0  0  0  0  0  0  0  0  0
    2.4977   68.6464   68.9752 H   0  0  0  0  0  0  0  0  0  0  0  0
    1.6373   67.0184   67.3559 H   0  0  0  0  0  0  0  0  0  0  0  0
   -1.0967   68.0354   67.6146 H   0  0  0  0  0  0  0  0  0  0  0  0
   -0.4721   66.5112   66.8591 H   0  0  0  0  0  0  0  0  0  0  0  0
   -1.0761   67.1363   69.7377 H   0  0  0  0  0  0  0  0  0  0  0  0
   -1.3630   65.6316   68.7611 H   0  0  0  0  0  0  0  0  0  0  0  0
    1.0234   65.1666   71.5892 H   0  0  0  0  0  0  0  0  0  0  0  0
   -0.7218   64.9997   71.0270 H   0  0  0  0  0  0  0  0  0  0  0  0
    0.0984   62.8045   71.3278 H   0  0  0  0  0  0  0  0  0  0  0  0
    0.0546   63.1397   69.5456 H   0  0  0  0  0  0  0  0  0  0  0  0
    5.8541   60.5459   72.9461 H   0  0  0  0  0  0  0  0  0  0  0  0
    6.1237   61.6516   70.6952 H   0  0  0  0  0  0  0  0  0  0  0  0
    1.6784   61.6989   73.0706 H   0  0  0  0  0  0  0  0  0  0  0  0
    3.8411   58.8443   75.5633 H   0  0  0  0  0  0  0  0  0  0  0  0
    2.9928   58.5114   74.0153 H   0  0  0  0  0  0  0  0  0  0  0  0
    4.7519   58.8754   74.0153 H   0  0  0  0  0  0  0  0  0  0  0  0
    0.5995   68.6819   65.7959 H   0  0  0  0  0  0  0  0  0  0  0  0
    0.8227   69.8346   67.1879 H   0  0  0  0  0  0  0  0  0  0  0  0
    2.3573   68.3740   64.2861 H   0  0  0  0  0  0  0  0  0  0  0  0
    4.7425   68.7089   63.6514 H   0  0  0  0  0  0  0  0  0  0  0  0
    6.3528   69.6650   65.2953 H   0  0  0  0  0  0  0  0  0  0  0  0
    5.5758   70.3077   67.5734 H   0  0  0  0  0  0  0  0  0  0  0  0
    3.1913   69.9803   68.2205 H   0  0  0  0  0  0  0  0  0  0  0  0
  2  1  1  0
  3  2  1  0
  4  3  1  0
  5  4  1  0
  6  5  1  0
  6  1  1  0
  7  1  1  0
  8  7  1  0
 10  9  2  0
 11 10  1  0
 12 11  2  0
 13 12  1  0
 14 13  2  0
 14  9  1  0
 15 13  1  0
 15  8  1  0
 16 15  2  0
 17 16  1  0
 17 12  1  0
 19  9  1  0
 19 18  1  0
 20  4  1  0
 21 20  1  0
 22 21  2  0
 23 22  1  0
 24 23  2  0
 25 24  1  0
 26 25  2  0
 26 21  1  0
  1 27  1  0
  2 28  1  0
  2 29  1  0
  3 30  1  0
  3 31  1  0
  4 32  1  0
  5 33  1  0
  5 34  1  0
  6 35  1  0
  6 36  1  0
  7 37  1  0
  7 38  1  0
  8 39  1  0
  8 40  1  0
 10 41  1  0
 11 42  1  0
 14 43  1  0
 18 44  1  0
 18 45  1  0
 18 46  1  0
 20 47  1  0
 20 48  1  0
 22 49  1  0
 23 50  1  0
 24 51  1  0
 25 52  1  0
 26 53  1  0
M  CHG  1   4   1
M  END
>  <score>  (4) 
-10.019

$$$$
=
     RDKit          3D

 53 56  0  0  0  0  0  0  0  0999 V2000
    0.8800   64.4780   70.6330 C   0  0  0  0  0  0  0  0  0  0  0  0
    0.4200   64.0520   72.0410 C   0  0  0  0  0  0  0  0  0  0  0  0
    1.5060   63.3520   72.8540 C   0  0  0  0  0  0  0  0  0  0  0  0
    2.3870   62.5590   71.9320 N   0  0  0  0  0  4  0  0  0  0  0  0
    3.1680   63.4340   70.9740 C   0  0  0  0  0  0  0  0  0  0  0  0
    2.3920   64.7000   70.6060 C   0  0  0  0  0  0  0  0  0  0  0  0
    0.0670   65.6730   70.0970 C   0  0  0  0  0  0  0  0  0  0  0  0
    0.9000   66.8270   69.5240 C   0  0  0  0  0  0  0  0  0  0  0  0
    2.9020   69.0260   65.8030 C   0  0  0  0  0  0  0  0  0  0  0  0
    2.0310   68.9950   64.7080 C   0  0  0  0  0  0  0  0  0  0  0  0
    0.7720   68.3810   64.7950 C   0  0  0  0  0  0  0  0  0  0  0  0
    0.4450   67.8130   66.0220 C   0  0  0  0  0  0  0  0  0  0  0  0
    1.2740   67.8220   67.1290 C   0  0  0  0  0  0  0  0  0  0  0  0
    2.5310   68.4390   67.0240 C   0  0  0  0  0  0  0  0  0  0  0  0
    0.5240   67.1380   68.1170 C   0  0  0  0  0  0  0  0  0  0  0  0
   -0.6670   66.7390   67.6480 N   0  0  0  0  0  0  0  0  0  0  0  0
   -0.7120   67.1690   66.3300 O   0  0  0  0  0  0  0  0  0  0  0  0
    4.9430   69.4470   64.6470 C   0  0  0  0  0  0  0  0  0  0  0  0
    4.1480   69.5970   65.8180 O   0  0  0  0  0  0  0  0  0  0  0  0
    3.2700   61.5840   72.6840 C   0  0  0  0  0  0  0  0  0  0  0  0
    3.0940   60.1640   72.2230 C   0  0  0  0  0  0  0  0  0  0  0  0
    3.6810   59.7230   71.0270 C   0  0  0  0  0  0  0  0  0  0  0  0
    3.4880   58.4140   70.5860 C   0  0  0  0  0  0  0  0  0  0  0  0
    2.7080   57.5330   71.3320 C   0  0  0  0  0  0  0  0  0  0  0  0
    2.1240   57.9560   72.5240 C   0  0  0  0  0  0  0  0  0  0  0  0
    2.3140   59.2650   72.9690 C   0  0  0  0  0  0  0  0  0  0  0  0
    0.6714   63.6555   69.9330 H   0  0  0  0  0  0  0  0  0  0  0  0
    0.1004   64.9507   72.5890 H   0  0  0  0  0  0  0  0  0  0  0  0
   -0.3987   63.3295   71.9076 H   0  0  0  0  0  0  0  0  0  0  0  0
    2.1105   64.1037   73.3826 H   0  0  0  0  0  0  0  0  0  0  0  0
    1.0389   62.6770   73.5863 H   0  0  0  0  0  0  0  0  0  0  0  0
    1.7587   61.9914   71.3456 H   0  0  0  0  0  0  0  0  0  0  0  0
    4.1177   63.7228   71.4480 H   0  0  0  0  0  0  0  0  0  0  0  0
    3.3467   62.8604   70.0525 H   0  0  0  0  0  0  0  0  0  0  0  0
    2.6466   65.4931   71.3245 H   0  0  0  0  0  0  0  0  0  0  0  0
    2.6738   64.9832   69.5811 H   0  0  0  0  0  0  0  0  0  0  0  0
   -0.5955   65.3036   69.3004 H   0  0  0  0  0  0  0  0  0  0  0  0
   -0.4726   66.0868   70.9617 H   0  0  0  0  0  0  0  0  0  0  0  0
    0.7387   67.7229   70.1415 H   0  0  0  0  0  0  0  0  0  0  0  0
    1.9570   66.5228   69.5351 H   0  0  0  0  0  0  0  0  0  0  0  0
    2.3393   69.4611   63.7605 H   0  0  0  0  0  0  0  0  0  0  0  0
    0.0813   68.3506   63.9394 H   0  0  0  0  0  0  0  0  0  0  0  0
    3.2150   68.4623   67.8852 H   0  0  0  0  0  0  0  0  0  0  0  0
    5.9863   69.2502   64.9348 H   0  0  0  0  0  0  0  0  0  0  0  0
    4.5621   68.6049   64.0506 H   0  0  0  0  0  0  0  0  0  0  0  0
    4.8951   70.3700   64.0506 H   0  0  0  0  0  0  0  0  0  0  0  0
    4.3205   61.8743   72.5350 H   0  0  0  0  0  0  0  0  0  0  0  0
    2.9816   61.6261   73.7447 H   0  0  0  0  0  0  0  0  0  0  0  0
    4.2974   60.4143   70.4335 H   0  0  0  0  0  0  0  0  0  0  0  0
    3.9524   58.0766   69.6476 H   0  0  0  0  0  0  0  0  0  0  0  0
    2.5531   56.5026   70.9795 H   0  0  0  0  0  0  0  0  0  0  0  0
    1.5128   57.2578   73.1148 H   0  0  0  0  0  0  0  0  0  0  0  0
    1.8499   59.5949   73.9101 H   0  0  0  0  0  0  0  0  0  0  0  0
  2  1  1  0
  3  2  1  0
  4  3  1  0
  5  4  1  0
  6  5  1  0
  6  1  1  0
  7  1  1  0
  8  7  1  0
 10  9  2  0
 11 10  1  0
 12 11  2  0
 13 12  1  0
 14 13  2  0
 14  9  1  0
 15 13  1  0
 15  8  1  0
 16 15  2  0
 17 16  1  0
 17 12  1  0
 19  9  1  0
 19 18  1  0
 20  4  1  0
 21 20  1  0
 22 21  2  0
 23 22  1  0
 24 23  2  0
 25 24  1  0
 26 25  2  0
 26 21  1  0
  1 27  1  0
  2 28  1  0
  2 29  1  0
  3 30  1  0
  3 31  1  0
  4 32  1  0
  5 33  1  0
  5 34  1  0
  6 35  1  0
  6 36  1  0
  7 37  1  0
  7 38  1  0
  8 39  1  0
  8 40  1  0
 10 41  1  0
 11 42  1  0
 14 43  1  0
 18 44  1  0
 18 45  1  0
 18 46  1  0
 20 47  1  0
 20 48  1  0
 22 49  1  0
 23 50  1  0
 24 51  1  0
 25 52  1  0
 26 53  1  0
M  CHG  1   4   1
M  END
>  <score>  (5) 
-9.928

$$$$
=
     RDKit          3D

 53 56  0  0  0  0  0  0  0  0999 V2000
    0.5570   67.7170   67.7010 C   0  0  0  0  0  0  0  0  0  0  0  0
   -0.6760   66.8660   68.0590 C   0  0  0  0  0  0  0  0  0  0  0  0
   -0.5310   66.0970   69.3690 C   0  0  0  0  0  0  0  0  0  0  0  0
    0.9050   65.6990   69.5570 N   0  0  0  0  0  4  0  0  0  0  0  0
    1.8230   66.8900   69.7390 C   0  0  0  0  0  0  0  0  0  0  0  0
    1.3240   68.1100   68.9640 C   0  0  0  0  0  0  0  0  0  0  0  0
    0.1930   68.9130   66.7980 C   0  0  0  0  0  0  0  0  0  0  0  0
   -0.8030   68.6050   65.6730 C   0  0  0  0  0  0  0  0  0  0  0  0
    3.6410   68.7250   63.9630 C   0  0  0  0  0  0  0  0  0  0  0  0
    3.6100   68.7560   62.5640 C   0  0  0  0  0  0  0  0  0  0  0  0
    2.3950   68.7510   61.8610 C   0  0  0  0  0  0  0  0  0  0  0  0
    1.2370   68.7140   62.6290 C   0  0  0  0  0  0  0  0  0  0  0  0
    1.2210   68.6830   64.0110 C   0  0  0  0  0  0  0  0  0  0  0  0
    2.4450   68.6870   64.7000 C   0  0  0  0  0  0  0  0  0  0  0  0
   -0.1590   68.6520   64.3320 C   0  0  0  0  0  0  0  0  0  0  0  0
   -0.9240   68.6590   63.2310 N   0  0  0  0  0  0  0  0  0  0  0  0
   -0.0400   68.7010   62.1630 O   0  0  0  0  0  0  0  0  0  0  0  0
    4.9180   69.7940   65.6660 C   0  0  0  0  0  0  0  0  0  0  0  0
    4.7700   68.7250   64.7380 O   0  0  0  0  0  0  0  0  0  0  0  0
    1.0710   64.6610   70.6490 C   0  0  0  0  0  0  0  0  0  0  0  0
    2.1810   63.6880   70.3630 C   0  0  0  0  0  0  0  0  0  0  0  0
    3.4980   63.9690   70.7580 C   0  0  0  0  0  0  0  0  0  0  0  0
    4.5300   63.0790   70.4620 C   0  0  0  0  0  0  0  0  0  0  0  0
    4.2600   61.9020   69.7690 C   0  0  0  0  0  0  0  0  0  0  0  0
    2.9570   61.6070   69.3750 C   0  0  0  0  0  0  0  0  0  0  0  0
    1.9200   62.4950   69.6690 C   0  0  0  0  0  0  0  0  0  0  0  0
    1.2409   67.1032   67.0964 H   0  0  0  0  0  0  0  0  0  0  0  0
   -1.5463   67.5335   68.1426 H   0  0  0  0  0  0  0  0  0  0  0  0
   -0.7948   66.1198   67.2596 H   0  0  0  0  0  0  0  0  0  0  0  0
   -0.8475   66.7359   70.2066 H   0  0  0  0  0  0  0  0  0  0  0  0
   -1.1612   65.1959   69.3380 H   0  0  0  0  0  0  0  0  0  0  0  0
    1.2003   65.2491   68.6787 H   0  0  0  0  0  0  0  0  0  0  0  0
    1.8723   67.1424   70.8085 H   0  0  0  0  0  0  0  0  0  0  0  0
    2.8168   66.6201   69.3524 H   0  0  0  0  0  0  0  0  0  0  0  0
    0.6582   68.6955   69.6151 H   0  0  0  0  0  0  0  0  0  0  0  0
    2.2017   68.6978   68.6572 H   0  0  0  0  0  0  0  0  0  0  0  0
   -0.2436   69.6979   67.4331 H   0  0  0  0  0  0  0  0  0  0  0  0
    1.1273   69.2160   66.3028 H   0  0  0  0  0  0  0  0  0  0  0  0
   -1.2193   67.5994   65.8323 H   0  0  0  0  0  0  0  0  0  0  0  0
   -1.5927   69.3703   65.6985 H   0  0  0  0  0  0  0  0  0  0  0  0
    4.5565   68.7849   62.0043 H   0  0  0  0  0  0  0  0  0  0  0  0
    2.3611   68.7751   60.7618 H   0  0  0  0  0  0  0  0  0  0  0  0
    2.4671   68.6608   65.7995 H   0  0  0  0  0  0  0  0  0  0  0  0
    4.8634   69.3996   66.6914 H   0  0  0  0  0  0  0  0  0  0  0  0
    5.8922   70.2811   65.5119 H   0  0  0  0  0  0  0  0  0  0  0  0
    4.1128   70.5275   65.5119 H   0  0  0  0  0  0  0  0  0  0  0  0
    1.2914   65.1777   71.5947 H   0  0  0  0  0  0  0  0  0  0  0  0
    0.1341   64.0875   70.7065 H   0  0  0  0  0  0  0  0  0  0  0  0
    3.7178   64.8978   71.3049 H   0  0  0  0  0  0  0  0  0  0  0  0
    5.5591   63.3073   70.7766 H   0  0  0  0  0  0  0  0  0  0  0  0
    5.0767   61.2042   69.5323 H   0  0  0  0  0  0  0  0  0  0  0  0
    2.7447   60.6742   68.8320 H   0  0  0  0  0  0  0  0  0  0  0  0
    0.8925   62.2587   69.3552 H   0  0  0  0  0  0  0  0  0  0  0  0
  2  1  1  0
  3  2  1  0
  4  3  1  0
  5  4  1  0
  6  5  1  0
  6  1  1  0
  7  1  1  0
  8  7  1  0
 10  9  2  0
 11 10  1  0
 12 11  2  0
 13 12  1  0
 14 13  2  0
 14  9  1  0
 15 13  1  0
 15  8  1  0
 16 15  2  0
 17 16  1  0
 17 12  1  0
 19  9  1  0
 19 18  1  0
 20  4  1  0
 21 20  1  0
 22 21  2  0
 23 22  1  0
 24 23  2  0
 25 24  1  0
 26 25  2  0
 26 21  1  0
  1 27  1  0
  2 28  1  0
  2 29  1  0
  3 30  1  0
  3 31  1  0
  4 32  1  0
  5 33  1  0
  5 34  1  0
  6 35  1  0
  6 36  1  0
  7 37  1  0
  7 38  1  0
  8 39  1  0
  8 40  1  0
 10 41  1  0
 11 42  1  0
 14 43  1  0
 18 44  1  0
 18 45  1  0
 18 46  1  0
 20 47  1  0
 20 48  1  0
 22 49  1  0
 23 50  1  0
 24 51  1  0
 25 52  1  0
 26 53  1  0
M  CHG  1   4   1
M  END
>  <score>  (6) 
-9.911

$$$$
=
     RDKit          3D

 53 56  0  0  0  0  0  0  0  0999 V2000
    0.7790   67.1770   68.1860 C   0  0  0  0  0  0  0  0  0  0  0  0
   -0.6440   66.6460   68.4470 C   0  0  0  0  0  0  0  0  0  0  0  0
   -0.7540   65.7810   69.7000 C   0  0  0  0  0  0  0  0  0  0  0  0
    0.5250   65.0190   69.8940 N   0  0  0  0  0  4  0  0  0  0  0  0
    1.7050   65.9210   70.1890 C   0  0  0  0  0  0  0  0  0  0  0  0
    1.5640   67.2770   69.4940 C   0  0  0  0  0  0  0  0  0  0  0  0
    0.7690   68.4830   67.3670 C   0  0  0  0  0  0  0  0  0  0  0  0
    1.5580   69.6470   67.9790 C   0  0  0  0  0  0  0  0  0  0  0  0
    3.7710   68.8680   63.8340 C   0  0  0  0  0  0  0  0  0  0  0  0
    5.1450   69.0910   63.9800 C   0  0  0  0  0  0  0  0  0  0  0  0
    5.6930   69.4840   65.2110 C   0  0  0  0  0  0  0  0  0  0  0  0
    4.7990   69.6350   66.2650 C   0  0  0  0  0  0  0  0  0  0  0  0
    3.4360   69.4250   66.1660 C   0  0  0  0  0  0  0  0  0  0  0  0
    2.9030   69.0340   64.9270 C   0  0  0  0  0  0  0  0  0  0  0  0
    2.9570   69.6980   67.4700 C   0  0  0  0  0  0  0  0  0  0  0  0
    3.9490   70.0520   68.2990 N   0  0  0  0  0  0  0  0  0  0  0  0
    5.1060   70.0080   67.5360 O   0  0  0  0  0  0  0  0  0  0  0  0
    1.7390   68.7160   62.5990 C   0  0  0  0  0  0  0  0  0  0  0  0
    3.1410   68.4860   62.6780 O   0  0  0  0  0  0  0  0  0  0  0  0
    0.3760   63.9020   70.9090 C   0  0  0  0  0  0  0  0  0  0  0  0
    1.3460   62.7770   70.6820 C   0  0  0  0  0  0  0  0  0  0  0  0
    1.5580   61.8050   71.6730 C   0  0  0  0  0  0  0  0  0  0  0  0
    2.4830   60.7810   71.4730 C   0  0  0  0  0  0  0  0  0  0  0  0
    3.2060   60.7160   70.2840 C   0  0  0  0  0  0  0  0  0  0  0  0
    3.0030   61.6700   69.2900 C   0  0  0  0  0  0  0  0  0  0  0  0
    2.0780   62.6970   69.4860 C   0  0  0  0  0  0  0  0  0  0  0  0
    1.3115   66.4505   67.5546 H   0  0  0  0  0  0  0  0  0  0  0  0
   -1.3210   67.5059   68.5577 H   0  0  0  0  0  0  0  0  0  0  0  0
   -0.9124   66.0092   67.5912 H   0  0  0  0  0  0  0  0  0  0  0  0
   -0.9348   66.4232   70.5746 H   0  0  0  0  0  0  0  0  0  0  0  0
   -1.5891   65.0741   69.5863 H   0  0  0  0  0  0  0  0  0  0  0  0
    0.7348   64.5688   68.9917 H   0  0  0  0  0  0  0  0  0  0  0  0
    1.7691   66.0814   71.2753 H   0  0  0  0  0  0  0  0  0  0  0  0
    2.6150   65.4327   69.8101 H   0  0  0  0  0  0  0  0  0  0  0  0
    1.0396   67.9686   70.1698 H   0  0  0  0  0  0  0  0  0  0  0  0
    2.5743   67.6402   69.2544 H   0  0  0  0  0  0  0  0  0  0  0  0
    1.1963   68.2663   66.3768 H   0  0  0  0  0  0  0  0  0  0  0  0
   -0.2801   68.8119   67.3322 H   0  0  0  0  0  0  0  0  0  0  0  0
    1.0529   70.5909   67.7261 H   0  0  0  0  0  0  0  0  0  0  0  0
    1.5967   69.4974   69.0681 H   0  0  0  0  0  0  0  0  0  0  0  0
    5.8084   68.9556   63.1131 H   0  0  0  0  0  0  0  0  0  0  0  0
    6.7713   69.6628   65.3351 H   0  0  0  0  0  0  0  0  0  0  0  0
    1.8227   68.8603   64.8136 H   0  0  0  0  0  0  0  0  0  0  0  0
    1.3209   68.7846   63.6141 H   0  0  0  0  0  0  0  0  0  0  0  0
    1.5515   69.6569   62.0609 H   0  0  0  0  0  0  0  0  0  0  0  0
    1.2607   67.8843   62.0609 H   0  0  0  0  0  0  0  0  0  0  0  0
    0.5458   64.3153   71.9142 H   0  0  0  0  0  0  0  0  0  0  0  0
   -0.6389   63.4912   70.8034 H   0  0  0  0  0  0  0  0  0  0  0  0
    0.9902   61.8518   72.6140 H   0  0  0  0  0  0  0  0  0  0  0  0
    2.6420   60.0237   72.2548 H   0  0  0  0  0  0  0  0  0  0  0  0
    3.9384   59.9098   70.1300 H   0  0  0  0  0  0  0  0  0  0  0  0
    3.5717   61.6143   68.3501 H   0  0  0  0  0  0  0  0  0  0  0  0
    1.9214   63.4487   68.6984 H   0  0  0  0  0  0  0  0  0  0  0  0
  2  1  1  0
  3  2  1  0
  4  3  1  0
  5  4  1  0
  6  5  1  0
  6  1  1  0
  7  1  1  0
  8  7  1  0
 10  9  2  0
 11 10  1  0
 12 11  2  0
 13 12  1  0
 14 13  2  0
 14  9  1  0
 15 13  1  0
 15  8  1  0
 16 15  2  0
 17 16  1  0
 17 12  1  0
 19  9  1  0
 19 18  1  0
 20  4  1  0
 21 20  1  0
 22 21  2  0
 23 22  1  0
 24 23  2  0
 25 24  1  0
 26 25  2  0
 26 21  1  0
  1 27  1  0
  2 28  1  0
  2 29  1  0
  3 30  1  0
  3 31  1  0
  4 32  1  0
  5 33  1  0
  5 34  1  0
  6 35  1  0
  6 36  1  0
  7 37  1  0
  7 38  1  0
  8 39  1  0
  8 40  1  0
 10 41  1  0
 11 42  1  0
 14 43  1  0
 18 44  1  0
 18 45  1  0
 18 46  1  0
 20 47  1  0
 20 48  1  0
 22 49  1  0
 23 50  1  0
 24 51  1  0
 25 52  1  0
 26 53  1  0
M  CHG  1   4   1
M  END
>  <score>  (7) 
-9.753

$$$$
=
     RDKit          3D

 53 56  0  0  0  0  0  0  0  0999 V2000
    0.3650   66.8380   68.3920 C   0  0  0  0  0  0  0  0  0  0  0  0
   -0.7960   66.1320   69.1180 C   0  0  0  0  0  0  0  0  0  0  0  0
   -0.3660   65.3850   70.3780 C   0  0  0  0  0  0  0  0  0  0  0  0
    1.0210   64.8420   70.1870 N   0  0  0  0  0  4  0  0  0  0  0  0
    2.0620   65.9320   70.0480 C   0  0  0  0  0  0  0  0  0  0  0  0
    1.4860   67.1790   69.3740 C   0  0  0  0  0  0  0  0  0  0  0  0
   -0.1190   68.0430   67.5610 C   0  0  0  0  0  0  0  0  0  0  0  0
    0.7520   69.3010   67.6620 C   0  0  0  0  0  0  0  0  0  0  0  0
    5.4050   70.2830   67.9360 C   0  0  0  0  0  0  0  0  0  0  0  0
    6.0220   70.0020   66.7110 C   0  0  0  0  0  0  0  0  0  0  0  0
    5.2890   69.5070   65.6220 C   0  0  0  0  0  0  0  0  0  0  0  0
    3.9270   69.3160   65.8290 C   0  0  0  0  0  0  0  0  0  0  0  0
    3.2770   69.5800   67.0200 C   0  0  0  0  0  0  0  0  0  0  0  0
    4.0250   70.0730   68.1010 C   0  0  0  0  0  0  0  0  0  0  0  0
    1.9290   69.2360   66.7520 C   0  0  0  0  0  0  0  0  0  0  0  0
    1.7710   68.7920   65.4970 N   0  0  0  0  0  0  0  0  0  0  0  0
    3.0310   68.8470   64.9200 O   0  0  0  0  0  0  0  0  0  0  0  0
    7.3480   71.2780   68.8900 C   0  0  0  0  0  0  0  0  0  0  0  0
    6.0310   70.7650   69.0550 O   0  0  0  0  0  0  0  0  0  0  0  0
    1.3840   63.8190   71.2450 C   0  0  0  0  0  0  0  0  0  0  0  0
    2.4540   62.8660   70.7910 C   0  0  0  0  0  0  0  0  0  0  0  0
    3.7400   62.9160   71.3490 C   0  0  0  0  0  0  0  0  0  0  0  0
    4.7400   62.0520   70.9020 C   0  0  0  0  0  0  0  0  0  0  0  0
    4.4660   61.1300   69.8940 C   0  0  0  0  0  0  0  0  0  0  0  0
    3.1920   61.0660   69.3340 C   0  0  0  0  0  0  0  0  0  0  0  0
    2.1890   61.9280   69.7790 C   0  0  0  0  0  0  0  0  0  0  0  0
    0.7923   66.1395   67.6575 H   0  0  0  0  0  0  0  0  0  0  0  0
   -1.5414   66.8900   69.4006 H   0  0  0  0  0  0  0  0  0  0  0  0
   -1.2030   65.3832   68.4226 H   0  0  0  0  0  0  0  0  0  0  0  0
   -0.3753   66.0748   71.2348 H   0  0  0  0  0  0  0  0  0  0  0  0
   -1.0624   64.5552   70.5689 H   0  0  0  0  0  0  0  0  0  0  0  0
    1.0166   64.3423   69.2863 H   0  0  0  0  0  0  0  0  0  0  0  0
    2.4292   66.2045   71.0485 H   0  0  0  0  0  0  0  0  0  0  0  0
    2.8797   65.5485   69.4201 H   0  0  0  0  0  0  0  0  0  0  0  0
    1.0861   67.8484   70.1498 H   0  0  0  0  0  0  0  0  0  0  0  0
    2.2961   67.6620   68.8078 H   0  0  0  0  0  0  0  0  0  0  0  0
   -0.1520   67.7364   66.5051 H   0  0  0  0  0  0  0  0  0  0  0  0
   -1.1017   68.3198   67.9705 H   0  0  0  0  0  0  0  0  0  0  0  0
    0.1434   70.1773   67.3943 H   0  0  0  0  0  0  0  0  0  0  0  0
    1.1233   69.3766   68.6947 H   0  0  0  0  0  0  0  0  0  0  0  0
    7.1030   70.1727   66.6002 H   0  0  0  0  0  0  0  0  0  0  0  0
    5.7658   69.2821   64.6565 H   0  0  0  0  0  0  0  0  0  0  0  0
    3.5383   70.2917   69.0629 H   0  0  0  0  0  0  0  0  0  0  0  0
    7.7994   71.4538   69.8776 H   0  0  0  0  0  0  0  0  0  0  0  0
    7.9573   70.5515   68.3324 H   0  0  0  0  0  0  0  0  0  0  0  0
    7.3053   72.2253   68.3324 H   0  0  0  0  0  0  0  0  0  0  0  0
    1.7427   64.3501   72.1390 H   0  0  0  0  0  0  0  0  0  0  0  0
    0.4814   63.2270   71.4567 H   0  0  0  0  0  0  0  0  0  0  0  0
    3.9617   63.6420   72.1451 H   0  0  0  0  0  0  0  0  0  0  0  0
    5.7455   62.0987   71.3457 H   0  0  0  0  0  0  0  0  0  0  0  0
    5.2565   60.4519   69.5400 H   0  0  0  0  0  0  0  0  0  0  0  0
    2.9766   60.3354   68.5404 H   0  0  0  0  0  0  0  0  0  0  0  0
    1.1843   61.8728   69.3346 H   0  0  0  0  0  0  0  0  0  0  0  0
  2  1  1  0
  3  2  1  0
  4  3  1  0
  5  4  1  0
  6  5  1  0
  6  1  1  0
  7  1  1  0
  8  7  1  0
 10  9  2  0
 11 10  1  0
 12 11  2  0
 13 12  1  0
 14 13  2  0
 14  9  1  0
 15 13  1  0
 15  8  1  0
 16 15  2  0
 17 16  1  0
 17 12  1  0
 19  9  1  0
 19 18  1  0
 20  4  1  0
 21 20  1  0
 22 21  2  0
 23 22  1  0
 24 23  2  0
 25 24  1  0
 26 25  2  0
 26 21  1  0
  1 27  1  0
  2 28  1  0
  2 29  1  0
  3 30  1  0
  3 31  1  0
  4 32  1  0
  5 33  1  0
  5 34  1  0
  6 35  1  0
  6 36  1  0
  7 37  1  0
  7 38  1  0
  8 39  1  0
  8 40  1  0
 10 41  1  0
 11 42  1  0
 14 43  1  0
 18 44  1  0
 18 45  1  0
 18 46  1  0
 20 47  1  0
 20 48  1  0
 22 49  1  0
 23 50  1  0
 24 51  1  0
 25 52  1  0
 26 53  1  0
M  CHG  1   4   1
M  END
>  <score>  (8) 
-9.705

$$$$
=
     RDKit          3D

 53 56  0  0  0  0  0  0  0  0999 V2000
    2.5540   62.2200   69.5790 C   0  0  0  0  0  0  0  0  0  0  0  0
    3.3930   63.5120   69.6370 C   0  0  0  0  0  0  0  0  0  0  0  0
    2.6710   64.6820   70.2990 C   0  0  0  0  0  0  0  0  0  0  0  0
    1.2020   64.5940   70.0030 N   0  0  0  0  0  4  0  0  0  0  0  0
    0.5520   63.3770   70.6270 C   0  0  0  0  0  0  0  0  0  0  0  0
    1.5240   62.1980   70.7080 C   0  0  0  0  0  0  0  0  0  0  0  0
    3.4370   60.9580   69.5180 C   0  0  0  0  0  0  0  0  0  0  0  0
    3.9510   60.4530   70.8720 C   0  0  0  0  0  0  0  0  0  0  0  0
    0.7880   58.7200   73.9830 C   0  0  0  0  0  0  0  0  0  0  0  0
    0.6720   57.3350   73.8200 C   0  0  0  0  0  0  0  0  0  0  0  0
    1.4220   56.6490   72.8530 C   0  0  0  0  0  0  0  0  0  0  0  0
    2.2800   57.4200   72.0750 C   0  0  0  0  0  0  0  0  0  0  0  0
    2.4270   58.7890   72.2030 C   0  0  0  0  0  0  0  0  0  0  0  0
    1.6670   59.4600   73.1750 C   0  0  0  0  0  0  0  0  0  0  0  0
    3.3890   59.1180   71.2170 C   0  0  0  0  0  0  0  0  0  0  0  0
    3.7940   58.0360   70.5380 N   0  0  0  0  0  0  0  0  0  0  0  0
    3.0950   56.9690   71.0840 O   0  0  0  0  0  0  0  0  0  0  0  0
   -0.9550   60.2930   74.3920 C   0  0  0  0  0  0  0  0  0  0  0  0
    0.1000   59.4790   74.8940 O   0  0  0  0  0  0  0  0  0  0  0  0
    0.4740   65.8800   70.3380 C   0  0  0  0  0  0  0  0  0  0  0  0
    0.1840   66.7180   69.1240 C   0  0  0  0  0  0  0  0  0  0  0  0
   -1.0390   66.5950   68.4450 C   0  0  0  0  0  0  0  0  0  0  0  0
   -1.2910   67.3500   67.3000 C   0  0  0  0  0  0  0  0  0  0  0  0
   -0.3280   68.2340   66.8200 C   0  0  0  0  0  0  0  0  0  0  0  0
    0.8880   68.3700   67.4860 C   0  0  0  0  0  0  0  0  0  0  0  0
    1.1450   67.6170   68.6330 C   0  0  0  0  0  0  0  0  0  0  0  0
    1.9870   62.2136   68.6364 H   0  0  0  0  0  0  0  0  0  0  0  0
    4.3118   63.3044   70.2051 H   0  0  0  0  0  0  0  0  0  0  0  0
    3.6003   63.8080   68.5981 H   0  0  0  0  0  0  0  0  0  0  0  0
    2.8291   64.6425   71.3869 H   0  0  0  0  0  0  0  0  0  0  0  0
    3.0688   65.6290   69.9054 H   0  0  0  0  0  0  0  0  0  0  0  0
    1.1175   64.4669   68.9844 H   0  0  0  0  0  0  0  0  0  0  0  0
    0.2161   63.6331   71.6427 H   0  0  0  0  0  0  0  0  0  0  0  0
   -0.2979   63.0792   69.9954 H   0  0  0  0  0  0  0  0  0  0  0  0
    2.0534   62.2409   71.6713 H   0  0  0  0  0  0  0  0  0  0  0  0
    0.9391   61.2712   70.6134 H   0  0  0  0  0  0  0  0  0  0  0  0
    2.8473   60.1524   69.0562 H   0  0  0  0  0  0  0  0  0  0  0  0
    4.3291   61.2381   68.9386 H   0  0  0  0  0  0  0  0  0  0  0  0
    5.0476   60.3771   70.8301 H   0  0  0  0  0  0  0  0  0  0  0  0
    3.6319   61.1672   71.6454 H   0  0  0  0  0  0  0  0  0  0  0  0
   -0.0212   56.7729   74.4630 H   0  0  0  0  0  0  0  0  0  0  0  0
    1.3364   55.5608   72.7173 H   0  0  0  0  0  0  0  0  0  0  0  0
    1.7588   60.5488   73.3016 H   0  0  0  0  0  0  0  0  0  0  0  0
   -1.5161   60.7259   75.2332 H   0  0  0  0  0  0  0  0  0  0  0  0
   -0.5333   61.1020   73.7775 H   0  0  0  0  0  0  0  0  0  0  0  0
   -1.6306   59.6798   73.7775 H   0  0  0  0  0  0  0  0  0  0  0  0
   -0.4786   65.6276   70.8267 H   0  0  0  0  0  0  0  0  0  0  0  0
    1.1278   66.4685   70.9984 H   0  0  0  0  0  0  0  0  0  0  0  0
   -1.8036   65.8982   68.8189 H   0  0  0  0  0  0  0  0  0  0  0  0
   -2.2522   67.2471   66.7750 H   0  0  0  0  0  0  0  0  0  0  0  0
   -0.5276   68.8254   65.9142 H   0  0  0  0  0  0  0  0  0  0  0  0
    1.6463   69.0713   67.1077 H   0  0  0  0  0  0  0  0  0  0  0  0
    2.1064   67.7284   69.1557 H   0  0  0  0  0  0  0  0  0  0  0  0
  2  1  1  0
  3  2  1  0
  4  3  1  0
  5  4  1  0
  6  5  1  0
  6  1  1  0
  7  1  1  0
  8  7  1  0
 10  9  2  0
 11 10  1  0
 12 11  2  0
 13 12  1  0
 14 13  2  0
 14  9  1  0
 15 13  1  0
 15  8  1  0
 16 15  2  0
 17 16  1  0
 17 12  1  0
 19  9  1  0
 19 18  1  0
 20  4  1  0
 21 20  1  0
 22 21  2  0
 23 22  1  0
 24 23  2  0
 25 24  1  0
 26 25  2  0
 26 21  1  0
  1 27  1  0
  2 28  1  0
  2 29  1  0
  3 30  1  0
  3 31  1  0
  4 32  1  0
  5 33  1  0
  5 34  1  0
  6 35  1  0
  6 36  1  0
  7 37  1  0
  7 38  1  0
  8 39  1  0
  8 40  1  0
 10 41  1  0
 11 42  1  0
 14 43  1  0
 18 44  1  0
 18 45  1  0
 18 46  1  0
 20 47  1  0
 20 48  1  0
 22 49  1  0
 23 50  1  0
 24 51  1  0
 25 52  1  0
 26 53  1  0
M  CHG  1   4   1
M  END
>  <score>  (9) 
-9.353

$$$$
