=
     RDKit          3D

 79 84  0  0  0  0  0  0  0  0999 V2000
    0.5910   64.4820   69.9210 N   0  0  0  0  0  4  0  0  0  0  0  0
    0.3860   65.9020   70.3370 C   0  0  0  0  0  0  0  0  0  0  0  0
    1.1910   66.8540   69.4580 C   0  0  0  0  0  0  0  0  0  0  0  0
    0.4230   67.4960   68.2970 C   0  0  0  0  0  0  0  0  0  0  0  0
    1.1980   67.4760   66.9730 C   0  0  0  0  0  0  0  0  0  0  0  0
    1.4880   68.8270   66.4890 N   0  0  0  0  0  0  0  0  0  0  0  0
    2.8350   69.1860   66.2550 C   0  0  0  0  0  0  0  0  0  0  0  0
    3.6630   69.7290   67.2580 C   0  0  0  0  0  0  0  0  0  0  0  0
    3.1620   70.0320   68.6510 C   0  0  0  0  0  0  0  0  0  0  0  0
    4.0340   71.0250   69.4170 C   0  0  0  0  0  0  0  0  0  0  0  0
    5.4910   70.5930   69.3440 C   0  0  0  0  0  0  0  0  0  0  0  0
    5.9640   70.6140   67.8970 C   0  0  0  0  0  0  0  0  0  0  0  0
    4.9990   69.9800   66.9250 C   0  0  0  0  0  0  0  0  0  0  0  0
    5.5080   69.7500   65.6910 N   0  0  0  0  0  0  0  0  0  0  0  0
    4.6890   69.3720   64.7050 C   0  0  0  0  0  0  0  0  0  0  0  0
    3.3350   69.0680   64.9300 C   0  0  0  0  0  0  0  0  0  0  0  0
    2.5400   68.6720   63.8280 C   0  0  0  0  0  0  0  0  0  0  0  0
    3.0710   68.5820   62.5440 C   0  0  0  0  0  0  0  0  0  0  0  0
    4.4120   68.8740   62.3390 C   0  0  0  0  0  0  0  0  0  0  0  0
    5.2050   69.2620   63.4200 C   0  0  0  0  0  0  0  0  0  0  0  0
    0.0680   63.4840   70.9090 C   0  0  0  0  0  0  0  0  0  0  0  0
    0.3210   63.9570   72.3400 C   0  0  0  0  0  0  0  0  0  0  0  0
    0.2880   62.8040   73.3530 C   0  0  0  0  0  0  0  0  0  0  0  0
    1.9480   62.2550   73.8880 S   0  0  0  0  0  0  0  0  0  0  0  0
    2.1480   60.8120   72.8250 C   0  0  0  0  0  0  0  0  0  0  0  0
    1.7060   59.5620   73.2850 C   0  0  0  0  0  0  0  0  0  0  0  0
    0.8830   59.3310   74.5270 C   0  0  0  0  0  0  0  0  0  0  0  0
   -0.1630   58.2220   74.3550 C   0  0  0  0  0  0  0  0  0  0  0  0
    0.2630   57.0480   73.4660 C   0  0  0  0  0  0  0  0  0  0  0  0
    1.7350   57.0740   73.0780 C   0  0  0  0  0  0  0  0  0  0  0  0
    2.1150   58.4400   72.5710 C   0  0  0  0  0  0  0  0  0  0  0  0
    2.8830   58.5060   71.4660 N   0  0  0  0  0  0  0  0  0  0  0  0
    3.1570   59.7030   70.9330 C   0  0  0  0  0  0  0  0  0  0  0  0
    2.8210   60.9120   71.5720 C   0  0  0  0  0  0  0  0  0  0  0  0
    3.1790   62.1270   70.9290 C   0  0  0  0  0  0  0  0  0  0  0  0
    3.8610   62.1370   69.7130 C   0  0  0  0  0  0  0  0  0  0  0  0
    4.1960   60.9360   69.1100 C   0  0  0  0  0  0  0  0  0  0  0  0
    3.8410   59.7350   69.7240 C   0  0  0  0  0  0  0  0  0  0  0  0
    0.1095   64.3335   69.0227 H   0  0  0  0  0  0  0  0  0  0  0  0
    1.6077   64.3323   69.8510 H   0  0  0  0  0  0  0  0  0  0  0  0
   -0.6821   66.1507   70.2515 H   0  0  0  0  0  0  0  0  0  0  0  0
    0.7272   66.0140   71.3767 H   0  0  0  0  0  0  0  0  0  0  0  0
    1.5742   67.6625   70.0979 H   0  0  0  0  0  0  0  0  0  0  0  0
    1.9781   66.2412   68.9945 H   0  0  0  0  0  0  0  0  0  0  0  0
   -0.5209   66.9486   68.1575 H   0  0  0  0  0  0  0  0  0  0  0  0
    0.2550   68.5506   68.5607 H   0  0  0  0  0  0  0  0  0  0  0  0
    2.1473   66.9413   67.1248 H   0  0  0  0  0  0  0  0  0  0  0  0
    0.5741   66.9713   66.2207 H   0  0  0  0  0  0  0  0  0  0  0  0
    0.7272   69.5011   66.3227 H   0  0  0  0  0  0  0  0  0  0  0  0
    2.1478   70.4504   68.5715 H   0  0  0  0  0  0  0  0  0  0  0  0
    3.1843   69.0863   69.2124 H   0  0  0  0  0  0  0  0  0  0  0  0
    3.9266   72.0250   68.9715 H   0  0  0  0  0  0  0  0  0  0  0  0
    3.7152   71.0525   70.4694 H   0  0  0  0  0  0  0  0  0  0  0  0
    6.1067   71.2833   69.9394 H   0  0  0  0  0  0  0  0  0  0  0  0
    5.5873   69.5722   69.7425 H   0  0  0  0  0  0  0  0  0  0  0  0
    6.1169   71.6616   67.5985 H   0  0  0  0  0  0  0  0  0  0  0  0
    6.8902   70.0219   67.8570 H   0  0  0  0  0  0  0  0  0  0  0  0
    1.4792   68.4300   63.9895 H   0  0  0  0  0  0  0  0  0  0  0  0
    2.4331   68.2821   61.6995 H   0  0  0  0  0  0  0  0  0  0  0  0
    4.8471   68.8002   61.3314 H   0  0  0  0  0  0  0  0  0  0  0  0
    6.2682   69.4870   63.2497 H   0  0  0  0  0  0  0  0  0  0  0  0
   -1.0140   63.3578   70.7564 H   0  0  0  0  0  0  0  0  0  0  0  0
    0.5892   62.5276   70.7553 H   0  0  0  0  0  0  0  0  0  0  0  0
    1.3098   64.4371   72.3836 H   0  0  0  0  0  0  0  0  0  0  0  0
   -0.4813   64.6605   72.6070 H   0  0  0  0  0  0  0  0  0  0  0  0
   -0.2716   63.1358   74.2400 H   0  0  0  0  0  0  0  0  0  0  0  0
   -0.1903   61.9484   72.8538 H   0  0  0  0  0  0  0  0  0  0  0  0
    1.5589   59.0510   75.3484 H   0  0  0  0  0  0  0  0  0  0  0  0
    0.3412   60.2641   74.7411 H   0  0  0  0  0  0  0  0  0  0  0  0
   -0.4019   57.8234   75.3520 H   0  0  0  0  0  0  0  0  0  0  0  0
   -1.0201   58.6899   73.8487 H   0  0  0  0  0  0  0  0  0  0  0  0
    0.0637   56.1120   74.0084 H   0  0  0  0  0  0  0  0  0  0  0  0
   -0.3156   57.1255   72.5337 H   0  0  0  0  0  0  0  0  0  0  0  0
    2.3473   56.8300   73.9587 H   0  0  0  0  0  0  0  0  0  0  0  0
    1.9097   56.3345   72.2826 H   0  0  0  0  0  0  0  0  0  0  0  0
    2.9116   63.0834   71.4021 H   0  0  0  0  0  0  0  0  0  0  0  0
    4.1308   63.0910   69.2364 H   0  0  0  0  0  0  0  0  0  0  0  0
    4.7385   60.9294   68.1531 H   0  0  0  0  0  0  0  0  0  0  0  0
    4.1102   58.7860   69.2372 H   0  0  0  0  0  0  0  0  0  0  0  0
  2  1  1  0
  3  2  1  0
  4  3  1  0
  5  4  1  0
  6  5  1  0
  7  6  1  0
  8  7  1  0
  9  8  1  0
 10  9  1  0
 11 10  1  0
 12 11  1  0
 13  8  2  0
 13 12  1  0
 14 13  1  0
 15 14  2  0
 16 15  1  0
 16  7  2  0
 17 16  1  0
 18 17  2  0
 19 18  1  0
 20 19  2  0
 20 15  1  0
 21  1  1  0
 22 21  1  0
 23 22  1  0
 24 23  1  0
 25 24  1  0
 26 25  1  0
 27 26  1  0
 28 27  1  0
 29 28  1  0
 30 29  1  0
 31 30  1  0
 31 26  2  0
 32 31  1  0
 33 32  2  0
 34 33  1  0
 34 25  2  0
 35 34  1  0
 36 35  2  0
 37 36  1  0
 38 33  1  0
 38 37  2  0
  1 39  1  0
  1 40  1  0
  2 41  1  0
  2 42  1  0
  3 43  1  0
  3 44  1  0
  4 45  1  0
  4 46  1  0
  5 47  1  0
  5 48  1  0
  6 49  1  0
  9 50  1  0
  9 51  1  0
 10 52  1  0
 10 53  1  0
 11 54  1  0
 11 55  1  0
 12 56  1  0
 12 57  1  0
 17 58  1  0
 18 59  1  0
 19 60  1  0
 20 61  1  0
 21 62  1  0
 21 63  1  0
 22 64  1  0
 22 65  1  0
 23 66  1  0
 23 67  1  0
 27 68  1  0
 27 69  1  0
 28 70  1  0
 28 71  1  0
 29 72  1  0
 29 73  1  0
 30 74  1  0
 30 75  1  0
 35 76  1  0
 36 77  1  0
 37 78  1  0
 38 79  1  0
M  CHG  1   1   1
M  END
>  <score>  (1) 
-12.257

$$$$
=
     RDKit          3D

 79 84  0  0  0  0  0  0  0  0999 V2000
    0.9470   66.8710   68.7310 N   0  0  0  0  0  4  0  0  0  0  0  0
   -0.5360   66.8100   68.5720 C   0  0  0  0  0  0  0  0  0  0  0  0
   -0.9580   67.2510   67.1740 C   0  0  0  0  0  0  0  0  0  0  0  0
   -0.8190   68.7480   66.8780 C   0  0  0  0  0  0  0  0  0  0  0  0
    0.2000   69.0560   65.7730 C   0  0  0  0  0  0  0  0  0  0  0  0
    1.3760   68.1880   65.8570 N   0  0  0  0  0  0  0  0  0  0  0  0
    2.6570   68.7760   65.7640 C   0  0  0  0  0  0  0  0  0  0  0  0
    3.2880   69.4050   66.8570 C   0  0  0  0  0  0  0  0  0  0  0  0
    2.6200   69.5580   68.2040 C   0  0  0  0  0  0  0  0  0  0  0  0
    3.2370   70.6480   69.0780 C   0  0  0  0  0  0  0  0  0  0  0  0
    4.7470   70.4680   69.1330 C   0  0  0  0  0  0  0  0  0  0  0  0
    5.3390   70.6310   67.7390 C   0  0  0  0  0  0  0  0  0  0  0  0
    4.5860   69.8890   66.6610 C   0  0  0  0  0  0  0  0  0  0  0  0
    5.2360   69.8020   65.4760 N   0  0  0  0  0  0  0  0  0  0  0  0
    4.5850   69.3370   64.4050 C   0  0  0  0  0  0  0  0  0  0  0  0
    3.2880   68.8020   64.4900 C   0  0  0  0  0  0  0  0  0  0  0  0
    2.6730   68.3280   63.3060 C   0  0  0  0  0  0  0  0  0  0  0  0
    3.3260   68.3850   62.0770 C   0  0  0  0  0  0  0  0  0  0  0  0
    4.6110   68.9050   62.0110 C   0  0  0  0  0  0  0  0  0  0  0  0
    5.2260   69.3710   63.1740 C   0  0  0  0  0  0  0  0  0  0  0  0
    1.4290   66.3980   70.0690 C   0  0  0  0  0  0  0  0  0  0  0  0
    0.2490   66.0400   70.9720 C   0  0  0  0  0  0  0  0  0  0  0  0
    0.4230   64.6740   71.6500 C   0  0  0  0  0  0  0  0  0  0  0  0
    0.1890   63.2600   70.5130 S   0  0  0  0  0  0  0  0  0  0  0  0
    1.1390   62.0030   71.3910 C   0  0  0  0  0  0  0  0  0  0  0  0
    2.4960   61.8340   71.0760 C   0  0  0  0  0  0  0  0  0  0  0  0
    3.3080   62.7490   70.1940 C   0  0  0  0  0  0  0  0  0  0  0  0
    4.7490   62.9300   70.6880 C   0  0  0  0  0  0  0  0  0  0  0  0
    5.3850   61.6930   71.3320 C   0  0  0  0  0  0  0  0  0  0  0  0
    4.5560   60.4260   71.1790 C   0  0  0  0  0  0  0  0  0  0  0  0
    3.1240   60.6920   71.5640 C   0  0  0  0  0  0  0  0  0  0  0  0
    2.5020   59.7750   72.3310 N   0  0  0  0  0  0  0  0  0  0  0  0
    1.2640   60.0270   72.7710 C   0  0  0  0  0  0  0  0  0  0  0  0
    0.5120   61.1340   72.3310 C   0  0  0  0  0  0  0  0  0  0  0  0
   -0.8010   61.2950   72.8460 C   0  0  0  0  0  0  0  0  0  0  0  0
   -1.3520   60.3810   73.7440 C   0  0  0  0  0  0  0  0  0  0  0  0
   -0.6010   59.2910   74.1530 C   0  0  0  0  0  0  0  0  0  0  0  0
    0.6950   59.1270   73.6640 C   0  0  0  0  0  0  0  0  0  0  0  0
    1.3766   66.2818   68.0036 H   0  0  0  0  0  0  0  0  0  0  0  0
    1.2186   67.8609   68.6457 H   0  0  0  0  0  0  0  0  0  0  0  0
   -0.8729   65.7763   68.7394 H   0  0  0  0  0  0  0  0  0  0  0  0
   -0.9939   67.4900   69.3055 H   0  0  0  0  0  0  0  0  0  0  0  0
   -0.3403   66.7041   66.4465 H   0  0  0  0  0  0  0  0  0  0  0  0
   -2.0332   67.0303   67.1024 H   0  0  0  0  0  0  0  0  0  0  0  0
   -1.8003   69.1348   66.5657 H   0  0  0  0  0  0  0  0  0  0  0  0
   -0.4573   69.2299   67.7983 H   0  0  0  0  0  0  0  0  0  0  0  0
   -0.2811   68.9092   64.7947 H   0  0  0  0  0  0  0  0  0  0  0  0
    0.5347   70.0963   65.8985 H   0  0  0  0  0  0  0  0  0  0  0  0
    1.2716   67.1709   65.9812 H   0  0  0  0  0  0  0  0  0  0  0  0
    1.5604   69.8036   68.0397 H   0  0  0  0  0  0  0  0  0  0  0  0
    2.7536   68.6055   68.7378 H   0  0  0  0  0  0  0  0  0  0  0  0
    3.0017   71.6347   68.6525 H   0  0  0  0  0  0  0  0  0  0  0  0
    2.8244   70.5763   70.0952 H   0  0  0  0  0  0  0  0  0  0  0  0
    5.1804   71.2242   69.8041 H   0  0  0  0  0  0  0  0  0  0  0  0
    4.9784   69.4607   69.5095 H   0  0  0  0  0  0  0  0  0  0  0  0
    5.3391   71.7016   67.4864 H   0  0  0  0  0  0  0  0  0  0  0  0
    6.3518   70.2031   67.7715 H   0  0  0  0  0  0  0  0  0  0  0  0
    1.6585   67.9060   63.3578 H   0  0  0  0  0  0  0  0  0  0  0  0
    2.8275   68.0210   61.1665 H   0  0  0  0  0  0  0  0  0  0  0  0
    5.1414   68.9496   61.0483 H   0  0  0  0  0  0  0  0  0  0  0  0
    6.2468   69.7764   63.1136 H   0  0  0  0  0  0  0  0  0  0  0  0
    2.0614   65.5085   69.9314 H   0  0  0  0  0  0  0  0  0  0  0  0
    2.0053   67.2059   70.5434 H   0  0  0  0  0  0  0  0  0  0  0  0
    0.1537   66.8111   71.7507 H   0  0  0  0  0  0  0  0  0  0  0  0
   -0.6514   65.9890   70.3421 H   0  0  0  0  0  0  0  0  0  0  0  0
    1.4388   64.6199   72.0685 H   0  0  0  0  0  0  0  0  0  0  0  0
   -0.3526   64.5969   72.4262 H   0  0  0  0  0  0  0  0  0  0  0  0
    3.3354   62.3252   69.1793 H   0  0  0  0  0  0  0  0  0  0  0  0
    2.8263   63.7377   70.2116 H   0  0  0  0  0  0  0  0  0  0  0  0
    5.3687   63.2205   69.8268 H   0  0  0  0  0  0  0  0  0  0  0  0
    4.7040   63.6933   71.4788 H   0  0  0  0  0  0  0  0  0  0  0  0
    6.3661   61.5241   70.8641 H   0  0  0  0  0  0  0  0  0  0  0  0
    5.4622   61.8971   72.4101 H   0  0  0  0  0  0  0  0  0  0  0  0
    4.5946   60.0907   70.1321 H   0  0  0  0  0  0  0  0  0  0  0  0
    4.9662   59.6467   71.8381 H   0  0  0  0  0  0  0  0  0  0  0  0
   -1.3988   62.1622   72.5289 H   0  0  0  0  0  0  0  0  0  0  0  0
   -2.3742   60.5244   74.1243 H   0  0  0  0  0  0  0  0  0  0  0  0
   -1.0237   58.5602   74.8582 H   0  0  0  0  0  0  0  0  0  0  0  0
    1.2843   58.2592   73.9952 H   0  0  0  0  0  0  0  0  0  0  0  0
  2  1  1  0
  3  2  1  0
  4  3  1  0
  5  4  1  0
  6  5  1  0
  7  6  1  0
  8  7  1  0
  9  8  1  0
 10  9  1  0
 11 10  1  0
 12 11  1  0
 13  8  2  0
 13 12  1  0
 14 13  1  0
 15 14  2  0
 16 15  1  0
 16  7  2  0
 17 16  1  0
 18 17  2  0
 19 18  1  0
 20 19  2  0
 20 15  1  0
 21  1  1  0
 22 21  1  0
 23 22  1  0
 24 23  1  0
 25 24  1  0
 26 25  1  0
 27 26  1  0
 28 27  1  0
 29 28  1  0
 30 29  1  0
 31 30  1  0
 31 26  2  0
 32 31  1  0
 33 32  2  0
 34 33  1  0
 34 25  2  0
 35 34  1  0
 36 35  2  0
 37 36  1  0
 38 33  1  0
 38 37  2  0
  1 39  1  0
  1 40  1  0
  2 41  1  0
  2 42  1  0
  3 43  1  0
  3 44  1  0
  4 45  1  0
  4 46  1  0
  5 47  1  0
  5 48  1  0
  6 49  1  0
  9 50  1  0
  9 51  1  0
 10 52  1  0
 10 53  1  0
 11 54  1  0
 11 55  1  0
 12 56  1  0
 12 57  1  0
 17 58  1  0
 18 59  1  0
 19 60  1  0
 20 61  1  0
 21 62  1  0
 21 63  1  0
 22 64  1  0
 22 65  1  0
 23 66  1  0
 23 67  1  0
 27 68  1  0
 27 69  1  0
 28 70  1  0
 28 71  1  0
 29 72  1  0
 29 73  1  0
 30 74  1  0
 30 75  1  0
 35 76  1  0
 36 77  1  0
 37 78  1  0
 38 79  1  0
M  CHG  1   1   1
M  END
>  <score>  (2) 
-12.22

$$$$
=
     RDKit          3D

 79 84  0  0  0  0  0  0  0  0999 V2000
   -1.1450   66.7910   68.6680 N   0  0  0  0  0  4  0  0  0  0  0  0
    0.2460   66.8380   69.2080 C   0  0  0  0  0  0  0  0  0  0  0  0
    0.5570   65.5940   70.0350 C   0  0  0  0  0  0  0  0  0  0  0  0
    0.0450   65.6110   71.4800 C   0  0  0  0  0  0  0  0  0  0  0  0
    0.3880   64.3350   72.2600 C   0  0  0  0  0  0  0  0  0  0  0  0
    0.0830   63.1260   71.4910 N   0  0  0  0  0  0  0  0  0  0  0  0
    0.7660   61.9320   71.8130 C   0  0  0  0  0  0  0  0  0  0  0  0
    2.0300   61.6080   71.2790 C   0  0  0  0  0  0  0  0  0  0  0  0
    2.7330   62.4830   70.2660 C   0  0  0  0  0  0  0  0  0  0  0  0
    3.8180   61.7580   69.4730 C   0  0  0  0  0  0  0  0  0  0  0  0
    4.7430   61.0170   70.4270 C   0  0  0  0  0  0  0  0  0  0  0  0
    3.9610   59.9510   71.1830 C   0  0  0  0  0  0  0  0  0  0  0  0
    2.6370   60.4300   71.7260 C   0  0  0  0  0  0  0  0  0  0  0  0
    2.0550   59.5910   72.6160 N   0  0  0  0  0  0  0  0  0  0  0  0
    0.7990   59.8240   73.0110 C   0  0  0  0  0  0  0  0  0  0  0  0
    0.1020   60.9880   72.6440 C   0  0  0  0  0  0  0  0  0  0  0  0
   -1.2240   61.1570   73.1110 C   0  0  0  0  0  0  0  0  0  0  0  0
   -1.8380   60.2000   73.9140 C   0  0  0  0  0  0  0  0  0  0  0  0
   -1.1330   59.0610   74.2780 C   0  0  0  0  0  0  0  0  0  0  0  0
    0.1760   58.8880   73.8260 C   0  0  0  0  0  0  0  0  0  0  0  0
   -1.2410   67.1620   67.2190 C   0  0  0  0  0  0  0  0  0  0  0  0
   -0.7020   68.5730   66.9860 C   0  0  0  0  0  0  0  0  0  0  0  0
    0.1790   68.6650   65.7330 C   0  0  0  0  0  0  0  0  0  0  0  0
    1.4830   67.3860   65.6620 S   0  0  0  0  0  0  0  0  0  0  0  0
    2.9310   68.4390   65.4420 C   0  0  0  0  0  0  0  0  0  0  0  0
    3.5880   68.4400   64.2010 C   0  0  0  0  0  0  0  0  0  0  0  0
    3.0790   67.7810   62.9440 C   0  0  0  0  0  0  0  0  0  0  0  0
    3.3830   68.5930   61.6780 C   0  0  0  0  0  0  0  0  0  0  0  0
    4.7170   69.3470   61.6840 C   0  0  0  0  0  0  0  0  0  0  0  0
    5.6190   68.9910   62.8580 C   0  0  0  0  0  0  0  0  0  0  0  0
    4.8410   69.0410   64.1460 C   0  0  0  0  0  0  0  0  0  0  0  0
    5.4260   69.6320   65.2070 N   0  0  0  0  0  0  0  0  0  0  0  0
    4.7260   69.7820   66.3370 C   0  0  0  0  0  0  0  0  0  0  0  0
    3.4580   69.1970   66.5270 C   0  0  0  0  0  0  0  0  0  0  0  0
    2.8110   69.4010   67.7750 C   0  0  0  0  0  0  0  0  0  0  0  0
    3.4090   70.1360   68.7980 C   0  0  0  0  0  0  0  0  0  0  0  0
    4.6630   70.6890   68.5950 C   0  0  0  0  0  0  0  0  0  0  0  0
    5.3050   70.5070   67.3700 C   0  0  0  0  0  0  0  0  0  0  0  0
   -1.5065   65.8334   68.7832 H   0  0  0  0  0  0  0  0  0  0  0  0
   -1.6958   67.4846   69.1937 H   0  0  0  0  0  0  0  0  0  0  0  0
    0.9551   66.8982   68.3692 H   0  0  0  0  0  0  0  0  0  0  0  0
    0.3389   67.7211   69.8572 H   0  0  0  0  0  0  0  0  0  0  0  0
    0.1060   64.7289   69.5268 H   0  0  0  0  0  0  0  0  0  0  0  0
    1.6537   65.5478   70.1061 H   0  0  0  0  0  0  0  0  0  0  0  0
    0.4950   66.4697   71.9998 H   0  0  0  0  0  0  0  0  0  0  0  0
   -1.0519   65.6815   71.4364 H   0  0  0  0  0  0  0  0  0  0  0  0
    1.4615   64.3425   72.4998 H   0  0  0  0  0  0  0  0  0  0  0  0
   -0.2226   64.3202   73.1748 H   0  0  0  0  0  0  0  0  0  0  0  0
   -0.6137   63.1460   70.7326 H   0  0  0  0  0  0  0  0  0  0  0  0
    1.9829   62.8653   69.5580 H   0  0  0  0  0  0  0  0  0  0  0  0
    3.2302   63.2875   70.8277 H   0  0  0  0  0  0  0  0  0  0  0  0
    3.3492   61.0384   68.7857 H   0  0  0  0  0  0  0  0  0  0  0  0
    4.4009   62.4927   68.8981 H   0  0  0  0  0  0  0  0  0  0  0  0
    5.5512   60.5390   69.8540 H   0  0  0  0  0  0  0  0  0  0  0  0
    5.1698   61.7316   71.1461 H   0  0  0  0  0  0  0  0  0  0  0  0
    3.7706   59.1112   70.4986 H   0  0  0  0  0  0  0  0  0  0  0  0
    4.5740   59.6612   72.0492 H   0  0  0  0  0  0  0  0  0  0  0  0
   -1.7809   62.0640   72.8333 H   0  0  0  0  0  0  0  0  0  0  0  0
   -2.8730   60.3451   74.2572 H   0  0  0  0  0  0  0  0  0  0  0  0
   -1.6029   58.3000   74.9183 H   0  0  0  0  0  0  0  0  0  0  0  0
    0.7296   57.9852   74.1236 H   0  0  0  0  0  0  0  0  0  0  0  0
   -0.6530   66.4479   66.6237 H   0  0  0  0  0  0  0  0  0  0  0  0
   -2.2979   67.1325   66.9156 H   0  0  0  0  0  0  0  0  0  0  0  0
   -1.5524   69.2611   66.8708 H   0  0  0  0  0  0  0  0  0  0  0  0
   -0.0800   68.8410   67.8528 H   0  0  0  0  0  0  0  0  0  0  0  0
   -0.4637   68.5564   64.8469 H   0  0  0  0  0  0  0  0  0  0  0  0
    0.6851   69.6412   65.7646 H   0  0  0  0  0  0  0  0  0  0  0  0
    3.5530   66.7929   62.8493 H   0  0  0  0  0  0  0  0  0  0  0  0
    1.9852   67.7041   63.0317 H   0  0  0  0  0  0  0  0  0  0  0  0
    3.3890   67.8999   60.8238 H   0  0  0  0  0  0  0  0  0  0  0  0
    2.6002   69.3634   61.6174 H   0  0  0  0  0  0  0  0  0  0  0  0
    5.2521   69.1125   60.7520 H   0  0  0  0  0  0  0  0  0  0  0  0
    4.4797   70.4172   61.7754 H   0  0  0  0  0  0  0  0  0  0  0  0
    6.0188   67.9764   62.7143 H   0  0  0  0  0  0  0  0  0  0  0  0
    6.4443   69.7164   62.9091 H   0  0  0  0  0  0  0  0  0  0  0  0
    1.8130   68.9682   67.9386 H   0  0  0  0  0  0  0  0  0  0  0  0
    2.8897   70.2755   69.7576 H   0  0  0  0  0  0  0  0  0  0  0  0
    5.1490   71.2676   69.3943 H   0  0  0  0  0  0  0  0  0  0  0  0
    6.2998   70.9512   67.2178 H   0  0  0  0  0  0  0  0  0  0  0  0
  2  1  1  0
  3  2  1  0
  4  3  1  0
  5  4  1  0
  6  5  1  0
  7  6  1  0
  8  7  1  0
  9  8  1  0
 10  9  1  0
 11 10  1  0
 12 11  1  0
 13  8  2  0
 13 12  1  0
 14 13  1  0
 15 14  2  0
 16 15  1  0
 16  7  2  0
 17 16  1  0
 18 17  2  0
 19 18  1  0
 20 19  2  0
 20 15  1  0
 21  1  1  0
 22 21  1  0
 23 22  1  0
 24 23  1  0
 25 24  1  0
 26 25  1  0
 27 26  1  0
 28 27  1  0
 29 28  1  0
 30 29  1  0
 31 30  1  0
 31 26  2  0
 32 31  1  0
 33 32  2  0
 34 33  1  0
 34 25  2  0
 35 34  1  0
 36 35  2  0
 37 36  1  0
 38 33  1  0
 38 37  2  0
  1 39  1  0
  1 40  1  0
  2 41  1  0
  2 42  1  0
  3 43  1  0
  3 44  1  0
  4 45  1  0
  4 46  1  0
  5 47  1  0
  5 48  1  0
  6 49  1  0
  9 50  1  0
  9 51  1  0
 10 52  1  0
 10 53  1  0
 11 54  1  0
 11 55  1  0
 12 56  1  0
 12 57  1  0
 17 58  1  0
 18 59  1  0
 19 60  1  0
 20 61  1  0
 21 62  1  0
 21 63  1  0
 22 64  1  0
 22 65  1  0
 23 66  1  0
 23 67  1  0
 27 68  1  0
 27 69  1  0
 28 70  1  0
 28 71  1  0
 29 72  1  0
 29 73  1  0
 30 74  1  0
 30 75  1  0
 35 76  1  0
 36 77  1  0
 37 78  1  0
 38 79  1  0
M  CHG  1   1   1
M  END
>  <score>  (3) 
-11.948

$$$$
=
     RDKit          3D

 79 84  0  0  0  0  0  0  0  0999 V2000
    0.7260   64.7150   70.5510 N   0  0  0  0  0  4  0  0  0  0  0  0
    0.3500   66.1520   70.3980 C   0  0  0  0  0  0  0  0  0  0  0  0
    1.2050   66.8340   69.3340 C   0  0  0  0  0  0  0  0  0  0  0  0
    0.4350   67.4950   68.1860 C   0  0  0  0  0  0  0  0  0  0  0  0
    1.2040   67.4910   66.8590 C   0  0  0  0  0  0  0  0  0  0  0  0
    1.5110   68.8480   66.4010 N   0  0  0  0  0  0  0  0  0  0  0  0
    2.8610   69.1920   66.1670 C   0  0  0  0  0  0  0  0  0  0  0  0
    3.6940   69.7330   67.1670 C   0  0  0  0  0  0  0  0  0  0  0  0
    3.1950   70.0490   68.5580 C   0  0  0  0  0  0  0  0  0  0  0  0
    4.0760   71.0390   69.3190 C   0  0  0  0  0  0  0  0  0  0  0  0
    5.5290   70.5910   69.2490 C   0  0  0  0  0  0  0  0  0  0  0  0
    6.0040   70.5980   67.8020 C   0  0  0  0  0  0  0  0  0  0  0  0
    5.0320   69.9690   66.8340 C   0  0  0  0  0  0  0  0  0  0  0  0
    5.5410   69.7260   65.6020 N   0  0  0  0  0  0  0  0  0  0  0  0
    4.7180   69.3510   64.6170 C   0  0  0  0  0  0  0  0  0  0  0  0
    3.3610   69.0620   64.8420 C   0  0  0  0  0  0  0  0  0  0  0  0
    2.5630   68.6670   63.7420 C   0  0  0  0  0  0  0  0  0  0  0  0
    3.0940   68.5640   62.4590 C   0  0  0  0  0  0  0  0  0  0  0  0
    4.4380   68.8410   62.2540 C   0  0  0  0  0  0  0  0  0  0  0  0
    5.2340   69.2280   63.3330 C   0  0  0  0  0  0  0  0  0  0  0  0
    0.3570   64.1340   71.8830 C   0  0  0  0  0  0  0  0  0  0  0  0
   -0.0800   62.6770   71.7340 C   0  0  0  0  0  0  0  0  0  0  0  0
   -0.4280   62.0290   73.0810 C   0  0  0  0  0  0  0  0  0  0  0  0
    1.0170   61.8020   74.1770 S   0  0  0  0  0  0  0  0  0  0  0  0
    1.8460   60.4520   73.3130 C   0  0  0  0  0  0  0  0  0  0  0  0
    2.8670   60.7570   72.4000 C   0  0  0  0  0  0  0  0  0  0  0  0
    3.4900   62.1170   72.2070 C   0  0  0  0  0  0  0  0  0  0  0  0
    4.9980   62.0520   71.9340 C   0  0  0  0  0  0  0  0  0  0  0  0
    5.4650   60.8510   71.1040 C   0  0  0  0  0  0  0  0  0  0  0  0
    4.3260   60.0380   70.5050 C   0  0  0  0  0  0  0  0  0  0  0  0
    3.2930   59.7350   71.5580 C   0  0  0  0  0  0  0  0  0  0  0  0
    2.7930   58.4840   71.6010 N   0  0  0  0  0  0  0  0  0  0  0  0
    1.9480   58.1540   72.5850 C   0  0  0  0  0  0  0  0  0  0  0  0
    1.4220   59.1030   73.4830 C   0  0  0  0  0  0  0  0  0  0  0  0
    0.5150   58.6480   74.4770 C   0  0  0  0  0  0  0  0  0  0  0  0
    0.1300   57.3100   74.5580 C   0  0  0  0  0  0  0  0  0  0  0  0
    0.6470   56.3960   73.6550 C   0  0  0  0  0  0  0  0  0  0  0  0
    1.5480   56.8270   72.6810 C   0  0  0  0  0  0  0  0  0  0  0  0
    0.2480   64.1738   69.8165 H   0  0  0  0  0  0  0  0  0  0  0  0
    1.7517   64.6623   70.4734 H   0  0  0  0  0  0  0  0  0  0  0  0
   -0.7081   66.2171   70.1044 H   0  0  0  0  0  0  0  0  0  0  0  0
    0.5170   66.6607   71.3589 H   0  0  0  0  0  0  0  0  0  0  0  0
    1.8053   67.6110   69.8298 H   0  0  0  0  0  0  0  0  0  0  0  0
    1.8034   66.0346   68.8725 H   0  0  0  0  0  0  0  0  0  0  0  0
   -0.5115   66.9532   68.0428 H   0  0  0  0  0  0  0  0  0  0  0  0
    0.2722   68.5464   68.4654 H   0  0  0  0  0  0  0  0  0  0  0  0
    2.1463   66.9402   66.9958 H   0  0  0  0  0  0  0  0  0  0  0  0
    0.5701   67.0103   66.0993 H   0  0  0  0  0  0  0  0  0  0  0  0
    0.7592   69.5362   66.2528 H   0  0  0  0  0  0  0  0  0  0  0  0
    2.1847   70.4762   68.4753 H   0  0  0  0  0  0  0  0  0  0  0  0
    3.2084   69.1065   69.1251 H   0  0  0  0  0  0  0  0  0  0  0  0
    3.9789   72.0372   68.8672 H   0  0  0  0  0  0  0  0  0  0  0  0
    3.7566   71.0772   70.3709 H   0  0  0  0  0  0  0  0  0  0  0  0
    6.1516   71.2783   69.8407 H   0  0  0  0  0  0  0  0  0  0  0  0
    5.6137   69.5715   69.6532 H   0  0  0  0  0  0  0  0  0  0  0  0
    6.1691   71.6419   67.4972 H   0  0  0  0  0  0  0  0  0  0  0  0
    6.9238   69.9958   67.7660 H   0  0  0  0  0  0  0  0  0  0  0  0
    1.4998   68.4363   63.9042 H   0  0  0  0  0  0  0  0  0  0  0  0
    2.4538   68.2658   61.6156 H   0  0  0  0  0  0  0  0  0  0  0  0
    4.8734   68.7561   61.2474 H   0  0  0  0  0  0  0  0  0  0  0  0
    6.2995   69.4416   63.1621 H   0  0  0  0  0  0  0  0  0  0  0  0
    1.2285   64.1830   72.5524 H   0  0  0  0  0  0  0  0  0  0  0  0
   -0.4790   64.7131   72.3023 H   0  0  0  0  0  0  0  0  0  0  0  0
   -0.9668   62.6390   71.0843 H   0  0  0  0  0  0  0  0  0  0  0  0
    0.7620   62.1173   71.3006 H   0  0  0  0  0  0  0  0  0  0  0  0
   -1.1588   62.6693   73.5967 H   0  0  0  0  0  0  0  0  0  0  0  0
   -0.8294   61.0281   72.8640 H   0  0  0  0  0  0  0  0  0  0  0  0
    3.0002   62.6091   71.3538 H   0  0  0  0  0  0  0  0  0  0  0  0
    3.3487   62.6794   73.1418 H   0  0  0  0  0  0  0  0  0  0  0  0
    5.2854   62.9680   71.3969 H   0  0  0  0  0  0  0  0  0  0  0  0
    5.4796   61.9464   72.9173 H   0  0  0  0  0  0  0  0  0  0  0  0
    6.0960   61.2214   70.2827 H   0  0  0  0  0  0  0  0  0  0  0  0
    6.0112   60.1830   71.7863 H   0  0  0  0  0  0  0  0  0  0  0  0
    3.8582   60.6124   69.6918 H   0  0  0  0  0  0  0  0  0  0  0  0
    4.7278   59.0917   70.1138 H   0  0  0  0  0  0  0  0  0  0  0  0
    0.1063   59.3686   75.2006 H   0  0  0  0  0  0  0  0  0  0  0  0
   -0.5788   56.9832   75.3331 H   0  0  0  0  0  0  0  0  0  0  0  0
    0.3494   55.3382   73.7054 H   0  0  0  0  0  0  0  0  0  0  0  0
    1.9538   56.0944   71.9678 H   0  0  0  0  0  0  0  0  0  0  0  0
  2  1  1  0
  3  2  1  0
  4  3  1  0
  5  4  1  0
  6  5  1  0
  7  6  1  0
  8  7  1  0
  9  8  1  0
 10  9  1  0
 11 10  1  0
 12 11  1  0
 13  8  2  0
 13 12  1  0
 14 13  1  0
 15 14  2  0
 16 15  1  0
 16  7  2  0
 17 16  1  0
 18 17  2  0
 19 18  1  0
 20 19  2  0
 20 15  1  0
 21  1  1  0
 22 21  1  0
 23 22  1  0
 24 23  1  0
 25 24  1  0
 26 25  1  0
 27 26  1  0
 28 27  1  0
 29 28  1  0
 30 29  1  0
 31 30  1  0
 31 26  2  0
 32 31  1  0
 33 32  2  0
 34 33  1  0
 34 25  2  0
 35 34  1  0
 36 35  2  0
 37 36  1  0
 38 33  1  0
 38 37  2  0
  1 39  1  0
  1 40  1  0
  2 41  1  0
  2 42  1  0
  3 43  1  0
  3 44  1  0
  4 45  1  0
  4 46  1  0
  5 47  1  0
  5 48  1  0
  6 49  1  0
  9 50  1  0
  9 51  1  0
 10 52  1  0
 10 53  1  0
 11 54  1  0
 11 55  1  0
 12 56  1  0
 12 57  1  0
 17 58  1  0
 18 59  1  0
 19 60  1  0
 20 61  1  0
 21 62  1  0
 21 63  1  0
 22 64  1  0
 22 65  1  0
 23 66  1  0
 23 67  1  0
 27 68  1  0
 27 69  1  0
 28 70  1  0
 28 71  1  0
 29 72  1  0
 29 73  1  0
 30 74  1  0
 30 75  1  0
 35 76  1  0
 36 77  1  0
 37 78  1  0
 38 79  1  0
M  CHG  1   1   1
M  END
>  <score>  (4) 
-11.879

$$$$
=
     RDKit          3D

 79 84  0  0  0  0  0  0  0  0999 V2000
    1.4120   64.9570   70.0400 N   0  0  0  0  0  4  0  0  0  0  0  0
    1.1380   66.4190   69.9110 C   0  0  0  0  0  0  0  0  0  0  0  0
   -0.1260   66.6730   69.0950 C   0  0  0  0  0  0  0  0  0  0  0  0
    0.0410   67.5870   67.8770 C   0  0  0  0  0  0  0  0  0  0  0  0
    1.4990   67.7340   67.4240 C   0  0  0  0  0  0  0  0  0  0  0  0
    1.7640   69.0580   66.8580 N   0  0  0  0  0  0  0  0  0  0  0  0
    3.0610   69.3370   66.3710 C   0  0  0  0  0  0  0  0  0  0  0  0
    3.4570   69.0500   65.0490 C   0  0  0  0  0  0  0  0  0  0  0  0
    2.5470   68.3620   64.0580 C   0  0  0  0  0  0  0  0  0  0  0  0
    3.2850   67.7250   62.8830 C   0  0  0  0  0  0  0  0  0  0  0  0
    4.2440   68.7350   62.2710 C   0  0  0  0  0  0  0  0  0  0  0  0
    5.3010   69.1300   63.2940 C   0  0  0  0  0  0  0  0  0  0  0  0
    4.7460   69.4360   64.6640 C   0  0  0  0  0  0  0  0  0  0  0  0
    5.6190   70.0390   65.5050 N   0  0  0  0  0  0  0  0  0  0  0  0
    5.2950   70.1790   66.7940 C   0  0  0  0  0  0  0  0  0  0  0  0
    4.0200   69.8490   67.2870 C   0  0  0  0  0  0  0  0  0  0  0  0
    3.7610   70.0340   68.6670 C   0  0  0  0  0  0  0  0  0  0  0  0
    4.7360   70.5270   69.5290 C   0  0  0  0  0  0  0  0  0  0  0  0
    5.9860   70.8600   69.0260 C   0  0  0  0  0  0  0  0  0  0  0  0
    6.2500   70.6850   67.6670 C   0  0  0  0  0  0  0  0  0  0  0  0
    0.2450   64.1690   70.5550 C   0  0  0  0  0  0  0  0  0  0  0  0
    0.2120   64.1900   72.0830 C   0  0  0  0  0  0  0  0  0  0  0  0
    0.0370   62.7890   72.6840 C   0  0  0  0  0  0  0  0  0  0  0  0
    1.5100   62.1940   73.5910 S   0  0  0  0  0  0  0  0  0  0  0  0
    1.8120   60.6520   72.7040 C   0  0  0  0  0  0  0  0  0  0  0  0
    1.3410   59.4500   73.2530 C   0  0  0  0  0  0  0  0  0  0  0  0
    0.4180   59.3340   74.4400 C   0  0  0  0  0  0  0  0  0  0  0  0
   -0.6010   58.1960   74.2970 C   0  0  0  0  0  0  0  0  0  0  0  0
   -0.0920   56.9440   73.5740 C   0  0  0  0  0  0  0  0  0  0  0  0
    1.4070   56.9540   73.3090 C   0  0  0  0  0  0  0  0  0  0  0  0
    1.8180   58.2670   72.6970 C   0  0  0  0  0  0  0  0  0  0  0  0
    2.6770   58.2310   71.6590 N   0  0  0  0  0  0  0  0  0  0  0  0
    2.9860   59.3710   71.0290 C   0  0  0  0  0  0  0  0  0  0  0  0
    2.5870   60.6340   71.5080 C   0  0  0  0  0  0  0  0  0  0  0  0
    2.9890   61.7820   70.7740 C   0  0  0  0  0  0  0  0  0  0  0  0
    3.7720   61.6780   69.6260 C   0  0  0  0  0  0  0  0  0  0  0  0
    4.1660   60.4270   69.1800 C   0  0  0  0  0  0  0  0  0  0  0  0
    3.7690   59.2900   69.8850 C   0  0  0  0  0  0  0  0  0  0  0  0
    1.6676   64.5908   69.1119 H   0  0  0  0  0  0  0  0  0  0  0  0
    2.1727   64.8524   70.7265 H   0  0  0  0  0  0  0  0  0  0  0  0
    1.0098   66.8501   70.9149 H   0  0  0  0  0  0  0  0  0  0  0  0
    1.9874   66.8885   69.3932 H   0  0  0  0  0  0  0  0  0  0  0  0
   -0.4995   65.7013   68.7395 H   0  0  0  0  0  0  0  0  0  0  0  0
   -0.8180   67.1975   69.7703 H   0  0  0  0  0  0  0  0  0  0  0  0
   -0.5429   67.1687   67.0439 H   0  0  0  0  0  0  0  0  0  0  0  0
   -0.3117   68.5871   68.1694 H   0  0  0  0  0  0  0  0  0  0  0  0
    2.1581   67.5795   68.2910 H   0  0  0  0  0  0  0  0  0  0  0  0
    1.6902   66.9844   66.6420 H   0  0  0  0  0  0  0  0  0  0  0  0
    1.0214   69.7705   66.8157 H   0  0  0  0  0  0  0  0  0  0  0  0
    1.9911   67.5738   64.5868 H   0  0  0  0  0  0  0  0  0  0  0  0
    1.8858   69.1352   63.6398 H   0  0  0  0  0  0  0  0  0  0  0  0
    3.8515   66.8513   63.2375 H   0  0  0  0  0  0  0  0  0  0  0  0
    2.5553   67.4089   62.1230 H   0  0  0  0  0  0  0  0  0  0  0  0
    4.7343   68.2877   61.3938 H   0  0  0  0  0  0  0  0  0  0  0  0
    3.6821   69.6301   61.9660 H   0  0  0  0  0  0  0  0  0  0  0  0
    6.0177   68.3009   63.3885 H   0  0  0  0  0  0  0  0  0  0  0  0
    5.7692   70.0551   62.9266 H   0  0  0  0  0  0  0  0  0  0  0  0
    2.7674   69.7825   69.0663 H   0  0  0  0  0  0  0  0  0  0  0  0
    4.5178   70.6517   70.5999 H   0  0  0  0  0  0  0  0  0  0  0  0
    6.7633   71.2592   69.6941 H   0  0  0  0  0  0  0  0  0  0  0  0
    7.2420   70.9552   67.2760 H   0  0  0  0  0  0  0  0  0  0  0  0
   -0.6863   64.6077   70.1675 H   0  0  0  0  0  0  0  0  0  0  0  0
    0.3449   63.1269   70.2174 H   0  0  0  0  0  0  0  0  0  0  0  0
    1.1568   64.6166   72.4508 H   0  0  0  0  0  0  0  0  0  0  0  0
   -0.6518   64.7973   72.3913 H   0  0  0  0  0  0  0  0  0  0  0  0
   -0.8143   62.8128   73.3802 H   0  0  0  0  0  0  0  0  0  0  0  0
   -0.1283   62.0960   71.8459 H   0  0  0  0  0  0  0  0  0  0  0  0
    1.0245   59.1507   75.3392 H   0  0  0  0  0  0  0  0  0  0  0  0
   -0.1470   60.2751   74.5111 H   0  0  0  0  0  0  0  0  0  0  0  0
   -0.9210   57.8983   75.3064 H   0  0  0  0  0  0  0  0  0  0  0  0
   -1.4154   58.5951   73.6745 H   0  0  0  0  0  0  0  0  0  0  0  0
   -0.3289   56.0659   74.1927 H   0  0  0  0  0  0  0  0  0  0  0  0
   -0.5903   56.9154   72.5938 H   0  0  0  0  0  0  0  0  0  0  0  0
    1.9447   56.8113   74.2579 H   0  0  0  0  0  0  0  0  0  0  0  0
    1.6537   56.1400   72.6115 H   0  0  0  0  0  0  0  0  0  0  0  0
    2.6744   62.7775   71.1204 H   0  0  0  0  0  0  0  0  0  0  0  0
    4.0750   62.5824   69.0781 H   0  0  0  0  0  0  0  0  0  0  0  0
    4.7870   60.3307   68.2772 H   0  0  0  0  0  0  0  0  0  0  0  0
    4.0856   58.3004   69.5239 H   0  0  0  0  0  0  0  0  0  0  0  0
  2  1  1  0
  3  2  1  0
  4  3  1  0
  5  4  1  0
  6  5  1  0
  7  6  1  0
  8  7  1  0
  9  8  1  0
 10  9  1  0
 11 10  1  0
 12 11  1  0
 13  8  2  0
 13 12  1  0
 14 13  1  0
 15 14  2  0
 16 15  1  0
 16  7  2  0
 17 16  1  0
 18 17  2  0
 19 18  1  0
 20 19  2  0
 20 15  1  0
 21  1  1  0
 22 21  1  0
 23 22  1  0
 24 23  1  0
 25 24  1  0
 26 25  1  0
 27 26  1  0
 28 27  1  0
 29 28  1  0
 30 29  1  0
 31 30  1  0
 31 26  2  0
 32 31  1  0
 33 32  2  0
 34 33  1  0
 34 25  2  0
 35 34  1  0
 36 35  2  0
 37 36  1  0
 38 33  1  0
 38 37  2  0
  1 39  1  0
  1 40  1  0
  2 41  1  0
  2 42  1  0
  3 43  1  0
  3 44  1  0
  4 45  1  0
  4 46  1  0
  5 47  1  0
  5 48  1  0
  6 49  1  0
  9 50  1  0
  9 51  1  0
 10 52  1  0
 10 53  1  0
 11 54  1  0
 11 55  1  0
 12 56  1  0
 12 57  1  0
 17 58  1  0
 18 59  1  0
 19 60  1  0
 20 61  1  0
 21 62  1  0
 21 63  1  0
 22 64  1  0
 22 65  1  0
 23 66  1  0
 23 67  1  0
 27 68  1  0
 27 69  1  0
 28 70  1  0
 28 71  1  0
 29 72  1  0
 29 73  1  0
 30 74  1  0
 30 75  1  0
 35 76  1  0
 36 77  1  0
 37 78  1  0
 38 79  1  0
M  CHG  1   1   1
M  END
>  <score>  (5) 
-11.869

$$$$
=
     RDKit          3D

 79 84  0  0  0  0  0  0  0  0999 V2000
    0.9770   64.7440   70.3840 N   0  0  0  0  0  4  0  0  0  0  0  0
   -0.0310   63.6450   70.4610 C   0  0  0  0  0  0  0  0  0  0  0  0
   -0.0330   62.9970   71.8420 C   0  0  0  0  0  0  0  0  0  0  0  0
    0.7640   63.7330   72.9240 C   0  0  0  0  0  0  0  0  0  0  0  0
    1.2430   62.8150   74.0560 C   0  0  0  0  0  0  0  0  0  0  0  0
    2.5780   62.2740   73.7940 N   0  0  0  0  0  0  0  0  0  0  0  0
    2.7120   61.2420   72.8380 C   0  0  0  0  0  0  0  0  0  0  0  0
    2.4310   59.8920   73.1290 C   0  0  0  0  0  0  0  0  0  0  0  0
    2.0220   59.4260   74.5080 C   0  0  0  0  0  0  0  0  0  0  0  0
    2.2260   57.9300   74.7380 C   0  0  0  0  0  0  0  0  0  0  0  0
    1.6080   57.1450   73.5900 C   0  0  0  0  0  0  0  0  0  0  0  0
    2.3150   57.4920   72.2860 C   0  0  0  0  0  0  0  0  0  0  0  0
    2.5350   58.9710   72.0820 C   0  0  0  0  0  0  0  0  0  0  0  0
    2.9140   59.3170   70.8280 N   0  0  0  0  0  0  0  0  0  0  0  0
    3.3190   60.5690   70.5900 C   0  0  0  0  0  0  0  0  0  0  0  0
    3.2350   61.5820   71.5600 C   0  0  0  0  0  0  0  0  0  0  0  0
    3.6830   62.8810   71.2210 C   0  0  0  0  0  0  0  0  0  0  0  0
    4.1990   63.1650   69.9590 C   0  0  0  0  0  0  0  0  0  0  0  0
    4.2640   62.1570   69.0070 C   0  0  0  0  0  0  0  0  0  0  0  0
    3.8220   60.8740   69.3310 C   0  0  0  0  0  0  0  0  0  0  0  0
    0.3710   66.1070   70.2310 C   0  0  0  0  0  0  0  0  0  0  0  0
    1.3800   67.0810   69.6250 C   0  0  0  0  0  0  0  0  0  0  0  0
    1.1490   67.3080   68.1250 C   0  0  0  0  0  0  0  0  0  0  0  0
    1.0080   69.0730   67.6670 S   0  0  0  0  0  0  0  0  0  0  0  0
    2.4580   69.2290   66.6050 C   0  0  0  0  0  0  0  0  0  0  0  0
    2.3780   68.7840   65.2760 C   0  0  0  0  0  0  0  0  0  0  0  0
    1.1140   68.3580   64.5730 C   0  0  0  0  0  0  0  0  0  0  0  0
    1.0750   68.7860   63.1000 C   0  0  0  0  0  0  0  0  0  0  0  0
    2.4240   68.7620   62.3730 C   0  0  0  0  0  0  0  0  0  0  0  0
    3.5430   68.1100   63.1730 C   0  0  0  0  0  0  0  0  0  0  0  0
    3.5720   68.6650   64.5730 C   0  0  0  0  0  0  0  0  0  0  0  0
    4.7740   68.9750   65.0970 N   0  0  0  0  0  0  0  0  0  0  0  0
    4.8290   69.5610   66.2990 C   0  0  0  0  0  0  0  0  0  0  0  0
    3.6940   69.7150   67.1200 C   0  0  0  0  0  0  0  0  0  0  0  0
    3.8690   70.3300   68.3880 C   0  0  0  0  0  0  0  0  0  0  0  0
    5.1220   70.7550   68.8290 C   0  0  0  0  0  0  0  0  0  0  0  0
    6.2270   70.5810   68.0110 C   0  0  0  0  0  0  0  0  0  0  0  0
    6.0680   69.9880   66.7590 C   0  0  0  0  0  0  0  0  0  0  0  0
    1.5376   64.7323   71.2480 H   0  0  0  0  0  0  0  0  0  0  0  0
    1.5471   64.5716   69.5437 H   0  0  0  0  0  0  0  0  0  0  0  0
   -1.0296   64.0586   70.2568 H   0  0  0  0  0  0  0  0  0  0  0  0
    0.2300   62.8789   69.7161 H   0  0  0  0  0  0  0  0  0  0  0  0
   -1.0772   62.9270   72.1806 H   0  0  0  0  0  0  0  0  0  0  0  0
    0.4623   62.0229   71.7161 H   0  0  0  0  0  0  0  0  0  0  0  0
    1.6442   64.1966   72.4545 H   0  0  0  0  0  0  0  0  0  0  0  0
    0.0917   64.4792   73.3725 H   0  0  0  0  0  0  0  0  0  0  0  0
    1.2704   63.3907   74.9929 H   0  0  0  0  0  0  0  0  0  0  0  0
    0.5419   61.9705   74.1291 H   0  0  0  0  0  0  0  0  0  0  0  0
    3.4011   62.6375   74.2953 H   0  0  0  0  0  0  0  0  0  0  0  0
    2.6184   59.9758   75.2511 H   0  0  0  0  0  0  0  0  0  0  0  0
    0.9439   59.6214   74.6059 H   0  0  0  0  0  0  0  0  0  0  0  0
    3.3028   57.7120   74.7920 H   0  0  0  0  0  0  0  0  0  0  0  0
    1.7418   57.6374   75.6814 H   0  0  0  0  0  0  0  0  0  0  0  0
    1.7128   56.0678   73.7865 H   0  0  0  0  0  0  0  0  0  0  0  0
    0.5426   57.4051   73.5051 H   0  0  0  0  0  0  0  0  0  0  0  0
    3.2950   56.9925   72.2803 H   0  0  0  0  0  0  0  0  0  0  0  0
    1.6615   57.1517   71.4692 H   0  0  0  0  0  0  0  0  0  0  0  0
    3.6223   63.6838   71.9706 H   0  0  0  0  0  0  0  0  0  0  0  0
    4.5518   64.1788   69.7189 H   0  0  0  0  0  0  0  0  0  0  0  0
    4.6615   62.3684   68.0034 H   0  0  0  0  0  0  0  0  0  0  0  0
    3.8731   60.0822   68.5691 H   0  0  0  0  0  0  0  0  0  0  0  0
   -0.5071   66.0400   69.5718 H   0  0  0  0  0  0  0  0  0  0  0  0
    0.0751   66.4763   71.2240 H   0  0  0  0  0  0  0  0  0  0  0  0
    1.2947   68.0465   70.1452 H   0  0  0  0  0  0  0  0  0  0  0  0
    2.3819   66.6434   69.7466 H   0  0  0  0  0  0  0  0  0  0  0  0
    1.9942   66.8715   67.5727 H   0  0  0  0  0  0  0  0  0  0  0  0
    0.1918   66.8301   67.8693 H   0  0  0  0  0  0  0  0  0  0  0  0
    1.0380   67.2617   64.6218 H   0  0  0  0  0  0  0  0  0  0  0  0
    0.2721   68.8505   65.0816 H   0  0  0  0  0  0  0  0  0  0  0  0
    0.3905   68.1091   62.5678 H   0  0  0  0  0  0  0  0  0  0  0  0
    0.7480   69.8363   63.0979 H   0  0  0  0  0  0  0  0  0  0  0  0
    2.3008   68.2054   61.4322 H   0  0  0  0  0  0  0  0  0  0  0  0
    2.7171   69.8093   62.2081 H   0  0  0  0  0  0  0  0  0  0  0  0
    3.3740   67.0239   63.2160 H   0  0  0  0  0  0  0  0  0  0  0  0
    4.5050   68.3208   62.6829 H   0  0  0  0  0  0  0  0  0  0  0  0
    2.9941   70.4748   69.0389 H   0  0  0  0  0  0  0  0  0  0  0  0
    5.2322   71.2243   69.8177 H   0  0  0  0  0  0  0  0  0  0  0  0
    7.2221   70.9082   68.3468 H   0  0  0  0  0  0  0  0  0  0  0  0
    6.9506   69.8543   66.1162 H   0  0  0  0  0  0  0  0  0  0  0  0
  2  1  1  0
  3  2  1  0
  4  3  1  0
  5  4  1  0
  6  5  1  0
  7  6  1  0
  8  7  1  0
  9  8  1  0
 10  9  1  0
 11 10  1  0
 12 11  1  0
 13  8  2  0
 13 12  1  0
 14 13  1  0
 15 14  2  0
 16 15  1  0
 16  7  2  0
 17 16  1  0
 18 17  2  0
 19 18  1  0
 20 19  2  0
 20 15  1  0
 21  1  1  0
 22 21  1  0
 23 22  1  0
 24 23  1  0
 25 24  1  0
 26 25  1  0
 27 26  1  0
 28 27  1  0
 29 28  1  0
 30 29  1  0
 31 30  1  0
 31 26  2  0
 32 31  1  0
 33 32  2  0
 34 33  1  0
 34 25  2  0
 35 34  1  0
 36 35  2  0
 37 36  1  0
 38 33  1  0
 38 37  2  0
  1 39  1  0
  1 40  1  0
  2 41  1  0
  2 42  1  0
  3 43  1  0
  3 44  1  0
  4 45  1  0
  4 46  1  0
  5 47  1  0
  5 48  1  0
  6 49  1  0
  9 50  1  0
  9 51  1  0
 10 52  1  0
 10 53  1  0
 11 54  1  0
 11 55  1  0
 12 56  1  0
 12 57  1  0
 17 58  1  0
 18 59  1  0
 19 60  1  0
 20 61  1  0
 21 62  1  0
 21 63  1  0
 22 64  1  0
 22 65  1  0
 23 66  1  0
 23 67  1  0
 27 68  1  0
 27 69  1  0
 28 70  1  0
 28 71  1  0
 29 72  1  0
 29 73  1  0
 30 74  1  0
 30 75  1  0
 35 76  1  0
 36 77  1  0
 37 78  1  0
 38 79  1  0
M  CHG  1   1   1
M  END
>  <score>  (6) 
-11.706

$$$$
=
     RDKit          3D

 79 84  0  0  0  0  0  0  0  0999 V2000
   -2.3010   67.2820   67.6960 N   0  0  0  0  0  4  0  0  0  0  0  0
   -1.1230   66.3940   67.9260 C   0  0  0  0  0  0  0  0  0  0  0  0
   -0.6300   66.4970   69.3660 C   0  0  0  0  0  0  0  0  0  0  0  0
    0.8610   66.8060   69.5380 C   0  0  0  0  0  0  0  0  0  0  0  0
    1.6630   65.6300   70.1080 C   0  0  0  0  0  0  0  0  0  0  0  0
    0.8400   64.4280   70.2550 N   0  0  0  0  0  0  0  0  0  0  0  0
    1.2660   63.4240   71.1540 C   0  0  0  0  0  0  0  0  0  0  0  0
    0.9090   63.4210   72.5180 C   0  0  0  0  0  0  0  0  0  0  0  0
    0.0920   64.5260   73.1480 C   0  0  0  0  0  0  0  0  0  0  0  0
    0.2150   64.5940   74.6680 C   0  0  0  0  0  0  0  0  0  0  0  0
   -0.0150   63.2130   75.2640 C   0  0  0  0  0  0  0  0  0  0  0  0
    1.0620   62.2520   74.7760 C   0  0  0  0  0  0  0  0  0  0  0  0
    1.3340   62.3370   73.2940 C   0  0  0  0  0  0  0  0  0  0  0  0
    2.0840   61.3230   72.7980 N   0  0  0  0  0  0  0  0  0  0  0  0
    2.5420   61.4000   71.5450 C   0  0  0  0  0  0  0  0  0  0  0  0
    2.1600   62.4300   70.6690 C   0  0  0  0  0  0  0  0  0  0  0  0
    2.6900   62.4320   69.3560 C   0  0  0  0  0  0  0  0  0  0  0  0
    3.5720   61.4440   68.9280 C   0  0  0  0  0  0  0  0  0  0  0  0
    3.9310   60.4260   69.8000 C   0  0  0  0  0  0  0  0  0  0  0  0
    3.4110   60.4140   71.0960 C   0  0  0  0  0  0  0  0  0  0  0  0
   -2.0860   68.2980   66.6150 C   0  0  0  0  0  0  0  0  0  0  0  0
   -0.7140   68.9560   66.7570 C   0  0  0  0  0  0  0  0  0  0  0  0
    0.1610   68.7620   65.5110 C   0  0  0  0  0  0  0  0  0  0  0  0
    1.4560   67.4880   65.7200 S   0  0  0  0  0  0  0  0  0  0  0  0
    2.9260   68.5030   65.4690 C   0  0  0  0  0  0  0  0  0  0  0  0
    3.5680   68.4720   64.2220 C   0  0  0  0  0  0  0  0  0  0  0  0
    3.0290   67.8100   62.9790 C   0  0  0  0  0  0  0  0  0  0  0  0
    3.3370   68.5990   61.7000 C   0  0  0  0  0  0  0  0  0  0  0  0
    4.6890   69.3200   61.6810 C   0  0  0  0  0  0  0  0  0  0  0  0
    5.5960   68.9570   62.8490 C   0  0  0  0  0  0  0  0  0  0  0  0
    4.8340   69.0430   64.1450 C   0  0  0  0  0  0  0  0  0  0  0  0
    5.4460   69.6330   65.1910 N   0  0  0  0  0  0  0  0  0  0  0  0
    4.7620   69.8130   66.3270 C   0  0  0  0  0  0  0  0  0  0  0  0
    3.4830   69.2620   66.5390 C   0  0  0  0  0  0  0  0  0  0  0  0
    2.8560   69.4970   67.7910 C   0  0  0  0  0  0  0  0  0  0  0  0
    3.4830   70.2300   68.7980 C   0  0  0  0  0  0  0  0  0  0  0  0
    4.7470   70.7510   68.5740 C   0  0  0  0  0  0  0  0  0  0  0  0
    5.3710   70.5380   67.3440 C   0  0  0  0  0  0  0  0  0  0  0  0
   -3.1055   66.6943   67.4349 H   0  0  0  0  0  0  0  0  0  0  0  0
   -2.4623   67.8017   68.5706 H   0  0  0  0  0  0  0  0  0  0  0  0
   -1.4120   65.3530   67.7189 H   0  0  0  0  0  0  0  0  0  0  0  0
   -0.3107   66.7107   67.2553 H   0  0  0  0  0  0  0  0  0  0  0  0
   -1.2001   67.2964   69.8619 H   0  0  0  0  0  0  0  0  0  0  0  0
   -0.7823   65.5007   69.8068 H   0  0  0  0  0  0  0  0  0  0  0  0
    1.2785   67.0693   68.5550 H   0  0  0  0  0  0  0  0  0  0  0  0
    0.9409   67.6338   70.2579 H   0  0  0  0  0  0  0  0  0  0  0  0
    2.4993   65.4075   69.4289 H   0  0  0  0  0  0  0  0  0  0  0  0
    2.0276   65.9175   71.1052 H   0  0  0  0  0  0  0  0  0  0  0  0
   -0.0301   64.3165   69.7152 H   0  0  0  0  0  0  0  0  0  0  0  0
    0.4271   65.4866   72.7297 H   0  0  0  0  0  0  0  0  0  0  0  0
   -0.9631   64.3130   72.9214 H   0  0  0  0  0  0  0  0  0  0  0  0
    1.2218   64.9456   74.9379 H   0  0  0  0  0  0  0  0  0  0  0  0
   -0.5384   65.2912   75.0634 H   0  0  0  0  0  0  0  0  0  0  0  0
    0.0243   63.2781   76.3614 H   0  0  0  0  0  0  0  0  0  0  0  0
   -1.0014   62.8420   74.9487 H   0  0  0  0  0  0  0  0  0  0  0  0
    1.9955   62.4771   75.3126 H   0  0  0  0  0  0  0  0  0  0  0  0
    0.6945   61.2344   74.9745 H   0  0  0  0  0  0  0  0  0  0  0  0
    2.3984   63.2316   68.6592 H   0  0  0  0  0  0  0  0  0  0  0  0
    3.9810   61.4699   67.9072 H   0  0  0  0  0  0  0  0  0  0  0  0
    4.6205   59.6339   69.4726 H   0  0  0  0  0  0  0  0  0  0  0  0
    3.6975   59.6015   71.7799 H   0  0  0  0  0  0  0  0  0  0  0  0
   -2.1487   67.8017   65.6354 H   0  0  0  0  0  0  0  0  0  0  0  0
   -2.8609   69.0741   66.7000 H   0  0  0  0  0  0  0  0  0  0  0  0
   -0.8551   70.0339   66.9250 H   0  0  0  0  0  0  0  0  0  0  0  0
   -0.2001   68.4792   67.6047 H   0  0  0  0  0  0  0  0  0  0  0  0
   -0.4871   68.4654   64.6732 H   0  0  0  0  0  0  0  0  0  0  0  0
    0.6739   69.7170   65.3240 H   0  0  0  0  0  0  0  0  0  0  0  0
    3.4786   66.8099   62.8911 H   0  0  0  0  0  0  0  0  0  0  0  0
    1.9348   67.7600   63.0801 H   0  0  0  0  0  0  0  0  0  0  0  0
    3.3156   67.8959   60.8543 H   0  0  0  0  0  0  0  0  0  0  0  0
    2.5725   69.3876   61.6393 H   0  0  0  0  0  0  0  0  0  0  0  0
    5.2072   69.0606   60.7460 H   0  0  0  0  0  0  0  0  0  0  0  0
    4.4788   70.3967   61.7614 H   0  0  0  0  0  0  0  0  0  0  0  0
    5.9691   67.9310   62.7142 H   0  0  0  0  0  0  0  0  0  0  0  0
    6.4397   69.6621   62.8811 H   0  0  0  0  0  0  0  0  0  0  0  0
    1.8499   69.0904   67.9712 H   0  0  0  0  0  0  0  0  0  0  0  0
    2.9784   70.3931   69.7617 H   0  0  0  0  0  0  0  0  0  0  0  0
    5.2553   71.3286   69.3602 H   0  0  0  0  0  0  0  0  0  0  0  0
    6.3742   70.9562   67.1747 H   0  0  0  0  0  0  0  0  0  0  0  0
  2  1  1  0
  3  2  1  0
  4  3  1  0
  5  4  1  0
  6  5  1  0
  7  6  1  0
  8  7  1  0
  9  8  1  0
 10  9  1  0
 11 10  1  0
 12 11  1  0
 13  8  2  0
 13 12  1  0
 14 13  1  0
 15 14  2  0
 16 15  1  0
 16  7  2  0
 17 16  1  0
 18 17  2  0
 19 18  1  0
 20 19  2  0
 20 15  1  0
 21  1  1  0
 22 21  1  0
 23 22  1  0
 24 23  1  0
 25 24  1  0
 26 25  1  0
 27 26  1  0
 28 27  1  0
 29 28  1  0
 30 29  1  0
 31 30  1  0
 31 26  2  0
 32 31  1  0
 33 32  2  0
 34 33  1  0
 34 25  2  0
 35 34  1  0
 36 35  2  0
 37 36  1  0
 38 33  1  0
 38 37  2  0
  1 39  1  0
  1 40  1  0
  2 41  1  0
  2 42  1  0
  3 43  1  0
  3 44  1  0
  4 45  1  0
  4 46  1  0
  5 47  1  0
  5 48  1  0
  6 49  1  0
  9 50  1  0
  9 51  1  0
 10 52  1  0
 10 53  1  0
 11 54  1  0
 11 55  1  0
 12 56  1  0
 12 57  1  0
 17 58  1  0
 18 59  1  0
 19 60  1  0
 20 61  1  0
 21 62  1  0
 21 63  1  0
 22 64  1  0
 22 65  1  0
 23 66  1  0
 23 67  1  0
 27 68  1  0
 27 69  1  0
 28 70  1  0
 28 71  1  0
 29 72  1  0
 29 73  1  0
 30 74  1  0
 30 75  1  0
 35 76  1  0
 36 77  1  0
 37 78  1  0
 38 79  1  0
M  CHG  1   1   1
M  END
>  <score>  (7) 
-11.632

$$$$
=
     RDKit          3D

 79 84  0  0  0  0  0  0  0  0999 V2000
   -2.4400   67.2890   67.2660 N   0  0  0  0  0  4  0  0  0  0  0  0
   -1.2030   66.4770   67.4680 C   0  0  0  0  0  0  0  0  0  0  0  0
   -0.7350   66.5400   68.9190 C   0  0  0  0  0  0  0  0  0  0  0  0
    0.7280   66.9450   69.1280 C   0  0  0  0  0  0  0  0  0  0  0  0
    1.4510   66.0870   70.1730 C   0  0  0  0  0  0  0  0  0  0  0  0
    0.8190   64.7760   70.3370 N   0  0  0  0  0  0  0  0  0  0  0  0
    1.4210   63.8400   71.2070 C   0  0  0  0  0  0  0  0  0  0  0  0
    2.2720   62.8130   70.7510 C   0  0  0  0  0  0  0  0  0  0  0  0
    2.5620   62.5880   69.2840 C   0  0  0  0  0  0  0  0  0  0  0  0
    3.0910   61.1910   68.9670 C   0  0  0  0  0  0  0  0  0  0  0  0
    4.2420   60.8530   69.9040 C   0  0  0  0  0  0  0  0  0  0  0  0
    3.7460   60.8220   71.3430 C   0  0  0  0  0  0  0  0  0  0  0  0
    2.8640   61.9900   71.7140 C   0  0  0  0  0  0  0  0  0  0  0  0
    2.6330   62.1230   73.0420 N   0  0  0  0  0  0  0  0  0  0  0  0
    1.7170   63.0010   73.4620 C   0  0  0  0  0  0  0  0  0  0  0  0
    1.0790   63.8950   72.5860 C   0  0  0  0  0  0  0  0  0  0  0  0
    0.1230   64.7950   73.1170 C   0  0  0  0  0  0  0  0  0  0  0  0
   -0.1890   64.8050   74.4740 C   0  0  0  0  0  0  0  0  0  0  0  0
    0.4580   63.9250   75.3290 C   0  0  0  0  0  0  0  0  0  0  0  0
    1.4040   63.0360   74.8150 C   0  0  0  0  0  0  0  0  0  0  0  0
   -2.2320   68.4960   66.4010 C   0  0  0  0  0  0  0  0  0  0  0  0
   -0.8160   69.0460   66.5730 C   0  0  0  0  0  0  0  0  0  0  0  0
    0.0360   68.8740   65.3080 C   0  0  0  0  0  0  0  0  0  0  0  0
    1.2900   67.5500   65.4470 S   0  0  0  0  0  0  0  0  0  0  0  0
    2.7920   68.5300   65.2470 C   0  0  0  0  0  0  0  0  0  0  0  0
    3.4450   68.5250   64.0050 C   0  0  0  0  0  0  0  0  0  0  0  0
    2.8990   67.9250   62.7330 C   0  0  0  0  0  0  0  0  0  0  0  0
    3.2420   68.7500   61.4870 C   0  0  0  0  0  0  0  0  0  0  0  0
    4.6150   69.4310   61.5060 C   0  0  0  0  0  0  0  0  0  0  0  0
    5.4990   68.9990   62.6670 C   0  0  0  0  0  0  0  0  0  0  0  0
    4.7280   69.0600   63.9590 C   0  0  0  0  0  0  0  0  0  0  0  0
    5.3460   69.5930   65.0320 N   0  0  0  0  0  0  0  0  0  0  0  0
    4.6570   69.7530   66.1680 C   0  0  0  0  0  0  0  0  0  0  0  0
    3.3610   69.2320   66.3480 C   0  0  0  0  0  0  0  0  0  0  0  0
    2.7280   69.4400   67.6030 C   0  0  0  0  0  0  0  0  0  0  0  0
    3.3670   70.1180   68.6400 C   0  0  0  0  0  0  0  0  0  0  0  0
    4.6480   70.6080   68.4470 C   0  0  0  0  0  0  0  0  0  0  0  0
    5.2770   70.4220   67.2160 C   0  0  0  0  0  0  0  0  0  0  0  0
   -3.1533   66.6912   66.8246 H   0  0  0  0  0  0  0  0  0  0  0  0
   -2.7325   67.6290   68.1932 H   0  0  0  0  0  0  0  0  0  0  0  0
   -1.4133   65.4302   67.2035 H   0  0  0  0  0  0  0  0  0  0  0  0
   -0.4083   66.8858   66.8267 H   0  0  0  0  0  0  0  0  0  0  0  0
   -1.3665   67.2701   69.4465 H   0  0  0  0  0  0  0  0  0  0  0  0
   -0.8206   65.5141   69.3066 H   0  0  0  0  0  0  0  0  0  0  0  0
    1.2578   66.8474   68.1689 H   0  0  0  0  0  0  0  0  0  0  0  0
    0.7298   67.9806   69.4988 H   0  0  0  0  0  0  0  0  0  0  0  0
    2.4935   65.9415   69.8537 H   0  0  0  0  0  0  0  0  0  0  0  0
    1.4008   66.6121   71.1382 H   0  0  0  0  0  0  0  0  0  0  0  0
   -0.0458   64.5416   69.8289 H   0  0  0  0  0  0  0  0  0  0  0  0
    1.6311   62.7427   68.7188 H   0  0  0  0  0  0  0  0  0  0  0  0
    3.3504   63.3008   69.0005 H   0  0  0  0  0  0  0  0  0  0  0  0
    2.2837   60.4556   69.0995 H   0  0  0  0  0  0  0  0  0  0  0  0
    3.4483   61.1643   67.9270 H   0  0  0  0  0  0  0  0  0  0  0  0
    4.6516   59.8674   69.6380 H   0  0  0  0  0  0  0  0  0  0  0  0
    5.0252   61.6193   69.8071 H   0  0  0  0  0  0  0  0  0  0  0  0
    3.1728   59.8949   71.4914 H   0  0  0  0  0  0  0  0  0  0  0  0
    4.6357   60.8778   71.9875 H   0  0  0  0  0  0  0  0  0  0  0  0
   -0.3839   65.5012   72.4430 H   0  0  0  0  0  0  0  0  0  0  0  0
   -0.9423   65.5049   74.8647 H   0  0  0  0  0  0  0  0  0  0  0  0
    0.2274   63.9275   76.4046 H   0  0  0  0  0  0  0  0  0  0  0  0
    1.9156   62.3442   75.5003 H   0  0  0  0  0  0  0  0  0  0  0  0
   -2.3855   68.2166   65.3482 H   0  0  0  0  0  0  0  0  0  0  0  0
   -2.9519   69.2728   66.6984 H   0  0  0  0  0  0  0  0  0  0  0  0
   -0.8800   70.1176   66.8129 H   0  0  0  0  0  0  0  0  0  0  0  0
   -0.3323   68.4800   67.3827 H   0  0  0  0  0  0  0  0  0  0  0  0
   -0.6324   68.6336   64.4681 H   0  0  0  0  0  0  0  0  0  0  0  0
    0.5785   69.8182   65.1526 H   0  0  0  0  0  0  0  0  0  0  0  0
    3.3200   66.9160   62.6123 H   0  0  0  0  0  0  0  0  0  0  0  0
    1.8029   67.9041   62.8227 H   0  0  0  0  0  0  0  0  0  0  0  0
    3.2082   68.0790   60.6160 H   0  0  0  0  0  0  0  0  0  0  0  0
    2.5015   69.5625   61.4486 H   0  0  0  0  0  0  0  0  0  0  0  0
    5.1343   69.1907   60.5666 H   0  0  0  0  0  0  0  0  0  0  0  0
    4.4358   70.5099   61.6240 H   0  0  0  0  0  0  0  0  0  0  0  0
    5.8430   67.9680   62.4976 H   0  0  0  0  0  0  0  0  0  0  0  0
    6.3625   69.6774   62.7322 H   0  0  0  0  0  0  0  0  0  0  0  0
    1.7090   69.0567   67.7601 H   0  0  0  0  0  0  0  0  0  0  0  0
    2.8577   70.2627   69.6042 H   0  0  0  0  0  0  0  0  0  0  0  0
    5.1657   71.1401   69.2587 H   0  0  0  0  0  0  0  0  0  0  0  0
    6.2935   70.8165   67.0707 H   0  0  0  0  0  0  0  0  0  0  0  0
  2  1  1  0
  3  2  1  0
  4  3  1  0
  5  4  1  0
  6  5  1  0
  7  6  1  0
  8  7  1  0
  9  8  1  0
 10  9  1  0
 11 10  1  0
 12 11  1  0
 13  8  2  0
 13 12  1  0
 14 13  1  0
 15 14  2  0
 16 15  1  0
 16  7  2  0
 17 16  1  0
 18 17  2  0
 19 18  1  0
 20 19  2  0
 20 15  1  0
 21  1  1  0
 22 21  1  0
 23 22  1  0
 24 23  1  0
 25 24  1  0
 26 25  1  0
 27 26  1  0
 28 27  1  0
 29 28  1  0
 30 29  1  0
 31 30  1  0
 31 26  2  0
 32 31  1  0
 33 32  2  0
 34 33  1  0
 34 25  2  0
 35 34  1  0
 36 35  2  0
 37 36  1  0
 38 33  1  0
 38 37  2  0
  1 39  1  0
  1 40  1  0
  2 41  1  0
  2 42  1  0
  3 43  1  0
  3 44  1  0
  4 45  1  0
  4 46  1  0
  5 47  1  0
  5 48  1  0
  6 49  1  0
  9 50  1  0
  9 51  1  0
 10 52  1  0
 10 53  1  0
 11 54  1  0
 11 55  1  0
 12 56  1  0
 12 57  1  0
 17 58  1  0
 18 59  1  0
 19 60  1  0
 20 61  1  0
 21 62  1  0
 21 63  1  0
 22 64  1  0
 22 65  1  0
 23 66  1  0
 23 67  1  0
 27 68  1  0
 27 69  1  0
 28 70  1  0
 28 71  1  0
 29 72  1  0
 29 73  1  0
 30 74  1  0
 30 75  1  0
 35 76  1  0
 36 77  1  0
 37 78  1  0
 38 79  1  0
M  CHG  1   1   1
M  END
>  <score>  (8) 
-11.271

$$$$
=
     RDKit          3D

 79 84  0  0  0  0  0  0  0  0999 V2000
    0.9370   65.0050   70.3830 N   0  0  0  0  0  4  0  0  0  0  0  0
   -0.0510   63.8860   70.3360 C   0  0  0  0  0  0  0  0  0  0  0  0
   -0.0190   63.0690   71.6240 C   0  0  0  0  0  0  0  0  0  0  0  0
    0.5340   63.7930   72.8560 C   0  0  0  0  0  0  0  0  0  0  0  0
    0.9540   62.8400   73.9830 C   0  0  0  0  0  0  0  0  0  0  0  0
    2.3260   62.3610   73.8090 N   0  0  0  0  0  0  0  0  0  0  0  0
    2.5740   61.3560   72.8470 C   0  0  0  0  0  0  0  0  0  0  0  0
    2.3110   59.9920   73.0850 C   0  0  0  0  0  0  0  0  0  0  0  0
    1.8000   59.4810   74.4120 C   0  0  0  0  0  0  0  0  0  0  0  0
    2.0290   57.9860   74.6270 C   0  0  0  0  0  0  0  0  0  0  0  0
    1.5370   57.2110   73.4140 C   0  0  0  0  0  0  0  0  0  0  0  0
    2.3420   57.6090   72.1840 C   0  0  0  0  0  0  0  0  0  0  0  0
    2.5330   59.0990   72.0310 C   0  0  0  0  0  0  0  0  0  0  0  0
    3.0070   59.4860   70.8220 N   0  0  0  0  0  0  0  0  0  0  0  0
    3.3920   60.7540   70.6460 C   0  0  0  0  0  0  0  0  0  0  0  0
    3.1940   61.7410   71.6270 C   0  0  0  0  0  0  0  0  0  0  0  0
    3.6280   63.0600   71.3550 C   0  0  0  0  0  0  0  0  0  0  0  0
    4.2420   63.3880   70.1480 C   0  0  0  0  0  0  0  0  0  0  0  0
    4.4200   62.4060   69.1850 C   0  0  0  0  0  0  0  0  0  0  0  0
    3.9910   61.1030   69.4420 C   0  0  0  0  0  0  0  0  0  0  0  0
    0.3850   66.3150   69.9060 C   0  0  0  0  0  0  0  0  0  0  0  0
    1.5170   67.2770   69.5440 C   0  0  0  0  0  0  0  0  0  0  0  0
    1.5040   67.6640   68.0590 C   0  0  0  0  0  0  0  0  0  0  0  0
    1.5610   69.4700   67.7760 S   0  0  0  0  0  0  0  0  0  0  0  0
    3.2240   69.6180   67.0920 C   0  0  0  0  0  0  0  0  0  0  0  0
    4.2240   70.2260   67.8660 C   0  0  0  0  0  0  0  0  0  0  0  0
    4.0960   70.6010   69.3210 C   0  0  0  0  0  0  0  0  0  0  0  0
    5.3890   70.3730   70.1130 C   0  0  0  0  0  0  0  0  0  0  0  0
    6.6880   70.6420   69.3460 C   0  0  0  0  0  0  0  0  0  0  0  0
    6.4750   71.2990   67.9900 C   0  0  0  0  0  0  0  0  0  0  0  0
    5.4070   70.5690   67.2190 C   0  0  0  0  0  0  0  0  0  0  0  0
    5.6350   70.3250   65.9130 N   0  0  0  0  0  0  0  0  0  0  0  0
    4.7520   69.5930   65.2240 C   0  0  0  0  0  0  0  0  0  0  0  0
    3.5070   69.2070   65.7570 C   0  0  0  0  0  0  0  0  0  0  0  0
    2.6350   68.4490   64.9310 C   0  0  0  0  0  0  0  0  0  0  0  0
    2.9780   68.1090   63.6230 C   0  0  0  0  0  0  0  0  0  0  0  0
    4.2010   68.5120   63.1130 C   0  0  0  0  0  0  0  0  0  0  0  0
    5.0730   69.2470   63.9180 C   0  0  0  0  0  0  0  0  0  0  0  0
    1.2524   65.1200   71.3568 H   0  0  0  0  0  0  0  0  0  0  0  0
    1.7080   64.7535   69.7480 H   0  0  0  0  0  0  0  0  0  0  0  0
   -1.0598   64.3032   70.2004 H   0  0  0  0  0  0  0  0  0  0  0  0
    0.2106   63.2247   69.4968 H   0  0  0  0  0  0  0  0  0  0  0  0
   -1.0485   62.7545   71.8505 H   0  0  0  0  0  0  0  0  0  0  0  0
    0.6704   62.2336   71.4323 H   0  0  0  0  0  0  0  0  0  0  0  0
    1.4122   64.3808   72.5505 H   0  0  0  0  0  0  0  0  0  0  0  0
   -0.2732   64.4278   73.2503 H   0  0  0  0  0  0  0  0  0  0  0  0
    0.8818   63.3713   74.9435 H   0  0  0  0  0  0  0  0  0  0  0  0
    0.2830   61.9686   73.9607 H   0  0  0  0  0  0  0  0  0  0  0  0
    3.0942   62.7481   74.3755 H   0  0  0  0  0  0  0  0  0  0  0  0
    2.3132   60.0295   75.2156 H   0  0  0  0  0  0  0  0  0  0  0  0
    0.7120   59.6427   74.4199 H   0  0  0  0  0  0  0  0  0  0  0  0
    3.1033   57.7977   74.7698 H   0  0  0  0  0  0  0  0  0  0  0  0
    1.4741   57.6575   75.5181 H   0  0  0  0  0  0  0  0  0  0  0  0
    1.6580   56.1330   73.5961 H   0  0  0  0  0  0  0  0  0  0  0  0
    0.4753   57.4419   73.2426 H   0  0  0  0  0  0  0  0  0  0  0  0
    3.3338   57.1383   72.2525 H   0  0  0  0  0  0  0  0  0  0  0  0
    1.7718   57.2694   71.3068 H   0  0  0  0  0  0  0  0  0  0  0  0
    3.4775   63.8432   72.1126 H   0  0  0  0  0  0  0  0  0  0  0  0
    4.5826   64.4170   69.9605 H   0  0  0  0  0  0  0  0  0  0  0  0
    4.8963   62.6525   68.2246 H   0  0  0  0  0  0  0  0  0  0  0  0
    4.1309   60.3315   68.6705 H   0  0  0  0  0  0  0  0  0  0  0  0
   -0.2400   66.1418   69.0175 H   0  0  0  0  0  0  0  0  0  0  0  0
   -0.2150   66.7614   70.7126 H   0  0  0  0  0  0  0  0  0  0  0  0
    1.4111   68.1903   70.1479 H   0  0  0  0  0  0  0  0  0  0  0  0
    2.4694   66.7662   69.7490 H   0  0  0  0  0  0  0  0  0  0  0  0
    2.3785   67.2074   67.5724 H   0  0  0  0  0  0  0  0  0  0  0  0
    0.5553   67.3000   67.6378 H   0  0  0  0  0  0  0  0  0  0  0  0
    3.8276   71.6657   69.3865 H   0  0  0  0  0  0  0  0  0  0  0  0
    3.3217   69.9553   69.7610 H   0  0  0  0  0  0  0  0  0  0  0  0
    5.3702   71.0357   70.9908 H   0  0  0  0  0  0  0  0  0  0  0  0
    5.4036   69.3026   70.3661 H   0  0  0  0  0  0  0  0  0  0  0  0
    7.3207   71.3032   69.9563 H   0  0  0  0  0  0  0  0  0  0  0  0
    7.1580   69.6652   69.1588 H   0  0  0  0  0  0  0  0  0  0  0  0
    6.1660   72.3444   68.1375 H   0  0  0  0  0  0  0  0  0  0  0  0
    7.4161   71.2615   67.4218 H   0  0  0  0  0  0  0  0  0  0  0  0
    1.6648   68.1220   65.3332 H   0  0  0  0  0  0  0  0  0  0  0  0
    2.2830   67.5255   63.0013 H   0  0  0  0  0  0  0  0  0  0  0  0
    4.4831   68.2548   62.0814 H   0  0  0  0  0  0  0  0  0  0  0  0
    6.0431   69.5614   63.5056 H   0  0  0  0  0  0  0  0  0  0  0  0
  2  1  1  0
  3  2  1  0
  4  3  1  0
  5  4  1  0
  6  5  1  0
  7  6  1  0
  8  7  1  0
  9  8  1  0
 10  9  1  0
 11 10  1  0
 12 11  1  0
 13  8  2  0
 13 12  1  0
 14 13  1  0
 15 14  2  0
 16 15  1  0
 16  7  2  0
 17 16  1  0
 18 17  2  0
 19 18  1  0
 20 19  2  0
 20 15  1  0
 21  1  1  0
 22 21  1  0
 23 22  1  0
 24 23  1  0
 25 24  1  0
 26 25  1  0
 27 26  1  0
 28 27  1  0
 29 28  1  0
 30 29  1  0
 31 30  1  0
 31 26  2  0
 32 31  1  0
 33 32  2  0
 34 33  1  0
 34 25  2  0
 35 34  1  0
 36 35  2  0
 37 36  1  0
 38 33  1  0
 38 37  2  0
  1 39  1  0
  1 40  1  0
  2 41  1  0
  2 42  1  0
  3 43  1  0
  3 44  1  0
  4 45  1  0
  4 46  1  0
  5 47  1  0
  5 48  1  0
  6 49  1  0
  9 50  1  0
  9 51  1  0
 10 52  1  0
 10 53  1  0
 11 54  1  0
 11 55  1  0
 12 56  1  0
 12 57  1  0
 17 58  1  0
 18 59  1  0
 19 60  1  0
 20 61  1  0
 21 62  1  0
 21 63  1  0
 22 64  1  0
 22 65  1  0
 23 66  1  0
 23 67  1  0
 27 68  1  0
 27 69  1  0
 28 70  1  0
 28 71  1  0
 29 72  1  0
 29 73  1  0
 30 74  1  0
 30 75  1  0
 35 76  1  0
 36 77  1  0
 37 78  1  0
 38 79  1  0
M  CHG  1   1   1
M  END
>  <score>  (9) 
-11.209

$$$$
