=
     RDKit          3D

 26 27  0  0  0  0  0  0  0  0999 V2000
    2.4810   69.2430   64.6080 O   0  0  0  0  0  0  0  0  0  0  0  0
    2.5280   68.8140   65.7550 C   0  0  0  0  0  0  0  0  0  0  0  0
    3.3650   69.4550   66.7890 C   0  0  0  0  0  0  0  0  0  0  0  0
    4.7430   69.5720   66.5620 C   0  0  0  0  0  0  0  0  0  0  0  0
    5.5450   70.1700   67.5260 C   0  0  0  0  0  0  0  0  0  0  0  0
    6.8630   70.2770   67.3120 F   0  0  0  0  0  0  0  0  0  0  0  0
    5.0040   70.6620   68.7110 C   0  0  0  0  0  0  0  0  0  0  0  0
    3.6320   70.5590   68.9320 C   0  0  0  0  0  0  0  0  0  0  0  0
    2.8200   69.9590   67.9710 C   0  0  0  0  0  0  0  0  0  0  0  0
    1.5000   69.9160   68.1980 F   0  0  0  0  0  0  0  0  0  0  0  0
    1.7340   67.5760   66.0830 C   0  0  0  0  0  0  0  0  0  0  0  0
    2.2880   66.4890   65.9690 O   0  0  0  0  0  0  0  0  0  0  0  0
    0.3180   67.6880   66.4880 C   0  0  0  0  0  0  0  0  0  0  0  0
   -0.5790   68.3330   65.6280 C   0  0  0  0  0  0  0  0  0  0  0  0
   -1.9150   68.4470   65.9940 C   0  0  0  0  0  0  0  0  0  0  0  0
   -2.7730   69.0680   65.1750 F   0  0  0  0  0  0  0  0  0  0  0  0
   -2.3800   67.9250   67.1990 C   0  0  0  0  0  0  0  0  0  0  0  0
   -1.4900   67.2710   68.0510 C   0  0  0  0  0  0  0  0  0  0  0  0
   -0.1480   67.1520   67.6900 C   0  0  0  0  0  0  0  0  0  0  0  0
    0.6690   66.4790   68.5130 F   0  0  0  0  0  0  0  0  0  0  0  0
    5.1857   69.1937   65.6288 H   0  0  0  0  0  0  0  0  0  0  0  0
    5.6541   71.1280   69.4662 H   0  0  0  0  0  0  0  0  0  0  0  0
    3.1915   70.9497   69.8612 H   0  0  0  0  0  0  0  0  0  0  0  0
   -0.2292   68.7462   64.6704 H   0  0  0  0  0  0  0  0  0  0  0  0
   -3.4396   68.0276   67.4761 H   0  0  0  0  0  0  0  0  0  0  0  0
   -1.8450   66.8509   69.0036 H   0  0  0  0  0  0  0  0  0  0  0  0
  2  1  2  0
  3  2  1  0
  4  3  2  0
  5  4  1  0
  6  5  1  0
  7  5  2  0
  8  7  1  0
  9  8  2  0
  9  3  1  0
 10  9  1  0
 11  2  1  0
 12 11  2  0
 13 11  1  0
 14 13  2  0
 15 14  1  0
 16 15  1  0
 17 15  2  0
 18 17  1  0
 19 18  2  0
 19 13  1  0
 20 19  1  0
  4 21  1  0
  7 22  1  0
  8 23  1  0
 14 24  1  0
 17 25  1  0
 18 26  1  0
M  END
>  <score>  (1) 
-9.627

$$$$
=
     RDKit          3D

 26 27  0  0  0  0  0  0  0  0999 V2000
    1.8310   66.7950   66.8050 O   0  0  0  0  0  0  0  0  0  0  0  0
    1.1970   67.8340   66.9570 C   0  0  0  0  0  0  0  0  0  0  0  0
   -0.2760   67.8620   66.8740 C   0  0  0  0  0  0  0  0  0  0  0  0
   -0.8790   68.6030   65.8490 C   0  0  0  0  0  0  0  0  0  0  0  0
   -2.2650   68.6420   65.7590 C   0  0  0  0  0  0  0  0  0  0  0  0
   -2.8420   69.3540   64.7810 F   0  0  0  0  0  0  0  0  0  0  0  0
   -3.0670   67.9540   66.6650 C   0  0  0  0  0  0  0  0  0  0  0  0
   -2.4690   67.2050   67.6780 C   0  0  0  0  0  0  0  0  0  0  0  0
   -1.0790   67.1610   67.7760 C   0  0  0  0  0  0  0  0  0  0  0  0
   -0.5390   66.3970   68.7350 F   0  0  0  0  0  0  0  0  0  0  0  0
    1.9680   69.1060   67.1940 C   0  0  0  0  0  0  0  0  0  0  0  0
    1.4820   69.9430   67.9460 O   0  0  0  0  0  0  0  0  0  0  0  0
    3.2490   69.3390   66.4980 C   0  0  0  0  0  0  0  0  0  0  0  0
    4.3670   69.7140   67.2530 C   0  0  0  0  0  0  0  0  0  0  0  0
    5.5810   69.9380   66.6130 C   0  0  0  0  0  0  0  0  0  0  0  0
    6.6490   70.3020   67.3340 F   0  0  0  0  0  0  0  0  0  0  0  0
    5.7070   69.7900   65.2340 C   0  0  0  0  0  0  0  0  0  0  0  0
    4.5980   69.4040   64.4820 C   0  0  0  0  0  0  0  0  0  0  0  0
    3.3770   69.1770   65.1170 C   0  0  0  0  0  0  0  0  0  0  0  0
    2.3450   68.7650   64.3680 F   0  0  0  0  0  0  0  0  0  0  0  0
   -0.2604   69.1492   65.1217 H   0  0  0  0  0  0  0  0  0  0  0  0
   -4.1629   68.0007   66.5827 H   0  0  0  0  0  0  0  0  0  0  0  0
   -3.0913   66.6514   68.3965 H   0  0  0  0  0  0  0  0  0  0  0  0
    4.2856   69.8305   68.3438 H   0  0  0  0  0  0  0  0  0  0  0  0
    6.6732   69.9760   64.7422 H   0  0  0  0  0  0  0  0  0  0  0  0
    4.6857   69.2790   63.3926 H   0  0  0  0  0  0  0  0  0  0  0  0
  2  1  2  0
  3  2  1  0
  4  3  2  0
  5  4  1  0
  6  5  1  0
  7  5  2  0
  8  7  1  0
  9  8  2  0
  9  3  1  0
 10  9  1  0
 11  2  1  0
 12 11  2  0
 13 11  1  0
 14 13  2  0
 15 14  1  0
 16 15  1  0
 17 15  2  0
 18 17  1  0
 19 18  2  0
 19 13  1  0
 20 19  1  0
  4 21  1  0
  7 22  1  0
  8 23  1  0
 14 24  1  0
 17 25  1  0
 18 26  1  0
M  END
>  <score>  (2) 
-9.577

$$$$
=
     RDKit          3D

 26 27  0  0  0  0  0  0  0  0999 V2000
    2.0500   69.3640   63.5910 O   0  0  0  0  0  0  0  0  0  0  0  0
    2.4630   68.6710   64.5140 C   0  0  0  0  0  0  0  0  0  0  0  0
    3.4300   69.1900   65.5010 C   0  0  0  0  0  0  0  0  0  0  0  0
    3.0070   69.3780   66.8230 C   0  0  0  0  0  0  0  0  0  0  0  0
    3.9050   69.8690   67.7640 C   0  0  0  0  0  0  0  0  0  0  0  0
    3.4990   70.0540   69.0270 F   0  0  0  0  0  0  0  0  0  0  0  0
    5.2190   70.1710   67.4190 C   0  0  0  0  0  0  0  0  0  0  0  0
    5.6460   69.9710   66.1070 C   0  0  0  0  0  0  0  0  0  0  0  0
    4.7520   69.4800   65.1560 C   0  0  0  0  0  0  0  0  0  0  0  0
    5.2080   69.2590   63.9160 F   0  0  0  0  0  0  0  0  0  0  0  0
    1.9880   67.2440   64.5960 C   0  0  0  0  0  0  0  0  0  0  0  0
    0.8000   67.0450   64.8220 O   0  0  0  0  0  0  0  0  0  0  0  0
    2.9470   66.1310   64.4490 C   0  0  0  0  0  0  0  0  0  0  0  0
    2.9710   65.1290   65.4270 C   0  0  0  0  0  0  0  0  0  0  0  0
    3.8690   64.0750   65.3040 C   0  0  0  0  0  0  0  0  0  0  0  0
    3.8960   63.1190   66.2420 F   0  0  0  0  0  0  0  0  0  0  0  0
    4.7420   63.9930   64.2230 C   0  0  0  0  0  0  0  0  0  0  0  0
    4.7110   64.9840   63.2410 C   0  0  0  0  0  0  0  0  0  0  0  0
    3.8120   66.0440   63.3570 C   0  0  0  0  0  0  0  0  0  0  0  0
    3.7800   66.9540   62.3730 F   0  0  0  0  0  0  0  0  0  0  0  0
    1.9734   69.1393   67.1141 H   0  0  0  0  0  0  0  0  0  0  0  0
    5.9147   70.5641   68.1750 H   0  0  0  0  0  0  0  0  0  0  0  0
    6.6839   70.1996   65.8231 H   0  0  0  0  0  0  0  0  0  0  0  0
    2.2849   65.1756   66.2855 H   0  0  0  0  0  0  0  0  0  0  0  0
    5.4498   63.1548   64.1435 H   0  0  0  0  0  0  0  0  0  0  0  0
    5.3925   64.9294   62.3793 H   0  0  0  0  0  0  0  0  0  0  0  0
  2  1  2  0
  3  2  1  0
  4  3  2  0
  5  4  1  0
  6  5  1  0
  7  5  2  0
  8  7  1  0
  9  8  2  0
  9  3  1  0
 10  9  1  0
 11  2  1  0
 12 11  2  0
 13 11  1  0
 14 13  2  0
 15 14  1  0
 16 15  1  0
 17 15  2  0
 18 17  1  0
 19 18  2  0
 19 13  1  0
 20 19  1  0
  4 21  1  0
  7 22  1  0
  8 23  1  0
 14 24  1  0
 17 25  1  0
 18 26  1  0
M  END
>  <score>  (3) 
-9.503

$$$$
=
     RDKit          3D

 26 27  0  0  0  0  0  0  0  0999 V2000
    2.7560   69.1210   64.2750 O   0  0  0  0  0  0  0  0  0  0  0  0
    2.8450   68.7370   65.4360 C   0  0  0  0  0  0  0  0  0  0  0  0
    3.7550   69.3860   66.4000 C   0  0  0  0  0  0  0  0  0  0  0  0
    3.2410   69.8020   67.6350 C   0  0  0  0  0  0  0  0  0  0  0  0
    4.0830   70.4180   68.5530 C   0  0  0  0  0  0  0  0  0  0  0  0
    3.5910   70.8210   69.7320 F   0  0  0  0  0  0  0  0  0  0  0  0
    5.4310   70.6240   68.2700 C   0  0  0  0  0  0  0  0  0  0  0  0
    5.9470   70.1980   67.0470 C   0  0  0  0  0  0  0  0  0  0  0  0
    5.1080   69.5800   66.1210 C   0  0  0  0  0  0  0  0  0  0  0  0
    5.6480   69.1450   64.9740 F   0  0  0  0  0  0  0  0  0  0  0  0
    2.0240   67.5440   65.8530 C   0  0  0  0  0  0  0  0  0  0  0  0
    2.5280   66.4320   65.7440 O   0  0  0  0  0  0  0  0  0  0  0  0
    0.6410   67.7260   66.3360 C   0  0  0  0  0  0  0  0  0  0  0  0
   -0.3040   68.2950   65.4730 C   0  0  0  0  0  0  0  0  0  0  0  0
   -1.6100   68.4750   65.9130 C   0  0  0  0  0  0  0  0  0  0  0  0
   -2.5130   69.0240   65.0910 F   0  0  0  0  0  0  0  0  0  0  0  0
   -1.9990   68.0920   67.1950 C   0  0  0  0  0  0  0  0  0  0  0  0
   -1.0620   67.5130   68.0500 C   0  0  0  0  0  0  0  0  0  0  0  0
    0.2510   67.3290   67.6170 C   0  0  0  0  0  0  0  0  0  0  0  0
    1.1120   66.7300   68.4500 F   0  0  0  0  0  0  0  0  0  0  0  0
    2.1797   69.6424   67.8761 H   0  0  0  0  0  0  0  0  0  0  0  0
    6.0829   71.1186   69.0051 H   0  0  0  0  0  0  0  0  0  0  0  0
    7.0113   70.3488   66.8137 H   0  0  0  0  0  0  0  0  0  0  0  0
   -0.0150   68.5969   64.4555 H   0  0  0  0  0  0  0  0  0  0  0  0
   -3.0357   68.2450   67.5295 H   0  0  0  0  0  0  0  0  0  0  0  0
   -1.3575   67.2023   69.0630 H   0  0  0  0  0  0  0  0  0  0  0  0
  2  1  2  0
  3  2  1  0
  4  3  2  0
  5  4  1  0
  6  5  1  0
  7  5  2  0
  8  7  1  0
  9  8  2  0
  9  3  1  0
 10  9  1  0
 11  2  1  0
 12 11  2  0
 13 11  1  0
 14 13  2  0
 15 14  1  0
 16 15  1  0
 17 15  2  0
 18 17  1  0
 19 18  2  0
 19 13  1  0
 20 19  1  0
  4 21  1  0
  7 22  1  0
  8 23  1  0
 14 24  1  0
 17 25  1  0
 18 26  1  0
M  END
>  <score>  (4) 
-9.496

$$$$
=
     RDKit          3D

 26 27  0  0  0  0  0  0  0  0999 V2000
    5.2300   69.8250   63.9460 O   0  0  0  0  0  0  0  0  0  0  0  0
    4.5520   69.3310   64.8410 C   0  0  0  0  0  0  0  0  0  0  0  0
    4.7010   69.7500   66.2490 C   0  0  0  0  0  0  0  0  0  0  0  0
    5.9690   70.1290   66.7070 C   0  0  0  0  0  0  0  0  0  0  0  0
    6.1260   70.5230   68.0310 C   0  0  0  0  0  0  0  0  0  0  0  0
    7.3400   70.8810   68.4720 F   0  0  0  0  0  0  0  0  0  0  0  0
    5.0460   70.5550   68.9080 C   0  0  0  0  0  0  0  0  0  0  0  0
    3.7800   70.1910   68.4490 C   0  0  0  0  0  0  0  0  0  0  0  0
    3.6140   69.7930   67.1230 C   0  0  0  0  0  0  0  0  0  0  0  0
    2.3770   69.4920   66.7060 F   0  0  0  0  0  0  0  0  0  0  0  0
    3.5790   68.2410   64.4730 C   0  0  0  0  0  0  0  0  0  0  0  0
    3.8430   67.0940   64.8130 O   0  0  0  0  0  0  0  0  0  0  0  0
    2.3690   68.5590   63.6890 C   0  0  0  0  0  0  0  0  0  0  0  0
    1.1340   68.6140   64.3480 C   0  0  0  0  0  0  0  0  0  0  0  0
   -0.0150   68.9110   63.6250 C   0  0  0  0  0  0  0  0  0  0  0  0
   -1.1960   68.9570   64.2530 F   0  0  0  0  0  0  0  0  0  0  0  0
    0.0400   69.1620   62.2560 C   0  0  0  0  0  0  0  0  0  0  0  0
    1.2700   69.1220   61.6000 C   0  0  0  0  0  0  0  0  0  0  0  0
    2.4280   68.8250   62.3190 C   0  0  0  0  0  0  0  0  0  0  0  0
    3.5970   68.8370   61.6650 F   0  0  0  0  0  0  0  0  0  0  0  0
    6.8325   70.1151   66.0257 H   0  0  0  0  0  0  0  0  0  0  0  0
    5.1893   70.8645   69.9538 H   0  0  0  0  0  0  0  0  0  0  0  0
    2.9166   70.2178   69.1300 H   0  0  0  0  0  0  0  0  0  0  0  0
    1.0742   68.4235   65.4297 H   0  0  0  0  0  0  0  0  0  0  0  0
   -0.8794   69.3899   61.6968 H   0  0  0  0  0  0  0  0  0  0  0  0
    1.3269   69.3238   60.5202 H   0  0  0  0  0  0  0  0  0  0  0  0
  2  1  2  0
  3  2  1  0
  4  3  2  0
  5  4  1  0
  6  5  1  0
  7  5  2  0
  8  7  1  0
  9  8  2  0
  9  3  1  0
 10  9  1  0
 11  2  1  0
 12 11  2  0
 13 11  1  0
 14 13  2  0
 15 14  1  0
 16 15  1  0
 17 15  2  0
 18 17  1  0
 19 18  2  0
 19 13  1  0
 20 19  1  0
  4 21  1  0
  7 22  1  0
  8 23  1  0
 14 24  1  0
 17 25  1  0
 18 26  1  0
M  END
>  <score>  (5) 
-9.446

$$$$
=
     RDKit          3D

 26 27  0  0  0  0  0  0  0  0999 V2000
    1.8810   66.5820   66.3300 O   0  0  0  0  0  0  0  0  0  0  0  0
    1.3660   67.6830   66.4900 C   0  0  0  0  0  0  0  0  0  0  0  0
   -0.0980   67.8690   66.4420 C   0  0  0  0  0  0  0  0  0  0  0  0
   -0.8870   67.2440   67.4170 C   0  0  0  0  0  0  0  0  0  0  0  0
   -2.2680   67.4060   67.3840 C   0  0  0  0  0  0  0  0  0  0  0  0
   -3.0230   66.8050   68.3120 F   0  0  0  0  0  0  0  0  0  0  0  0
   -2.8800   68.1830   66.4050 C   0  0  0  0  0  0  0  0  0  0  0  0
   -2.0950   68.8170   65.4430 C   0  0  0  0  0  0  0  0  0  0  0  0
   -0.7100   68.6590   65.4680 C   0  0  0  0  0  0  0  0  0  0  0  0
    0.0160   69.3180   64.5540 F   0  0  0  0  0  0  0  0  0  0  0  0
    2.2740   68.8670   66.6980 C   0  0  0  0  0  0  0  0  0  0  0  0
    2.0270   69.6260   67.6290 O   0  0  0  0  0  0  0  0  0  0  0  0
    3.3980   69.1140   65.7730 C   0  0  0  0  0  0  0  0  0  0  0  0
    3.1850   68.9530   64.3980 C   0  0  0  0  0  0  0  0  0  0  0  0
    4.2330   69.1800   63.5130 C   0  0  0  0  0  0  0  0  0  0  0  0
    4.0330   69.0200   62.1990 F   0  0  0  0  0  0  0  0  0  0  0  0
    5.4900   69.5710   63.9690 C   0  0  0  0  0  0  0  0  0  0  0  0
    5.6990   69.7450   65.3360 C   0  0  0  0  0  0  0  0  0  0  0  0
    4.6520   69.5200   66.2310 C   0  0  0  0  0  0  0  0  0  0  0  0
    4.8780   69.7380   67.5330 F   0  0  0  0  0  0  0  0  0  0  0  0
   -0.4185   66.6310   68.2011 H   0  0  0  0  0  0  0  0  0  0  0  0
   -3.9741   68.2960   66.3903 H   0  0  0  0  0  0  0  0  0  0  0  0
   -2.5662   69.4391   64.6678 H   0  0  0  0  0  0  0  0  0  0  0  0
    2.1970   68.6495   64.0216 H   0  0  0  0  0  0  0  0  0  0  0  0
    6.3105   69.7409   63.2563 H   0  0  0  0  0  0  0  0  0  0  0  0
    6.6855   70.0585   65.7081 H   0  0  0  0  0  0  0  0  0  0  0  0
  2  1  2  0
  3  2  1  0
  4  3  2  0
  5  4  1  0
  6  5  1  0
  7  5  2  0
  8  7  1  0
  9  8  2  0
  9  3  1  0
 10  9  1  0
 11  2  1  0
 12 11  2  0
 13 11  1  0
 14 13  2  0
 15 14  1  0
 16 15  1  0
 17 15  2  0
 18 17  1  0
 19 18  2  0
 19 13  1  0
 20 19  1  0
  4 21  1  0
  7 22  1  0
  8 23  1  0
 14 24  1  0
 17 25  1  0
 18 26  1  0
M  END
>  <score>  (6) 
-9.434

$$$$
=
     RDKit          3D

 26 27  0  0  0  0  0  0  0  0999 V2000
    4.9800   69.4240   62.9740 O   0  0  0  0  0  0  0  0  0  0  0  0
    4.2960   68.8890   63.8400 C   0  0  0  0  0  0  0  0  0  0  0  0
    4.3840   69.2910   65.2570 C   0  0  0  0  0  0  0  0  0  0  0  0
    5.6460   69.5590   65.8030 C   0  0  0  0  0  0  0  0  0  0  0  0
    5.7470   69.9350   67.1380 C   0  0  0  0  0  0  0  0  0  0  0  0
    6.9540   70.1860   67.6610 F   0  0  0  0  0  0  0  0  0  0  0  0
    4.6170   70.0570   67.9400 C   0  0  0  0  0  0  0  0  0  0  0  0
    3.3590   69.8040   67.3950 C   0  0  0  0  0  0  0  0  0  0  0  0
    3.2480   69.4250   66.0580 C   0  0  0  0  0  0  0  0  0  0  0  0
    2.0210   69.2330   65.5560 F   0  0  0  0  0  0  0  0  0  0  0  0
    3.3780   67.7690   63.4250 C   0  0  0  0  0  0  0  0  0  0  0  0
    2.4430   68.0360   62.6780 O   0  0  0  0  0  0  0  0  0  0  0  0
    3.5890   66.4030   63.9470 C   0  0  0  0  0  0  0  0  0  0  0  0
    4.6460   65.6420   63.4310 C   0  0  0  0  0  0  0  0  0  0  0  0
    4.8570   64.3540   63.9110 C   0  0  0  0  0  0  0  0  0  0  0  0
    5.8630   63.6230   63.4140 F   0  0  0  0  0  0  0  0  0  0  0  0
    4.0420   63.8100   64.9000 C   0  0  0  0  0  0  0  0  0  0  0  0
    2.9980   64.5720   65.4230 C   0  0  0  0  0  0  0  0  0  0  0  0
    2.7790   65.8650   64.9480 C   0  0  0  0  0  0  0  0  0  0  0  0
    1.7940   66.5830   65.5050 F   0  0  0  0  0  0  0  0  0  0  0  0
    6.5492   69.4728   65.1811 H   0  0  0  0  0  0  0  0  0  0  0  0
    4.7152   70.3507   68.9955 H   0  0  0  0  0  0  0  0  0  0  0  0
    2.4575   69.9030   68.0175 H   0  0  0  0  0  0  0  0  0  0  0  0
    5.3028   66.0593   62.6535 H   0  0  0  0  0  0  0  0  0  0  0  0
    4.2201   62.7879   65.2656 H   0  0  0  0  0  0  0  0  0  0  0  0
    2.3494   64.1549   66.2074 H   0  0  0  0  0  0  0  0  0  0  0  0
  2  1  2  0
  3  2  1  0
  4  3  2  0
  5  4  1  0
  6  5  1  0
  7  5  2  0
  8  7  1  0
  9  8  2  0
  9  3  1  0
 10  9  1  0
 11  2  1  0
 12 11  2  0
 13 11  1  0
 14 13  2  0
 15 14  1  0
 16 15  1  0
 17 15  2  0
 18 17  1  0
 19 18  2  0
 19 13  1  0
 20 19  1  0
  4 21  1  0
  7 22  1  0
  8 23  1  0
 14 24  1  0
 17 25  1  0
 18 26  1  0
M  END
>  <score>  (7) 
-9.387

$$$$
=
     RDKit          3D

 26 27  0  0  0  0  0  0  0  0999 V2000
    2.2860   66.5120   65.8140 O   0  0  0  0  0  0  0  0  0  0  0  0
    2.2800   67.6700   65.4120 C   0  0  0  0  0  0  0  0  0  0  0  0
    2.5550   68.0030   64.0000 C   0  0  0  0  0  0  0  0  0  0  0  0
    1.5670   68.6660   63.2600 C   0  0  0  0  0  0  0  0  0  0  0  0
    1.8090   68.9830   61.9290 C   0  0  0  0  0  0  0  0  0  0  0  0
    0.8620   69.6120   61.2200 F   0  0  0  0  0  0  0  0  0  0  0  0
    3.0170   68.6620   61.3190 C   0  0  0  0  0  0  0  0  0  0  0  0
    4.0070   68.0150   62.0570 C   0  0  0  0  0  0  0  0  0  0  0  0
    3.7730   67.6920   63.3930 C   0  0  0  0  0  0  0  0  0  0  0  0
    4.7620   67.1100   64.0840 F   0  0  0  0  0  0  0  0  0  0  0  0
    2.0240   68.7660   66.4130 C   0  0  0  0  0  0  0  0  0  0  0  0
    0.8630   69.1140   66.6010 O   0  0  0  0  0  0  0  0  0  0  0  0
    3.1520   69.4190   67.1070 C   0  0  0  0  0  0  0  0  0  0  0  0
    4.4030   69.4490   66.4770 C   0  0  0  0  0  0  0  0  0  0  0  0
    5.4760   70.0580   67.1160 C   0  0  0  0  0  0  0  0  0  0  0  0
    6.6730   70.0820   66.5180 F   0  0  0  0  0  0  0  0  0  0  0  0
    5.3290   70.6460   68.3700 C   0  0  0  0  0  0  0  0  0  0  0  0
    4.0810   70.6290   68.9930 C   0  0  0  0  0  0  0  0  0  0  0  0
    2.9990   70.0200   68.3580 C   0  0  0  0  0  0  0  0  0  0  0  0
    1.8060   70.0600   68.9660 F   0  0  0  0  0  0  0  0  0  0  0  0
    0.6083   68.9331   63.7286 H   0  0  0  0  0  0  0  0  0  0  0  0
    3.1898   68.9166   60.2629 H   0  0  0  0  0  0  0  0  0  0  0  0
    4.9686   67.7604   61.5874 H   0  0  0  0  0  0  0  0  0  0  0  0
    4.5347   68.9940   65.4842 H   0  0  0  0  0  0  0  0  0  0  0  0
    6.1896   71.1197   68.8649 H   0  0  0  0  0  0  0  0  0  0  0  0
    3.9508   71.0941   69.9813 H   0  0  0  0  0  0  0  0  0  0  0  0
  2  1  2  0
  3  2  1  0
  4  3  2  0
  5  4  1  0
  6  5  1  0
  7  5  2  0
  8  7  1  0
  9  8  2  0
  9  3  1  0
 10  9  1  0
 11  2  1  0
 12 11  2  0
 13 11  1  0
 14 13  2  0
 15 14  1  0
 16 15  1  0
 17 15  2  0
 18 17  1  0
 19 18  2  0
 19 13  1  0
 20 19  1  0
  4 21  1  0
  7 22  1  0
  8 23  1  0
 14 24  1  0
 17 25  1  0
 18 26  1  0
M  END
>  <score>  (8) 
-9.258

$$$$
=
     RDKit          3D

 26 27  0  0  0  0  0  0  0  0999 V2000
    2.5750   68.9170   65.6660 O   0  0  0  0  0  0  0  0  0  0  0  0
    2.8120   69.4380   66.7510 C   0  0  0  0  0  0  0  0  0  0  0  0
    4.1790   69.8410   67.1350 C   0  0  0  0  0  0  0  0  0  0  0  0
    4.4400   70.1370   68.4790 C   0  0  0  0  0  0  0  0  0  0  0  0
    5.7220   70.5220   68.8570 C   0  0  0  0  0  0  0  0  0  0  0  0
    5.9710   70.8100   70.1420 F   0  0  0  0  0  0  0  0  0  0  0  0
    6.7520   70.6110   67.9260 C   0  0  0  0  0  0  0  0  0  0  0  0
    6.4970   70.3030   66.5900 C   0  0  0  0  0  0  0  0  0  0  0  0
    5.2140   69.9180   66.2020 C   0  0  0  0  0  0  0  0  0  0  0  0
    5.0160   69.5880   64.9190 F   0  0  0  0  0  0  0  0  0  0  0  0
    1.6680   69.6230   67.7130 C   0  0  0  0  0  0  0  0  0  0  0  0
    1.6010   70.6790   68.3330 O   0  0  0  0  0  0  0  0  0  0  0  0
    0.6890   68.5380   67.9220 C   0  0  0  0  0  0  0  0  0  0  0  0
    0.9660   67.5570   68.8820 C   0  0  0  0  0  0  0  0  0  0  0  0
    0.0550   66.5270   69.0900 C   0  0  0  0  0  0  0  0  0  0  0  0
    0.3220   65.5860   70.0040 F   0  0  0  0  0  0  0  0  0  0  0  0
   -1.1320   66.4570   68.3650 C   0  0  0  0  0  0  0  0  0  0  0  0
   -1.4150   67.4400   67.4180 C   0  0  0  0  0  0  0  0  0  0  0  0
   -0.5070   68.4770   67.2030 C   0  0  0  0  0  0  0  0  0  0  0  0
   -0.8330   69.4270   66.3170 F   0  0  0  0  0  0  0  0  0  0  0  0
    3.6383   70.0656   69.2288 H   0  0  0  0  0  0  0  0  0  0  0  0
    7.7591   70.9217   68.2411 H   0  0  0  0  0  0  0  0  0  0  0  0
    7.3044   70.3635   65.8454 H   0  0  0  0  0  0  0  0  0  0  0  0
    1.8966   67.6007   69.4669 H   0  0  0  0  0  0  0  0  0  0  0  0
   -1.8401   65.6332   68.5381 H   0  0  0  0  0  0  0  0  0  0  0  0
   -2.3513   67.3981   66.8421 H   0  0  0  0  0  0  0  0  0  0  0  0
  2  1  2  0
  3  2  1  0
  4  3  2  0
  5  4  1  0
  6  5  1  0
  7  5  2  0
  8  7  1  0
  9  8  2  0
  9  3  1  0
 10  9  1  0
 11  2  1  0
 12 11  2  0
 13 11  1  0
 14 13  2  0
 15 14  1  0
 16 15  1  0
 17 15  2  0
 18 17  1  0
 19 18  2  0
 19 13  1  0
 20 19  1  0
  4 21  1  0
  7 22  1  0
  8 23  1  0
 14 24  1  0
 17 25  1  0
 18 26  1  0
M  END
>  <score>  (9) 
-8.744

$$$$
