=
     RDKit          3D

 43 44  0  0  0  0  0  0  0  0999 V2000
    4.7610   69.2570   63.8230 C   0  0  2  0  0  0  0  0  0  0  0  0
    0.3270   68.4540   64.8880 C   0  0  0  0  0  0  0  0  0  0  0  0
    1.8540   68.4620   64.7780 C   0  0  1  0  0  0  0  0  0  0  0  0
    2.4540   67.1350   65.2800 C   0  0  0  0  0  0  0  0  0  0  0  0
    2.9050   66.2160   64.1420 C   0  0  2  0  0  0  0  0  0  0  0  0
    3.4650   64.9100   64.7000 C   0  0  0  0  0  0  0  0  0  0  0  0
    3.9440   66.9390   63.2840 C   0  0  0  0  0  0  0  0  0  0  0  0
    4.9080   66.3490   62.7940 O   0  0  0  0  0  0  0  0  0  0  0  0
    3.7390   68.4270   63.0290 C   0  0  1  0  0  0  0  0  0  0  0  0
    2.2740   68.7860   63.3360 C   0  0  0  0  0  0  0  0  0  0  0  0
    6.0080   69.2640   63.1250 O   0  0  0  0  0  0  0  0  0  0  0  0
    5.0070   68.8450   65.2900 C   0  0  0  0  0  0  0  0  0  0  0  0
    4.8930   69.8800   66.4340 C   0  0  0  0  0  0  0  0  0  0  0  0
    3.8430   69.5180   67.4890 C   0  0  0  0  0  0  0  0  0  0  0  0
    3.6670   70.6460   68.4790 C   0  0  0  0  0  0  0  0  0  0  0  0
    2.6080   70.8560   69.0630 O   0  0  0  0  0  0  0  0  0  0  0  0
    4.7780   71.4070   68.7420 N   0  0  0  0  0  0  0  0  0  0  0  0
    6.0060   71.3420   68.1320 C   0  0  0  0  0  0  0  0  0  0  0  0
    6.9000   72.1310   68.4230 O   0  0  0  0  0  0  0  0  0  0  0  0
    6.2040   70.2240   67.1360 C   0  0  0  0  0  0  0  0  0  0  0  0
    4.3038   70.2552   63.8907 H   0  0  0  0  0  0  0  0  0  0  0  0
    0.0358   68.4525   65.9488 H   0  0  0  0  0  0  0  0  0  0  0  0
   -0.0807   69.3500   64.3971 H   0  0  0  0  0  0  0  0  0  0  0  0
   -0.0713   67.5538   64.3971 H   0  0  0  0  0  0  0  0  0  0  0  0
    2.2569   69.2517   65.4292 H   0  0  0  0  0  0  0  0  0  0  0  0
    3.3239   67.3610   65.9142 H   0  0  0  0  0  0  0  0  0  0  0  0
    1.6664   66.6071   65.8377 H   0  0  0  0  0  0  0  0  0  0  0  0
    2.0395   65.9653   63.5111 H   0  0  0  0  0  0  0  0  0  0  0  0
    3.4501   64.9447   65.7994 H   0  0  0  0  0  0  0  0  0  0  0  0
    2.8487   64.0682   64.3514 H   0  0  0  0  0  0  0  0  0  0  0  0
    4.4997   64.7761   64.3514 H   0  0  0  0  0  0  0  0  0  0  0  0
    3.9215   68.6707   61.9720 H   0  0  0  0  0  0  0  0  0  0  0  0
    2.1368   69.8643   63.1671 H   0  0  0  0  0  0  0  0  0  0  0  0
    1.6448   68.1767   62.6706 H   0  0  0  0  0  0  0  0  0  0  0  0
    6.7518   69.2682   63.7783 H   0  0  0  0  0  0  0  0  0  0  0  0
    4.2853   68.0464   65.5166 H   0  0  0  0  0  0  0  0  0  0  0  0
    6.0775   68.5922   65.2959 H   0  0  0  0  0  0  0  0  0  0  0  0
    4.5659   70.7800   65.8926 H   0  0  0  0  0  0  0  0  0  0  0  0
    2.8824   69.3229   66.9898 H   0  0  0  0  0  0  0  0  0  0  0  0
    4.1813   68.6225   68.0308 H   0  0  0  0  0  0  0  0  0  0  0  0
    4.6786   72.1117   69.4866 H   0  0  0  0  0  0  0  0  0  0  0  0
    6.5742   69.3329   67.6640 H   0  0  0  0  0  0  0  0  0  0  0  0
    6.9316   70.5528   66.3793 H   0  0  0  0  0  0  0  0  0  0  0  0
  3  2  1  0
  4  3  1  0
  5  4  1  0
  6  5  1  0
  7  5  1  0
  8  7  2  0
  9  7  1  0
  9  1  1  0
 10  9  1  0
 10  3  1  0
 11  1  1  0
 12  1  1  0
 13 12  1  0
 14 13  1  0
 15 14  1  0
 16 15  2  0
 17 15  1  0
 18 17  1  0
 19 18  2  0
 20 13  1  0
 20 18  1  0
  1 21  1  1
  2 22  1  0
  2 23  1  0
  2 24  1  0
  3 25  1  1
  4 26  1  0
  4 27  1  0
  5 28  1  6
  6 29  1  0
  6 30  1  0
  6 31  1  0
  9 32  1  6
 10 33  1  0
 10 34  1  0
 11 35  1  0
 12 36  1  0
 12 37  1  0
 13 38  1  0
 14 39  1  0
 14 40  1  0
 17 41  1  0
 20 42  1  0
 20 43  1  0
M  END
>  <score>  (1) 
-9.428

$$$$
=
     RDKit          3D

 43 44  0  0  0  0  0  0  0  0999 V2000
    1.9010   67.2390   66.0610 C   0  0  2  0  0  0  0  0  0  0  0  0
    4.8650   64.3370   64.0050 C   0  0  0  0  0  0  0  0  0  0  0  0
    4.1260   65.5440   64.5880 C   0  0  1  0  0  0  0  0  0  0  0  0
    4.5890   66.8540   63.9210 C   0  0  0  0  0  0  0  0  0  0  0  0
    3.5790   67.3950   62.9060 C   0  0  2  0  0  0  0  0  0  0  0  0
    4.1040   68.6760   62.2620 C   0  0  0  0  0  0  0  0  0  0  0  0
    2.2380   67.6350   63.5990 C   0  0  0  0  0  0  0  0  0  0  0  0
    1.5210   68.5950   63.3120 O   0  0  0  0  0  0  0  0  0  0  0  0
    1.7950   66.6290   64.6540 C   0  0  1  0  0  0  0  0  0  0  0  0
    2.6080   65.3340   64.4750 C   0  0  0  0  0  0  0  0  0  0  0  0
    0.6900   66.9880   66.7770 O   0  0  0  0  0  0  0  0  0  0  0  0
    2.2330   68.7450   66.1470 C   0  0  0  0  0  0  0  0  0  0  0  0
    3.3630   69.2550   67.0730 C   0  0  0  0  0  0  0  0  0  0  0  0
    4.5900   69.7730   66.3170 C   0  0  0  0  0  0  0  0  0  0  0  0
    5.7120   70.0980   67.2770 C   0  0  0  0  0  0  0  0  0  0  0  0
    6.8960   70.0220   66.9620 O   0  0  0  0  0  0  0  0  0  0  0  0
    5.3420   70.5400   68.5220 N   0  0  0  0  0  0  0  0  0  0  0  0
    4.0760   70.6180   69.0450 C   0  0  0  0  0  0  0  0  0  0  0  0
    3.8910   70.9760   70.2050 O   0  0  0  0  0  0  0  0  0  0  0  0
    2.9380   70.2970   68.1060 C   0  0  0  0  0  0  0  0  0  0  0  0
    2.7732   66.7384   66.5069 H   0  0  0  0  0  0  0  0  0  0  0  0
    5.2483   63.7110   64.8243 H   0  0  0  0  0  0  0  0  0  0  0  0
    4.1729   63.7473   63.3859 H   0  0  0  0  0  0  0  0  0  0  0  0
    5.7049   64.6853   63.3859 H   0  0  0  0  0  0  0  0  0  0  0  0
    4.3724   65.6346   65.6562 H   0  0  0  0  0  0  0  0  0  0  0  0
    4.7403   67.6120   64.7037 H   0  0  0  0  0  0  0  0  0  0  0  0
    5.5197   66.6362   63.3766 H   0  0  0  0  0  0  0  0  0  0  0  0
    3.4335   66.6547   62.1056 H   0  0  0  0  0  0  0  0  0  0  0  0
    4.3960   69.3884   63.0477 H   0  0  0  0  0  0  0  0  0  0  0  0
    4.9782   68.4407   61.6372 H   0  0  0  0  0  0  0  0  0  0  0  0
    3.3161   69.1218   61.6372 H   0  0  0  0  0  0  0  0  0  0  0  0
    0.7334   66.3708   64.5265 H   0  0  0  0  0  0  0  0  0  0  0  0
    2.2968   64.6175   65.2494 H   0  0  0  0  0  0  0  0  0  0  0  0
    2.4069   64.9630   63.4592 H   0  0  0  0  0  0  0  0  0  0  0  0
    0.8683   67.0250   67.7501 H   0  0  0  0  0  0  0  0  0  0  0  0
    2.4926   69.0678   65.1280 H   0  0  0  0  0  0  0  0  0  0  0  0
    1.3289   69.1686   66.6087 H   0  0  0  0  0  0  0  0  0  0  0  0
    3.6369   68.3423   67.6224 H   0  0  0  0  0  0  0  0  0  0  0  0
    4.9311   69.0016   65.6109 H   0  0  0  0  0  0  0  0  0  0  0  0
    4.3110   70.6893   65.7762 H   0  0  0  0  0  0  0  0  0  0  0  0
    6.1067   70.8507   69.1382 H   0  0  0  0  0  0  0  0  0  0  0  0
    2.6301   71.2158   67.5855 H   0  0  0  0  0  0  0  0  0  0  0  0
    2.1014   69.8901   68.6929 H   0  0  0  0  0  0  0  0  0  0  0  0
  3  2  1  0
  4  3  1  0
  5  4  1  0
  6  5  1  0
  7  5  1  0
  8  7  2  0
  9  7  1  0
  9  1  1  0
 10  9  1  0
 10  3  1  0
 11  1  1  0
 12  1  1  0
 13 12  1  0
 14 13  1  0
 15 14  1  0
 16 15  2  0
 17 15  1  0
 18 17  1  0
 19 18  2  0
 20 13  1  0
 20 18  1  0
  1 21  1  1
  2 22  1  0
  2 23  1  0
  2 24  1  0
  3 25  1  1
  4 26  1  0
  4 27  1  0
  5 28  1  6
  6 29  1  0
  6 30  1  0
  6 31  1  0
  9 32  1  6
 10 33  1  0
 10 34  1  0
 11 35  1  0
 12 36  1  0
 12 37  1  0
 13 38  1  0
 14 39  1  0
 14 40  1  0
 17 41  1  0
 20 42  1  0
 20 43  1  0
M  END
>  <score>  (2) 
-9.22

$$$$
=
     RDKit          3D

 43 44  0  0  0  0  0  0  0  0999 V2000
    1.0000   68.6540   65.4430 C   0  0  2  0  0  0  0  0  0  0  0  0
    1.2220   66.9350   69.7370 C   0  0  0  0  0  0  0  0  0  0  0  0
    0.9100   67.2390   68.2700 C   0  0  1  0  0  0  0  0  0  0  0  0
   -0.4510   66.6480   67.8560 C   0  0  0  0  0  0  0  0  0  0  0  0
   -1.5560   67.7040   67.7600 C   0  0  2  0  0  0  0  0  0  0  0  0
   -2.8820   67.0550   67.3730 C   0  0  0  0  0  0  0  0  0  0  0  0
   -1.1500   68.7750   66.7470 C   0  0  0  0  0  0  0  0  0  0  0  0
   -1.9700   69.3010   65.9940 O   0  0  0  0  0  0  0  0  0  0  0  0
    0.3140   69.1950   66.7090 C   0  0  1  0  0  0  0  0  0  0  0  0
    0.9910   68.7530   68.0200 C   0  0  0  0  0  0  0  0  0  0  0  0
    0.0620   67.8790   64.6940 O   0  0  0  0  0  0  0  0  0  0  0  0
    2.2880   67.8280   65.6460 C   0  0  0  0  0  0  0  0  0  0  0  0
    3.6760   68.4330   65.3240 C   0  0  0  0  0  0  0  0  0  0  0  0
    3.7940   68.9730   63.8960 C   0  0  0  0  0  0  0  0  0  0  0  0
    5.2160   69.3940   63.5990 C   0  0  0  0  0  0  0  0  0  0  0  0
    5.6950   69.3600   62.4700 O   0  0  0  0  0  0  0  0  0  0  0  0
    5.9450   69.8730   64.6580 N   0  0  0  0  0  0  0  0  0  0  0  0
    5.5800   69.9160   65.9800 C   0  0  0  0  0  0  0  0  0  0  0  0
    6.3590   70.3170   66.8400 O   0  0  0  0  0  0  0  0  0  0  0  0
    4.1650   69.4980   66.3020 C   0  0  0  0  0  0  0  0  0  0  0  0
    1.3330   69.5558   64.9083 H   0  0  0  0  0  0  0  0  0  0  0  0
    0.5847   67.5560   70.3837 H   0  0  0  0  0  0  0  0  0  0  0  0
    1.0260   65.8720   69.9409 H   0  0  0  0  0  0  0  0  0  0  0  0
    2.2796   67.1585   69.9409 H   0  0  0  0  0  0  0  0  0  0  0  0
    1.6654   66.7534   67.6347 H   0  0  0  0  0  0  0  0  0  0  0  0
   -0.3399   66.1662   66.8734 H   0  0  0  0  0  0  0  0  0  0  0  0
   -0.7486   65.9292   68.6337 H   0  0  0  0  0  0  0  0  0  0  0  0
   -1.6920   68.1808   68.7419 H   0  0  0  0  0  0  0  0  0  0  0  0
   -3.4368   66.7835   68.2832 H   0  0  0  0  0  0  0  0  0  0  0  0
   -3.4773   67.7636   66.7784 H   0  0  0  0  0  0  0  0  0  0  0  0
   -2.6876   66.1502   66.7784 H   0  0  0  0  0  0  0  0  0  0  0  0
    0.4043   70.2894   66.6455 H   0  0  0  0  0  0  0  0  0  0  0  0
    2.0513   69.0432   67.9797 H   0  0  0  0  0  0  0  0  0  0  0  0
    0.4550   69.2467   68.8440 H   0  0  0  0  0  0  0  0  0  0  0  0
   -0.5318   67.3884   65.3159 H   0  0  0  0  0  0  0  0  0  0  0  0
    2.3107   67.5376   66.7067 H   0  0  0  0  0  0  0  0  0  0  0  0
    2.1884   67.0313   64.8941 H   0  0  0  0  0  0  0  0  0  0  0  0
    4.3365   67.5604   65.4349 H   0  0  0  0  0  0  0  0  0  0  0  0
    3.4946   68.1871   63.1870 H   0  0  0  0  0  0  0  0  0  0  0  0
    3.1373   69.8495   63.7942 H   0  0  0  0  0  0  0  0  0  0  0  0
    6.8788   70.2452   64.4336 H   0  0  0  0  0  0  0  0  0  0  0  0
    3.5062   70.3765   66.2369 H   0  0  0  0  0  0  0  0  0  0  0  0
    4.1453   69.0776   67.3183 H   0  0  0  0  0  0  0  0  0  0  0  0
  3  2  1  0
  4  3  1  0
  5  4  1  0
  6  5  1  0
  7  5  1  0
  8  7  2  0
  9  7  1  0
  9  1  1  0
 10  9  1  0
 10  3  1  0
 11  1  1  0
 12  1  1  0
 13 12  1  0
 14 13  1  0
 15 14  1  0
 16 15  2  0
 17 15  1  0
 18 17  1  0
 19 18  2  0
 20 13  1  0
 20 18  1  0
  1 21  1  6
  2 22  1  0
  2 23  1  0
  2 24  1  0
  3 25  1  6
  4 26  1  0
  4 27  1  0
  5 28  1  1
  6 29  1  0
  6 30  1  0
  6 31  1  0
  9 32  1  6
 10 33  1  0
 10 34  1  0
 11 35  1  0
 12 36  1  0
 12 37  1  0
 13 38  1  0
 14 39  1  0
 14 40  1  0
 17 41  1  0
 20 42  1  0
 20 43  1  0
M  END
>  <score>  (3) 
-9.033

$$$$
=
     RDKit          3D

 43 44  0  0  0  0  0  0  0  0999 V2000
    0.4770   67.9030   65.6200 C   0  0  2  0  0  0  0  0  0  0  0  0
    2.6580   70.4740   68.7930 C   0  0  0  0  0  0  0  0  0  0  0  0
    2.1120   69.3540   67.9030 C   0  0  1  0  0  0  0  0  0  0  0  0
    2.2290   67.9850   68.5990 C   0  0  0  0  0  0  0  0  0  0  0  0
    0.8930   67.4790   69.1480 C   0  0  2  0  0  0  0  0  0  0  0  0
    1.0770   66.1340   69.8460 C   0  0  0  0  0  0  0  0  0  0  0  0
   -0.1200   67.3740   68.0070 C   0  0  0  0  0  0  0  0  0  0  0  0
   -0.9450   66.4600   67.9510 O   0  0  0  0  0  0  0  0  0  0  0  0
   -0.0950   68.4570   66.9350 C   0  0  1  0  0  0  0  0  0  0  0  0
    0.6700   69.6760   67.4810 C   0  0  0  0  0  0  0  0  0  0  0  0
    0.7370   66.5060   65.7690 O   0  0  0  0  0  0  0  0  0  0  0  0
    1.7400   68.5940   65.0610 C   0  0  0  0  0  0  0  0  0  0  0  0
    2.4710   68.0260   63.8220 C   0  0  0  0  0  0  0  0  0  0  0  0
    2.8270   69.0880   62.7770 C   0  0  0  0  0  0  0  0  0  0  0  0
    3.3850   68.4440   61.5280 C   0  0  0  0  0  0  0  0  0  0  0  0
    3.2630   68.9440   60.4140 O   0  0  0  0  0  0  0  0  0  0  0  0
    4.0930   67.2820   61.7040 N   0  0  0  0  0  0  0  0  0  0  0  0
    4.2640   66.5680   62.8630 C   0  0  0  0  0  0  0  0  0  0  0  0
    4.8740   65.5030   62.8670 O   0  0  0  0  0  0  0  0  0  0  0  0
    3.7130   67.1900   64.1250 C   0  0  0  0  0  0  0  0  0  0  0  0
   -0.3047   68.1147   64.8756 H   0  0  0  0  0  0  0  0  0  0  0  0
    2.5246   70.2004   69.8500 H   0  0  0  0  0  0  0  0  0  0  0  0
    3.7281   70.6195   68.5842 H   0  0  0  0  0  0  0  0  0  0  0  0
    2.1135   71.4067   68.5842 H   0  0  0  0  0  0  0  0  0  0  0  0
    2.7214   69.2912   66.9894 H   0  0  0  0  0  0  0  0  0  0  0  0
    2.6092   67.2529   67.8714 H   0  0  0  0  0  0  0  0  0  0  0  0
    2.9117   68.1065   69.4529 H   0  0  0  0  0  0  0  0  0  0  0  0
    0.5116   68.1921   69.8937 H   0  0  0  0  0  0  0  0  0  0  0  0
    1.0569   66.2808   70.9360 H   0  0  0  0  0  0  0  0  0  0  0  0
    0.2635   65.4543   69.5525 H   0  0  0  0  0  0  0  0  0  0  0  0
    2.0432   65.6977   69.5525 H   0  0  0  0  0  0  0  0  0  0  0  0
   -1.1147   68.7907   66.6926 H   0  0  0  0  0  0  0  0  0  0  0  0
    0.7002   70.4478   66.6978 H   0  0  0  0  0  0  0  0  0  0  0  0
    0.1372   70.0167   68.3810 H   0  0  0  0  0  0  0  0  0  0  0  0
    0.7792   66.2790   66.7317 H   0  0  0  0  0  0  0  0  0  0  0  0
    1.4481   69.6240   64.8081 H   0  0  0  0  0  0  0  0  0  0  0  0
    2.4749   68.4475   65.8663 H   0  0  0  0  0  0  0  0  0  0  0  0
    1.7136   67.3475   63.4025 H   0  0  0  0  0  0  0  0  0  0  0  0
    1.9216   69.6559   62.5166 H   0  0  0  0  0  0  0  0  0  0  0  0
    3.5899   69.7581   63.2000 H   0  0  0  0  0  0  0  0  0  0  0  0
    4.5515   66.8995   60.8647 H   0  0  0  0  0  0  0  0  0  0  0  0
    4.4818   67.8363   64.5736 H   0  0  0  0  0  0  0  0  0  0  0  0
    3.4343   66.3853   64.8213 H   0  0  0  0  0  0  0  0  0  0  0  0
  3  2  1  0
  4  3  1  0
  5  4  1  0
  6  5  1  0
  7  5  1  0
  8  7  2  0
  9  7  1  0
  9  1  1  0
 10  9  1  0
 10  3  1  0
 11  1  1  0
 12  1  1  0
 13 12  1  0
 14 13  1  0
 15 14  1  0
 16 15  2  0
 17 15  1  0
 18 17  1  0
 19 18  2  0
 20 13  1  0
 20 18  1  0
  1 21  1  6
  2 22  1  0
  2 23  1  0
  2 24  1  0
  3 25  1  6
  4 26  1  0
  4 27  1  0
  5 28  1  1
  6 29  1  0
  6 30  1  0
  6 31  1  0
  9 32  1  6
 10 33  1  0
 10 34  1  0
 11 35  1  0
 12 36  1  0
 12 37  1  0
 13 38  1  0
 14 39  1  0
 14 40  1  0
 17 41  1  0
 20 42  1  0
 20 43  1  0
M  END
>  <score>  (4) 
-8.544

$$$$
=
     RDKit          3D

 43 44  0  0  0  0  0  0  0  0999 V2000
    0.3910   67.9090   65.7290 C   0  0  2  0  0  0  0  0  0  0  0  0
    2.6490   70.4870   68.8430 C   0  0  0  0  0  0  0  0  0  0  0  0
    2.0830   69.3660   67.9680 C   0  0  1  0  0  0  0  0  0  0  0  0
    2.2240   67.9960   68.6590 C   0  0  0  0  0  0  0  0  0  0  0  0
    0.9040   67.4860   69.2440 C   0  0  2  0  0  0  0  0  0  0  0  0
    1.1120   66.1410   69.9360 C   0  0  0  0  0  0  0  0  0  0  0  0
   -0.1390   67.3770   68.1310 C   0  0  0  0  0  0  0  0  0  0  0  0
   -0.9620   66.4610   68.0980 O   0  0  0  0  0  0  0  0  0  0  0  0
   -0.1470   68.4610   67.0600 C   0  0  1  0  0  0  0  0  0  0  0  0
    0.6290   69.6830   67.5850 C   0  0  0  0  0  0  0  0  0  0  0  0
    0.7750   66.5440   65.9040 O   0  0  0  0  0  0  0  0  0  0  0  0
    1.5570   68.6800   65.0730 C   0  0  0  0  0  0  0  0  0  0  0  0
    1.4860   69.1120   63.5890 C   0  0  0  0  0  0  0  0  0  0  0  0
    2.4680   68.3630   62.6840 C   0  0  0  0  0  0  0  0  0  0  0  0
    2.4630   68.9470   61.2890 C   0  0  0  0  0  0  0  0  0  0  0  0
    3.4470   68.9180   60.5560 O   0  0  0  0  0  0  0  0  0  0  0  0
    1.2740   69.4730   60.8520 N   0  0  0  0  0  0  0  0  0  0  0  0
    0.1130   69.6360   61.5650 C   0  0  0  0  0  0  0  0  0  0  0  0
   -0.8650   70.1820   61.0640 O   0  0  0  0  0  0  0  0  0  0  0  0
    0.0950   69.0630   62.9620 C   0  0  0  0  0  0  0  0  0  0  0  0
   -0.4481   68.0300   65.0281 H   0  0  0  0  0  0  0  0  0  0  0  0
    2.5174   70.2263   69.9035 H   0  0  0  0  0  0  0  0  0  0  0  0
    3.7200   70.6154   68.6272 H   0  0  0  0  0  0  0  0  0  0  0  0
    2.1165   71.4250   68.6272 H   0  0  0  0  0  0  0  0  0  0  0  0
    2.6678   69.3062   67.0383 H   0  0  0  0  0  0  0  0  0  0  0  0
    2.5861   67.2658   67.9203 H   0  0  0  0  0  0  0  0  0  0  0  0
    2.9301   68.1179   69.4936 H   0  0  0  0  0  0  0  0  0  0  0  0
    0.5403   68.1982   69.9993 H   0  0  0  0  0  0  0  0  0  0  0  0
    1.0901   66.2825   71.0266 H   0  0  0  0  0  0  0  0  0  0  0  0
    0.3103   65.4485   69.6400 H   0  0  0  0  0  0  0  0  0  0  0  0
    2.0855   65.7230   69.6400 H   0  0  0  0  0  0  0  0  0  0  0  0
   -1.1742   68.7918   66.8467 H   0  0  0  0  0  0  0  0  0  0  0  0
    0.6355   70.4547   66.8011 H   0  0  0  0  0  0  0  0  0  0  0  0
    0.1196   70.0221   68.4991 H   0  0  0  0  0  0  0  0  0  0  0  0
    0.8327   66.3388   66.8708 H   0  0  0  0  0  0  0  0  0  0  0  0
    1.6953   69.5993   65.6610 H   0  0  0  0  0  0  0  0  0  0  0  0
    2.3699   67.9389   65.0727 H   0  0  0  0  0  0  0  0  0  0  0  0
    1.7820   70.1699   63.6454 H   0  0  0  0  0  0  0  0  0  0  0  0
    3.4808   68.4439   63.1055 H   0  0  0  0  0  0  0  0  0  0  0  0
    2.1611   67.3082   62.6264 H   0  0  0  0  0  0  0  0  0  0  0  0
    1.2497   69.7831   59.8701 H   0  0  0  0  0  0  0  0  0  0  0  0
   -0.2435   68.0173   62.9180 H   0  0  0  0  0  0  0  0  0  0  0  0
   -0.5899   69.6630   63.5791 H   0  0  0  0  0  0  0  0  0  0  0  0
  3  2  1  0
  4  3  1  0
  5  4  1  0
  6  5  1  0
  7  5  1  0
  8  7  2  0
  9  7  1  0
  9  1  1  0
 10  9  1  0
 10  3  1  0
 11  1  1  0
 12  1  1  0
 13 12  1  0
 14 13  1  0
 15 14  1  0
 16 15  2  0
 17 15  1  0
 18 17  1  0
 19 18  2  0
 20 13  1  0
 20 18  1  0
  1 21  1  6
  2 22  1  0
  2 23  1  0
  2 24  1  0
  3 25  1  6
  4 26  1  0
  4 27  1  0
  5 28  1  1
  6 29  1  0
  6 30  1  0
  6 31  1  0
  9 32  1  6
 10 33  1  0
 10 34  1  0
 11 35  1  0
 12 36  1  0
 12 37  1  0
 13 38  1  0
 14 39  1  0
 14 40  1  0
 17 41  1  0
 20 42  1  0
 20 43  1  0
M  END
>  <score>  (5) 
-8.515

$$$$
=
     RDKit          3D

 43 44  0  0  0  0  0  0  0  0999 V2000
    1.3010   68.7510   65.7340 C   0  0  2  0  0  0  0  0  0  0  0  0
    1.2080   66.7700   69.9170 C   0  0  0  0  0  0  0  0  0  0  0  0
    0.9980   67.1700   68.4550 C   0  0  1  0  0  0  0  0  0  0  0  0
   -0.3450   66.6380   67.9200 C   0  0  0  0  0  0  0  0  0  0  0  0
   -1.4190   67.7250   67.8190 C   0  0  2  0  0  0  0  0  0  0  0  0
   -2.7300   67.1340   67.3090 C   0  0  0  0  0  0  0  0  0  0  0  0
   -0.9260   68.8460   66.9030 C   0  0  0  0  0  0  0  0  0  0  0  0
   -1.6840   69.4370   66.1330 O   0  0  0  0  0  0  0  0  0  0  0  0
    0.5460   69.2310   66.9850 C   0  0  1  0  0  0  0  0  0  0  0  0
    1.1270   68.6940   68.3060 C   0  0  0  0  0  0  0  0  0  0  0  0
    0.4290   67.9500   64.9350 O   0  0  0  0  0  0  0  0  0  0  0  0
    2.6200   67.9830   65.9660 C   0  0  0  0  0  0  0  0  0  0  0  0
    3.5280   67.5890   64.7760 C   0  0  0  0  0  0  0  0  0  0  0  0
    3.1790   66.2310   64.1610 C   0  0  0  0  0  0  0  0  0  0  0  0
    4.2030   65.8360   63.1210 C   0  0  0  0  0  0  0  0  0  0  0  0
    4.4730   64.6660   62.8680 O   0  0  0  0  0  0  0  0  0  0  0  0
    4.7900   66.8600   62.4220 N   0  0  0  0  0  0  0  0  0  0  0  0
    4.6450   68.2100   62.6260 C   0  0  0  0  0  0  0  0  0  0  0  0
    5.2820   69.0220   61.9630 O   0  0  0  0  0  0  0  0  0  0  0  0
    3.6300   68.6290   63.6620 C   0  0  0  0  0  0  0  0  0  0  0  0
    1.6084   69.6796   65.2308 H   0  0  0  0  0  0  0  0  0  0  0  0
    0.7977   67.5515   70.5735 H   0  0  0  0  0  0  0  0  0  0  0  0
    0.6934   65.8180   70.1142 H   0  0  0  0  0  0  0  0  0  0  0  0
    2.2838   66.6530   70.1142 H   0  0  0  0  0  0  0  0  0  0  0  0
    1.7823   66.7060   67.8389 H   0  0  0  0  0  0  0  0  0  0  0  0
   -0.1804   66.2131   66.9188 H   0  0  0  0  0  0  0  0  0  0  0  0
   -0.7072   65.8812   68.6314 H   0  0  0  0  0  0  0  0  0  0  0  0
   -1.6085   68.1445   68.8181 H   0  0  0  0  0  0  0  0  0  0  0  0
   -3.3611   66.8495   68.1639 H   0  0  0  0  0  0  0  0  0  0  0  0
   -3.2561   67.8820   66.6977 H   0  0  0  0  0  0  0  0  0  0  0  0
   -2.5179   66.2444   66.6977 H   0  0  0  0  0  0  0  0  0  0  0  0
    0.6631   70.3247   66.9961 H   0  0  0  0  0  0  0  0  0  0  0  0
    2.1935   68.9597   68.3513 H   0  0  0  0  0  0  0  0  0  0  0  0
    0.5496   69.1501   69.1237 H   0  0  0  0  0  0  0  0  0  0  0  0
   -0.1569   67.4118   65.5241 H   0  0  0  0  0  0  0  0  0  0  0  0
    3.2321   68.6059   66.6348 H   0  0  0  0  0  0  0  0  0  0  0  0
    2.2724   67.0089   66.3405 H   0  0  0  0  0  0  0  0  0  0  0  0
    4.5163   67.5249   65.2547 H   0  0  0  0  0  0  0  0  0  0  0  0
    3.1584   65.4698   64.9548 H   0  0  0  0  0  0  0  0  0  0  0  0
    2.1939   66.3047   63.6771 H   0  0  0  0  0  0  0  0  0  0  0  0
    5.4147   66.5828   61.6514 H   0  0  0  0  0  0  0  0  0  0  0  0
    2.6473   68.7382   63.1800 H   0  0  0  0  0  0  0  0  0  0  0  0
    3.9503   69.5851   64.1017 H   0  0  0  0  0  0  0  0  0  0  0  0
  3  2  1  0
  4  3  1  0
  5  4  1  0
  6  5  1  0
  7  5  1  0
  8  7  2  0
  9  7  1  0
  9  1  1  0
 10  9  1  0
 10  3  1  0
 11  1  1  0
 12  1  1  0
 13 12  1  0
 14 13  1  0
 15 14  1  0
 16 15  2  0
 17 15  1  0
 18 17  1  0
 19 18  2  0
 20 13  1  0
 20 18  1  0
  1 21  1  6
  2 22  1  0
  2 23  1  0
  2 24  1  0
  3 25  1  6
  4 26  1  0
  4 27  1  0
  5 28  1  1
  6 29  1  0
  6 30  1  0
  6 31  1  0
  9 32  1  1
 10 33  1  0
 10 34  1  0
 11 35  1  0
 12 36  1  0
 12 37  1  0
 13 38  1  0
 14 39  1  0
 14 40  1  0
 17 41  1  0
 20 42  1  0
 20 43  1  0
M  END
>  <score>  (6) 
-8.4

$$$$
=
     RDKit          3D

 43 44  0  0  0  0  0  0  0  0999 V2000
    0.6930   66.9820   68.3860 C   0  0  2  0  0  0  0  0  0  0  0  0
    0.2640   68.7960   64.1470 C   0  0  0  0  0  0  0  0  0  0  0  0
    0.7480   68.1530   65.4490 C   0  0  1  0  0  0  0  0  0  0  0  0
    2.2740   68.2970   65.6060 C   0  0  0  0  0  0  0  0  0  0  0  0
    2.6710   69.3800   66.6130 C   0  0  2  0  0  0  0  0  0  0  0  0
    4.1900   69.4920   66.7060 C   0  0  0  0  0  0  0  0  0  0  0  0
    2.0580   69.0570   67.9760 C   0  0  0  0  0  0  0  0  0  0  0  0
    2.6610   69.2750   69.0290 O   0  0  0  0  0  0  0  0  0  0  0  0
    0.6520   68.4700   68.0000 C   0  0  1  0  0  0  0  0  0  0  0  0
   -0.0210   68.7420   66.6420 C   0  0  0  0  0  0  0  0  0  0  0  0
   -0.6130   66.4210   68.2450 O   0  0  0  0  0  0  0  0  0  0  0  0
    1.2400   66.6400   69.7890 C   0  0  0  0  0  0  0  0  0  0  0  0
    1.2370   65.1810   70.3060 C   0  0  0  0  0  0  0  0  0  0  0  0
    2.6390   64.6040   70.5230 C   0  0  0  0  0  0  0  0  0  0  0  0
    2.5640   63.1330   70.8650 C   0  0  0  0  0  0  0  0  0  0  0  0
    3.4600   62.3420   70.5850 O   0  0  0  0  0  0  0  0  0  0  0  0
    1.4560   62.7230   71.5620 N   0  0  0  0  0  0  0  0  0  0  0  0
    0.3480   63.4630   71.8910 C   0  0  0  0  0  0  0  0  0  0  0  0
   -0.6070   62.9510   72.4680 O   0  0  0  0  0  0  0  0  0  0  0  0
    0.3980   64.9350   71.5570 C   0  0  0  0  0  0  0  0  0  0  0  0
    1.4231   66.5423   67.6906 H   0  0  0  0  0  0  0  0  0  0  0  0
   -0.3825   69.6548   64.3804 H   0  0  0  0  0  0  0  0  0  0  0  0
    1.1309   69.1378   63.5625 H   0  0  0  0  0  0  0  0  0  0  0  0
   -0.3043   68.0575   63.5625 H   0  0  0  0  0  0  0  0  0  0  0  0
    0.5388   67.0736   65.4158 H   0  0  0  0  0  0  0  0  0  0  0  0
    2.6840   67.3346   65.9461 H   0  0  0  0  0  0  0  0  0  0  0  0
    2.6796   68.5925   64.6271 H   0  0  0  0  0  0  0  0  0  0  0  0
    2.2852   70.3527   66.2738 H   0  0  0  0  0  0  0  0  0  0  0  0
    4.4920   69.5143   67.7635 H   0  0  0  0  0  0  0  0  0  0  0  0
    4.6526   68.6255   66.2108 H   0  0  0  0  0  0  0  0  0  0  0  0
    4.5205   70.4169   66.2108 H   0  0  0  0  0  0  0  0  0  0  0  0
    0.0391   68.9555   68.7737 H   0  0  0  0  0  0  0  0  0  0  0  0
   -1.0289   68.3018   66.6583 H   0  0  0  0  0  0  0  0  0  0  0  0
   -0.0450   69.8332   66.5051 H   0  0  0  0  0  0  0  0  0  0  0  0
   -0.9994   66.2550   69.1412 H   0  0  0  0  0  0  0  0  0  0  0  0
    2.2867   66.9778   69.8087 H   0  0  0  0  0  0  0  0  0  0  0  0
    0.5236   67.1382   70.4588 H   0  0  0  0  0  0  0  0  0  0  0  0
    0.7510   64.6461   69.4767 H   0  0  0  0  0  0  0  0  0  0  0  0
    3.2283   64.7313   69.6030 H   0  0  0  0  0  0  0  0  0  0  0  0
    3.1159   65.1376   71.3583 H   0  0  0  0  0  0  0  0  0  0  0  0
    1.4555   61.7421   71.8761 H   0  0  0  0  0  0  0  0  0  0  0  0
    0.8425   65.4812   72.4020 H   0  0  0  0  0  0  0  0  0  0  0  0
   -0.6267   65.2877   71.3681 H   0  0  0  0  0  0  0  0  0  0  0  0
  3  2  1  0
  4  3  1  0
  5  4  1  0
  6  5  1  0
  7  5  1  0
  8  7  2  0
  9  7  1  0
  9  1  1  0
 10  9  1  0
 10  3  1  0
 11  1  1  0
 12  1  1  0
 13 12  1  0
 14 13  1  0
 15 14  1  0
 16 15  2  0
 17 15  1  0
 18 17  1  0
 19 18  2  0
 20 13  1  0
 20 18  1  0
  1 21  1  6
  2 22  1  0
  2 23  1  0
  2 24  1  0
  3 25  1  6
  4 26  1  0
  4 27  1  0
  5 28  1  6
  6 29  1  0
  6 30  1  0
  6 31  1  0
  9 32  1  1
 10 33  1  0
 10 34  1  0
 11 35  1  0
 12 36  1  0
 12 37  1  0
 13 38  1  0
 14 39  1  0
 14 40  1  0
 17 41  1  0
 20 42  1  0
 20 43  1  0
M  END
>  <score>  (7) 
-8.291

$$$$
=
     RDKit          3D

 43 44  0  0  0  0  0  0  0  0999 V2000
    0.7790   68.5310   65.1170 C   0  0  2  0  0  0  0  0  0  0  0  0
    1.3180   67.2230   69.5260 C   0  0  0  0  0  0  0  0  0  0  0  0
    0.9000   67.3880   68.0620 C   0  0  1  0  0  0  0  0  0  0  0  0
   -0.4820   66.7580   67.8040 C   0  0  0  0  0  0  0  0  0  0  0  0
   -1.5990   67.7980   67.6880 C   0  0  2  0  0  0  0  0  0  0  0  0
   -2.9440   67.1140   67.4590 C   0  0  0  0  0  0  0  0  0  0  0  0
   -1.2740   68.7700   66.5530 C   0  0  0  0  0  0  0  0  0  0  0  0
   -2.1500   69.2230   65.8140 O   0  0  0  0  0  0  0  0  0  0  0  0
    0.1800   69.1870   66.3720 C   0  0  1  0  0  0  0  0  0  0  0  0
    0.9510   68.8720   67.6670 C   0  0  0  0  0  0  0  0  0  0  0  0
   -0.2520   68.3420   64.1460 O   0  0  0  0  0  0  0  0  0  0  0  0
    1.5330   67.1980   65.3180 C   0  0  0  0  0  0  0  0  0  0  0  0
    2.6190   66.7440   64.3140 C   0  0  0  0  0  0  0  0  0  0  0  0
    3.7460   67.7630   64.1250 C   0  0  0  0  0  0  0  0  0  0  0  0
    4.6770   67.3310   63.0150 C   0  0  0  0  0  0  0  0  0  0  0  0
    5.3020   68.1320   62.3260 O   0  0  0  0  0  0  0  0  0  0  0  0
    4.8370   65.9800   62.8430 N   0  0  0  0  0  0  0  0  0  0  0  0
    4.1690   64.9650   63.4810 C   0  0  0  0  0  0  0  0  0  0  0  0
    4.3670   63.7910   63.1840 O   0  0  0  0  0  0  0  0  0  0  0  0
    3.2300   65.3720   64.5930 C   0  0  0  0  0  0  0  0  0  0  0  0
    1.5536   69.2380   64.7853 H   0  0  0  0  0  0  0  0  0  0  0  0
    0.4959   67.5475   70.1808 H   0  0  0  0  0  0  0  0  0  0  0  0
    1.5494   66.1661   69.7244 H   0  0  0  0  0  0  0  0  0  0  0  0
    2.2089   67.8369   69.7244 H   0  0  0  0  0  0  0  0  0  0  0  0
    1.6121   66.8468   67.4216 H   0  0  0  0  0  0  0  0  0  0  0  0
   -0.4370   66.1853   66.8659 H   0  0  0  0  0  0  0  0  0  0  0  0
   -0.7176   66.1155   68.6652 H   0  0  0  0  0  0  0  0  0  0  0  0
   -1.6693   68.3646   68.6282 H   0  0  0  0  0  0  0  0  0  0  0  0
   -3.4058   66.8791   68.4293 H   0  0  0  0  0  0  0  0  0  0  0  0
   -3.6049   67.7855   66.8913 H   0  0  0  0  0  0  0  0  0  0  0  0
   -2.7907   66.1844   66.8913 H   0  0  0  0  0  0  0  0  0  0  0  0
    0.2568   70.2707   66.1999 H   0  0  0  0  0  0  0  0  0  0  0  0
    2.0033   69.1590   67.5248 H   0  0  0  0  0  0  0  0  0  0  0  0
    0.4708   69.4403   68.4772 H   0  0  0  0  0  0  0  0  0  0  0  0
   -1.1140   68.1840   64.6065 H   0  0  0  0  0  0  0  0  0  0  0  0
    2.0209   67.2586   66.3020 H   0  0  0  0  0  0  0  0  0  0  0  0
    0.7420   66.4463   65.1791 H   0  0  0  0  0  0  0  0  0  0  0  0
    2.0457   66.6636   63.3787 H   0  0  0  0  0  0  0  0  0  0  0  0
    3.3101   68.7404   63.8707 H   0  0  0  0  0  0  0  0  0  0  0  0
    4.3201   67.8328   65.0607 H   0  0  0  0  0  0  0  0  0  0  0  0
    5.5440   65.6922   62.1514 H   0  0  0  0  0  0  0  0  0  0  0  0
    3.7886   65.4120   65.5398 H   0  0  0  0  0  0  0  0  0  0  0  0
    2.4188   64.6319   64.6572 H   0  0  0  0  0  0  0  0  0  0  0  0
  3  2  1  0
  4  3  1  0
  5  4  1  0
  6  5  1  0
  7  5  1  0
  8  7  2  0
  9  7  1  0
  9  1  1  0
 10  9  1  0
 10  3  1  0
 11  1  1  0
 12  1  1  0
 13 12  1  0
 14 13  1  0
 15 14  1  0
 16 15  2  0
 17 15  1  0
 18 17  1  0
 19 18  2  0
 20 13  1  0
 20 18  1  0
  1 21  1  6
  2 22  1  0
  2 23  1  0
  2 24  1  0
  3 25  1  6
  4 26  1  0
  4 27  1  0
  5 28  1  1
  6 29  1  0
  6 30  1  0
  6 31  1  0
  9 32  1  6
 10 33  1  0
 10 34  1  0
 11 35  1  0
 12 36  1  0
 12 37  1  0
 13 38  1  0
 14 39  1  0
 14 40  1  0
 17 41  1  0
 20 42  1  0
 20 43  1  0
M  END
>  <score>  (8) 
-8.03

$$$$
=
     RDKit          3D

 43 44  0  0  0  0  0  0  0  0999 V2000
    2.9680   58.1670   71.4930 C   0  0  2  0  0  0  0  0  0  0  0  0
   -0.6950   57.2470   74.1720 C   0  0  0  0  0  0  0  0  0  0  0  0
    0.4180   57.8920   73.3420 C   0  0  1  0  0  0  0  0  0  0  0  0
    0.6430   59.3580   73.7580 C   0  0  0  0  0  0  0  0  0  0  0  0
    1.8980   59.5490   74.6150 C   0  0  2  0  0  0  0  0  0  0  0  0
    2.0530   61.0130   75.0160 C   0  0  0  0  0  0  0  0  0  0  0  0
    3.1220   59.0560   73.8430 C   0  0  0  0  0  0  0  0  0  0  0  0
    4.2100   59.6300   73.9140 O   0  0  0  0  0  0  0  0  0  0  0  0
    2.9640   57.8050   72.9880 C   0  0  1  0  0  0  0  0  0  0  0  0
    1.7000   57.0510   73.4410 C   0  0  0  0  0  0  0  0  0  0  0  0
    3.3920   57.0340   70.7340 O   0  0  0  0  0  0  0  0  0  0  0  0
    3.8050   59.3960   71.0750 C   0  0  0  0  0  0  0  0  0  0  0  0
    3.1370   60.6160   70.3980 C   0  0  0  0  0  0  0  0  0  0  0  0
    2.3650   61.5120   71.3710 C   0  0  0  0  0  0  0  0  0  0  0  0
    1.6050   62.5830   70.6230 C   0  0  0  0  0  0  0  0  0  0  0  0
    0.5590   63.0690   71.0430 O   0  0  0  0  0  0  0  0  0  0  0  0
    2.1720   63.0350   69.4580 N   0  0  0  0  0  0  0  0  0  0  0  0
    3.2920   62.5570   68.8270 C   0  0  0  0  0  0  0  0  0  0  0  0
    3.6580   63.0170   67.7490 O   0  0  0  0  0  0  0  0  0  0  0  0
    4.0680   61.4840   69.5540 C   0  0  0  0  0  0  0  0  0  0  0  0
    1.9281   58.4568   71.2818 H   0  0  0  0  0  0  0  0  0  0  0  0
   -0.4751   57.3744   75.2422 H   0  0  0  0  0  0  0  0  0  0  0  0
   -1.6551   57.7286   73.9351 H   0  0  0  0  0  0  0  0  0  0  0  0
   -0.7545   56.1745   73.9351 H   0  0  0  0  0  0  0  0  0  0  0  0
    0.1125   57.9125   72.2855 H   0  0  0  0  0  0  0  0  0  0  0  0
    0.7425   59.9694   72.8490 H   0  0  0  0  0  0  0  0  0  0  0  0
   -0.2212   59.6649   74.3655 H   0  0  0  0  0  0  0  0  0  0  0  0
    1.8026   58.9589   75.5384 H   0  0  0  0  0  0  0  0  0  0  0  0
    2.0616   61.0938   76.1130 H   0  0  0  0  0  0  0  0  0  0  0  0
    2.9977   61.4058   74.6120 H   0  0  0  0  0  0  0  0  0  0  0  0
    1.2114   61.5949   74.6120 H   0  0  0  0  0  0  0  0  0  0  0  0
    3.8188   57.1268   73.1274 H   0  0  0  0  0  0  0  0  0  0  0  0
    1.5811   56.1588   72.8087 H   0  0  0  0  0  0  0  0  0  0  0  0
    1.8383   56.7943   74.5017 H   0  0  0  0  0  0  0  0  0  0  0  0
    3.6638   56.3076   71.3493 H   0  0  0  0  0  0  0  0  0  0  0  0
    4.2900   59.7707   71.9885 H   0  0  0  0  0  0  0  0  0  0  0  0
    4.4463   58.9945   70.2765 H   0  0  0  0  0  0  0  0  0  0  0  0
    2.4267   60.1339   69.7102 H   0  0  0  0  0  0  0  0  0  0  0  0
    1.6540   60.8967   71.9418 H   0  0  0  0  0  0  0  0  0  0  0  0
    3.0819   61.9963   72.0503 H   0  0  0  0  0  0  0  0  0  0  0  0
    1.6996   63.8289   69.0026 H   0  0  0  0  0  0  0  0  0  0  0  0
    4.8112   61.9594   70.2109 H   0  0  0  0  0  0  0  0  0  0  0  0
    4.5661   60.8450   68.8100 H   0  0  0  0  0  0  0  0  0  0  0  0
  3  2  1  0
  4  3  1  0
  5  4  1  0
  6  5  1  0
  7  5  1  0
  8  7  2  0
  9  7  1  0
  9  1  1  0
 10  9  1  0
 10  3  1  0
 11  1  1  0
 12  1  1  0
 13 12  1  0
 14 13  1  0
 15 14  1  0
 16 15  2  0
 17 15  1  0
 18 17  1  0
 19 18  2  0
 20 13  1  0
 20 18  1  0
  1 21  1  6
  2 22  1  0
  2 23  1  0
  2 24  1  0
  3 25  1  6
  4 26  1  0
  4 27  1  0
  5 28  1  1
  6 29  1  0
  6 30  1  0
  6 31  1  0
  9 32  1  6
 10 33  1  0
 10 34  1  0
 11 35  1  0
 12 36  1  0
 12 37  1  0
 13 38  1  0
 14 39  1  0
 14 40  1  0
 17 41  1  0
 20 42  1  0
 20 43  1  0
M  END
>  <score>  (9) 
-7.577

$$$$
