=
     RDKit          3D

104106  0  0  0  0  0  0  0  0999 V2000
    3.4020   64.6710   64.8570 C   0  0  0  0  0  0  0  0  0  0  0  0
    2.5220   65.6750   64.8700 C   0  0  0  0  0  0  0  0  0  0  0  0
    2.5170   66.7760   63.8840 C   0  0  0  0  0  0  0  0  0  0  0  0
    1.6550   67.6450   63.9860 O   0  0  0  0  0  0  0  0  0  0  0  0
    3.5670   66.7650   62.7930 C   0  0  0  0  0  0  0  0  0  0  0  0
    4.4470   65.7530   62.7930 C   0  0  0  0  0  0  0  0  0  0  0  0
    4.4610   64.6770   63.7940 C   0  0  0  0  0  0  0  0  0  0  0  0
    5.3380   63.8150   63.7780 O   0  0  0  0  0  0  0  0  0  0  0  0
    3.6130   67.7650   61.8260 N   0  0  0  0  0  0  0  0  0  0  0  0
    4.1490   69.1100   61.9460 C   0  0  0  0  0  0  0  0  0  0  0  0
    5.5840   69.0680   62.4740 C   0  0  0  0  0  0  0  0  0  0  0  0
    5.6940   69.7610   63.8340 C   0  0  0  0  0  0  0  0  0  0  0  0
    5.4420   68.8260   65.0230 C   0  0  0  0  0  0  0  0  0  0  0  0
    4.1250   69.1100   65.7550 C   0  0  0  0  0  0  0  0  0  0  0  0
    4.3210   69.8210   67.0990 C   0  0  0  0  0  0  0  0  0  0  0  0
    3.1610   69.5720   68.0470 N   0  0  1  0  0  4  0  0  0  0  0  0
    3.0810   70.6010   69.1550 C   0  0  0  0  0  0  0  0  0  0  0  0
    4.4770   71.0010   69.5990 C   0  0  0  0  0  0  0  0  0  0  0  0
    1.8430   69.4630   67.2840 C   0  0  0  0  0  0  0  0  0  0  0  0
    0.9430   68.3800   67.8220 C   0  0  0  0  0  0  0  0  0  0  0  0
    1.3940   67.5720   68.8820 C   0  0  0  0  0  0  0  0  0  0  0  0
    0.5880   66.5560   69.3910 C   0  0  0  0  0  0  0  0  0  0  0  0
   -0.6730   66.3350   68.8460 C   0  0  0  0  0  0  0  0  0  0  0  0
   -1.1360   67.1320   67.7980 C   0  0  0  0  0  0  0  0  0  0  0  0
   -0.3380   68.1580   67.2820 C   0  0  0  0  0  0  0  0  0  0  0  0
   -0.6990   68.9780   66.2460 O   0  0  0  0  0  0  0  0  0  0  0  0
   -2.0260   68.8380   65.7400 C   0  0  0  0  0  0  0  0  0  0  0  0
    3.4420   63.5900   65.7300 N   0  0  0  0  0  0  0  0  0  0  0  0
    4.2360   63.4700   66.9390 C   0  0  0  0  0  0  0  0  0  0  0  0
    3.4390   62.8210   68.0740 C   0  0  0  0  0  0  0  0  0  0  0  0
    4.0850   63.0190   69.4520 C   0  0  0  0  0  0  0  0  0  0  0  0
    4.4060   61.6760   70.1170 C   0  0  0  0  0  0  0  0  0  0  0  0
    5.3670   61.7940   71.3060 C   0  0  0  0  0  0  0  0  0  0  0  0
    4.8740   61.2640   72.6550 C   0  0  0  0  0  0  0  0  0  0  0  0
    3.5920   60.4730   72.5260 N   0  0  1  0  0  4  0  0  0  0  0  0
    3.7500   58.9720   72.6160 C   0  0  0  0  0  0  0  0  0  0  0  0
    2.6990   58.2860   71.7650 C   0  0  0  0  0  0  0  0  0  0  0  0
    2.5210   60.9950   73.4770 C   0  0  0  0  0  0  0  0  0  0  0  0
    1.1530   63.1200   73.7070 C   0  0  0  0  0  0  0  0  0  0  0  0
    0.3560   64.1190   73.1420 C   0  0  0  0  0  0  0  0  0  0  0  0
    0.0640   64.0960   71.7770 C   0  0  0  0  0  0  0  0  0  0  0  0
    0.5630   63.0790   70.9690 C   0  0  0  0  0  0  0  0  0  0  0  0
    1.3630   62.0810   71.5200 C   0  0  0  0  0  0  0  0  0  0  0  0
    1.6730   62.0960   72.8900 C   0  0  0  0  0  0  0  0  0  0  0  0
    1.1760   64.1940   75.8320 C   0  0  0  0  0  0  0  0  0  0  0  0
    1.5190   63.0620   75.0310 O   0  0  0  0  0  0  0  0  0  0  0  0
    1.7566   65.6832   65.6600 H   0  0  0  0  0  0  0  0  0  0  0  0
    5.2042   65.7267   61.9955 H   0  0  0  0  0  0  0  0  0  0  0  0
    3.2162   67.5201   60.9076 H   0  0  0  0  0  0  0  0  0  0  0  0
    4.1406   69.5928   60.9577 H   0  0  0  0  0  0  0  0  0  0  0  0
    3.5263   69.6802   62.6511 H   0  0  0  0  0  0  0  0  0  0  0  0
    5.8968   68.0187   62.5797 H   0  0  0  0  0  0  0  0  0  0  0  0
    6.2332   69.5964   61.7604 H   0  0  0  0  0  0  0  0  0  0  0  0
    6.7066   70.1798   63.9297 H   0  0  0  0  0  0  0  0  0  0  0  0
    4.9150   70.5371   63.8639 H   0  0  0  0  0  0  0  0  0  0  0  0
    5.4185   67.7904   64.6529 H   0  0  0  0  0  0  0  0  0  0  0  0
    6.2558   68.9925   65.7441 H   0  0  0  0  0  0  0  0  0  0  0  0
    3.4978   69.7449   65.1120 H   0  0  0  0  0  0  0  0  0  0  0  0
    3.6524   68.1392   65.9652 H   0  0  0  0  0  0  0  0  0  0  0  0
    5.2464   69.4515   67.5649 H   0  0  0  0  0  0  0  0  0  0  0  0
    4.3776   70.9026   66.9069 H   0  0  0  0  0  0  0  0  0  0  0  0
    3.3393   68.6676   68.5065 H   0  0  0  0  0  0  0  0  0  0  0  0
    2.5475   71.4901   68.7877 H   0  0  0  0  0  0  0  0  0  0  0  0
    2.5421   70.1673   70.0103 H   0  0  0  0  0  0  0  0  0  0  0  0
    4.5226   71.0141   70.6980 H   0  0  0  0  0  0  0  0  0  0  0  0
    5.2072   70.2759   69.2103 H   0  0  0  0  0  0  0  0  0  0  0  0
    4.7124   72.0027   69.2103 H   0  0  0  0  0  0  0  0  0  0  0  0
    1.3154   70.4256   67.3550 H   0  0  0  0  0  0  0  0  0  0  0  0
    2.0844   69.2051   66.2423 H   0  0  0  0  0  0  0  0  0  0  0  0
    2.3915   67.7440   69.3125 H   0  0  0  0  0  0  0  0  0  0  0  0
    0.9475   65.9304   70.2213 H   0  0  0  0  0  0  0  0  0  0  0  0
   -1.3076   65.5288   69.2427 H   0  0  0  0  0  0  0  0  0  0  0  0
   -2.1353   66.9519   67.3750 H   0  0  0  0  0  0  0  0  0  0  0  0
   -2.7326   68.7634   66.5797 H   0  0  0  0  0  0  0  0  0  0  0  0
   -2.2783   69.7145   65.1251 H   0  0  0  0  0  0  0  0  0  0  0  0
   -2.0899   67.9281   65.1251 H   0  0  0  0  0  0  0  0  0  0  0  0
    2.8428   62.7865   65.4930 H   0  0  0  0  0  0  0  0  0  0  0  0
    5.1207   62.8523   66.7253 H   0  0  0  0  0  0  0  0  0  0  0  0
    4.5306   64.4803   67.2591 H   0  0  0  0  0  0  0  0  0  0  0  0
    2.4321   63.2634   68.0924 H   0  0  0  0  0  0  0  0  0  0  0  0
    3.4095   61.7391   67.8776 H   0  0  0  0  0  0  0  0  0  0  0  0
    5.0171   63.5906   69.3316 H   0  0  0  0  0  0  0  0  0  0  0  0
    3.3745   63.5617   70.0928 H   0  0  0  0  0  0  0  0  0  0  0  0
    3.4653   61.2306   70.4730 H   0  0  0  0  0  0  0  0  0  0  0  0
    4.9042   61.0522   69.3602 H   0  0  0  0  0  0  0  0  0  0  0  0
    6.2831   61.2426   71.0479 H   0  0  0  0  0  0  0  0  0  0  0  0
    5.5025   62.8752   71.4568 H   0  0  0  0  0  0  0  0  0  0  0  0
    5.6498   60.6130   73.0844 H   0  0  0  0  0  0  0  0  0  0  0  0
    4.6721   62.1293   73.3035 H   0  0  0  0  0  0  0  0  0  0  0  0
    3.2774   60.6330   71.5584 H   0  0  0  0  0  0  0  0  0  0  0  0
    4.7505   58.6892   72.2568 H   0  0  0  0  0  0  0  0  0  0  0  0
    3.6262   58.6589   73.6632 H   0  0  0  0  0  0  0  0  0  0  0  0
    1.9575   57.8020   72.4176 H   0  0  0  0  0  0  0  0  0  0  0  0
    2.1976   59.0313   71.1300 H   0  0  0  0  0  0  0  0  0  0  0  0
    3.1795   57.5271   71.1300 H   0  0  0  0  0  0  0  0  0  0  0  0
    1.8621   60.1579   73.7511 H   0  0  0  0  0  0  0  0  0  0  0  0
    3.0431   61.4205   74.3467 H   0  0  0  0  0  0  0  0  0  0  0  0
   -0.0425   64.9259   73.7746 H   0  0  0  0  0  0  0  0  0  0  0  0
   -0.5636   64.8857   71.3381 H   0  0  0  0  0  0  0  0  0  0  0  0
    0.3256   63.0633   69.8950 H   0  0  0  0  0  0  0  0  0  0  0  0
    1.7541   61.2770   70.8792 H   0  0  0  0  0  0  0  0  0  0  0  0
    1.2566   63.9280   76.8963 H   0  0  0  0  0  0  0  0  0  0  0  0
    1.8632   65.0233   75.6082 H   0  0  0  0  0  0  0  0  0  0  0  0
    0.1441   64.5024   75.6082 H   0  0  0  0  0  0  0  0  0  0  0  0
  2  1  2  0
  3  2  1  0
  4  3  2  0
  5  3  1  0
  6  5  2  0
  7  1  1  0
  7  6  1  0
  8  7  2  0
  9  5  1  0
 10  9  1  0
 11 10  1  0
 12 11  1  0
 13 12  1  0
 14 13  1  0
 15 14  1  0
 16 15  1  0
 17 16  1  0
 18 17  1  0
 19 16  1  0
 20 19  1  0
 21 20  2  0
 22 21  1  0
 23 22  2  0
 24 23  1  0
 25 24  2  0
 25 20  1  0
 26 25  1  0
 27 26  1  0
 28  1  1  0
 29 28  1  0
 30 29  1  0
 31 30  1  0
 32 31  1  0
 33 32  1  0
 34 33  1  0
 35 34  1  0
 36 35  1  0
 37 36  1  0
 38 35  1  0
 40 39  2  0
 41 40  1  0
 42 41  2  0
 43 42  1  0
 44 43  2  0
 44 39  1  0
 44 38  1  0
 46 45  1  0
 46 39  1  0
  2 47  1  0
  6 48  1  0
  9 49  1  0
 10 50  1  0
 10 51  1  0
 11 52  1  0
 11 53  1  0
 12 54  1  0
 12 55  1  0
 13 56  1  0
 13 57  1  0
 14 58  1  0
 14 59  1  0
 15 60  1  0
 15 61  1  0
 16 62  1  1
 17 63  1  0
 17 64  1  0
 18 65  1  0
 18 66  1  0
 18 67  1  0
 19 68  1  0
 19 69  1  0
 21 70  1  0
 22 71  1  0
 23 72  1  0
 24 73  1  0
 27 74  1  0
 27 75  1  0
 27 76  1  0
 28 77  1  0
 29 78  1  0
 29 79  1  0
 30 80  1  0
 30 81  1  0
 31 82  1  0
 31 83  1  0
 32 84  1  0
 32 85  1  0
 33 86  1  0
 33 87  1  0
 34 88  1  0
 34 89  1  0
 35 90  1  6
 36 91  1  0
 36 92  1  0
 37 93  1  0
 37 94  1  0
 37 95  1  0
 38 96  1  0
 38 97  1  0
 40 98  1  0
 41 99  1  0
 42100  1  0
 43101  1  0
 45102  1  0
 45103  1  0
 45104  1  0
M  CHG  2  16   1  35   1
M  END
>  <score>  (1) 
-8.811

$$$$
=
     RDKit          3D

104106  0  0  0  0  0  0  0  0999 V2000
    4.0730   60.7560   70.2060 C   0  0  0  0  0  0  0  0  0  0  0  0
    3.4940   59.5520   70.1980 C   0  0  0  0  0  0  0  0  0  0  0  0
    3.4180   58.6700   71.3810 C   0  0  0  0  0  0  0  0  0  0  0  0
    2.8530   57.5860   71.2630 O   0  0  0  0  0  0  0  0  0  0  0  0
    4.0280   59.1570   72.6780 C   0  0  0  0  0  0  0  0  0  0  0  0
    4.6100   60.3650   72.6730 C   0  0  0  0  0  0  0  0  0  0  0  0
    4.7050   61.2250   71.4830 C   0  0  0  0  0  0  0  0  0  0  0  0
    5.3120   62.2930   71.5270 O   0  0  0  0  0  0  0  0  0  0  0  0
    3.9820   58.3820   73.8330 N   0  0  0  0  0  0  0  0  0  0  0  0
    3.4190   58.7260   75.1280 C   0  0  0  0  0  0  0  0  0  0  0  0
    3.3110   57.4820   76.0110 C   0  0  0  0  0  0  0  0  0  0  0  0
    2.5110   57.7750   77.2830 C   0  0  0  0  0  0  0  0  0  0  0  0
    1.7780   59.1210   77.2520 C   0  0  0  0  0  0  0  0  0  0  0  0
    0.2570   58.9910   77.3920 C   0  0  0  0  0  0  0  0  0  0  0  0
   -0.2720   57.6090   76.9900 C   0  0  0  0  0  0  0  0  0  0  0  0
   -0.3630   57.4530   75.4820 N   0  0  1  0  0  4  0  0  0  0  0  0
   -0.4120   56.0030   75.0470 C   0  0  0  0  0  0  0  0  0  0  0  0
   -0.2960   55.9060   73.5360 C   0  0  0  0  0  0  0  0  0  0  0  0
   -1.5360   58.2500   74.9180 C   0  0  0  0  0  0  0  0  0  0  0  0
   -1.0990   59.4220   74.0770 C   0  0  0  0  0  0  0  0  0  0  0  0
    0.2130   59.4530   73.5690 C   0  0  0  0  0  0  0  0  0  0  0  0
    0.6480   60.5300   72.7990 C   0  0  0  0  0  0  0  0  0  0  0  0
   -0.2190   61.5830   72.5300 C   0  0  0  0  0  0  0  0  0  0  0  0
   -1.5250   61.5630   73.0230 C   0  0  0  0  0  0  0  0  0  0  0  0
   -1.9750   60.4860   73.7930 C   0  0  0  0  0  0  0  0  0  0  0  0
   -3.2300   60.3860   74.3320 O   0  0  0  0  0  0  0  0  0  0  0  0
   -3.7180   61.5170   75.0530 C   0  0  0  0  0  0  0  0  0  0  0  0
    4.1500   61.6470   69.1420 N   0  0  0  0  0  0  0  0  0  0  0  0
    3.2990   62.7960   68.8980 C   0  0  0  0  0  0  0  0  0  0  0  0
    2.1570   62.8780   69.9170 C   0  0  0  0  0  0  0  0  0  0  0  0
    2.0070   64.2710   70.5420 C   0  0  0  0  0  0  0  0  0  0  0  0
    0.5340   64.6740   70.6590 C   0  0  0  0  0  0  0  0  0  0  0  0
    0.2720   66.1480   70.3240 C   0  0  0  0  0  0  0  0  0  0  0  0
    1.2670   66.8360   69.3860 C   0  0  0  0  0  0  0  0  0  0  0  0
    0.6160   67.3070   68.1060 N   0  0  1  0  0  4  0  0  0  0  0  0
   -0.8340   66.9120   67.9390 C   0  0  0  0  0  0  0  0  0  0  0  0
   -1.5080   67.8180   66.9260 C   0  0  0  0  0  0  0  0  0  0  0  0
    0.8310   68.8010   67.8910 C   0  0  0  0  0  0  0  0  0  0  0  0
    2.6180   68.7460   66.0900 C   0  0  0  0  0  0  0  0  0  0  0  0
    3.9020   69.0630   65.6430 C   0  0  0  0  0  0  0  0  0  0  0  0
    4.7810   69.7630   66.4720 C   0  0  0  0  0  0  0  0  0  0  0  0
    4.3850   70.1500   67.7490 C   0  0  0  0  0  0  0  0  0  0  0  0
    3.1040   69.8430   68.2030 C   0  0  0  0  0  0  0  0  0  0  0  0
    2.2060   69.1470   67.3770 C   0  0  0  0  0  0  0  0  0  0  0  0
    2.0490   66.8050   64.8310 C   0  0  0  0  0  0  0  0  0  0  0  0
    1.6690   68.0820   65.3470 O   0  0  0  0  0  0  0  0  0  0  0  0
    3.0484   59.1971   69.2570 H   0  0  0  0  0  0  0  0  0  0  0  0
    5.0421   60.7350   73.6145 H   0  0  0  0  0  0  0  0  0  0  0  0
    4.4009   57.4438   73.7608 H   0  0  0  0  0  0  0  0  0  0  0  0
    4.0684   59.4647   75.6207 H   0  0  0  0  0  0  0  0  0  0  0  0
    2.4132   59.1458   74.9792 H   0  0  0  0  0  0  0  0  0  0  0  0
    2.8076   56.6835   75.4462 H   0  0  0  0  0  0  0  0  0  0  0  0
    4.3255   57.1709   76.3009 H   0  0  0  0  0  0  0  0  0  0  0  0
    1.7662   56.9767   77.4167 H   0  0  0  0  0  0  0  0  0  0  0  0
    3.2312   57.8195   78.1133 H   0  0  0  0  0  0  0  0  0  0  0  0
    2.1524   59.7407   78.0801 H   0  0  0  0  0  0  0  0  0  0  0  0
    1.9754   59.5750   76.2697 H   0  0  0  0  0  0  0  0  0  0  0  0
   -0.0144   59.1772   78.4416 H   0  0  0  0  0  0  0  0  0  0  0  0
   -0.1974   59.7252   76.7105 H   0  0  0  0  0  0  0  0  0  0  0  0
    0.4066   56.8395   77.3866 H   0  0  0  0  0  0  0  0  0  0  0  0
   -1.2844   57.4979   77.4055 H   0  0  0  0  0  0  0  0  0  0  0  0
    0.5053   57.8425   75.0881 H   0  0  0  0  0  0  0  0  0  0  0  0
    0.4214   55.4557   75.5115 H   0  0  0  0  0  0  0  0  0  0  0  0
   -1.3704   55.5651   75.3628 H   0  0  0  0  0  0  0  0  0  0  0  0
    0.5236   55.2206   73.2744 H   0  0  0  0  0  0  0  0  0  0  0  0
   -1.2400   55.5246   73.1195 H   0  0  0  0  0  0  0  0  0  0  0  0
   -0.0877   56.9026   73.1195 H   0  0  0  0  0  0  0  0  0  0  0  0
   -2.1483   57.5806   74.2959 H   0  0  0  0  0  0  0  0  0  0  0  0
   -2.1039   58.6496   75.7711 H   0  0  0  0  0  0  0  0  0  0  0  0
    0.9004   58.6209   73.7813 H   0  0  0  0  0  0  0  0  0  0  0  0
    1.6749   60.5469   72.4050 H   0  0  0  0  0  0  0  0  0  0  0  0
    0.1255   62.4355   71.9262 H   0  0  0  0  0  0  0  0  0  0  0  0
   -2.2045   62.3999   72.8043 H   0  0  0  0  0  0  0  0  0  0  0  0
   -3.6358   61.3265   76.1333 H   0  0  0  0  0  0  0  0  0  0  0  0
   -3.1225   62.4039   74.7907 H   0  0  0  0  0  0  0  0  0  0  0  0
   -4.7718   61.6922   74.7907 H   0  0  0  0  0  0  0  0  0  0  0  0
    4.8932   61.4721   68.4507 H   0  0  0  0  0  0  0  0  0  0  0  0
    3.9058   63.7109   68.9673 H   0  0  0  0  0  0  0  0  0  0  0  0
    2.8589   62.6918   67.8953 H   0  0  0  0  0  0  0  0  0  0  0  0
    1.2160   62.6187   69.4098 H   0  0  0  0  0  0  0  0  0  0  0  0
    2.3929   62.1769   70.7311 H   0  0  0  0  0  0  0  0  0  0  0  0
    2.4570   64.2635   71.5457 H   0  0  0  0  0  0  0  0  0  0  0  0
    2.5151   64.9990   69.8925 H   0  0  0  0  0  0  0  0  0  0  0  0
   -0.0530   64.0508   69.9683 H   0  0  0  0  0  0  0  0  0  0  0  0
    0.2412   64.5248   71.7088 H   0  0  0  0  0  0  0  0  0  0  0  0
   -0.7218   66.2103   69.8567 H   0  0  0  0  0  0  0  0  0  0  0  0
    0.3687   66.6798   71.2821 H   0  0  0  0  0  0  0  0  0  0  0  0
    1.6988   67.7050   69.9040 H   0  0  0  0  0  0  0  0  0  0  0  0
    2.0416   66.1019   69.1196 H   0  0  0  0  0  0  0  0  0  0  0  0
    1.1031   66.7949   67.3568 H   0  0  0  0  0  0  0  0  0  0  0  0
   -0.8894   65.8706   67.5892 H   0  0  0  0  0  0  0  0  0  0  0  0
   -1.3474   67.0096   68.9069 H   0  0  0  0  0  0  0  0  0  0  0  0
   -2.0843   68.5926   67.4531 H   0  0  0  0  0  0  0  0  0  0  0  0
   -0.7436   68.2952   66.2952 H   0  0  0  0  0  0  0  0  0  0  0  0
   -2.1848   67.2231   66.2952 H   0  0  0  0  0  0  0  0  0  0  0  0
    0.0879   69.1577   67.1626 H   0  0  0  0  0  0  0  0  0  0  0  0
    0.7227   69.2862   68.8722 H   0  0  0  0  0  0  0  0  0  0  0  0
    4.2221   68.7605   64.6350 H   0  0  0  0  0  0  0  0  0  0  0  0
    5.7914   70.0098   66.1140 H   0  0  0  0  0  0  0  0  0  0  0  0
    5.0829   70.6978   68.3993 H   0  0  0  0  0  0  0  0  0  0  0  0
    2.7942   70.1473   69.2137 H   0  0  0  0  0  0  0  0  0  0  0  0
    2.2533   66.1183   65.6657 H   0  0  0  0  0  0  0  0  0  0  0  0
    1.2323   66.4006   64.2150 H   0  0  0  0  0  0  0  0  0  0  0  0
    2.9539   66.9129   64.2150 H   0  0  0  0  0  0  0  0  0  0  0  0
  2  1  2  0
  3  2  1  0
  4  3  2  0
  5  3  1  0
  6  5  2  0
  7  1  1  0
  7  6  1  0
  8  7  2  0
  9  5  1  0
 10  9  1  0
 11 10  1  0
 12 11  1  0
 13 12  1  0
 14 13  1  0
 15 14  1  0
 16 15  1  0
 17 16  1  0
 18 17  1  0
 19 16  1  0
 20 19  1  0
 21 20  2  0
 22 21  1  0
 23 22  2  0
 24 23  1  0
 25 24  2  0
 25 20  1  0
 26 25  1  0
 27 26  1  0
 28  1  1  0
 29 28  1  0
 30 29  1  0
 31 30  1  0
 32 31  1  0
 33 32  1  0
 34 33  1  0
 35 34  1  0
 36 35  1  0
 37 36  1  0
 38 35  1  0
 40 39  2  0
 41 40  1  0
 42 41  2  0
 43 42  1  0
 44 43  2  0
 44 39  1  0
 44 38  1  0
 46 45  1  0
 46 39  1  0
  2 47  1  0
  6 48  1  0
  9 49  1  0
 10 50  1  0
 10 51  1  0
 11 52  1  0
 11 53  1  0
 12 54  1  0
 12 55  1  0
 13 56  1  0
 13 57  1  0
 14 58  1  0
 14 59  1  0
 15 60  1  0
 15 61  1  0
 16 62  1  6
 17 63  1  0
 17 64  1  0
 18 65  1  0
 18 66  1  0
 18 67  1  0
 19 68  1  0
 19 69  1  0
 21 70  1  0
 22 71  1  0
 23 72  1  0
 24 73  1  0
 27 74  1  0
 27 75  1  0
 27 76  1  0
 28 77  1  0
 29 78  1  0
 29 79  1  0
 30 80  1  0
 30 81  1  0
 31 82  1  0
 31 83  1  0
 32 84  1  0
 32 85  1  0
 33 86  1  0
 33 87  1  0
 34 88  1  0
 34 89  1  0
 35 90  1  6
 36 91  1  0
 36 92  1  0
 37 93  1  0
 37 94  1  0
 37 95  1  0
 38 96  1  0
 38 97  1  0
 40 98  1  0
 41 99  1  0
 42100  1  0
 43101  1  0
 45102  1  0
 45103  1  0
 45104  1  0
M  CHG  2  16   1  35   1
M  END
>  <score>  (2) 
-8.709

$$$$
=
     RDKit          3D

104106  0  0  0  0  0  0  0  0999 V2000
    4.0970   60.9580   70.0220 C   0  0  0  0  0  0  0  0  0  0  0  0
    3.4640   59.7820   70.0410 C   0  0  0  0  0  0  0  0  0  0  0  0
    3.4190   58.8920   71.2210 C   0  0  0  0  0  0  0  0  0  0  0  0
    2.7980   57.8360   71.1300 O   0  0  0  0  0  0  0  0  0  0  0  0
    4.1280   59.3390   72.4820 C   0  0  0  0  0  0  0  0  0  0  0  0
    4.7620   60.5190   72.4490 C   0  0  0  0  0  0  0  0  0  0  0  0
    4.8250   61.3850   71.2620 C   0  0  0  0  0  0  0  0  0  0  0  0
    5.4820   62.4250   71.2770 O   0  0  0  0  0  0  0  0  0  0  0  0
    4.1160   58.5550   73.6320 N   0  0  0  0  0  0  0  0  0  0  0  0
    3.6880   58.9250   74.9700 C   0  0  0  0  0  0  0  0  0  0  0  0
    2.1620   58.9160   75.0650 C   0  0  0  0  0  0  0  0  0  0  0  0
    1.6950   59.1610   76.5020 C   0  0  0  0  0  0  0  0  0  0  0  0
    1.6930   60.6420   76.9030 C   0  0  0  0  0  0  0  0  0  0  0  0
    0.4550   61.0540   77.7080 C   0  0  0  0  0  0  0  0  0  0  0  0
    0.2270   62.5700   77.7340 C   0  0  0  0  0  0  0  0  0  0  0  0
   -0.9830   62.9760   76.9100 N   0  0  1  0  0  4  0  0  0  0  0  0
   -1.9990   63.7600   77.7130 C   0  0  0  0  0  0  0  0  0  0  0  0
   -2.8290   64.6370   76.7920 C   0  0  0  0  0  0  0  0  0  0  0  0
   -0.5610   63.7260   75.6500 C   0  0  0  0  0  0  0  0  0  0  0  0
   -0.1070   62.8070   74.5450 C   0  0  0  0  0  0  0  0  0  0  0  0
    1.2330   62.8530   74.1170 C   0  0  0  0  0  0  0  0  0  0  0  0
    1.6760   62.0230   73.0900 C   0  0  0  0  0  0  0  0  0  0  0  0
    0.7890   61.1430   72.4790 C   0  0  0  0  0  0  0  0  0  0  0  0
   -0.5410   61.0830   72.8970 C   0  0  0  0  0  0  0  0  0  0  0  0
   -0.9970   61.9060   73.9300 C   0  0  0  0  0  0  0  0  0  0  0  0
   -2.2850   61.9300   74.3960 O   0  0  0  0  0  0  0  0  0  0  0  0
   -2.8850   60.6730   74.7070 C   0  0  0  0  0  0  0  0  0  0  0  0
    4.1510   61.8550   68.9620 N   0  0  0  0  0  0  0  0  0  0  0  0
    3.3540   63.0560   68.7900 C   0  0  0  0  0  0  0  0  0  0  0  0
    2.2600   63.1640   69.8550 C   0  0  0  0  0  0  0  0  0  0  0  0
    2.1780   64.5570   70.4940 C   0  0  0  0  0  0  0  0  0  0  0  0
    0.7330   64.9280   70.8410 C   0  0  0  0  0  0  0  0  0  0  0  0
    0.1580   66.0460   69.9610 C   0  0  0  0  0  0  0  0  0  0  0  0
    1.1610   66.9650   69.2590 C   0  0  0  0  0  0  0  0  0  0  0  0
    0.6690   67.4200   67.9040 N   0  0  1  0  0  4  0  0  0  0  0  0
   -0.7890   67.1380   67.6210 C   0  0  0  0  0  0  0  0  0  0  0  0
   -1.3730   68.2350   66.7510 C   0  0  0  0  0  0  0  0  0  0  0  0
    1.0320   68.8780   67.6450 C   0  0  0  0  0  0  0  0  0  0  0  0
    3.4120   69.7470   67.5040 C   0  0  0  0  0  0  0  0  0  0  0  0
    4.6040   69.9140   66.7960 C   0  0  0  0  0  0  0  0  0  0  0  0
    4.7270   69.4100   65.4990 C   0  0  0  0  0  0  0  0  0  0  0  0
    3.6640   68.7390   64.9030 C   0  0  0  0  0  0  0  0  0  0  0  0
    2.4730   68.5630   65.6010 C   0  0  0  0  0  0  0  0  0  0  0  0
    2.3370   69.0560   66.9100 C   0  0  0  0  0  0  0  0  0  0  0  0
    4.3440   70.6350   69.5080 C   0  0  0  0  0  0  0  0  0  0  0  0
    3.1950   70.1820   68.7900 O   0  0  0  0  0  0  0  0  0  0  0  0
    2.9465   59.4569   69.1264 H   0  0  0  0  0  0  0  0  0  0  0  0
    5.2658   60.8607   73.3652 H   0  0  0  0  0  0  0  0  0  0  0  0
    4.4539   57.5885   73.5200 H   0  0  0  0  0  0  0  0  0  0  0  0
    4.1001   58.2064   75.6937 H   0  0  0  0  0  0  0  0  0  0  0  0
    4.0526   59.9386   75.1929 H   0  0  0  0  0  0  0  0  0  0  0  0
    1.7575   59.7071   74.4165 H   0  0  0  0  0  0  0  0  0  0  0  0
    1.7990   57.9283   74.7446 H   0  0  0  0  0  0  0  0  0  0  0  0
    0.6718   58.7710   76.6064 H   0  0  0  0  0  0  0  0  0  0  0  0
    2.4077   58.6483   77.1647 H   0  0  0  0  0  0  0  0  0  0  0  0
    2.5869   60.8391   77.5130 H   0  0  0  0  0  0  0  0  0  0  0  0
    1.6857   61.2298   75.9732 H   0  0  0  0  0  0  0  0  0  0  0  0
   -0.4283   60.5755   77.2599 H   0  0  0  0  0  0  0  0  0  0  0  0
    0.6186   60.7307   78.7466 H   0  0  0  0  0  0  0  0  0  0  0  0
    0.0709   62.8882   78.7753 H   0  0  0  0  0  0  0  0  0  0  0  0
    1.1134   63.0552   77.2993 H   0  0  0  0  0  0  0  0  0  0  0  0
   -1.4537   62.1068   76.6206 H   0  0  0  0  0  0  0  0  0  0  0  0
   -2.6616   63.0603   78.2435 H   0  0  0  0  0  0  0  0  0  0  0  0
   -1.4706   64.3976   78.4371 H   0  0  0  0  0  0  0  0  0  0  0  0
   -3.4617   65.3056   77.3942 H   0  0  0  0  0  0  0  0  0  0  0  0
   -2.1609   65.2377   76.1573 H   0  0  0  0  0  0  0  0  0  0  0  0
   -3.4656   64.0030   76.1573 H   0  0  0  0  0  0  0  0  0  0  0  0
   -1.4174   64.3139   75.2880 H   0  0  0  0  0  0  0  0  0  0  0  0
    0.2918   64.3672   75.9175 H   0  0  0  0  0  0  0  0  0  0  0  0
    1.9358   63.5498   74.5972 H   0  0  0  0  0  0  0  0  0  0  0  0
    2.7254   62.0634   72.7627 H   0  0  0  0  0  0  0  0  0  0  0  0
    1.1371   60.4921   71.6635 H   0  0  0  0  0  0  0  0  0  0  0  0
   -1.2354   60.3827   72.4098 H   0  0  0  0  0  0  0  0  0  0  0  0
   -2.9418   60.5540   75.7991 H   0  0  0  0  0  0  0  0  0  0  0  0
   -3.8984   60.6350   74.2808 H   0  0  0  0  0  0  0  0  0  0  0  0
   -2.2773   59.8612   74.2808 H   0  0  0  0  0  0  0  0  0  0  0  0
    4.8306   61.6448   68.2172 H   0  0  0  0  0  0  0  0  0  0  0  0
    4.0119   63.9345   68.8638 H   0  0  0  0  0  0  0  0  0  0  0  0
    2.8700   63.0091   67.8033 H   0  0  0  0  0  0  0  0  0  0  0  0
    1.2913   62.9362   69.3863 H   0  0  0  0  0  0  0  0  0  0  0  0
    2.5085   62.4503   70.6543 H   0  0  0  0  0  0  0  0  0  0  0  0
    2.7804   64.5647   71.4143 H   0  0  0  0  0  0  0  0  0  0  0  0
    2.5605   65.2927   69.7712 H   0  0  0  0  0  0  0  0  0  0  0  0
    0.1054   64.0327   70.7202 H   0  0  0  0  0  0  0  0  0  0  0  0
    0.7351   65.3006   71.8760 H   0  0  0  0  0  0  0  0  0  0  0  0
   -0.4581   65.5718   69.1829 H   0  0  0  0  0  0  0  0  0  0  0  0
   -0.3914   66.7002   70.6540 H   0  0  0  0  0  0  0  0  0  0  0  0
    1.3314   67.8502   69.8893 H   0  0  0  0  0  0  0  0  0  0  0  0
    2.0902   66.3963   69.1068 H   0  0  0  0  0  0  0  0  0  0  0  0
    1.1730   66.8307   67.2260 H   0  0  0  0  0  0  0  0  0  0  0  0
   -0.8784   66.1737   67.0994 H   0  0  0  0  0  0  0  0  0  0  0  0
   -1.3398   67.1015   68.5724 H   0  0  0  0  0  0  0  0  0  0  0  0
   -1.7936   69.0251   67.3903 H   0  0  0  0  0  0  0  0  0  0  0  0
   -0.5816   68.6597   66.1159 H   0  0  0  0  0  0  0  0  0  0  0  0
   -2.1672   67.8156   66.1159 H   0  0  0  0  0  0  0  0  0  0  0  0
    0.2306   69.3343   67.0454 H   0  0  0  0  0  0  0  0  0  0  0  0
    1.1475   69.3601   68.6270 H   0  0  0  0  0  0  0  0  0  0  0  0
    5.4484   70.4439   67.2609 H   0  0  0  0  0  0  0  0  0  0  0  0
    5.6686   69.5443   64.9464 H   0  0  0  0  0  0  0  0  0  0  0  0
    3.7649   68.3475   63.8800 H   0  0  0  0  0  0  0  0  0  0  0  0
    1.6333   68.0350   65.1255 H   0  0  0  0  0  0  0  0  0  0  0  0
    4.1540   70.5601   70.5889 H   0  0  0  0  0  0  0  0  0  0  0  0
    5.2108   70.0113   69.2440 H   0  0  0  0  0  0  0  0  0  0  0  0
    4.5519   71.6824   69.2440 H   0  0  0  0  0  0  0  0  0  0  0  0
  2  1  2  0
  3  2  1  0
  4  3  2  0
  5  3  1  0
  6  5  2  0
  7  1  1  0
  7  6  1  0
  8  7  2  0
  9  5  1  0
 10  9  1  0
 11 10  1  0
 12 11  1  0
 13 12  1  0
 14 13  1  0
 15 14  1  0
 16 15  1  0
 17 16  1  0
 18 17  1  0
 19 16  1  0
 20 19  1  0
 21 20  2  0
 22 21  1  0
 23 22  2  0
 24 23  1  0
 25 24  2  0
 25 20  1  0
 26 25  1  0
 27 26  1  0
 28  1  1  0
 29 28  1  0
 30 29  1  0
 31 30  1  0
 32 31  1  0
 33 32  1  0
 34 33  1  0
 35 34  1  0
 36 35  1  0
 37 36  1  0
 38 35  1  0
 40 39  2  0
 41 40  1  0
 42 41  2  0
 43 42  1  0
 44 43  2  0
 44 39  1  0
 44 38  1  0
 46 45  1  0
 46 39  1  0
  2 47  1  0
  6 48  1  0
  9 49  1  0
 10 50  1  0
 10 51  1  0
 11 52  1  0
 11 53  1  0
 12 54  1  0
 12 55  1  0
 13 56  1  0
 13 57  1  0
 14 58  1  0
 14 59  1  0
 15 60  1  0
 15 61  1  0
 16 62  1  6
 17 63  1  0
 17 64  1  0
 18 65  1  0
 18 66  1  0
 18 67  1  0
 19 68  1  0
 19 69  1  0
 21 70  1  0
 22 71  1  0
 23 72  1  0
 24 73  1  0
 27 74  1  0
 27 75  1  0
 27 76  1  0
 28 77  1  0
 29 78  1  0
 29 79  1  0
 30 80  1  0
 30 81  1  0
 31 82  1  0
 31 83  1  0
 32 84  1  0
 32 85  1  0
 33 86  1  0
 33 87  1  0
 34 88  1  0
 34 89  1  0
 35 90  1  6
 36 91  1  0
 36 92  1  0
 37 93  1  0
 37 94  1  0
 37 95  1  0
 38 96  1  0
 38 97  1  0
 40 98  1  0
 41 99  1  0
 42100  1  0
 43101  1  0
 45102  1  0
 45103  1  0
 45104  1  0
M  CHG  2  16   1  35   1
M  END
>  <score>  (3) 
-8.616

$$$$
=
     RDKit          3D

104106  0  0  0  0  0  0  0  0999 V2000
    4.0580   60.8340   70.1550 C   0  0  0  0  0  0  0  0  0  0  0  0
    3.4050   59.6730   70.2420 C   0  0  0  0  0  0  0  0  0  0  0  0
    3.3760   58.8350   71.4590 C   0  0  0  0  0  0  0  0  0  0  0  0
    2.7350   57.7880   71.4310 O   0  0  0  0  0  0  0  0  0  0  0  0
    4.1280   59.3210   72.6800 C   0  0  0  0  0  0  0  0  0  0  0  0
    4.7840   60.4860   72.5800 C   0  0  0  0  0  0  0  0  0  0  0  0
    4.8290   61.3000   71.3550 C   0  0  0  0  0  0  0  0  0  0  0  0
    5.5050   62.3260   71.3070 O   0  0  0  0  0  0  0  0  0  0  0  0
    4.1350   58.5870   73.8630 N   0  0  0  0  0  0  0  0  0  0  0  0
    3.1640   58.6120   74.9440 C   0  0  0  0  0  0  0  0  0  0  0  0
    2.2580   57.3810   74.8770 C   0  0  0  0  0  0  0  0  0  0  0  0
    0.8960   57.6620   75.5160 C   0  0  0  0  0  0  0  0  0  0  0  0
   -0.2780   57.5460   74.5360 C   0  0  0  0  0  0  0  0  0  0  0  0
   -1.6500   57.6110   75.2170 C   0  0  0  0  0  0  0  0  0  0  0  0
   -2.0790   59.0370   75.5810 C   0  0  0  0  0  0  0  0  0  0  0  0
   -3.0000   59.6370   74.5340 N   0  0  1  0  0  4  0  0  0  0  0  0
   -4.4640   59.4030   74.8400 C   0  0  0  0  0  0  0  0  0  0  0  0
   -5.2570   60.6780   74.6160 C   0  0  0  0  0  0  0  0  0  0  0  0
   -2.6990   61.1190   74.3240 C   0  0  0  0  0  0  0  0  0  0  0  0
   -1.2540   61.3820   73.9870 C   0  0  0  0  0  0  0  0  0  0  0  0
   -0.6760   60.7380   72.8780 C   0  0  0  0  0  0  0  0  0  0  0  0
    0.6610   60.9530   72.5510 C   0  0  0  0  0  0  0  0  0  0  0  0
    1.4330   61.8100   73.3270 C   0  0  0  0  0  0  0  0  0  0  0  0
    0.8730   62.4610   74.4280 C   0  0  0  0  0  0  0  0  0  0  0  0
   -0.4690   62.2570   74.7630 C   0  0  0  0  0  0  0  0  0  0  0  0
   -1.1010   62.8360   75.8310 O   0  0  0  0  0  0  0  0  0  0  0  0
   -0.8520   64.2230   76.0570 C   0  0  0  0  0  0  0  0  0  0  0  0
    4.0980   61.6840   69.0560 N   0  0  0  0  0  0  0  0  0  0  0  0
    3.3400   62.9060   68.8660 C   0  0  0  0  0  0  0  0  0  0  0  0
    2.2880   63.0940   69.9640 C   0  0  0  0  0  0  0  0  0  0  0  0
    2.1660   64.5480   70.4390 C   0  0  0  0  0  0  0  0  0  0  0  0
    0.7090   64.9200   70.7300 C   0  0  0  0  0  0  0  0  0  0  0  0
    0.2340   66.1720   69.9810 C   0  0  0  0  0  0  0  0  0  0  0  0
    1.3150   67.1100   69.4370 C   0  0  0  0  0  0  0  0  0  0  0  0
    0.9540   67.6740   68.0820 N   0  0  1  0  0  4  0  0  0  0  0  0
   -0.4120   67.2820   67.5640 C   0  0  0  0  0  0  0  0  0  0  0  0
   -0.9730   68.3830   66.6860 C   0  0  0  0  0  0  0  0  0  0  0  0
    1.1730   69.1820   68.0330 C   0  0  0  0  0  0  0  0  0  0  0  0
    3.2470   69.3400   66.5790 C   0  0  0  0  0  0  0  0  0  0  0  0
    4.5860   69.7000   66.4080 C   0  0  0  0  0  0  0  0  0  0  0  0
    5.2970   70.2800   67.4600 C   0  0  0  0  0  0  0  0  0  0  0  0
    4.6790   70.5040   68.6870 C   0  0  0  0  0  0  0  0  0  0  0  0
    3.3430   70.1540   68.8670 C   0  0  0  0  0  0  0  0  0  0  0  0
    2.6120   69.5780   67.8150 C   0  0  0  0  0  0  0  0  0  0  0  0
    3.0450   68.6330   64.3140 C   0  0  0  0  0  0  0  0  0  0  0  0
    2.4510   68.7870   65.6040 O   0  0  0  0  0  0  0  0  0  0  0  0
    2.8566   59.3195   69.3564 H   0  0  0  0  0  0  0  0  0  0  0  0
    5.3205   60.8553   73.4664 H   0  0  0  0  0  0  0  0  0  0  0  0
    4.9299   57.9441   73.9880 H   0  0  0  0  0  0  0  0  0  0  0  0
    3.6947   58.6192   75.9075 H   0  0  0  0  0  0  0  0  0  0  0  0
    2.5449   59.5159   74.8461 H   0  0  0  0  0  0  0  0  0  0  0  0
    2.1095   57.1015   73.8235 H   0  0  0  0  0  0  0  0  0  0  0  0
    2.7407   56.5622   75.4307 H   0  0  0  0  0  0  0  0  0  0  0  0
    0.7398   56.9417   76.3325 H   0  0  0  0  0  0  0  0  0  0  0  0
    0.9160   58.7021   75.8735 H   0  0  0  0  0  0  0  0  0  0  0  0
   -0.2095   58.3704   73.8110 H   0  0  0  0  0  0  0  0  0  0  0  0
   -0.2017   56.5602   74.0540 H   0  0  0  0  0  0  0  0  0  0  0  0
   -2.3994   57.1845   74.5340 H   0  0  0  0  0  0  0  0  0  0  0  0
   -1.5749   57.0435   76.1563 H   0  0  0  0  0  0  0  0  0  0  0  0
   -2.6056   59.0142   76.5465 H   0  0  0  0  0  0  0  0  0  0  0  0
   -1.1747   59.6608   75.6365 H   0  0  0  0  0  0  0  0  0  0  0  0
   -2.8087   59.1439   73.6502 H   0  0  0  0  0  0  0  0  0  0  0  0
   -4.8515   58.6134   74.1795 H   0  0  0  0  0  0  0  0  0  0  0  0
   -4.5663   59.0969   75.8916 H   0  0  0  0  0  0  0  0  0  0  0  0
   -5.5293   61.1159   75.5876 H   0  0  0  0  0  0  0  0  0  0  0  0
   -4.6455   61.3953   74.0490 H   0  0  0  0  0  0  0  0  0  0  0  0
   -6.1708   60.4466   74.0490 H   0  0  0  0  0  0  0  0  0  0  0  0
   -3.3250   61.4909   73.4995 H   0  0  0  0  0  0  0  0  0  0  0  0
   -2.9170   61.6373   75.2694 H   0  0  0  0  0  0  0  0  0  0  0  0
   -1.2851   60.0587   72.2636 H   0  0  0  0  0  0  0  0  0  0  0  0
    1.1046   60.4461   71.6813 H   0  0  0  0  0  0  0  0  0  0  0  0
    2.4902   61.9761   73.0724 H   0  0  0  0  0  0  0  0  0  0  0  0
    1.4913   63.1383   75.0354 H   0  0  0  0  0  0  0  0  0  0  0  0
   -0.8170   64.4177   77.1391 H   0  0  0  0  0  0  0  0  0  0  0  0
    0.1105   64.5015   75.6031 H   0  0  0  0  0  0  0  0  0  0  0  0
   -1.6575   64.8189   75.6031 H   0  0  0  0  0  0  0  0  0  0  0  0
    4.7359   61.4168   68.2927 H   0  0  0  0  0  0  0  0  0  0  0  0
    4.0314   63.7613   68.8839 H   0  0  0  0  0  0  0  0  0  0  0  0
    2.8199   62.8413   67.8989 H   0  0  0  0  0  0  0  0  0  0  0  0
    1.3121   62.7706   69.5727 H   0  0  0  0  0  0  0  0  0  0  0  0
    2.6054   62.4924   70.8285 H   0  0  0  0  0  0  0  0  0  0  0  0
    2.7582   64.6755   71.3571 H   0  0  0  0  0  0  0  0  0  0  0  0
    2.5385   65.2058   69.6399 H   0  0  0  0  0  0  0  0  0  0  0  0
    0.0689   64.0751   70.4362 H   0  0  0  0  0  0  0  0  0  0  0  0
    0.6410   65.1418   71.8053 H   0  0  0  0  0  0  0  0  0  0  0  0
   -0.3744   65.8372   69.1279 H   0  0  0  0  0  0  0  0  0  0  0  0
   -0.3069   66.7658   70.7326 H   0  0  0  0  0  0  0  0  0  0  0  0
    1.4490   67.9429   70.1429 H   0  0  0  0  0  0  0  0  0  0  0  0
    2.2412   66.5274   69.3239 H   0  0  0  0  0  0  0  0  0  0  0  0
    1.6087   67.2253   67.4256 H   0  0  0  0  0  0  0  0  0  0  0  0
   -0.3260   66.3563   66.9761 H   0  0  0  0  0  0  0  0  0  0  0  0
   -1.0880   67.1228   68.4171 H   0  0  0  0  0  0  0  0  0  0  0  0
   -1.3814   69.1845   67.3190 H   0  0  0  0  0  0  0  0  0  0  0  0
   -0.1721   68.7895   66.0509 H   0  0  0  0  0  0  0  0  0  0  0  0
   -1.7726   67.9740   66.0509 H   0  0  0  0  0  0  0  0  0  0  0  0
    0.5707   69.5940   67.2099 H   0  0  0  0  0  0  0  0  0  0  0  0
    0.8738   69.5827   69.0127 H   0  0  0  0  0  0  0  0  0  0  0  0
    5.0815   69.5259   65.4415 H   0  0  0  0  0  0  0  0  0  0  0  0
    6.3509   70.5614   67.3186 H   0  0  0  0  0  0  0  0  0  0  0  0
    5.2454   70.9571   69.5139 H   0  0  0  0  0  0  0  0  0  0  0  0
    2.8576   70.3296   69.8384 H   0  0  0  0  0  0  0  0  0  0  0  0
    4.1040   68.3584   64.4284 H   0  0  0  0  0  0  0  0  0  0  0  0
    2.5188   67.8416   63.7601 H   0  0  0  0  0  0  0  0  0  0  0  0
    2.9696   69.5804   63.7601 H   0  0  0  0  0  0  0  0  0  0  0  0
  2  1  2  0
  3  2  1  0
  4  3  2  0
  5  3  1  0
  6  5  2  0
  7  1  1  0
  7  6  1  0
  8  7  2  0
  9  5  1  0
 10  9  1  0
 11 10  1  0
 12 11  1  0
 13 12  1  0
 14 13  1  0
 15 14  1  0
 16 15  1  0
 17 16  1  0
 18 17  1  0
 19 16  1  0
 20 19  1  0
 21 20  2  0
 22 21  1  0
 23 22  2  0
 24 23  1  0
 25 24  2  0
 25 20  1  0
 26 25  1  0
 27 26  1  0
 28  1  1  0
 29 28  1  0
 30 29  1  0
 31 30  1  0
 32 31  1  0
 33 32  1  0
 34 33  1  0
 35 34  1  0
 36 35  1  0
 37 36  1  0
 38 35  1  0
 40 39  2  0
 41 40  1  0
 42 41  2  0
 43 42  1  0
 44 43  2  0
 44 39  1  0
 44 38  1  0
 46 45  1  0
 46 39  1  0
  2 47  1  0
  6 48  1  0
  9 49  1  0
 10 50  1  0
 10 51  1  0
 11 52  1  0
 11 53  1  0
 12 54  1  0
 12 55  1  0
 13 56  1  0
 13 57  1  0
 14 58  1  0
 14 59  1  0
 15 60  1  0
 15 61  1  0
 16 62  1  6
 17 63  1  0
 17 64  1  0
 18 65  1  0
 18 66  1  0
 18 67  1  0
 19 68  1  0
 19 69  1  0
 21 70  1  0
 22 71  1  0
 23 72  1  0
 24 73  1  0
 27 74  1  0
 27 75  1  0
 27 76  1  0
 28 77  1  0
 29 78  1  0
 29 79  1  0
 30 80  1  0
 30 81  1  0
 31 82  1  0
 31 83  1  0
 32 84  1  0
 32 85  1  0
 33 86  1  0
 33 87  1  0
 34 88  1  0
 34 89  1  0
 35 90  1  6
 36 91  1  0
 36 92  1  0
 37 93  1  0
 37 94  1  0
 37 95  1  0
 38 96  1  0
 38 97  1  0
 40 98  1  0
 41 99  1  0
 42100  1  0
 43101  1  0
 45102  1  0
 45103  1  0
 45104  1  0
M  CHG  2  16   1  35   1
M  END
>  <score>  (4) 
-8.608

$$$$
=
     RDKit          3D

104106  0  0  0  0  0  0  0  0999 V2000
    3.0050   58.5920   72.8980 C   0  0  0  0  0  0  0  0  0  0  0  0
    3.1670   58.4030   71.5860 C   0  0  0  0  0  0  0  0  0  0  0  0
    3.6510   59.4480   70.6590 C   0  0  0  0  0  0  0  0  0  0  0  0
    3.7710   59.1620   69.4710 O   0  0  0  0  0  0  0  0  0  0  0  0
    3.9870   60.8100   71.2290 C   0  0  0  0  0  0  0  0  0  0  0  0
    3.8170   60.9880   72.5460 C   0  0  0  0  0  0  0  0  0  0  0  0
    3.3080   59.9510   73.4560 C   0  0  0  0  0  0  0  0  0  0  0  0
    3.1100   60.1990   74.6440 O   0  0  0  0  0  0  0  0  0  0  0  0
    4.4580   61.8360   70.4140 N   0  0  0  0  0  0  0  0  0  0  0  0
    4.1730   63.2580   70.5010 C   0  0  0  0  0  0  0  0  0  0  0  0
    2.7390   63.5440   70.0530 C   0  0  0  0  0  0  0  0  0  0  0  0
    2.2780   64.9260   70.5210 C   0  0  0  0  0  0  0  0  0  0  0  0
    0.7540   65.0790   70.5800 C   0  0  0  0  0  0  0  0  0  0  0  0
    0.2010   66.0830   69.5620 C   0  0  0  0  0  0  0  0  0  0  0  0
    1.1710   67.2300   69.2550 C   0  0  0  0  0  0  0  0  0  0  0  0
    1.0190   67.7360   67.8320 N   0  0  1  0  0  4  0  0  0  0  0  0
   -0.3280   67.3940   67.2310 C   0  0  0  0  0  0  0  0  0  0  0  0
   -0.9840   68.6440   66.6700 C   0  0  0  0  0  0  0  0  0  0  0  0
    1.3090   69.2330   67.7480 C   0  0  0  0  0  0  0  0  0  0  0  0
    2.7580   69.5340   67.4630 C   0  0  0  0  0  0  0  0  0  0  0  0
    3.5490   70.1240   68.4660 C   0  0  0  0  0  0  0  0  0  0  0  0
    4.8880   70.4250   68.2260 C   0  0  0  0  0  0  0  0  0  0  0  0
    5.4490   70.1410   66.9850 C   0  0  0  0  0  0  0  0  0  0  0  0
    4.6780   69.5500   65.9830 C   0  0  0  0  0  0  0  0  0  0  0  0
    3.3350   69.2390   66.2130 C   0  0  0  0  0  0  0  0  0  0  0  0
    2.4970   68.6760   65.2880 O   0  0  0  0  0  0  0  0  0  0  0  0
    2.9360   67.4690   64.6660 C   0  0  0  0  0  0  0  0  0  0  0  0
    2.5870   57.6470   73.8280 N   0  0  0  0  0  0  0  0  0  0  0  0
    1.8430   56.4300   73.5660 C   0  0  0  0  0  0  0  0  0  0  0  0
    0.3590   56.7190   73.3170 C   0  0  0  0  0  0  0  0  0  0  0  0
   -0.5710   55.9400   74.2570 C   0  0  0  0  0  0  0  0  0  0  0  0
    0.0760   55.7230   75.6290 C   0  0  0  0  0  0  0  0  0  0  0  0
   -0.5610   56.5590   76.7470 C   0  0  0  0  0  0  0  0  0  0  0  0
   -0.2430   58.0570   76.7630 C   0  0  0  0  0  0  0  0  0  0  0  0
   -1.2900   58.8720   76.0380 N   0  0  1  0  0  4  0  0  0  0  0  0
   -2.7220   58.5120   76.3600 C   0  0  0  0  0  0  0  0  0  0  0  0
   -3.6360   58.9460   75.2300 C   0  0  0  0  0  0  0  0  0  0  0  0
   -1.0270   60.3670   76.1850 C   0  0  0  0  0  0  0  0  0  0  0  0
   -0.2580   62.4040   74.8810 C   0  0  0  0  0  0  0  0  0  0  0  0
    0.1710   62.9920   73.6890 C   0  0  0  0  0  0  0  0  0  0  0  0
    0.3010   62.2220   72.5320 C   0  0  0  0  0  0  0  0  0  0  0  0
    0.0050   60.8620   72.5570 C   0  0  0  0  0  0  0  0  0  0  0  0
   -0.4180   60.2630   73.7420 C   0  0  0  0  0  0  0  0  0  0  0  0
   -0.5450   61.0240   74.9160 C   0  0  0  0  0  0  0  0  0  0  0  0
    0.8140   63.4020   76.7600 C   0  0  0  0  0  0  0  0  0  0  0  0
   -0.3960   63.0650   76.0790 O   0  0  0  0  0  0  0  0  0  0  0  0
    2.9265   57.4130   71.1712 H   0  0  0  0  0  0  0  0  0  0  0  0
    4.0737   61.9690   72.9723 H   0  0  0  0  0  0  0  0  0  0  0  0
    5.0893   61.5503   69.6519 H   0  0  0  0  0  0  0  0  0  0  0  0
    4.3003   63.5899   71.5420 H   0  0  0  0  0  0  0  0  0  0  0  0
    4.8670   63.8014   69.8428 H   0  0  0  0  0  0  0  0  0  0  0  0
    2.6913   63.5027   68.9548 H   0  0  0  0  0  0  0  0  0  0  0  0
    2.0773   62.7868   70.4988 H   0  0  0  0  0  0  0  0  0  0  0  0
    2.6844   65.1055   71.5273 H   0  0  0  0  0  0  0  0  0  0  0  0
    2.6463   65.6548   69.7839 H   0  0  0  0  0  0  0  0  0  0  0  0
    0.2976   64.0975   70.3844 H   0  0  0  0  0  0  0  0  0  0  0  0
    0.5055   65.4623   71.5807 H   0  0  0  0  0  0  0  0  0  0  0  0
   -0.0150   65.5479   68.6255 H   0  0  0  0  0  0  0  0  0  0  0  0
   -0.7032   66.5291   70.0017 H   0  0  0  0  0  0  0  0  0  0  0  0
    0.9724   68.0591   69.9501 H   0  0  0  0  0  0  0  0  0  0  0  0
    2.1963   66.8495   69.3732 H   0  0  0  0  0  0  0  0  0  0  0  0
    1.7216   67.2426   67.2630 H   0  0  0  0  0  0  0  0  0  0  0  0
   -0.1896   66.6618   66.4219 H   0  0  0  0  0  0  0  0  0  0  0  0
   -0.9736   66.9702   68.0143 H   0  0  0  0  0  0  0  0  0  0  0  0
   -1.3203   69.2849   67.4984 H   0  0  0  0  0  0  0  0  0  0  0  0
   -0.2581   69.1935   66.0527 H   0  0  0  0  0  0  0  0  0  0  0  0
   -1.8486   68.3588   66.0527 H   0  0  0  0  0  0  0  0  0  0  0  0
    0.6958   69.6648   66.9433 H   0  0  0  0  0  0  0  0  0  0  0  0
    1.0668   69.6719   68.7272 H   0  0  0  0  0  0  0  0  0  0  0  0
    3.1066   70.3494   69.4476 H   0  0  0  0  0  0  0  0  0  0  0  0
    5.4998   70.8859   69.0155 H   0  0  0  0  0  0  0  0  0  0  0  0
    6.5046   70.3833   66.7927 H   0  0  0  0  0  0  0  0  0  0  0  0
    5.1305   69.3274   65.0054 H   0  0  0  0  0  0  0  0  0  0  0  0
    3.2033   66.7341   65.4396 H   0  0  0  0  0  0  0  0  0  0  0  0
    2.1275   67.0643   64.0395 H   0  0  0  0  0  0  0  0  0  0  0  0
    3.8156   67.6783   64.0395 H   0  0  0  0  0  0  0  0  0  0  0  0
    2.8327   57.8314   74.8111 H   0  0  0  0  0  0  0  0  0  0  0  0
    2.2649   55.9379   72.6773 H   0  0  0  0  0  0  0  0  0  0  0  0
    1.9235   55.7803   74.4500 H   0  0  0  0  0  0  0  0  0  0  0  0
    0.1825   57.7950   73.4622 H   0  0  0  0  0  0  0  0  0  0  0  0
    0.1301   56.3996   72.2896 H   0  0  0  0  0  0  0  0  0  0  0  0
   -1.5048   56.5066   74.3871 H   0  0  0  0  0  0  0  0  0  0  0  0
   -0.7713   54.9556   73.8088 H   0  0  0  0  0  0  0  0  0  0  0  0
   -0.0177   54.6594   75.8935 H   0  0  0  0  0  0  0  0  0  0  0  0
    1.1254   56.0421   75.5452 H   0  0  0  0  0  0  0  0  0  0  0  0
   -1.6524   56.4525   76.6601 H   0  0  0  0  0  0  0  0  0  0  0  0
   -0.1291   56.1656   77.6790 H   0  0  0  0  0  0  0  0  0  0  0  0
   -0.1908   58.3967   77.8079 H   0  0  0  0  0  0  0  0  0  0  0  0
    0.7165   58.2036   76.2454 H   0  0  0  0  0  0  0  0  0  0  0  0
   -1.1861   58.6166   75.0456 H   0  0  0  0  0  0  0  0  0  0  0  0
   -2.8018   57.4232   76.4946 H   0  0  0  0  0  0  0  0  0  0  0  0
   -3.0232   59.0268   77.2842 H   0  0  0  0  0  0  0  0  0  0  0  0
   -4.5549   59.3823   75.6487 H   0  0  0  0  0  0  0  0  0  0  0  0
   -3.1227   59.6965   74.6109 H   0  0  0  0  0  0  0  0  0  0  0  0
   -3.8932   58.0739   74.6109 H   0  0  0  0  0  0  0  0  0  0  0  0
   -1.9623   60.8555   76.4957 H   0  0  0  0  0  0  0  0  0  0  0  0
   -0.2267   60.4814   76.9310 H   0  0  0  0  0  0  0  0  0  0  0  0
    0.4073   64.0660   73.6618 H   0  0  0  0  0  0  0  0  0  0  0  0
    0.6388   62.6919   71.5965 H   0  0  0  0  0  0  0  0  0  0  0  0
    0.1050   60.2603   71.6416 H   0  0  0  0  0  0  0  0  0  0  0  0
   -0.6537   59.1887   73.7582 H   0  0  0  0  0  0  0  0  0  0  0  0
    0.6483   63.3559   77.8465 H   0  0  0  0  0  0  0  0  0  0  0  0
    1.6036   62.6896   76.4789 H   0  0  0  0  0  0  0  0  0  0  0  0
    1.1216   64.4200   76.4789 H   0  0  0  0  0  0  0  0  0  0  0  0
  2  1  2  0
  3  2  1  0
  4  3  2  0
  5  3  1  0
  6  5  2  0
  7  1  1  0
  7  6  1  0
  8  7  2  0
  9  5  1  0
 10  9  1  0
 11 10  1  0
 12 11  1  0
 13 12  1  0
 14 13  1  0
 15 14  1  0
 16 15  1  0
 17 16  1  0
 18 17  1  0
 19 16  1  0
 20 19  1  0
 21 20  2  0
 22 21  1  0
 23 22  2  0
 24 23  1  0
 25 24  2  0
 25 20  1  0
 26 25  1  0
 27 26  1  0
 28  1  1  0
 29 28  1  0
 30 29  1  0
 31 30  1  0
 32 31  1  0
 33 32  1  0
 34 33  1  0
 35 34  1  0
 36 35  1  0
 37 36  1  0
 38 35  1  0
 40 39  2  0
 41 40  1  0
 42 41  2  0
 43 42  1  0
 44 43  2  0
 44 39  1  0
 44 38  1  0
 46 45  1  0
 46 39  1  0
  2 47  1  0
  6 48  1  0
  9 49  1  0
 10 50  1  0
 10 51  1  0
 11 52  1  0
 11 53  1  0
 12 54  1  0
 12 55  1  0
 13 56  1  0
 13 57  1  0
 14 58  1  0
 14 59  1  0
 15 60  1  0
 15 61  1  0
 16 62  1  6
 17 63  1  0
 17 64  1  0
 18 65  1  0
 18 66  1  0
 18 67  1  0
 19 68  1  0
 19 69  1  0
 21 70  1  0
 22 71  1  0
 23 72  1  0
 24 73  1  0
 27 74  1  0
 27 75  1  0
 27 76  1  0
 28 77  1  0
 29 78  1  0
 29 79  1  0
 30 80  1  0
 30 81  1  0
 31 82  1  0
 31 83  1  0
 32 84  1  0
 32 85  1  0
 33 86  1  0
 33 87  1  0
 34 88  1  0
 34 89  1  0
 35 90  1  6
 36 91  1  0
 36 92  1  0
 37 93  1  0
 37 94  1  0
 37 95  1  0
 38 96  1  0
 38 97  1  0
 40 98  1  0
 41 99  1  0
 42100  1  0
 43101  1  0
 45102  1  0
 45103  1  0
 45104  1  0
M  CHG  2  16   1  35   1
M  END
>  <score>  (5) 
-8.403

$$$$
=
     RDKit          3D

104106  0  0  0  0  0  0  0  0999 V2000
    3.5920   64.5790   65.0050 C   0  0  0  0  0  0  0  0  0  0  0  0
    2.6970   65.5700   65.0470 C   0  0  0  0  0  0  0  0  0  0  0  0
    2.6190   66.6490   64.0400 C   0  0  0  0  0  0  0  0  0  0  0  0
    1.7490   67.5060   64.1710 O   0  0  0  0  0  0  0  0  0  0  0  0
    3.6070   66.6300   62.8920 C   0  0  0  0  0  0  0  0  0  0  0  0
    4.5020   65.6330   62.8640 C   0  0  0  0  0  0  0  0  0  0  0  0
    4.5900   64.5790   63.8850 C   0  0  0  0  0  0  0  0  0  0  0  0
    5.4780   63.7300   63.8380 O   0  0  0  0  0  0  0  0  0  0  0  0
    3.5820   67.6090   61.9030 N   0  0  0  0  0  0  0  0  0  0  0  0
    4.0610   68.9790   61.9790 C   0  0  0  0  0  0  0  0  0  0  0  0
    5.5290   69.0080   62.4090 C   0  0  0  0  0  0  0  0  0  0  0  0
    5.7030   69.7600   63.7310 C   0  0  0  0  0  0  0  0  0  0  0  0
    5.3430   68.9250   64.9660 C   0  0  0  0  0  0  0  0  0  0  0  0
    4.1050   69.4380   65.7100 C   0  0  0  0  0  0  0  0  0  0  0  0
    4.3910   69.8280   67.1650 C   0  0  0  0  0  0  0  0  0  0  0  0
    3.2080   69.5420   68.0730 N   0  0  1  0  0  4  0  0  0  0  0  0
    2.9120   70.6840   69.0220 C   0  0  0  0  0  0  0  0  0  0  0  0
    4.2020   71.3710   69.4340 C   0  0  0  0  0  0  0  0  0  0  0  0
    1.9760   69.1500   67.2620 C   0  0  0  0  0  0  0  0  0  0  0  0
    1.1120   68.1330   67.9630 C   0  0  0  0  0  0  0  0  0  0  0  0
    1.5590   67.5650   69.1710 C   0  0  0  0  0  0  0  0  0  0  0  0
    0.7860   66.6140   69.8330 C   0  0  0  0  0  0  0  0  0  0  0  0
   -0.4360   66.2200   69.2980 C   0  0  0  0  0  0  0  0  0  0  0  0
   -0.8940   66.7780   68.1040 C   0  0  0  0  0  0  0  0  0  0  0  0
   -0.1300   67.7380   67.4320 C   0  0  0  0  0  0  0  0  0  0  0  0
   -0.4880   68.3280   66.2490 O   0  0  0  0  0  0  0  0  0  0  0  0
   -1.6090   69.2110   66.2790 C   0  0  0  0  0  0  0  0  0  0  0  0
    3.6990   63.5190   65.8980 N   0  0  0  0  0  0  0  0  0  0  0  0
    3.8020   63.5980   67.3430 C   0  0  0  0  0  0  0  0  0  0  0  0
    3.4710   62.2570   68.0050 C   0  0  0  0  0  0  0  0  0  0  0  0
    3.3630   62.3520   69.5330 C   0  0  0  0  0  0  0  0  0  0  0  0
    2.2460   63.3110   69.9560 C   0  0  0  0  0  0  0  0  0  0  0  0
    1.7330   63.0660   71.3810 C   0  0  0  0  0  0  0  0  0  0  0  0
    2.7690   62.6600   72.4340 C   0  0  0  0  0  0  0  0  0  0  0  0
    2.3300   61.4530   73.2310 N   0  0  1  0  0  4  0  0  0  0  0  0
    2.1350   61.6950   74.7110 C   0  0  0  0  0  0  0  0  0  0  0  0
    0.7830   62.3360   74.9610 C   0  0  0  0  0  0  0  0  0  0  0  0
    1.1180   60.7800   72.5960 C   0  0  0  0  0  0  0  0  0  0  0  0
    1.9450   58.3840   72.7220 C   0  0  0  0  0  0  0  0  0  0  0  0
    1.7530   57.0510   73.0900 C   0  0  0  0  0  0  0  0  0  0  0  0
    0.5710   56.6590   73.7200 C   0  0  0  0  0  0  0  0  0  0  0  0
   -0.4260   57.5930   73.9860 C   0  0  0  0  0  0  0  0  0  0  0  0
   -0.2440   58.9270   73.6270 C   0  0  0  0  0  0  0  0  0  0  0  0
    0.9450   59.3370   73.0010 C   0  0  0  0  0  0  0  0  0  0  0  0
    3.3560   58.3980   70.8020 C   0  0  0  0  0  0  0  0  0  0  0  0
    3.0780   58.8780   72.1200 O   0  0  0  0  0  0  0  0  0  0  0  0
    1.9770   65.5837   65.8785 H   0  0  0  0  0  0  0  0  0  0  0  0
    5.2141   65.6014   62.0262 H   0  0  0  0  0  0  0  0  0  0  0  0
    3.1714   67.3263   61.0017 H   0  0  0  0  0  0  0  0  0  0  0  0
    3.9634   69.4524   60.9909 H   0  0  0  0  0  0  0  0  0  0  0  0
    3.4611   69.5260   62.7212 H   0  0  0  0  0  0  0  0  0  0  0  0
    5.8870   67.9754   62.5336 H   0  0  0  0  0  0  0  0  0  0  0  0
    6.1094   69.5283   61.6329 H   0  0  0  0  0  0  0  0  0  0  0  0
    6.7541   70.0726   63.8172 H   0  0  0  0  0  0  0  0  0  0  0  0
    5.0119   70.6155   63.7081 H   0  0  0  0  0  0  0  0  0  0  0  0
    5.1520   67.8908   64.6437 H   0  0  0  0  0  0  0  0  0  0  0  0
    6.1915   68.9944   65.6626 H   0  0  0  0  0  0  0  0  0  0  0  0
    3.7207   70.3223   65.1805 H   0  0  0  0  0  0  0  0  0  0  0  0
    3.3732   68.6170   65.7303 H   0  0  0  0  0  0  0  0  0  0  0  0
    5.2596   69.2553   67.5221 H   0  0  0  0  0  0  0  0  0  0  0  0
    4.5886   70.9097   67.1945 H   0  0  0  0  0  0  0  0  0  0  0  0
    3.4701   68.7386   68.6618 H   0  0  0  0  0  0  0  0  0  0  0  0
    2.2565   71.4118   68.5214 H   0  0  0  0  0  0  0  0  0  0  0  0
    2.4150   70.2858   69.9189 H   0  0  0  0  0  0  0  0  0  0  0  0
    4.2651   71.4046   70.5317 H   0  0  0  0  0  0  0  0  0  0  0  0
    5.0599   70.8103   69.0344 H   0  0  0  0  0  0  0  0  0  0  0  0
    4.2155   72.3958   69.0344 H   0  0  0  0  0  0  0  0  0  0  0  0
    1.3756   70.0529   67.0770 H   0  0  0  0  0  0  0  0  0  0  0  0
    2.3287   68.6941   66.3251 H   0  0  0  0  0  0  0  0  0  0  0  0
    2.5256   67.8744   69.5952 H   0  0  0  0  0  0  0  0  0  0  0  0
    1.1413   66.1754   70.7771 H   0  0  0  0  0  0  0  0  0  0  0  0
   -1.0439   65.4653   69.8184 H   0  0  0  0  0  0  0  0  0  0  0  0
   -1.8619   66.4610   67.6885 H   0  0  0  0  0  0  0  0  0  0  0  0
   -1.8798   69.4243   67.3236 H   0  0  0  0  0  0  0  0  0  0  0  0
   -1.3498   70.1501   65.7683 H   0  0  0  0  0  0  0  0  0  0  0  0
   -2.4613   68.7390   65.7683 H   0  0  0  0  0  0  0  0  0  0  0  0
    3.7059   62.5738   65.4889 H   0  0  0  0  0  0  0  0  0  0  0  0
    4.8289   63.8856   67.6127 H   0  0  0  0  0  0  0  0  0  0  0  0
    3.0786   64.3460   67.6995 H   0  0  0  0  0  0  0  0  0  0  0  0
    2.5103   61.8977   67.6075 H   0  0  0  0  0  0  0  0  0  0  0  0
    4.2951   61.5652   67.7762 H   0  0  0  0  0  0  0  0  0  0  0  0
    3.1495   61.3524   69.9395 H   0  0  0  0  0  0  0  0  0  0  0  0
    4.3163   62.7371   69.9241 H   0  0  0  0  0  0  0  0  0  0  0  0
    2.6302   64.3400   69.8968 H   0  0  0  0  0  0  0  0  0  0  0  0
    1.3994   63.1407   69.2746 H   0  0  0  0  0  0  0  0  0  0  0  0
    1.2560   63.9952   71.7261 H   0  0  0  0  0  0  0  0  0  0  0  0
    1.0583   62.2014   71.2965 H   0  0  0  0  0  0  0  0  0  0  0  0
    3.7161   62.4242   71.9267 H   0  0  0  0  0  0  0  0  0  0  0  0
    2.8879   63.5012   73.1328 H   0  0  0  0  0  0  0  0  0  0  0  0
    3.1271   60.8021   73.1870 H   0  0  0  0  0  0  0  0  0  0  0  0
    2.1873   60.7356   75.2465 H   0  0  0  0  0  0  0  0  0  0  0  0
    2.9254   62.3692   75.0727 H   0  0  0  0  0  0  0  0  0  0  0  0
    0.6107   62.4177   76.0443 H   0  0  0  0  0  0  0  0  0  0  0  0
    0.7638   63.3391   74.5100 H   0  0  0  0  0  0  0  0  0  0  0  0
   -0.0058   61.7160   74.5100 H   0  0  0  0  0  0  0  0  0  0  0  0
    0.2164   61.3351   72.8943 H   0  0  0  0  0  0  0  0  0  0  0  0
    1.2768   60.7919   71.5076 H   0  0  0  0  0  0  0  0  0  0  0  0
    2.5362   56.3070   72.8826 H   0  0  0  0  0  0  0  0  0  0  0  0
    0.4267   55.6071   74.0076 H   0  0  0  0  0  0  0  0  0  0  0  0
   -1.3573   57.2782   74.4795 H   0  0  0  0  0  0  0  0  0  0  0  0
   -1.0351   59.6626   73.8347 H   0  0  0  0  0  0  0  0  0  0  0  0
    3.9064   57.4478   70.8663 H   0  0  0  0  0  0  0  0  0  0  0  0
    2.4105   58.2384   70.2629 H   0  0  0  0  0  0  0  0  0  0  0  0
    3.9650   59.1386   70.2629 H   0  0  0  0  0  0  0  0  0  0  0  0
  2  1  2  0
  3  2  1  0
  4  3  2  0
  5  3  1  0
  6  5  2  0
  7  1  1  0
  7  6  1  0
  8  7  2  0
  9  5  1  0
 10  9  1  0
 11 10  1  0
 12 11  1  0
 13 12  1  0
 14 13  1  0
 15 14  1  0
 16 15  1  0
 17 16  1  0
 18 17  1  0
 19 16  1  0
 20 19  1  0
 21 20  2  0
 22 21  1  0
 23 22  2  0
 24 23  1  0
 25 24  2  0
 25 20  1  0
 26 25  1  0
 27 26  1  0
 28  1  1  0
 29 28  1  0
 30 29  1  0
 31 30  1  0
 32 31  1  0
 33 32  1  0
 34 33  1  0
 35 34  1  0
 36 35  1  0
 37 36  1  0
 38 35  1  0
 40 39  2  0
 41 40  1  0
 42 41  2  0
 43 42  1  0
 44 43  2  0
 44 39  1  0
 44 38  1  0
 46 45  1  0
 46 39  1  0
  2 47  1  0
  6 48  1  0
  9 49  1  0
 10 50  1  0
 10 51  1  0
 11 52  1  0
 11 53  1  0
 12 54  1  0
 12 55  1  0
 13 56  1  0
 13 57  1  0
 14 58  1  0
 14 59  1  0
 15 60  1  0
 15 61  1  0
 16 62  1  1
 17 63  1  0
 17 64  1  0
 18 65  1  0
 18 66  1  0
 18 67  1  0
 19 68  1  0
 19 69  1  0
 21 70  1  0
 22 71  1  0
 23 72  1  0
 24 73  1  0
 27 74  1  0
 27 75  1  0
 27 76  1  0
 28 77  1  0
 29 78  1  0
 29 79  1  0
 30 80  1  0
 30 81  1  0
 31 82  1  0
 31 83  1  0
 32 84  1  0
 32 85  1  0
 33 86  1  0
 33 87  1  0
 34 88  1  0
 34 89  1  0
 35 90  1  1
 36 91  1  0
 36 92  1  0
 37 93  1  0
 37 94  1  0
 37 95  1  0
 38 96  1  0
 38 97  1  0
 40 98  1  0
 41 99  1  0
 42100  1  0
 43101  1  0
 45102  1  0
 45103  1  0
 45104  1  0
M  CHG  2  16   1  35   1
M  END
>  <score>  (6) 
-8.278

$$$$
=
     RDKit          3D

104106  0  0  0  0  0  0  0  0999 V2000
    3.1900   58.3630   72.7070 C   0  0  0  0  0  0  0  0  0  0  0  0
    3.2500   58.4940   71.3790 C   0  0  0  0  0  0  0  0  0  0  0  0
    3.8140   59.6770   70.6950 C   0  0  0  0  0  0  0  0  0  0  0  0
    3.8270   59.6880   69.4670 O   0  0  0  0  0  0  0  0  0  0  0  0
    4.3570   60.8050   71.5460 C   0  0  0  0  0  0  0  0  0  0  0  0
    4.2880   60.6630   72.8770 C   0  0  0  0  0  0  0  0  0  0  0  0
    3.7010   59.4950   73.5490 C   0  0  0  0  0  0  0  0  0  0  0  0
    3.6050   59.4560   74.7750 O   0  0  0  0  0  0  0  0  0  0  0  0
    4.9120   61.9430   70.9670 N   0  0  0  0  0  0  0  0  0  0  0  0
    4.2300   63.0310   70.2870 C   0  0  0  0  0  0  0  0  0  0  0  0
    2.9360   63.3900   71.0180 C   0  0  0  0  0  0  0  0  0  0  0  0
    2.3010   64.6530   70.4300 C   0  0  0  0  0  0  0  0  0  0  0  0
    0.7810   64.7210   70.6170 C   0  0  0  0  0  0  0  0  0  0  0  0
    0.1760   66.0710   70.2130 C   0  0  0  0  0  0  0  0  0  0  0  0
    1.1350   66.9420   69.3930 C   0  0  0  0  0  0  0  0  0  0  0  0
    0.5590   67.2940   68.0330 N   0  0  1  0  0  4  0  0  0  0  0  0
   -0.8960   66.9000   67.8950 C   0  0  0  0  0  0  0  0  0  0  0  0
   -1.6660   67.9890   67.1680 C   0  0  0  0  0  0  0  0  0  0  0  0
    0.7760   68.7700   67.7100 C   0  0  0  0  0  0  0  0  0  0  0  0
    2.0360   69.0190   66.9220 C   0  0  0  0  0  0  0  0  0  0  0  0
    2.0760   68.6740   65.5580 C   0  0  0  0  0  0  0  0  0  0  0  0
    3.2310   68.8820   64.8090 C   0  0  0  0  0  0  0  0  0  0  0  0
    4.3570   69.4340   65.4110 C   0  0  0  0  0  0  0  0  0  0  0  0
    4.3310   69.7870   66.7610 C   0  0  0  0  0  0  0  0  0  0  0  0
    3.1760   69.5880   67.5230 C   0  0  0  0  0  0  0  0  0  0  0  0
    3.0610   69.8860   68.8550 O   0  0  0  0  0  0  0  0  0  0  0  0
    3.9390   70.8840   69.3740 C   0  0  0  0  0  0  0  0  0  0  0  0
    2.7050   57.2680   73.4120 N   0  0  0  0  0  0  0  0  0  0  0  0
    1.4730   57.1920   74.1740 C   0  0  0  0  0  0  0  0  0  0  0  0
    0.3200   57.8950   73.4510 C   0  0  0  0  0  0  0  0  0  0  0  0
   -0.0130   59.2700   74.0450 C   0  0  0  0  0  0  0  0  0  0  0  0
    0.0790   60.3730   72.9860 C   0  0  0  0  0  0  0  0  0  0  0  0
   -0.9140   61.5220   73.2080 C   0  0  0  0  0  0  0  0  0  0  0  0
   -0.9670   62.1350   74.6090 C   0  0  0  0  0  0  0  0  0  0  0  0
   -2.1830   61.6830   75.3850 N   0  0  1  0  0  4  0  0  0  0  0  0
   -2.6080   62.6010   76.5090 C   0  0  0  0  0  0  0  0  0  0  0  0
   -2.9330   61.7920   77.7500 C   0  0  0  0  0  0  0  0  0  0  0  0
   -3.3410   61.3460   74.4530 C   0  0  0  0  0  0  0  0  0  0  0  0
   -5.4010   59.8660   74.5550 C   0  0  0  0  0  0  0  0  0  0  0  0
   -6.0090   58.6510   74.8810 C   0  0  0  0  0  0  0  0  0  0  0  0
   -5.2560   57.6160   75.4380 C   0  0  0  0  0  0  0  0  0  0  0  0
   -3.8940   57.7860   75.6730 C   0  0  0  0  0  0  0  0  0  0  0  0
   -3.2770   58.9900   75.3470 C   0  0  0  0  0  0  0  0  0  0  0  0
   -4.0200   60.0380   74.7780 C   0  0  0  0  0  0  0  0  0  0  0  0
   -7.4540   60.8040   73.7960 C   0  0  0  0  0  0  0  0  0  0  0  0
   -6.0440   60.9380   73.9820 O   0  0  0  0  0  0  0  0  0  0  0  0
    2.8573   57.6747   70.7589 H   0  0  0  0  0  0  0  0  0  0  0  0
    4.6954   61.4695   73.5044 H   0  0  0  0  0  0  0  0  0  0  0  0
    5.9370   62.0240   71.0285 H   0  0  0  0  0  0  0  0  0  0  0  0
    4.8883   63.9119   70.2621 H   0  0  0  0  0  0  0  0  0  0  0  0
    3.9844   62.7130   69.2630 H   0  0  0  0  0  0  0  0  0  0  0  0
    2.2268   62.5544   70.9238 H   0  0  0  0  0  0  0  0  0  0  0  0
    3.1737   63.5791   72.0752 H   0  0  0  0  0  0  0  0  0  0  0  0
    2.7510   65.5288   70.9203 H   0  0  0  0  0  0  0  0  0  0  0  0
    2.4918   64.6352   69.3468 H   0  0  0  0  0  0  0  0  0  0  0  0
    0.3188   63.9343   70.0026 H   0  0  0  0  0  0  0  0  0  0  0  0
    0.5800   64.5838   71.6897 H   0  0  0  0  0  0  0  0  0  0  0  0
   -0.7264   65.8839   69.6124 H   0  0  0  0  0  0  0  0  0  0  0  0
   -0.0504   66.6181   71.1401 H   0  0  0  0  0  0  0  0  0  0  0  0
    1.3325   67.8717   69.9468 H   0  0  0  0  0  0  0  0  0  0  0  0
    2.0614   66.3708   69.2330 H   0  0  0  0  0  0  0  0  0  0  0  0
    1.0750   66.7368   67.3372 H   0  0  0  0  0  0  0  0  0  0  0  0
   -0.9662   65.9622   67.3244 H   0  0  0  0  0  0  0  0  0  0  0  0
   -1.3278   66.7621   68.8972 H   0  0  0  0  0  0  0  0  0  0  0  0
   -2.1384   68.6571   67.9031 H   0  0  0  0  0  0  0  0  0  0  0  0
   -0.9752   68.5678   66.5372 H   0  0  0  0  0  0  0  0  0  0  0  0
   -2.4419   67.5307   66.5372 H   0  0  0  0  0  0  0  0  0  0  0  0
   -0.0818   69.1307   67.1234 H   0  0  0  0  0  0  0  0  0  0  0  0
    0.8731   69.3061   68.6656 H   0  0  0  0  0  0  0  0  0  0  0  0
    1.1873   68.2364   65.0798 H   0  0  0  0  0  0  0  0  0  0  0  0
    3.2531   68.6104   63.7433 H   0  0  0  0  0  0  0  0  0  0  0  0
    5.2715   69.5929   64.8207 H   0  0  0  0  0  0  0  0  0  0  0  0
    5.2253   70.2247   67.2286 H   0  0  0  0  0  0  0  0  0  0  0  0
    3.9155   70.8572   70.4734 H   0  0  0  0  0  0  0  0  0  0  0  0
    4.9635   70.6888   69.0243 H   0  0  0  0  0  0  0  0  0  0  0  0
    3.6149   71.8753   69.0243 H   0  0  0  0  0  0  0  0  0  0  0  0
    3.2842   56.4165   73.3912 H   0  0  0  0  0  0  0  0  0  0  0  0
    1.2096   56.1344   74.3226 H   0  0  0  0  0  0  0  0  0  0  0  0
    1.6329   57.6956   75.1388 H   0  0  0  0  0  0  0  0  0  0  0  0
    0.5979   58.0277   72.3950 H   0  0  0  0  0  0  0  0  0  0  0  0
   -0.5731   57.2630   73.5653 H   0  0  0  0  0  0  0  0  0  0  0  0
   -1.0355   59.2469   74.4499 H   0  0  0  0  0  0  0  0  0  0  0  0
    0.7161   59.4902   74.8387 H   0  0  0  0  0  0  0  0  0  0  0  0
    1.0983   60.7863   73.0019 H   0  0  0  0  0  0  0  0  0  0  0  0
   -0.1708   59.9131   72.0185 H   0  0  0  0  0  0  0  0  0  0  0  0
   -0.6536   62.3260   72.5039 H   0  0  0  0  0  0  0  0  0  0  0  0
   -1.9070   61.0742   73.0550 H   0  0  0  0  0  0  0  0  0  0  0  0
   -0.0635   61.8361   75.1607 H   0  0  0  0  0  0  0  0  0  0  0  0
   -1.0250   63.2278   74.4972 H   0  0  0  0  0  0  0  0  0  0  0  0
   -1.8857   60.8215   75.8649 H   0  0  0  0  0  0  0  0  0  0  0  0
   -1.7904   63.3013   76.7353 H   0  0  0  0  0  0  0  0  0  0  0  0
   -3.5040   63.1584   76.1985 H   0  0  0  0  0  0  0  0  0  0  0  0
   -2.6952   62.3839   78.6462 H   0  0  0  0  0  0  0  0  0  0  0  0
   -4.0032   61.5375   77.7519 H   0  0  0  0  0  0  0  0  0  0  0  0
   -2.3363   60.8679   77.7519 H   0  0  0  0  0  0  0  0  0  0  0  0
   -4.0874   62.1512   74.5212 H   0  0  0  0  0  0  0  0  0  0  0  0
   -2.9212   61.2477   73.4410 H   0  0  0  0  0  0  0  0  0  0  0  0
   -7.0844   58.5096   74.6981 H   0  0  0  0  0  0  0  0  0  0  0  0
   -5.7406   56.6619   75.6924 H   0  0  0  0  0  0  0  0  0  0  0  0
   -3.3060   56.9688   76.1162 H   0  0  0  0  0  0  0  0  0  0  0  0
   -2.2014   59.1220   75.5359 H   0  0  0  0  0  0  0  0  0  0  0  0
   -7.9503   60.7568   74.7765 H   0  0  0  0  0  0  0  0  0  0  0  0
   -7.8337   61.6701   73.2341 H   0  0  0  0  0  0  0  0  0  0  0  0
   -7.6637   59.8819   73.2341 H   0  0  0  0  0  0  0  0  0  0  0  0
  2  1  2  0
  3  2  1  0
  4  3  2  0
  5  3  1  0
  6  5  2  0
  7  1  1  0
  7  6  1  0
  8  7  2  0
  9  5  1  0
 10  9  1  0
 11 10  1  0
 12 11  1  0
 13 12  1  0
 14 13  1  0
 15 14  1  0
 16 15  1  0
 17 16  1  0
 18 17  1  0
 19 16  1  0
 20 19  1  0
 21 20  2  0
 22 21  1  0
 23 22  2  0
 24 23  1  0
 25 24  2  0
 25 20  1  0
 26 25  1  0
 27 26  1  0
 28  1  1  0
 29 28  1  0
 30 29  1  0
 31 30  1  0
 32 31  1  0
 33 32  1  0
 34 33  1  0
 35 34  1  0
 36 35  1  0
 37 36  1  0
 38 35  1  0
 40 39  2  0
 41 40  1  0
 42 41  2  0
 43 42  1  0
 44 43  2  0
 44 39  1  0
 44 38  1  0
 46 45  1  0
 46 39  1  0
  2 47  1  0
  6 48  1  0
  9 49  1  0
 10 50  1  0
 10 51  1  0
 11 52  1  0
 11 53  1  0
 12 54  1  0
 12 55  1  0
 13 56  1  0
 13 57  1  0
 14 58  1  0
 14 59  1  0
 15 60  1  0
 15 61  1  0
 16 62  1  6
 17 63  1  0
 17 64  1  0
 18 65  1  0
 18 66  1  0
 18 67  1  0
 19 68  1  0
 19 69  1  0
 21 70  1  0
 22 71  1  0
 23 72  1  0
 24 73  1  0
 27 74  1  0
 27 75  1  0
 27 76  1  0
 28 77  1  0
 29 78  1  0
 29 79  1  0
 30 80  1  0
 30 81  1  0
 31 82  1  0
 31 83  1  0
 32 84  1  0
 32 85  1  0
 33 86  1  0
 33 87  1  0
 34 88  1  0
 34 89  1  0
 35 90  1  1
 36 91  1  0
 36 92  1  0
 37 93  1  0
 37 94  1  0
 37 95  1  0
 38 96  1  0
 38 97  1  0
 40 98  1  0
 41 99  1  0
 42100  1  0
 43101  1  0
 45102  1  0
 45103  1  0
 45104  1  0
M  CHG  2  16   1  35   1
M  END
>  <score>  (7) 
-8.224

$$$$
=
     RDKit          3D

104106  0  0  0  0  0  0  0  0999 V2000
    3.7710   61.1170   70.5550 C   0  0  0  0  0  0  0  0  0  0  0  0
    3.1240   59.9480   70.5560 C   0  0  0  0  0  0  0  0  0  0  0  0
    3.1830   58.9780   71.6700 C   0  0  0  0  0  0  0  0  0  0  0  0
    2.5400   57.9360   71.5690 O   0  0  0  0  0  0  0  0  0  0  0  0
    4.0200   59.3290   72.8820 C   0  0  0  0  0  0  0  0  0  0  0  0
    4.6670   60.5030   72.8670 C   0  0  0  0  0  0  0  0  0  0  0  0
    4.6250   61.4500   71.7420 C   0  0  0  0  0  0  0  0  0  0  0  0
    5.2960   62.4800   71.7630 O   0  0  0  0  0  0  0  0  0  0  0  0
    4.1110   58.4660   73.9710 N   0  0  0  0  0  0  0  0  0  0  0  0
    3.2360   58.3820   75.1280 C   0  0  0  0  0  0  0  0  0  0  0  0
    3.0020   56.9200   75.5140 C   0  0  0  0  0  0  0  0  0  0  0  0
    2.2740   56.1640   74.4000 C   0  0  0  0  0  0  0  0  0  0  0  0
    1.6660   54.8320   74.8570 C   0  0  0  0  0  0  0  0  0  0  0  0
    0.1880   54.6750   74.4780 C   0  0  0  0  0  0  0  0  0  0  0  0
   -0.3520   55.8440   73.6480 C   0  0  0  0  0  0  0  0  0  0  0  0
   -1.4070   56.6360   74.4000 N   0  0  1  0  0  4  0  0  0  0  0  0
   -2.2150   55.7760   75.3490 C   0  0  0  0  0  0  0  0  0  0  0  0
   -2.1960   56.3770   76.7440 C   0  0  0  0  0  0  0  0  0  0  0  0
   -0.7890   57.8350   75.1140 C   0  0  0  0  0  0  0  0  0  0  0  0
   -0.9270   59.1170   74.3340 C   0  0  0  0  0  0  0  0  0  0  0  0
    0.1670   59.5900   73.5860 C   0  0  0  0  0  0  0  0  0  0  0  0
    0.0700   60.7790   72.8660 C   0  0  0  0  0  0  0  0  0  0  0  0
   -1.1150   61.5060   72.8860 C   0  0  0  0  0  0  0  0  0  0  0  0
   -2.2100   61.0460   73.6190 C   0  0  0  0  0  0  0  0  0  0  0  0
   -2.1280   59.8520   74.3420 C   0  0  0  0  0  0  0  0  0  0  0  0
   -3.1410   59.3310   75.1020 O   0  0  0  0  0  0  0  0  0  0  0  0
   -3.5500   60.0860   76.2420 C   0  0  0  0  0  0  0  0  0  0  0  0
    3.7330   62.0860   69.5600 N   0  0  0  0  0  0  0  0  0  0  0  0
    3.0070   63.3420   69.5870 C   0  0  0  0  0  0  0  0  0  0  0  0
    2.1830   63.4890   70.8700 C   0  0  0  0  0  0  0  0  0  0  0  0
    0.7120   63.8330   70.6030 C   0  0  0  0  0  0  0  0  0  0  0  0
    0.4550   65.3370   70.7470 C   0  0  0  0  0  0  0  0  0  0  0  0
    0.3610   66.0750   69.4050 C   0  0  0  0  0  0  0  0  0  0  0  0
    1.2460   67.3110   69.2260 C   0  0  0  0  0  0  0  0  0  0  0  0
    1.1420   67.8920   67.8340 N   0  0  1  0  0  4  0  0  0  0  0  0
   -0.2560   67.9380   67.2590 C   0  0  0  0  0  0  0  0  0  0  0  0
   -0.7520   69.3700   67.2060 C   0  0  0  0  0  0  0  0  0  0  0  0
    1.8430   69.2430   67.7440 C   0  0  0  0  0  0  0  0  0  0  0  0
    4.2130   69.8420   67.0620 C   0  0  0  0  0  0  0  0  0  0  0  0
    5.2280   69.8790   66.1030 C   0  0  0  0  0  0  0  0  0  0  0  0
    5.0040   69.3710   64.8230 C   0  0  0  0  0  0  0  0  0  0  0  0
    3.7670   68.8250   64.4900 C   0  0  0  0  0  0  0  0  0  0  0  0
    2.7490   68.7790   65.4390 C   0  0  0  0  0  0  0  0  0  0  0  0
    2.9630   69.2780   66.7350 C   0  0  0  0  0  0  0  0  0  0  0  0
    5.6030   70.8470   68.7140 C   0  0  0  0  0  0  0  0  0  0  0  0
    4.3360   70.2920   68.3550 O   0  0  0  0  0  0  0  0  0  0  0  0
    2.5126   59.6928   69.6779 H   0  0  0  0  0  0  0  0  0  0  0  0
    5.2654   60.7746   73.7491 H   0  0  0  0  0  0  0  0  0  0  0  0
    4.8989   57.8028   73.9542 H   0  0  0  0  0  0  0  0  0  0  0  0
    3.7011   58.9102   75.9734 H   0  0  0  0  0  0  0  0  0  0  0  0
    2.2696   58.8447   74.8791 H   0  0  0  0  0  0  0  0  0  0  0  0
    3.9731   56.4379   75.6997 H   0  0  0  0  0  0  0  0  0  0  0  0
    2.3772   56.8940   76.4190 H   0  0  0  0  0  0  0  0  0  0  0  0
    1.4642   56.8029   74.0180 H   0  0  0  0  0  0  0  0  0  0  0  0
    3.0215   55.9291   73.6280 H   0  0  0  0  0  0  0  0  0  0  0  0
    2.2339   54.0121   74.3930 H   0  0  0  0  0  0  0  0  0  0  0  0
    1.7238   54.8085   75.9552 H   0  0  0  0  0  0  0  0  0  0  0  0
    0.0736   53.7499   73.8940 H   0  0  0  0  0  0  0  0  0  0  0  0
   -0.3876   54.6473   75.4150 H   0  0  0  0  0  0  0  0  0  0  0  0
    0.4821   56.5148   73.3946 H   0  0  0  0  0  0  0  0  0  0  0  0
   -0.8192   55.4303   72.7421 H   0  0  0  0  0  0  0  0  0  0  0  0
   -2.0706   56.9922   73.6975 H   0  0  0  0  0  0  0  0  0  0  0  0
   -3.2539   55.7179   74.9921 H   0  0  0  0  0  0  0  0  0  0  0  0
   -1.7744   54.7687   75.3853 H   0  0  0  0  0  0  0  0  0  0  0  0
   -2.2215   55.5702   77.4912 H   0  0  0  0  0  0  0  0  0  0  0  0
   -1.2787   56.9696   76.8755 H   0  0  0  0  0  0  0  0  0  0  0  0
   -3.0741   57.0264   76.8755 H   0  0  0  0  0  0  0  0  0  0  0  0
   -1.2882   57.9602   76.0862 H   0  0  0  0  0  0  0  0  0  0  0  0
    0.2861   57.6326   75.2290 H   0  0  0  0  0  0  0  0  0  0  0  0
    1.1057   59.0169   73.5695 H   0  0  0  0  0  0  0  0  0  0  0  0
    0.9293   61.1418   72.2829 H   0  0  0  0  0  0  0  0  0  0  0  0
   -1.1898   62.4474   72.3219 H   0  0  0  0  0  0  0  0  0  0  0  0
   -3.1441   61.6269   73.6280 H   0  0  0  0  0  0  0  0  0  0  0  0
   -3.2605   59.5516   77.1588 H   0  0  0  0  0  0  0  0  0  0  0  0
   -3.0627   61.0720   76.2229 H   0  0  0  0  0  0  0  0  0  0  0  0
   -4.6421   60.2164   76.2229 H   0  0  0  0  0  0  0  0  0  0  0  0
    4.2805   61.8913   68.7096 H   0  0  0  0  0  0  0  0  0  0  0  0
    3.7267   64.1718   69.5278 H   0  0  0  0  0  0  0  0  0  0  0  0
    2.3168   63.3591   68.7307 H   0  0  0  0  0  0  0  0  0  0  0  0
    2.2257   62.5399   71.4244 H   0  0  0  0  0  0  0  0  0  0  0  0
    2.6158   64.3210   71.4449 H   0  0  0  0  0  0  0  0  0  0  0  0
    0.4514   63.5215   69.5807 H   0  0  0  0  0  0  0  0  0  0  0  0
    0.0927   63.3034   71.3419 H   0  0  0  0  0  0  0  0  0  0  0  0
   -0.4921   65.4778   71.2884 H   0  0  0  0  0  0  0  0  0  0  0  0
    1.3134   65.7607   71.2889 H   0  0  0  0  0  0  0  0  0  0  0  0
    0.6276   65.3590   68.6136 H   0  0  0  0  0  0  0  0  0  0  0  0
   -0.6705   66.4544   69.3603 H   0  0  0  0  0  0  0  0  0  0  0  0
    0.9368   68.0763   69.9532 H   0  0  0  0  0  0  0  0  0  0  0  0
    2.2902   67.0044   69.3865 H   0  0  0  0  0  0  0  0  0  0  0  0
    1.6395   67.2231   67.2290 H   0  0  0  0  0  0  0  0  0  0  0  0
   -0.2448   67.5192   66.2419 H   0  0  0  0  0  0  0  0  0  0  0  0
   -0.9279   67.3482   67.8998 H   0  0  0  0  0  0  0  0  0  0  0  0
   -0.8838   69.7505   68.2296 H   0  0  0  0  0  0  0  0  0  0  0  0
   -0.0173   69.9931   66.6750 H   0  0  0  0  0  0  0  0  0  0  0  0
   -1.7147   69.4052   66.6750 H   0  0  0  0  0  0  0  0  0  0  0  0
    1.0986   70.0026   67.4632 H   0  0  0  0  0  0  0  0  0  0  0  0
    2.2912   69.4392   68.7292 H   0  0  0  0  0  0  0  0  0  0  0  0
    6.2074   70.3102   66.3579 H   0  0  0  0  0  0  0  0  0  0  0  0
    5.8084   69.4019   64.0733 H   0  0  0  0  0  0  0  0  0  0  0  0
    3.5941   68.4303   63.4779 H   0  0  0  0  0  0  0  0  0  0  0  0
    1.7719   68.3497   65.1726 H   0  0  0  0  0  0  0  0  0  0  0  0
    5.6894   70.8849   69.8099 H   0  0  0  0  0  0  0  0  0  0  0  0
    6.4078   70.2190   68.3042 H   0  0  0  0  0  0  0  0  0  0  0  0
    5.6870   71.8643   68.3042 H   0  0  0  0  0  0  0  0  0  0  0  0
  2  1  2  0
  3  2  1  0
  4  3  2  0
  5  3  1  0
  6  5  2  0
  7  1  1  0
  7  6  1  0
  8  7  2  0
  9  5  1  0
 10  9  1  0
 11 10  1  0
 12 11  1  0
 13 12  1  0
 14 13  1  0
 15 14  1  0
 16 15  1  0
 17 16  1  0
 18 17  1  0
 19 16  1  0
 20 19  1  0
 21 20  2  0
 22 21  1  0
 23 22  2  0
 24 23  1  0
 25 24  2  0
 25 20  1  0
 26 25  1  0
 27 26  1  0
 28  1  1  0
 29 28  1  0
 30 29  1  0
 31 30  1  0
 32 31  1  0
 33 32  1  0
 34 33  1  0
 35 34  1  0
 36 35  1  0
 37 36  1  0
 38 35  1  0
 40 39  2  0
 41 40  1  0
 42 41  2  0
 43 42  1  0
 44 43  2  0
 44 39  1  0
 44 38  1  0
 46 45  1  0
 46 39  1  0
  2 47  1  0
  6 48  1  0
  9 49  1  0
 10 50  1  0
 10 51  1  0
 11 52  1  0
 11 53  1  0
 12 54  1  0
 12 55  1  0
 13 56  1  0
 13 57  1  0
 14 58  1  0
 14 59  1  0
 15 60  1  0
 15 61  1  0
 16 62  1  6
 17 63  1  0
 17 64  1  0
 18 65  1  0
 18 66  1  0
 18 67  1  0
 19 68  1  0
 19 69  1  0
 21 70  1  0
 22 71  1  0
 23 72  1  0
 24 73  1  0
 27 74  1  0
 27 75  1  0
 27 76  1  0
 28 77  1  0
 29 78  1  0
 29 79  1  0
 30 80  1  0
 30 81  1  0
 31 82  1  0
 31 83  1  0
 32 84  1  0
 32 85  1  0
 33 86  1  0
 33 87  1  0
 34 88  1  0
 34 89  1  0
 35 90  1  6
 36 91  1  0
 36 92  1  0
 37 93  1  0
 37 94  1  0
 37 95  1  0
 38 96  1  0
 38 97  1  0
 40 98  1  0
 41 99  1  0
 42100  1  0
 43101  1  0
 45102  1  0
 45103  1  0
 45104  1  0
M  CHG  2  16   1  35   1
M  END
>  <score>  (8) 
-8.214

$$$$
=
     RDKit          3D

104106  0  0  0  0  0  0  0  0999 V2000
    1.6440   64.1380   70.7130 C   0  0  0  0  0  0  0  0  0  0  0  0
    2.9070   63.8720   70.3670 C   0  0  0  0  0  0  0  0  0  0  0  0
    3.7470   62.8590   71.0410 C   0  0  0  0  0  0  0  0  0  0  0  0
    4.8930   62.6890   70.6340 O   0  0  0  0  0  0  0  0  0  0  0  0
    3.1420   62.0760   72.1870 C   0  0  0  0  0  0  0  0  0  0  0  0
    1.8760   62.3550   72.5280 C   0  0  0  0  0  0  0  0  0  0  0  0
    1.0570   63.3840   71.8690 C   0  0  0  0  0  0  0  0  0  0  0  0
   -0.0760   63.6390   72.2740 O   0  0  0  0  0  0  0  0  0  0  0  0
    3.8740   61.1000   72.8590 N   0  0  0  0  0  0  0  0  0  0  0  0
    4.1710   59.7440   72.4320 C   0  0  0  0  0  0  0  0  0  0  0  0
    3.0120   59.1770   71.6090 C   0  0  0  0  0  0  0  0  0  0  0  0
    1.9150   58.6120   72.5150 C   0  0  0  0  0  0  0  0  0  0  0  0
    1.9100   57.0800   72.5910 C   0  0  0  0  0  0  0  0  0  0  0  0
    1.1280   56.5320   73.7900 C   0  0  0  0  0  0  0  0  0  0  0  0
   -0.2450   55.9640   73.4100 C   0  0  0  0  0  0  0  0  0  0  0  0
   -1.2900   56.2450   74.4740 N   0  0  1  0  0  4  0  0  0  0  0  0
   -1.5340   55.0580   75.3820 C   0  0  0  0  0  0  0  0  0  0  0  0
   -0.7050   55.1890   76.6480 C   0  0  0  0  0  0  0  0  0  0  0  0
   -0.9400   57.5000   75.2700 C   0  0  0  0  0  0  0  0  0  0  0  0
   -1.7180   58.7120   74.8260 C   0  0  0  0  0  0  0  0  0  0  0  0
   -1.0810   59.6910   74.0410 C   0  0  0  0  0  0  0  0  0  0  0  0
   -1.7730   60.8270   73.6270 C   0  0  0  0  0  0  0  0  0  0  0  0
   -3.1030   60.9980   73.9930 C   0  0  0  0  0  0  0  0  0  0  0  0
   -3.7500   60.0330   74.7670 C   0  0  0  0  0  0  0  0  0  0  0  0
   -3.0680   58.8870   75.1840 C   0  0  0  0  0  0  0  0  0  0  0  0
   -3.6120   57.8960   75.9580 O   0  0  0  0  0  0  0  0  0  0  0  0
   -4.1050   58.2740   77.2430 C   0  0  0  0  0  0  0  0  0  0  0  0
    0.7910   65.0500   70.1030 N   0  0  0  0  0  0  0  0  0  0  0  0
    1.0000   66.4770   69.9480 C   0  0  0  0  0  0  0  0  0  0  0  0
    1.1660   66.8670   68.4760 C   0  0  0  0  0  0  0  0  0  0  0  0
    0.2170   67.9910   68.0400 C   0  0  0  0  0  0  0  0  0  0  0  0
   -0.5140   67.6320   66.7420 C   0  0  0  0  0  0  0  0  0  0  0  0
   -0.4540   68.7370   65.6790 C   0  0  0  0  0  0  0  0  0  0  0  0
    0.3160   68.4250   64.3930 C   0  0  0  0  0  0  0  0  0  0  0  0
    1.7310   67.9720   64.6690 N   0  0  1  0  0  4  0  0  0  0  0  0
    2.0740   66.5890   64.1640 C   0  0  0  0  0  0  0  0  0  0  0  0
    2.7680   65.7930   65.2540 C   0  0  0  0  0  0  0  0  0  0  0  0
    2.7450   69.0160   64.2140 C   0  0  0  0  0  0  0  0  0  0  0  0
    5.0620   69.7240   64.9690 C   0  0  0  0  0  0  0  0  0  0  0  0
    5.9530   70.0780   65.9850 C   0  0  0  0  0  0  0  0  0  0  0  0
    5.5250   70.1150   67.3140 C   0  0  0  0  0  0  0  0  0  0  0  0
    4.2090   69.8000   67.6360 C   0  0  0  0  0  0  0  0  0  0  0  0
    3.3100   69.4520   66.6310 C   0  0  0  0  0  0  0  0  0  0  0  0
    3.7240   69.4190   65.2890 C   0  0  0  0  0  0  0  0  0  0  0  0
    5.8980   68.4430   63.1440 C   0  0  0  0  0  0  0  0  0  0  0  0
    5.3740   69.6800   63.6310 O   0  0  0  0  0  0  0  0  0  0  0  0
    3.3468   64.4390   69.5333 H   0  0  0  0  0  0  0  0  0  0  0  0
    1.4227   61.7805   73.3492 H   0  0  0  0  0  0  0  0  0  0  0  0
    4.2533   61.3752   73.7763 H   0  0  0  0  0  0  0  0  0  0  0  0
    5.0832   59.7493   71.8173 H   0  0  0  0  0  0  0  0  0  0  0  0
    4.3179   59.1142   73.3218 H   0  0  0  0  0  0  0  0  0  0  0  0
    2.5868   59.9791   70.9878 H   0  0  0  0  0  0  0  0  0  0  0  0
    3.3978   58.3621   70.9789 H   0  0  0  0  0  0  0  0  0  0  0  0
    2.0628   59.0101   73.5298 H   0  0  0  0  0  0  0  0  0  0  0  0
    0.9506   58.9167   72.0824 H   0  0  0  0  0  0  0  0  0  0  0  0
    1.4559   56.6868   71.6695 H   0  0  0  0  0  0  0  0  0  0  0  0
    2.9549   56.7576   72.7103 H   0  0  0  0  0  0  0  0  0  0  0  0
    1.7203   55.7311   74.2566 H   0  0  0  0  0  0  0  0  0  0  0  0
    0.9540   57.3729   74.4775 H   0  0  0  0  0  0  0  0  0  0  0  0
   -0.5693   56.4218   72.4638 H   0  0  0  0  0  0  0  0  0  0  0  0
   -0.1459   54.8730   73.3104 H   0  0  0  0  0  0  0  0  0  0  0  0
   -2.1779   56.4176   73.9813 H   0  0  0  0  0  0  0  0  0  0  0  0
   -2.6005   55.0170   75.6483 H   0  0  0  0  0  0  0  0  0  0  0  0
   -1.2435   54.1368   74.8556 H   0  0  0  0  0  0  0  0  0  0  0  0
   -1.3587   55.0857   77.5267 H   0  0  0  0  0  0  0  0  0  0  0  0
    0.0622   54.4009   76.6671 H   0  0  0  0  0  0  0  0  0  0  0  0
   -0.2182   56.1752   76.6671 H   0  0  0  0  0  0  0  0  0  0  0  0
   -1.1566   57.3137   76.3323 H   0  0  0  0  0  0  0  0  0  0  0  0
    0.1261   57.7118   75.1006 H   0  0  0  0  0  0  0  0  0  0  0  0
   -0.0280   59.5582   73.7519 H   0  0  0  0  0  0  0  0  0  0  0  0
   -1.2682   61.5867   73.0121 H   0  0  0  0  0  0  0  0  0  0  0  0
   -3.6481   61.8977   73.6714 H   0  0  0  0  0  0  0  0  0  0  0  0
   -4.8033   60.1757   75.0503 H   0  0  0  0  0  0  0  0  0  0  0  0
   -3.4907   57.8030   78.0245 H   0  0  0  0  0  0  0  0  0  0  0  0
   -4.0556   59.3679   77.3474 H   0  0  0  0  0  0  0  0  0  0  0  0
   -5.1486   57.9424   77.3474 H   0  0  0  0  0  0  0  0  0  0  0  0
   -0.0862   64.6709   69.7187 H   0  0  0  0  0  0  0  0  0  0  0  0
    0.1330   67.0117   70.3632 H   0  0  0  0  0  0  0  0  0  0  0  0
    1.9225   66.7491   70.4817 H   0  0  0  0  0  0  0  0  0  0  0  0
    2.2016   67.2021   68.3173 H   0  0  0  0  0  0  0  0  0  0  0  0
    0.9228   65.9801   67.8725 H   0  0  0  0  0  0  0  0  0  0  0  0
   -0.5253   68.1610   68.8338 H   0  0  0  0  0  0  0  0  0  0  0  0
    0.8128   68.8985   67.8627 H   0  0  0  0  0  0  0  0  0  0  0  0
   -0.0565   66.7227   66.3250 H   0  0  0  0  0  0  0  0  0  0  0  0
   -1.5740   67.4867   66.9976 H   0  0  0  0  0  0  0  0  0  0  0  0
   -1.4885   68.9807   65.3953 H   0  0  0  0  0  0  0  0  0  0  0  0
    0.1034   69.5585   66.1528 H   0  0  0  0  0  0  0  0  0  0  0  0
   -0.2114   67.6273   63.8493 H   0  0  0  0  0  0  0  0  0  0  0  0
    0.3678   69.3490   63.7985 H   0  0  0  0  0  0  0  0  0  0  0  0
    1.7869   67.8845   65.6938 H   0  0  0  0  0  0  0  0  0  0  0  0
    1.1503   66.0707   63.8670 H   0  0  0  0  0  0  0  0  0  0  0  0
    2.7477   66.6784   63.2991 H   0  0  0  0  0  0  0  0  0  0  0  0
    2.4462   66.1621   66.2390 H   0  0  0  0  0  0  0  0  0  0  0  0
    2.5034   64.7297   65.1565 H   0  0  0  0  0  0  0  0  0  0  0  0
    3.8574   65.9102   65.1565 H   0  0  0  0  0  0  0  0  0  0  0  0
    3.3110   68.6039   63.3656 H   0  0  0  0  0  0  0  0  0  0  0  0
    2.1776   69.9180   63.9412 H   0  0  0  0  0  0  0  0  0  0  0  0
    6.9951   70.3284   65.7375 H   0  0  0  0  0  0  0  0  0  0  0  0
    6.2316   70.3944   68.1094 H   0  0  0  0  0  0  0  0  0  0  0  0
    3.8783   69.8258   68.6848 H   0  0  0  0  0  0  0  0  0  0  0  0
    2.2705   69.2017   66.8893 H   0  0  0  0  0  0  0  0  0  0  0  0
    6.1703   67.8001   63.9940 H   0  0  0  0  0  0  0  0  0  0  0  0
    5.1365   67.9380   62.5315 H   0  0  0  0  0  0  0  0  0  0  0  0
    6.7905   68.6386   62.5315 H   0  0  0  0  0  0  0  0  0  0  0  0
  2  1  2  0
  3  2  1  0
  4  3  2  0
  5  3  1  0
  6  5  2  0
  7  1  1  0
  7  6  1  0
  8  7  2  0
  9  5  1  0
 10  9  1  0
 11 10  1  0
 12 11  1  0
 13 12  1  0
 14 13  1  0
 15 14  1  0
 16 15  1  0
 17 16  1  0
 18 17  1  0
 19 16  1  0
 20 19  1  0
 21 20  2  0
 22 21  1  0
 23 22  2  0
 24 23  1  0
 25 24  2  0
 25 20  1  0
 26 25  1  0
 27 26  1  0
 28  1  1  0
 29 28  1  0
 30 29  1  0
 31 30  1  0
 32 31  1  0
 33 32  1  0
 34 33  1  0
 35 34  1  0
 36 35  1  0
 37 36  1  0
 38 35  1  0
 40 39  2  0
 41 40  1  0
 42 41  2  0
 43 42  1  0
 44 43  2  0
 44 39  1  0
 44 38  1  0
 46 45  1  0
 46 39  1  0
  2 47  1  0
  6 48  1  0
  9 49  1  0
 10 50  1  0
 10 51  1  0
 11 52  1  0
 11 53  1  0
 12 54  1  0
 12 55  1  0
 13 56  1  0
 13 57  1  0
 14 58  1  0
 14 59  1  0
 15 60  1  0
 15 61  1  0
 16 62  1  6
 17 63  1  0
 17 64  1  0
 18 65  1  0
 18 66  1  0
 18 67  1  0
 19 68  1  0
 19 69  1  0
 21 70  1  0
 22 71  1  0
 23 72  1  0
 24 73  1  0
 27 74  1  0
 27 75  1  0
 27 76  1  0
 28 77  1  0
 29 78  1  0
 29 79  1  0
 30 80  1  0
 30 81  1  0
 31 82  1  0
 31 83  1  0
 32 84  1  0
 32 85  1  0
 33 86  1  0
 33 87  1  0
 34 88  1  0
 34 89  1  0
 35 90  1  1
 36 91  1  0
 36 92  1  0
 37 93  1  0
 37 94  1  0
 37 95  1  0
 38 96  1  0
 38 97  1  0
 40 98  1  0
 41 99  1  0
 42100  1  0
 43101  1  0
 45102  1  0
 45103  1  0
 45104  1  0
M  CHG  2  16   1  35   1
M  END
>  <score>  (9) 
-8.137

$$$$
