=
     RDKit          3D

 54 57  0  0  0  0  0  0  0  0999 V2000
    2.4650   68.8610   64.5900 C   0  0  1  0  0  0  0  0  0  0  0  0
    0.9530   68.7590   64.3850 C   0  0  0  0  0  0  0  0  0  0  0  0
    0.4900   68.6670   65.8120 C   0  0  0  0  0  0  0  0  0  0  0  0
    1.4070   68.8950   66.7050 N   0  0  0  0  0  0  0  0  0  0  0  0
    2.5790   69.0990   66.0350 N   0  0  0  0  0  0  0  0  0  0  0  0
   -0.9120   68.3660   66.1740 C   0  0  0  0  0  0  0  0  0  0  0  0
   -1.9390   69.0290   65.4870 C   0  0  0  0  0  0  0  0  0  0  0  0
   -3.2670   68.7650   65.8110 C   0  0  0  0  0  0  0  0  0  0  0  0
   -4.2440   69.4020   65.1540 F   0  0  0  0  0  0  0  0  0  0  0  0
   -3.5970   67.8500   66.8040 C   0  0  0  0  0  0  0  0  0  0  0  0
   -2.5800   67.1850   67.4880 C   0  0  0  0  0  0  0  0  0  0  0  0
   -1.2470   67.4450   67.1690 C   0  0  0  0  0  0  0  0  0  0  0  0
   -0.3030   66.7710   67.8410 F   0  0  0  0  0  0  0  0  0  0  0  0
    4.0630   67.6360   63.0390 C   0  0  0  0  0  0  0  0  0  0  0  0
    4.6830   66.4610   62.6040 C   0  0  0  0  0  0  0  0  0  0  0  0
    4.4090   65.2350   63.2240 C   0  0  0  0  0  0  0  0  0  0  0  0
    3.5100   65.1690   64.2830 C   0  0  0  0  0  0  0  0  0  0  0  0
    2.8890   66.3410   64.7180 C   0  0  0  0  0  0  0  0  0  0  0  0
    3.1620   67.5880   64.1210 C   0  0  0  0  0  0  0  0  0  0  0  0
    5.5910   69.3610   62.4130 C   0  0  0  0  0  0  0  0  0  0  0  0
    4.2560   68.8710   62.4770 O   0  0  0  0  0  0  0  0  0  0  0  0
    3.1460   64.0410   64.9620 O   0  0  0  0  0  0  0  0  0  0  0  0
    4.0710   63.5360   65.9160 C   0  0  0  0  0  0  0  0  0  0  0  0
    3.7240   69.5240   66.7060 C   0  0  0  0  0  0  0  0  0  0  0  0
    3.6510   69.9740   68.0380 C   0  0  0  0  0  0  0  0  0  0  0  0
    4.7820   70.4060   68.7390 C   0  0  0  0  0  0  0  0  0  0  0  0
    6.0200   70.4030   68.1020 C   0  0  0  0  0  0  0  0  0  0  0  0
    6.1350   69.9520   66.7890 C   0  0  0  0  0  0  0  0  0  0  0  0
    4.9940   69.5210   66.1030 C   0  0  0  0  0  0  0  0  0  0  0  0
    7.4610   70.9550   68.9690 S   0  0  0  0  0  6  0  0  0  0  0  0
    8.5510   70.0510   68.6820 O   0  0  0  0  0  0  0  0  0  0  0  0
    7.5760   72.3850   68.8120 O   0  0  0  0  0  0  0  0  0  0  0  0
    7.0260   70.6460   70.5680 N   0  0  0  0  0  0  0  0  0  0  0  0
    2.9533   69.6559   64.0071 H   0  0  0  0  0  0  0  0  0  0  0  0
    0.5498   69.6513   63.8837 H   0  0  0  0  0  0  0  0  0  0  0  0
    0.6321   67.9248   63.7438 H   0  0  0  0  0  0  0  0  0  0  0  0
   -1.6966   69.7540   64.6961 H   0  0  0  0  0  0  0  0  0  0  0  0
   -4.6512   67.6522   67.0481 H   0  0  0  0  0  0  0  0  0  0  0  0
   -2.8277   66.4584   68.2758 H   0  0  0  0  0  0  0  0  0  0  0  0
    5.3940   66.4995   61.7655 H   0  0  0  0  0  0  0  0  0  0  0  0
    4.9074   64.3200   62.8714 H   0  0  0  0  0  0  0  0  0  0  0  0
    2.1685   66.2899   65.5476 H   0  0  0  0  0  0  0  0  0  0  0  0
    5.9786   69.5033   63.4326 H   0  0  0  0  0  0  0  0  0  0  0  0
    6.2225   68.6360   61.8785 H   0  0  0  0  0  0  0  0  0  0  0  0
    5.6035   70.3223   61.8785 H   0  0  0  0  0  0  0  0  0  0  0  0
    3.6987   63.7393   66.9309 H   0  0  0  0  0  0  0  0  0  0  0  0
    4.1847   62.4507   65.7776 H   0  0  0  0  0  0  0  0  0  0  0  0
    5.0454   64.0273   65.7776 H   0  0  0  0  0  0  0  0  0  0  0  0
    2.6741   69.9863   68.5434 H   0  0  0  0  0  0  0  0  0  0  0  0
    4.6941   70.7443   69.7820 H   0  0  0  0  0  0  0  0  0  0  0  0
    7.1173   69.9348   66.2942 H   0  0  0  0  0  0  0  0  0  0  0  0
    5.0934   69.1708   65.0650 H   0  0  0  0  0  0  0  0  0  0  0  0
    7.6884   71.1165   71.2011 H   0  0  0  0  0  0  0  0  0  0  0  0
    6.0749   71.0020   70.7400 H   0  0  0  0  0  0  0  0  0  0  0  0
  2  1  1  0
  3  2  1  0
  4  3  2  0
  5  1  1  0
  5  4  1  0
  6  3  1  0
  7  6  2  0
  8  7  1  0
  9  8  1  0
 10  8  2  0
 11 10  1  0
 12 11  2  0
 12  6  1  0
 13 12  1  0
 15 14  2  0
 16 15  1  0
 17 16  2  0
 18 17  1  0
 19 18  2  0
 19 14  1  0
 19  1  1  0
 21 14  1  0
 21 20  1  0
 22 17  1  0
 23 22  1  0
 24  5  1  0
 25 24  2  0
 26 25  1  0
 27 26  2  0
 28 27  1  0
 29 24  1  0
 29 28  2  0
 30 27  1  0
 31 30  2  0
 32 30  2  0
 33 30  1  0
  1 34  1  6
  2 35  1  0
  2 36  1  0
  7 37  1  0
 10 38  1  0
 11 39  1  0
 15 40  1  0
 16 41  1  0
 18 42  1  0
 20 43  1  0
 20 44  1  0
 20 45  1  0
 23 46  1  0
 23 47  1  0
 23 48  1  0
 25 49  1  0
 26 50  1  0
 28 51  1  0
 29 52  1  0
 33 53  1  0
 33 54  1  0
M  END
>  <score>  (1) 
-9.925

$$$$
=
     RDKit          3D

 54 57  0  0  0  0  0  0  0  0999 V2000
   -0.1280   60.4810   73.1780 C   0  0  1  0  0  0  0  0  0  0  0  0
    0.4630   61.5440   72.2500 C   0  0  0  0  0  0  0  0  0  0  0  0
    1.8080   60.9370   71.9630 C   0  0  0  0  0  0  0  0  0  0  0  0
    1.9600   59.7140   72.3750 N   0  0  0  0  0  0  0  0  0  0  0  0
    0.8140   59.3630   73.0280 N   0  0  0  0  0  0  0  0  0  0  0  0
    2.8700   61.6680   71.2380 C   0  0  0  0  0  0  0  0  0  0  0  0
    2.6690   61.9770   69.8850 C   0  0  0  0  0  0  0  0  0  0  0  0
    3.6540   62.6630   69.1810 C   0  0  0  0  0  0  0  0  0  0  0  0
    3.4590   62.9530   67.8890 F   0  0  0  0  0  0  0  0  0  0  0  0
    4.8390   63.0520   69.7960 C   0  0  0  0  0  0  0  0  0  0  0  0
    5.0420   62.7520   71.1420 C   0  0  0  0  0  0  0  0  0  0  0  0
    4.0590   62.0640   71.8550 C   0  0  0  0  0  0  0  0  0  0  0  0
    4.2910   61.8100   73.1490 F   0  0  0  0  0  0  0  0  0  0  0  0
   -1.4390   61.5830   75.0550 C   0  0  0  0  0  0  0  0  0  0  0  0
   -1.5230   62.0790   76.3590 C   0  0  0  0  0  0  0  0  0  0  0  0
   -0.4190   62.0200   77.2200 C   0  0  0  0  0  0  0  0  0  0  0  0
    0.7810   61.4680   76.7850 C   0  0  0  0  0  0  0  0  0  0  0  0
    0.8670   60.9730   75.4820 C   0  0  0  0  0  0  0  0  0  0  0  0
   -0.2360   61.0060   74.6050 C   0  0  0  0  0  0  0  0  0  0  0  0
   -3.6340   60.8710   74.4390 C   0  0  0  0  0  0  0  0  0  0  0  0
   -2.4610   61.6200   74.1420 O   0  0  0  0  0  0  0  0  0  0  0  0
    1.9310   61.3630   77.5150 O   0  0  0  0  0  0  0  0  0  0  0  0
    2.7160   60.1940   77.3170 C   0  0  0  0  0  0  0  0  0  0  0  0
    0.6030   58.0540   73.4540 C   0  0  0  0  0  0  0  0  0  0  0  0
   -0.6280   57.6730   74.0220 C   0  0  0  0  0  0  0  0  0  0  0  0
   -0.8720   56.3660   74.4590 C   0  0  0  0  0  0  0  0  0  0  0  0
    0.1330   55.4100   74.3410 C   0  0  0  0  0  0  0  0  0  0  0  0
    1.3600   55.7440   73.7710 C   0  0  0  0  0  0  0  0  0  0  0  0
    1.5870   57.0560   73.3370 C   0  0  0  0  0  0  0  0  0  0  0  0
   -0.1520   53.7540   74.8970 S   0  0  0  0  0  6  0  0  0  0  0  0
    0.3410   52.8360   73.8950 O   0  0  0  0  0  0  0  0  0  0  0  0
    0.2230   53.6610   76.2870 O   0  0  0  0  0  0  0  0  0  0  0  0
   -1.8330   53.6600   74.8080 N   0  0  0  0  0  0  0  0  0  0  0  0
   -1.1576   60.1812   72.9331 H   0  0  0  0  0  0  0  0  0  0  0  0
   -0.1341   61.6609   71.3336 H   0  0  0  0  0  0  0  0  0  0  0  0
    0.4981   62.5574   72.6763 H   0  0  0  0  0  0  0  0  0  0  0  0
    1.7371   61.6785   69.3825 H   0  0  0  0  0  0  0  0  0  0  0  0
    5.6092   63.5916   69.2254 H   0  0  0  0  0  0  0  0  0  0  0  0
    5.9740   63.0565   71.6407 H   0  0  0  0  0  0  0  0  0  0  0  0
   -2.4661   62.5205   76.7133 H   0  0  0  0  0  0  0  0  0  0  0  0
   -0.5019   62.4120   78.2444 H   0  0  0  0  0  0  0  0  0  0  0  0
    1.8187   60.5470   75.1315 H   0  0  0  0  0  0  0  0  0  0  0  0
   -3.7538   60.7945   75.5298 H   0  0  0  0  0  0  0  0  0  0  0  0
   -4.5108   61.3768   74.0084 H   0  0  0  0  0  0  0  0  0  0  0  0
   -3.5441   59.8628   74.0084 H   0  0  0  0  0  0  0  0  0  0  0  0
    2.9989   59.7727   78.2929 H   0  0  0  0  0  0  0  0  0  0  0  0
    2.1325   59.4518   76.7524 H   0  0  0  0  0  0  0  0  0  0  0  0
    3.6238   60.4532   76.7524 H   0  0  0  0  0  0  0  0  0  0  0  0
   -1.4228   58.4264   74.1255 H   0  0  0  0  0  0  0  0  0  0  0  0
   -1.8472   56.0971   74.8910 H   0  0  0  0  0  0  0  0  0  0  0  0
    2.1455   54.9817   73.6626 H   0  0  0  0  0  0  0  0  0  0  0  0
    2.5602   57.3126   72.8931 H   0  0  0  0  0  0  0  0  0  0  0  0
   -2.2265   53.6380   75.7596 H   0  0  0  0  0  0  0  0  0  0  0  0
   -2.1967   54.4820   74.3050 H   0  0  0  0  0  0  0  0  0  0  0  0
  2  1  1  0
  3  2  1  0
  4  3  2  0
  5  1  1  0
  5  4  1  0
  6  3  1  0
  7  6  2  0
  8  7  1  0
  9  8  1  0
 10  8  2  0
 11 10  1  0
 12 11  2  0
 12  6  1  0
 13 12  1  0
 15 14  2  0
 16 15  1  0
 17 16  2  0
 18 17  1  0
 19 18  2  0
 19 14  1  0
 19  1  1  0
 21 14  1  0
 21 20  1  0
 22 17  1  0
 23 22  1  0
 24  5  1  0
 25 24  2  0
 26 25  1  0
 27 26  2  0
 28 27  1  0
 29 24  1  0
 29 28  2  0
 30 27  1  0
 31 30  2  0
 32 30  2  0
 33 30  1  0
  1 34  1  6
  2 35  1  0
  2 36  1  0
  7 37  1  0
 10 38  1  0
 11 39  1  0
 15 40  1  0
 16 41  1  0
 18 42  1  0
 20 43  1  0
 20 44  1  0
 20 45  1  0
 23 46  1  0
 23 47  1  0
 23 48  1  0
 25 49  1  0
 26 50  1  0
 28 51  1  0
 29 52  1  0
 33 53  1  0
 33 54  1  0
M  END
>  <score>  (2) 
-8.508

$$$$
=
     RDKit          3D

 54 57  0  0  0  0  0  0  0  0999 V2000
    2.3520   58.2590   73.6530 C   0  0  1  0  0  0  0  0  0  0  0  0
    2.5470   59.0440   72.3550 C   0  0  0  0  0  0  0  0  0  0  0  0
    3.2940   60.2420   72.8710 C   0  0  0  0  0  0  0  0  0  0  0  0
    3.6950   60.1530   74.1040 N   0  0  0  0  0  0  0  0  0  0  0  0
    3.2380   58.9620   74.5910 N   0  0  0  0  0  0  0  0  0  0  0  0
    3.5770   61.4250   72.0280 C   0  0  0  0  0  0  0  0  0  0  0  0
    2.5340   62.3210   71.7580 C   0  0  0  0  0  0  0  0  0  0  0  0
    2.7740   63.4390   70.9650 C   0  0  0  0  0  0  0  0  0  0  0  0
    1.7740   64.2910   70.7070 F   0  0  0  0  0  0  0  0  0  0  0  0
    4.0350   63.6890   70.4360 C   0  0  0  0  0  0  0  0  0  0  0  0
    5.0780   62.8030   70.7050 C   0  0  0  0  0  0  0  0  0  0  0  0
    4.8450   61.6790   71.4990 C   0  0  0  0  0  0  0  0  0  0  0  0
    5.8790   60.8630   71.7440 F   0  0  0  0  0  0  0  0  0  0  0  0
    0.3410   57.1470   74.7390 C   0  0  0  0  0  0  0  0  0  0  0  0
   -1.0080   57.1520   75.1040 C   0  0  0  0  0  0  0  0  0  0  0  0
   -1.8270   58.2480   74.8040 C   0  0  0  0  0  0  0  0  0  0  0  0
   -1.3080   59.3500   74.1330 C   0  0  0  0  0  0  0  0  0  0  0  0
    0.0390   59.3470   73.7670 C   0  0  0  0  0  0  0  0  0  0  0  0
    0.8860   58.2630   74.0730 C   0  0  0  0  0  0  0  0  0  0  0  0
    1.3020   55.6240   76.3070 C   0  0  0  0  0  0  0  0  0  0  0  0
    1.2060   56.1100   74.9730 O   0  0  0  0  0  0  0  0  0  0  0  0
   -1.9980   60.4710   73.7710 O   0  0  0  0  0  0  0  0  0  0  0  0
   -1.2820   61.4640   73.0470 C   0  0  0  0  0  0  0  0  0  0  0  0
    3.6350   58.4990   75.8430 C   0  0  0  0  0  0  0  0  0  0  0  0
    4.4840   57.3820   75.9600 C   0  0  0  0  0  0  0  0  0  0  0  0
    4.9020   56.8930   77.2020 C   0  0  0  0  0  0  0  0  0  0  0  0
    4.4590   57.5190   78.3640 C   0  0  0  0  0  0  0  0  0  0  0  0
    3.6290   58.6360   78.2900 C   0  0  0  0  0  0  0  0  0  0  0  0
    3.2230   59.1140   77.0390 C   0  0  0  0  0  0  0  0  0  0  0  0
    4.9680   56.9090   79.9460 S   0  0  0  0  0  6  0  0  0  0  0  0
    6.0590   57.7230   80.4290 O   0  0  0  0  0  0  0  0  0  0  0  0
    3.7920   56.6360   80.7370 O   0  0  0  0  0  0  0  0  0  0  0  0
    5.6600   55.4300   79.5250 N   0  0  0  0  0  0  0  0  0  0  0  0
    2.6003   57.1897   73.5830 H   0  0  0  0  0  0  0  0  0  0  0  0
    3.1423   58.4781   71.6233 H   0  0  0  0  0  0  0  0  0  0  0  0
    1.6170   59.2797   71.8169 H   0  0  0  0  0  0  0  0  0  0  0  0
    1.5304   62.1415   72.1709 H   0  0  0  0  0  0  0  0  0  0  0  0
    4.2086   64.5774   69.8110 H   0  0  0  0  0  0  0  0  0  0  0  0
    6.0807   62.9894   70.2929 H   0  0  0  0  0  0  0  0  0  0  0  0
   -1.4314   56.2854   75.6329 H   0  0  0  0  0  0  0  0  0  0  0  0
   -2.8862   58.2370   75.1007 H   0  0  0  0  0  0  0  0  0  0  0  0
    0.4497   60.2124   73.2262 H   0  0  0  0  0  0  0  0  0  0  0  0
    1.1383   56.4526   77.0118 H   0  0  0  0  0  0  0  0  0  0  0  0
    0.5398   54.8478   76.4702 H   0  0  0  0  0  0  0  0  0  0  0  0
    2.3021   55.1959   76.4702 H   0  0  0  0  0  0  0  0  0  0  0  0
   -0.7887   62.1482   73.7530 H   0  0  0  0  0  0  0  0  0  0  0  0
   -0.5233   60.9806   72.4140 H   0  0  0  0  0  0  0  0  0  0  0  0
   -1.9803   62.0312   72.4140 H   0  0  0  0  0  0  0  0  0  0  0  0
    4.8296   56.8778   75.0455 H   0  0  0  0  0  0  0  0  0  0  0  0
    5.5733   56.0235   77.2600 H   0  0  0  0  0  0  0  0  0  0  0  0
    3.2950   59.1390   79.2095 H   0  0  0  0  0  0  0  0  0  0  0  0
    2.5644   59.9937   76.9897 H   0  0  0  0  0  0  0  0  0  0  0  0
    5.9036   54.9093   80.3796 H   0  0  0  0  0  0  0  0  0  0  0  0
    4.9878   54.8823   78.9691 H   0  0  0  0  0  0  0  0  0  0  0  0
  2  1  1  0
  3  2  1  0
  4  3  2  0
  5  1  1  0
  5  4  1  0
  6  3  1  0
  7  6  2  0
  8  7  1  0
  9  8  1  0
 10  8  2  0
 11 10  1  0
 12 11  2  0
 12  6  1  0
 13 12  1  0
 15 14  2  0
 16 15  1  0
 17 16  2  0
 18 17  1  0
 19 18  2  0
 19 14  1  0
 19  1  1  0
 21 14  1  0
 21 20  1  0
 22 17  1  0
 23 22  1  0
 24  5  1  0
 25 24  2  0
 26 25  1  0
 27 26  2  0
 28 27  1  0
 29 24  1  0
 29 28  2  0
 30 27  1  0
 31 30  2  0
 32 30  2  0
 33 30  1  0
  1 34  1  6
  2 35  1  0
  2 36  1  0
  7 37  1  0
 10 38  1  0
 11 39  1  0
 15 40  1  0
 16 41  1  0
 18 42  1  0
 20 43  1  0
 20 44  1  0
 20 45  1  0
 23 46  1  0
 23 47  1  0
 23 48  1  0
 25 49  1  0
 26 50  1  0
 28 51  1  0
 29 52  1  0
 33 53  1  0
 33 54  1  0
M  END
>  <score>  (3) 
-8.48

$$$$
=
     RDKit          3D

 54 57  0  0  0  0  0  0  0  0999 V2000
    0.8980   61.8240   74.7430 C   0  0  1  0  0  0  0  0  0  0  0  0
    1.8690   62.5000   73.7740 C   0  0  0  0  0  0  0  0  0  0  0  0
    1.5280   61.7800   72.4990 C   0  0  0  0  0  0  0  0  0  0  0  0
    0.4700   61.0280   72.5570 N   0  0  0  0  0  0  0  0  0  0  0  0
    0.0070   61.0830   73.8400 N   0  0  0  0  0  0  0  0  0  0  0  0
    2.3240   61.9370   71.2620 C   0  0  0  0  0  0  0  0  0  0  0  0
    2.9040   60.7980   70.6880 C   0  0  0  0  0  0  0  0  0  0  0  0
    3.6590   60.9210   69.5250 C   0  0  0  0  0  0  0  0  0  0  0  0
    4.2140   59.8310   68.9810 F   0  0  0  0  0  0  0  0  0  0  0  0
    3.8480   62.1570   68.9170 C   0  0  0  0  0  0  0  0  0  0  0  0
    3.2700   63.2930   69.4820 C   0  0  0  0  0  0  0  0  0  0  0  0
    2.5120   63.1780   70.6470 C   0  0  0  0  0  0  0  0  0  0  0  0
    1.9620   64.2940   71.1470 F   0  0  0  0  0  0  0  0  0  0  0  0
    1.4740   61.1200   77.1160 C   0  0  0  0  0  0  0  0  0  0  0  0
    2.1810   60.3140   78.0130 C   0  0  0  0  0  0  0  0  0  0  0  0
    3.0680   59.3340   77.5510 C   0  0  0  0  0  0  0  0  0  0  0  0
    3.2630   59.1520   76.1860 C   0  0  0  0  0  0  0  0  0  0  0  0
    2.5590   59.9560   75.2870 C   0  0  0  0  0  0  0  0  0  0  0  0
    1.6480   60.9360   75.7300 C   0  0  0  0  0  0  0  0  0  0  0  0
    1.1350   63.2090   78.2210 C   0  0  0  0  0  0  0  0  0  0  0  0
    0.6050   62.1140   77.4820 O   0  0  0  0  0  0  0  0  0  0  0  0
    4.1050   58.2460   75.6060 O   0  0  0  0  0  0  0  0  0  0  0  0
    4.4970   57.1320   76.3970 C   0  0  0  0  0  0  0  0  0  0  0  0
   -1.2120   60.5040   74.1880 C   0  0  0  0  0  0  0  0  0  0  0  0
   -2.4200   61.1960   73.9820 C   0  0  0  0  0  0  0  0  0  0  0  0
   -3.6600   60.6430   74.3200 C   0  0  0  0  0  0  0  0  0  0  0  0
   -3.7070   59.3720   74.8870 C   0  0  0  0  0  0  0  0  0  0  0  0
   -2.5340   58.6500   75.0940 C   0  0  0  0  0  0  0  0  0  0  0  0
   -1.3020   59.2170   74.7490 C   0  0  0  0  0  0  0  0  0  0  0  0
   -5.2650   58.6590   75.3310 S   0  0  0  0  0  6  0  0  0  0  0  0
   -5.7400   59.2940   76.5390 O   0  0  0  0  0  0  0  0  0  0  0  0
   -6.0760   58.5430   74.1440 O   0  0  0  0  0  0  0  0  0  0  0  0
   -4.7990   57.1050   75.7910 N   0  0  0  0  0  0  0  0  0  0  0  0
    0.3388   62.5169   75.3889 H   0  0  0  0  0  0  0  0  0  0  0  0
    1.6773   63.5802   73.6943 H   0  0  0  0  0  0  0  0  0  0  0  0
    2.9274   62.4376   74.0671 H   0  0  0  0  0  0  0  0  0  0  0  0
    2.7634   59.8116   71.1540 H   0  0  0  0  0  0  0  0  0  0  0  0
    4.4481   62.2379   67.9986 H   0  0  0  0  0  0  0  0  0  0  0  0
    3.4114   64.2767   69.0105 H   0  0  0  0  0  0  0  0  0  0  0  0
    2.0388   60.4513   79.0951 H   0  0  0  0  0  0  0  0  0  0  0  0
    3.6129   58.7054   78.2707 H   0  0  0  0  0  0  0  0  0  0  0  0
    2.7193   59.8212   74.2071 H   0  0  0  0  0  0  0  0  0  0  0  0
    1.0369   63.0064   79.2977 H   0  0  0  0  0  0  0  0  0  0  0  0
    2.1972   63.3421   77.9682 H   0  0  0  0  0  0  0  0  0  0  0  0
    0.5804   64.1247   77.9682 H   0  0  0  0  0  0  0  0  0  0  0  0
    4.4065   57.3890   77.4627 H   0  0  0  0  0  0  0  0  0  0  0  0
    3.8467   56.2743   76.1702 H   0  0  0  0  0  0  0  0  0  0  0  0
    5.5411   56.8705   76.1702 H   0  0  0  0  0  0  0  0  0  0  0  0
   -2.3883   62.2034   73.5414 H   0  0  0  0  0  0  0  0  0  0  0  0
   -4.5876   61.2061   74.1398 H   0  0  0  0  0  0  0  0  0  0  0  0
   -2.5758   57.6394   75.5264 H   0  0  0  0  0  0  0  0  0  0  0  0
   -0.3804   58.6417   74.9209 H   0  0  0  0  0  0  0  0  0  0  0  0
   -4.7802   57.0423   76.8189 H   0  0  0  0  0  0  0  0  0  0  0  0
   -5.4716   56.4202   75.4175 H   0  0  0  0  0  0  0  0  0  0  0  0
  2  1  1  0
  3  2  1  0
  4  3  2  0
  5  1  1  0
  5  4  1  0
  6  3  1  0
  7  6  2  0
  8  7  1  0
  9  8  1  0
 10  8  2  0
 11 10  1  0
 12 11  2  0
 12  6  1  0
 13 12  1  0
 15 14  2  0
 16 15  1  0
 17 16  2  0
 18 17  1  0
 19 18  2  0
 19 14  1  0
 19  1  1  0
 21 14  1  0
 21 20  1  0
 22 17  1  0
 23 22  1  0
 24  5  1  0
 25 24  2  0
 26 25  1  0
 27 26  2  0
 28 27  1  0
 29 24  1  0
 29 28  2  0
 30 27  1  0
 31 30  2  0
 32 30  2  0
 33 30  1  0
  1 34  1  1
  2 35  1  0
  2 36  1  0
  7 37  1  0
 10 38  1  0
 11 39  1  0
 15 40  1  0
 16 41  1  0
 18 42  1  0
 20 43  1  0
 20 44  1  0
 20 45  1  0
 23 46  1  0
 23 47  1  0
 23 48  1  0
 25 49  1  0
 26 50  1  0
 28 51  1  0
 29 52  1  0
 33 53  1  0
 33 54  1  0
M  END
>  <score>  (4) 
-8.014

$$$$
=
     RDKit          3D

 54 57  0  0  0  0  0  0  0  0999 V2000
    2.0550   62.0470   74.0090 C   0  0  1  0  0  0  0  0  0  0  0  0
    1.4870   63.3130   74.6530 C   0  0  0  0  0  0  0  0  0  0  0  0
    0.1650   62.7960   75.1490 C   0  0  0  0  0  0  0  0  0  0  0  0
    0.0140   61.5070   75.0750 N   0  0  0  0  0  0  0  0  0  0  0  0
    1.1370   61.0040   74.4860 N   0  0  0  0  0  0  0  0  0  0  0  0
   -0.8770   63.6870   75.7050 C   0  0  0  0  0  0  0  0  0  0  0  0
   -1.7880   63.1590   76.6300 C   0  0  0  0  0  0  0  0  0  0  0  0
   -2.7780   63.9760   77.1660 C   0  0  0  0  0  0  0  0  0  0  0  0
   -3.6470   63.4670   78.0480 F   0  0  0  0  0  0  0  0  0  0  0  0
   -2.8820   65.3140   76.8020 C   0  0  0  0  0  0  0  0  0  0  0  0
   -1.9770   65.8460   75.8850 C   0  0  0  0  0  0  0  0  0  0  0  0
   -0.9810   65.0320   75.3430 C   0  0  0  0  0  0  0  0  0  0  0  0
   -0.1240   65.5890   74.4770 F   0  0  0  0  0  0  0  0  0  0  0  0
    3.0570   61.4770   71.7440 C   0  0  0  0  0  0  0  0  0  0  0  0
    3.0980   61.6220   70.3550 C   0  0  0  0  0  0  0  0  0  0  0  0
    2.2000   62.4720   69.6970 C   0  0  0  0  0  0  0  0  0  0  0  0
    1.2540   63.1890   70.4220 C   0  0  0  0  0  0  0  0  0  0  0  0
    1.2120   63.0460   71.8100 C   0  0  0  0  0  0  0  0  0  0  0  0
    2.0940   62.1840   72.4910 C   0  0  0  0  0  0  0  0  0  0  0  0
    5.3020   60.9770   72.3890 C   0  0  0  0  0  0  0  0  0  0  0  0
    3.9110   60.6850   72.4680 O   0  0  0  0  0  0  0  0  0  0  0  0
    0.3340   64.0580   69.9070 O   0  0  0  0  0  0  0  0  0  0  0  0
    0.3800   65.3990   70.3760 C   0  0  0  0  0  0  0  0  0  0  0  0
    1.3510   59.6290   74.4060 C   0  0  0  0  0  0  0  0  0  0  0  0
    0.4900   58.8110   73.6500 C   0  0  0  0  0  0  0  0  0  0  0  0
    0.6780   57.4290   73.5480 C   0  0  0  0  0  0  0  0  0  0  0  0
    1.7410   56.8350   74.2220 C   0  0  0  0  0  0  0  0  0  0  0  0
    2.6240   57.6120   74.9690 C   0  0  0  0  0  0  0  0  0  0  0  0
    2.4230   58.9940   75.0580 C   0  0  0  0  0  0  0  0  0  0  0  0
    1.9900   55.0860   74.1150 S   0  0  0  0  0  6  0  0  0  0  0  0
    0.7760   54.4180   74.5230 O   0  0  0  0  0  0  0  0  0  0  0  0
    2.6590   54.7880   72.8710 O   0  0  0  0  0  0  0  0  0  0  0  0
    3.0900   54.8290   75.3670 N   0  0  0  0  0  0  0  0  0  0  0  0
    3.0981   61.8240   74.2776 H   0  0  0  0  0  0  0  0  0  0  0  0
    2.1205   63.6681   75.4792 H   0  0  0  0  0  0  0  0  0  0  0  0
    1.4176   64.1796   73.9790 H   0  0  0  0  0  0  0  0  0  0  0  0
   -1.7204   62.1031   76.9308 H   0  0  0  0  0  0  0  0  0  0  0  0
   -3.6713   65.9469   77.2338 H   0  0  0  0  0  0  0  0  0  0  0  0
   -2.0474   66.9033   75.5896 H   0  0  0  0  0  0  0  0  0  0  0  0
    3.8439   61.0623   69.7716 H   0  0  0  0  0  0  0  0  0  0  0  0
    2.2431   62.5729   68.6025 H   0  0  0  0  0  0  0  0  0  0  0  0
    0.4719   63.6206   72.3863 H   0  0  0  0  0  0  0  0  0  0  0  0
    5.7166   61.0640   73.4041 H   0  0  0  0  0  0  0  0  0  0  0  0
    5.8166   60.1673   71.8509 H   0  0  0  0  0  0  0  0  0  0  0  0
    5.4476   61.9253   71.8509 H   0  0  0  0  0  0  0  0  0  0  0  0
    0.3801   65.4029   71.4760 H   0  0  0  0  0  0  0  0  0  0  0  0
    1.2953   65.8851   70.0075 H   0  0  0  0  0  0  0  0  0  0  0  0
   -0.4999   65.9467   70.0075 H   0  0  0  0  0  0  0  0  0  0  0  0
   -0.3574   59.2736   73.1228 H   0  0  0  0  0  0  0  0  0  0  0  0
   -0.0069   56.8180   72.9416 H   0  0  0  0  0  0  0  0  0  0  0  0
    3.4738   57.1420   75.4856 H   0  0  0  0  0  0  0  0  0  0  0  0
    3.1219   59.5996   75.6536 H   0  0  0  0  0  0  0  0  0  0  0  0
    2.6119   54.9407   76.2724 H   0  0  0  0  0  0  0  0  0  0  0  0
    3.4737   53.8757   75.2967 H   0  0  0  0  0  0  0  0  0  0  0  0
  2  1  1  0
  3  2  1  0
  4  3  2  0
  5  1  1  0
  5  4  1  0
  6  3  1  0
  7  6  2  0
  8  7  1  0
  9  8  1  0
 10  8  2  0
 11 10  1  0
 12 11  2  0
 12  6  1  0
 13 12  1  0
 15 14  2  0
 16 15  1  0
 17 16  2  0
 18 17  1  0
 19 18  2  0
 19 14  1  0
 19  1  1  0
 21 14  1  0
 21 20  1  0
 22 17  1  0
 23 22  1  0
 24  5  1  0
 25 24  2  0
 26 25  1  0
 27 26  2  0
 28 27  1  0
 29 24  1  0
 29 28  2  0
 30 27  1  0
 31 30  2  0
 32 30  2  0
 33 30  1  0
  1 34  1  1
  2 35  1  0
  2 36  1  0
  7 37  1  0
 10 38  1  0
 11 39  1  0
 15 40  1  0
 16 41  1  0
 18 42  1  0
 20 43  1  0
 20 44  1  0
 20 45  1  0
 23 46  1  0
 23 47  1  0
 23 48  1  0
 25 49  1  0
 26 50  1  0
 28 51  1  0
 29 52  1  0
 33 53  1  0
 33 54  1  0
M  END
>  <score>  (5) 
-7.704

$$$$
=
     RDKit          3D

 54 57  0  0  0  0  0  0  0  0999 V2000
    0.3260   59.3740   74.0130 C   0  0  1  0  0  0  0  0  0  0  0  0
    0.9150   60.4750   73.1300 C   0  0  0  0  0  0  0  0  0  0  0  0
    2.0850   59.7450   72.5300 C   0  0  0  0  0  0  0  0  0  0  0  0
    2.1110   58.4660   72.7560 N   0  0  0  0  0  0  0  0  0  0  0  0
    1.0470   58.1770   73.5590 N   0  0  0  0  0  0  0  0  0  0  0  0
    3.1140   60.4300   71.7180 C   0  0  0  0  0  0  0  0  0  0  0  0
    2.7410   60.9770   70.4830 C   0  0  0  0  0  0  0  0  0  0  0  0
    3.6920   61.6240   69.6990 C   0  0  0  0  0  0  0  0  0  0  0  0
    3.3310   62.1430   68.5190 F   0  0  0  0  0  0  0  0  0  0  0  0
    5.0120   61.7420   70.1210 C   0  0  0  0  0  0  0  0  0  0  0  0
    5.3880   61.2030   71.3510 C   0  0  0  0  0  0  0  0  0  0  0  0
    4.4400   60.5530   72.1410 C   0  0  0  0  0  0  0  0  0  0  0  0
    4.8430   60.0640   73.3220 F   0  0  0  0  0  0  0  0  0  0  0  0
   -0.5710   59.9860   76.3110 C   0  0  0  0  0  0  0  0  0  0  0  0
   -0.3680   60.2960   77.6590 C   0  0  0  0  0  0  0  0  0  0  0  0
    0.9240   60.3310   78.1990 C   0  0  0  0  0  0  0  0  0  0  0  0
    2.0280   60.0600   77.3970 C   0  0  0  0  0  0  0  0  0  0  0  0
    1.8270   59.7510   76.0500 C   0  0  0  0  0  0  0  0  0  0  0  0
    0.5350   59.6930   75.4900 C   0  0  0  0  0  0  0  0  0  0  0  0
   -2.7190   58.9580   76.1310 C   0  0  0  0  0  0  0  0  0  0  0  0
   -1.7960   59.9510   75.6980 O   0  0  0  0  0  0  0  0  0  0  0  0
    3.3350   60.0740   77.7930 O   0  0  0  0  0  0  0  0  0  0  0  0
    3.6670   60.9150   78.8900 C   0  0  0  0  0  0  0  0  0  0  0  0
    0.7080   56.8580   73.8540 C   0  0  0  0  0  0  0  0  0  0  0  0
   -0.6280   56.5020   74.1220 C   0  0  0  0  0  0  0  0  0  0  0  0
   -1.0010   55.1870   74.4200 C   0  0  0  0  0  0  0  0  0  0  0  0
   -0.0250   54.1960   74.4650 C   0  0  0  0  0  0  0  0  0  0  0  0
    1.3060   54.5050   74.1910 C   0  0  0  0  0  0  0  0  0  0  0  0
    1.6620   55.8260   73.8930 C   0  0  0  0  0  0  0  0  0  0  0  0
   -0.4750   52.5280   74.8510 S   0  0  0  0  0  6  0  0  0  0  0  0
   -1.1960   52.5190   76.1030 O   0  0  0  0  0  0  0  0  0  0  0  0
   -0.9840   51.8980   73.6570 O   0  0  0  0  0  0  0  0  0  0  0  0
    1.0300   51.8480   75.1910 N   0  0  0  0  0  0  0  0  0  0  0  0
   -0.7635   59.2510   73.9249 H   0  0  0  0  0  0  0  0  0  0  0  0
    0.2019   60.8031   72.3593 H   0  0  0  0  0  0  0  0  0  0  0  0
    1.1758   61.4011   73.6631 H   0  0  0  0  0  0  0  0  0  0  0  0
    1.7009   60.8954   70.1345 H   0  0  0  0  0  0  0  0  0  0  0  0
    5.7526   62.2557   69.4904 H   0  0  0  0  0  0  0  0  0  0  0  0
    6.4285   61.2902   71.6969 H   0  0  0  0  0  0  0  0  0  0  0  0
   -1.2326   60.5149   78.3028 H   0  0  0  0  0  0  0  0  0  0  0  0
    1.0664   60.5739   79.2623 H   0  0  0  0  0  0  0  0  0  0  0  0
    2.6985   59.5479   75.4104 H   0  0  0  0  0  0  0  0  0  0  0  0
   -2.7420   58.9333   77.2305 H   0  0  0  0  0  0  0  0  0  0  0  0
   -3.7221   59.1981   75.7486 H   0  0  0  0  0  0  0  0  0  0  0  0
   -2.4064   57.9751   75.7486 H   0  0  0  0  0  0  0  0  0  0  0  0
    3.4588   60.3875   79.8326 H   0  0  0  0  0  0  0  0  0  0  0  0
    4.7350   61.1743   78.8431 H   0  0  0  0  0  0  0  0  0  0  0  0
    3.0642   61.8339   78.8431 H   0  0  0  0  0  0  0  0  0  0  0  0
   -1.4027   57.2825   74.0962 H   0  0  0  0  0  0  0  0  0  0  0  0
   -2.0545   54.9390   74.6166 H   0  0  0  0  0  0  0  0  0  0  0  0
    2.0722   53.7160   74.2087 H   0  0  0  0  0  0  0  0  0  0  0  0
    2.7157   56.0625   73.6839 H   0  0  0  0  0  0  0  0  0  0  0  0
    1.1580   51.7902   76.2114 H   0  0  0  0  0  0  0  0  0  0  0  0
    1.0794   50.9028   74.7847 H   0  0  0  0  0  0  0  0  0  0  0  0
  2  1  1  0
  3  2  1  0
  4  3  2  0
  5  1  1  0
  5  4  1  0
  6  3  1  0
  7  6  2  0
  8  7  1  0
  9  8  1  0
 10  8  2  0
 11 10  1  0
 12 11  2  0
 12  6  1  0
 13 12  1  0
 15 14  2  0
 16 15  1  0
 17 16  2  0
 18 17  1  0
 19 18  2  0
 19 14  1  0
 19  1  1  0
 21 14  1  0
 21 20  1  0
 22 17  1  0
 23 22  1  0
 24  5  1  0
 25 24  2  0
 26 25  1  0
 27 26  2  0
 28 27  1  0
 29 24  1  0
 29 28  2  0
 30 27  1  0
 31 30  2  0
 32 30  2  0
 33 30  1  0
  1 34  1  1
  2 35  1  0
  2 36  1  0
  7 37  1  0
 10 38  1  0
 11 39  1  0
 15 40  1  0
 16 41  1  0
 18 42  1  0
 20 43  1  0
 20 44  1  0
 20 45  1  0
 23 46  1  0
 23 47  1  0
 23 48  1  0
 25 49  1  0
 26 50  1  0
 28 51  1  0
 29 52  1  0
 33 53  1  0
 33 54  1  0
M  END
>  <score>  (6) 
-7.644

$$$$
=
     RDKit          3D

 54 57  0  0  0  0  0  0  0  0999 V2000
    0.5960   60.2380   74.6100 C   0  0  1  0  0  0  0  0  0  0  0  0
    1.6010   61.2290   74.0220 C   0  0  0  0  0  0  0  0  0  0  0  0
    0.8060   61.7700   72.8660 C   0  0  0  0  0  0  0  0  0  0  0  0
   -0.4460   61.4240   72.8480 N   0  0  0  0  0  0  0  0  0  0  0  0
   -0.6460   60.5840   73.9050 N   0  0  0  0  0  0  0  0  0  0  0  0
    1.4000   62.6560   71.8410 C   0  0  0  0  0  0  0  0  0  0  0  0
    2.4360   62.1550   71.0400 C   0  0  0  0  0  0  0  0  0  0  0  0
    3.0130   62.9700   70.0700 C   0  0  0  0  0  0  0  0  0  0  0  0
    4.0040   62.4880   69.3090 F   0  0  0  0  0  0  0  0  0  0  0  0
    2.5770   64.2760   69.8760 C   0  0  0  0  0  0  0  0  0  0  0  0
    1.5450   64.7780   70.6660 C   0  0  0  0  0  0  0  0  0  0  0  0
    0.9620   63.9680   71.6410 C   0  0  0  0  0  0  0  0  0  0  0  0
   -0.0380   64.4860   72.3670 F   0  0  0  0  0  0  0  0  0  0  0  0
    1.0860   57.8920   75.4550 C   0  0  0  0  0  0  0  0  0  0  0  0
    1.5250   56.5830   75.2380 C   0  0  0  0  0  0  0  0  0  0  0  0
    1.9420   56.1680   73.9670 C   0  0  0  0  0  0  0  0  0  0  0  0
    1.9300   57.0590   72.8990 C   0  0  0  0  0  0  0  0  0  0  0  0
    1.4930   58.3680   73.1130 C   0  0  0  0  0  0  0  0  0  0  0  0
    1.0530   58.8020   74.3800 C   0  0  0  0  0  0  0  0  0  0  0  0
    1.0580   57.6570   77.8310 C   0  0  0  0  0  0  0  0  0  0  0  0
    0.6830   58.3860   76.6680 O   0  0  0  0  0  0  0  0  0  0  0  0
    2.3220   56.7880   71.6190 O   0  0  0  0  0  0  0  0  0  0  0  0
    3.2060   57.7160   71.0050 C   0  0  0  0  0  0  0  0  0  0  0  0
   -1.9280   60.1610   74.2520 C   0  0  0  0  0  0  0  0  0  0  0  0
   -2.1340   58.8920   74.8260 C   0  0  0  0  0  0  0  0  0  0  0  0
   -3.4070   58.4370   75.1860 C   0  0  0  0  0  0  0  0  0  0  0  0
   -4.5110   59.2570   74.9640 C   0  0  0  0  0  0  0  0  0  0  0  0
   -4.3460   60.5250   74.4120 C   0  0  0  0  0  0  0  0  0  0  0  0
   -3.0650   60.9650   74.0590 C   0  0  0  0  0  0  0  0  0  0  0  0
   -6.1310   58.6960   75.4040 S   0  0  0  0  0  6  0  0  0  0  0  0
   -6.0070   57.6170   76.3570 O   0  0  0  0  0  0  0  0  0  0  0  0
   -6.9710   59.8460   75.6370 O   0  0  0  0  0  0  0  0  0  0  0  0
   -6.6330   57.9730   73.9660 N   0  0  0  0  0  0  0  0  0  0  0  0
    0.4757   60.3008   75.7016 H   0  0  0  0  0  0  0  0  0  0  0  0
    1.8609   62.0193   74.7416 H   0  0  0  0  0  0  0  0  0  0  0  0
    2.5710   60.7897   73.7462 H   0  0  0  0  0  0  0  0  0  0  0  0
    2.7911   61.1230   71.1774 H   0  0  0  0  0  0  0  0  0  0  0  0
    3.0430   64.9075   69.1053 H   0  0  0  0  0  0  0  0  0  0  0  0
    1.1911   65.8094   70.5215 H   0  0  0  0  0  0  0  0  0  0  0  0
    1.5432   55.8701   76.0755 H   0  0  0  0  0  0  0  0  0  0  0  0
    2.2805   55.1328   73.8127 H   0  0  0  0  0  0  0  0  0  0  0  0
    1.4921   59.0776   72.2725 H   0  0  0  0  0  0  0  0  0  0  0  0
    0.7669   58.2229   78.7282 H   0  0  0  0  0  0  0  0  0  0  0  0
    0.5498   56.6814   77.8319 H   0  0  0  0  0  0  0  0  0  0  0  0
    2.1472   57.5031   77.8319 H   0  0  0  0  0  0  0  0  0  0  0  0
    3.7431   58.2799   71.7819 H   0  0  0  0  0  0  0  0  0  0  0  0
    3.9299   57.1737   70.3789 H   0  0  0  0  0  0  0  0  0  0  0  0
    2.6292   58.4127   70.3789 H   0  0  0  0  0  0  0  0  0  0  0  0
   -1.2665   58.2376   74.9968 H   0  0  0  0  0  0  0  0  0  0  0  0
   -3.5347   57.4429   75.6393 H   0  0  0  0  0  0  0  0  0  0  0  0
   -5.2177   61.1772   74.2543 H   0  0  0  0  0  0  0  0  0  0  0  0
   -2.9448   61.9660   73.6191 H   0  0  0  0  0  0  0  0  0  0  0  0
   -7.2076   57.1454   74.1801 H   0  0  0  0  0  0  0  0  0  0  0  0
   -7.1898   58.6456   73.4197 H   0  0  0  0  0  0  0  0  0  0  0  0
  2  1  1  0
  3  2  1  0
  4  3  2  0
  5  1  1  0
  5  4  1  0
  6  3  1  0
  7  6  2  0
  8  7  1  0
  9  8  1  0
 10  8  2  0
 11 10  1  0
 12 11  2  0
 12  6  1  0
 13 12  1  0
 15 14  2  0
 16 15  1  0
 17 16  2  0
 18 17  1  0
 19 18  2  0
 19 14  1  0
 19  1  1  0
 21 14  1  0
 21 20  1  0
 22 17  1  0
 23 22  1  0
 24  5  1  0
 25 24  2  0
 26 25  1  0
 27 26  2  0
 28 27  1  0
 29 24  1  0
 29 28  2  0
 30 27  1  0
 31 30  2  0
 32 30  2  0
 33 30  1  0
  1 34  1  1
  2 35  1  0
  2 36  1  0
  7 37  1  0
 10 38  1  0
 11 39  1  0
 15 40  1  0
 16 41  1  0
 18 42  1  0
 20 43  1  0
 20 44  1  0
 20 45  1  0
 23 46  1  0
 23 47  1  0
 23 48  1  0
 25 49  1  0
 26 50  1  0
 28 51  1  0
 29 52  1  0
 33 53  1  0
 33 54  1  0
M  END
>  <score>  (7) 
-7.563

$$$$
=
     RDKit          3D

 54 57  0  0  0  0  0  0  0  0999 V2000
   -0.3000   59.4460   75.2530 C   0  0  1  0  0  0  0  0  0  0  0  0
   -0.4040   58.0360   75.8370 C   0  0  0  0  0  0  0  0  0  0  0  0
   -0.1930   57.2120   74.5970 C   0  0  0  0  0  0  0  0  0  0  0  0
    0.1880   57.8790   73.5500 N   0  0  0  0  0  0  0  0  0  0  0  0
    0.2240   59.1970   73.9030 N   0  0  0  0  0  0  0  0  0  0  0  0
   -0.3800   55.7440   74.5790 C   0  0  0  0  0  0  0  0  0  0  0  0
   -1.5990   55.2170   75.0280 C   0  0  0  0  0  0  0  0  0  0  0  0
   -1.7970   53.8400   75.0230 C   0  0  0  0  0  0  0  0  0  0  0  0
   -2.9620   53.3400   75.4540 F   0  0  0  0  0  0  0  0  0  0  0  0
   -0.8070   52.9720   74.5760 C   0  0  0  0  0  0  0  0  0  0  0  0
    0.4050   53.4910   74.1250 C   0  0  0  0  0  0  0  0  0  0  0  0
    0.6120   54.8700   74.1270 C   0  0  0  0  0  0  0  0  0  0  0  0
    1.7870   55.3250   73.6710 F   0  0  0  0  0  0  0  0  0  0  0  0
   -1.7720   61.4560   75.7520 C   0  0  0  0  0  0  0  0  0  0  0  0
   -3.0240   62.0770   75.7780 C   0  0  0  0  0  0  0  0  0  0  0  0
   -4.1690   61.4000   75.3380 C   0  0  0  0  0  0  0  0  0  0  0  0
   -4.0750   60.0930   74.8720 C   0  0  0  0  0  0  0  0  0  0  0  0
   -2.8260   59.4710   74.8450 C   0  0  0  0  0  0  0  0  0  0  0  0
   -1.6580   60.1390   75.2670 C   0  0  0  0  0  0  0  0  0  0  0  0
   -0.2580   63.2980   75.6250 C   0  0  0  0  0  0  0  0  0  0  0  0
   -0.6070   62.0370   76.1830 O   0  0  0  0  0  0  0  0  0  0  0  0
   -5.1100   59.3200   74.4290 O   0  0  0  0  0  0  0  0  0  0  0  0
   -6.4000   59.9180   74.4120 C   0  0  0  0  0  0  0  0  0  0  0  0
    0.7480   60.1580   73.0410 C   0  0  0  0  0  0  0  0  0  0  0  0
    2.0500   60.0250   72.5240 C   0  0  0  0  0  0  0  0  0  0  0  0
    2.6050   60.9710   71.6550 C   0  0  0  0  0  0  0  0  0  0  0  0
    1.8540   62.0860   71.2940 C   0  0  0  0  0  0  0  0  0  0  0  0
    0.5560   62.2470   71.7730 C   0  0  0  0  0  0  0  0  0  0  0  0
    0.0150   61.2900   72.6400 C   0  0  0  0  0  0  0  0  0  0  0  0
    2.5420   63.3000   70.2040 S   0  0  0  0  0  6  0  0  0  0  0  0
    1.5260   64.2840   69.9050 O   0  0  0  0  0  0  0  0  0  0  0  0
    3.8550   63.6600   70.6810 O   0  0  0  0  0  0  0  0  0  0  0  0
    2.7340   62.4040   68.7890 N   0  0  0  0  0  0  0  0  0  0  0  0
    0.3474   60.1306   75.8206 H   0  0  0  0  0  0  0  0  0  0  0  0
    0.3778   57.8483   76.5877 H   0  0  0  0  0  0  0  0  0  0  0  0
   -1.3425   57.8286   76.3720 H   0  0  0  0  0  0  0  0  0  0  0  0
   -2.3947   55.8887   75.3824 H   0  0  0  0  0  0  0  0  0  0  0  0
   -0.9790   51.8855   74.5784 H   0  0  0  0  0  0  0  0  0  0  0  0
    1.1961   52.8149   73.7685 H   0  0  0  0  0  0  0  0  0  0  0  0
   -3.1113   63.1092   76.1482 H   0  0  0  0  0  0  0  0  0  0  0  0
   -5.1463   61.9043   75.3612 H   0  0  0  0  0  0  0  0  0  0  0  0
   -2.7508   58.4341   74.4857 H   0  0  0  0  0  0  0  0  0  0  0  0
   -0.0595   64.0152   76.4351 H   0  0  0  0  0  0  0  0  0  0  0  0
    0.6433   63.1874   75.0042 H   0  0  0  0  0  0  0  0  0  0  0  0
   -1.0879   63.6666   75.0042 H   0  0  0  0  0  0  0  0  0  0  0  0
   -6.7439   60.0774   75.4446 H   0  0  0  0  0  0  0  0  0  0  0  0
   -6.3493   60.8844   73.8891 H   0  0  0  0  0  0  0  0  0  0  0  0
   -7.1048   59.2547   73.8891 H   0  0  0  0  0  0  0  0  0  0  0  0
    2.6506   59.1496   72.8121 H   0  0  0  0  0  0  0  0  0  0  0  0
    3.6232   60.8351   71.2616 H   0  0  0  0  0  0  0  0  0  0  0  0
   -0.0405   63.1208   71.4719 H   0  0  0  0  0  0  0  0  0  0  0  0
   -1.0092   61.4266   73.0173 H   0  0  0  0  0  0  0  0  0  0  0  0
    2.9439   61.4245   69.0287 H   0  0  0  0  0  0  0  0  0  0  0  0
    1.8654   62.4438   68.2369 H   0  0  0  0  0  0  0  0  0  0  0  0
  2  1  1  0
  3  2  1  0
  4  3  2  0
  5  1  1  0
  5  4  1  0
  6  3  1  0
  7  6  2  0
  8  7  1  0
  9  8  1  0
 10  8  2  0
 11 10  1  0
 12 11  2  0
 12  6  1  0
 13 12  1  0
 15 14  2  0
 16 15  1  0
 17 16  2  0
 18 17  1  0
 19 18  2  0
 19 14  1  0
 19  1  1  0
 21 14  1  0
 21 20  1  0
 22 17  1  0
 23 22  1  0
 24  5  1  0
 25 24  2  0
 26 25  1  0
 27 26  2  0
 28 27  1  0
 29 24  1  0
 29 28  2  0
 30 27  1  0
 31 30  2  0
 32 30  2  0
 33 30  1  0
  1 34  1  1
  2 35  1  0
  2 36  1  0
  7 37  1  0
 10 38  1  0
 11 39  1  0
 15 40  1  0
 16 41  1  0
 18 42  1  0
 20 43  1  0
 20 44  1  0
 20 45  1  0
 23 46  1  0
 23 47  1  0
 23 48  1  0
 25 49  1  0
 26 50  1  0
 28 51  1  0
 29 52  1  0
 33 53  1  0
 33 54  1  0
M  END
>  <score>  (8) 
-7.559

$$$$
=
     RDKit          3D

 54 57  0  0  0  0  0  0  0  0999 V2000
    1.2280   60.9000   74.7460 C   0  0  1  0  0  0  0  0  0  0  0  0
    2.4190   61.3490   73.8980 C   0  0  0  0  0  0  0  0  0  0  0  0
    1.7150   61.7600   72.6350 C   0  0  0  0  0  0  0  0  0  0  0  0
    0.4190   61.8050   72.7160 N   0  0  0  0  0  0  0  0  0  0  0  0
    0.0790   61.3870   73.9700 N   0  0  0  0  0  0  0  0  0  0  0  0
    2.4460   62.1130   71.3980 C   0  0  0  0  0  0  0  0  0  0  0  0
    3.1670   61.1110   70.7360 C   0  0  0  0  0  0  0  0  0  0  0  0
    3.8650   61.4190   69.5720 C   0  0  0  0  0  0  0  0  0  0  0  0
    4.5550   60.4590   68.9430 F   0  0  0  0  0  0  0  0  0  0  0  0
    3.8590   62.7070   69.0490 C   0  0  0  0  0  0  0  0  0  0  0  0
    3.1400   63.7070   69.7020 C   0  0  0  0  0  0  0  0  0  0  0  0
    2.4380   63.4060   70.8690 C   0  0  0  0  0  0  0  0  0  0  0  0
    1.7490   64.3950   71.4550 F   0  0  0  0  0  0  0  0  0  0  0  0
    0.9530   58.8360   76.2030 C   0  0  0  0  0  0  0  0  0  0  0  0
    0.9850   57.4490   76.3750 C   0  0  0  0  0  0  0  0  0  0  0  0
    1.3130   56.6020   75.3090 C   0  0  0  0  0  0  0  0  0  0  0  0
    1.6170   57.1320   74.0600 C   0  0  0  0  0  0  0  0  0  0  0  0
    1.5850   58.5170   73.8850 C   0  0  0  0  0  0  0  0  0  0  0  0
    1.2410   59.3870   74.9390 C   0  0  0  0  0  0  0  0  0  0  0  0
   -0.5680   59.5740   77.8900 C   0  0  0  0  0  0  0  0  0  0  0  0
    0.6640   59.7360   77.1960 O   0  0  0  0  0  0  0  0  0  0  0  0
    1.9640   56.4220   72.9460 O   0  0  0  0  0  0  0  0  0  0  0  0
    2.3560   57.1680   71.8010 C   0  0  0  0  0  0  0  0  0  0  0  0
   -1.2350   61.4710   74.4240 C   0  0  0  0  0  0  0  0  0  0  0  0
   -1.5670   62.2930   75.5170 C   0  0  0  0  0  0  0  0  0  0  0  0
   -2.8770   62.4010   75.9960 C   0  0  0  0  0  0  0  0  0  0  0  0
   -3.8880   61.6670   75.3820 C   0  0  0  0  0  0  0  0  0  0  0  0
   -3.6030   60.8530   74.2880 C   0  0  0  0  0  0  0  0  0  0  0  0
   -2.2870   60.7580   73.8200 C   0  0  0  0  0  0  0  0  0  0  0  0
   -5.5510   61.7810   75.9790 S   0  0  0  0  0  6  0  0  0  0  0  0
   -5.7060   60.8790   77.0970 O   0  0  0  0  0  0  0  0  0  0  0  0
   -5.9240   63.1730   76.0460 O   0  0  0  0  0  0  0  0  0  0  0  0
   -6.4080   61.0780   74.7090 N   0  0  0  0  0  0  0  0  0  0  0  0
    1.2222   61.2942   75.7729 H   0  0  0  0  0  0  0  0  0  0  0  0
    2.9511   62.1937   74.3598 H   0  0  0  0  0  0  0  0  0  0  0  0
    3.1986   60.5852   73.7610 H   0  0  0  0  0  0  0  0  0  0  0  0
    3.1814   60.0857   71.1342 H   0  0  0  0  0  0  0  0  0  0  0  0
    4.4164   62.9350   68.1285 H   0  0  0  0  0  0  0  0  0  0  0  0
    3.1264   64.7301   69.2982 H   0  0  0  0  0  0  0  0  0  0  0  0
    0.7498   57.0178   77.3593 H   0  0  0  0  0  0  0  0  0  0  0  0
    1.3302   55.5126   75.4605 H   0  0  0  0  0  0  0  0  0  0  0  0
    1.8344   58.9393   72.9004 H   0  0  0  0  0  0  0  0  0  0  0  0
   -0.3840   59.5982   78.9742 H   0  0  0  0  0  0  0  0  0  0  0  0
   -1.2532   60.3898   77.6161 H   0  0  0  0  0  0  0  0  0  0  0  0
   -1.0190   58.6088   77.6161 H   0  0  0  0  0  0  0  0  0  0  0  0
    2.8456   58.0998   72.1204 H   0  0  0  0  0  0  0  0  0  0  0  0
    3.0579   56.5729   71.1983 H   0  0  0  0  0  0  0  0  0  0  0  0
    1.4678   57.4085   71.1983 H   0  0  0  0  0  0  0  0  0  0  0  0
   -0.7707   62.8693   76.0107 H   0  0  0  0  0  0  0  0  0  0  0  0
   -3.1055   63.0583   76.8479 H   0  0  0  0  0  0  0  0  0  0  0  0
   -4.4076   60.2880   73.7946 H   0  0  0  0  0  0  0  0  0  0  0  0
   -2.0699   60.1096   72.9583 H   0  0  0  0  0  0  0  0  0  0  0  0
   -7.1482   60.4708   75.0889 H   0  0  0  0  0  0  0  0  0  0  0  0
   -6.8331   61.8170   74.1311 H   0  0  0  0  0  0  0  0  0  0  0  0
  2  1  1  0
  3  2  1  0
  4  3  2  0
  5  1  1  0
  5  4  1  0
  6  3  1  0
  7  6  2  0
  8  7  1  0
  9  8  1  0
 10  8  2  0
 11 10  1  0
 12 11  2  0
 12  6  1  0
 13 12  1  0
 15 14  2  0
 16 15  1  0
 17 16  2  0
 18 17  1  0
 19 18  2  0
 19 14  1  0
 19  1  1  0
 21 14  1  0
 21 20  1  0
 22 17  1  0
 23 22  1  0
 24  5  1  0
 25 24  2  0
 26 25  1  0
 27 26  2  0
 28 27  1  0
 29 24  1  0
 29 28  2  0
 30 27  1  0
 31 30  2  0
 32 30  2  0
 33 30  1  0
  1 34  1  1
  2 35  1  0
  2 36  1  0
  7 37  1  0
 10 38  1  0
 11 39  1  0
 15 40  1  0
 16 41  1  0
 18 42  1  0
 20 43  1  0
 20 44  1  0
 20 45  1  0
 23 46  1  0
 23 47  1  0
 23 48  1  0
 25 49  1  0
 26 50  1  0
 28 51  1  0
 29 52  1  0
 33 53  1  0
 33 54  1  0
M  END
>  <score>  (9) 
-7.411

$$$$
