=
     RDKit          3D

 39 40  0  0  0  0  0  0  0  0999 V2000
    4.6460   69.1890   63.9160 C   0  0  0  0  0  0  0  0  0  0  0  0
    5.2560   68.1100   63.0110 C   0  0  2  0  0  0  0  0  0  0  0  0
    6.0080   68.7110   61.9610 O   0  0  0  0  0  0  0  0  0  0  0  0
    4.1630   67.2200   62.3760 C   0  0  0  0  0  0  0  0  0  0  0  0
    4.3540   65.7720   62.7200 N   0  0  0  0  0  4  0  0  0  0  0  0
    4.2210   65.3460   64.1520 C   0  0  0  0  0  0  0  0  0  0  0  0
    2.8690   65.7690   64.7100 C   0  0  0  0  0  0  0  0  0  0  0  0
    4.4810   63.8540   64.2930 C   0  0  0  0  0  0  0  0  0  0  0  0
    5.3340   69.1520   65.1680 O   0  0  0  0  0  0  0  0  0  0  0  0
    4.6190   69.4920   66.2870 C   0  0  0  0  0  0  0  0  0  0  0  0
    3.2390   69.3010   66.4460 C   0  0  0  0  0  0  0  0  0  0  0  0
    2.5970   69.6400   67.6390 C   0  0  0  0  0  0  0  0  0  0  0  0
    3.3040   70.1850   68.7110 C   0  0  0  0  0  0  0  0  0  0  0  0
    4.6740   70.3950   68.5380 C   0  0  0  0  0  0  0  0  0  0  0  0
    5.3430   70.0740   67.3560 C   0  0  0  0  0  0  0  0  0  0  0  0
    6.7060   70.4550   67.5430 C   0  0  0  0  0  0  0  0  0  0  0  0
    6.8350   70.9660   68.8130 C   0  0  0  0  0  0  0  0  0  0  0  0
    5.6010   70.9280   69.4070 N   0  0  0  0  0  0  0  0  0  0  0  0
    4.7676   70.1788   63.4518 H   0  0  0  0  0  0  0  0  0  0  0  0
    3.5718   69.0035   64.0632 H   0  0  0  0  0  0  0  0  0  0  0  0
    5.9082   67.4887   63.6424 H   0  0  0  0  0  0  0  0  0  0  0  0
    6.7197   69.2798   62.3485 H   0  0  0  0  0  0  0  0  0  0  0  0
    3.1794   67.5467   62.7444 H   0  0  0  0  0  0  0  0  0  0  0  0
    4.2302   67.3235   61.2829 H   0  0  0  0  0  0  0  0  0  0  0  0
    3.6585   65.2381   62.1795 H   0  0  0  0  0  0  0  0  0  0  0  0
    5.3433   65.5914   62.4972 H   0  0  0  0  0  0  0  0  0  0  0  0
    4.9862   65.8563   64.7554 H   0  0  0  0  0  0  0  0  0  0  0  0
    2.9062   65.7574   65.8093 H   0  0  0  0  0  0  0  0  0  0  0  0
    2.6302   66.7848   64.3619 H   0  0  0  0  0  0  0  0  0  0  0  0
    2.0939   65.0704   64.3619 H   0  0  0  0  0  0  0  0  0  0  0  0
    4.5272   63.5890   65.3596 H   0  0  0  0  0  0  0  0  0  0  0  0
    3.6671   63.2928   63.8107 H   0  0  0  0  0  0  0  0  0  0  0  0
    5.4367   63.6012   63.8107 H   0  0  0  0  0  0  0  0  0  0  0  0
    2.6525   68.8772   65.6175 H   0  0  0  0  0  0  0  0  0  0  0  0
    1.5138   69.4742   67.7352 H   0  0  0  0  0  0  0  0  0  0  0  0
    2.8019   70.4395   69.6561 H   0  0  0  0  0  0  0  0  0  0  0  0
    7.5120   70.3569   66.8009 H   0  0  0  0  0  0  0  0  0  0  0  0
    7.7633   71.3388   69.2704 H   0  0  0  0  0  0  0  0  0  0  0  0
    5.3962   71.2507   70.3634 H   0  0  0  0  0  0  0  0  0  0  0  0
  2  1  1  0
  3  2  1  0
  4  2  1  0
  5  4  1  0
  6  5  1  0
  7  6  1  0
  8  6  1  0
  9  1  1  0
 10  9  1  0
 11 10  2  0
 12 11  1  0
 13 12  2  0
 14 13  1  0
 15 14  2  0
 15 10  1  0
 16 15  1  0
 17 16  2  0
 18 14  1  0
 18 17  1  0
  1 19  1  0
  1 20  1  0
  2 21  1  1
  3 22  1  0
  4 23  1  0
  4 24  1  0
  5 25  1  0
  5 26  1  0
  6 27  1  0
  7 28  1  0
  7 29  1  0
  7 30  1  0
  8 31  1  0
  8 32  1  0
  8 33  1  0
 11 34  1  0
 12 35  1  0
 13 36  1  0
 16 37  1  0
 17 38  1  0
 18 39  1  0
M  CHG  1   5   1
M  END
>  <score>  (1) 
-8.37

$$$$
=
     RDKit          3D

 39 40  0  0  0  0  0  0  0  0999 V2000
    0.4580   68.9100   67.5660 C   0  0  0  0  0  0  0  0  0  0  0  0
   -0.6030   68.2100   66.7060 C   0  0  2  0  0  0  0  0  0  0  0  0
   -0.2860   66.8300   66.5530 O   0  0  0  0  0  0  0  0  0  0  0  0
   -0.6980   68.8430   65.2980 C   0  0  0  0  0  0  0  0  0  0  0  0
    0.2910   68.2360   64.3460 N   0  0  0  0  0  4  0  0  0  0  0  0
    0.9070   69.1070   63.2920 C   0  0  0  0  0  0  0  0  0  0  0  0
    2.0570   68.3810   62.6070 C   0  0  0  0  0  0  0  0  0  0  0  0
   -0.1520   69.5950   62.3150 C   0  0  0  0  0  0  0  0  0  0  0  0
    1.7200   68.7640   66.9100 O   0  0  0  0  0  0  0  0  0  0  0  0
    2.7910   69.4220   67.4570 C   0  0  0  0  0  0  0  0  0  0  0  0
    2.8220   69.9700   68.7480 C   0  0  0  0  0  0  0  0  0  0  0  0
    3.9730   70.5890   69.2400 C   0  0  0  0  0  0  0  0  0  0  0  0
    5.1290   70.6880   68.4650 C   0  0  0  0  0  0  0  0  0  0  0  0
    5.0840   70.1610   67.1720 C   0  0  0  0  0  0  0  0  0  0  0  0
    3.9470   69.5430   66.6490 C   0  0  0  0  0  0  0  0  0  0  0  0
    4.2690   69.1650   65.3100 C   0  0  0  0  0  0  0  0  0  0  0  0
    5.5720   69.5330   65.0660 C   0  0  0  0  0  0  0  0  0  0  0  0
    6.0560   70.1370   66.1960 N   0  0  0  0  0  0  0  0  0  0  0  0
    0.2114   69.9770   67.6691 H   0  0  0  0  0  0  0  0  0  0  0  0
    0.4937   68.4630   68.5705 H   0  0  0  0  0  0  0  0  0  0  0  0
   -1.5668   68.3271   67.2231 H   0  0  0  0  0  0  0  0  0  0  0  0
   -0.1901   66.4125   67.4455 H   0  0  0  0  0  0  0  0  0  0  0  0
   -1.7132   68.6859   64.9048 H   0  0  0  0  0  0  0  0  0  0  0  0
   -0.4708   69.9154   65.3893 H   0  0  0  0  0  0  0  0  0  0  0  0
    1.0621   67.8550   64.9127 H   0  0  0  0  0  0  0  0  0  0  0  0
   -0.2646   67.5530   63.8114 H   0  0  0  0  0  0  0  0  0  0  0  0
    1.3347   70.0031   63.7654 H   0  0  0  0  0  0  0  0  0  0  0  0
    2.7284   67.9571   63.3683 H   0  0  0  0  0  0  0  0  0  0  0  0
    1.6572   67.5712   61.9789 H   0  0  0  0  0  0  0  0  0  0  0  0
    2.6161   69.0902   61.9789 H   0  0  0  0  0  0  0  0  0  0  0  0
   -1.0122   69.9914   62.8744 H   0  0  0  0  0  0  0  0  0  0  0  0
    0.2711   70.3890   61.6820 H   0  0  0  0  0  0  0  0  0  0  0  0
   -0.4807   68.7575   61.6820 H   0  0  0  0  0  0  0  0  0  0  0  0
    1.9255   69.9112   69.3827 H   0  0  0  0  0  0  0  0  0  0  0  0
    3.9682   71.0064   70.2577 H   0  0  0  0  0  0  0  0  0  0  0  0
    6.0406   71.1627   68.8570 H   0  0  0  0  0  0  0  0  0  0  0  0
    3.5938   68.6670   64.5986 H   0  0  0  0  0  0  0  0  0  0  0  0
    6.1265   69.3710   64.1299 H   0  0  0  0  0  0  0  0  0  0  0  0
    7.0074   70.5175   66.3007 H   0  0  0  0  0  0  0  0  0  0  0  0
  2  1  1  0
  3  2  1  0
  4  2  1  0
  5  4  1  0
  6  5  1  0
  7  6  1  0
  8  6  1  0
  9  1  1  0
 10  9  1  0
 11 10  2  0
 12 11  1  0
 13 12  2  0
 14 13  1  0
 15 14  2  0
 15 10  1  0
 16 15  1  0
 17 16  2  0
 18 14  1  0
 18 17  1  0
  1 19  1  0
  1 20  1  0
  2 21  1  1
  3 22  1  0
  4 23  1  0
  4 24  1  0
  5 25  1  0
  5 26  1  0
  6 27  1  0
  7 28  1  0
  7 29  1  0
  7 30  1  0
  8 31  1  0
  8 32  1  0
  8 33  1  0
 11 34  1  0
 12 35  1  0
 13 36  1  0
 16 37  1  0
 17 38  1  0
 18 39  1  0
M  CHG  1   5   1
M  END
>  <score>  (2) 
-8.313

$$$$
=
     RDKit          3D

 39 40  0  0  0  0  0  0  0  0999 V2000
    4.9880   69.4630   63.5990 C   0  0  0  0  0  0  0  0  0  0  0  0
    4.8380   68.5290   62.3900 C   0  0  2  0  0  0  0  0  0  0  0  0
    4.3720   69.2570   61.2580 O   0  0  0  0  0  0  0  0  0  0  0  0
    3.8360   67.3880   62.6780 C   0  0  0  0  0  0  0  0  0  0  0  0
    4.5300   66.0680   62.8550 N   0  0  0  0  0  4  0  0  0  0  0  0
    4.2950   65.2920   64.1160 C   0  0  0  0  0  0  0  0  0  0  0  0
    2.8980   65.5660   64.6570 C   0  0  0  0  0  0  0  0  0  0  0  0
    4.5640   63.8120   63.8920 C   0  0  0  0  0  0  0  0  0  0  0  0
    4.6000   68.7350   64.7670 O   0  0  0  0  0  0  0  0  0  0  0  0
    4.7650   69.3560   65.9770 C   0  0  0  0  0  0  0  0  0  0  0  0
    5.9710   69.8970   66.4440 C   0  0  0  0  0  0  0  0  0  0  0  0
    6.0390   70.5500   67.6760 C   0  0  0  0  0  0  0  0  0  0  0  0
    4.9120   70.6840   68.4870 C   0  0  0  0  0  0  0  0  0  0  0  0
    3.7180   70.1230   68.0270 C   0  0  0  0  0  0  0  0  0  0  0  0
    3.6200   69.4560   66.8040 C   0  0  0  0  0  0  0  0  0  0  0  0
    2.2710   69.0010   66.6960 C   0  0  0  0  0  0  0  0  0  0  0  0
    1.5920   69.4120   67.8190 C   0  0  0  0  0  0  0  0  0  0  0  0
    2.4750   70.0860   68.6200 N   0  0  0  0  0  0  0  0  0  0  0  0
    6.0345   69.7889   63.6921 H   0  0  0  0  0  0  0  0  0  0  0  0
    4.3558   70.3547   63.4754 H   0  0  0  0  0  0  0  0  0  0  0  0
    5.8297   68.0982   62.1876 H   0  0  0  0  0  0  0  0  0  0  0  0
    3.8641   70.0505   61.5622 H   0  0  0  0  0  0  0  0  0  0  0  0
    3.2814   67.6249   63.5979 H   0  0  0  0  0  0  0  0  0  0  0  0
    3.1563   67.3043   61.8172 H   0  0  0  0  0  0  0  0  0  0  0  0
    4.2405   65.4662   62.0708 H   0  0  0  0  0  0  0  0  0  0  0  0
    5.5289   66.3154   62.8973 H   0  0  0  0  0  0  0  0  0  0  0  0
    5.0051   65.6273   64.8863 H   0  0  0  0  0  0  0  0  0  0  0  0
    2.9232   65.5611   65.7567 H   0  0  0  0  0  0  0  0  0  0  0  0
    2.5538   66.5488   64.3025 H   0  0  0  0  0  0  0  0  0  0  0  0
    2.2080   64.7861   64.3025 H   0  0  0  0  0  0  0  0  0  0  0  0
    4.6562   63.3049   64.8638 H   0  0  0  0  0  0  0  0  0  0  0  0
    3.7315   63.3697   63.3251 H   0  0  0  0  0  0  0  0  0  0  0  0
    5.4989   63.6909   63.3251 H   0  0  0  0  0  0  0  0  0  0  0  0
    6.8788   69.8055   65.8295 H   0  0  0  0  0  0  0  0  0  0  0  0
    6.9994   70.9667   68.0136 H   0  0  0  0  0  0  0  0  0  0  0  0
    4.9614   71.2109   69.4513 H   0  0  0  0  0  0  0  0  0  0  0  0
    1.8488   68.4229   65.8608 H   0  0  0  0  0  0  0  0  0  0  0  0
    0.5287   69.2315   68.0354 H   0  0  0  0  0  0  0  0  0  0  0  0
    2.2436   70.5041   69.5324 H   0  0  0  0  0  0  0  0  0  0  0  0
  2  1  1  0
  3  2  1  0
  4  2  1  0
  5  4  1  0
  6  5  1  0
  7  6  1  0
  8  6  1  0
  9  1  1  0
 10  9  1  0
 11 10  2  0
 12 11  1  0
 13 12  2  0
 14 13  1  0
 15 14  2  0
 15 10  1  0
 16 15  1  0
 17 16  2  0
 18 14  1  0
 18 17  1  0
  1 19  1  0
  1 20  1  0
  2 21  1  6
  3 22  1  0
  4 23  1  0
  4 24  1  0
  5 25  1  0
  5 26  1  0
  6 27  1  0
  7 28  1  0
  7 29  1  0
  7 30  1  0
  8 31  1  0
  8 32  1  0
  8 33  1  0
 11 34  1  0
 12 35  1  0
 13 36  1  0
 16 37  1  0
 17 38  1  0
 18 39  1  0
M  CHG  1   5   1
M  END
>  <score>  (3) 
-8.303

$$$$
=
     RDKit          3D

 39 40  0  0  0  0  0  0  0  0999 V2000
    1.7130   67.8690   67.2010 C   0  0  0  0  0  0  0  0  0  0  0  0
    0.7380   67.5790   66.0510 C   0  0  2  0  0  0  0  0  0  0  0  0
   -0.3690   66.8160   66.5210 O   0  0  0  0  0  0  0  0  0  0  0  0
    1.4250   66.7860   64.9150 C   0  0  0  0  0  0  0  0  0  0  0  0
    2.6030   66.0020   65.4150 N   0  0  0  0  0  4  0  0  0  0  0  0
    3.3430   65.1190   64.4550 C   0  0  0  0  0  0  0  0  0  0  0  0
    4.4990   65.8780   63.8160 C   0  0  0  0  0  0  0  0  0  0  0  0
    3.7830   63.8340   65.1400 C   0  0  0  0  0  0  0  0  0  0  0  0
    1.8650   69.2870   67.3000 O   0  0  0  0  0  0  0  0  0  0  0  0
    3.0800   69.7590   67.7260 C   0  0  0  0  0  0  0  0  0  0  0  0
    3.3420   70.2540   69.0120 C   0  0  0  0  0  0  0  0  0  0  0  0
    4.6210   70.6780   69.3730 C   0  0  0  0  0  0  0  0  0  0  0  0
    5.6830   70.6290   68.4690 C   0  0  0  0  0  0  0  0  0  0  0  0
    5.4100   70.1570   67.1830 C   0  0  0  0  0  0  0  0  0  0  0  0
    4.1400   69.7330   66.7880 C   0  0  0  0  0  0  0  0  0  0  0  0
    4.2450   69.3560   65.4150 C   0  0  0  0  0  0  0  0  0  0  0  0
    5.5510   69.5330   65.0240 C   0  0  0  0  0  0  0  0  0  0  0  0
    6.2480   70.0210   66.0980 N   0  0  0  0  0  0  0  0  0  0  0  0
    1.3094   67.4695   68.1431 H   0  0  0  0  0  0  0  0  0  0  0  0
    2.6852   67.3915   67.0092 H   0  0  0  0  0  0  0  0  0  0  0  0
    0.3969   68.5498   65.6621 H   0  0  0  0  0  0  0  0  0  0  0  0
   -0.3719   66.8140   67.5110 H   0  0  0  0  0  0  0  0  0  0  0  0
    0.6954   66.0903   64.4749 H   0  0  0  0  0  0  0  0  0  0  0  0
    1.7868   67.5060   64.1662 H   0  0  0  0  0  0  0  0  0  0  0  0
    3.2824   66.6807   65.7873 H   0  0  0  0  0  0  0  0  0  0  0  0
    2.1944   65.3442   66.0942 H   0  0  0  0  0  0  0  0  0  0  0  0
    2.6679   64.8240   63.6382 H   0  0  0  0  0  0  0  0  0  0  0  0
    5.1409   66.2994   64.6036 H   0  0  0  0  0  0  0  0  0  0  0  0
    5.0884   65.1905   63.1915 H   0  0  0  0  0  0  0  0  0  0  0  0
    4.1025   66.6921   63.1915 H   0  0  0  0  0  0  0  0  0  0  0  0
    3.7378   63.9661   66.2311 H   0  0  0  0  0  0  0  0  0  0  0  0
    3.1150   63.0124   64.8421 H   0  0  0  0  0  0  0  0  0  0  0  0
    4.8144   63.5943   64.8421 H   0  0  0  0  0  0  0  0  0  0  0  0
    2.5259   70.3087   69.7475 H   0  0  0  0  0  0  0  0  0  0  0  0
    4.7959   71.0584   70.3902 H   0  0  0  0  0  0  0  0  0  0  0  0
    6.6949   70.9494   68.7577 H   0  0  0  0  0  0  0  0  0  0  0  0
    3.4246   68.9883   64.7811 H   0  0  0  0  0  0  0  0  0  0  0  0
    5.9631   69.3207   64.0265 H   0  0  0  0  0  0  0  0  0  0  0  0
    7.2517   70.2523   66.0946 H   0  0  0  0  0  0  0  0  0  0  0  0
  2  1  1  0
  3  2  1  0
  4  2  1  0
  5  4  1  0
  6  5  1  0
  7  6  1  0
  8  6  1  0
  9  1  1  0
 10  9  1  0
 11 10  2  0
 12 11  1  0
 13 12  2  0
 14 13  1  0
 15 14  2  0
 15 10  1  0
 16 15  1  0
 17 16  2  0
 18 14  1  0
 18 17  1  0
  1 19  1  0
  1 20  1  0
  2 21  1  6
  3 22  1  0
  4 23  1  0
  4 24  1  0
  5 25  1  0
  5 26  1  0
  6 27  1  0
  7 28  1  0
  7 29  1  0
  7 30  1  0
  8 31  1  0
  8 32  1  0
  8 33  1  0
 11 34  1  0
 12 35  1  0
 13 36  1  0
 16 37  1  0
 17 38  1  0
 18 39  1  0
M  CHG  1   5   1
M  END
>  <score>  (4) 
-8.287

$$$$
=
     RDKit          3D

 39 40  0  0  0  0  0  0  0  0999 V2000
    1.9060   68.5770   68.5360 C   0  0  0  0  0  0  0  0  0  0  0  0
    0.8930   67.9420   67.5730 C   0  0  2  0  0  0  0  0  0  0  0  0
    1.5280   66.9530   66.7690 O   0  0  0  0  0  0  0  0  0  0  0  0
    0.2650   68.9980   66.6350 C   0  0  0  0  0  0  0  0  0  0  0  0
   -1.1980   69.1900   66.9140 N   0  0  0  0  0  4  0  0  0  0  0  0
   -2.1720   68.1730   66.3980 C   0  0  0  0  0  0  0  0  0  0  0  0
   -2.5720   67.2080   67.5060 C   0  0  0  0  0  0  0  0  0  0  0  0
   -3.3640   68.8560   65.7460 C   0  0  0  0  0  0  0  0  0  0  0  0
    2.3190   69.8270   67.9770 O   0  0  0  0  0  0  0  0  0  0  0  0
    3.6660   70.0710   67.9120 C   0  0  0  0  0  0  0  0  0  0  0  0
    4.4380   70.5920   68.9600 C   0  0  0  0  0  0  0  0  0  0  0  0
    5.8160   70.7710   68.8200 C   0  0  0  0  0  0  0  0  0  0  0  0
    6.4710   70.4420   67.6330 C   0  0  0  0  0  0  0  0  0  0  0  0
    5.6930   69.9450   66.5840 C   0  0  0  0  0  0  0  0  0  0  0  0
    4.3130   69.7630   66.6910 C   0  0  0  0  0  0  0  0  0  0  0  0
    3.8680   69.2760   65.4240 C   0  0  0  0  0  0  0  0  0  0  0  0
    4.9660   69.1550   64.6060 C   0  0  0  0  0  0  0  0  0  0  0  0
    6.0650   69.5650   65.3140 N   0  0  0  0  0  0  0  0  0  0  0  0
    1.4362   68.7430   69.5167 H   0  0  0  0  0  0  0  0  0  0  0  0
    2.7725   67.9134   68.6734 H   0  0  0  0  0  0  0  0  0  0  0  0
    0.1024   67.4873   68.1880 H   0  0  0  0  0  0  0  0  0  0  0  0
    1.9599   66.2804   67.3531 H   0  0  0  0  0  0  0  0  0  0  0  0
    0.7842   69.9569   66.7797 H   0  0  0  0  0  0  0  0  0  0  0  0
    0.3725   68.6434   65.5993 H   0  0  0  0  0  0  0  0  0  0  0  0
   -1.3091   69.2234   67.9375 H   0  0  0  0  0  0  0  0  0  0  0  0
   -1.4389   70.0489   66.3991 H   0  0  0  0  0  0  0  0  0  0  0  0
   -1.6880   67.5715   65.6144 H   0  0  0  0  0  0  0  0  0  0  0  0
   -2.3794   67.6727   68.4842 H   0  0  0  0  0  0  0  0  0  0  0  0
   -3.6425   66.9710   67.4171 H   0  0  0  0  0  0  0  0  0  0  0  0
   -1.9831   66.2832   67.4171 H   0  0  0  0  0  0  0  0  0  0  0  0
   -4.0372   69.2417   66.5257 H   0  0  0  0  0  0  0  0  0  0  0  0
   -3.0120   69.6894   65.1203 H   0  0  0  0  0  0  0  0  0  0  0  0
   -3.9050   68.1309   65.1203 H   0  0  0  0  0  0  0  0  0  0  0  0
    3.9505   70.8642   69.9078 H   0  0  0  0  0  0  0  0  0  0  0  0
    6.3956   71.1789   69.6612 H   0  0  0  0  0  0  0  0  0  0  0  0
    7.5585   70.5690   67.5269 H   0  0  0  0  0  0  0  0  0  0  0  0
    2.8290   69.0394   65.1509 H   0  0  0  0  0  0  0  0  0  0  0  0
    4.9629   68.7932   63.5672 H   0  0  0  0  0  0  0  0  0  0  0  0
    7.0282   69.5859   64.9496 H   0  0  0  0  0  0  0  0  0  0  0  0
  2  1  1  0
  3  2  1  0
  4  2  1  0
  5  4  1  0
  6  5  1  0
  7  6  1  0
  8  6  1  0
  9  1  1  0
 10  9  1  0
 11 10  2  0
 12 11  1  0
 13 12  2  0
 14 13  1  0
 15 14  2  0
 15 10  1  0
 16 15  1  0
 17 16  2  0
 18 14  1  0
 18 17  1  0
  1 19  1  0
  1 20  1  0
  2 21  1  1
  3 22  1  0
  4 23  1  0
  4 24  1  0
  5 25  1  0
  5 26  1  0
  6 27  1  0
  7 28  1  0
  7 29  1  0
  7 30  1  0
  8 31  1  0
  8 32  1  0
  8 33  1  0
 11 34  1  0
 12 35  1  0
 13 36  1  0
 16 37  1  0
 17 38  1  0
 18 39  1  0
M  CHG  1   5   1
M  END
>  <score>  (5) 
-7.963

$$$$
=
     RDKit          3D

 39 40  0  0  0  0  0  0  0  0999 V2000
    5.2320   69.6510   64.1020 C   0  0  0  0  0  0  0  0  0  0  0  0
    5.3350   68.6690   62.9270 C   0  0  2  0  0  0  0  0  0  0  0  0
    5.3910   69.3780   61.6930 O   0  0  0  0  0  0  0  0  0  0  0  0
    4.1220   67.7120   62.8810 C   0  0  0  0  0  0  0  0  0  0  0  0
    2.9450   68.2690   63.6290 N   0  0  0  0  0  4  0  0  0  0  0  0
    1.6120   68.3200   62.9430 C   0  0  0  0  0  0  0  0  0  0  0  0
    0.5530   68.8860   63.8790 C   0  0  0  0  0  0  0  0  0  0  0  0
    1.7140   69.0830   61.6310 C   0  0  0  0  0  0  0  0  0  0  0  0
    5.2360   68.8900   65.3120 O   0  0  0  0  0  0  0  0  0  0  0  0
    5.2510   69.5880   66.4920 C   0  0  0  0  0  0  0  0  0  0  0  0
    6.3860   70.1910   67.0530 C   0  0  0  0  0  0  0  0  0  0  0  0
    6.3010   70.9180   68.2420 C   0  0  0  0  0  0  0  0  0  0  0  0
    5.0880   71.0680   68.9140 C   0  0  0  0  0  0  0  0  0  0  0  0
    3.9650   70.4460   68.3620 C   0  0  0  0  0  0  0  0  0  0  0  0
    4.0190   69.7050   67.1800 C   0  0  0  0  0  0  0  0  0  0  0  0
    2.7010   69.2050   66.9530 C   0  0  0  0  0  0  0  0  0  0  0  0
    1.8920   69.6630   67.9660 C   0  0  0  0  0  0  0  0  0  0  0  0
    2.6650   70.4090   68.8150 N   0  0  0  0  0  0  0  0  0  0  0  0
    6.0901   70.3391   64.0904 H   0  0  0  0  0  0  0  0  0  0  0  0
    4.3090   70.2446   64.0256 H   0  0  0  0  0  0  0  0  0  0  0  0
    6.2539   68.0826   63.0747 H   0  0  0  0  0  0  0  0  0  0  0  0
    5.4677   70.3484   61.8732 H   0  0  0  0  0  0  0  0  0  0  0  0
    3.8339   67.5521   61.8315 H   0  0  0  0  0  0  0  0  0  0  0  0
    4.4144   66.7653   63.3587 H   0  0  0  0  0  0  0  0  0  0  0  0
    2.8272   67.6971   64.4775 H   0  0  0  0  0  0  0  0  0  0  0  0
    3.1883   69.2591   63.7751 H   0  0  0  0  0  0  0  0  0  0  0  0
    1.2953   67.2980   62.6878 H   0  0  0  0  0  0  0  0  0  0  0  0
    0.8603   68.7218   64.9224 H   0  0  0  0  0  0  0  0  0  0  0  0
    0.4402   69.9647   63.6955 H   0  0  0  0  0  0  0  0  0  0  0  0
   -0.4066   68.3805   63.6955 H   0  0  0  0  0  0  0  0  0  0  0  0
    1.8571   70.1535   61.8396 H   0  0  0  0  0  0  0  0  0  0  0  0
    2.5696   68.7046   61.0523 H   0  0  0  0  0  0  0  0  0  0  0  0
    0.7891   68.9426   61.0523 H   0  0  0  0  0  0  0  0  0  0  0  0
    7.3582   70.0897   66.5485 H   0  0  0  0  0  0  0  0  0  0  0  0
    7.2083   71.3815   68.6568 H   0  0  0  0  0  0  0  0  0  0  0  0
    5.0181   71.6534   69.8427 H   0  0  0  0  0  0  0  0  0  0  0  0
    2.3877   68.5655   66.1146 H   0  0  0  0  0  0  0  0  0  0  0  0
    0.8154   69.4653   68.0750 H   0  0  0  0  0  0  0  0  0  0  0  0
    2.3239   70.8746   69.6681 H   0  0  0  0  0  0  0  0  0  0  0  0
  2  1  1  0
  3  2  1  0
  4  2  1  0
  5  4  1  0
  6  5  1  0
  7  6  1  0
  8  6  1  0
  9  1  1  0
 10  9  1  0
 11 10  2  0
 12 11  1  0
 13 12  2  0
 14 13  1  0
 15 14  2  0
 15 10  1  0
 16 15  1  0
 17 16  2  0
 18 14  1  0
 18 17  1  0
  1 19  1  0
  1 20  1  0
  2 21  1  1
  3 22  1  0
  4 23  1  0
  4 24  1  0
  5 25  1  0
  5 26  1  0
  6 27  1  0
  7 28  1  0
  7 29  1  0
  7 30  1  0
  8 31  1  0
  8 32  1  0
  8 33  1  0
 11 34  1  0
 12 35  1  0
 13 36  1  0
 16 37  1  0
 17 38  1  0
 18 39  1  0
M  CHG  1   5   1
M  END
>  <score>  (6) 
-7.962

$$$$
=
     RDKit          3D

 39 40  0  0  0  0  0  0  0  0999 V2000
    1.6350   67.7790   66.8660 C   0  0  0  0  0  0  0  0  0  0  0  0
    0.6650   68.0060   68.0330 C   0  0  2  0  0  0  0  0  0  0  0  0
    1.3300   67.8030   69.2760 O   0  0  0  0  0  0  0  0  0  0  0  0
   -0.5390   67.0380   67.9650 C   0  0  0  0  0  0  0  0  0  0  0  0
   -1.2540   67.1310   66.6480 N   0  0  0  0  0  4  0  0  0  0  0  0
   -1.7790   68.4640   66.2030 C   0  0  0  0  0  0  0  0  0  0  0  0
   -1.1900   68.8430   64.8510 C   0  0  0  0  0  0  0  0  0  0  0  0
   -3.3000   68.4690   66.2110 C   0  0  0  0  0  0  0  0  0  0  0  0
    1.8990   69.0470   66.2620 O   0  0  0  0  0  0  0  0  0  0  0  0
    2.9890   69.1330   65.4340 C   0  0  0  0  0  0  0  0  0  0  0  0
    2.9810   68.8340   64.0640 C   0  0  0  0  0  0  0  0  0  0  0  0
    4.1310   68.9890   63.2870 C   0  0  0  0  0  0  0  0  0  0  0  0
    5.3260   69.4420   63.8450 C   0  0  0  0  0  0  0  0  0  0  0  0
    5.3330   69.7160   65.2150 C   0  0  0  0  0  0  0  0  0  0  0  0
    4.2030   69.5640   66.0210 C   0  0  0  0  0  0  0  0  0  0  0  0
    4.6010   69.9050   67.3490 C   0  0  0  0  0  0  0  0  0  0  0  0
    5.9270   70.2700   67.3150 C   0  0  0  0  0  0  0  0  0  0  0  0
    6.3620   70.1500   66.0220 N   0  0  0  0  0  0  0  0  0  0  0  0
    2.5722   67.3401   67.2388 H   0  0  0  0  0  0  0  0  0  0  0  0
    1.1958   67.0883   66.1312 H   0  0  0  0  0  0  0  0  0  0  0  0
    0.3028   69.0418   67.9559 H   0  0  0  0  0  0  0  0  0  0  0  0
    0.7050   67.9938   70.0197 H   0  0  0  0  0  0  0  0  0  0  0  0
   -0.1766   66.0085   68.1017 H   0  0  0  0  0  0  0  0  0  0  0  0
   -1.2472   67.3160   68.7595 H   0  0  0  0  0  0  0  0  0  0  0  0
   -0.5973   66.8071   65.9236 H   0  0  0  0  0  0  0  0  0  0  0  0
   -2.1019   66.5624   66.7844 H   0  0  0  0  0  0  0  0  0  0  0  0
   -1.4588   69.2381   66.9159 H   0  0  0  0  0  0  0  0  0  0  0  0
   -0.2738   69.4326   65.0025 H   0  0  0  0  0  0  0  0  0  0  0  0
   -0.9494   67.9298   64.2869 H   0  0  0  0  0  0  0  0  0  0  0  0
   -1.9214   69.4404   64.2869 H   0  0  0  0  0  0  0  0  0  0  0  0
   -3.6612   68.4702   67.2500 H   0  0  0  0  0  0  0  0  0  0  0  0
   -3.6664   69.3684   65.6944 H   0  0  0  0  0  0  0  0  0  0  0  0
   -3.6723   67.5721   65.6944 H   0  0  0  0  0  0  0  0  0  0  0  0
    2.0547   68.4718   63.5941 H   0  0  0  0  0  0  0  0  0  0  0  0
    4.0935   68.7491   62.2141 H   0  0  0  0  0  0  0  0  0  0  0  0
    6.2281   69.5783   63.2304 H   0  0  0  0  0  0  0  0  0  0  0  0
    3.9599   69.8802   68.2425 H   0  0  0  0  0  0  0  0  0  0  0  0
    6.5305   70.5996   68.1736 H   0  0  0  0  0  0  0  0  0  0  0  0
    7.3187   70.3544   65.6998 H   0  0  0  0  0  0  0  0  0  0  0  0
  2  1  1  0
  3  2  1  0
  4  2  1  0
  5  4  1  0
  6  5  1  0
  7  6  1  0
  8  6  1  0
  9  1  1  0
 10  9  1  0
 11 10  2  0
 12 11  1  0
 13 12  2  0
 14 13  1  0
 15 14  2  0
 15 10  1  0
 16 15  1  0
 17 16  2  0
 18 14  1  0
 18 17  1  0
  1 19  1  0
  1 20  1  0
  2 21  1  1
  3 22  1  0
  4 23  1  0
  4 24  1  0
  5 25  1  0
  5 26  1  0
  6 27  1  0
  7 28  1  0
  7 29  1  0
  7 30  1  0
  8 31  1  0
  8 32  1  0
  8 33  1  0
 11 34  1  0
 12 35  1  0
 13 36  1  0
 16 37  1  0
 17 38  1  0
 18 39  1  0
M  CHG  1   5   1
M  END
>  <score>  (7) 
-7.64

$$$$
=
     RDKit          3D

 39 40  0  0  0  0  0  0  0  0999 V2000
    1.6760   67.8060   67.2770 C   0  0  0  0  0  0  0  0  0  0  0  0
    0.9110   67.8510   68.6070 C   0  0  2  0  0  0  0  0  0  0  0  0
    1.8150   68.0290   69.6930 O   0  0  0  0  0  0  0  0  0  0  0  0
    0.1170   66.5460   68.8470 C   0  0  0  0  0  0  0  0  0  0  0  0
    0.1190   66.1510   70.2960 N   0  0  0  0  0  4  0  0  0  0  0  0
    0.6020   64.7810   70.6700 C   0  0  0  0  0  0  0  0  0  0  0  0
    2.0900   64.6430   70.3770 C   0  0  0  0  0  0  0  0  0  0  0  0
    0.2500   64.4670   72.1160 C   0  0  0  0  0  0  0  0  0  0  0  0
    1.9670   69.1510   66.8920 O   0  0  0  0  0  0  0  0  0  0  0  0
    3.2840   69.5310   66.8840 C   0  0  0  0  0  0  0  0  0  0  0  0
    3.9850   70.0180   67.9960 C   0  0  0  0  0  0  0  0  0  0  0  0
    5.3390   70.3450   67.9070 C   0  0  0  0  0  0  0  0  0  0  0  0
    6.0410   70.2010   66.7100 C   0  0  0  0  0  0  0  0  0  0  0  0
    5.3320   69.7370   65.6000 C   0  0  0  0  0  0  0  0  0  0  0  0
    3.9760   69.4110   65.6540 C   0  0  0  0  0  0  0  0  0  0  0  0
    3.6000   69.0110   64.3360 C   0  0  0  0  0  0  0  0  0  0  0  0
    4.7170   69.0800   63.5360 C   0  0  0  0  0  0  0  0  0  0  0  0
    5.7580   69.5230   64.3080 N   0  0  0  0  0  0  0  0  0  0  0  0
    2.6122   67.2425   67.4032 H   0  0  0  0  0  0  0  0  0  0  0  0
    1.0718   67.3084   66.5041 H   0  0  0  0  0  0  0  0  0  0  0  0
    0.2104   68.6970   68.5490 H   0  0  0  0  0  0  0  0  0  0  0  0
    1.3261   67.9327   70.5485 H   0  0  0  0  0  0  0  0  0  0  0  0
   -0.9225   66.6964   68.5203 H   0  0  0  0  0  0  0  0  0  0  0  0
    0.5993   65.7415   68.2724 H   0  0  0  0  0  0  0  0  0  0  0  0
    0.7142   66.8284   70.7938 H   0  0  0  0  0  0  0  0  0  0  0  0
   -0.8782   66.1429   70.5537 H   0  0  0  0  0  0  0  0  0  0  0  0
    0.0868   64.0316   70.0511 H   0  0  0  0  0  0  0  0  0  0  0  0
    2.6470   64.5913   71.3242 H   0  0  0  0  0  0  0  0  0  0  0  0
    2.2660   63.7247   69.7976 H   0  0  0  0  0  0  0  0  0  0  0  0
    2.4319   65.5133   69.7976 H   0  0  0  0  0  0  0  0  0  0  0  0
    0.9009   65.0476   72.7862 H   0  0  0  0  0  0  0  0  0  0  0  0
   -0.8006   64.7334   72.3038 H   0  0  0  0  0  0  0  0  0  0  0  0
    0.3951   63.3929   72.3038 H   0  0  0  0  0  0  0  0  0  0  0  0
    3.4596   70.1445   68.9541 H   0  0  0  0  0  0  0  0  0  0  0  0
    5.8624   70.7234   68.7974 H   0  0  0  0  0  0  0  0  0  0  0  0
    7.1118   70.4436   66.6431 H   0  0  0  0  0  0  0  0  0  0  0  0
    2.5939   68.7019   64.0164 H   0  0  0  0  0  0  0  0  0  0  0  0
    4.7655   68.8249   62.4671 H   0  0  0  0  0  0  0  0  0  0  0  0
    6.7196   69.6741   63.9712 H   0  0  0  0  0  0  0  0  0  0  0  0
  2  1  1  0
  3  2  1  0
  4  2  1  0
  5  4  1  0
  6  5  1  0
  7  6  1  0
  8  6  1  0
  9  1  1  0
 10  9  1  0
 11 10  2  0
 12 11  1  0
 13 12  2  0
 14 13  1  0
 15 14  2  0
 15 10  1  0
 16 15  1  0
 17 16  2  0
 18 14  1  0
 18 17  1  0
  1 19  1  0
  1 20  1  0
  2 21  1  6
  3 22  1  0
  4 23  1  0
  4 24  1  0
  5 25  1  0
  5 26  1  0
  6 27  1  0
  7 28  1  0
  7 29  1  0
  7 30  1  0
  8 31  1  0
  8 32  1  0
  8 33  1  0
 11 34  1  0
 12 35  1  0
 13 36  1  0
 16 37  1  0
 17 38  1  0
 18 39  1  0
M  CHG  1   5   1
M  END
>  <score>  (8) 
-7.498

$$$$
=
     RDKit          3D

 39 40  0  0  0  0  0  0  0  0999 V2000
    3.1440   69.4680   66.9760 C   0  0  0  0  0  0  0  0  0  0  0  0
    2.0150   69.3810   68.0130 C   0  0  2  0  0  0  0  0  0  0  0  0
    2.5450   69.4830   69.3310 O   0  0  0  0  0  0  0  0  0  0  0  0
    1.2480   68.0430   67.9030 C   0  0  0  0  0  0  0  0  0  0  0  0
    0.2400   68.0700   66.7910 N   0  0  0  0  0  4  0  0  0  0  0  0
   -1.2030   68.3040   67.1300 C   0  0  0  0  0  0  0  0  0  0  0  0
   -1.9310   68.9350   65.9500 C   0  0  0  0  0  0  0  0  0  0  0  0
   -1.8550   67.0160   67.6100 C   0  0  0  0  0  0  0  0  0  0  0  0
    2.8900   68.4880   65.9670 O   0  0  0  0  0  0  0  0  0  0  0  0
    3.5200   68.6520   64.7600 C   0  0  0  0  0  0  0  0  0  0  0  0
    4.9080   68.7410   64.5860 C   0  0  0  0  0  0  0  0  0  0  0  0
    5.4670   68.8670   63.3130 C   0  0  0  0  0  0  0  0  0  0  0  0
    4.6660   68.9130   62.1720 C   0  0  0  0  0  0  0  0  0  0  0  0
    3.2830   68.8470   62.3540 C   0  0  0  0  0  0  0  0  0  0  0  0
    2.6930   68.7290   63.6140 C   0  0  0  0  0  0  0  0  0  0  0  0
    1.2810   68.7230   63.4030 C   0  0  0  0  0  0  0  0  0  0  0  0
    1.0520   68.8120   62.0500 C   0  0  0  0  0  0  0  0  0  0  0  0
    2.2680   68.8900   61.4240 N   0  0  0  0  0  0  0  0  0  0  0  0
    3.1618   70.4717   66.5262 H   0  0  0  0  0  0  0  0  0  0  0  0
    4.1177   69.2833   67.4532 H   0  0  0  0  0  0  0  0  0  0  0  0
    1.3247   70.2133   67.8110 H   0  0  0  0  0  0  0  0  0  0  0  0
    1.8196   69.3434   69.9901 H   0  0  0  0  0  0  0  0  0  0  0  0
    1.9683   67.2340   67.7115 H   0  0  0  0  0  0  0  0  0  0  0  0
    0.7108   67.8773   68.8485 H   0  0  0  0  0  0  0  0  0  0  0  0
    0.5241   68.8184   66.1428 H   0  0  0  0  0  0  0  0  0  0  0  0
    0.2559   67.1106   66.4166 H   0  0  0  0  0  0  0  0  0  0  0  0
   -1.2700   69.0194   67.9629 H   0  0  0  0  0  0  0  0  0  0  0  0
   -2.7133   69.6130   66.3219 H   0  0  0  0  0  0  0  0  0  0  0  0
   -1.2144   69.5025   65.3380 H   0  0  0  0  0  0  0  0  0  0  0  0
   -2.3910   68.1451   65.3380 H   0  0  0  0  0  0  0  0  0  0  0  0
   -1.8644   66.9975   68.7098 H   0  0  0  0  0  0  0  0  0  0  0  0
   -2.8874   66.9652   67.2336 H   0  0  0  0  0  0  0  0  0  0  0  0
   -1.2847   66.1540   67.2336 H   0  0  0  0  0  0  0  0  0  0  0  0
    5.5670   68.7111   65.4662 H   0  0  0  0  0  0  0  0  0  0  0  0
    6.5601   68.9312   63.2077 H   0  0  0  0  0  0  0  0  0  0  0  0
    5.1066   68.9980   61.1677 H   0  0  0  0  0  0  0  0  0  0  0  0
    0.5109   68.6585   64.1858 H   0  0  0  0  0  0  0  0  0  0  0  0
    0.0681   68.8193   61.5582 H   0  0  0  0  0  0  0  0  0  0  0  0
    2.4035   68.9693   60.4060 H   0  0  0  0  0  0  0  0  0  0  0  0
  2  1  1  0
  3  2  1  0
  4  2  1  0
  5  4  1  0
  6  5  1  0
  7  6  1  0
  8  6  1  0
  9  1  1  0
 10  9  1  0
 11 10  2  0
 12 11  1  0
 13 12  2  0
 14 13  1  0
 15 14  2  0
 15 10  1  0
 16 15  1  0
 17 16  2  0
 18 14  1  0
 18 17  1  0
  1 19  1  0
  1 20  1  0
  2 21  1  6
  3 22  1  0
  4 23  1  0
  4 24  1  0
  5 25  1  0
  5 26  1  0
  6 27  1  0
  7 28  1  0
  7 29  1  0
  7 30  1  0
  8 31  1  0
  8 32  1  0
  8 33  1  0
 11 34  1  0
 12 35  1  0
 13 36  1  0
 16 37  1  0
 17 38  1  0
 18 39  1  0
M  CHG  1   5   1
M  END
>  <score>  (9) 
-7.437

$$$$
