=
     RDKit          3D

 29 30  0  0  0  0  0  0  0  0999 V2000
   -0.6150   67.3090   67.2820 C   0  0  1  0  0  0  0  0  0  0  0  0
    0.1150   66.8510   66.1110 O   0  0  0  0  0  0  0  0  0  0  0  0
    1.3190   67.6220   65.9870 C   0  0  2  0  0  0  0  0  0  0  0  0
    1.1430   68.8610   66.8790 C   0  0  1  0  0  0  0  0  0  0  0  0
    0.2980   68.2960   68.0060 C   0  0  2  0  0  0  0  0  0  0  0  0
    1.5650   67.9430   64.5920 N   0  0  0  0  0  0  0  0  0  0  0  0
    0.6180   68.4640   63.7780 C   0  0  0  0  0  0  0  0  0  0  0  0
    0.8570   68.8850   62.5880 N   0  0  0  0  0  0  0  0  0  0  0  0
    2.1230   68.7370   62.1300 C   0  0  0  0  0  0  0  0  0  0  0  0
    3.1040   68.3490   62.8670 N   0  0  0  0  0  0  0  0  0  0  0  0
    2.8670   68.0460   64.1730 C   0  0  0  0  0  0  0  0  0  0  0  0
    3.7930   67.9250   64.9750 O   0  0  0  0  0  0  0  0  0  0  0  0
    2.3420   69.0450   60.8300 N   0  0  0  0  0  0  0  0  0  0  0  0
    1.1490   67.6000   68.9270 O   0  0  0  0  0  0  0  0  0  0  0  0
    2.3520   69.4070   67.4100 O   0  0  0  0  0  0  0  0  0  0  0  0
   -1.9210   67.9740   66.8280 C   0  0  0  0  0  0  0  0  0  0  0  0
   -3.0040   67.5450   67.6470 O   0  0  0  0  0  0  0  0  0  0  0  0
   -0.8833   66.4841   67.9585 H   0  0  0  0  0  0  0  0  0  0  0  0
    2.2081   67.0664   66.3199 H   0  0  0  0  0  0  0  0  0  0  0  0
    0.7160   69.7031   66.3146 H   0  0  0  0  0  0  0  0  0  0  0  0
   -0.2539   69.0548   68.5801 H   0  0  0  0  0  0  0  0  0  0  0  0
   -0.4129   68.5307   64.1558 H   0  0  0  0  0  0  0  0  0  0  0  0
    3.2866   68.9504   60.4304 H   0  0  0  0  0  0  0  0  0  0  0  0
    1.5640   69.3739   60.2406 H   0  0  0  0  0  0  0  0  0  0  0  0
    0.8808   67.8193   69.8544 H   0  0  0  0  0  0  0  0  0  0  0  0
    2.3151   69.3903   68.3992 H   0  0  0  0  0  0  0  0  0  0  0  0
   -1.8180   69.0664   66.9053 H   0  0  0  0  0  0  0  0  0  0  0  0
   -2.1251   67.6878   65.7857 H   0  0  0  0  0  0  0  0  0  0  0  0
   -2.7559   67.6433   68.6003 H   0  0  0  0  0  0  0  0  0  0  0  0
  2  1  1  0
  3  2  1  0
  4  3  1  0
  5  4  1  0
  5  1  1  0
  6  3  1  0
  7  6  1  0
  8  7  2  0
  9  8  1  0
 10  9  2  0
 11 10  1  0
 11  6  1  0
 12 11  2  0
 13  9  1  0
 14  5  1  0
 15  4  1  0
 16  1  1  0
 17 16  1  0
  1 18  1  1
  3 19  1  1
  4 20  1  6
  5 21  1  1
  7 22  1  0
 13 23  1  0
 13 24  1  0
 14 25  1  0
 15 26  1  0
 16 27  1  0
 16 28  1  0
 17 29  1  0
M  END
>  <score>  (1) 
-7.386

$$$$
=
     RDKit          3D

 29 30  0  0  0  0  0  0  0  0999 V2000
    3.3120   68.5520   63.0510 C   0  0  1  0  0  0  0  0  0  0  0  0
    2.5220   69.0990   64.1420 O   0  0  0  0  0  0  0  0  0  0  0  0
    2.1310   68.0240   65.0110 C   0  0  2  0  0  0  0  0  0  0  0  0
    2.3520   66.7210   64.2270 C   0  0  1  0  0  0  0  0  0  0  0  0
    3.5600   67.0840   63.3840 C   0  0  2  0  0  0  0  0  0  0  0  0
    0.7600   68.2120   65.4510 N   0  0  0  0  0  0  0  0  0  0  0  0
   -0.2200   68.6620   64.6350 C   0  0  0  0  0  0  0  0  0  0  0  0
   -1.4610   68.6970   64.9670 N   0  0  0  0  0  0  0  0  0  0  0  0
   -1.7680   68.3070   66.2270 C   0  0  0  0  0  0  0  0  0  0  0  0
   -0.9190   67.7690   67.0310 N   0  0  0  0  0  0  0  0  0  0  0  0
    0.3660   67.6000   66.6150 C   0  0  0  0  0  0  0  0  0  0  0  0
    1.1430   66.8690   67.2300 O   0  0  0  0  0  0  0  0  0  0  0  0
   -3.0500   68.4800   66.6250 N   0  0  0  0  0  0  0  0  0  0  0  0
    4.7450   66.9500   64.1820 O   0  0  0  0  0  0  0  0  0  0  0  0
    2.6460   65.5720   65.0240 O   0  0  0  0  0  0  0  0  0  0  0  0
    2.5290   68.7110   61.7400 C   0  0  0  0  0  0  0  0  0  0  0  0
    3.4150   69.0320   60.6720 O   0  0  0  0  0  0  0  0  0  0  0  0
    4.2731   69.0725   62.9271 H   0  0  0  0  0  0  0  0  0  0  0  0
    2.7304   67.9901   65.9327 H   0  0  0  0  0  0  0  0  0  0  0  0
    1.4433   66.4212   63.6845 H   0  0  0  0  0  0  0  0  0  0  0  0
    3.6928   66.4550   62.4914 H   0  0  0  0  0  0  0  0  0  0  0  0
    0.0604   69.0174   63.6325 H   0  0  0  0  0  0  0  0  0  0  0  0
   -3.3369   68.2002   67.5739 H   0  0  0  0  0  0  0  0  0  0  0  0
   -3.7387   68.8914   65.9790 H   0  0  0  0  0  0  0  0  0  0  0  0
    4.5017   66.9775   65.1413 H   0  0  0  0  0  0  0  0  0  0  0  0
    2.5848   65.8110   65.9828 H   0  0  0  0  0  0  0  0  0  0  0  0
    2.0101   67.7686   61.5105 H   0  0  0  0  0  0  0  0  0  0  0  0
    1.7979   69.5247   61.8558 H   0  0  0  0  0  0  0  0  0  0  0  0
    4.2783   69.3448   61.0421 H   0  0  0  0  0  0  0  0  0  0  0  0
  2  1  1  0
  3  2  1  0
  4  3  1  0
  5  4  1  0
  5  1  1  0
  6  3  1  0
  7  6  1  0
  8  7  2  0
  9  8  1  0
 10  9  2  0
 11 10  1  0
 11  6  1  0
 12 11  2  0
 13  9  1  0
 14  5  1  0
 15  4  1  0
 16  1  1  0
 17 16  1  0
  1 18  1  6
  3 19  1  1
  4 20  1  6
  5 21  1  6
  7 22  1  0
 13 23  1  0
 13 24  1  0
 14 25  1  0
 15 26  1  0
 16 27  1  0
 16 28  1  0
 17 29  1  0
M  END
>  <score>  (2) 
-7.145

$$$$
=
     RDKit          3D

 29 30  0  0  0  0  0  0  0  0999 V2000
    3.8500   66.1710   63.2090 C   0  0  1  0  0  0  0  0  0  0  0  0
    3.4310   67.1000   64.2460 O   0  0  0  0  0  0  0  0  0  0  0  0
    4.0930   68.3560   64.0350 C   0  0  2  0  0  0  0  0  0  0  0  0
    5.2590   68.0840   63.0710 C   0  0  1  0  0  0  0  0  0  0  0  0
    4.6780   66.9770   62.2100 C   0  0  2  0  0  0  0  0  0  0  0  0
    4.5130   68.9190   65.3070 N   0  0  0  0  0  0  0  0  0  0  0  0
    5.7600   69.3950   65.5260 C   0  0  0  0  0  0  0  0  0  0  0  0
    6.1040   70.0240   66.5920 N   0  0  0  0  0  0  0  0  0  0  0  0
    5.1610   70.1550   67.5550 C   0  0  0  0  0  0  0  0  0  0  0  0
    3.9270   69.8270   67.3910 N   0  0  0  0  0  0  0  0  0  0  0  0
    3.5400   69.2960   66.1980 C   0  0  0  0  0  0  0  0  0  0  0  0
    2.3500   69.2080   65.8980 O   0  0  0  0  0  0  0  0  0  0  0  0
    5.5610   70.6870   68.7330 N   0  0  0  0  0  0  0  0  0  0  0  0
    3.8250   67.5570   61.2140 O   0  0  0  0  0  0  0  0  0  0  0  0
    5.6390   69.1870   62.2460 O   0  0  0  0  0  0  0  0  0  0  0  0
    4.6730   65.0460   63.8500 C   0  0  0  0  0  0  0  0  0  0  0  0
    4.5560   63.8510   63.0830 O   0  0  0  0  0  0  0  0  0  0  0  0
    2.9975   65.7036   62.6945 H   0  0  0  0  0  0  0  0  0  0  0  0
    3.4283   69.1093   63.5869 H   0  0  0  0  0  0  0  0  0  0  0  0
    6.1846   67.8517   63.6181 H   0  0  0  0  0  0  0  0  0  0  0  0
    5.4311   66.3718   61.6842 H   0  0  0  0  0  0  0  0  0  0  0  0
    6.5215   69.2347   64.7485 H   0  0  0  0  0  0  0  0  0  0  0  0
    4.8838   70.8088   69.4995 H   0  0  0  0  0  0  0  0  0  0  0  0
    6.5427   70.9702   68.8633 H   0  0  0  0  0  0  0  0  0  0  0  0
    3.0925   68.0550   61.6562 H   0  0  0  0  0  0  0  0  0  0  0  0
    5.9023   69.9513   62.8175 H   0  0  0  0  0  0  0  0  0  0  0  0
    5.7298   65.3482   63.8926 H   0  0  0  0  0  0  0  0  0  0  0  0
    4.2942   64.8587   64.8656 H   0  0  0  0  0  0  0  0  0  0  0  0
    4.4799   63.0741   63.6919 H   0  0  0  0  0  0  0  0  0  0  0  0
  2  1  1  0
  3  2  1  0
  4  3  1  0
  5  4  1  0
  5  1  1  0
  6  3  1  0
  7  6  1  0
  8  7  2  0
  9  8  1  0
 10  9  2  0
 11 10  1  0
 11  6  1  0
 12 11  2  0
 13  9  1  0
 14  5  1  0
 15  4  1  0
 16  1  1  0
 17 16  1  0
  1 18  1  6
  3 19  1  6
  4 20  1  1
  5 21  1  6
  7 22  1  0
 13 23  1  0
 13 24  1  0
 14 25  1  0
 15 26  1  0
 16 27  1  0
 16 28  1  0
 17 29  1  0
M  END
>  <score>  (3) 
-7.04

$$$$
=
     RDKit          3D

 29 30  0  0  0  0  0  0  0  0999 V2000
    4.3340   68.6120   63.0170 C   0  0  1  0  0  0  0  0  0  0  0  0
    3.0130   68.9260   63.5370 O   0  0  0  0  0  0  0  0  0  0  0  0
    3.1210   69.1820   64.9450 C   0  0  2  0  0  0  0  0  0  0  0  0
    4.4830   68.6270   65.3920 C   0  0  1  0  0  0  0  0  0  0  0  0
    5.3220   68.8710   64.1520 C   0  0  2  0  0  0  0  0  0  0  0  0
    1.9950   68.5910   65.6480 N   0  0  0  0  0  0  0  0  0  0  0  0
    1.4040   67.4400   65.2550 C   0  0  0  0  0  0  0  0  0  0  0  0
    0.5050   66.8320   65.9430 N   0  0  0  0  0  0  0  0  0  0  0  0
    0.1090   67.4270   67.0930 C   0  0  0  0  0  0  0  0  0  0  0  0
    0.6870   68.4630   67.5930 N   0  0  0  0  0  0  0  0  0  0  0  0
    1.7390   69.0150   66.9280 C   0  0  0  0  0  0  0  0  0  0  0  0
    2.4810   69.8290   67.4770 O   0  0  0  0  0  0  0  0  0  0  0  0
   -0.9370   66.8640   67.7430 N   0  0  0  0  0  0  0  0  0  0  0  0
    5.7470   70.2410   64.1350 O   0  0  0  0  0  0  0  0  0  0  0  0
    5.0730   69.2880   66.5120 O   0  0  0  0  0  0  0  0  0  0  0  0
    4.3580   67.1440   62.5700 C   0  0  0  0  0  0  0  0  0  0  0  0
    5.4590   66.9110   61.6970 O   0  0  0  0  0  0  0  0  0  0  0  0
    4.5989   69.2272   62.1445 H   0  0  0  0  0  0  0  0  0  0  0  0
    3.0803   70.2560   65.1794 H   0  0  0  0  0  0  0  0  0  0  0  0
    4.3982   67.5852   65.7347 H   0  0  0  0  0  0  0  0  0  0  0  0
    6.2255   68.2467   64.0898 H   0  0  0  0  0  0  0  0  0  0  0  0
    1.7094   67.0003   64.2941 H   0  0  0  0  0  0  0  0  0  0  0  0
   -1.2790   67.2764   68.6227 H   0  0  0  0  0  0  0  0  0  0  0  0
   -1.3906   66.0234   67.3577 H   0  0  0  0  0  0  0  0  0  0  0  0
    5.8480   70.5667   65.0644 H   0  0  0  0  0  0  0  0  0  0  0  0
    4.7219   68.8946   67.3499 H   0  0  0  0  0  0  0  0  0  0  0  0
    4.4529   66.4969   63.4544 H   0  0  0  0  0  0  0  0  0  0  0  0
    3.4236   66.9173   62.0357 H   0  0  0  0  0  0  0  0  0  0  0  0
    6.2738   66.7386   62.2322 H   0  0  0  0  0  0  0  0  0  0  0  0
  2  1  1  0
  3  2  1  0
  4  3  1  0
  5  4  1  0
  5  1  1  0
  6  3  1  0
  7  6  1  0
  8  7  2  0
  9  8  1  0
 10  9  2  0
 11 10  1  0
 11  6  1  0
 12 11  2  0
 13  9  1  0
 14  5  1  0
 15  4  1  0
 16  1  1  0
 17 16  1  0
  1 18  1  6
  3 19  1  6
  4 20  1  1
  5 21  1  6
  7 22  1  0
 13 23  1  0
 13 24  1  0
 14 25  1  0
 15 26  1  0
 16 27  1  0
 16 28  1  0
 17 29  1  0
M  END
>  <score>  (4) 
-6.494

$$$$
=
     RDKit          3D

 29 30  0  0  0  0  0  0  0  0999 V2000
    1.9060   63.3070   72.5730 C   0  0  1  0  0  0  0  0  0  0  0  0
    2.8840   62.2310   72.6040 O   0  0  0  0  0  0  0  0  0  0  0  0
    3.1110   61.7760   71.2610 C   0  0  2  0  0  0  0  0  0  0  0  0
    1.9510   62.3160   70.4100 C   0  0  1  0  0  0  0  0  0  0  0  0
    1.6660   63.6370   71.1020 C   0  0  2  0  0  0  0  0  0  0  0  0
    3.2230   60.3290   71.2370 N   0  0  0  0  0  0  0  0  0  0  0  0
    2.4370   59.5160   71.9790 C   0  0  0  0  0  0  0  0  0  0  0  0
    2.4260   58.2370   71.8620 N   0  0  0  0  0  0  0  0  0  0  0  0
    3.2980   57.6960   70.9790 C   0  0  0  0  0  0  0  0  0  0  0  0
    4.0060   58.3940   70.1610 N   0  0  0  0  0  0  0  0  0  0  0  0
    3.9000   59.7510   70.1920 C   0  0  0  0  0  0  0  0  0  0  0  0
    4.3450   60.4440   69.2770 O   0  0  0  0  0  0  0  0  0  0  0  0
    3.3900   56.3460   70.9600 N   0  0  0  0  0  0  0  0  0  0  0  0
    2.6140   64.6150   70.6530 O   0  0  0  0  0  0  0  0  0  0  0  0
    2.2590   62.5490   69.0350 O   0  0  0  0  0  0  0  0  0  0  0  0
    0.6200   62.8320   73.2640 C   0  0  0  0  0  0  0  0  0  0  0  0
   -0.3440   63.8800   73.2870 O   0  0  0  0  0  0  0  0  0  0  0  0
    2.2538   64.2055   73.1039 H   0  0  0  0  0  0  0  0  0  0  0  0
    4.0594   62.1489   70.8469 H   0  0  0  0  0  0  0  0  0  0  0  0
    1.1224   61.5943   70.3604 H   0  0  0  0  0  0  0  0  0  0  0  0
    0.6614   64.0408   70.9075 H   0  0  0  0  0  0  0  0  0  0  0  0
    1.7704   59.9755   72.7237 H   0  0  0  0  0  0  0  0  0  0  0  0
    4.0383   55.8831   70.3070 H   0  0  0  0  0  0  0  0  0  0  0  0
    2.8117   55.7814   71.5985 H   0  0  0  0  0  0  0  0  0  0  0  0
    3.0355   65.0499   71.4361 H   0  0  0  0  0  0  0  0  0  0  0  0
    3.0468   63.1450   68.9697 H   0  0  0  0  0  0  0  0  0  0  0  0
    0.2088   61.9725   72.7143 H   0  0  0  0  0  0  0  0  0  0  0  0
    0.8560   62.5397   74.2979 H   0  0  0  0  0  0  0  0  0  0  0  0
   -0.5572   64.1117   74.2256 H   0  0  0  0  0  0  0  0  0  0  0  0
  2  1  1  0
  3  2  1  0
  4  3  1  0
  5  4  1  0
  5  1  1  0
  6  3  1  0
  7  6  1  0
  8  7  2  0
  9  8  1  0
 10  9  2  0
 11 10  1  0
 11  6  1  0
 12 11  2  0
 13  9  1  0
 14  5  1  0
 15  4  1  0
 16  1  1  0
 17 16  1  0
  1 18  1  1
  3 19  1  6
  4 20  1  6
  5 21  1  1
  7 22  1  0
 13 23  1  0
 13 24  1  0
 14 25  1  0
 15 26  1  0
 16 27  1  0
 16 28  1  0
 17 29  1  0
M  END
>  <score>  (5) 
-6.453

$$$$
=
     RDKit          3D

 29 30  0  0  0  0  0  0  0  0999 V2000
    3.8100   68.6840   62.1260 C   0  0  1  0  0  0  0  0  0  0  0  0
    4.2390   69.4140   63.3070 O   0  0  0  0  0  0  0  0  0  0  0  0
    4.6630   68.4720   64.3040 C   0  0  2  0  0  0  0  0  0  0  0  0
    4.1120   67.1010   63.8770 C   0  0  1  0  0  0  0  0  0  0  0  0
    4.1670   67.2190   62.3650 C   0  0  2  0  0  0  0  0  0  0  0  0
    4.2090   68.8950   65.6170 N   0  0  0  0  0  0  0  0  0  0  0  0
    4.9050   69.7580   66.3930 C   0  0  0  0  0  0  0  0  0  0  0  0
    4.4520   70.2510   67.4890 N   0  0  0  0  0  0  0  0  0  0  0  0
    3.2310   69.8260   67.8930 C   0  0  0  0  0  0  0  0  0  0  0  0
    2.4600   69.0920   67.1700 N   0  0  0  0  0  0  0  0  0  0  0  0
    2.8910   68.6940   65.9410 C   0  0  0  0  0  0  0  0  0  0  0  0
    2.1110   68.2200   65.1160 O   0  0  0  0  0  0  0  0  0  0  0  0
    2.8160   70.2320   69.1150 N   0  0  0  0  0  0  0  0  0  0  0  0
    5.5060   66.9570   61.9230 O   0  0  0  0  0  0  0  0  0  0  0  0
    4.8820   65.9760   64.3020 O   0  0  0  0  0  0  0  0  0  0  0  0
    2.2980   68.8750   61.9430 C   0  0  0  0  0  0  0  0  0  0  0  0
    1.9920   69.0970   60.5700 O   0  0  0  0  0  0  0  0  0  0  0  0
    4.3015   69.0428   61.2097 H   0  0  0  0  0  0  0  0  0  0  0  0
    5.7585   68.4085   64.3810 H   0  0  0  0  0  0  0  0  0  0  0  0
    3.1246   66.9092   64.3223 H   0  0  0  0  0  0  0  0  0  0  0  0
    3.5039   66.5203   61.8338 H   0  0  0  0  0  0  0  0  0  0  0  0
    5.9134   70.0532   66.0674 H   0  0  0  0  0  0  0  0  0  0  0  0
    1.8953   69.9373   69.4704 H   0  0  0  0  0  0  0  0  0  0  0  0
    3.4208   70.8358   69.6899 H   0  0  0  0  0  0  0  0  0  0  0  0
    6.0964   66.8415   62.7093 H   0  0  0  0  0  0  0  0  0  0  0  0
    4.9030   65.9453   65.2913 H   0  0  0  0  0  0  0  0  0  0  0  0
    1.7733   67.9729   62.2908 H   0  0  0  0  0  0  0  0  0  0  0  0
    1.9735   69.7480   62.5283 H   0  0  0  0  0  0  0  0  0  0  0  0
    1.1927   69.6769   60.4996 H   0  0  0  0  0  0  0  0  0  0  0  0
  2  1  1  0
  3  2  1  0
  4  3  1  0
  5  4  1  0
  5  1  1  0
  6  3  1  0
  7  6  1  0
  8  7  2  0
  9  8  1  0
 10  9  2  0
 11 10  1  0
 11  6  1  0
 12 11  2  0
 13  9  1  0
 14  5  1  0
 15  4  1  0
 16  1  1  0
 17 16  1  0
  1 18  1  6
  3 19  1  1
  4 20  1  6
  5 21  1  6
  7 22  1  0
 13 23  1  0
 13 24  1  0
 14 25  1  0
 15 26  1  0
 16 27  1  0
 16 28  1  0
 17 29  1  0
M  END
>  <score>  (6) 
-6.435

$$$$
=
     RDKit          3D

 29 30  0  0  0  0  0  0  0  0999 V2000
    4.2170   67.1590   63.3330 C   0  0  1  0  0  0  0  0  0  0  0  0
    2.8330   67.6030   63.2840 O   0  0  0  0  0  0  0  0  0  0  0  0
    2.6600   68.6770   64.2210 C   0  0  2  0  0  0  0  0  0  0  0  0
    3.8740   68.6400   65.1640 C   0  0  1  0  0  0  0  0  0  0  0  0
    4.9610   68.1490   64.2260 C   0  0  2  0  0  0  0  0  0  0  0  0
    1.3880   68.5400   64.9080 N   0  0  0  0  0  0  0  0  0  0  0  0
    1.2870   68.4100   66.2510 C   0  0  0  0  0  0  0  0  0  0  0  0
    0.1690   68.4320   66.8840 N   0  0  0  0  0  0  0  0  0  0  0  0
   -0.9550   68.5370   66.1370 C   0  0  0  0  0  0  0  0  0  0  0  0
   -0.9480   68.7680   64.8710 N   0  0  0  0  0  0  0  0  0  0  0  0
    0.2470   68.8910   64.2310 C   0  0  0  0  0  0  0  0  0  0  0  0
    0.3150   69.3610   63.0960 O   0  0  0  0  0  0  0  0  0  0  0  0
   -2.1350   68.4140   66.7890 N   0  0  0  0  0  0  0  0  0  0  0  0
    5.4430   69.2530   63.4480 O   0  0  0  0  0  0  0  0  0  0  0  0
    4.2500   69.9000   65.7220 O   0  0  0  0  0  0  0  0  0  0  0  0
    4.2650   65.7350   63.9040 C   0  0  0  0  0  0  0  0  0  0  0  0
    2.9820   65.3570   64.3940 O   0  0  0  0  0  0  0  0  0  0  0  0
    4.6840   67.1309   62.3375 H   0  0  0  0  0  0  0  0  0  0  0  0
    2.6214   69.6600   63.7289 H   0  0  0  0  0  0  0  0  0  0  0  0
    3.6730   68.0240   66.0529 H   0  0  0  0  0  0  0  0  0  0  0  0
    5.8285   67.7040   64.7353 H   0  0  0  0  0  0  0  0  0  0  0  0
    2.2116   68.2784   66.8322 H   0  0  0  0  0  0  0  0  0  0  0  0
   -3.0209   68.4857   66.2685 H   0  0  0  0  0  0  0  0  0  0  0  0
   -2.1469   68.2487   67.8056 H   0  0  0  0  0  0  0  0  0  0  0  0
    5.7565   69.9711   64.0530 H   0  0  0  0  0  0  0  0  0  0  0  0
    4.2326   69.8417   66.7101 H   0  0  0  0  0  0  0  0  0  0  0  0
    4.5715   65.0362   63.1117 H   0  0  0  0  0  0  0  0  0  0  0  0
    4.9882   65.7051   64.7323 H   0  0  0  0  0  0  0  0  0  0  0  0
    2.9928   65.3602   65.3839 H   0  0  0  0  0  0  0  0  0  0  0  0
  2  1  1  0
  3  2  1  0
  4  3  1  0
  5  4  1  0
  5  1  1  0
  6  3  1  0
  7  6  1  0
  8  7  2  0
  9  8  1  0
 10  9  2  0
 11 10  1  0
 11  6  1  0
 12 11  2  0
 13  9  1  0
 14  5  1  0
 15  4  1  0
 16  1  1  0
 17 16  1  0
  1 18  1  6
  3 19  1  6
  4 20  1  1
  5 21  1  1
  7 22  1  0
 13 23  1  0
 13 24  1  0
 14 25  1  0
 15 26  1  0
 16 27  1  0
 16 28  1  0
 17 29  1  0
M  END
>  <score>  (7) 
-6.378

$$$$
=
     RDKit          3D

 29 30  0  0  0  0  0  0  0  0999 V2000
    0.0050   68.1290   65.5820 C   0  0  1  0  0  0  0  0  0  0  0  0
    1.3670   67.8390   66.0000 O   0  0  0  0  0  0  0  0  0  0  0  0
    1.7070   68.7020   67.0950 C   0  0  2  0  0  0  0  0  0  0  0  0
    0.6670   69.8340   67.1050 C   0  0  1  0  0  0  0  0  0  0  0  0
   -0.5680   69.1040   66.6080 C   0  0  2  0  0  0  0  0  0  0  0  0
    3.0740   69.1730   66.9550 N   0  0  0  0  0  0  0  0  0  0  0  0
    3.6670   69.3650   65.7540 C   0  0  0  0  0  0  0  0  0  0  0  0
    4.8190   69.9140   65.6100 N   0  0  0  0  0  0  0  0  0  0  0  0
    5.4770   70.2600   66.7420 C   0  0  0  0  0  0  0  0  0  0  0  0
    4.9490   70.2100   67.9140 N   0  0  0  0  0  0  0  0  0  0  0  0
    3.6680   69.7640   68.0410 C   0  0  0  0  0  0  0  0  0  0  0  0
    3.0350   69.9380   69.0820 O   0  0  0  0  0  0  0  0  0  0  0  0
    6.7480   70.7040   66.5980 N   0  0  0  0  0  0  0  0  0  0  0  0
   -1.1570   68.3840   67.6990 O   0  0  0  0  0  0  0  0  0  0  0  0
    0.4040   70.4100   68.3850 O   0  0  0  0  0  0  0  0  0  0  0  0
    0.0350   68.7400   64.1750 C   0  0  0  0  0  0  0  0  0  0  0  0
   -1.2750   68.7560   63.6160 O   0  0  0  0  0  0  0  0  0  0  0  0
   -0.6216   67.2261   65.5363 H   0  0  0  0  0  0  0  0  0  0  0  0
    1.6757   68.1807   68.0631 H   0  0  0  0  0  0  0  0  0  0  0  0
    1.0066   70.6947   66.5101 H   0  0  0  0  0  0  0  0  0  0  0  0
   -1.3446   69.7628   66.1923 H   0  0  0  0  0  0  0  0  0  0  0  0
    3.1331   69.0326   64.8515 H   0  0  0  0  0  0  0  0  0  0  0  0
    7.2939   70.9804   67.4265 H   0  0  0  0  0  0  0  0  0  0  0  0
    7.1689   70.7653   65.6599 H   0  0  0  0  0  0  0  0  0  0  0  0
   -0.8428   68.7680   68.5557 H   0  0  0  0  0  0  0  0  0  0  0  0
    0.6907   69.7821   69.0946 H   0  0  0  0  0  0  0  0  0  0  0  0
    0.4170   69.7698   64.2345 H   0  0  0  0  0  0  0  0  0  0  0  0
    0.6905   68.1319   63.5343 H   0  0  0  0  0  0  0  0  0  0  0  0
   -1.9448   68.7642   64.3450 H   0  0  0  0  0  0  0  0  0  0  0  0
  2  1  1  0
  3  2  1  0
  4  3  1  0
  5  4  1  0
  5  1  1  0
  6  3  1  0
  7  6  1  0
  8  7  2  0
  9  8  1  0
 10  9  2  0
 11 10  1  0
 11  6  1  0
 12 11  2  0
 13  9  1  0
 14  5  1  0
 15  4  1  0
 16  1  1  0
 17 16  1  0
  1 18  1  6
  3 19  1  1
  4 20  1  6
  5 21  1  6
  7 22  1  0
 13 23  1  0
 13 24  1  0
 14 25  1  0
 15 26  1  0
 16 27  1  0
 16 28  1  0
 17 29  1  0
M  END
>  <score>  (8) 
-6.347

$$$$
=
     RDKit          3D

 29 30  0  0  0  0  0  0  0  0999 V2000
    3.6420   59.5590   71.4000 C   0  0  1  0  0  0  0  0  0  0  0  0
    2.3360   60.1910   71.4980 O   0  0  0  0  0  0  0  0  0  0  0  0
    2.4560   61.5640   71.0980 C   0  0  2  0  0  0  0  0  0  0  0  0
    3.9550   61.9020   71.1270 C   0  0  1  0  0  0  0  0  0  0  0  0
    4.5660   60.5710   70.7280 C   0  0  2  0  0  0  0  0  0  0  0  0
    1.6540   62.4090   71.9650 N   0  0  0  0  0  0  0  0  0  0  0  0
    1.9150   62.5700   73.2820 C   0  0  0  0  0  0  0  0  0  0  0  0
    1.3060   63.4210   74.0280 N   0  0  0  0  0  0  0  0  0  0  0  0
    0.3170   64.1430   73.4500 C   0  0  0  0  0  0  0  0  0  0  0  0
    0.0730   64.1300   72.1870 N   0  0  0  0  0  0  0  0  0  0  0  0
    0.8250   63.3320   71.3790 C   0  0  0  0  0  0  0  0  0  0  0  0
    0.8110   63.4720   70.1560 O   0  0  0  0  0  0  0  0  0  0  0  0
   -0.4200   64.9320   74.2670 N   0  0  0  0  0  0  0  0  0  0  0  0
    4.4980   60.4330   69.3020 O   0  0  0  0  0  0  0  0  0  0  0  0
    4.3690   62.9170   70.2110 O   0  0  0  0  0  0  0  0  0  0  0  0
    4.1280   59.1970   72.8100 C   0  0  0  0  0  0  0  0  0  0  0  0
    3.2970   58.1890   73.3750 O   0  0  0  0  0  0  0  0  0  0  0  0
    3.6162   58.6300   70.8116 H   0  0  0  0  0  0  0  0  0  0  0  0
    2.0708   61.7398   70.0828 H   0  0  0  0  0  0  0  0  0  0  0  0
    4.2544   62.3106   72.1034 H   0  0  0  0  0  0  0  0  0  0  0  0
    5.6203   60.4535   71.0188 H   0  0  0  0  0  0  0  0  0  0  0  0
    2.6906   61.9383   73.7396 H   0  0  0  0  0  0  0  0  0  0  0  0
   -1.1850   65.5025   73.8794 H   0  0  0  0  0  0  0  0  0  0  0  0
   -0.2156   64.9618   75.2761 H   0  0  0  0  0  0  0  0  0  0  0  0
    4.0722   59.5688   69.0740 H   0  0  0  0  0  0  0  0  0  0  0  0
    4.6907   63.7056   70.7156 H   0  0  0  0  0  0  0  0  0  0  0  0
    5.1618   58.8254   72.7533 H   0  0  0  0  0  0  0  0  0  0  0  0
    4.0845   60.0942   73.4449 H   0  0  0  0  0  0  0  0  0  0  0  0
    3.3400   58.2412   74.3627 H   0  0  0  0  0  0  0  0  0  0  0  0
  2  1  1  0
  3  2  1  0
  4  3  1  0
  5  4  1  0
  5  1  1  0
  6  3  1  0
  7  6  1  0
  8  7  2  0
  9  8  1  0
 10  9  2  0
 11 10  1  0
 11  6  1  0
 12 11  2  0
 13  9  1  0
 14  5  1  0
 15  4  1  0
 16  1  1  0
 17 16  1  0
  1 18  1  6
  3 19  1  6
  4 20  1  1
  5 21  1  1
  7 22  1  0
 13 23  1  0
 13 24  1  0
 14 25  1  0
 15 26  1  0
 16 27  1  0
 16 28  1  0
 17 29  1  0
M  END
>  <score>  (9) 
-5.897

$$$$
