=
     RDKit          3D

 36 38  0  0  0  0  0  0  0  0999 V2000
   -1.5390   66.6380   66.3680 O   0  0  0  0  0  0  0  0  0  0  0  0
   -0.6570   67.1420   67.0400 C   0  0  0  0  0  0  0  0  0  0  0  0
   -0.5540   67.0120   68.3910 O   0  0  0  0  0  0  0  0  0  0  0  0
    0.5900   67.7280   68.8420 C   0  0  0  0  0  0  0  0  0  0  0  0
    1.2000   68.2780   67.6090 C   0  0  0  0  0  0  0  0  0  0  0  0
    0.4600   67.9720   66.5340 C   0  0  0  0  0  0  0  0  0  0  0  0
    0.6530   68.3290   65.1260 C   0  0  0  0  0  0  0  0  0  0  0  0
   -0.3150   69.0640   64.4250 C   0  0  0  0  0  0  0  0  0  0  0  0
   -0.1210   69.4060   63.0850 C   0  0  0  0  0  0  0  0  0  0  0  0
    1.0390   69.0100   62.4250 C   0  0  0  0  0  0  0  0  0  0  0  0
    2.0030   68.2680   63.1030 C   0  0  0  0  0  0  0  0  0  0  0  0
    1.8100   67.9270   64.4430 C   0  0  0  0  0  0  0  0  0  0  0  0
    2.4560   69.0350   67.6790 C   0  0  0  0  0  0  0  0  0  0  0  0
    3.3680   69.0140   66.6120 C   0  0  0  0  0  0  0  0  0  0  0  0
    4.5660   69.7280   66.6780 C   0  0  0  0  0  0  0  0  0  0  0  0
    4.8700   70.4550   67.8290 C   0  0  0  0  0  0  0  0  0  0  0  0
    3.9770   70.4940   68.9010 C   0  0  0  0  0  0  0  0  0  0  0  0
    2.7780   69.7780   68.8260 C   0  0  0  0  0  0  0  0  0  0  0  0
    6.3830   71.3840   67.9070 S   0  0  0  0  0  6  0  0  0  0  0  0
    6.0320   72.7770   68.1010 O   0  0  0  0  0  0  0  0  0  0  0  0
    7.2040   70.9730   66.7840 O   0  0  0  0  0  0  0  0  0  0  0  0
    7.1450   70.7960   69.3960 C   0  0  0  0  0  0  0  0  0  0  0  0
    0.2958   68.5391   69.5243 H   0  0  0  0  0  0  0  0  0  0  0  0
    1.2878   67.0876   69.4015 H   0  0  0  0  0  0  0  0  0  0  0  0
   -1.2377   69.3745   64.9370 H   0  0  0  0  0  0  0  0  0  0  0  0
   -0.8855   69.9889   62.5505 H   0  0  0  0  0  0  0  0  0  0  0  0
    1.1938   69.2825   61.3706 H   0  0  0  0  0  0  0  0  0  0  0  0
    2.9180   67.9501   62.5818 H   0  0  0  0  0  0  0  0  0  0  0  0
    2.5743   67.3362   64.9691 H   0  0  0  0  0  0  0  0  0  0  0  0
    3.1355   68.4268   65.7113 H   0  0  0  0  0  0  0  0  0  0  0  0
    5.2649   69.7173   65.8287 H   0  0  0  0  0  0  0  0  0  0  0  0
    4.2146   71.0838   69.7986 H   0  0  0  0  0  0  0  0  0  0  0  0
    2.0792   69.7972   69.6753 H   0  0  0  0  0  0  0  0  0  0  0  0
    6.6130   71.2065   70.2669 H   0  0  0  0  0  0  0  0  0  0  0  0
    7.0987   69.6973   69.4224 H   0  0  0  0  0  0  0  0  0  0  0  0
    8.1961   71.1194   69.4224 H   0  0  0  0  0  0  0  0  0  0  0  0
  2  1  2  0
  3  2  1  0
  4  3  1  0
  5  4  1  0
  6  5  2  0
  6  2  1  0
  7  6  1  0
  8  7  2  0
  9  8  1  0
 10  9  2  0
 11 10  1  0
 12 11  2  0
 12  7  1  0
 13  5  1  0
 14 13  2  0
 15 14  1  0
 16 15  2  0
 17 16  1  0
 18 17  2  0
 18 13  1  0
 19 16  1  0
 20 19  2  0
 21 19  2  0
 22 19  1  0
  4 23  1  0
  4 24  1  0
  8 25  1  0
  9 26  1  0
 10 27  1  0
 11 28  1  0
 12 29  1  0
 14 30  1  0
 15 31  1  0
 17 32  1  0
 18 33  1  0
 22 34  1  0
 22 35  1  0
 22 36  1  0
M  END
>  <score>  (1) 
-9.566

$$$$
=
     RDKit          3D

 36 38  0  0  0  0  0  0  0  0999 V2000
    1.5090   62.7160   73.6660 O   0  0  0  0  0  0  0  0  0  0  0  0
    0.9790   63.6380   73.0720 C   0  0  0  0  0  0  0  0  0  0  0  0
    0.0340   64.4560   73.6120 O   0  0  0  0  0  0  0  0  0  0  0  0
   -0.3610   65.4170   72.6410 C   0  0  0  0  0  0  0  0  0  0  0  0
    0.4800   65.1230   71.4570 C   0  0  0  0  0  0  0  0  0  0  0  0
    1.2570   64.0520   71.6780 C   0  0  0  0  0  0  0  0  0  0  0  0
    2.2120   63.3840   70.7910 C   0  0  0  0  0  0  0  0  0  0  0  0
    3.5570   63.7810   70.7430 C   0  0  0  0  0  0  0  0  0  0  0  0
    4.4630   63.1350   69.8990 C   0  0  0  0  0  0  0  0  0  0  0  0
    4.0360   62.0900   69.0850 C   0  0  0  0  0  0  0  0  0  0  0  0
    2.7010   61.6930   69.1110 C   0  0  0  0  0  0  0  0  0  0  0  0
    1.7950   62.3380   69.9560 C   0  0  0  0  0  0  0  0  0  0  0  0
    0.3930   65.9680   70.2590 C   0  0  0  0  0  0  0  0  0  0  0  0
   -0.7600   65.9620   69.4590 C   0  0  0  0  0  0  0  0  0  0  0  0
   -0.8450   66.7600   68.3150 C   0  0  0  0  0  0  0  0  0  0  0  0
    0.2410   67.5580   67.9540 C   0  0  0  0  0  0  0  0  0  0  0  0
    1.3960   67.5830   68.7360 C   0  0  0  0  0  0  0  0  0  0  0  0
    1.4710   66.7830   69.8810 C   0  0  0  0  0  0  0  0  0  0  0  0
    0.1280   68.5920   66.5130 S   0  0  0  0  0  6  0  0  0  0  0  0
   -0.6200   69.7780   66.8820 O   0  0  0  0  0  0  0  0  0  0  0  0
   -0.3010   67.7540   65.4090 O   0  0  0  0  0  0  0  0  0  0  0  0
    1.8120   69.0710   66.2240 C   0  0  0  0  0  0  0  0  0  0  0  0
   -1.4277   65.3055   72.3965 H   0  0  0  0  0  0  0  0  0  0  0  0
   -0.2295   66.4487   72.9991 H   0  0  0  0  0  0  0  0  0  0  0  0
    3.9018   64.6107   71.3775 H   0  0  0  0  0  0  0  0  0  0  0  0
    5.5159   63.4527   69.8776 H   0  0  0  0  0  0  0  0  0  0  0  0
    4.7506   61.5790   68.4230 H   0  0  0  0  0  0  0  0  0  0  0  0
    2.3599   60.8705   68.4652 H   0  0  0  0  0  0  0  0  0  0  0  0
    0.7416   62.0214   69.9664 H   0  0  0  0  0  0  0  0  0  0  0  0
   -1.6090   65.3199   69.7364 H   0  0  0  0  0  0  0  0  0  0  0  0
   -1.7600   66.7590   67.7045 H   0  0  0  0  0  0  0  0  0  0  0  0
    2.2418   68.2273   68.4542 H   0  0  0  0  0  0  0  0  0  0  0  0
    2.3855   66.7929   70.4922 H   0  0  0  0  0  0  0  0  0  0  0  0
    2.3224   69.2162   67.1875 H   0  0  0  0  0  0  0  0  0  0  0  0
    2.3245   68.2830   65.6527 H   0  0  0  0  0  0  0  0  0  0  0  0
    1.8330   70.0107   65.6527 H   0  0  0  0  0  0  0  0  0  0  0  0
  2  1  2  0
  3  2  1  0
  4  3  1  0
  5  4  1  0
  6  5  2  0
  6  2  1  0
  7  6  1  0
  8  7  2  0
  9  8  1  0
 10  9  2  0
 11 10  1  0
 12 11  2  0
 12  7  1  0
 13  5  1  0
 14 13  2  0
 15 14  1  0
 16 15  2  0
 17 16  1  0
 18 17  2  0
 18 13  1  0
 19 16  1  0
 20 19  2  0
 21 19  2  0
 22 19  1  0
  4 23  1  0
  4 24  1  0
  8 25  1  0
  9 26  1  0
 10 27  1  0
 11 28  1  0
 12 29  1  0
 14 30  1  0
 15 31  1  0
 17 32  1  0
 18 33  1  0
 22 34  1  0
 22 35  1  0
 22 36  1  0
M  END
>  <score>  (2) 
-9.509

$$$$
=
     RDKit          3D

 36 38  0  0  0  0  0  0  0  0999 V2000
    5.9150   69.4840   62.6260 O   0  0  0  0  0  0  0  0  0  0  0  0
    4.7670   69.0980   62.7610 C   0  0  0  0  0  0  0  0  0  0  0  0
    3.9930   68.6230   61.7470 O   0  0  0  0  0  0  0  0  0  0  0  0
    2.7170   68.2660   62.2630 C   0  0  0  0  0  0  0  0  0  0  0  0
    2.8090   68.5360   63.7170 C   0  0  0  0  0  0  0  0  0  0  0  0
    4.0020   69.0620   64.0290 C   0  0  0  0  0  0  0  0  0  0  0  0
    4.5220   69.5140   65.3220 C   0  0  0  0  0  0  0  0  0  0  0  0
    5.8600   69.9110   65.4660 C   0  0  0  0  0  0  0  0  0  0  0  0
    6.3470   70.3470   66.7010 C   0  0  0  0  0  0  0  0  0  0  0  0
    5.5060   70.3820   67.8090 C   0  0  0  0  0  0  0  0  0  0  0  0
    4.1790   69.9780   67.6860 C   0  0  0  0  0  0  0  0  0  0  0  0
    3.6920   69.5440   66.4510 C   0  0  0  0  0  0  0  0  0  0  0  0
    1.6800   68.2210   64.6010 C   0  0  0  0  0  0  0  0  0  0  0  0
    0.4960   68.9740   64.5490 C   0  0  0  0  0  0  0  0  0  0  0  0
   -0.5780   68.6810   65.3930 C   0  0  0  0  0  0  0  0  0  0  0  0
   -0.4630   67.6400   66.3140 C   0  0  0  0  0  0  0  0  0  0  0  0
    0.7030   66.8760   66.3810 C   0  0  0  0  0  0  0  0  0  0  0  0
    1.7720   67.1740   65.5310 C   0  0  0  0  0  0  0  0  0  0  0  0
   -1.8360   67.2490   67.3730 S   0  0  0  0  0  6  0  0  0  0  0  0
   -2.5520   66.1410   66.7710 O   0  0  0  0  0  0  0  0  0  0  0  0
   -2.5140   68.4930   67.6820 O   0  0  0  0  0  0  0  0  0  0  0  0
   -1.0540   66.6610   68.8520 C   0  0  0  0  0  0  0  0  0  0  0  0
    1.9277   68.8794   61.8039 H   0  0  0  0  0  0  0  0  0  0  0  0
    2.4610   67.2176   62.0502 H   0  0  0  0  0  0  0  0  0  0  0  0
    6.5333   69.8786   64.5967 H   0  0  0  0  0  0  0  0  0  0  0  0
    7.3963   70.6629   66.7974 H   0  0  0  0  0  0  0  0  0  0  0  0
    5.8887   70.7282   68.7804 H   0  0  0  0  0  0  0  0  0  0  0  0
    3.5140   70.0007   68.5619 H   0  0  0  0  0  0  0  0  0  0  0  0
    2.6439   69.2217   66.3633 H   0  0  0  0  0  0  0  0  0  0  0  0
    0.4130   69.8058   63.8341 H   0  0  0  0  0  0  0  0  0  0  0  0
   -1.5071   69.2667   65.3316 H   0  0  0  0  0  0  0  0  0  0  0  0
    0.7803   66.0451   67.0977 H   0  0  0  0  0  0  0  0  0  0  0  0
    2.6963   66.5808   65.5918 H   0  0  0  0  0  0  0  0  0  0  0  0
   -1.5836   67.0592   69.7300 H   0  0  0  0  0  0  0  0  0  0  0  0
   -1.0864   65.5617   68.8717 H   0  0  0  0  0  0  0  0  0  0  0  0
   -0.0069   66.9974   68.8717 H   0  0  0  0  0  0  0  0  0  0  0  0
  2  1  2  0
  3  2  1  0
  4  3  1  0
  5  4  1  0
  6  5  2  0
  6  2  1  0
  7  6  1  0
  8  7  2  0
  9  8  1  0
 10  9  2  0
 11 10  1  0
 12 11  2  0
 12  7  1  0
 13  5  1  0
 14 13  2  0
 15 14  1  0
 16 15  2  0
 17 16  1  0
 18 17  2  0
 18 13  1  0
 19 16  1  0
 20 19  2  0
 21 19  2  0
 22 19  1  0
  4 23  1  0
  4 24  1  0
  8 25  1  0
  9 26  1  0
 10 27  1  0
 11 28  1  0
 12 29  1  0
 14 30  1  0
 15 31  1  0
 17 32  1  0
 18 33  1  0
 22 34  1  0
 22 35  1  0
 22 36  1  0
M  END
>  <score>  (3) 
-9.44

$$$$
=
     RDKit          3D

 36 38  0  0  0  0  0  0  0  0999 V2000
   -2.3460   66.6840   67.1760 O   0  0  0  0  0  0  0  0  0  0  0  0
   -1.4470   67.4580   66.9020 C   0  0  0  0  0  0  0  0  0  0  0  0
   -1.4830   68.3390   65.8650 O   0  0  0  0  0  0  0  0  0  0  0  0
   -0.2690   69.0820   65.8420 C   0  0  0  0  0  0  0  0  0  0  0  0
    0.4980   68.5860   67.0080 C   0  0  0  0  0  0  0  0  0  0  0  0
   -0.1650   67.5990   67.6300 C   0  0  0  0  0  0  0  0  0  0  0  0
    0.2190   66.7960   68.7940 C   0  0  0  0  0  0  0  0  0  0  0  0
    1.5280   66.3120   68.9400 C   0  0  0  0  0  0  0  0  0  0  0  0
    1.8880   65.5530   70.0560 C   0  0  0  0  0  0  0  0  0  0  0  0
    0.9420   65.2590   71.0350 C   0  0  0  0  0  0  0  0  0  0  0  0
   -0.3650   65.7200   70.8960 C   0  0  0  0  0  0  0  0  0  0  0  0
   -0.7240   66.4810   69.7820 C   0  0  0  0  0  0  0  0  0  0  0  0
    1.7990   69.1780   67.3440 C   0  0  0  0  0  0  0  0  0  0  0  0
    1.9640   69.9270   68.5200 C   0  0  0  0  0  0  0  0  0  0  0  0
    3.1990   70.4960   68.8400 C   0  0  0  0  0  0  0  0  0  0  0  0
    4.2760   70.3360   67.9680 C   0  0  0  0  0  0  0  0  0  0  0  0
    4.1360   69.5920   66.7950 C   0  0  0  0  0  0  0  0  0  0  0  0
    2.8970   69.0230   66.4840 C   0  0  0  0  0  0  0  0  0  0  0  0
    5.8540   71.0400   68.3830 S   0  0  0  0  0  6  0  0  0  0  0  0
    6.1900   70.6000   69.7230 O   0  0  0  0  0  0  0  0  0  0  0  0
    5.8000   72.4510   68.0540 O   0  0  0  0  0  0  0  0  0  0  0  0
    6.9640   70.2470   67.2490 C   0  0  0  0  0  0  0  0  0  0  0  0
    0.2817   68.8963   64.9081 H   0  0  0  0  0  0  0  0  0  0  0  0
   -0.4442   70.1669   65.8903 H   0  0  0  0  0  0  0  0  0  0  0  0
    2.2789   66.5327   68.1671 H   0  0  0  0  0  0  0  0  0  0  0  0
    2.9199   65.1870   70.1618 H   0  0  0  0  0  0  0  0  0  0  0  0
    1.2263   64.6643   71.9156 H   0  0  0  0  0  0  0  0  0  0  0  0
   -1.1153   65.4841   71.6650 H   0  0  0  0  0  0  0  0  0  0  0  0
   -1.7594   66.8377   69.6784 H   0  0  0  0  0  0  0  0  0  0  0  0
    1.1095   70.0676   69.1983 H   0  0  0  0  0  0  0  0  0  0  0  0
    3.3213   71.0661   69.7728 H   0  0  0  0  0  0  0  0  0  0  0  0
    4.9939   69.4544   66.1204 H   0  0  0  0  0  0  0  0  0  0  0  0
    2.7817   68.4470   65.5540 H   0  0  0  0  0  0  0  0  0  0  0  0
    7.7329   69.6977   67.8121 H   0  0  0  0  0  0  0  0  0  0  0  0
    6.4016   69.5450   66.6158 H   0  0  0  0  0  0  0  0  0  0  0  0
    7.4458   71.0066   66.6158 H   0  0  0  0  0  0  0  0  0  0  0  0
  2  1  2  0
  3  2  1  0
  4  3  1  0
  5  4  1  0
  6  5  2  0
  6  2  1  0
  7  6  1  0
  8  7  2  0
  9  8  1  0
 10  9  2  0
 11 10  1  0
 12 11  2  0
 12  7  1  0
 13  5  1  0
 14 13  2  0
 15 14  1  0
 16 15  2  0
 17 16  1  0
 18 17  2  0
 18 13  1  0
 19 16  1  0
 20 19  2  0
 21 19  2  0
 22 19  1  0
  4 23  1  0
  4 24  1  0
  8 25  1  0
  9 26  1  0
 10 27  1  0
 11 28  1  0
 12 29  1  0
 14 30  1  0
 15 31  1  0
 17 32  1  0
 18 33  1  0
 22 34  1  0
 22 35  1  0
 22 36  1  0
M  END
>  <score>  (4) 
-9.407

$$$$
=
     RDKit          3D

 36 38  0  0  0  0  0  0  0  0999 V2000
    4.0700   57.8770   70.2330 O   0  0  0  0  0  0  0  0  0  0  0  0
    3.2490   58.1780   71.0810 C   0  0  0  0  0  0  0  0  0  0  0  0
    2.5660   57.2780   71.8410 O   0  0  0  0  0  0  0  0  0  0  0  0
    1.6950   57.9770   72.7210 C   0  0  0  0  0  0  0  0  0  0  0  0
    1.9510   59.4100   72.4450 C   0  0  0  0  0  0  0  0  0  0  0  0
    2.8420   59.5520   71.4530 C   0  0  0  0  0  0  0  0  0  0  0  0
    3.3670   60.7690   70.8270 C   0  0  0  0  0  0  0  0  0  0  0  0
    2.8760   61.2160   69.5910 C   0  0  0  0  0  0  0  0  0  0  0  0
    3.3760   62.3800   69.0030 C   0  0  0  0  0  0  0  0  0  0  0  0
    4.3800   63.1070   69.6370 C   0  0  0  0  0  0  0  0  0  0  0  0
    4.8870   62.6680   70.8580 C   0  0  0  0  0  0  0  0  0  0  0  0
    4.3860   61.5050   71.4470 C   0  0  0  0  0  0  0  0  0  0  0  0
    1.2650   60.4480   73.2250 C   0  0  0  0  0  0  0  0  0  0  0  0
   -0.0270   60.8730   72.8760 C   0  0  0  0  0  0  0  0  0  0  0  0
   -0.6800   61.8640   73.6120 C   0  0  0  0  0  0  0  0  0  0  0  0
   -0.0310   62.4540   74.6960 C   0  0  0  0  0  0  0  0  0  0  0  0
    1.2520   62.0450   75.0640 C   0  0  0  0  0  0  0  0  0  0  0  0
    1.8980   61.0500   74.3240 C   0  0  0  0  0  0  0  0  0  0  0  0
   -0.8680   63.6990   75.6490 S   0  0  0  0  0  6  0  0  0  0  0  0
   -2.2500   63.2850   75.7910 O   0  0  0  0  0  0  0  0  0  0  0  0
   -0.5310   64.9860   75.0730 O   0  0  0  0  0  0  0  0  0  0  0  0
   -0.0920   63.5830   77.2400 C   0  0  0  0  0  0  0  0  0  0  0  0
    0.6456   57.7230   72.5106 H   0  0  0  0  0  0  0  0  0  0  0  0
    1.8734   57.7182   73.7751 H   0  0  0  0  0  0  0  0  0  0  0  0
    2.0885   60.6433   69.0794 H   0  0  0  0  0  0  0  0  0  0  0  0
    2.9759   62.7229   68.0374 H   0  0  0  0  0  0  0  0  0  0  0  0
    4.7717   64.0253   69.1751 H   0  0  0  0  0  0  0  0  0  0  0  0
    5.6832   63.2382   71.3590 H   0  0  0  0  0  0  0  0  0  0  0  0
    4.7959   61.1626   72.4087 H   0  0  0  0  0  0  0  0  0  0  0  0
   -0.5319   60.4189   72.0106 H   0  0  0  0  0  0  0  0  0  0  0  0
   -1.6986   62.1768   73.3387 H   0  0  0  0  0  0  0  0  0  0  0  0
    1.7516   62.5026   75.9306 H   0  0  0  0  0  0  0  0  0  0  0  0
    2.9136   60.7354   74.6061 H   0  0  0  0  0  0  0  0  0  0  0  0
   -0.8515   63.6965   78.0276 H   0  0  0  0  0  0  0  0  0  0  0  0
    0.3956   62.6020   77.3395 H   0  0  0  0  0  0  0  0  0  0  0  0
    0.6611   64.3785   77.3395 H   0  0  0  0  0  0  0  0  0  0  0  0
  2  1  2  0
  3  2  1  0
  4  3  1  0
  5  4  1  0
  6  5  2  0
  6  2  1  0
  7  6  1  0
  8  7  2  0
  9  8  1  0
 10  9  2  0
 11 10  1  0
 12 11  2  0
 12  7  1  0
 13  5  1  0
 14 13  2  0
 15 14  1  0
 16 15  2  0
 17 16  1  0
 18 17  2  0
 18 13  1  0
 19 16  1  0
 20 19  2  0
 21 19  2  0
 22 19  1  0
  4 23  1  0
  4 24  1  0
  8 25  1  0
  9 26  1  0
 10 27  1  0
 11 28  1  0
 12 29  1  0
 14 30  1  0
 15 31  1  0
 17 32  1  0
 18 33  1  0
 22 34  1  0
 22 35  1  0
 22 36  1  0
M  END
>  <score>  (5) 
-9.311

$$$$
=
     RDKit          3D

 36 38  0  0  0  0  0  0  0  0999 V2000
    0.9820   63.7850   71.5810 O   0  0  0  0  0  0  0  0  0  0  0  0
    0.5460   62.7620   72.0790 C   0  0  0  0  0  0  0  0  0  0  0  0
   -0.7250   62.6160   72.5420 O   0  0  0  0  0  0  0  0  0  0  0  0
   -0.8870   61.2990   73.0550 C   0  0  0  0  0  0  0  0  0  0  0  0
    0.4180   60.6390   72.8160 C   0  0  0  0  0  0  0  0  0  0  0  0
    1.2930   61.4970   72.2700 C   0  0  0  0  0  0  0  0  0  0  0  0
    2.6960   61.3000   71.8980 C   0  0  0  0  0  0  0  0  0  0  0  0
    3.7230   61.4450   72.8430 C   0  0  0  0  0  0  0  0  0  0  0  0
    5.0580   61.2500   72.4820 C   0  0  0  0  0  0  0  0  0  0  0  0
    5.3850   60.9170   71.1710 C   0  0  0  0  0  0  0  0  0  0  0  0
    4.3780   60.7830   70.2180 C   0  0  0  0  0  0  0  0  0  0  0  0
    3.0430   60.9770   70.5790 C   0  0  0  0  0  0  0  0  0  0  0  0
    0.6070   59.2260   73.1650 C   0  0  0  0  0  0  0  0  0  0  0  0
    1.7500   58.5290   72.7420 C   0  0  0  0  0  0  0  0  0  0  0  0
    1.9310   57.1830   73.0670 C   0  0  0  0  0  0  0  0  0  0  0  0
    0.9520   56.5170   73.8040 C   0  0  0  0  0  0  0  0  0  0  0  0
   -0.1910   57.1900   74.2380 C   0  0  0  0  0  0  0  0  0  0  0  0
   -0.3620   58.5390   73.9110 C   0  0  0  0  0  0  0  0  0  0  0  0
    1.1900   54.8100   74.2390 S   0  0  0  0  0  6  0  0  0  0  0  0
    2.4160   54.3640   73.6070 O   0  0  0  0  0  0  0  0  0  0  0  0
   -0.0650   54.1230   74.0000 O   0  0  0  0  0  0  0  0  0  0  0  0
    1.4630   54.8720   75.9910 C   0  0  0  0  0  0  0  0  0  0  0  0
   -1.1163   61.3271   74.1305 H   0  0  0  0  0  0  0  0  0  0  0  0
   -1.7184   60.7639   72.5729 H   0  0  0  0  0  0  0  0  0  0  0  0
    3.4739   61.7153   73.8798 H   0  0  0  0  0  0  0  0  0  0  0  0
    5.8522   61.3598   73.2351 H   0  0  0  0  0  0  0  0  0  0  0  0
    6.4363   60.7600   70.8880 H   0  0  0  0  0  0  0  0  0  0  0  0
    4.6346   60.5241   69.1801 H   0  0  0  0  0  0  0  0  0  0  0  0
    2.2543   60.8751   69.8190 H   0  0  0  0  0  0  0  0  0  0  0  0
    2.5136   59.0505   72.1462 H   0  0  0  0  0  0  0  0  0  0  0  0
    2.8387   56.6521   72.7442 H   0  0  0  0  0  0  0  0  0  0  0  0
   -0.9518   56.6633   74.8329 H   0  0  0  0  0  0  0  0  0  0  0  0
   -1.2676   59.0678   74.2430 H   0  0  0  0  0  0  0  0  0  0  0  0
    0.5207   54.6580   76.5167 H   0  0  0  0  0  0  0  0  0  0  0  0
    2.2177   54.1224   76.2713 H   0  0  0  0  0  0  0  0  0  0  0  0
    1.8198   55.8741   76.2713 H   0  0  0  0  0  0  0  0  0  0  0  0
  2  1  2  0
  3  2  1  0
  4  3  1  0
  5  4  1  0
  6  5  2  0
  6  2  1  0
  7  6  1  0
  8  7  2  0
  9  8  1  0
 10  9  2  0
 11 10  1  0
 12 11  2  0
 12  7  1  0
 13  5  1  0
 14 13  2  0
 15 14  1  0
 16 15  2  0
 17 16  1  0
 18 17  2  0
 18 13  1  0
 19 16  1  0
 20 19  2  0
 21 19  2  0
 22 19  1  0
  4 23  1  0
  4 24  1  0
  8 25  1  0
  9 26  1  0
 10 27  1  0
 11 28  1  0
 12 29  1  0
 14 30  1  0
 15 31  1  0
 17 32  1  0
 18 33  1  0
 22 34  1  0
 22 35  1  0
 22 36  1  0
M  END
>  <score>  (6) 
-9.183

$$$$
=
     RDKit          3D

 36 38  0  0  0  0  0  0  0  0999 V2000
    1.6150   66.2480   69.1410 O   0  0  0  0  0  0  0  0  0  0  0  0
    1.0530   65.8250   70.1360 C   0  0  0  0  0  0  0  0  0  0  0  0
    0.0500   66.4770   70.7850 O   0  0  0  0  0  0  0  0  0  0  0  0
   -0.3680   65.6980   71.8990 C   0  0  0  0  0  0  0  0  0  0  0  0
    0.4630   64.4730   71.8350 C   0  0  0  0  0  0  0  0  0  0  0  0
    1.3350   64.5420   70.8190 C   0  0  0  0  0  0  0  0  0  0  0  0
    2.3660   63.5900   70.3980 C   0  0  0  0  0  0  0  0  0  0  0  0
    2.0320   62.4300   69.6820 C   0  0  0  0  0  0  0  0  0  0  0  0
    3.0210   61.5300   69.2780 C   0  0  0  0  0  0  0  0  0  0  0  0
    4.3550   61.7720   69.5930 C   0  0  0  0  0  0  0  0  0  0  0  0
    4.7010   62.9110   70.3160 C   0  0  0  0  0  0  0  0  0  0  0  0
    3.7130   63.8120   70.7180 C   0  0  0  0  0  0  0  0  0  0  0  0
    0.2610   63.3900   72.8060 C   0  0  0  0  0  0  0  0  0  0  0  0
   -0.5010   62.2590   72.4720 C   0  0  0  0  0  0  0  0  0  0  0  0
   -0.7000   61.2300   73.3950 C   0  0  0  0  0  0  0  0  0  0  0  0
   -0.1500   61.3380   74.6730 C   0  0  0  0  0  0  0  0  0  0  0  0
    0.6140   62.4510   75.0260 C   0  0  0  0  0  0  0  0  0  0  0  0
    0.8100   63.4760   74.0940 C   0  0  0  0  0  0  0  0  0  0  0  0
   -0.3820   60.0200   75.8420 S   0  0  0  0  0  6  0  0  0  0  0  0
    0.9220   59.4520   76.1250 O   0  0  0  0  0  0  0  0  0  0  0  0
   -1.4650   59.1890   75.3520 O   0  0  0  0  0  0  0  0  0  0  0  0
   -0.9440   60.8620   77.2990 C   0  0  0  0  0  0  0  0  0  0  0  0
   -0.1891   66.2393   72.8397 H   0  0  0  0  0  0  0  0  0  0  0  0
   -1.4442   65.4726   71.8686 H   0  0  0  0  0  0  0  0  0  0  0  0
    0.9792   62.2272   69.4361 H   0  0  0  0  0  0  0  0  0  0  0  0
    2.7452   60.6291   68.7103 H   0  0  0  0  0  0  0  0  0  0  0  0
    5.1342   61.0652   69.2716 H   0  0  0  0  0  0  0  0  0  0  0  0
    5.7541   63.1010   70.5707 H   0  0  0  0  0  0  0  0  0  0  0  0
    3.9947   64.7067   71.2926 H   0  0  0  0  0  0  0  0  0  0  0  0
   -0.9474   62.1824   71.4696 H   0  0  0  0  0  0  0  0  0  0  0  0
   -1.2857   60.3414   73.1168 H   0  0  0  0  0  0  0  0  0  0  0  0
    1.0589   62.5220   76.0295 H   0  0  0  0  0  0  0  0  0  0  0  0
    1.4017   64.3598   74.3746 H   0  0  0  0  0  0  0  0  0  0  0  0
   -0.5873   60.3276   78.1919 H   0  0  0  0  0  0  0  0  0  0  0  0
   -0.5495   61.8888   77.3042 H   0  0  0  0  0  0  0  0  0  0  0  0
   -2.0436   60.8916   77.3042 H   0  0  0  0  0  0  0  0  0  0  0  0
  2  1  2  0
  3  2  1  0
  4  3  1  0
  5  4  1  0
  6  5  2  0
  6  2  1  0
  7  6  1  0
  8  7  2  0
  9  8  1  0
 10  9  2  0
 11 10  1  0
 12 11  2  0
 12  7  1  0
 13  5  1  0
 14 13  2  0
 15 14  1  0
 16 15  2  0
 17 16  1  0
 18 17  2  0
 18 13  1  0
 19 16  1  0
 20 19  2  0
 21 19  2  0
 22 19  1  0
  4 23  1  0
  4 24  1  0
  8 25  1  0
  9 26  1  0
 10 27  1  0
 11 28  1  0
 12 29  1  0
 14 30  1  0
 15 31  1  0
 17 32  1  0
 18 33  1  0
 22 34  1  0
 22 35  1  0
 22 36  1  0
M  END
>  <score>  (7) 
-8.434

$$$$
=
     RDKit          3D

 36 38  0  0  0  0  0  0  0  0999 V2000
    3.5110   56.4180   70.7870 O   0  0  0  0  0  0  0  0  0  0  0  0
    3.3310   57.6160   70.9190 C   0  0  0  0  0  0  0  0  0  0  0  0
    3.8100   58.5620   70.0650 O   0  0  0  0  0  0  0  0  0  0  0  0
    3.4130   59.8480   70.5240 C   0  0  0  0  0  0  0  0  0  0  0  0
    2.5990   59.5820   71.7340 C   0  0  0  0  0  0  0  0  0  0  0  0
    2.5660   58.2690   72.0060 C   0  0  0  0  0  0  0  0  0  0  0  0
    1.9220   57.5530   73.1100 C   0  0  0  0  0  0  0  0  0  0  0  0
    0.7250   56.8480   72.9150 C   0  0  0  0  0  0  0  0  0  0  0  0
    0.1200   56.1620   73.9710 C   0  0  0  0  0  0  0  0  0  0  0  0
    0.6980   56.1810   75.2380 C   0  0  0  0  0  0  0  0  0  0  0  0
    1.8780   56.8890   75.4500 C   0  0  0  0  0  0  0  0  0  0  0  0
    2.4840   57.5730   74.3940 C   0  0  0  0  0  0  0  0  0  0  0  0
    1.9570   60.6890   72.4520 C   0  0  0  0  0  0  0  0  0  0  0  0
    0.5700   60.8880   72.3730 C   0  0  0  0  0  0  0  0  0  0  0  0
   -0.0440   61.9440   73.0500 C   0  0  0  0  0  0  0  0  0  0  0  0
    0.7360   62.8250   73.7980 C   0  0  0  0  0  0  0  0  0  0  0  0
    2.1170   62.6450   73.8950 C   0  0  0  0  0  0  0  0  0  0  0  0
    2.7230   61.5840   73.2160 C   0  0  0  0  0  0  0  0  0  0  0  0
   -0.0440   64.1560   74.6810 S   0  0  0  0  0  6  0  0  0  0  0  0
   -1.1420   63.5930   75.4410 O   0  0  0  0  0  0  0  0  0  0  0  0
   -0.2680   65.2320   73.7340 O   0  0  0  0  0  0  0  0  0  0  0  0
    1.2080   64.6750   75.8240 C   0  0  0  0  0  0  0  0  0  0  0  0
    4.2928   60.4587   70.7751 H   0  0  0  0  0  0  0  0  0  0  0  0
    2.8524   60.4072   69.7604 H   0  0  0  0  0  0  0  0  0  0  0  0
    0.2575   56.8352   71.9194 H   0  0  0  0  0  0  0  0  0  0  0  0
   -0.8140   55.6062   73.8016 H   0  0  0  0  0  0  0  0  0  0  0  0
    0.2236   55.6382   76.0689 H   0  0  0  0  0  0  0  0  0  0  0  0
    2.3337   56.9096   76.4510 H   0  0  0  0  0  0  0  0  0  0  0  0
    3.4133   58.1341   74.5719 H   0  0  0  0  0  0  0  0  0  0  0  0
   -0.0424   60.2023   71.7691 H   0  0  0  0  0  0  0  0  0  0  0  0
   -1.1342   62.0796   72.9936 H   0  0  0  0  0  0  0  0  0  0  0  0
    2.7240   63.3333   74.5015 H   0  0  0  0  0  0  0  0  0  0  0  0
    3.8127   61.4487   73.2810 H   0  0  0  0  0  0  0  0  0  0  0  0
    0.8493   64.5263   76.8532 H   0  0  0  0  0  0  0  0  0  0  0  0
    2.1197   64.0807   75.6640 H   0  0  0  0  0  0  0  0  0  0  0  0
    1.4318   65.7400   75.6640 H   0  0  0  0  0  0  0  0  0  0  0  0
  2  1  2  0
  3  2  1  0
  4  3  1  0
  5  4  1  0
  6  5  2  0
  6  2  1  0
  7  6  1  0
  8  7  2  0
  9  8  1  0
 10  9  2  0
 11 10  1  0
 12 11  2  0
 12  7  1  0
 13  5  1  0
 14 13  2  0
 15 14  1  0
 16 15  2  0
 17 16  1  0
 18 17  2  0
 18 13  1  0
 19 16  1  0
 20 19  2  0
 21 19  2  0
 22 19  1  0
  4 23  1  0
  4 24  1  0
  8 25  1  0
  9 26  1  0
 10 27  1  0
 11 28  1  0
 12 29  1  0
 14 30  1  0
 15 31  1  0
 17 32  1  0
 18 33  1  0
 22 34  1  0
 22 35  1  0
 22 36  1  0
M  END
>  <score>  (8) 
-8.421

$$$$
=
     RDKit          3D

 36 38  0  0  0  0  0  0  0  0999 V2000
    3.9550   63.1000   69.0400 O   0  0  0  0  0  0  0  0  0  0  0  0
    3.0230   63.4190   69.7570 C   0  0  0  0  0  0  0  0  0  0  0  0
    2.2850   64.5510   69.5970 O   0  0  0  0  0  0  0  0  0  0  0  0
    1.2850   64.6030   70.6070 C   0  0  0  0  0  0  0  0  0  0  0  0
    1.4650   63.3510   71.3790 C   0  0  0  0  0  0  0  0  0  0  0  0
    2.5110   62.6510   70.9150 C   0  0  0  0  0  0  0  0  0  0  0  0
    3.0780   61.3850   71.3850 C   0  0  0  0  0  0  0  0  0  0  0  0
    3.0050   60.2230   70.6010 C   0  0  0  0  0  0  0  0  0  0  0  0
    3.5550   59.0210   71.0530 C   0  0  0  0  0  0  0  0  0  0  0  0
    4.1740   58.9610   72.2980 C   0  0  0  0  0  0  0  0  0  0  0  0
    4.2420   60.1020   73.0940 C   0  0  0  0  0  0  0  0  0  0  0  0
    3.6940   61.3050   72.6410 C   0  0  0  0  0  0  0  0  0  0  0  0
    0.5530   63.0240   72.4820 C   0  0  0  0  0  0  0  0  0  0  0  0
    0.6480   63.6890   73.7140 C   0  0  0  0  0  0  0  0  0  0  0  0
   -0.2140   63.3770   74.7680 C   0  0  0  0  0  0  0  0  0  0  0  0
   -1.1700   62.3750   74.5980 C   0  0  0  0  0  0  0  0  0  0  0  0
   -1.2860   61.7030   73.3800 C   0  0  0  0  0  0  0  0  0  0  0  0
   -0.4200   62.0240   72.3300 C   0  0  0  0  0  0  0  0  0  0  0  0
   -2.2850   61.9910   75.9280 S   0  0  0  0  0  6  0  0  0  0  0  0
   -2.0120   60.6310   76.3480 O   0  0  0  0  0  0  0  0  0  0  0  0
   -3.6150   62.3880   75.5080 O   0  0  0  0  0  0  0  0  0  0  0  0
   -1.7630   63.0830   77.2240 C   0  0  0  0  0  0  0  0  0  0  0  0
    1.4312   65.4814   71.2528 H   0  0  0  0  0  0  0  0  0  0  0  0
    0.2725   64.6907   70.1862 H   0  0  0  0  0  0  0  0  0  0  0  0
    2.5092   60.2592   69.6197 H   0  0  0  0  0  0  0  0  0  0  0  0
    3.4987   58.1205   70.4238 H   0  0  0  0  0  0  0  0  0  0  0  0
    4.6085   58.0147   72.6526 H   0  0  0  0  0  0  0  0  0  0  0  0
    4.7275   60.0561   74.0800 H   0  0  0  0  0  0  0  0  0  0  0  0
    3.7469   62.2001   73.2782 H   0  0  0  0  0  0  0  0  0  0  0  0
    1.4127   64.4676   73.8518 H   0  0  0  0  0  0  0  0  0  0  0  0
   -0.1398   63.9166   75.7237 H   0  0  0  0  0  0  0  0  0  0  0  0
   -2.0534   60.9262   73.2470 H   0  0  0  0  0  0  0  0  0  0  0  0
   -0.5023   61.4865   71.3738 H   0  0  0  0  0  0  0  0  0  0  0  0
   -1.9820   62.6250   78.1998 H   0  0  0  0  0  0  0  0  0  0  0  0
   -0.6813   63.2634   77.1380 H   0  0  0  0  0  0  0  0  0  0  0  0
   -2.3019   64.0381   77.1380 H   0  0  0  0  0  0  0  0  0  0  0  0
  2  1  2  0
  3  2  1  0
  4  3  1  0
  5  4  1  0
  6  5  2  0
  6  2  1  0
  7  6  1  0
  8  7  2  0
  9  8  1  0
 10  9  2  0
 11 10  1  0
 12 11  2  0
 12  7  1  0
 13  5  1  0
 14 13  2  0
 15 14  1  0
 16 15  2  0
 17 16  1  0
 18 17  2  0
 18 13  1  0
 19 16  1  0
 20 19  2  0
 21 19  2  0
 22 19  1  0
  4 23  1  0
  4 24  1  0
  8 25  1  0
  9 26  1  0
 10 27  1  0
 11 28  1  0
 12 29  1  0
 14 30  1  0
 15 31  1  0
 17 32  1  0
 18 33  1  0
 22 34  1  0
 22 35  1  0
 22 36  1  0
M  END
>  <score>  (9) 
-8.25

$$$$
