=
     RDKit          3D

 16 17  0  0  0  0  0  0  0  0999 V2000
    1.3100   69.3650   67.6320 Cl  0  0  0  0  0  0  0  0  0  0  0  0
    2.9470   69.8130   67.8760 C   0  0  0  0  0  0  0  0  0  0  0  0
    3.3530   70.2580   69.1400 C   0  0  0  0  0  0  0  0  0  0  0  0
    4.6900   70.6340   69.3790 C   0  0  0  0  0  0  0  0  0  0  0  0
    5.6370   70.5700   68.3540 C   0  0  0  0  0  0  0  0  0  0  0  0
    5.2240   70.1290   67.1080 C   0  0  0  0  0  0  0  0  0  0  0  0
    3.8990   69.7570   66.8770 C   0  0  0  0  0  0  0  0  0  0  0  0
    3.8150   69.3480   65.4700 C   0  0  0  0  0  0  0  0  0  0  0  0
    2.8500   68.9540   64.8600 O   0  0  0  0  0  0  0  0  0  0  0  0
    5.2490   69.5240   64.9020 C   0  0  0  0  0  0  0  0  0  0  0  0
    5.6090   69.2940   63.7690 O   0  0  0  0  0  0  0  0  0  0  0  0
    6.0010   69.9900   65.9560 N   0  0  0  0  0  0  0  0  0  0  0  0
    7.2650   71.0290   68.6500 Cl  0  0  0  0  0  0  0  0  0  0  0  0
    2.6188   70.3149   69.9571 H   0  0  0  0  0  0  0  0  0  0  0  0
    4.9898   70.9801   70.3791 H   0  0  0  0  0  0  0  0  0  0  0  0
    7.0062   70.2079   65.9022 H   0  0  0  0  0  0  0  0  0  0  0  0
  2  1  1  0
  3  2  2  0
  4  3  1  0
  5  4  2  0
  6  5  1  0
  7  6  2  0
  7  2  1  0
  8  7  1  0
  9  8  2  0
 10  8  1  0
 11 10  2  0
 12 10  1  0
 12  6  1  0
 13  5  1  0
  3 14  1  0
  4 15  1  0
 12 16  1  0
M  END
>  <score>  (1) 
-8.162

$$$$
=
     RDKit          3D

 16 17  0  0  0  0  0  0  0  0999 V2000
    5.5950   69.2050   62.4210 Cl  0  0  0  0  0  0  0  0  0  0  0  0
    4.6110   69.2040   63.8260 C   0  0  0  0  0  0  0  0  0  0  0  0
    5.1890   69.5030   65.0660 C   0  0  0  0  0  0  0  0  0  0  0  0
    4.4130   69.5120   66.2420 C   0  0  0  0  0  0  0  0  0  0  0  0
    3.0470   69.2220   66.1910 C   0  0  0  0  0  0  0  0  0  0  0  0
    2.4870   68.9280   64.9600 C   0  0  0  0  0  0  0  0  0  0  0  0
    3.2600   68.9210   63.7980 C   0  0  0  0  0  0  0  0  0  0  0  0
    2.3580   68.5750   62.6930 C   0  0  0  0  0  0  0  0  0  0  0  0
    2.6190   68.4600   61.5200 O   0  0  0  0  0  0  0  0  0  0  0  0
    0.9620   68.3800   63.3450 C   0  0  0  0  0  0  0  0  0  0  0  0
   -0.0640   68.0850   62.7750 O   0  0  0  0  0  0  0  0  0  0  0  0
    1.1540   68.6140   64.6870 N   0  0  0  0  0  0  0  0  0  0  0  0
    2.1060   69.2350   67.6270 Cl  0  0  0  0  0  0  0  0  0  0  0  0
    6.2630   69.7339   65.1227 H   0  0  0  0  0  0  0  0  0  0  0  0
    4.8856   69.7489   67.2066 H   0  0  0  0  0  0  0  0  0  0  0  0
    0.4107   68.5641   65.3983 H   0  0  0  0  0  0  0  0  0  0  0  0
  2  1  1  0
  3  2  2  0
  4  3  1  0
  5  4  2  0
  6  5  1  0
  7  6  2  0
  7  2  1  0
  8  7  1  0
  9  8  2  0
 10  8  1  0
 11 10  2  0
 12 10  1  0
 12  6  1  0
 13  5  1  0
  3 14  1  0
  4 15  1  0
 12 16  1  0
M  END
>  <score>  (2) 
-7.906

$$$$
=
     RDKit          3D

 16 17  0  0  0  0  0  0  0  0999 V2000
    3.4030   70.0970   69.1980 Cl  0  0  0  0  0  0  0  0  0  0  0  0
    3.8930   69.8590   67.5720 C   0  0  0  0  0  0  0  0  0  0  0  0
    5.2020   70.1880   67.1970 C   0  0  0  0  0  0  0  0  0  0  0  0
    5.6410   70.0070   65.8710 C   0  0  0  0  0  0  0  0  0  0  0  0
    4.7750   69.4940   64.9020 C   0  0  0  0  0  0  0  0  0  0  0  0
    3.4840   69.1720   65.2840 C   0  0  0  0  0  0  0  0  0  0  0  0
    3.0540   69.3530   66.6000 C   0  0  0  0  0  0  0  0  0  0  0  0
    1.6530   68.9160   66.6500 C   0  0  0  0  0  0  0  0  0  0  0  0
    0.9050   68.9060   67.5970 O   0  0  0  0  0  0  0  0  0  0  0  0
    1.3120   68.4560   65.2070 C   0  0  0  0  0  0  0  0  0  0  0  0
    0.2500   68.0220   64.8210 O   0  0  0  0  0  0  0  0  0  0  0  0
    2.4660   68.6500   64.4830 N   0  0  0  0  0  0  0  0  0  0  0  0
    5.3150   69.2740   63.2870 Cl  0  0  0  0  0  0  0  0  0  0  0  0
    5.8962   70.5930   67.9480 H   0  0  0  0  0  0  0  0  0  0  0  0
    6.6728   70.2714   65.5964 H   0  0  0  0  0  0  0  0  0  0  0  0
    2.5660   68.4377   63.4801 H   0  0  0  0  0  0  0  0  0  0  0  0
  2  1  1  0
  3  2  2  0
  4  3  1  0
  5  4  2  0
  6  5  1  0
  7  6  2  0
  7  2  1  0
  8  7  1  0
  9  8  2  0
 10  8  1  0
 11 10  2  0
 12 10  1  0
 12  6  1  0
 13  5  1  0
  3 14  1  0
  4 15  1  0
 12 16  1  0
M  END
>  <score>  (3) 
-7.759

$$$$
=
     RDKit          3D

 16 17  0  0  0  0  0  0  0  0999 V2000
    6.0690   70.8470   68.9220 Cl  0  0  0  0  0  0  0  0  0  0  0  0
    5.3700   70.2620   67.4700 C   0  0  0  0  0  0  0  0  0  0  0  0
    6.1600   70.1730   66.3170 C   0  0  0  0  0  0  0  0  0  0  0  0
    5.6200   69.6960   65.1060 C   0  0  0  0  0  0  0  0  0  0  0  0
    4.2810   69.3030   65.0330 C   0  0  0  0  0  0  0  0  0  0  0  0
    3.5100   69.3960   66.1780 C   0  0  0  0  0  0  0  0  0  0  0  0
    4.0500   69.8680   67.3760 C   0  0  0  0  0  0  0  0  0  0  0  0
    2.9690   69.8340   68.3690 C   0  0  0  0  0  0  0  0  0  0  0  0
    3.0080   70.1570   69.5320 O   0  0  0  0  0  0  0  0  0  0  0  0
    1.7290   69.2850   67.6110 C   0  0  0  0  0  0  0  0  0  0  0  0
    0.6250   69.1010   68.0730 O   0  0  0  0  0  0  0  0  0  0  0  0
    2.1630   69.0590   66.3250 N   0  0  0  0  0  0  0  0  0  0  0  0
    3.6290   68.7230   63.5550 Cl  0  0  0  0  0  0  0  0  0  0  0  0
    7.2157   70.4794   66.3573 H   0  0  0  0  0  0  0  0  0  0  0  0
    6.2572   69.6325   64.2116 H   0  0  0  0  0  0  0  0  0  0  0  0
    1.5705   68.6889   65.5682 H   0  0  0  0  0  0  0  0  0  0  0  0
  2  1  1  0
  3  2  2  0
  4  3  1  0
  5  4  2  0
  6  5  1  0
  7  6  2  0
  7  2  1  0
  8  7  1  0
  9  8  2  0
 10  8  1  0
 11 10  2  0
 12 10  1  0
 12  6  1  0
 13  5  1  0
  3 14  1  0
  4 15  1  0
 12 16  1  0
M  END
>  <score>  (4) 
-7.755

$$$$
=
     RDKit          3D

 16 17  0  0  0  0  0  0  0  0999 V2000
    3.9020   68.5040   63.7090 Cl  0  0  0  0  0  0  0  0  0  0  0  0
    3.9930   69.0980   65.3150 C   0  0  0  0  0  0  0  0  0  0  0  0
    5.2060   69.6180   65.7830 C   0  0  0  0  0  0  0  0  0  0  0  0
    5.3190   70.1170   67.0970 C   0  0  0  0  0  0  0  0  0  0  0  0
    4.2190   70.1000   67.9580 C   0  0  0  0  0  0  0  0  0  0  0  0
    3.0260   69.5830   67.4840 C   0  0  0  0  0  0  0  0  0  0  0  0
    2.9190   69.0920   66.1810 C   0  0  0  0  0  0  0  0  0  0  0  0
    1.5350   68.6290   66.0180 C   0  0  0  0  0  0  0  0  0  0  0  0
    1.0200   68.1350   65.0440 O   0  0  0  0  0  0  0  0  0  0  0  0
    0.8420   68.9080   67.3790 C   0  0  0  0  0  0  0  0  0  0  0  0
   -0.3110   68.6720   67.6630 O   0  0  0  0  0  0  0  0  0  0  0  0
    1.8150   69.4740   68.1710 N   0  0  0  0  0  0  0  0  0  0  0  0
    4.3630   70.7090   69.5570 Cl  0  0  0  0  0  0  0  0  0  0  0  0
    6.0815   69.6375   65.1174 H   0  0  0  0  0  0  0  0  0  0  0  0
    6.2800   70.5225   67.4465 H   0  0  0  0  0  0  0  0  0  0  0  0
    1.6689   69.7778   69.1443 H   0  0  0  0  0  0  0  0  0  0  0  0
  2  1  1  0
  3  2  2  0
  4  3  1  0
  5  4  2  0
  6  5  1  0
  7  6  2  0
  7  2  1  0
  8  7  1  0
  9  8  2  0
 10  8  1  0
 11 10  2  0
 12 10  1  0
 12  6  1  0
 13  5  1  0
  3 14  1  0
  4 15  1  0
 12 16  1  0
M  END
>  <score>  (5) 
-7.611

$$$$
=
     RDKit          3D

 16 17  0  0  0  0  0  0  0  0999 V2000
    3.2430   68.3870   61.4730 Cl  0  0  0  0  0  0  0  0  0  0  0  0
    3.5250   68.7850   63.1170 C   0  0  0  0  0  0  0  0  0  0  0  0
    4.7900   69.2430   63.5020 C   0  0  0  0  0  0  0  0  0  0  0  0
    5.0600   69.5790   64.8440 C   0  0  0  0  0  0  0  0  0  0  0  0
    4.0640   69.4610   65.8170 C   0  0  0  0  0  0  0  0  0  0  0  0
    2.8170   69.0080   65.4250 C   0  0  0  0  0  0  0  0  0  0  0  0
    2.5550   68.6760   64.0940 C   0  0  0  0  0  0  0  0  0  0  0  0
    1.1550   68.2400   64.0360 C   0  0  0  0  0  0  0  0  0  0  0  0
    0.5250   67.8660   63.0760 O   0  0  0  0  0  0  0  0  0  0  0  0
    0.6250   68.3540   65.4910 C   0  0  0  0  0  0  0  0  0  0  0  0
   -0.4910   68.0880   65.8750 O   0  0  0  0  0  0  0  0  0  0  0  0
    1.6910   68.8190   66.2280 N   0  0  0  0  0  0  0  0  0  0  0  0
    4.3980   69.8740   67.4500 Cl  0  0  0  0  0  0  0  0  0  0  0  0
    5.5842   69.3421   62.7474 H   0  0  0  0  0  0  0  0  0  0  0  0
    6.0611   69.9364   65.1272 H   0  0  0  0  0  0  0  0  0  0  0  0
    1.6614   69.0035   67.2409 H   0  0  0  0  0  0  0  0  0  0  0  0
  2  1  1  0
  3  2  2  0
  4  3  1  0
  5  4  2  0
  6  5  1  0
  7  6  2  0
  7  2  1  0
  8  7  1  0
  9  8  2  0
 10  8  1  0
 11 10  2  0
 12 10  1  0
 12  6  1  0
 13  5  1  0
  3 14  1  0
  4 15  1  0
 12 16  1  0
M  END
>  <score>  (6) 
-7.588

$$$$
=
     RDKit          3D

 16 17  0  0  0  0  0  0  0  0999 V2000
    6.5760   70.4700   66.9130 Cl  0  0  0  0  0  0  0  0  0  0  0  0
    4.9220   70.0580   67.0970 C   0  0  0  0  0  0  0  0  0  0  0  0
    4.3180   70.1960   68.3520 C   0  0  0  0  0  0  0  0  0  0  0  0
    2.9610   69.8680   68.5420 C   0  0  0  0  0  0  0  0  0  0  0  0
    2.1910   69.3960   67.4760 C   0  0  0  0  0  0  0  0  0  0  0  0
    2.7980   69.2630   66.2390 C   0  0  0  0  0  0  0  0  0  0  0  0
    4.1430   69.5910   66.0560 C   0  0  0  0  0  0  0  0  0  0  0  0
    4.4520   69.3330   64.6450 C   0  0  0  0  0  0  0  0  0  0  0  0
    5.5020   69.4830   64.0680 O   0  0  0  0  0  0  0  0  0  0  0  0
    3.1290   68.8150   64.0200 C   0  0  0  0  0  0  0  0  0  0  0  0
    2.9550   68.4870   62.8680 O   0  0  0  0  0  0  0  0  0  0  0  0
    2.2170   68.8150   65.0510 N   0  0  0  0  0  0  0  0  0  0  0  0
    0.5370   68.9970   67.7120 Cl  0  0  0  0  0  0  0  0  0  0  0  0
    4.9109   70.5656   69.2017 H   0  0  0  0  0  0  0  0  0  0  0  0
    2.5048   69.9843   69.5362 H   0  0  0  0  0  0  0  0  0  0  0  0
    1.2338   68.5225   64.9582 H   0  0  0  0  0  0  0  0  0  0  0  0
  2  1  1  0
  3  2  2  0
  4  3  1  0
  5  4  2  0
  6  5  1  0
  7  6  2  0
  7  2  1  0
  8  7  1  0
  9  8  2  0
 10  8  1  0
 11 10  2  0
 12 10  1  0
 12  6  1  0
 13  5  1  0
  3 14  1  0
  4 15  1  0
 12 16  1  0
M  END
>  <score>  (7) 
-7.564

$$$$
=
     RDKit          3D

 16 17  0  0  0  0  0  0  0  0999 V2000
    2.0550   69.3880   68.6720 Cl  0  0  0  0  0  0  0  0  0  0  0  0
    3.0820   69.4350   67.3000 C   0  0  0  0  0  0  0  0  0  0  0  0
    2.5940   68.9880   66.0650 C   0  0  0  0  0  0  0  0  0  0  0  0
    3.4090   69.0110   64.9150 C   0  0  0  0  0  0  0  0  0  0  0  0
    4.7220   69.4830   64.9870 C   0  0  0  0  0  0  0  0  0  0  0  0
    5.1930   69.9230   66.2120 C   0  0  0  0  0  0  0  0  0  0  0  0
    4.3820   69.8980   67.3480 C   0  0  0  0  0  0  0  0  0  0  0  0
    5.1890   70.4270   68.4540 C   0  0  0  0  0  0  0  0  0  0  0  0
    4.8710   70.5770   69.6100 O   0  0  0  0  0  0  0  0  0  0  0  0
    6.5700   70.7660   67.8330 C   0  0  0  0  0  0  0  0  0  0  0  0
    7.5280   71.2290   68.4110 O   0  0  0  0  0  0  0  0  0  0  0  0
    6.4610   70.4290   66.5030 N   0  0  0  0  0  0  0  0  0  0  0  0
    5.7100   69.5100   63.5830 Cl  0  0  0  0  0  0  0  0  0  0  0  0
    1.5620   68.6144   65.9919 H   0  0  0  0  0  0  0  0  0  0  0  0
    3.0084   68.6549   63.9544 H   0  0  0  0  0  0  0  0  0  0  0  0
    7.2171   70.5363   65.8119 H   0  0  0  0  0  0  0  0  0  0  0  0
  2  1  1  0
  3  2  2  0
  4  3  1  0
  5  4  2  0
  6  5  1  0
  7  6  2  0
  7  2  1  0
  8  7  1  0
  9  8  2  0
 10  8  1  0
 11 10  2  0
 12 10  1  0
 12  6  1  0
 13  5  1  0
  3 14  1  0
  4 15  1  0
 12 16  1  0
M  END
>  <score>  (8) 
-7.537

$$$$
=
     RDKit          3D

 16 17  0  0  0  0  0  0  0  0999 V2000
    5.2040   69.5100   64.4660 Cl  0  0  0  0  0  0  0  0  0  0  0  0
    3.7360   69.1610   65.2810 C   0  0  0  0  0  0  0  0  0  0  0  0
    2.7190   68.4840   64.5990 C   0  0  0  0  0  0  0  0  0  0  0  0
    1.4990   68.1790   65.2360 C   0  0  0  0  0  0  0  0  0  0  0  0
    1.2830   68.5510   66.5650 C   0  0  0  0  0  0  0  0  0  0  0  0
    2.2950   69.2200   67.2300 C   0  0  0  0  0  0  0  0  0  0  0  0
    3.5020   69.5180   66.5940 C   0  0  0  0  0  0  0  0  0  0  0  0
    4.3340   70.2220   67.5780 C   0  0  0  0  0  0  0  0  0  0  0  0
    5.4530   70.6560   67.4400 O   0  0  0  0  0  0  0  0  0  0  0  0
    3.4730   70.3000   68.8670 C   0  0  0  0  0  0  0  0  0  0  0  0
    3.7940   70.8070   69.9190 O   0  0  0  0  0  0  0  0  0  0  0  0
    2.2880   69.6770   68.5490 N   0  0  0  0  0  0  0  0  0  0  0  0
   -0.2050   68.1770   67.3370 Cl  0  0  0  0  0  0  0  0  0  0  0  0
    2.8736   68.1857   63.5516 H   0  0  0  0  0  0  0  0  0  0  0  0
    0.7123   67.6448   64.6831 H   0  0  0  0  0  0  0  0  0  0  0  0
    1.4980   69.5627   69.2000 H   0  0  0  0  0  0  0  0  0  0  0  0
  2  1  1  0
  3  2  2  0
  4  3  1  0
  5  4  2  0
  6  5  1  0
  7  6  2  0
  7  2  1  0
  8  7  1  0
  9  8  2  0
 10  8  1  0
 11 10  2  0
 12 10  1  0
 12  6  1  0
 13  5  1  0
  3 14  1  0
  4 15  1  0
 12 16  1  0
M  END
>  <score>  (9) 
-7.535

$$$$
