=
     RDKit          3D

 49 52  0  0  0  0  0  0  0  0999 V2000
    1.5280   69.1770   67.7660 N   0  0  1  0  0  4  0  0  0  0  0  0
    2.4200   70.1800   68.4830 C   0  0  0  0  0  0  0  0  0  0  0  0
    3.9010   69.8480   68.2620 C   0  0  1  0  0  0  0  0  0  0  0  0
    4.2360   69.8200   66.7590 C   0  0  0  0  0  0  0  0  0  0  0  0
    3.3130   68.8830   65.9590 C   0  0  1  0  0  0  0  0  0  0  0  0
    1.8070   69.2380   66.2570 C   0  0  1  0  0  0  0  0  0  0  0  0
    0.7520   68.4360   65.4240 C   0  0  0  0  0  0  0  0  0  0  0  0
    1.1150   68.5090   63.9830 C   0  0  0  0  0  0  0  0  0  0  0  0
    0.3980   68.3840   62.8170 C   0  0  0  0  0  0  0  0  0  0  0  0
    1.2830   68.5270   61.7650 N   0  0  0  0  0  0  0  0  0  0  0  0
    2.5590   68.7390   62.2420 C   0  0  0  0  0  0  0  0  0  0  0  0
    2.4610   68.7340   63.6190 C   0  0  0  0  0  0  0  0  0  0  0  0
    3.5660   68.9320   64.4620 C   0  0  0  0  0  0  0  0  0  0  0  0
    4.8060   69.0940   63.8290 C   0  0  0  0  0  0  0  0  0  0  0  0
    4.9050   69.0980   62.4290 C   0  0  0  0  0  0  0  0  0  0  0  0
    3.7840   68.9270   61.6020 C   0  0  0  0  0  0  0  0  0  0  0  0
    1.5170   67.7800   68.3700 C   0  0  0  0  0  0  0  0  0  0  0  0
    0.0190   66.2540   69.6900 C   0  0  0  0  0  0  0  0  0  0  0  0
    0.0950   67.2550   68.5460 C   0  0  0  0  0  0  0  0  0  0  0  0
    4.8250   70.8570   68.9720 C   0  0  0  0  0  0  0  0  0  0  0  0
    6.4060   71.0350   68.0890 S   0  0  0  0  0  0  0  0  0  0  0  0
    7.5330   70.9090   69.5030 C   0  0  0  0  0  0  0  0  0  0  0  0
    0.5484   69.4591   67.9135 H   0  0  0  0  0  0  0  0  0  0  0  0
    2.2145   71.1881   68.0937 H   0  0  0  0  0  0  0  0  0  0  0  0
    2.2058   70.1346   69.5610 H   0  0  0  0  0  0  0  0  0  0  0  0
    4.0746   68.8520   68.6955 H   0  0  0  0  0  0  0  0  0  0  0  0
    4.1354   70.8392   66.3575 H   0  0  0  0  0  0  0  0  0  0  0  0
    5.2631   69.4401   66.6558 H   0  0  0  0  0  0  0  0  0  0  0  0
    3.5376   67.8572   66.2867 H   0  0  0  0  0  0  0  0  0  0  0  0
    1.6737   70.2730   65.9092 H   0  0  0  0  0  0  0  0  0  0  0  0
    0.7462   67.3854   65.7500 H   0  0  0  0  0  0  0  0  0  0  0  0
   -0.2482   68.8674   65.5774 H   0  0  0  0  0  0  0  0  0  0  0  0
   -0.6840   68.2030   62.7358 H   0  0  0  0  0  0  0  0  0  0  0  0
    1.0263   68.4817   60.7685 H   0  0  0  0  0  0  0  0  0  0  0  0
    5.7137   69.2197   64.4376 H   0  0  0  0  0  0  0  0  0  0  0  0
    5.8924   69.2396   61.9653 H   0  0  0  0  0  0  0  0  0  0  0  0
    3.8672   68.9405   60.5052 H   0  0  0  0  0  0  0  0  0  0  0  0
    2.0690   67.0994   67.7052 H   0  0  0  0  0  0  0  0  0  0  0  0
    1.9903   67.8303   69.3617 H   0  0  0  0  0  0  0  0  0  0  0  0
    0.0597   66.7901   70.6496 H   0  0  0  0  0  0  0  0  0  0  0  0
   -0.9244   65.6922   69.6236 H   0  0  0  0  0  0  0  0  0  0  0  0
    0.8668   65.5562   69.6236 H   0  0  0  0  0  0  0  0  0  0  0  0
   -0.2240   66.7624   67.6156 H   0  0  0  0  0  0  0  0  0  0  0  0
   -0.5647   68.1037   68.7795 H   0  0  0  0  0  0  0  0  0  0  0  0
    4.3242   71.8356   69.0122 H   0  0  0  0  0  0  0  0  0  0  0  0
    5.0323   70.4857   69.9865 H   0  0  0  0  0  0  0  0  0  0  0  0
    6.9569   70.9734   70.4379 H   0  0  0  0  0  0  0  0  0  0  0  0
    8.0632   69.9460   69.4646 H   0  0  0  0  0  0  0  0  0  0  0  0
    8.2628   71.7311   69.4646 H   0  0  0  0  0  0  0  0  0  0  0  0
  2  1  1  0
  3  2  1  0
  4  3  1  0
  5  4  1  0
  6  5  1  0
  6  1  1  0
  7  6  1  0
  8  7  1  0
  9  8  2  0
 10  9  1  0
 11 10  1  0
 12 11  2  0
 12  8  1  0
 13 12  1  0
 13  5  1  0
 14 13  2  0
 15 14  1  0
 16 15  2  0
 16 11  1  0
 17  1  1  0
 19 18  1  0
 19 17  1  0
 20  3  1  0
 21 20  1  0
 22 21  1  0
  1 23  1  6
  2 24  1  0
  2 25  1  0
  3 26  1  1
  4 27  1  0
  4 28  1  0
  5 29  1  1
  6 30  1  6
  7 31  1  0
  7 32  1  0
  9 33  1  0
 10 34  1  0
 14 35  1  0
 15 36  1  0
 16 37  1  0
 17 38  1  0
 17 39  1  0
 18 40  1  0
 18 41  1  0
 18 42  1  0
 19 43  1  0
 19 44  1  0
 20 45  1  0
 20 46  1  0
 22 47  1  0
 22 48  1  0
 22 49  1  0
M  CHG  1   1   1
M  END
>  <score>  (1) 
-9.966

$$$$
=
     RDKit          3D

 49 52  0  0  0  0  0  0  0  0999 V2000
    1.3250   67.7590   65.6140 N   0  0  1  0  0  4  0  0  0  0  0  0
    1.9470   66.6440   64.7870 C   0  0  0  0  0  0  0  0  0  0  0  0
    3.0400   67.1950   63.8620 C   0  0  1  0  0  0  0  0  0  0  0  0
    4.1270   67.9230   64.6760 C   0  0  0  0  0  0  0  0  0  0  0  0
    3.5530   69.0140   65.5980 C   0  0  1  0  0  0  0  0  0  0  0  0
    2.4070   68.4050   66.4920 C   0  0  1  0  0  0  0  0  0  0  0  0
    1.8030   69.3750   67.5610 C   0  0  0  0  0  0  0  0  0  0  0  0
    2.9130   69.9890   68.3400 C   0  0  0  0  0  0  0  0  0  0  0  0
    2.9980   70.5410   69.5960 C   0  0  0  0  0  0  0  0  0  0  0  0
    4.2980   70.9760   69.7730 N   0  0  0  0  0  0  0  0  0  0  0  0
    5.0470   70.7120   68.6460 C   0  0  0  0  0  0  0  0  0  0  0  0
    4.1940   70.0940   67.7540 C   0  0  0  0  0  0  0  0  0  0  0  0
    4.6040   69.6620   66.4820 C   0  0  0  0  0  0  0  0  0  0  0  0
    5.9350   69.9310   66.1370 C   0  0  0  0  0  0  0  0  0  0  0  0
    6.8020   70.5590   67.0440 C   0  0  0  0  0  0  0  0  0  0  0  0
    6.3810   70.9590   68.3220 C   0  0  0  0  0  0  0  0  0  0  0  0
    0.4570   68.7330   64.8290 C   0  0  0  0  0  0  0  0  0  0  0  0
   -1.1390   67.8250   66.5450 C   0  0  0  0  0  0  0  0  0  0  0  0
   -0.9810   68.7440   65.3420 C   0  0  0  0  0  0  0  0  0  0  0  0
    3.6930   66.0800   63.0210 C   0  0  0  0  0  0  0  0  0  0  0  0
    4.8420   65.0880   64.0240 S   0  0  0  0  0  0  0  0  0  0  0  0
    3.7090   63.7640   64.5200 C   0  0  0  0  0  0  0  0  0  0  0  0
    0.6255   67.3376   66.2417 H   0  0  0  0  0  0  0  0  0  0  0  0
    2.3895   65.8976   65.4631 H   0  0  0  0  0  0  0  0  0  0  0  0
    1.1618   66.1839   64.1691 H   0  0  0  0  0  0  0  0  0  0  0  0
    2.5538   67.9067   63.1785 H   0  0  0  0  0  0  0  0  0  0  0  0
    4.6570   67.1836   65.2944 H   0  0  0  0  0  0  0  0  0  0  0  0
    4.8015   68.4159   63.9604 H   0  0  0  0  0  0  0  0  0  0  0  0
    3.1533   69.8050   64.9465 H   0  0  0  0  0  0  0  0  0  0  0  0
    2.8906   67.6253   67.0987 H   0  0  0  0  0  0  0  0  0  0  0  0
    1.2247   70.1641   67.0581 H   0  0  0  0  0  0  0  0  0  0  0  0
    1.1391   68.8163   68.2370 H   0  0  0  0  0  0  0  0  0  0  0  0
    2.1802   70.6218   70.3272 H   0  0  0  0  0  0  0  0  0  0  0  0
    4.6558   71.4319   70.6245 H   0  0  0  0  0  0  0  0  0  0  0  0
    6.3054   69.6459   65.1413 H   0  0  0  0  0  0  0  0  0  0  0  0
    7.8441   70.7437   66.7442 H   0  0  0  0  0  0  0  0  0  0  0  0
    7.0682   71.4426   69.0318 H   0  0  0  0  0  0  0  0  0  0  0  0
    0.8783   69.7445   64.9259 H   0  0  0  0  0  0  0  0  0  0  0  0
    0.4444   68.4116   63.7771 H   0  0  0  0  0  0  0  0  0  0  0  0
   -1.0382   68.4114   67.4702 H   0  0  0  0  0  0  0  0  0  0  0  0
   -2.1317   67.3519   66.5171 H   0  0  0  0  0  0  0  0  0  0  0  0
   -0.3613   67.0475   66.5171 H   0  0  0  0  0  0  0  0  0  0  0  0
   -1.6517   68.4039   64.5392 H   0  0  0  0  0  0  0  0  0  0  0  0
   -1.2353   69.7692   65.6489 H   0  0  0  0  0  0  0  0  0  0  0  0
    2.9057   65.4233   62.6223 H   0  0  0  0  0  0  0  0  0  0  0  0
    4.2593   66.5473   62.2019 H   0  0  0  0  0  0  0  0  0  0  0  0
    3.6643   63.7118   65.6178 H   0  0  0  0  0  0  0  0  0  0  0  0
    2.7050   63.9722   64.1216 H   0  0  0  0  0  0  0  0  0  0  0  0
    4.0698   62.8042   64.1216 H   0  0  0  0  0  0  0  0  0  0  0  0
  2  1  1  0
  3  2  1  0
  4  3  1  0
  5  4  1  0
  6  5  1  0
  6  1  1  0
  7  6  1  0
  8  7  1  0
  9  8  2  0
 10  9  1  0
 11 10  1  0
 12 11  2  0
 12  8  1  0
 13 12  1  0
 13  5  1  0
 14 13  2  0
 15 14  1  0
 16 15  2  0
 16 11  1  0
 17  1  1  0
 19 18  1  0
 19 17  1  0
 20  3  1  0
 21 20  1  0
 22 21  1  0
  1 23  1  1
  2 24  1  0
  2 25  1  0
  3 26  1  6
  4 27  1  0
  4 28  1  0
  5 29  1  6
  6 30  1  1
  7 31  1  0
  7 32  1  0
  9 33  1  0
 10 34  1  0
 14 35  1  0
 15 36  1  0
 16 37  1  0
 17 38  1  0
 17 39  1  0
 18 40  1  0
 18 41  1  0
 18 42  1  0
 19 43  1  0
 19 44  1  0
 20 45  1  0
 20 46  1  0
 22 47  1  0
 22 48  1  0
 22 49  1  0
M  CHG  1   1   1
M  END
>  <score>  (2) 
-9.573

$$$$
=
     RDKit          3D

 49 52  0  0  0  0  0  0  0  0999 V2000
    2.9680   68.3420   63.7720 N   0  0  1  0  0  4  0  0  0  0  0  0
    1.5010   68.7100   63.6050 C   0  0  0  0  0  0  0  0  0  0  0  0
    0.7040   68.3620   64.8690 C   0  0  1  0  0  0  0  0  0  0  0  0
    1.2940   69.0760   66.1000 C   0  0  0  0  0  0  0  0  0  0  0  0
    2.7990   68.8090   66.2800 C   0  0  1  0  0  0  0  0  0  0  0  0
    3.5620   69.1400   64.9420 C   0  0  1  0  0  0  0  0  0  0  0  0
    5.1210   69.0210   65.0120 C   0  0  0  0  0  0  0  0  0  0  0  0
    5.6130   69.7840   66.1900 C   0  0  0  0  0  0  0  0  0  0  0  0
    6.8160   70.3700   66.5070 C   0  0  0  0  0  0  0  0  0  0  0  0
    6.6910   70.9270   67.7660 N   0  0  0  0  0  0  0  0  0  0  0  0
    5.4250   70.7030   68.2620 C   0  0  0  0  0  0  0  0  0  0  0  0
    4.7480   69.9990   67.2860 C   0  0  0  0  0  0  0  0  0  0  0  0
    3.4110   69.5940   67.4280 C   0  0  0  0  0  0  0  0  0  0  0  0
    2.7950   69.9070   68.6470 C   0  0  0  0  0  0  0  0  0  0  0  0
    3.4840   70.6230   69.6390 C   0  0  0  0  0  0  0  0  0  0  0  0
    4.8120   71.0440   69.4680 C   0  0  0  0  0  0  0  0  0  0  0  0
    3.2560   66.8470   63.7910 C   0  0  0  0  0  0  0  0  0  0  0  0
    4.3750   67.5120   61.6410 C   0  0  0  0  0  0  0  0  0  0  0  0
    4.2940   66.4620   62.7390 C   0  0  0  0  0  0  0  0  0  0  0  0
   -0.7850   68.7360   64.7260 C   0  0  0  0  0  0  0  0  0  0  0  0
   -1.6150   68.7560   66.3460 S   0  0  0  0  0  0  0  0  0  0  0  0
   -3.3360   68.7670   65.7780 C   0  0  0  0  0  0  0  0  0  0  0  0
    3.4674   68.6256   62.9170 H   0  0  0  0  0  0  0  0  0  0  0  0
    1.4198   69.7902   63.4136 H   0  0  0  0  0  0  0  0  0  0  0  0
    1.0885   68.1390   62.7601 H   0  0  0  0  0  0  0  0  0  0  0  0
    0.7778   67.2731   65.0062 H   0  0  0  0  0  0  0  0  0  0  0  0
    1.1405   70.1592   65.9851 H   0  0  0  0  0  0  0  0  0  0  0  0
    0.7793   68.6829   66.9891 H   0  0  0  0  0  0  0  0  0  0  0  0
    2.9065   67.7431   66.5295 H   0  0  0  0  0  0  0  0  0  0  0  0
    3.3955   70.2130   64.7660 H   0  0  0  0  0  0  0  0  0  0  0  0
    5.4059   67.9633   65.1126 H   0  0  0  0  0  0  0  0  0  0  0  0
    5.5663   69.4292   64.0927 H   0  0  0  0  0  0  0  0  0  0  0  0
    7.7150   70.3916   65.8735 H   0  0  0  0  0  0  0  0  0  0  0  0
    7.4366   71.4360   68.2618 H   0  0  0  0  0  0  0  0  0  0  0  0
    1.7583   69.5877   68.8291 H   0  0  0  0  0  0  0  0  0  0  0  0
    2.9666   70.8616   70.5800 H   0  0  0  0  0  0  0  0  0  0  0  0
    5.3424   71.6137   70.2452 H   0  0  0  0  0  0  0  0  0  0  0  0
    3.6352   66.5689   64.7854 H   0  0  0  0  0  0  0  0  0  0  0  0
    2.3213   66.3132   63.5642 H   0  0  0  0  0  0  0  0  0  0  0  0
    4.4521   68.5113   62.0943 H   0  0  0  0  0  0  0  0  0  0  0  0
    5.2612   67.3228   61.0174 H   0  0  0  0  0  0  0  0  0  0  0  0
    3.4703   67.4610   61.0174 H   0  0  0  0  0  0  0  0  0  0  0  0
    4.0128   65.4966   62.2931 H   0  0  0  0  0  0  0  0  0  0  0  0
    5.2770   66.3900   63.2274 H   0  0  0  0  0  0  0  0  0  0  0  0
   -0.8624   69.7342   64.2705 H   0  0  0  0  0  0  0  0  0  0  0  0
   -1.2749   67.9823   64.0920 H   0  0  0  0  0  0  0  0  0  0  0  0
   -4.0092   68.7713   66.6479 H   0  0  0  0  0  0  0  0  0  0  0  0
   -3.5159   69.6663   65.1707 H   0  0  0  0  0  0  0  0  0  0  0  0
   -3.5274   67.8701   65.1707 H   0  0  0  0  0  0  0  0  0  0  0  0
  2  1  1  0
  3  2  1  0
  4  3  1  0
  5  4  1  0
  6  5  1  0
  6  1  1  0
  7  6  1  0
  8  7  1  0
  9  8  2  0
 10  9  1  0
 11 10  1  0
 12 11  2  0
 12  8  1  0
 13 12  1  0
 13  5  1  0
 14 13  2  0
 15 14  1  0
 16 15  2  0
 16 11  1  0
 17  1  1  0
 19 18  1  0
 19 17  1  0
 20  3  1  0
 21 20  1  0
 22 21  1  0
  1 23  1  6
  2 24  1  0
  2 25  1  0
  3 26  1  1
  4 27  1  0
  4 28  1  0
  5 29  1  1
  6 30  1  6
  7 31  1  0
  7 32  1  0
  9 33  1  0
 10 34  1  0
 14 35  1  0
 15 36  1  0
 16 37  1  0
 17 38  1  0
 17 39  1  0
 18 40  1  0
 18 41  1  0
 18 42  1  0
 19 43  1  0
 19 44  1  0
 20 45  1  0
 20 46  1  0
 22 47  1  0
 22 48  1  0
 22 49  1  0
M  CHG  1   1   1
M  END
>  <score>  (3) 
-9.563

$$$$
=
     RDKit          3D

 49 52  0  0  0  0  0  0  0  0999 V2000
    1.7330   69.2010   68.6000 N   0  0  1  0  0  4  0  0  0  0  0  0
    3.0190   70.0140   68.6370 C   0  0  0  0  0  0  0  0  0  0  0  0
    4.0450   69.4590   67.6410 C   0  0  1  0  0  0  0  0  0  0  0  0
    3.4660   69.4440   66.2130 C   0  0  0  0  0  0  0  0  0  0  0  0
    2.1200   68.7040   66.1220 C   0  0  1  0  0  0  0  0  0  0  0  0
    1.1210   69.2830   67.1940 C   0  0  1  0  0  0  0  0  0  0  0  0
   -0.3300   68.7000   67.1430 C   0  0  0  0  0  0  0  0  0  0  0  0
   -0.8350   68.7770   65.7450 C   0  0  0  0  0  0  0  0  0  0  0  0
   -2.0920   68.8220   65.1920 C   0  0  0  0  0  0  0  0  0  0  0  0
   -1.9430   68.8670   63.8180 N   0  0  0  0  0  0  0  0  0  0  0  0
   -0.6060   68.8490   63.4840 C   0  0  0  0  0  0  0  0  0  0  0  0
    0.0880   68.7990   64.6760 C   0  0  0  0  0  0  0  0  0  0  0  0
    1.4910   68.7790   64.7410 C   0  0  0  0  0  0  0  0  0  0  0  0
    2.1670   68.7670   63.5140 C   0  0  0  0  0  0  0  0  0  0  0  0
    1.4610   68.8180   62.3020 C   0  0  0  0  0  0  0  0  0  0  0  0
    0.0580   68.8670   62.2570 C   0  0  0  0  0  0  0  0  0  0  0  0
    1.8440   67.7980   69.1800 C   0  0  0  0  0  0  0  0  0  0  0  0
    0.3800   66.0540   70.2430 C   0  0  0  0  0  0  0  0  0  0  0  0
    0.5150   67.0510   69.1020 C   0  0  0  0  0  0  0  0  0  0  0  0
    5.3540   70.2730   67.6530 C   0  0  0  0  0  0  0  0  0  0  0  0
    5.7000   70.9340   69.3130 S   0  0  0  0  0  0  0  0  0  0  0  0
    7.5120   70.9120   69.2500 C   0  0  0  0  0  0  0  0  0  0  0  0
    1.0652   69.6305   69.2561 H   0  0  0  0  0  0  0  0  0  0  0  0
    2.7926   71.0585   68.3767 H   0  0  0  0  0  0  0  0  0  0  0  0
    3.4439   69.9545   69.6499 H   0  0  0  0  0  0  0  0  0  0  0  0
    4.2735   68.4302   67.9561 H   0  0  0  0  0  0  0  0  0  0  0  0
    3.3187   70.4829   65.8827 H   0  0  0  0  0  0  0  0  0  0  0  0
    4.1817   68.9089   65.5715 H   0  0  0  0  0  0  0  0  0  0  0  0
    2.3250   67.6420   66.3224 H   0  0  0  0  0  0  0  0  0  0  0  0
    0.9809   70.3401   66.9241 H   0  0  0  0  0  0  0  0  0  0  0  0
   -0.3176   67.6508   67.4733 H   0  0  0  0  0  0  0  0  0  0  0  0
   -0.9869   69.2803   67.8076 H   0  0  0  0  0  0  0  0  0  0  0  0
   -3.0443   68.8222   65.7425 H   0  0  0  0  0  0  0  0  0  0  0  0
   -2.7190   68.9080   63.1419 H   0  0  0  0  0  0  0  0  0  0  0  0
    3.2658   68.7169   63.5003 H   0  0  0  0  0  0  0  0  0  0  0  0
    2.0244   68.8196   61.3572 H   0  0  0  0  0  0  0  0  0  0  0  0
   -0.4889   68.9170   61.3039 H   0  0  0  0  0  0  0  0  0  0  0  0
    2.6026   67.2369   68.6145 H   0  0  0  0  0  0  0  0  0  0  0  0
    2.1282   67.8850   70.2391 H   0  0  0  0  0  0  0  0  0  0  0  0
    0.4518   66.5845   71.2039 H   0  0  0  0  0  0  0  0  0  0  0  0
   -0.5948   65.5488   70.1751 H   0  0  0  0  0  0  0  0  0  0  0  0
    1.1853   65.3078   70.1751 H   0  0  0  0  0  0  0  0  0  0  0  0
    0.4618   66.5113   68.1450 H   0  0  0  0  0  0  0  0  0  0  0  0
   -0.3025   67.7830   69.1788 H   0  0  0  0  0  0  0  0  0  0  0  0
    6.1851   69.6212   67.3455 H   0  0  0  0  0  0  0  0  0  0  0  0
    5.2464   71.1175   66.9563 H   0  0  0  0  0  0  0  0  0  0  0  0
    7.9144   70.9071   70.2737 H   0  0  0  0  0  0  0  0  0  0  0  0
    7.8495   70.0097   68.7190 H   0  0  0  0  0  0  0  0  0  0  0  0
    7.8713   71.8058   68.7190 H   0  0  0  0  0  0  0  0  0  0  0  0
  2  1  1  0
  3  2  1  0
  4  3  1  0
  5  4  1  0
  6  5  1  0
  6  1  1  0
  7  6  1  0
  8  7  1  0
  9  8  2  0
 10  9  1  0
 11 10  1  0
 12 11  2  0
 12  8  1  0
 13 12  1  0
 13  5  1  0
 14 13  2  0
 15 14  1  0
 16 15  2  0
 16 11  1  0
 17  1  1  0
 19 18  1  0
 19 17  1  0
 20  3  1  0
 21 20  1  0
 22 21  1  0
  1 23  1  1
  2 24  1  0
  2 25  1  0
  3 26  1  1
  4 27  1  0
  4 28  1  0
  5 29  1  1
  6 30  1  6
  7 31  1  0
  7 32  1  0
  9 33  1  0
 10 34  1  0
 14 35  1  0
 15 36  1  0
 16 37  1  0
 17 38  1  0
 17 39  1  0
 18 40  1  0
 18 41  1  0
 18 42  1  0
 19 43  1  0
 19 44  1  0
 20 45  1  0
 20 46  1  0
 22 47  1  0
 22 48  1  0
 22 49  1  0
M  CHG  1   1   1
M  END
>  <score>  (4) 
-8.511

$$$$
=
     RDKit          3D

 49 52  0  0  0  0  0  0  0  0999 V2000
    2.6300   61.9930   71.4300 N   0  0  1  0  0  4  0  0  0  0  0  0
    2.2930   63.4730   71.5380 C   0  0  0  0  0  0  0  0  0  0  0  0
    0.8130   63.7200   71.2200 C   0  0  1  0  0  0  0  0  0  0  0  0
   -0.0910   62.8990   72.1590 C   0  0  0  0  0  0  0  0  0  0  0  0
    0.2520   61.4000   72.1580 C   0  0  1  0  0  0  0  0  0  0  0  0
    1.7890   61.2060   72.4450 C   0  0  1  0  0  0  0  0  0  0  0  0
    2.2640   59.7210   72.5850 C   0  0  0  0  0  0  0  0  0  0  0  0
    1.3770   59.0170   73.5510 C   0  0  0  0  0  0  0  0  0  0  0  0
    1.5360   57.9130   74.3540 C   0  0  0  0  0  0  0  0  0  0  0  0
    0.3470   57.7130   75.0290 N   0  0  0  0  0  0  0  0  0  0  0  0
   -0.5740   58.6740   74.6670 C   0  0  0  0  0  0  0  0  0  0  0  0
    0.0620   59.4900   73.7540 C   0  0  0  0  0  0  0  0  0  0  0  0
   -0.5620   60.6010   73.1610 C   0  0  0  0  0  0  0  0  0  0  0  0
   -1.9000   60.8200   73.5150 C   0  0  0  0  0  0  0  0  0  0  0  0
   -2.5460   59.9900   74.4440 C   0  0  0  0  0  0  0  0  0  0  0  0
   -1.8970   58.9010   75.0470 C   0  0  0  0  0  0  0  0  0  0  0  0
    2.6290   61.4370   70.0130 C   0  0  0  0  0  0  0  0  0  0  0  0
    5.0060   61.0580   70.7360 C   0  0  0  0  0  0  0  0  0  0  0  0
    4.0330   61.0330   69.5670 C   0  0  0  0  0  0  0  0  0  0  0  0
    0.4460   65.2130   71.3330 C   0  0  0  0  0  0  0  0  0  0  0  0
    1.1450   66.1680   69.9510 S   0  0  0  0  0  0  0  0  0  0  0  0
   -0.3880   66.5210   69.0500 C   0  0  0  0  0  0  0  0  0  0  0  0
    3.6203   61.8712   71.6857 H   0  0  0  0  0  0  0  0  0  0  0  0
    2.5042   63.8171   72.5612 H   0  0  0  0  0  0  0  0  0  0  0  0
    2.9065   64.0278   70.8128 H   0  0  0  0  0  0  0  0  0  0  0  0
    0.6495   63.3995   70.1805 H   0  0  0  0  0  0  0  0  0  0  0  0
    0.0234   63.2848   73.1827 H   0  0  0  0  0  0  0  0  0  0  0  0
   -1.1245   63.0020   71.7966 H   0  0  0  0  0  0  0  0  0  0  0  0
   -0.0043   61.0146   71.1601 H   0  0  0  0  0  0  0  0  0  0  0  0
    1.9546   61.6229   73.4494 H   0  0  0  0  0  0  0  0  0  0  0  0
    2.2112   59.2231   71.6056 H   0  0  0  0  0  0  0  0  0  0  0  0
    3.3022   59.6957   72.9476 H   0  0  0  0  0  0  0  0  0  0  0  0
    2.4449   57.2998   74.4432 H   0  0  0  0  0  0  0  0  0  0  0  0
    0.1734   56.9555   75.7050 H   0  0  0  0  0  0  0  0  0  0  0  0
   -2.4520   61.6546   73.0581 H   0  0  0  0  0  0  0  0  0  0  0  0
   -3.5932   60.1992   74.7079 H   0  0  0  0  0  0  0  0  0  0  0  0
   -2.4057   58.2594   75.7816 H   0  0  0  0  0  0  0  0  0  0  0  0
    1.9747   60.5535   69.9766 H   0  0  0  0  0  0  0  0  0  0  0  0
    2.2653   62.2231   69.3350 H   0  0  0  0  0  0  0  0  0  0  0  0
    4.4438   61.0436   71.6814 H   0  0  0  0  0  0  0  0  0  0  0  0
    5.6620   60.1764   70.6860 H   0  0  0  0  0  0  0  0  0  0  0  0
    5.6158   61.9721   70.6860 H   0  0  0  0  0  0  0  0  0  0  0  0
    4.3808   61.7349   68.7947 H   0  0  0  0  0  0  0  0  0  0  0  0
    3.9921   60.0089   69.1676 H   0  0  0  0  0  0  0  0  0  0  0  0
   -0.6492   65.3152   71.3222 H   0  0  0  0  0  0  0  0  0  0  0  0
    0.8625   65.6042   72.2729 H   0  0  0  0  0  0  0  0  0  0  0  0
   -1.2003   66.7081   69.7677 H   0  0  0  0  0  0  0  0  0  0  0  0
   -0.2454   67.4098   68.4178 H   0  0  0  0  0  0  0  0  0  0  0  0
   -0.6485   65.6593   68.4178 H   0  0  0  0  0  0  0  0  0  0  0  0
  2  1  1  0
  3  2  1  0
  4  3  1  0
  5  4  1  0
  6  5  1  0
  6  1  1  0
  7  6  1  0
  8  7  1  0
  9  8  2  0
 10  9  1  0
 11 10  1  0
 12 11  2  0
 12  8  1  0
 13 12  1  0
 13  5  1  0
 14 13  2  0
 15 14  1  0
 16 15  2  0
 16 11  1  0
 17  1  1  0
 19 18  1  0
 19 17  1  0
 20  3  1  0
 21 20  1  0
 22 21  1  0
  1 23  1  1
  2 24  1  0
  2 25  1  0
  3 26  1  6
  4 27  1  0
  4 28  1  0
  5 29  1  6
  6 30  1  1
  7 31  1  0
  7 32  1  0
  9 33  1  0
 10 34  1  0
 14 35  1  0
 15 36  1  0
 16 37  1  0
 17 38  1  0
 17 39  1  0
 18 40  1  0
 18 41  1  0
 18 42  1  0
 19 43  1  0
 19 44  1  0
 20 45  1  0
 20 46  1  0
 22 47  1  0
 22 48  1  0
 22 49  1  0
M  CHG  1   1   1
M  END
>  <score>  (5) 
-7.463

$$$$
=
     RDKit          3D

 49 52  0  0  0  0  0  0  0  0999 V2000
   -0.0350   60.7920   74.1680 N   0  0  1  0  0  4  0  0  0  0  0  0
    0.8510   59.8600   74.9820 C   0  0  0  0  0  0  0  0  0  0  0  0
    1.4940   58.7960   74.0840 C   0  0  1  0  0  0  0  0  0  0  0  0
    2.3100   59.4550   72.9550 C   0  0  0  0  0  0  0  0  0  0  0  0
    1.4910   60.4730   72.1420 C   0  0  1  0  0  0  0  0  0  0  0  0
    0.8180   61.5130   73.1150 C   0  0  1  0  0  0  0  0  0  0  0  0
    0.0410   62.6790   72.4170 C   0  0  0  0  0  0  0  0  0  0  0  0
    0.9180   63.2980   71.3870 C   0  0  0  0  0  0  0  0  0  0  0  0
    0.9580   64.5380   70.7960 C   0  0  0  0  0  0  0  0  0  0  0  0
    1.9920   64.5310   69.8790 N   0  0  0  0  0  0  0  0  0  0  0  0
    2.6150   63.3010   69.8730 C   0  0  0  0  0  0  0  0  0  0  0  0
    1.9560   62.5320   70.8110 C   0  0  0  0  0  0  0  0  0  0  0  0
    2.3170   61.2050   71.0980 C   0  0  0  0  0  0  0  0  0  0  0  0
    3.3700   60.6740   70.3430 C   0  0  0  0  0  0  0  0  0  0  0  0
    4.0400   61.4560   69.3890 C   0  0  0  0  0  0  0  0  0  0  0  0
    3.6830   62.7900   69.1360 C   0  0  0  0  0  0  0  0  0  0  0  0
   -1.3190   60.1620   73.6450 C   0  0  0  0  0  0  0  0  0  0  0  0
   -3.5530   59.9060   74.7680 C   0  0  0  0  0  0  0  0  0  0  0  0
   -2.5560   60.8880   74.1700 C   0  0  0  0  0  0  0  0  0  0  0  0
    2.4060   57.8460   74.8860 C   0  0  0  0  0  0  0  0  0  0  0  0
    1.8170   56.1280   74.7810 S   0  0  0  0  0  0  0  0  0  0  0  0
    0.3950   56.3850   73.6870 C   0  0  0  0  0  0  0  0  0  0  0  0
   -0.4141   61.5078   74.8043 H   0  0  0  0  0  0  0  0  0  0  0  0
    1.6434   60.4486   75.4675 H   0  0  0  0  0  0  0  0  0  0  0  0
    0.2309   59.3552   75.7374 H   0  0  0  0  0  0  0  0  0  0  0  0
    0.6744   58.2058   73.6483 H   0  0  0  0  0  0  0  0  0  0  0  0
    3.1717   59.9733   73.4009 H   0  0  0  0  0  0  0  0  0  0  0  0
    2.6248   58.6577   72.2656 H   0  0  0  0  0  0  0  0  0  0  0  0
    0.7226   59.9037   71.5985 H   0  0  0  0  0  0  0  0  0  0  0  0
    1.6507   62.0262   73.6182 H   0  0  0  0  0  0  0  0  0  0  0  0
   -0.8667   62.2826   71.9384 H   0  0  0  0  0  0  0  0  0  0  0  0
   -0.2447   63.4343   73.1639 H   0  0  0  0  0  0  0  0  0  0  0  0
    0.2883   65.3831   71.0134 H   0  0  0  0  0  0  0  0  0  0  0  0
    2.2587   65.3295   69.2856 H   0  0  0  0  0  0  0  0  0  0  0  0
    3.6765   59.6293   70.4997 H   0  0  0  0  0  0  0  0  0  0  0  0
    4.8704   61.0098   68.8221 H   0  0  0  0  0  0  0  0  0  0  0  0
    4.2184   63.4010   68.3943 H   0  0  0  0  0  0  0  0  0  0  0  0
   -1.3175   60.2084   72.5460 H   0  0  0  0  0  0  0  0  0  0  0  0
   -1.3578   59.1196   73.9942 H   0  0  0  0  0  0  0  0  0  0  0  0
   -3.5029   59.9554   75.8657 H   0  0  0  0  0  0  0  0  0  0  0  0
   -4.5686   60.1663   74.4352 H   0  0  0  0  0  0  0  0  0  0  0  0
   -3.3081   58.8865   74.4352 H   0  0  0  0  0  0  0  0  0  0  0  0
   -3.0360   61.4270   73.3399 H   0  0  0  0  0  0  0  0  0  0  0  0
   -2.2423   61.5907   74.9560 H   0  0  0  0  0  0  0  0  0  0  0  0
    3.4271   57.9010   74.4806 H   0  0  0  0  0  0  0  0  0  0  0  0
    2.3915   58.1562   75.9413 H   0  0  0  0  0  0  0  0  0  0  0  0
   -0.5087   56.5483   74.2925 H   0  0  0  0  0  0  0  0  0  0  0  0
    0.5751   57.2652   73.0522 H   0  0  0  0  0  0  0  0  0  0  0  0
    0.2556   55.4975   73.0522 H   0  0  0  0  0  0  0  0  0  0  0  0
  2  1  1  0
  3  2  1  0
  4  3  1  0
  5  4  1  0
  6  5  1  0
  6  1  1  0
  7  6  1  0
  8  7  1  0
  9  8  2  0
 10  9  1  0
 11 10  1  0
 12 11  2  0
 12  8  1  0
 13 12  1  0
 13  5  1  0
 14 13  2  0
 15 14  1  0
 16 15  2  0
 16 11  1  0
 17  1  1  0
 19 18  1  0
 19 17  1  0
 20  3  1  0
 21 20  1  0
 22 21  1  0
  1 23  1  1
  2 24  1  0
  2 25  1  0
  3 26  1  6
  4 27  1  0
  4 28  1  0
  5 29  1  6
  6 30  1  1
  7 31  1  0
  7 32  1  0
  9 33  1  0
 10 34  1  0
 14 35  1  0
 15 36  1  0
 16 37  1  0
 17 38  1  0
 17 39  1  0
 18 40  1  0
 18 41  1  0
 18 42  1  0
 19 43  1  0
 19 44  1  0
 20 45  1  0
 20 46  1  0
 22 47  1  0
 22 48  1  0
 22 49  1  0
M  CHG  1   1   1
M  END
>  <score>  (6) 
-7.401

$$$$
=
     RDKit          3D

 49 52  0  0  0  0  0  0  0  0999 V2000
    3.2860   58.3460   73.8540 N   0  0  1  0  0  4  0  0  0  0  0  0
    2.0360   57.4920   73.7000 C   0  0  0  0  0  0  0  0  0  0  0  0
    0.7790   58.2950   74.0600 C   0  0  1  0  0  0  0  0  0  0  0  0
    0.6710   59.5600   73.1870 C   0  0  0  0  0  0  0  0  0  0  0  0
    1.9400   60.4290   73.2360 C   0  0  1  0  0  0  0  0  0  0  0  0
    3.2020   59.5470   72.9020 C   0  0  1  0  0  0  0  0  0  0  0  0
    4.5570   60.3250   72.8050 C   0  0  0  0  0  0  0  0  0  0  0  0
    4.3820   61.4920   71.9000 C   0  0  0  0  0  0  0  0  0  0  0  0
    5.2480   62.2390   71.1370 C   0  0  0  0  0  0  0  0  0  0  0  0
    4.5090   63.2270   70.5120 N   0  0  0  0  0  0  0  0  0  0  0  0
    3.1810   63.1250   70.8680 C   0  0  0  0  0  0  0  0  0  0  0  0
    3.0940   62.0460   71.7260 C   0  0  0  0  0  0  0  0  0  0  0  0
    1.8830   61.6210   72.2950 C   0  0  0  0  0  0  0  0  0  0  0  0
    0.7500   62.3830   71.9810 C   0  0  0  0  0  0  0  0  0  0  0  0
    0.8390   63.4800   71.1090 C   0  0  0  0  0  0  0  0  0  0  0  0
    2.0540   63.8730   70.5270 C   0  0  0  0  0  0  0  0  0  0  0  0
    3.6610   58.6800   75.2920 C   0  0  0  0  0  0  0  0  0  0  0  0
    5.0080   56.8700   76.3990 C   0  0  0  0  0  0  0  0  0  0  0  0
    3.6140   57.4430   76.1870 C   0  0  0  0  0  0  0  0  0  0  0  0
   -0.5020   57.4530   73.9010 C   0  0  0  0  0  0  0  0  0  0  0  0
   -0.1310   55.6730   73.9620 S   0  0  0  0  0  0  0  0  0  0  0  0
   -1.4360   55.1550   75.1080 C   0  0  0  0  0  0  0  0  0  0  0  0
    4.0968   57.7790   73.5675 H   0  0  0  0  0  0  0  0  0  0  0  0
    1.9591   57.1502   72.6573 H   0  0  0  0  0  0  0  0  0  0  0  0
    2.1112   56.6313   74.3808 H   0  0  0  0  0  0  0  0  0  0  0  0
    0.8749   58.5855   75.1166 H   0  0  0  0  0  0  0  0  0  0  0  0
    0.4947   59.2540   72.1452 H   0  0  0  0  0  0  0  0  0  0  0  0
   -0.1594   60.1643   73.5811 H   0  0  0  0  0  0  0  0  0  0  0  0
    2.0123   60.8315   74.2571 H   0  0  0  0  0  0  0  0  0  0  0  0
    3.0433   59.1818   71.8766 H   0  0  0  0  0  0  0  0  0  0  0  0
    4.8536   60.6749   73.8048 H   0  0  0  0  0  0  0  0  0  0  0  0
    5.3390   59.6610   72.4080 H   0  0  0  0  0  0  0  0  0  0  0  0
    6.3322   62.0797   71.0410 H   0  0  0  0  0  0  0  0  0  0  0  0
    4.8950   63.9365   69.8729 H   0  0  0  0  0  0  0  0  0  0  0  0
   -0.2218   62.1185   72.4233 H   0  0  0  0  0  0  0  0  0  0  0  0
   -0.0725   64.0494   70.8747 H   0  0  0  0  0  0  0  0  0  0  0  0
    2.1146   64.7275   69.8370 H   0  0  0  0  0  0  0  0  0  0  0  0
    4.6800   59.0939   75.3083 H   0  0  0  0  0  0  0  0  0  0  0  0
    2.9341   59.4107   75.6764 H   0  0  0  0  0  0  0  0  0  0  0  0
    5.2102   56.7869   77.4771 H   0  0  0  0  0  0  0  0  0  0  0  0
    5.0692   55.8738   75.9366 H   0  0  0  0  0  0  0  0  0  0  0  0
    5.7521   57.5352   75.9366 H   0  0  0  0  0  0  0  0  0  0  0  0
    2.9796   56.6797   75.7127 H   0  0  0  0  0  0  0  0  0  0  0  0
    3.2019   57.7332   77.1647 H   0  0  0  0  0  0  0  0  0  0  0  0
   -1.1987   57.7024   74.7149 H   0  0  0  0  0  0  0  0  0  0  0  0
   -0.9503   57.6821   72.9230 H   0  0  0  0  0  0  0  0  0  0  0  0
   -1.0905   55.2921   76.1433 H   0  0  0  0  0  0  0  0  0  0  0  0
   -2.3361   55.7640   74.9381 H   0  0  0  0  0  0  0  0  0  0  0  0
   -1.6734   54.0944   74.9381 H   0  0  0  0  0  0  0  0  0  0  0  0
  2  1  1  0
  3  2  1  0
  4  3  1  0
  5  4  1  0
  6  5  1  0
  6  1  1  0
  7  6  1  0
  8  7  1  0
  9  8  2  0
 10  9  1  0
 11 10  1  0
 12 11  2  0
 12  8  1  0
 13 12  1  0
 13  5  1  0
 14 13  2  0
 15 14  1  0
 16 15  2  0
 16 11  1  0
 17  1  1  0
 19 18  1  0
 19 17  1  0
 20  3  1  0
 21 20  1  0
 22 21  1  0
  1 23  1  6
  2 24  1  0
  2 25  1  0
  3 26  1  1
  4 27  1  0
  4 28  1  0
  5 29  1  1
  6 30  1  6
  7 31  1  0
  7 32  1  0
  9 33  1  0
 10 34  1  0
 14 35  1  0
 15 36  1  0
 16 37  1  0
 17 38  1  0
 17 39  1  0
 18 40  1  0
 18 41  1  0
 18 42  1  0
 19 43  1  0
 19 44  1  0
 20 45  1  0
 20 46  1  0
 22 47  1  0
 22 48  1  0
 22 49  1  0
M  CHG  1   1   1
M  END
>  <score>  (7) 
-7.299

$$$$
=
     RDKit          3D

 49 52  0  0  0  0  0  0  0  0999 V2000
    1.4190   63.2590   72.6430 N   0  0  1  0  0  4  0  0  0  0  0  0
    0.9620   63.7270   74.0160 C   0  0  0  0  0  0  0  0  0  0  0  0
   -0.3100   62.9870   74.4500 C   0  0  1  0  0  0  0  0  0  0  0  0
   -0.0790   61.4640   74.4580 C   0  0  0  0  0  0  0  0  0  0  0  0
    0.4630   60.9350   73.1180 C   0  0  1  0  0  0  0  0  0  0  0  0
    1.7400   61.7580   72.6990 C   0  0  1  0  0  0  0  0  0  0  0  0
    2.4670   61.2570   71.4060 C   0  0  0  0  0  0  0  0  0  0  0  0
    2.7050   59.7930   71.5210 C   0  0  0  0  0  0  0  0  0  0  0  0
    3.6120   58.9310   70.9510 C   0  0  0  0  0  0  0  0  0  0  0  0
    3.3350   57.6610   71.4220 N   0  0  0  0  0  0  0  0  0  0  0  0
    2.2600   57.6970   72.2840 C   0  0  0  0  0  0  0  0  0  0  0  0
    1.8670   59.0190   72.3540 C   0  0  0  0  0  0  0  0  0  0  0  0
    0.7960   59.4530   73.1530 C   0  0  0  0  0  0  0  0  0  0  0  0
    0.1030   58.4580   73.8540 C   0  0  0  0  0  0  0  0  0  0  0  0
    0.5030   57.1150   73.7820 C   0  0  0  0  0  0  0  0  0  0  0  0
    1.5940   56.7030   73.0010 C   0  0  0  0  0  0  0  0  0  0  0  0
    0.5270   63.6900   71.4870 C   0  0  0  0  0  0  0  0  0  0  0  0
    0.3560   65.9950   70.5000 C   0  0  0  0  0  0  0  0  0  0  0  0
    1.2080   64.7390   70.6120 C   0  0  0  0  0  0  0  0  0  0  0  0
   -0.7860   63.4390   75.8450 C   0  0  0  0  0  0  0  0  0  0  0  0
   -2.3560   62.6360   76.2940 S   0  0  0  0  0  0  0  0  0  0  0  0
   -3.0890   63.9780   77.2670 C   0  0  0  0  0  0  0  0  0  0  0  0
    2.2908   63.7563   72.4115 H   0  0  0  0  0  0  0  0  0  0  0  0
    1.7600   63.5314   74.7474 H   0  0  0  0  0  0  0  0  0  0  0  0
    0.7430   64.8038   73.9659 H   0  0  0  0  0  0  0  0  0  0  0  0
   -1.0924   63.2358   73.7179 H   0  0  0  0  0  0  0  0  0  0  0  0
    0.6455   61.2227   75.2498 H   0  0  0  0  0  0  0  0  0  0  0  0
   -1.0523   60.9827   74.6343 H   0  0  0  0  0  0  0  0  0  0  0  0
   -0.3382   61.0645   72.3755 H   0  0  0  0  0  0  0  0  0  0  0  0
    2.4792   61.5781   73.4935 H   0  0  0  0  0  0  0  0  0  0  0  0
    1.8380   61.4605   70.5268 H   0  0  0  0  0  0  0  0  0  0  0  0
    3.4270   61.7819   71.2922 H   0  0  0  0  0  0  0  0  0  0  0  0
    4.4129   59.2026   70.2476 H   0  0  0  0  0  0  0  0  0  0  0  0
    3.8567   56.8106   71.1657 H   0  0  0  0  0  0  0  0  0  0  0  0
   -0.7664   58.7331   74.4692 H   0  0  0  0  0  0  0  0  0  0  0  0
   -0.0561   56.3612   74.3558 H   0  0  0  0  0  0  0  0  0  0  0  0
    1.9079   55.6497   72.9566 H   0  0  0  0  0  0  0  0  0  0  0  0
    0.2912   62.8098   70.8708 H   0  0  0  0  0  0  0  0  0  0  0  0
   -0.3884   64.1333   71.9058 H   0  0  0  0  0  0  0  0  0  0  0  0
    0.1079   66.3608   71.5073 H   0  0  0  0  0  0  0  0  0  0  0  0
    0.9154   66.7702   69.9559 H   0  0  0  0  0  0  0  0  0  0  0  0
   -0.5711   65.7618   69.9559 H   0  0  0  0  0  0  0  0  0  0  0  0
    1.3658   64.3210   69.6068 H   0  0  0  0  0  0  0  0  0  0  0  0
    2.1694   65.0087   71.0736 H   0  0  0  0  0  0  0  0  0  0  0  0
   -0.0209   63.1731   76.5892 H   0  0  0  0  0  0  0  0  0  0  0  0
   -0.9438   64.5274   75.8244 H   0  0  0  0  0  0  0  0  0  0  0  0
   -2.9704   63.7609   78.3388 H   0  0  0  0  0  0  0  0  0  0  0  0
   -2.5825   64.9243   77.0264 H   0  0  0  0  0  0  0  0  0  0  0  0
   -4.1590   64.0633   77.0264 H   0  0  0  0  0  0  0  0  0  0  0  0
  2  1  1  0
  3  2  1  0
  4  3  1  0
  5  4  1  0
  6  5  1  0
  6  1  1  0
  7  6  1  0
  8  7  1  0
  9  8  2  0
 10  9  1  0
 11 10  1  0
 12 11  2  0
 12  8  1  0
 13 12  1  0
 13  5  1  0
 14 13  2  0
 15 14  1  0
 16 15  2  0
 16 11  1  0
 17  1  1  0
 19 18  1  0
 19 17  1  0
 20  3  1  0
 21 20  1  0
 22 21  1  0
  1 23  1  6
  2 24  1  0
  2 25  1  0
  3 26  1  6
  4 27  1  0
  4 28  1  0
  5 29  1  6
  6 30  1  1
  7 31  1  0
  7 32  1  0
  9 33  1  0
 10 34  1  0
 14 35  1  0
 15 36  1  0
 16 37  1  0
 17 38  1  0
 17 39  1  0
 18 40  1  0
 18 41  1  0
 18 42  1  0
 19 43  1  0
 19 44  1  0
 20 45  1  0
 20 46  1  0
 22 47  1  0
 22 48  1  0
 22 49  1  0
M  CHG  1   1   1
M  END
>  <score>  (8) 
-7.14

$$$$
