=
     RDKit          3D

 36 37  0  0  0  0  0  0  0  0999 V2000
    6.7570   71.0410   68.7790 C   0  0  0  0  0  0  0  0  0  0  0  0
    5.6010   71.0090   69.5470 C   0  0  0  0  0  0  0  0  0  0  0  0
    4.4240   70.5030   68.9930 C   0  0  0  0  0  0  0  0  0  0  0  0
    4.4030   70.0230   67.6740 C   0  0  0  0  0  0  0  0  0  0  0  0
    5.5740   70.0770   66.8970 C   0  0  0  0  0  0  0  0  0  0  0  0
    6.7530   70.5780   67.4670 C   0  0  0  0  0  0  0  0  0  0  0  0
    5.6110   69.5520   65.4850 C   0  0  0  0  0  0  0  0  0  0  0  0
    4.2250   69.4110   64.8610 C   0  0  0  0  0  0  0  0  0  0  0  0
    3.2820   68.6840   65.8220 C   0  0  1  0  0  0  0  0  0  0  0  0
    3.1000   69.5110   67.1020 C   0  0  0  0  0  0  0  0  0  0  0  0
    7.9310   71.5210   69.2790 O   0  0  0  0  0  0  0  0  0  0  0  0
    1.9750   68.5000   65.1670 N   0  0  0  0  0  0  0  0  0  0  0  0
    0.9660   67.2940   65.7070 S   0  0  0  0  0  6  0  0  0  0  0  0
    1.0620   66.1840   64.7920 O   0  0  0  0  0  0  0  0  0  0  0  0
    1.1920   67.1500   67.1250 O   0  0  0  0  0  0  0  0  0  0  0  0
   -0.5320   68.0560   65.4930 N   0  0  0  0  0  0  0  0  0  0  0  0
   -0.6890   68.8060   64.2290 C   0  0  0  0  0  0  0  0  0  0  0  0
   -0.9400   68.8740   66.6590 C   0  0  0  0  0  0  0  0  0  0  0  0
    5.6125   71.3791   70.5828 H   0  0  0  0  0  0  0  0  0  0  0  0
    3.5041   70.4801   69.5957 H   0  0  0  0  0  0  0  0  0  0  0  0
    7.6791   70.6051   66.8741 H   0  0  0  0  0  0  0  0  0  0  0  0
    6.2030   70.2452   64.8694 H   0  0  0  0  0  0  0  0  0  0  0  0
    6.0579   68.5475   65.5206 H   0  0  0  0  0  0  0  0  0  0  0  0
    3.8214   70.4109   64.6435 H   0  0  0  0  0  0  0  0  0  0  0  0
    4.3083   68.8282   63.9318 H   0  0  0  0  0  0  0  0  0  0  0  0
    3.7105   67.7055   66.0846 H   0  0  0  0  0  0  0  0  0  0  0  0
    2.4569   70.3733   66.8720 H   0  0  0  0  0  0  0  0  0  0  0  0
    2.6510   68.8485   67.8567 H   0  0  0  0  0  0  0  0  0  0  0  0
    8.7423   71.5336   68.7118 H   0  0  0  0  0  0  0  0  0  0  0  0
    1.4619   69.3880   65.2621 H   0  0  0  0  0  0  0  0  0  0  0  0
   -0.9097   69.8601   64.4531 H   0  0  0  0  0  0  0  0  0  0  0  0
    0.2420   68.7420   63.6466 H   0  0  0  0  0  0  0  0  0  0  0  0
   -1.5162   68.3740   63.6466 H   0  0  0  0  0  0  0  0  0  0  0  0
   -0.6767   68.3461   67.5874 H   0  0  0  0  0  0  0  0  0  0  0  0
   -0.4194   69.8425   66.6276 H   0  0  0  0  0  0  0  0  0  0  0  0
   -2.0268   69.0407   66.6276 H   0  0  0  0  0  0  0  0  0  0  0  0
  2  1  2  0
  3  2  1  0
  4  3  2  0
  5  4  1  0
  6  5  2  0
  6  1  1  0
  7  5  1  0
  8  7  1  0
  9  8  1  0
 10  9  1  0
 10  4  1  0
 11  1  1  0
 12  9  1  0
 13 12  1  0
 14 13  2  0
 15 13  2  0
 16 13  1  0
 17 16  1  0
 18 16  1  0
  2 19  1  0
  3 20  1  0
  6 21  1  0
  7 22  1  0
  7 23  1  0
  8 24  1  0
  8 25  1  0
  9 26  1  1
 10 27  1  0
 10 28  1  0
 11 29  1  0
 12 30  1  0
 17 31  1  0
 17 32  1  0
 17 33  1  0
 18 34  1  0
 18 35  1  0
 18 36  1  0
M  END
>  <score>  (1) 
-9.452

$$$$
=
     RDKit          3D

 36 37  0  0  0  0  0  0  0  0999 V2000
    6.5950   71.0810   68.2460 C   0  0  0  0  0  0  0  0  0  0  0  0
    6.7810   70.6270   66.9470 C   0  0  0  0  0  0  0  0  0  0  0  0
    5.7320   69.9830   66.2900 C   0  0  0  0  0  0  0  0  0  0  0  0
    4.4950   69.7970   66.9270 C   0  0  0  0  0  0  0  0  0  0  0  0
    4.3220   70.2430   68.2500 C   0  0  0  0  0  0  0  0  0  0  0  0
    5.3790   70.8980   68.8970 C   0  0  0  0  0  0  0  0  0  0  0  0
    3.0070   70.0900   68.9700 C   0  0  0  0  0  0  0  0  0  0  0  0
    2.0940   69.0430   68.3370 C   0  0  0  0  0  0  0  0  0  0  0  0
    2.0090   69.2580   66.8250 C   0  0  1  0  0  0  0  0  0  0  0  0
    3.3940   69.0670   66.1900 C   0  0  0  0  0  0  0  0  0  0  0  0
    7.5890   71.7210   68.9250 O   0  0  0  0  0  0  0  0  0  0  0  0
    1.0690   68.2780   66.2520 N   0  0  0  0  0  0  0  0  0  0  0  0
   -0.5540   68.6370   66.2300 S   0  0  0  0  0  6  0  0  0  0  0  0
   -0.7820   69.7420   67.1270 O   0  0  0  0  0  0  0  0  0  0  0  0
   -0.9680   68.6660   64.8480 O   0  0  0  0  0  0  0  0  0  0  0  0
   -1.1710   67.2240   66.9290 N   0  0  0  0  0  0  0  0  0  0  0  0
   -2.6380   67.1900   67.1090 C   0  0  0  0  0  0  0  0  0  0  0  0
   -0.4670   66.8360   68.1730 C   0  0  0  0  0  0  0  0  0  0  0  0
    7.7464   70.7737   66.4406 H   0  0  0  0  0  0  0  0  0  0  0  0
    5.8758   69.6174   65.2626 H   0  0  0  0  0  0  0  0  0  0  0  0
    5.2465   71.2690   69.9240 H   0  0  0  0  0  0  0  0  0  0  0  0
    3.2099   69.7943   70.0099 H   0  0  0  0  0  0  0  0  0  0  0  0
    2.4866   71.0572   68.9100 H   0  0  0  0  0  0  0  0  0  0  0  0
    2.4976   68.0398   68.5389 H   0  0  0  0  0  0  0  0  0  0  0  0
    1.0870   69.1378   68.7693 H   0  0  0  0  0  0  0  0  0  0  0  0
    1.6575   70.2801   66.6203 H   0  0  0  0  0  0  0  0  0  0  0  0
    3.6304   67.9927   66.1840 H   0  0  0  0  0  0  0  0  0  0  0  0
    3.3477   69.4864   65.1742 H   0  0  0  0  0  0  0  0  0  0  0  0
    7.4330   72.0358   69.8506 H   0  0  0  0  0  0  0  0  0  0  0  0
    1.3564   68.1190   65.2758 H   0  0  0  0  0  0  0  0  0  0  0  0
   -2.8756   67.1845   68.1830 H   0  0  0  0  0  0  0  0  0  0  0  0
   -3.0858   68.0780   66.6390 H   0  0  0  0  0  0  0  0  0  0  0  0
   -3.0442   66.2822   66.6390 H   0  0  0  0  0  0  0  0  0  0  0  0
   -1.0556   67.1604   69.0438 H   0  0  0  0  0  0  0  0  0  0  0  0
   -0.3448   65.7431   68.1995 H   0  0  0  0  0  0  0  0  0  0  0  0
    0.5222   67.3163   68.1995 H   0  0  0  0  0  0  0  0  0  0  0  0
  2  1  2  0
  3  2  1  0
  4  3  2  0
  5  4  1  0
  6  5  2  0
  6  1  1  0
  7  5  1  0
  8  7  1  0
  9  8  1  0
 10  9  1  0
 10  4  1  0
 11  1  1  0
 12  9  1  0
 13 12  1  0
 14 13  2  0
 15 13  2  0
 16 13  1  0
 17 16  1  0
 18 16  1  0
  2 19  1  0
  3 20  1  0
  6 21  1  0
  7 22  1  0
  7 23  1  0
  8 24  1  0
  8 25  1  0
  9 26  1  1
 10 27  1  0
 10 28  1  0
 11 29  1  0
 12 30  1  0
 17 31  1  0
 17 32  1  0
 17 33  1  0
 18 34  1  0
 18 35  1  0
 18 36  1  0
M  END
>  <score>  (2) 
-9.373

$$$$
=
     RDKit          3D

 36 37  0  0  0  0  0  0  0  0999 V2000
    5.5560   68.7690   63.0030 C   0  0  0  0  0  0  0  0  0  0  0  0
    5.6020   68.8600   64.3880 C   0  0  0  0  0  0  0  0  0  0  0  0
    4.4110   68.8700   65.1140 C   0  0  0  0  0  0  0  0  0  0  0  0
    3.1720   68.7830   64.4590 C   0  0  0  0  0  0  0  0  0  0  0  0
    3.1340   68.7110   63.0550 C   0  0  0  0  0  0  0  0  0  0  0  0
    4.3370   68.6920   62.3350 C   0  0  0  0  0  0  0  0  0  0  0  0
    1.8320   68.5920   62.3050 C   0  0  0  0  0  0  0  0  0  0  0  0
    0.6220   69.0160   63.1320 C   0  0  0  0  0  0  0  0  0  0  0  0
    0.6640   68.3540   64.5110 C   0  0  1  0  0  0  0  0  0  0  0  0
    1.9050   68.8280   65.2820 C   0  0  0  0  0  0  0  0  0  0  0  0
    6.6930   68.7500   62.2520 O   0  0  0  0  0  0  0  0  0  0  0  0
   -0.5500   68.7260   65.2600 N   0  0  0  0  0  0  0  0  0  0  0  0
   -0.6430   68.3530   66.8780 S   0  0  0  0  0  6  0  0  0  0  0  0
   -0.0140   67.0720   67.0810 O   0  0  0  0  0  0  0  0  0  0  0  0
   -0.2510   69.5310   67.6120 O   0  0  0  0  0  0  0  0  0  0  0  0
   -2.3200   68.1750   67.0350 N   0  0  0  0  0  0  0  0  0  0  0  0
   -2.7800   66.8350   67.4580 C   0  0  0  0  0  0  0  0  0  0  0  0
   -3.0690   68.6530   65.8500 C   0  0  0  0  0  0  0  0  0  0  0  0
    6.5692   68.9236   64.9080 H   0  0  0  0  0  0  0  0  0  0  0  0
    4.4427   68.9468   66.2109 H   0  0  0  0  0  0  0  0  0  0  0  0
    4.3175   68.6159   61.2378 H   0  0  0  0  0  0  0  0  0  0  0  0
    1.8845   69.2292   61.4099 H   0  0  0  0  0  0  0  0  0  0  0  0
    1.6977   67.5307   62.0489 H   0  0  0  0  0  0  0  0  0  0  0  0
    0.6305   70.1092   63.2537 H   0  0  0  0  0  0  0  0  0  0  0  0
   -0.2951   68.7023   62.6119 H   0  0  0  0  0  0  0  0  0  0  0  0
    0.7113   67.2616   64.3913 H   0  0  0  0  0  0  0  0  0  0  0  0
    1.7379   69.8647   65.6097 H   0  0  0  0  0  0  0  0  0  0  0  0
    2.0430   68.1427   66.1313 H   0  0  0  0  0  0  0  0  0  0  0  0
    6.6339   68.6845   61.2659 H   0  0  0  0  0  0  0  0  0  0  0  0
   -0.6538   69.7475   65.1790 H   0  0  0  0  0  0  0  0  0  0  0  0
   -2.7977   66.7833   68.5566 H   0  0  0  0  0  0  0  0  0  0  0  0
   -3.7917   66.6540   67.0660 H   0  0  0  0  0  0  0  0  0  0  0  0
   -2.0928   66.0708   67.0660 H   0  0  0  0  0  0  0  0  0  0  0  0
   -3.9539   69.2177   66.1788 H   0  0  0  0  0  0  0  0  0  0  0  0
   -2.4215   69.3053   65.2456 H   0  0  0  0  0  0  0  0  0  0  0  0
   -3.3879   67.7910   65.2456 H   0  0  0  0  0  0  0  0  0  0  0  0
  2  1  2  0
  3  2  1  0
  4  3  2  0
  5  4  1  0
  6  5  2  0
  6  1  1  0
  7  5  1  0
  8  7  1  0
  9  8  1  0
 10  9  1  0
 10  4  1  0
 11  1  1  0
 12  9  1  0
 13 12  1  0
 14 13  2  0
 15 13  2  0
 16 13  1  0
 17 16  1  0
 18 16  1  0
  2 19  1  0
  3 20  1  0
  6 21  1  0
  7 22  1  0
  7 23  1  0
  8 24  1  0
  8 25  1  0
  9 26  1  6
 10 27  1  0
 10 28  1  0
 11 29  1  0
 12 30  1  0
 17 31  1  0
 17 32  1  0
 17 33  1  0
 18 34  1  0
 18 35  1  0
 18 36  1  0
M  END
>  <score>  (3) 
-8.222

$$$$
=
     RDKit          3D

 36 37  0  0  0  0  0  0  0  0999 V2000
    4.8640   64.0710   63.7680 C   0  0  0  0  0  0  0  0  0  0  0  0
    4.2370   63.6140   64.9200 C   0  0  0  0  0  0  0  0  0  0  0  0
    3.3320   64.4450   65.5820 C   0  0  0  0  0  0  0  0  0  0  0  0
    3.0500   65.7300   65.0930 C   0  0  0  0  0  0  0  0  0  0  0  0
    3.7050   66.1920   63.9370 C   0  0  0  0  0  0  0  0  0  0  0  0
    4.6050   65.3450   63.2730 C   0  0  0  0  0  0  0  0  0  0  0  0
    3.4190   67.5530   63.3570 C   0  0  0  0  0  0  0  0  0  0  0  0
    2.7550   68.5020   64.3510 C   0  0  0  0  0  0  0  0  0  0  0  0
    1.5800   67.8080   65.0430 C   0  0  1  0  0  0  0  0  0  0  0  0
    2.0860   66.6090   65.8580 C   0  0  0  0  0  0  0  0  0  0  0  0
    5.7510   63.2930   63.0840 O   0  0  0  0  0  0  0  0  0  0  0  0
    0.9170   68.7680   65.9430 N   0  0  0  0  0  0  0  0  0  0  0  0
   -0.7430   68.7690   66.0380 S   0  0  0  0  0  6  0  0  0  0  0  0
   -1.1470   69.8970   66.8380 O   0  0  0  0  0  0  0  0  0  0  0  0
   -1.2480   68.5460   64.7040 O   0  0  0  0  0  0  0  0  0  0  0  0
   -0.9800   67.3480   66.9280 N   0  0  0  0  0  0  0  0  0  0  0  0
   -2.3910   66.9720   67.1620 C   0  0  0  0  0  0  0  0  0  0  0  0
   -0.1980   67.3130   68.1860 C   0  0  0  0  0  0  0  0  0  0  0  0
    4.4516   62.6069   65.3068 H   0  0  0  0  0  0  0  0  0  0  0  0
    2.8346   64.0892   66.4964 H   0  0  0  0  0  0  0  0  0  0  0  0
    5.1078   65.6897   62.3574 H   0  0  0  0  0  0  0  0  0  0  0  0
    4.3689   67.9997   63.0281 H   0  0  0  0  0  0  0  0  0  0  0  0
    2.7180   67.4117   62.5212 H   0  0  0  0  0  0  0  0  0  0  0  0
    3.4920   68.8089   65.1077 H   0  0  0  0  0  0  0  0  0  0  0  0
    2.3817   69.3838   63.8096 H   0  0  0  0  0  0  0  0  0  0  0  0
    0.8676   67.4512   64.2846 H   0  0  0  0  0  0  0  0  0  0  0  0
    2.5960   66.9875   66.7561 H   0  0  0  0  0  0  0  0  0  0  0  0
    1.2103   65.9919   66.1079 H   0  0  0  0  0  0  0  0  0  0  0  0
    6.1855   63.6406   62.2652 H   0  0  0  0  0  0  0  0  0  0  0  0
    1.2736   68.5877   66.8923 H   0  0  0  0  0  0  0  0  0  0  0  0
   -2.5823   66.9210   68.2440 H   0  0  0  0  0  0  0  0  0  0  0  0
   -3.0514   67.7255   66.7080 H   0  0  0  0  0  0  0  0  0  0  0  0
   -2.5889   65.9898   66.7080 H   0  0  0  0  0  0  0  0  0  0  0  0
   -0.8841   67.3437   69.0452 H   0  0  0  0  0  0  0  0  0  0  0  0
    0.3952   66.3874   68.2234 H   0  0  0  0  0  0  0  0  0  0  0  0
    0.4755   68.1819   68.2234 H   0  0  0  0  0  0  0  0  0  0  0  0
  2  1  2  0
  3  2  1  0
  4  3  2  0
  5  4  1  0
  6  5  2  0
  6  1  1  0
  7  5  1  0
  8  7  1  0
  9  8  1  0
 10  9  1  0
 10  4  1  0
 11  1  1  0
 12  9  1  0
 13 12  1  0
 14 13  2  0
 15 13  2  0
 16 13  1  0
 17 16  1  0
 18 16  1  0
  2 19  1  0
  3 20  1  0
  6 21  1  0
  7 22  1  0
  7 23  1  0
  8 24  1  0
  8 25  1  0
  9 26  1  6
 10 27  1  0
 10 28  1  0
 11 29  1  0
 12 30  1  0
 17 31  1  0
 17 32  1  0
 17 33  1  0
 18 34  1  0
 18 35  1  0
 18 36  1  0
M  END
>  <score>  (4) 
-7.247

$$$$
=
     RDKit          3D

 36 37  0  0  0  0  0  0  0  0999 V2000
    4.0220   59.9870   72.8120 C   0  0  0  0  0  0  0  0  0  0  0  0
    5.1280   60.6600   72.3100 C   0  0  0  0  0  0  0  0  0  0  0  0
    4.9400   61.8200   71.5570 C   0  0  0  0  0  0  0  0  0  0  0  0
    3.6480   62.3110   71.3080 C   0  0  0  0  0  0  0  0  0  0  0  0
    2.5330   61.6110   71.8040 C   0  0  0  0  0  0  0  0  0  0  0  0
    2.7340   60.4530   72.5680 C   0  0  0  0  0  0  0  0  0  0  0  0
    1.1270   62.1090   71.5860 C   0  0  0  0  0  0  0  0  0  0  0  0
    1.0170   63.1150   70.4430 C   0  0  0  0  0  0  0  0  0  0  0  0
    2.0960   64.1910   70.5760 C   0  0  1  0  0  0  0  0  0  0  0  0
    3.4880   63.5540   70.4620 C   0  0  0  0  0  0  0  0  0  0  0  0
    4.1570   58.8540   73.5580 O   0  0  0  0  0  0  0  0  0  0  0  0
    1.9210   65.1840   69.5010 N   0  0  0  0  0  0  0  0  0  0  0  0
    0.9770   66.5220   69.7860 S   0  0  0  0  0  6  0  0  0  0  0  0
   -0.0260   66.1660   70.7590 O   0  0  0  0  0  0  0  0  0  0  0  0
    1.8670   67.6430   69.9690 O   0  0  0  0  0  0  0  0  0  0  0  0
    0.2410   66.6830   68.2700 N   0  0  0  0  0  0  0  0  0  0  0  0
    0.7490   67.7880   67.4310 C   0  0  0  0  0  0  0  0  0  0  0  0
   -1.2380   66.6950   68.3400 C   0  0  0  0  0  0  0  0  0  0  0  0
    6.1428   60.2824   72.5040 H   0  0  0  0  0  0  0  0  0  0  0  0
    5.8127   62.3551   71.1545 H   0  0  0  0  0  0  0  0  0  0  0  0
    1.8690   59.9100   72.9767 H   0  0  0  0  0  0  0  0  0  0  0  0
    0.4823   61.2476   71.3571 H   0  0  0  0  0  0  0  0  0  0  0  0
    0.8157   62.6242   72.5067 H   0  0  0  0  0  0  0  0  0  0  0  0
    1.1441   62.5904   69.4846 H   0  0  0  0  0  0  0  0  0  0  0  0
    0.0276   63.5941   70.4825 H   0  0  0  0  0  0  0  0  0  0  0  0
    2.0050   64.6807   71.5568 H   0  0  0  0  0  0  0  0  0  0  0  0
    3.6639   63.2853   69.4099 H   0  0  0  0  0  0  0  0  0  0  0  0
    4.2156   64.2933   70.8282 H   0  0  0  0  0  0  0  0  0  0  0  0
    3.3536   58.3913   73.9053 H   0  0  0  0  0  0  0  0  0  0  0  0
    2.8598   65.5250   69.2493 H   0  0  0  0  0  0  0  0  0  0  0  0
    1.1211   68.5973   68.0765 H   0  0  0  0  0  0  0  0  0  0  0  0
    1.5681   67.4195   66.7960 H   0  0  0  0  0  0  0  0  0  0  0  0
   -0.0640   68.1698   66.7960 H   0  0  0  0  0  0  0  0  0  0  0  0
   -1.5552   66.6976   69.3933 H   0  0  0  0  0  0  0  0  0  0  0  0
   -1.6215   67.5963   67.8394 H   0  0  0  0  0  0  0  0  0  0  0  0
   -1.6360   65.8001   67.8394 H   0  0  0  0  0  0  0  0  0  0  0  0
  2  1  2  0
  3  2  1  0
  4  3  2  0
  5  4  1  0
  6  5  2  0
  6  1  1  0
  7  5  1  0
  8  7  1  0
  9  8  1  0
 10  9  1  0
 10  4  1  0
 11  1  1  0
 12  9  1  0
 13 12  1  0
 14 13  2  0
 15 13  2  0
 16 13  1  0
 17 16  1  0
 18 16  1  0
  2 19  1  0
  3 20  1  0
  6 21  1  0
  7 22  1  0
  7 23  1  0
  8 24  1  0
  8 25  1  0
  9 26  1  1
 10 27  1  0
 10 28  1  0
 11 29  1  0
 12 30  1  0
 17 31  1  0
 17 32  1  0
 17 33  1  0
 18 34  1  0
 18 35  1  0
 18 36  1  0
M  END
>  <score>  (5) 
-7.199

$$$$
=
     RDKit          3D

 36 37  0  0  0  0  0  0  0  0999 V2000
   -2.2960   59.7870   74.1800 C   0  0  0  0  0  0  0  0  0  0  0  0
   -2.2660   61.0620   73.6300 C   0  0  0  0  0  0  0  0  0  0  0  0
   -1.0760   61.5440   73.0840 C   0  0  0  0  0  0  0  0  0  0  0  0
    0.0840   60.7520   73.0830 C   0  0  0  0  0  0  0  0  0  0  0  0
    0.0490   59.4710   73.6610 C   0  0  0  0  0  0  0  0  0  0  0  0
   -1.1550   58.9920   74.1970 C   0  0  0  0  0  0  0  0  0  0  0  0
    1.2590   58.5710   73.6640 C   0  0  0  0  0  0  0  0  0  0  0  0
    2.5660   59.3230   73.4270 C   0  0  0  0  0  0  0  0  0  0  0  0
    2.4290   60.2590   72.2250 C   0  0  1  0  0  0  0  0  0  0  0  0
    1.3600   61.3240   72.5090 C   0  0  0  0  0  0  0  0  0  0  0  0
   -3.4370   59.2720   74.7200 O   0  0  0  0  0  0  0  0  0  0  0  0
    3.7240   60.9180   71.9780 N   0  0  0  0  0  0  0  0  0  0  0  0
    4.5220   60.6160   70.5510 S   0  0  0  0  0  6  0  0  0  0  0  0
    5.9380   60.5970   70.8230 O   0  0  0  0  0  0  0  0  0  0  0  0
    3.8450   59.5180   69.9050 O   0  0  0  0  0  0  0  0  0  0  0  0
    4.1430   62.0330   69.7050 N   0  0  0  0  0  0  0  0  0  0  0  0
    4.3190   63.2910   70.4600 C   0  0  0  0  0  0  0  0  0  0  0  0
    2.8170   61.9800   69.0470 C   0  0  0  0  0  0  0  0  0  0  0  0
   -3.1719   61.6859   73.6249 H   0  0  0  0  0  0  0  0  0  0  0  0
   -1.0459   62.5543   72.6500 H   0  0  0  0  0  0  0  0  0  0  0  0
   -1.1972   57.9829   74.6329 H   0  0  0  0  0  0  0  0  0  0  0  0
    1.3175   58.0665   74.6397 H   0  0  0  0  0  0  0  0  0  0  0  0
    1.1377   57.8560   72.8369 H   0  0  0  0  0  0  0  0  0  0  0  0
    2.8118   59.9144   74.3214 H   0  0  0  0  0  0  0  0  0  0  0  0
    3.3660   58.5956   73.2249 H   0  0  0  0  0  0  0  0  0  0  0  0
    2.1296   59.6770   71.3409 H   0  0  0  0  0  0  0  0  0  0  0  0
    1.7715   62.0490   73.2267 H   0  0  0  0  0  0  0  0  0  0  0  0
    1.1034   61.7926   71.5475 H   0  0  0  0  0  0  0  0  0  0  0  0
   -3.4342   58.3605   75.1064 H   0  0  0  0  0  0  0  0  0  0  0  0
    3.5593   61.9338   72.0227 H   0  0  0  0  0  0  0  0  0  0  0  0
    4.2893   63.0784   71.5388 H   0  0  0  0  0  0  0  0  0  0  0  0
    5.2889   63.7411   70.2016 H   0  0  0  0  0  0  0  0  0  0  0  0
    3.5099   63.9900   70.2016 H   0  0  0  0  0  0  0  0  0  0  0  0
    2.0284   61.9485   69.8133 H   0  0  0  0  0  0  0  0  0  0  0  0
    2.6831   62.8735   68.4195 H   0  0  0  0  0  0  0  0  0  0  0  0
    2.7548   61.0787   68.4195 H   0  0  0  0  0  0  0  0  0  0  0  0
  2  1  2  0
  3  2  1  0
  4  3  2  0
  5  4  1  0
  6  5  2  0
  6  1  1  0
  7  5  1  0
  8  7  1  0
  9  8  1  0
 10  9  1  0
 10  4  1  0
 11  1  1  0
 12  9  1  0
 13 12  1  0
 14 13  2  0
 15 13  2  0
 16 13  1  0
 17 16  1  0
 18 16  1  0
  2 19  1  0
  3 20  1  0
  6 21  1  0
  7 22  1  0
  7 23  1  0
  8 24  1  0
  8 25  1  0
  9 26  1  6
 10 27  1  0
 10 28  1  0
 11 29  1  0
 12 30  1  0
 17 31  1  0
 17 32  1  0
 17 33  1  0
 18 34  1  0
 18 35  1  0
 18 36  1  0
M  END
>  <score>  (6) 
-6.949

$$$$
=
     RDKit          3D

 36 37  0  0  0  0  0  0  0  0999 V2000
    3.0380   62.3290   69.2820 C   0  0  0  0  0  0  0  0  0  0  0  0
    2.2390   62.8060   70.3120 C   0  0  0  0  0  0  0  0  0  0  0  0
    1.9270   61.9660   71.3810 C   0  0  0  0  0  0  0  0  0  0  0  0
    2.4170   60.6510   71.4260 C   0  0  0  0  0  0  0  0  0  0  0  0
    3.2090   60.1700   70.3690 C   0  0  0  0  0  0  0  0  0  0  0  0
    3.5260   61.0260   69.3040 C   0  0  0  0  0  0  0  0  0  0  0  0
    3.7810   58.7750   70.3800 C   0  0  0  0  0  0  0  0  0  0  0  0
    3.0650   57.8420   71.3520 C   0  0  0  0  0  0  0  0  0  0  0  0
    2.9100   58.5130   72.7170 C   0  0  1  0  0  0  0  0  0  0  0  0
    2.0300   59.7650   72.5890 C   0  0  0  0  0  0  0  0  0  0  0  0
    3.3740   63.1140   68.2190 O   0  0  0  0  0  0  0  0  0  0  0  0
    2.2800   57.5650   73.6520 N   0  0  0  0  0  0  0  0  0  0  0  0
    2.6710   57.6440   75.2660 S   0  0  0  0  0  6  0  0  0  0  0  0
    4.0370   58.0900   75.3760 O   0  0  0  0  0  0  0  0  0  0  0  0
    1.5830   58.3130   75.9380 O   0  0  0  0  0  0  0  0  0  0  0  0
    2.5950   55.9990   75.6610 N   0  0  0  0  0  0  0  0  0  0  0  0
    2.2850   55.0890   74.5380 C   0  0  0  0  0  0  0  0  0  0  0  0
    1.7320   55.7220   76.8330 C   0  0  0  0  0  0  0  0  0  0  0  0
    1.8555   63.8366   70.2855 H   0  0  0  0  0  0  0  0  0  0  0  0
    1.2903   62.3377   72.1974 H   0  0  0  0  0  0  0  0  0  0  0  0
    4.1630   60.6658   68.4827 H   0  0  0  0  0  0  0  0  0  0  0  0
    3.6987   58.3549   69.3667 H   0  0  0  0  0  0  0  0  0  0  0  0
    4.8274   58.8522   70.7102 H   0  0  0  0  0  0  0  0  0  0  0  0
    2.0695   57.5973   70.9531 H   0  0  0  0  0  0  0  0  0  0  0  0
    3.6602   56.9245   71.4705 H   0  0  0  0  0  0  0  0  0  0  0  0
    3.9009   58.8074   73.0932 H   0  0  0  0  0  0  0  0  0  0  0  0
    0.9862   59.4458   72.4527 H   0  0  0  0  0  0  0  0  0  0  0  0
    2.1662   60.3546   73.5076 H   0  0  0  0  0  0  0  0  0  0  0  0
    3.9453   62.7510   67.4966 H   0  0  0  0  0  0  0  0  0  0  0  0
    1.2617   57.7029   73.5811 H   0  0  0  0  0  0  0  0  0  0  0  0
    1.9541   54.1175   74.9339 H   0  0  0  0  0  0  0  0  0  0  0  0
    1.4850   55.5258   73.9222 H   0  0  0  0  0  0  0  0  0  0  0  0
    3.1853   54.9465   73.9222 H   0  0  0  0  0  0  0  0  0  0  0  0
    2.2996   55.9042   77.7575 H   0  0  0  0  0  0  0  0  0  0  0  0
    0.8534   56.3833   76.8058 H   0  0  0  0  0  0  0  0  0  0  0  0
    1.4023   54.6729   76.8058 H   0  0  0  0  0  0  0  0  0  0  0  0
  2  1  2  0
  3  2  1  0
  4  3  2  0
  5  4  1  0
  6  5  2  0
  6  1  1  0
  7  5  1  0
  8  7  1  0
  9  8  1  0
 10  9  1  0
 10  4  1  0
 11  1  1  0
 12  9  1  0
 13 12  1  0
 14 13  2  0
 15 13  2  0
 16 13  1  0
 17 16  1  0
 18 16  1  0
  2 19  1  0
  3 20  1  0
  6 21  1  0
  7 22  1  0
  7 23  1  0
  8 24  1  0
  8 25  1  0
  9 26  1  1
 10 27  1  0
 10 28  1  0
 11 29  1  0
 12 30  1  0
 17 31  1  0
 17 32  1  0
 17 33  1  0
 18 34  1  0
 18 35  1  0
 18 36  1  0
M  END
>  <score>  (7) 
-6.74

$$$$
=
     RDKit          3D

 36 37  0  0  0  0  0  0  0  0999 V2000
    2.8200   62.4490   69.7110 C   0  0  0  0  0  0  0  0  0  0  0  0
    3.6750   61.5070   69.1560 C   0  0  0  0  0  0  0  0  0  0  0  0
    3.8030   60.2570   69.7630 C   0  0  0  0  0  0  0  0  0  0  0  0
    3.0730   59.9440   70.9210 C   0  0  0  0  0  0  0  0  0  0  0  0
    2.2240   60.9120   71.4870 C   0  0  0  0  0  0  0  0  0  0  0  0
    2.0950   62.1610   70.8640 C   0  0  0  0  0  0  0  0  0  0  0  0
    1.4000   60.6190   72.7140 C   0  0  0  0  0  0  0  0  0  0  0  0
    1.9080   59.4170   73.5060 C   0  0  0  0  0  0  0  0  0  0  0  0
    2.1610   58.2340   72.5700 C   0  0  1  0  0  0  0  0  0  0  0  0
    3.2640   58.5890   71.5630 C   0  0  0  0  0  0  0  0  0  0  0  0
    2.6580   63.6810   69.1510 O   0  0  0  0  0  0  0  0  0  0  0  0
    2.5840   57.0700   73.3690 N   0  0  0  0  0  0  0  0  0  0  0  0
    1.4460   55.9420   73.8150 S   0  0  0  0  0  6  0  0  0  0  0  0
    0.1850   56.3210   73.2280 O   0  0  0  0  0  0  0  0  0  0  0  0
    2.0320   54.6390   73.6140 O   0  0  0  0  0  0  0  0  0  0  0  0
    1.3880   56.2360   75.4820 N   0  0  0  0  0  0  0  0  0  0  0  0
    0.2900   57.1160   75.9340 C   0  0  0  0  0  0  0  0  0  0  0  0
    2.6890   56.6680   76.0420 C   0  0  0  0  0  0  0  0  0  0  0  0
    4.2463   61.7435   68.2463 H   0  0  0  0  0  0  0  0  0  0  0  0
    4.4831   59.5088   69.3297 H   0  0  0  0  0  0  0  0  0  0  0  0
    1.4178   62.9170   71.2881 H   0  0  0  0  0  0  0  0  0  0  0  0
    1.4206   61.5030   73.3684 H   0  0  0  0  0  0  0  0  0  0  0  0
    0.3813   60.3802   72.3745 H   0  0  0  0  0  0  0  0  0  0  0  0
    2.8466   59.6864   74.0125 H   0  0  0  0  0  0  0  0  0  0  0  0
    1.1485   59.1303   74.2483 H   0  0  0  0  0  0  0  0  0  0  0  0
    1.2369   57.9976   72.0221 H   0  0  0  0  0  0  0  0  0  0  0  0
    4.2307   58.5843   72.0878 H   0  0  0  0  0  0  0  0  0  0  0  0
    3.2254   57.8390   70.7593 H   0  0  0  0  0  0  0  0  0  0  0  0
    2.0422   64.3361   69.5655 H   0  0  0  0  0  0  0  0  0  0  0  0
    3.3027   56.5740   72.8228 H   0  0  0  0  0  0  0  0  0  0  0  0
    0.2651   57.1360   77.0335 H   0  0  0  0  0  0  0  0  0  0  0  0
    0.4555   58.1343   75.5524 H   0  0  0  0  0  0  0  0  0  0  0  0
   -0.6678   56.7327   75.5524 H   0  0  0  0  0  0  0  0  0  0  0  0
    2.6389   56.6514   77.1407 H   0  0  0  0  0  0  0  0  0  0  0  0
    3.4803   55.9844   75.7006 H   0  0  0  0  0  0  0  0  0  0  0  0
    2.9142   57.6891   75.7006 H   0  0  0  0  0  0  0  0  0  0  0  0
  2  1  2  0
  3  2  1  0
  4  3  2  0
  5  4  1  0
  6  5  2  0
  6  1  1  0
  7  5  1  0
  8  7  1  0
  9  8  1  0
 10  9  1  0
 10  4  1  0
 11  1  1  0
 12  9  1  0
 13 12  1  0
 14 13  2  0
 15 13  2  0
 16 13  1  0
 17 16  1  0
 18 16  1  0
  2 19  1  0
  3 20  1  0
  6 21  1  0
  7 22  1  0
  7 23  1  0
  8 24  1  0
  8 25  1  0
  9 26  1  6
 10 27  1  0
 10 28  1  0
 11 29  1  0
 12 30  1  0
 17 31  1  0
 17 32  1  0
 17 33  1  0
 18 34  1  0
 18 35  1  0
 18 36  1  0
M  END
>  <score>  (8) 
-6.721

$$$$
=
     RDKit          3D

 36 37  0  0  0  0  0  0  0  0999 V2000
    3.3790   59.8510   70.0500 C   0  0  0  0  0  0  0  0  0  0  0  0
    3.4710   61.1190   69.4910 C   0  0  0  0  0  0  0  0  0  0  0  0
    2.7820   62.1790   70.0820 C   0  0  0  0  0  0  0  0  0  0  0  0
    2.0040   61.9750   71.2330 C   0  0  0  0  0  0  0  0  0  0  0  0
    1.9010   60.6830   71.7790 C   0  0  0  0  0  0  0  0  0  0  0  0
    2.6060   59.6270   71.1850 C   0  0  0  0  0  0  0  0  0  0  0  0
    1.0990   60.4150   73.0280 C   0  0  0  0  0  0  0  0  0  0  0  0
    0.0890   61.5160   73.3400 C   0  0  0  0  0  0  0  0  0  0  0  0
    0.7570   62.8890   73.2550 C   0  0  1  0  0  0  0  0  0  0  0  0
    1.2490   63.1440   71.8230 C   0  0  0  0  0  0  0  0  0  0  0  0
    4.0390   58.7870   69.5110 O   0  0  0  0  0  0  0  0  0  0  0  0
   -0.2220   63.9250   73.6290 N   0  0  0  0  0  0  0  0  0  0  0  0
   -0.1130   64.6330   75.1290 S   0  0  0  0  0  6  0  0  0  0  0  0
    1.2740   64.6390   75.5230 O   0  0  0  0  0  0  0  0  0  0  0  0
   -0.9110   65.8350   75.0940 O   0  0  0  0  0  0  0  0  0  0  0  0
   -0.9430   63.4820   76.0510 N   0  0  0  0  0  0  0  0  0  0  0  0
   -2.1450   63.9770   76.7550 C   0  0  0  0  0  0  0  0  0  0  0  0
   -0.0590   62.7210   76.9650 C   0  0  0  0  0  0  0  0  0  0  0  0
    4.0811   61.2862   68.5911 H   0  0  0  0  0  0  0  0  0  0  0  0
    2.8491   63.1848   69.6416 H   0  0  0  0  0  0  0  0  0  0  0  0
    2.5479   58.6174   71.6178 H   0  0  0  0  0  0  0  0  0  0  0  0
    0.5550   59.4678   72.8980 H   0  0  0  0  0  0  0  0  0  0  0  0
    1.8069   60.3720   73.8689 H   0  0  0  0  0  0  0  0  0  0  0  0
   -0.7358   61.4682   72.6137 H   0  0  0  0  0  0  0  0  0  0  0  0
   -0.2973   61.3686   74.3593 H   0  0  0  0  0  0  0  0  0  0  0  0
    1.6163   62.9206   73.9410 H   0  0  0  0  0  0  0  0  0  0  0  0
    0.3768   63.3534   71.1863 H   0  0  0  0  0  0  0  0  0  0  0  0
    1.9457   63.9942   71.8645 H   0  0  0  0  0  0  0  0  0  0  0  0
    3.9584   57.8922   69.9269 H   0  0  0  0  0  0  0  0  0  0  0  0
   -0.1436   64.6798   72.9326 H   0  0  0  0  0  0  0  0  0  0  0  0
   -1.9865   63.9117   77.8416 H   0  0  0  0  0  0  0  0  0  0  0  0
   -2.3295   65.0243   76.4736 H   0  0  0  0  0  0  0  0  0  0  0  0
   -3.0135   63.3633   76.4736 H   0  0  0  0  0  0  0  0  0  0  0  0
   -0.3250   62.9500   78.0075 H   0  0  0  0  0  0  0  0  0  0  0  0
   -0.1838   61.6434   76.7830 H   0  0  0  0  0  0  0  0  0  0  0  0
    0.9881   63.0047   76.7830 H   0  0  0  0  0  0  0  0  0  0  0  0
  2  1  2  0
  3  2  1  0
  4  3  2  0
  5  4  1  0
  6  5  2  0
  6  1  1  0
  7  5  1  0
  8  7  1  0
  9  8  1  0
 10  9  1  0
 10  4  1  0
 11  1  1  0
 12  9  1  0
 13 12  1  0
 14 13  2  0
 15 13  2  0
 16 13  1  0
 17 16  1  0
 18 16  1  0
  2 19  1  0
  3 20  1  0
  6 21  1  0
  7 22  1  0
  7 23  1  0
  8 24  1  0
  8 25  1  0
  9 26  1  1
 10 27  1  0
 10 28  1  0
 11 29  1  0
 12 30  1  0
 17 31  1  0
 17 32  1  0
 17 33  1  0
 18 34  1  0
 18 35  1  0
 18 36  1  0
M  END
>  <score>  (9) 
-6.676

$$$$
