=
     RDKit          3D

 27 28  0  0  0  0  0  0  0  0999 V2000
    0.8160   66.0120   70.0850 C   0  0  0  0  0  0  0  0  0  0  0  0
    0.0220   66.0710   71.0180 O   0  0  0  0  0  0  0  0  0  0  0  0
    1.7170   64.9900   69.8640 N   0  0  0  0  0  0  0  0  0  0  0  0
    3.3270   70.1900   68.3630 Cl  0  0  0  0  0  0  0  0  0  0  0  0
    1.9940   69.1090   68.2650 C   0  0  0  0  0  0  0  0  0  0  0  0
    1.0130   69.3140   67.3000 C   0  0  0  0  0  0  0  0  0  0  0  0
   -0.0610   68.4330   67.2290 C   0  0  0  0  0  0  0  0  0  0  0  0
   -1.2780   68.6910   66.0300 Cl  0  0  0  0  0  0  0  0  0  0  0  0
   -0.1650   67.3470   68.1150 C   0  0  0  0  0  0  0  0  0  0  0  0
    0.8230   67.1370   69.0890 C   0  0  0  0  0  0  0  0  0  0  0  0
    1.9050   68.0350   69.1510 C   0  0  0  0  0  0  0  0  0  0  0  0
   -1.2420   66.4970   68.0140 O   0  0  0  0  0  0  0  0  0  0  0  0
    1.9200   63.8270   70.6310 C   0  0  0  0  0  0  0  0  0  0  0  0
    0.7770   63.1080   71.0060 C   0  0  0  0  0  0  0  0  0  0  0  0
    0.8860   61.9410   71.7670 C   0  0  0  0  0  0  0  0  0  0  0  0
    2.1410   61.4780   72.1630 C   0  0  0  0  0  0  0  0  0  0  0  0
    3.2880   62.1890   71.7940 C   0  0  0  0  0  0  0  0  0  0  0  0
    3.1740   63.3580   71.0300 C   0  0  0  0  0  0  0  0  0  0  0  0
    4.8740   61.6740   72.2500 Cl  0  0  0  0  0  0  0  0  0  0  0  0
    2.2050   60.0300   73.1030 Cl  0  0  0  0  0  0  0  0  0  0  0  0
    2.3167   65.0910   69.0327 H   0  0  0  0  0  0  0  0  0  0  0  0
    1.0858   70.1615   66.6025 H   0  0  0  0  0  0  0  0  0  0  0  0
    2.6901   67.8882   69.9073 H   0  0  0  0  0  0  0  0  0  0  0  0
   -1.3259   65.7286   68.6326 H   0  0  0  0  0  0  0  0  0  0  0  0
   -0.2165   63.4660   70.6981 H   0  0  0  0  0  0  0  0  0  0  0  0
   -0.0195   61.3864   72.0543 H   0  0  0  0  0  0  0  0  0  0  0  0
    4.0799   63.9114   70.7418 H   0  0  0  0  0  0  0  0  0  0  0  0
  2  1  2  0
  3  1  1  0
  5  4  1  0
  6  5  2  0
  7  6  1  0
  8  7  1  0
  9  7  2  0
 10  9  1  0
 10  1  1  0
 11 10  2  0
 11  5  1  0
 12  9  1  0
 13  3  1  0
 14 13  2  0
 15 14  1  0
 16 15  2  0
 17 16  1  0
 18 13  1  0
 18 17  2  0
 19 17  1  0
 20 16  1  0
  3 21  1  0
  6 22  1  0
 11 23  1  0
 12 24  1  0
 14 25  1  0
 15 26  1  0
 18 27  1  0
M  END
>  <score>  (1) 
-8.233

$$$$
=
     RDKit          3D

 27 28  0  0  0  0  0  0  0  0999 V2000
    1.3170   64.5780   70.6160 C   0  0  0  0  0  0  0  0  0  0  0  0
    1.9900   64.0910   69.7130 O   0  0  0  0  0  0  0  0  0  0  0  0
    0.5170   65.6970   70.5040 N   0  0  0  0  0  0  0  0  0  0  0  0
    3.5520   60.9500   73.5420 Cl  0  0  0  0  0  0  0  0  0  0  0  0
    2.3960   62.2090   73.3560 C   0  0  0  0  0  0  0  0  0  0  0  0
    1.5720   62.5480   74.4250 C   0  0  0  0  0  0  0  0  0  0  0  0
    0.6400   63.5680   74.2640 C   0  0  0  0  0  0  0  0  0  0  0  0
   -0.3810   63.9860   75.5920 Cl  0  0  0  0  0  0  0  0  0  0  0  0
    0.5230   64.2530   73.0430 C   0  0  0  0  0  0  0  0  0  0  0  0
    1.3530   63.9140   71.9630 C   0  0  0  0  0  0  0  0  0  0  0  0
    2.2920   62.8800   72.1380 C   0  0  0  0  0  0  0  0  0  0  0  0
   -0.4100   65.2560   72.9220 O   0  0  0  0  0  0  0  0  0  0  0  0
    0.3000   66.5030   69.3690 C   0  0  0  0  0  0  0  0  0  0  0  0
   -0.9300   66.3560   68.7140 C   0  0  0  0  0  0  0  0  0  0  0  0
   -1.2300   67.1160   67.5800 C   0  0  0  0  0  0  0  0  0  0  0  0
   -0.3010   68.0340   67.0870 C   0  0  0  0  0  0  0  0  0  0  0  0
    0.9290   68.1880   67.7340 C   0  0  0  0  0  0  0  0  0  0  0  0
    1.2250   67.4240   68.8710 C   0  0  0  0  0  0  0  0  0  0  0  0
    2.1260   69.3050   67.1790 Cl  0  0  0  0  0  0  0  0  0  0  0  0
   -0.7350   68.9410   65.6820 Cl  0  0  0  0  0  0  0  0  0  0  0  0
    0.0151   65.9785   71.3583 H   0  0  0  0  0  0  0  0  0  0  0  0
    1.6566   62.0165   75.3844 H   0  0  0  0  0  0  0  0  0  0  0  0
    2.9516   62.5979   71.3041 H   0  0  0  0  0  0  0  0  0  0  0  0
   -0.5019   65.7460   72.0667 H   0  0  0  0  0  0  0  0  0  0  0  0
   -1.6673   65.6348   69.0964 H   0  0  0  0  0  0  0  0  0  0  0  0
   -2.1993   66.9906   67.0754 H   0  0  0  0  0  0  0  0  0  0  0  0
    2.1941   67.5506   69.3758 H   0  0  0  0  0  0  0  0  0  0  0  0
  2  1  2  0
  3  1  1  0
  5  4  1  0
  6  5  2  0
  7  6  1  0
  8  7  1  0
  9  7  2  0
 10  9  1  0
 10  1  1  0
 11 10  2  0
 11  5  1  0
 12  9  1  0
 13  3  1  0
 14 13  2  0
 15 14  1  0
 16 15  2  0
 17 16  1  0
 18 13  1  0
 18 17  2  0
 19 17  1  0
 20 16  1  0
  3 21  1  0
  6 22  1  0
 11 23  1  0
 12 24  1  0
 14 25  1  0
 15 26  1  0
 18 27  1  0
M  END
>  <score>  (2) 
-8.025

$$$$
=
     RDKit          3D

 27 28  0  0  0  0  0  0  0  0999 V2000
    2.0340   64.2710   70.2560 C   0  0  0  0  0  0  0  0  0  0  0  0
    2.6170   64.0270   69.2040 O   0  0  0  0  0  0  0  0  0  0  0  0
    1.1260   65.2930   70.4480 N   0  0  0  0  0  0  0  0  0  0  0  0
    0.4700   62.7950   74.9560 Cl  0  0  0  0  0  0  0  0  0  0  0  0
    1.5950   62.6890   73.6600 C   0  0  0  0  0  0  0  0  0  0  0  0
    2.6810   61.8270   73.7620 C   0  0  0  0  0  0  0  0  0  0  0  0
    3.5850   61.7490   72.7080 C   0  0  0  0  0  0  0  0  0  0  0  0
    4.9330   60.6780   72.8380 Cl  0  0  0  0  0  0  0  0  0  0  0  0
    3.4130   62.5260   71.5500 C   0  0  0  0  0  0  0  0  0  0  0  0
    2.3180   63.3960   71.4430 C   0  0  0  0  0  0  0  0  0  0  0  0
    1.4100   63.4670   72.5170 C   0  0  0  0  0  0  0  0  0  0  0  0
    4.3280   62.4210   70.5280 O   0  0  0  0  0  0  0  0  0  0  0  0
    0.6810   66.2510   69.5160 C   0  0  0  0  0  0  0  0  0  0  0  0
   -0.6180   66.0910   69.0170 C   0  0  0  0  0  0  0  0  0  0  0  0
   -1.1420   66.9940   68.0880 C   0  0  0  0  0  0  0  0  0  0  0  0
   -0.3710   68.0710   67.6480 C   0  0  0  0  0  0  0  0  0  0  0  0
    0.9280   68.2390   68.1400 C   0  0  0  0  0  0  0  0  0  0  0  0
    1.4480   67.3300   69.0710 C   0  0  0  0  0  0  0  0  0  0  0  0
    1.9390   69.5480   67.6380 Cl  0  0  0  0  0  0  0  0  0  0  0  0
   -1.0780   69.1510   66.4990 Cl  0  0  0  0  0  0  0  0  0  0  0  0
    0.7225   65.3641   71.3930 H   0  0  0  0  0  0  0  0  0  0  0  0
    2.8234   61.2146   74.6646 H   0  0  0  0  0  0  0  0  0  0  0  0
    0.5450   64.1436   72.4539 H   0  0  0  0  0  0  0  0  0  0  0  0
    4.2176   62.9633   69.7071 H   0  0  0  0  0  0  0  0  0  0  0  0
   -1.2323   65.2455   69.3601 H   0  0  0  0  0  0  0  0  0  0  0  0
   -2.1632   66.8558   67.7031 H   0  0  0  0  0  0  0  0  0  0  0  0
    2.4696   67.4675   69.4549 H   0  0  0  0  0  0  0  0  0  0  0  0
  2  1  2  0
  3  1  1  0
  5  4  1  0
  6  5  2  0
  7  6  1  0
  8  7  1  0
  9  7  2  0
 10  9  1  0
 10  1  1  0
 11 10  2  0
 11  5  1  0
 12  9  1  0
 13  3  1  0
 14 13  2  0
 15 14  1  0
 16 15  2  0
 17 16  1  0
 18 13  1  0
 18 17  2  0
 19 17  1  0
 20 16  1  0
  3 21  1  0
  6 22  1  0
 11 23  1  0
 12 24  1  0
 14 25  1  0
 15 26  1  0
 18 27  1  0
M  END
>  <score>  (3) 
-7.957

$$$$
=
     RDKit          3D

 27 28  0  0  0  0  0  0  0  0999 V2000
    2.6700   69.6660   67.9670 C   0  0  0  0  0  0  0  0  0  0  0  0
    2.1710   70.1670   68.9700 O   0  0  0  0  0  0  0  0  0  0  0  0
    2.0270   68.8090   67.0970 N   0  0  0  0  0  0  0  0  0  0  0  0
    6.2610   69.9610   64.2610 Cl  0  0  0  0  0  0  0  0  0  0  0  0
    5.8020   70.1470   65.9080 C   0  0  0  0  0  0  0  0  0  0  0  0
    6.7400   70.5860   66.8360 C   0  0  0  0  0  0  0  0  0  0  0  0
    6.3580   70.7340   68.1660 C   0  0  0  0  0  0  0  0  0  0  0  0
    7.5250   71.2790   69.3160 Cl  0  0  0  0  0  0  0  0  0  0  0  0
    5.0460   70.4450   68.5770 C   0  0  0  0  0  0  0  0  0  0  0  0
    4.0970   70.0020   67.6420 C   0  0  0  0  0  0  0  0  0  0  0  0
    4.4950   69.8560   66.3000 C   0  0  0  0  0  0  0  0  0  0  0  0
    4.7060   70.6030   69.9000 O   0  0  0  0  0  0  0  0  0  0  0  0
    0.7030   68.3340   67.1610 C   0  0  0  0  0  0  0  0  0  0  0  0
    0.4380   67.3220   68.0940 C   0  0  0  0  0  0  0  0  0  0  0  0
   -0.8480   66.7920   68.2260 C   0  0  0  0  0  0  0  0  0  0  0  0
   -1.8870   67.2680   67.4250 C   0  0  0  0  0  0  0  0  0  0  0  0
   -1.6330   68.2770   66.4910 C   0  0  0  0  0  0  0  0  0  0  0  0
   -0.3410   68.8060   66.3620 C   0  0  0  0  0  0  0  0  0  0  0  0
   -2.8710   68.9140   65.4650 Cl  0  0  0  0  0  0  0  0  0  0  0  0
   -3.4530   66.5700   67.6390 Cl  0  0  0  0  0  0  0  0  0  0  0  0
    2.5867   68.4744   66.2997 H   0  0  0  0  0  0  0  0  0  0  0  0
    7.7698   70.8132   66.5231 H   0  0  0  0  0  0  0  0  0  0  0  0
    3.7674   69.5085   65.5517 H   0  0  0  0  0  0  0  0  0  0  0  0
    3.7846   70.4025   70.2016 H   0  0  0  0  0  0  0  0  0  0  0  0
    1.2513   66.9410   68.7291 H   0  0  0  0  0  0  0  0  0  0  0  0
   -1.0419   65.9983   68.9625 H   0  0  0  0  0  0  0  0  0  0  0  0
   -0.1478   69.5996   65.6252 H   0  0  0  0  0  0  0  0  0  0  0  0
  2  1  2  0
  3  1  1  0
  5  4  1  0
  6  5  2  0
  7  6  1  0
  8  7  1  0
  9  7  2  0
 10  9  1  0
 10  1  1  0
 11 10  2  0
 11  5  1  0
 12  9  1  0
 13  3  1  0
 14 13  2  0
 15 14  1  0
 16 15  2  0
 17 16  1  0
 18 13  1  0
 18 17  2  0
 19 17  1  0
 20 16  1  0
  3 21  1  0
  6 22  1  0
 11 23  1  0
 12 24  1  0
 14 25  1  0
 15 26  1  0
 18 27  1  0
M  END
>  <score>  (4) 
-7.834

$$$$
=
     RDKit          3D

 27 28  0  0  0  0  0  0  0  0999 V2000
    2.0700   57.6120   72.5380 C   0  0  0  0  0  0  0  0  0  0  0  0
    2.6530   57.1290   71.5720 O   0  0  0  0  0  0  0  0  0  0  0  0
    2.1130   58.9380   72.9170 N   0  0  0  0  0  0  0  0  0  0  0  0
   -2.2450   57.1350   75.3430 Cl  0  0  0  0  0  0  0  0  0  0  0  0
   -0.7950   56.4570   74.7160 C   0  0  0  0  0  0  0  0  0  0  0  0
   -0.4680   55.1380   75.0140 C   0  0  0  0  0  0  0  0  0  0  0  0
    0.7080   54.6000   74.5010 C   0  0  0  0  0  0  0  0  0  0  0  0
    1.1110   52.9630   74.8740 Cl  0  0  0  0  0  0  0  0  0  0  0  0
    1.5620   55.3690   73.6930 C   0  0  0  0  0  0  0  0  0  0  0  0
    1.2350   56.6990   73.3900 C   0  0  0  0  0  0  0  0  0  0  0  0
    0.0430   57.2330   73.9140 C   0  0  0  0  0  0  0  0  0  0  0  0
    2.7160   54.8020   73.2050 O   0  0  0  0  0  0  0  0  0  0  0  0
    2.8100   59.9980   72.3040 C   0  0  0  0  0  0  0  0  0  0  0  0
    3.8800   60.5500   73.0200 C   0  0  0  0  0  0  0  0  0  0  0  0
    4.6270   61.6040   72.4870 C   0  0  0  0  0  0  0  0  0  0  0  0
    4.3110   62.1200   71.2290 C   0  0  0  0  0  0  0  0  0  0  0  0
    3.2440   61.5750   70.5070 C   0  0  0  0  0  0  0  0  0  0  0  0
    2.4990   60.5180   71.0450 C   0  0  0  0  0  0  0  0  0  0  0  0
    2.7970   62.1650   68.9440 Cl  0  0  0  0  0  0  0  0  0  0  0  0
    5.2740   63.4230   70.6290 Cl  0  0  0  0  0  0  0  0  0  0  0  0
    1.5661   59.1842   73.7544 H   0  0  0  0  0  0  0  0  0  0  0  0
   -1.1303   54.5288   75.6466 H   0  0  0  0  0  0  0  0  0  0  0  0
   -0.2314   58.2742   73.6888 H   0  0  0  0  0  0  0  0  0  0  0  0
    3.3259   55.3337   72.6345 H   0  0  0  0  0  0  0  0  0  0  0  0
    4.1350   60.1496   74.0123 H   0  0  0  0  0  0  0  0  0  0  0  0
    5.4652   62.0276   73.0596 H   0  0  0  0  0  0  0  0  0  0  0  0
    1.6618   60.0936   70.4714 H   0  0  0  0  0  0  0  0  0  0  0  0
  2  1  2  0
  3  1  1  0
  5  4  1  0
  6  5  2  0
  7  6  1  0
  8  7  1  0
  9  7  2  0
 10  9  1  0
 10  1  1  0
 11 10  2  0
 11  5  1  0
 12  9  1  0
 13  3  1  0
 14 13  2  0
 15 14  1  0
 16 15  2  0
 17 16  1  0
 18 13  1  0
 18 17  2  0
 19 17  1  0
 20 16  1  0
  3 21  1  0
  6 22  1  0
 11 23  1  0
 12 24  1  0
 14 25  1  0
 15 26  1  0
 18 27  1  0
M  END
>  <score>  (5) 
-7.827

$$$$
=
     RDKit          3D

 27 28  0  0  0  0  0  0  0  0999 V2000
    1.3940   68.9040   67.0420 C   0  0  0  0  0  0  0  0  0  0  0  0
    1.3200   68.1830   68.0320 O   0  0  0  0  0  0  0  0  0  0  0  0
    2.4370   69.7610   66.7530 N   0  0  0  0  0  0  0  0  0  0  0  0
    0.0930   68.8290   62.0400 Cl  0  0  0  0  0  0  0  0  0  0  0  0
   -0.3650   68.8290   63.6970 C   0  0  0  0  0  0  0  0  0  0  0  0
   -1.7130   68.7930   64.0380 C   0  0  0  0  0  0  0  0  0  0  0  0
   -2.0720   68.7930   65.3820 C   0  0  0  0  0  0  0  0  0  0  0  0
   -3.7470   68.7490   65.8010 Cl  0  0  0  0  0  0  0  0  0  0  0  0
   -1.0950   68.8290   66.3900 C   0  0  0  0  0  0  0  0  0  0  0  0
    0.2660   68.8650   66.0510 C   0  0  0  0  0  0  0  0  0  0  0  0
    0.6180   68.8650   64.6870 C   0  0  0  0  0  0  0  0  0  0  0  0
   -1.4880   68.8280   67.7080 O   0  0  0  0  0  0  0  0  0  0  0  0
    3.6080   69.9920   67.5010 C   0  0  0  0  0  0  0  0  0  0  0  0
    3.4410   70.3040   68.8570 C   0  0  0  0  0  0  0  0  0  0  0  0
    4.5480   70.5470   69.6740 C   0  0  0  0  0  0  0  0  0  0  0  0
    5.8380   70.4820   69.1440 C   0  0  0  0  0  0  0  0  0  0  0  0
    6.0140   70.1720   67.7920 C   0  0  0  0  0  0  0  0  0  0  0  0
    4.9010   69.9280   66.9760 C   0  0  0  0  0  0  0  0  0  0  0  0
    7.5810   70.0750   67.0680 Cl  0  0  0  0  0  0  0  0  0  0  0  0
    7.1620   70.7940   70.2090 Cl  0  0  0  0  0  0  0  0  0  0  0  0
    2.3476   70.2998   65.8797 H   0  0  0  0  0  0  0  0  0  0  0  0
   -2.4852   68.7649   63.2551 H   0  0  0  0  0  0  0  0  0  0  0  0
    1.6793   68.8937   64.3991 H   0  0  0  0  0  0  0  0  0  0  0  0
   -0.8082   68.8532   68.4273 H   0  0  0  0  0  0  0  0  0  0  0  0
    2.4280   70.3581   69.2824 H   0  0  0  0  0  0  0  0  0  0  0  0
    4.4029   70.7900   70.7370 H   0  0  0  0  0  0  0  0  0  0  0  0
    5.0468   69.6841   65.9133 H   0  0  0  0  0  0  0  0  0  0  0  0
  2  1  2  0
  3  1  1  0
  5  4  1  0
  6  5  2  0
  7  6  1  0
  8  7  1  0
  9  7  2  0
 10  9  1  0
 10  1  1  0
 11 10  2  0
 11  5  1  0
 12  9  1  0
 13  3  1  0
 14 13  2  0
 15 14  1  0
 16 15  2  0
 17 16  1  0
 18 13  1  0
 18 17  2  0
 19 17  1  0
 20 16  1  0
  3 21  1  0
  6 22  1  0
 11 23  1  0
 12 24  1  0
 14 25  1  0
 15 26  1  0
 18 27  1  0
M  END
>  <score>  (6) 
-7.699

$$$$
=
     RDKit          3D

 27 28  0  0  0  0  0  0  0  0999 V2000
    2.6560   59.2290   72.1030 C   0  0  0  0  0  0  0  0  0  0  0  0
    3.6800   58.5920   71.8740 O   0  0  0  0  0  0  0  0  0  0  0  0
    1.6490   58.8410   72.9630 N   0  0  0  0  0  0  0  0  0  0  0  0
    0.0940   63.7180   72.0350 Cl  0  0  0  0  0  0  0  0  0  0  0  0
    1.2670   62.6630   71.3520 C   0  0  0  0  0  0  0  0  0  0  0  0
    1.9660   63.0580   70.2160 C   0  0  0  0  0  0  0  0  0  0  0  0
    2.9140   62.1960   69.6720 C   0  0  0  0  0  0  0  0  0  0  0  0
    3.7800   62.6890   68.2620 Cl  0  0  0  0  0  0  0  0  0  0  0  0
    3.1690   60.9430   70.2520 C   0  0  0  0  0  0  0  0  0  0  0  0
    2.4660   60.5420   71.3990 C   0  0  0  0  0  0  0  0  0  0  0  0
    1.5090   61.4210   71.9410 C   0  0  0  0  0  0  0  0  0  0  0  0
    4.1140   60.1190   69.6860 O   0  0  0  0  0  0  0  0  0  0  0  0
    1.5720   57.6710   73.7430 C   0  0  0  0  0  0  0  0  0  0  0  0
    2.3640   57.6270   74.8980 C   0  0  0  0  0  0  0  0  0  0  0  0
    2.3490   56.5050   75.7310 C   0  0  0  0  0  0  0  0  0  0  0  0
    1.5400   55.4120   75.4180 C   0  0  0  0  0  0  0  0  0  0  0  0
    0.7460   55.4460   74.2670 C   0  0  0  0  0  0  0  0  0  0  0  0
    0.7640   56.5730   73.4350 C   0  0  0  0  0  0  0  0  0  0  0  0
   -0.2790   54.1280   73.8180 Cl  0  0  0  0  0  0  0  0  0  0  0  0
    1.5690   54.0570   76.4900 Cl  0  0  0  0  0  0  0  0  0  0  0  0
    0.8528   59.4893   73.0448 H   0  0  0  0  0  0  0  0  0  0  0  0
    1.7724   64.0374   69.7542 H   0  0  0  0  0  0  0  0  0  0  0  0
    0.9458   61.1257   72.8386 H   0  0  0  0  0  0  0  0  0  0  0  0
    4.3021   59.2333   70.0864 H   0  0  0  0  0  0  0  0  0  0  0  0
    3.0043   58.4847   75.1518 H   0  0  0  0  0  0  0  0  0  0  0  0
    2.9758   56.4834   76.6347 H   0  0  0  0  0  0  0  0  0  0  0  0
    0.1368   56.5939   72.5316 H   0  0  0  0  0  0  0  0  0  0  0  0
  2  1  2  0
  3  1  1  0
  5  4  1  0
  6  5  2  0
  7  6  1  0
  8  7  1  0
  9  7  2  0
 10  9  1  0
 10  1  1  0
 11 10  2  0
 11  5  1  0
 12  9  1  0
 13  3  1  0
 14 13  2  0
 15 14  1  0
 16 15  2  0
 17 16  1  0
 18 13  1  0
 18 17  2  0
 19 17  1  0
 20 16  1  0
  3 21  1  0
  6 22  1  0
 11 23  1  0
 12 24  1  0
 14 25  1  0
 15 26  1  0
 18 27  1  0
M  END
>  <score>  (7) 
-7.397

$$$$
=
     RDKit          3D

 27 28  0  0  0  0  0  0  0  0999 V2000
    0.6570   61.9710   73.2380 C   0  0  0  0  0  0  0  0  0  0  0  0
    1.2050   61.8140   74.3240 O   0  0  0  0  0  0  0  0  0  0  0  0
   -0.5410   61.4000   72.8560 N   0  0  0  0  0  0  0  0  0  0  0  0
    0.1070   65.9680   70.0060 Cl  0  0  0  0  0  0  0  0  0  0  0  0
    1.0880   64.7370   70.6980 C   0  0  0  0  0  0  0  0  0  0  0  0
    2.4160   64.6150   70.3040 C   0  0  0  0  0  0  0  0  0  0  0  0
    3.2010   63.6150   70.8700 C   0  0  0  0  0  0  0  0  0  0  0  0
    4.8500   63.4670   70.3800 Cl  0  0  0  0  0  0  0  0  0  0  0  0
    2.6690   62.7340   71.8260 C   0  0  0  0  0  0  0  0  0  0  0  0
    1.3290   62.8540   72.2260 C   0  0  0  0  0  0  0  0  0  0  0  0
    0.5450   63.8690   71.6460 C   0  0  0  0  0  0  0  0  0  0  0  0
    3.4760   61.7580   72.3630 O   0  0  0  0  0  0  0  0  0  0  0  0
   -1.3730   60.5410   73.6000 C   0  0  0  0  0  0  0  0  0  0  0  0
   -2.6350   61.0350   73.9550 C   0  0  0  0  0  0  0  0  0  0  0  0
   -3.5270   60.2510   74.6930 C   0  0  0  0  0  0  0  0  0  0  0  0
   -3.1650   58.9610   75.0840 C   0  0  0  0  0  0  0  0  0  0  0  0
   -1.9070   58.4600   74.7350 C   0  0  0  0  0  0  0  0  0  0  0  0
   -1.0170   59.2500   73.9950 C   0  0  0  0  0  0  0  0  0  0  0  0
   -1.3930   56.8720   75.1860 Cl  0  0  0  0  0  0  0  0  0  0  0  0
   -4.3140   58.0450   75.9940 Cl  0  0  0  0  0  0  0  0  0  0  0  0
   -0.8673   61.6316   71.9069 H   0  0  0  0  0  0  0  0  0  0  0  0
    2.8403   65.2998   69.5550 H   0  0  0  0  0  0  0  0  0  0  0  0
   -0.5082   63.9792   71.9436 H   0  0  0  0  0  0  0  0  0  0  0  0
    3.1127   61.1311   73.0376 H   0  0  0  0  0  0  0  0  0  0  0  0
   -2.9273   62.0506   73.6498 H   0  0  0  0  0  0  0  0  0  0  0  0
   -4.5147   60.6511   74.9656 H   0  0  0  0  0  0  0  0  0  0  0  0
   -0.0293   58.8495   73.7230 H   0  0  0  0  0  0  0  0  0  0  0  0
  2  1  2  0
  3  1  1  0
  5  4  1  0
  6  5  2  0
  7  6  1  0
  8  7  1  0
  9  7  2  0
 10  9  1  0
 10  1  1  0
 11 10  2  0
 11  5  1  0
 12  9  1  0
 13  3  1  0
 14 13  2  0
 15 14  1  0
 16 15  2  0
 17 16  1  0
 18 13  1  0
 18 17  2  0
 19 17  1  0
 20 16  1  0
  3 21  1  0
  6 22  1  0
 11 23  1  0
 12 24  1  0
 14 25  1  0
 15 26  1  0
 18 27  1  0
M  END
>  <score>  (8) 
-7.23

$$$$
=
     RDKit          3D

 27 28  0  0  0  0  0  0  0  0999 V2000
    3.2020   58.8930   73.4520 C   0  0  0  0  0  0  0  0  0  0  0  0
    4.3610   59.2470   73.6390 O   0  0  0  0  0  0  0  0  0  0  0  0
    2.3780   59.3480   72.4430 N   0  0  0  0  0  0  0  0  0  0  0  0
   -0.3360   55.1720   74.0610 Cl  0  0  0  0  0  0  0  0  0  0  0  0
    0.9500   56.1230   74.6950 C   0  0  0  0  0  0  0  0  0  0  0  0
    1.3740   55.9190   76.0040 C   0  0  0  0  0  0  0  0  0  0  0  0
    2.4150   56.6930   76.5060 C   0  0  0  0  0  0  0  0  0  0  0  0
    2.9390   56.4370   78.1320 Cl  0  0  0  0  0  0  0  0  0  0  0  0
    3.0360   57.6710   75.7120 C   0  0  0  0  0  0  0  0  0  0  0  0
    2.6110   57.8790   74.3910 C   0  0  0  0  0  0  0  0  0  0  0  0
    1.5570   57.0900   73.8930 C   0  0  0  0  0  0  0  0  0  0  0  0
    4.0620   58.4170   76.2440 O   0  0  0  0  0  0  0  0  0  0  0  0
    2.6720   60.2870   71.4350 C   0  0  0  0  0  0  0  0  0  0  0  0
    3.4810   59.8490   70.3780 C   0  0  0  0  0  0  0  0  0  0  0  0
    3.8220   60.7140   69.3350 C   0  0  0  0  0  0  0  0  0  0  0  0
    3.3580   62.0300   69.3370 C   0  0  0  0  0  0  0  0  0  0  0  0
    2.5510   62.4770   70.3880 C   0  0  0  0  0  0  0  0  0  0  0  0
    2.2110   61.6060   71.4320 C   0  0  0  0  0  0  0  0  0  0  0  0
    1.9410   64.0940   70.4560 Cl  0  0  0  0  0  0  0  0  0  0  0  0
    3.8180   63.0470   68.0180 Cl  0  0  0  0  0  0  0  0  0  0  0  0
    1.4278   58.9508   72.4246 H   0  0  0  0  0  0  0  0  0  0  0  0
    0.8927   55.1561   76.6335 H   0  0  0  0  0  0  0  0  0  0  0  0
    1.2081   57.2374   72.8603 H   0  0  0  0  0  0  0  0  0  0  0  0
    4.5075   59.1093   75.6941 H   0  0  0  0  0  0  0  0  0  0  0  0
    3.8515   58.8133   70.3693 H   0  0  0  0  0  0  0  0  0  0  0  0
    4.4573   60.3570   68.5110 H   0  0  0  0  0  0  0  0  0  0  0  0
    1.5760   61.9637   72.2559 H   0  0  0  0  0  0  0  0  0  0  0  0
  2  1  2  0
  3  1  1  0
  5  4  1  0
  6  5  2  0
  7  6  1  0
  8  7  1  0
  9  7  2  0
 10  9  1  0
 10  1  1  0
 11 10  2  0
 11  5  1  0
 12  9  1  0
 13  3  1  0
 14 13  2  0
 15 14  1  0
 16 15  2  0
 17 16  1  0
 18 13  1  0
 18 17  2  0
 19 17  1  0
 20 16  1  0
  3 21  1  0
  6 22  1  0
 11 23  1  0
 12 24  1  0
 14 25  1  0
 15 26  1  0
 18 27  1  0
M  END
>  <score>  (9) 
-7.211

$$$$
