=
     RDKit          3D

 24 24  0  0  0  0  0  0  0  0999 V2000
    2.2910   69.1720   66.3790 O   0  0  0  0  0  0  0  0  0  0  0  0
    3.4700   69.1590   66.0450 C   0  0  0  0  0  0  0  0  0  0  0  0
    3.9560   68.5730   64.8970 N   0  0  0  0  0  0  0  0  0  0  0  0
    4.4930   69.7820   66.9320 C   0  0  0  0  0  0  0  0  0  0  0  0
    5.8140   69.9870   66.5110 C   0  0  0  0  0  0  0  0  0  0  0  0
    6.7400   70.5770   67.3740 C   0  0  0  0  0  0  0  0  0  0  0  0
    6.3510   70.9690   68.6560 C   0  0  0  0  0  0  0  0  0  0  0  0
    5.0350   70.7810   69.0750 C   0  0  0  0  0  0  0  0  0  0  0  0
    4.1060   70.1930   68.2150 C   0  0  0  0  0  0  0  0  0  0  0  0
    3.1020   67.7970   64.0030 C   0  0  0  0  0  0  0  0  0  0  0  0
    3.3460   66.3160   64.2080 C   0  0  0  0  0  0  0  0  0  0  0  0
    4.2740   65.6980   63.1710 C   0  0  0  0  0  0  0  0  0  0  0  0
    4.2740   64.4410   63.0840 O   0  0  0  0  0  0  0  0  0  0  0  0
    4.9550   66.5450   62.5230 O   0  0  0  0  0  1  0  0  0  0  0  0
    4.9525   68.6858   64.6622 H   0  0  0  0  0  0  0  0  0  0  0  0
    6.1218   69.6828   65.4997 H   0  0  0  0  0  0  0  0  0  0  0  0
    7.7774   70.7330   67.0430 H   0  0  0  0  0  0  0  0  0  0  0  0
    7.0840   71.4269   69.3365 H   0  0  0  0  0  0  0  0  0  0  0  0
    4.7285   71.0960   70.0834 H   0  0  0  0  0  0  0  0  0  0  0  0
    3.0663   70.0516   68.5453 H   0  0  0  0  0  0  0  0  0  0  0  0
    2.0476   68.0254   64.2175 H   0  0  0  0  0  0  0  0  0  0  0  0
    3.3368   68.0604   62.9611 H   0  0  0  0  0  0  0  0  0  0  0  0
    3.7927   66.1723   65.2029 H   0  0  0  0  0  0  0  0  0  0  0  0
    2.3727   65.8135   64.1076 H   0  0  0  0  0  0  0  0  0  0  0  0
  2  1  2  0
  3  2  1  0
  4  2  1  0
  5  4  2  0
  6  5  1  0
  7  6  2  0
  8  7  1  0
  9  8  2  0
  9  4  1  0
 10  3  1  0
 11 10  1  0
 12 11  1  0
 13 12  2  0
 14 12  1  0
  3 15  1  0
  5 16  1  0
  6 17  1  0
  7 18  1  0
  8 19  1  0
  9 20  1  0
 10 21  1  0
 10 22  1  0
 11 23  1  0
 11 24  1  0
M  CHG  1  14  -1
M  END
>  <score>  (1) 
-7.885

$$$$
=
     RDKit          3D

 24 24  0  0  0  0  0  0  0  0999 V2000
    4.9460   69.4940   64.4990 O   0  0  0  0  0  0  0  0  0  0  0  0
    4.2480   69.4520   65.5050 C   0  0  0  0  0  0  0  0  0  0  0  0
    2.9390   69.0230   65.5370 N   0  0  0  0  0  0  0  0  0  0  0  0
    4.8040   69.9220   66.8050 C   0  0  0  0  0  0  0  0  0  0  0  0
    6.1620   70.2320   66.9630 C   0  0  0  0  0  0  0  0  0  0  0  0
    6.6400   70.6730   68.1990 C   0  0  0  0  0  0  0  0  0  0  0  0
    5.7660   70.8120   69.2780 C   0  0  0  0  0  0  0  0  0  0  0  0
    4.4120   70.5200   69.1230 C   0  0  0  0  0  0  0  0  0  0  0  0
    3.9300   70.0800   67.8890 C   0  0  0  0  0  0  0  0  0  0  0  0
    2.2090   68.6740   64.3220 C   0  0  0  0  0  0  0  0  0  0  0  0
    0.7230   68.6080   64.6110 C   0  0  0  0  0  0  0  0  0  0  0  0
    0.3900   68.0210   65.9770 C   0  0  0  0  0  0  0  0  0  0  0  0
    0.0520   68.8340   66.8780 O   0  0  0  0  0  0  0  0  0  0  0  0
    0.5120   66.7630   66.0370 O   0  0  0  0  0  1  0  0  0  0  0  0
    2.4609   68.9462   66.4461 H   0  0  0  0  0  0  0  0  0  0  0  0
    6.8519   70.1278   66.1126 H   0  0  0  0  0  0  0  0  0  0  0  0
    7.7068   70.9111   68.3221 H   0  0  0  0  0  0  0  0  0  0  0  0
    6.1463   71.1526   70.2524 H   0  0  0  0  0  0  0  0  0  0  0  0
    3.7234   70.6362   69.9729 H   0  0  0  0  0  0  0  0  0  0  0  0
    2.8599   69.8564   67.7670 H   0  0  0  0  0  0  0  0  0  0  0  0
    2.3968   69.4371   63.5523 H   0  0  0  0  0  0  0  0  0  0  0  0
    2.5513   67.6915   63.9648 H   0  0  0  0  0  0  0  0  0  0  0  0
    0.3142   69.6280   64.5624 H   0  0  0  0  0  0  0  0  0  0  0  0
    0.2784   67.9411   63.8576 H   0  0  0  0  0  0  0  0  0  0  0  0
  2  1  2  0
  3  2  1  0
  4  2  1  0
  5  4  2  0
  6  5  1  0
  7  6  2  0
  8  7  1  0
  9  8  2  0
  9  4  1  0
 10  3  1  0
 11 10  1  0
 12 11  1  0
 13 12  2  0
 14 12  1  0
  3 15  1  0
  5 16  1  0
  6 17  1  0
  7 18  1  0
  8 19  1  0
  9 20  1  0
 10 21  1  0
 10 22  1  0
 11 23  1  0
 11 24  1  0
M  CHG  1  14  -1
M  END
>  <score>  (2) 
-7.701

$$$$
=
     RDKit          3D

 24 24  0  0  0  0  0  0  0  0999 V2000
    4.4800   69.4580   64.4630 O   0  0  0  0  0  0  0  0  0  0  0  0
    3.9510   69.3330   65.5620 C   0  0  0  0  0  0  0  0  0  0  0  0
    2.7200   68.7560   65.7820 N   0  0  0  0  0  0  0  0  0  0  0  0
    4.6410   69.8610   66.7730 C   0  0  0  0  0  0  0  0  0  0  0  0
    3.9510   70.1190   67.9660 C   0  0  0  0  0  0  0  0  0  0  0  0
    4.6370   70.6100   69.0780 C   0  0  0  0  0  0  0  0  0  0  0  0
    6.0120   70.8390   69.0080 C   0  0  0  0  0  0  0  0  0  0  0  0
    6.7050   70.5700   67.8290 C   0  0  0  0  0  0  0  0  0  0  0  0
    6.0240   70.0780   66.7150 C   0  0  0  0  0  0  0  0  0  0  0  0
    1.8590   68.3280   64.6840 C   0  0  0  0  0  0  0  0  0  0  0  0
    0.4060   68.5610   65.0430 C   0  0  0  0  0  0  0  0  0  0  0  0
    0.0260   68.0470   66.4260 C   0  0  0  0  0  0  0  0  0  0  0  0
   -0.3810   66.8570   66.4980 O   0  0  0  0  0  0  0  0  0  0  0  0
    0.1560   68.9070   67.3450 O   0  0  0  0  0  1  0  0  0  0  0  0
    2.3971   68.6224   66.7509 H   0  0  0  0  0  0  0  0  0  0  0  0
    2.8683   69.9343   68.0256 H   0  0  0  0  0  0  0  0  0  0  0  0
    4.0929   70.8169   70.0113 H   0  0  0  0  0  0  0  0  0  0  0  0
    6.5491   71.2320   69.8838 H   0  0  0  0  0  0  0  0  0  0  0  0
    7.7896   70.7457   67.7767 H   0  0  0  0  0  0  0  0  0  0  0  0
    6.5747   69.8598   65.7881 H   0  0  0  0  0  0  0  0  0  0  0  0
    2.1077   68.9039   63.7804 H   0  0  0  0  0  0  0  0  0  0  0  0
    2.0173   67.2554   64.4985 H   0  0  0  0  0  0  0  0  0  0  0  0
    0.2091   69.6427   65.0085 H   0  0  0  0  0  0  0  0  0  0  0  0
   -0.1986   68.0004   64.3148 H   0  0  0  0  0  0  0  0  0  0  0  0
  2  1  2  0
  3  2  1  0
  4  2  1  0
  5  4  2  0
  6  5  1  0
  7  6  2  0
  8  7  1  0
  9  8  2  0
  9  4  1  0
 10  3  1  0
 11 10  1  0
 12 11  1  0
 13 12  2  0
 14 12  1  0
  3 15  1  0
  5 16  1  0
  6 17  1  0
  7 18  1  0
  8 19  1  0
  9 20  1  0
 10 21  1  0
 10 22  1  0
 11 23  1  0
 11 24  1  0
M  CHG  1  14  -1
M  END
>  <score>  (3) 
-7.673

$$$$
=
     RDKit          3D

 24 24  0  0  0  0  0  0  0  0999 V2000
    4.8630   69.6860   64.3990 O   0  0  0  0  0  0  0  0  0  0  0  0
    4.2850   69.3910   65.4390 C   0  0  0  0  0  0  0  0  0  0  0  0
    3.1390   68.6300   65.5130 N   0  0  0  0  0  0  0  0  0  0  0  0
    4.8060   69.9000   66.7390 C   0  0  0  0  0  0  0  0  0  0  0  0
    3.9740   70.0780   67.8530 C   0  0  0  0  0  0  0  0  0  0  0  0
    4.5040   70.5540   69.0540 C   0  0  0  0  0  0  0  0  0  0  0  0
    5.8650   70.8470   69.1500 C   0  0  0  0  0  0  0  0  0  0  0  0
    6.7000   70.6580   68.0500 C   0  0  0  0  0  0  0  0  0  0  0  0
    6.1740   70.1810   66.8480 C   0  0  0  0  0  0  0  0  0  0  0  0
    2.4270   68.1850   64.3200 C   0  0  0  0  0  0  0  0  0  0  0  0
    0.9770   68.6170   64.3900 C   0  0  0  0  0  0  0  0  0  0  0  0
    0.2990   68.7140   63.0300 C   0  0  0  0  0  0  0  0  0  0  0  0
    1.0420   68.9400   62.0380 O   0  0  0  0  0  0  0  0  0  0  0  0
   -0.9570   68.5670   63.0720 O   0  0  0  0  0  1  0  0  0  0  0  0
    2.7735   68.3671   66.4394 H   0  0  0  0  0  0  0  0  0  0  0  0
    2.9020   69.8424   67.7810 H   0  0  0  0  0  0  0  0  0  0  0  0
    3.8481   70.6981   69.9252 H   0  0  0  0  0  0  0  0  0  0  0  0
    6.2795   71.2277   70.0951 H   0  0  0  0  0  0  0  0  0  0  0  0
    7.7735   70.8847   68.1290 H   0  0  0  0  0  0  0  0  0  0  0  0
    6.8361   70.0253   65.9835 H   0  0  0  0  0  0  0  0  0  0  0  0
    2.8964   68.6281   63.4293 H   0  0  0  0  0  0  0  0  0  0  0  0
    2.4740   67.0876   64.2600 H   0  0  0  0  0  0  0  0  0  0  0  0
    0.4264   67.8864   65.0008 H   0  0  0  0  0  0  0  0  0  0  0  0
    0.9638   69.6261   64.8276 H   0  0  0  0  0  0  0  0  0  0  0  0
  2  1  2  0
  3  2  1  0
  4  2  1  0
  5  4  2  0
  6  5  1  0
  7  6  2  0
  8  7  1  0
  9  8  2  0
  9  4  1  0
 10  3  1  0
 11 10  1  0
 12 11  1  0
 13 12  2  0
 14 12  1  0
  3 15  1  0
  5 16  1  0
  6 17  1  0
  7 18  1  0
  8 19  1  0
  9 20  1  0
 10 21  1  0
 10 22  1  0
 11 23  1  0
 11 24  1  0
M  CHG  1  14  -1
M  END
>  <score>  (4) 
-7.497

$$$$
=
     RDKit          3D

 24 24  0  0  0  0  0  0  0  0999 V2000
    1.1880   67.6480   63.7500 O   0  0  0  0  0  0  0  0  0  0  0  0
    1.3610   68.4230   64.6830 C   0  0  0  0  0  0  0  0  0  0  0  0
    0.3570   68.9510   65.4640 N   0  0  0  0  0  0  0  0  0  0  0  0
    2.7410   68.8810   65.0110 C   0  0  0  0  0  0  0  0  0  0  0  0
    3.1210   69.2120   66.3190 C   0  0  0  0  0  0  0  0  0  0  0  0
    4.4260   69.6340   66.5820 C   0  0  0  0  0  0  0  0  0  0  0  0
    5.3560   69.7220   65.5460 C   0  0  0  0  0  0  0  0  0  0  0  0
    4.9870   69.3800   64.2450 C   0  0  0  0  0  0  0  0  0  0  0  0
    3.6850   68.9560   63.9780 C   0  0  0  0  0  0  0  0  0  0  0  0
   -1.0540   68.7160   65.1740 C   0  0  0  0  0  0  0  0  0  0  0  0
   -1.8540   68.7130   66.4600 C   0  0  0  0  0  0  0  0  0  0  0  0
   -1.6820   67.4450   67.2860 C   0  0  0  0  0  0  0  0  0  0  0  0
   -0.6160   66.7960   67.1160 O   0  0  0  0  0  0  0  0  0  0  0  0
   -2.6620   67.1910   68.0450 O   0  0  0  0  0  1  0  0  0  0  0  0
    0.6097   69.5296   66.2778 H   0  0  0  0  0  0  0  0  0  0  0  0
    2.3910   69.1393   67.1386 H   0  0  0  0  0  0  0  0  0  0  0  0
    4.7212   69.8976   67.6083 H   0  0  0  0  0  0  0  0  0  0  0  0
    6.3812   70.0614   65.7552 H   0  0  0  0  0  0  0  0  0  0  0  0
    5.7225   69.4446   63.4296 H   0  0  0  0  0  0  0  0  0  0  0  0
    3.3983   68.6795   62.9527 H   0  0  0  0  0  0  0  0  0  0  0  0
   -1.4279   69.5129   64.5143 H   0  0  0  0  0  0  0  0  0  0  0  0
   -1.1630   67.7398   64.6789 H   0  0  0  0  0  0  0  0  0  0  0  0
   -1.5340   69.5707   67.0699 H   0  0  0  0  0  0  0  0  0  0  0  0
   -2.9156   68.7709   66.1779 H   0  0  0  0  0  0  0  0  0  0  0  0
  2  1  2  0
  3  2  1  0
  4  2  1  0
  5  4  2  0
  6  5  1  0
  7  6  2  0
  8  7  1  0
  9  8  2  0
  9  4  1  0
 10  3  1  0
 11 10  1  0
 12 11  1  0
 13 12  2  0
 14 12  1  0
  3 15  1  0
  5 16  1  0
  6 17  1  0
  7 18  1  0
  8 19  1  0
  9 20  1  0
 10 21  1  0
 10 22  1  0
 11 23  1  0
 11 24  1  0
M  CHG  1  14  -1
M  END
>  <score>  (5) 
-7.241

$$$$
=
     RDKit          3D

 24 24  0  0  0  0  0  0  0  0999 V2000
    1.4750   66.9030   65.8630 O   0  0  0  0  0  0  0  0  0  0  0  0
    1.8690   68.0460   66.0620 C   0  0  0  0  0  0  0  0  0  0  0  0
    1.2780   68.9430   66.9250 N   0  0  0  0  0  0  0  0  0  0  0  0
    3.0510   68.5580   65.3120 C   0  0  0  0  0  0  0  0  0  0  0  0
    3.1690   68.4100   63.9230 C   0  0  0  0  0  0  0  0  0  0  0  0
    4.2920   68.9080   63.2590 C   0  0  0  0  0  0  0  0  0  0  0  0
    5.2970   69.5580   63.9750 C   0  0  0  0  0  0  0  0  0  0  0  0
    5.1780   69.7210   65.3550 C   0  0  0  0  0  0  0  0  0  0  0  0
    4.0570   69.2270   66.0220 C   0  0  0  0  0  0  0  0  0  0  0  0
    0.0290   68.6430   67.6180 C   0  0  0  0  0  0  0  0  0  0  0  0
   -1.1050   69.4440   67.0130 C   0  0  0  0  0  0  0  0  0  0  0  0
   -1.8350   68.7220   65.8880 C   0  0  0  0  0  0  0  0  0  0  0  0
   -1.2470   68.6640   64.7750 O   0  0  0  0  0  0  0  0  0  0  0  0
   -2.9710   68.2760   66.2180 O   0  0  0  0  0  1  0  0  0  0  0  0
    1.7318   69.8535   67.0861 H   0  0  0  0  0  0  0  0  0  0  0  0
    2.3760   67.9010   63.3554 H   0  0  0  0  0  0  0  0  0  0  0  0
    4.3841   68.7874   62.1695 H   0  0  0  0  0  0  0  0  0  0  0  0
    6.1843   69.9425   63.4508 H   0  0  0  0  0  0  0  0  0  0  0  0
    5.9685   70.2393   65.9176 H   0  0  0  0  0  0  0  0  0  0  0  0
    3.9623   69.3631   67.1094 H   0  0  0  0  0  0  0  0  0  0  0  0
   -0.1918   67.5696   67.5224 H   0  0  0  0  0  0  0  0  0  0  0  0
    0.1326   68.9097   68.6801 H   0  0  0  0  0  0  0  0  0  0  0  0
   -1.8309   69.6721   67.8073 H   0  0  0  0  0  0  0  0  0  0  0  0
   -0.6601   70.3505   66.5766 H   0  0  0  0  0  0  0  0  0  0  0  0
  2  1  2  0
  3  2  1  0
  4  2  1  0
  5  4  2  0
  6  5  1  0
  7  6  2  0
  8  7  1  0
  9  8  2  0
  9  4  1  0
 10  3  1  0
 11 10  1  0
 12 11  1  0
 13 12  2  0
 14 12  1  0
  3 15  1  0
  5 16  1  0
  6 17  1  0
  7 18  1  0
  8 19  1  0
  9 20  1  0
 10 21  1  0
 10 22  1  0
 11 23  1  0
 11 24  1  0
M  CHG  1  14  -1
M  END
>  <score>  (6) 
-7.007

$$$$
=
     RDKit          3D

 24 24  0  0  0  0  0  0  0  0999 V2000
    1.4990   69.9350   67.9190 O   0  0  0  0  0  0  0  0  0  0  0  0
    1.9340   68.9740   67.2950 C   0  0  0  0  0  0  0  0  0  0  0  0
    1.4860   67.6780   67.4330 N   0  0  0  0  0  0  0  0  0  0  0  0
    3.0530   69.1690   66.3310 C   0  0  0  0  0  0  0  0  0  0  0  0
    2.9140   68.8810   64.9660 C   0  0  0  0  0  0  0  0  0  0  0  0
    3.9880   69.0820   64.0960 C   0  0  0  0  0  0  0  0  0  0  0  0
    5.1990   69.5750   64.5810 C   0  0  0  0  0  0  0  0  0  0  0  0
    5.3380   69.8770   65.9360 C   0  0  0  0  0  0  0  0  0  0  0  0
    4.2670   69.6790   66.8080 C   0  0  0  0  0  0  0  0  0  0  0  0
    0.5000   67.3030   68.4430 C   0  0  0  0  0  0  0  0  0  0  0  0
    1.1910   66.6590   69.6270 C   0  0  0  0  0  0  0  0  0  0  0  0
    0.3260   65.6460   70.3650 C   0  0  0  0  0  0  0  0  0  0  0  0
    0.2490   64.4920   69.8650 O   0  0  0  0  0  0  0  0  0  0  0  0
   -0.2310   66.1080   71.4030 O   0  0  0  0  0  1  0  0  0  0  0  0
    1.8580   66.9516   66.8046 H   0  0  0  0  0  0  0  0  0  0  0  0
    1.9584   68.4965   64.5799 H   0  0  0  0  0  0  0  0  0  0  0  0
    3.8784   68.8510   63.0261 H   0  0  0  0  0  0  0  0  0  0  0  0
    6.0453   69.7259   63.8947 H   0  0  0  0  0  0  0  0  0  0  0  0
    6.2918   70.2711   66.3167 H   0  0  0  0  0  0  0  0  0  0  0  0
    4.3766   69.9245   67.8746 H   0  0  0  0  0  0  0  0  0  0  0  0
   -0.0370   68.2021   68.7794 H   0  0  0  0  0  0  0  0  0  0  0  0
   -0.2105   66.5861   68.0056 H   0  0  0  0  0  0  0  0  0  0  0  0
    2.0941   66.1459   69.2649 H   0  0  0  0  0  0  0  0  0  0  0  0
    1.4225   67.4637   70.3403 H   0  0  0  0  0  0  0  0  0  0  0  0
  2  1  2  0
  3  2  1  0
  4  2  1  0
  5  4  2  0
  6  5  1  0
  7  6  2  0
  8  7  1  0
  9  8  2  0
  9  4  1  0
 10  3  1  0
 11 10  1  0
 12 11  1  0
 13 12  2  0
 14 12  1  0
  3 15  1  0
  5 16  1  0
  6 17  1  0
  7 18  1  0
  8 19  1  0
  9 20  1  0
 10 21  1  0
 10 22  1  0
 11 23  1  0
 11 24  1  0
M  CHG  1  14  -1
M  END
>  <score>  (7) 
-6.967

$$$$
=
     RDKit          3D

 24 24  0  0  0  0  0  0  0  0999 V2000
    0.0020   68.1680   62.8020 O   0  0  0  0  0  0  0  0  0  0  0  0
    0.7250   68.4920   63.7370 C   0  0  0  0  0  0  0  0  0  0  0  0
    0.2890   68.7310   65.0220 N   0  0  0  0  0  0  0  0  0  0  0  0
    2.1840   68.6870   63.5050 C   0  0  0  0  0  0  0  0  0  0  0  0
    2.7540   68.5760   62.2290 C   0  0  0  0  0  0  0  0  0  0  0  0
    4.1260   68.7700   62.0560 C   0  0  0  0  0  0  0  0  0  0  0  0
    4.9320   69.0820   63.1520 C   0  0  0  0  0  0  0  0  0  0  0  0
    4.3680   69.2080   64.4210 C   0  0  0  0  0  0  0  0  0  0  0  0
    2.9970   69.0160   64.5970 C   0  0  0  0  0  0  0  0  0  0  0  0
   -1.1280   68.7270   65.3720 C   0  0  0  0  0  0  0  0  0  0  0  0
   -1.3010   68.3470   66.8280 C   0  0  0  0  0  0  0  0  0  0  0  0
    0.0130   68.0980   67.5580 C   0  0  0  0  0  0  0  0  0  0  0  0
    0.6160   69.1100   68.0030 O   0  0  0  0  0  0  0  0  0  0  0  0
    0.3460   66.8790   67.6100 O   0  0  0  0  0  1  0  0  0  0  0  0
    0.9845   68.9183   65.7583 H   0  0  0  0  0  0  0  0  0  0  0  0
    2.1197   68.3358   61.3630 H   0  0  0  0  0  0  0  0  0  0  0  0
    4.5721   68.6768   61.0548 H   0  0  0  0  0  0  0  0  0  0  0  0
    6.0135   69.2287   63.0145 H   0  0  0  0  0  0  0  0  0  0  0  0
    5.0036   69.4587   65.2831 H   0  0  0  0  0  0  0  0  0  0  0  0
    2.5529   69.1235   65.5976 H   0  0  0  0  0  0  0  0  0  0  0  0
   -1.5473   69.7302   65.2051 H   0  0  0  0  0  0  0  0  0  0  0  0
   -1.6533   67.9936   64.7426 H   0  0  0  0  0  0  0  0  0  0  0  0
   -1.8324   69.1634   67.3389 H   0  0  0  0  0  0  0  0  0  0  0  0
   -1.8632   67.4018   66.8482 H   0  0  0  0  0  0  0  0  0  0  0  0
  2  1  2  0
  3  2  1  0
  4  2  1  0
  5  4  2  0
  6  5  1  0
  7  6  2  0
  8  7  1  0
  9  8  2  0
  9  4  1  0
 10  3  1  0
 11 10  1  0
 12 11  1  0
 13 12  2  0
 14 12  1  0
  3 15  1  0
  5 16  1  0
  6 17  1  0
  7 18  1  0
  8 19  1  0
  9 20  1  0
 10 21  1  0
 10 22  1  0
 11 23  1  0
 11 24  1  0
M  CHG  1  14  -1
M  END
>  <score>  (8) 
-6.886

$$$$
=
     RDKit          3D

 24 24  0  0  0  0  0  0  0  0999 V2000
    2.2060   67.1240   65.7400 O   0  0  0  0  0  0  0  0  0  0  0  0
    2.7220   68.2070   65.4910 C   0  0  0  0  0  0  0  0  0  0  0  0
    2.8910   69.2260   66.4020 N   0  0  0  0  0  0  0  0  0  0  0  0
    3.1820   68.5000   64.1040 C   0  0  0  0  0  0  0  0  0  0  0  0
    4.5180   68.8170   63.8180 C   0  0  0  0  0  0  0  0  0  0  0  0
    4.9070   69.0810   62.5030 C   0  0  0  0  0  0  0  0  0  0  0  0
    3.9710   69.0250   61.4710 C   0  0  0  0  0  0  0  0  0  0  0  0
    2.6440   68.6960   61.7480 C   0  0  0  0  0  0  0  0  0  0  0  0
    2.2510   68.4300   63.0600 C   0  0  0  0  0  0  0  0  0  0  0  0
    2.3580   69.1480   67.7590 C   0  0  0  0  0  0  0  0  0  0  0  0
    2.7080   70.4060   68.5270 C   0  0  0  0  0  0  0  0  0  0  0  0
    4.2010   70.5790   68.7730 C   0  0  0  0  0  0  0  0  0  0  0  0
    4.5850   70.5620   69.9730 O   0  0  0  0  0  0  0  0  0  0  0  0
    4.8790   70.7370   67.7170 O   0  0  0  0  0  1  0  0  0  0  0  0
    3.4095   70.0692   66.1172 H   0  0  0  0  0  0  0  0  0  0  0  0
    5.2594   68.8577   64.6295 H   0  0  0  0  0  0  0  0  0  0  0  0
    5.9543   69.3337   62.2808 H   0  0  0  0  0  0  0  0  0  0  0  0
    4.2793   69.2405   60.4373 H   0  0  0  0  0  0  0  0  0  0  0  0
    1.9077   68.6463   60.9323 H   0  0  0  0  0  0  0  0  0  0  0  0
    1.2056   68.1642   63.2754 H   0  0  0  0  0  0  0  0  0  0  0  0
    1.2641   69.0407   67.7150 H   0  0  0  0  0  0  0  0  0  0  0  0
    2.7982   68.2791   68.2701 H   0  0  0  0  0  0  0  0  0  0  0  0
    2.3477   71.2736   67.9547 H   0  0  0  0  0  0  0  0  0  0  0  0
    2.2276   70.3241   69.5132 H   0  0  0  0  0  0  0  0  0  0  0  0
  2  1  2  0
  3  2  1  0
  4  2  1  0
  5  4  2  0
  6  5  1  0
  7  6  2  0
  8  7  1  0
  9  8  2  0
  9  4  1  0
 10  3  1  0
 11 10  1  0
 12 11  1  0
 13 12  2  0
 14 12  1  0
  3 15  1  0
  5 16  1  0
  6 17  1  0
  7 18  1  0
  8 19  1  0
  9 20  1  0
 10 21  1  0
 10 22  1  0
 11 23  1  0
 11 24  1  0
M  CHG  1  14  -1
M  END
>  <score>  (9) 
-6.283

$$$$
