=
     RDKit          3D

 49 54  0  0  0  0  0  0  0  0999 V2000
    5.2860   65.7220   62.9810 O   0  0  0  0  0  0  0  0  0  0  0  0
    4.1420   65.9430   63.3760 C   0  0  0  0  0  0  0  0  0  0  0  0
    3.4210   64.9340   64.2380 C   0  0  0  0  0  0  0  0  0  0  0  0
    2.8480   65.6230   65.4770 C   0  0  0  0  0  0  0  0  0  0  0  0
    1.8270   66.7060   65.0800 C   0  0  2  0  0  0  0  0  0  0  0  0
    2.4020   67.7090   64.0730 C   0  0  2  0  0  0  0  0  0  0  0  0
    3.3550   67.2000   62.9700 C   0  0  1  0  0  0  0  0  0  0  0  0
    4.2700   68.2980   62.6740 O   0  0  0  0  0  0  0  0  0  0  0  0
    4.4020   68.9270   63.8880 C   0  0  0  0  0  0  0  0  0  0  0  0
    3.4010   68.5790   64.7720 C   0  0  0  0  0  0  0  0  0  0  0  0
    3.4320   68.9330   66.1120 C   0  0  0  0  0  0  0  0  0  0  0  0
    2.4550   68.2890   67.0620 C   0  0  0  0  0  0  0  0  0  0  0  0
    1.3060   67.5780   66.2900 C   0  0  1  0  0  0  0  0  0  0  0  0
    0.3540   68.7200   65.7880 N   0  0  1  0  0  4  0  0  0  0  0  0
    0.0170   68.6860   64.3220 C   0  0  0  0  0  0  0  0  0  0  0  0
    1.2780   68.5880   63.4650 C   0  0  0  0  0  0  0  0  0  0  0  0
    4.4660   69.7780   66.5230 C   0  0  0  0  0  0  0  0  0  0  0  0
    5.4410   70.2110   65.5990 C   0  0  0  0  0  0  0  0  0  0  0  0
    5.4180   69.7640   64.2780 C   0  0  0  0  0  0  0  0  0  0  0  0
    6.4110   70.1290   63.4290 O   0  0  0  0  0  0  0  0  0  0  0  0
    0.7190   66.0260   64.4650 O   0  0  0  0  0  0  0  0  0  0  0  0
   -0.8720   68.8490   66.6650 C   0  0  0  0  0  0  0  0  0  0  0  0
   -1.6900   67.6010   66.7460 C   0  0  0  0  0  0  0  0  0  0  0  0
   -2.9430   67.5480   67.5880 C   0  0  0  0  0  0  0  0  0  0  0  0
   -1.7220   66.7800   68.0110 C   0  0  0  0  0  0  0  0  0  0  0  0
    2.6015   64.4807   63.6610 H   0  0  0  0  0  0  0  0  0  0  0  0
    4.1300   64.1541   64.5526 H   0  0  0  0  0  0  0  0  0  0  0  0
    2.3500   64.8726   66.1086 H   0  0  0  0  0  0  0  0  0  0  0  0
    3.6723   66.1012   66.0265 H   0  0  0  0  0  0  0  0  0  0  0  0
    2.7644   66.9005   62.0916 H   0  0  0  0  0  0  0  0  0  0  0  0
    2.9872   67.5477   67.6762 H   0  0  0  0  0  0  0  0  0  0  0  0
    2.0159   69.0737   67.6955 H   0  0  0  0  0  0  0  0  0  0  0  0
    0.7882   66.8681   66.9517 H   0  0  0  0  0  0  0  0  0  0  0  0
    0.9086   69.5825   65.8849 H   0  0  0  0  0  0  0  0  0  0  0  0
   -0.6215   67.8131   64.1212 H   0  0  0  0  0  0  0  0  0  0  0  0
   -0.5065   69.6185   64.0642 H   0  0  0  0  0  0  0  0  0  0  0  0
    0.9985   68.1625   62.4899 H   0  0  0  0  0  0  0  0  0  0  0  0
    1.6845   69.6073   63.3888 H   0  0  0  0  0  0  0  0  0  0  0  0
    4.5204   70.1072   67.5712 H   0  0  0  0  0  0  0  0  0  0  0  0
    6.2272   70.9083   65.9240 H   0  0  0  0  0  0  0  0  0  0  0  0
    7.1303   70.7342   63.7396 H   0  0  0  0  0  0  0  0  0  0  0  0
    0.1246   65.6612   65.1676 H   0  0  0  0  0  0  0  0  0  0  0  0
   -0.5451   69.1159   67.6808 H   0  0  0  0  0  0  0  0  0  0  0  0
   -1.5104   69.6215   66.2114 H   0  0  0  0  0  0  0  0  0  0  0  0
   -1.4515   67.3999   65.6911 H   0  0  0  0  0  0  0  0  0  0  0  0
   -3.2603   68.4337   68.1580 H   0  0  0  0  0  0  0  0  0  0  0  0
   -3.9960   67.2917   67.3996 H   0  0  0  0  0  0  0  0  0  0  0  0
   -1.1467   67.1038   68.8909 H   0  0  0  0  0  0  0  0  0  0  0  0
   -1.5133   65.7291   68.2603 H   0  0  0  0  0  0  0  0  0  0  0  0
  2  1  2  0
  3  2  1  0
  4  3  1  0
  5  4  1  0
  6  5  1  0
  7  6  1  0
  7  2  1  0
  8  7  1  0
  9  8  1  0
 10  9  2  0
 10  6  1  0
 11 10  1  0
 12 11  1  0
 13  5  1  0
 13 12  1  0
 14 13  1  0
 15 14  1  0
 16 15  1  0
  6 16  1  6
 17 11  2  0
 18 17  1  0
 19  9  1  0
 19 18  2  0
 20 19  1  0
  5 21  1  6
 22 14  1  0
 23 22  1  0
 24 23  1  0
 25 24  1  0
 25 23  1  0
  3 26  1  0
  3 27  1  0
  4 28  1  0
  4 29  1  0
  7 30  1  6
 12 31  1  0
 12 32  1  0
 13 33  1  1
 14 34  1  6
 15 35  1  0
 15 36  1  0
 16 37  1  0
 16 38  1  0
 17 39  1  0
 18 40  1  0
 20 41  1  0
 21 42  1  0
 22 43  1  0
 22 44  1  0
 23 45  1  0
 24 46  1  0
 24 47  1  0
 25 48  1  0
 25 49  1  0
M  CHG  1  14   1
M  END
>  <score>  (1) 
-9.193

$$$$
=
     RDKit          3D

 49 54  0  0  0  0  0  0  0  0999 V2000
    3.0210   57.6890   75.3860 O   0  0  0  0  0  0  0  0  0  0  0  0
    2.3830   58.7200   75.1760 C   0  0  0  0  0  0  0  0  0  0  0  0
    2.6310   59.9590   76.0040 C   0  0  0  0  0  0  0  0  0  0  0  0
    2.8450   61.1620   75.0870 C   0  0  0  0  0  0  0  0  0  0  0  0
    1.5950   61.4240   74.2260 C   0  0  2  0  0  0  0  0  0  0  0  0
    1.1480   60.1790   73.4520 C   0  0  2  0  0  0  0  0  0  0  0  0
    1.2590   58.7970   74.1290 C   0  0  1  0  0  0  0  0  0  0  0  0
    1.4940   57.8290   73.0610 O   0  0  0  0  0  0  0  0  0  0  0  0
    2.2240   58.5500   72.1460 C   0  0  0  0  0  0  0  0  0  0  0  0
    2.1300   59.9110   72.3540 C   0  0  0  0  0  0  0  0  0  0  0  0
    2.9290   60.8250   71.6830 C   0  0  0  0  0  0  0  0  0  0  0  0
    2.9630   62.2540   72.1590 C   0  0  0  0  0  0  0  0  0  0  0  0
    1.7870   62.5510   73.1340 C   0  0  1  0  0  0  0  0  0  0  0  0
    0.5070   62.6830   72.2350 N   0  0  1  0  0  4  0  0  0  0  0  0
   -0.6690   61.8440   72.6540 C   0  0  0  0  0  0  0  0  0  0  0  0
   -0.2670   60.3820   72.8470 C   0  0  0  0  0  0  0  0  0  0  0  0
    3.7600   60.3250   70.6780 C   0  0  0  0  0  0  0  0  0  0  0  0
    3.7890   58.9420   70.4000 C   0  0  0  0  0  0  0  0  0  0  0  0
    3.0300   58.0480   71.1550 C   0  0  0  0  0  0  0  0  0  0  0  0
    3.1350   56.7150   70.9230 O   0  0  0  0  0  0  0  0  0  0  0  0
    0.5410   61.8040   75.1280 O   0  0  0  0  0  0  0  0  0  0  0  0
    0.1360   64.1310   72.0020 C   0  0  0  0  0  0  0  0  0  0  0  0
    0.4310   64.6140   70.6180 C   0  0  0  0  0  0  0  0  0  0  0  0
    1.7210   65.3340   70.3060 C   0  0  0  0  0  0  0  0  0  0  0  0
    0.4210   66.0880   70.2980 C   0  0  0  0  0  0  0  0  0  0  0  0
    1.7620   60.1445   76.6524 H   0  0  0  0  0  0  0  0  0  0  0  0
    3.5294   59.8090   76.6207 H   0  0  0  0  0  0  0  0  0  0  0  0
    3.0525   62.0508   75.7010 H   0  0  0  0  0  0  0  0  0  0  0  0
    3.6938   60.9499   74.4202 H   0  0  0  0  0  0  0  0  0  0  0  0
    0.3313   58.5901   74.6827 H   0  0  0  0  0  0  0  0  0  0  0  0
    3.9150   62.4363   72.6791 H   0  0  0  0  0  0  0  0  0  0  0  0
    2.8657   62.9145   71.2848 H   0  0  0  0  0  0  0  0  0  0  0  0
    1.9901   63.4696   73.7040 H   0  0  0  0  0  0  0  0  0  0  0  0
    0.7816   62.2740   71.3304 H   0  0  0  0  0  0  0  0  0  0  0  0
   -1.0680   62.2341   73.6020 H   0  0  0  0  0  0  0  0  0  0  0  0
   -1.4306   61.8932   71.8618 H   0  0  0  0  0  0  0  0  0  0  0  0
   -0.9990   59.9100   73.5188 H   0  0  0  0  0  0  0  0  0  0  0  0
   -0.2476   59.9276   71.8454 H   0  0  0  0  0  0  0  0  0  0  0  0
    4.3950   61.0128   70.1003 H   0  0  0  0  0  0  0  0  0  0  0  0
    4.4168   58.5649   69.5792 H   0  0  0  0  0  0  0  0  0  0  0  0
    3.7250   56.3833   70.2005 H   0  0  0  0  0  0  0  0  0  0  0  0
    0.8498   61.6927   76.0620 H   0  0  0  0  0  0  0  0  0  0  0  0
   -0.9420   64.2470   72.1875 H   0  0  0  0  0  0  0  0  0  0  0  0
    0.7485   64.7334   72.6891 H   0  0  0  0  0  0  0  0  0  0  0  0
   -0.0802   63.7251   70.2197 H   0  0  0  0  0  0  0  0  0  0  0  0
    2.4565   65.5148   71.1037 H   0  0  0  0  0  0  0  0  0  0  0  0
    2.5386   65.1868   69.5850 H   0  0  0  0  0  0  0  0  0  0  0  0
    0.2059   66.8207   71.0897 H   0  0  0  0  0  0  0  0  0  0  0  0
   -0.1054   66.7208   69.5683 H   0  0  0  0  0  0  0  0  0  0  0  0
  2  1  2  0
  3  2  1  0
  4  3  1  0
  5  4  1  0
  6  5  1  0
  7  6  1  0
  7  2  1  0
  8  7  1  0
  9  8  1  0
 10  9  2  0
 10  6  1  0
 11 10  1  0
 12 11  1  0
 13  5  1  0
 13 12  1  0
 14 13  1  0
 15 14  1  0
 16 15  1  0
  6 16  1  6
 17 11  2  0
 18 17  1  0
 19  9  1  0
 19 18  2  0
 20 19  1  0
  5 21  1  1
 22 14  1  0
 23 22  1  0
 24 23  1  0
 25 24  1  0
 25 23  1  0
  3 26  1  0
  3 27  1  0
  4 28  1  0
  4 29  1  0
  7 30  1  1
 12 31  1  0
 12 32  1  0
 13 33  1  1
 14 34  1  6
 15 35  1  0
 15 36  1  0
 16 37  1  0
 16 38  1  0
 17 39  1  0
 18 40  1  0
 20 41  1  0
 21 42  1  0
 22 43  1  0
 22 44  1  0
 23 45  1  0
 24 46  1  0
 24 47  1  0
 25 48  1  0
 25 49  1  0
M  CHG  1  14   1
M  END
>  <score>  (2) 
-8.083

$$$$
=
     RDKit          3D

 49 54  0  0  0  0  0  0  0  0999 V2000
   -1.6880   61.0760   76.4650 O   0  0  0  0  0  0  0  0  0  0  0  0
   -1.2040   61.8270   75.6210 C   0  0  0  0  0  0  0  0  0  0  0  0
   -0.4390   63.0610   76.0400 C   0  0  0  0  0  0  0  0  0  0  0  0
    0.9080   63.1070   75.3190 C   0  0  0  0  0  0  0  0  0  0  0  0
    0.7110   63.1810   73.7930 C   0  0  2  0  0  0  0  0  0  0  0  0
   -0.1890   62.0580   73.2650 C   0  0  2  0  0  0  0  0  0  0  0  0
   -1.4000   61.6100   74.1110 C   0  0  1  0  0  0  0  0  0  0  0  0
   -1.6050   60.1930   73.8250 O   0  0  0  0  0  0  0  0  0  0  0  0
   -0.3290   59.7360   73.5960 C   0  0  0  0  0  0  0  0  0  0  0  0
    0.5570   60.7620   73.3380 C   0  0  0  0  0  0  0  0  0  0  0  0
    1.9290   60.5640   73.2700 C   0  0  0  0  0  0  0  0  0  0  0  0
    2.8420   61.7630   73.2610 C   0  0  0  0  0  0  0  0  0  0  0  0
    2.0510   63.0700   72.9620 C   0  0  1  0  0  0  0  0  0  0  0  0
    1.7540   63.0490   71.4210 N   0  0  1  0  0  4  0  0  0  0  0  0
    0.3180   63.2720   71.0340 C   0  0  0  0  0  0  0  0  0  0  0  0
   -0.6150   62.3340   71.7990 C   0  0  0  0  0  0  0  0  0  0  0  0
    2.3850   59.2460   73.3470 C   0  0  0  0  0  0  0  0  0  0  0  0
    1.4710   58.1850   73.5180 C   0  0  0  0  0  0  0  0  0  0  0  0
    0.1070   58.4370   73.6630 C   0  0  0  0  0  0  0  0  0  0  0  0
   -0.7440   57.4080   73.9080 O   0  0  0  0  0  0  0  0  0  0  0  0
    0.0780   64.4430   73.5170 O   0  0  0  0  0  0  0  0  0  0  0  0
    2.7090   63.9400   70.6580 C   0  0  0  0  0  0  0  0  0  0  0  0
    3.8030   63.1960   69.9610 C   0  0  0  0  0  0  0  0  0  0  0  0
    3.7080   62.8790   68.4870 C   0  0  0  0  0  0  0  0  0  0  0  0
    3.5960   61.7750   69.5010 C   0  0  0  0  0  0  0  0  0  0  0  0
   -1.0221   63.9571   75.7813 H   0  0  0  0  0  0  0  0  0  0  0  0
   -0.2678   63.0299   77.1262 H   0  0  0  0  0  0  0  0  0  0  0  0
    1.4658   63.9940   75.6538 H   0  0  0  0  0  0  0  0  0  0  0  0
    1.4665   62.1899   75.5577 H   0  0  0  0  0  0  0  0  0  0  0  0
   -2.2741   62.2209   73.8415 H   0  0  0  0  0  0  0  0  0  0  0  0
    3.3256   61.8533   74.2449 H   0  0  0  0  0  0  0  0  0  0  0  0
    3.5942   61.6224   72.4708 H   0  0  0  0  0  0  0  0  0  0  0  0
    2.6441   63.9478   73.2581 H   0  0  0  0  0  0  0  0  0  0  0  0
    1.9283   62.0749   71.1354 H   0  0  0  0  0  0  0  0  0  0  0  0
    0.0435   64.3130   71.2597 H   0  0  0  0  0  0  0  0  0  0  0  0
    0.2121   63.0662   69.9586 H   0  0  0  0  0  0  0  0  0  0  0  0
   -1.6190   62.7832   71.8117 H   0  0  0  0  0  0  0  0  0  0  0  0
   -0.5833   61.3665   71.2765 H   0  0  0  0  0  0  0  0  0  0  0  0
    3.4620   59.0343   73.2740 H   0  0  0  0  0  0  0  0  0  0  0  0
    1.8380   57.1482   73.5372 H   0  0  0  0  0  0  0  0  0  0  0  0
   -0.4001   56.4806   73.9506 H   0  0  0  0  0  0  0  0  0  0  0  0
   -0.1475   64.8926   74.3697 H   0  0  0  0  0  0  0  0  0  0  0  0
    2.1347   64.4986   69.9042 H   0  0  0  0  0  0  0  0  0  0  0  0
    3.1898   64.5996   71.3954 H   0  0  0  0  0  0  0  0  0  0  0  0
    4.5350   63.7103   70.6010 H   0  0  0  0  0  0  0  0  0  0  0  0
    2.8226   63.1907   67.9134 H   0  0  0  0  0  0  0  0  0  0  0  0
    4.3432   63.0667   67.6088 H   0  0  0  0  0  0  0  0  0  0  0  0
    2.6286   61.2788   69.6683 H   0  0  0  0  0  0  0  0  0  0  0  0
    4.1159   60.8205   69.6703 H   0  0  0  0  0  0  0  0  0  0  0  0
  2  1  2  0
  3  2  1  0
  4  3  1  0
  5  4  1  0
  6  5  1  0
  7  6  1  0
  7  2  1  0
  8  7  1  0
  9  8  1  0
 10  9  2  0
 10  6  1  0
 11 10  1  0
 12 11  1  0
 13  5  1  0
 13 12  1  0
 14 13  1  0
 15 14  1  0
 16 15  1  0
  6 16  1  6
 17 11  2  0
 18 17  1  0
 19  9  1  0
 19 18  2  0
 20 19  1  0
  5 21  1  1
 22 14  1  0
 23 22  1  0
 24 23  1  0
 25 24  1  0
 25 23  1  0
  3 26  1  0
  3 27  1  0
  4 28  1  0
  4 29  1  0
  7 30  1  6
 12 31  1  0
 12 32  1  0
 13 33  1  6
 14 34  1  6
 15 35  1  0
 15 36  1  0
 16 37  1  0
 16 38  1  0
 17 39  1  0
 18 40  1  0
 20 41  1  0
 21 42  1  0
 22 43  1  0
 22 44  1  0
 23 45  1  0
 24 46  1  0
 24 47  1  0
 25 48  1  0
 25 49  1  0
M  CHG  1  14   1
M  END
>  <score>  (3) 
-7.718

$$$$
=
     RDKit          3D

 49 54  0  0  0  0  0  0  0  0999 V2000
   -0.9030   70.0270   66.7730 O   0  0  0  0  0  0  0  0  0  0  0  0
   -0.3580   69.1410   66.1160 C   0  0  0  0  0  0  0  0  0  0  0  0
   -0.5330   69.0790   64.6170 C   0  0  0  0  0  0  0  0  0  0  0  0
    0.8310   68.9580   63.9390 C   0  0  0  0  0  0  0  0  0  0  0  0
    1.5480   67.6660   64.3740 C   0  0  2  0  0  0  0  0  0  0  0  0
    1.6460   67.5390   65.8990 C   0  0  2  0  0  0  0  0  0  0  0  0
    0.4620   68.0150   66.7670 C   0  0  1  0  0  0  0  0  0  0  0  0
    1.0320   68.4690   68.0320 O   0  0  0  0  0  0  0  0  0  0  0  0
    2.2560   68.9710   67.6580 C   0  0  0  0  0  0  0  0  0  0  0  0
    2.6410   68.5350   66.4060 C   0  0  0  0  0  0  0  0  0  0  0  0
    3.7390   69.0590   65.7390 C   0  0  0  0  0  0  0  0  0  0  0  0
    3.9310   68.7340   64.2800 C   0  0  0  0  0  0  0  0  0  0  0  0
    3.0320   67.5410   63.8460 C   0  0  1  0  0  0  0  0  0  0  0  0
    3.7220   66.2520   64.4180 N   0  0  1  0  0  4  0  0  0  0  0  0
    2.8320   65.3390   65.2160 C   0  0  0  0  0  0  0  0  0  0  0  0
    2.0860   66.1080   66.3070 C   0  0  0  0  0  0  0  0  0  0  0  0
    4.5330   69.9700   66.4390 C   0  0  0  0  0  0  0  0  0  0  0  0
    4.1910   70.3480   67.7550 C   0  0  0  0  0  0  0  0  0  0  0  0
    3.0330   69.8590   68.3590 C   0  0  0  0  0  0  0  0  0  0  0  0
    2.6820   70.2990   69.5930 O   0  0  0  0  0  0  0  0  0  0  0  0
    0.7650   66.5680   63.8730 O   0  0  0  0  0  0  0  0  0  0  0  0
    4.5020   65.5170   63.3500 C   0  0  0  0  0  0  0  0  0  0  0  0
    5.2330   64.3150   63.8560 C   0  0  0  0  0  0  0  0  0  0  0  0
    5.2370   63.0240   63.0730 C   0  0  0  0  0  0  0  0  0  0  0  0
    4.4790   63.1140   64.3680 C   0  0  0  0  0  0  0  0  0  0  0  0
   -1.1482   68.2049   64.3574 H   0  0  0  0  0  0  0  0  0  0  0  0
   -1.0288   69.9982   64.2718 H   0  0  0  0  0  0  0  0  0  0  0  0
    0.6909   68.9424   62.8481 H   0  0  0  0  0  0  0  0  0  0  0  0
    1.4482   69.8192   64.2346 H   0  0  0  0  0  0  0  0  0  0  0  0
   -0.2448   67.1830   66.9021 H   0  0  0  0  0  0  0  0  0  0  0  0
    3.6701   69.6172   63.6784 H   0  0  0  0  0  0  0  0  0  0  0  0
    4.9827   68.4532   64.1213 H   0  0  0  0  0  0  0  0  0  0  0  0
    2.9443   67.5130   62.7499 H   0  0  0  0  0  0  0  0  0  0  0  0
    4.3906   66.6043   65.1178 H   0  0  0  0  0  0  0  0  0  0  0  0
    2.0993   64.8724   64.5411 H   0  0  0  0  0  0  0  0  0  0  0  0
    3.4594   64.5738   65.6965 H   0  0  0  0  0  0  0  0  0  0  0  0
    1.1862   65.5356   66.5768 H   0  0  0  0  0  0  0  0  0  0  0  0
    2.7892   66.2238   67.1449 H   0  0  0  0  0  0  0  0  0  0  0  0
    5.4289   70.3948   65.9625 H   0  0  0  0  0  0  0  0  0  0  0  0
    4.8452   71.0361   68.3106 H   0  0  0  0  0  0  0  0  0  0  0  0
    3.2635   70.9399   70.0739 H   0  0  0  0  0  0  0  0  0  0  0  0
    0.3967   66.0515   64.6330 H   0  0  0  0  0  0  0  0  0  0  0  0
    3.7989   65.1919   62.5690 H   0  0  0  0  0  0  0  0  0  0  0  0
    5.2607   66.2164   62.9690 H   0  0  0  0  0  0  0  0  0  0  0  0
    6.0082   64.9811   64.2626 H   0  0  0  0  0  0  0  0  0  0  0  0
    4.6916   62.9571   62.1201 H   0  0  0  0  0  0  0  0  0  0  0  0
    6.0172   62.3595   62.6733 H   0  0  0  0  0  0  0  0  0  0  0  0
    3.3790   63.1123   64.3621 H   0  0  0  0  0  0  0  0  0  0  0  0
    4.4756   62.5416   65.3073 H   0  0  0  0  0  0  0  0  0  0  0  0
  2  1  2  0
  3  2  1  0
  4  3  1  0
  5  4  1  0
  6  5  1  0
  7  6  1  0
  7  2  1  0
  8  7  1  0
  9  8  1  0
 10  9  2  0
 10  6  1  0
 11 10  1  0
 12 11  1  0
 13  5  1  0
 13 12  1  0
 14 13  1  0
 15 14  1  0
 16 15  1  0
  6 16  1  6
 17 11  2  0
 18 17  1  0
 19  9  1  0
 19 18  2  0
 20 19  1  0
  5 21  1  6
 22 14  1  0
 23 22  1  0
 24 23  1  0
 25 24  1  0
 25 23  1  0
  3 26  1  0
  3 27  1  0
  4 28  1  0
  4 29  1  0
  7 30  1  1
 12 31  1  0
 12 32  1  0
 13 33  1  6
 14 34  1  1
 15 35  1  0
 15 36  1  0
 16 37  1  0
 16 38  1  0
 17 39  1  0
 18 40  1  0
 20 41  1  0
 21 42  1  0
 22 43  1  0
 22 44  1  0
 23 45  1  0
 24 46  1  0
 24 47  1  0
 25 48  1  0
 25 49  1  0
M  CHG  1  14   1
M  END
>  <score>  (4) 
-7.462

$$$$
=
     RDKit          3D

 49 54  0  0  0  0  0  0  0  0999 V2000
    2.4290   63.2160   69.4710 O   0  0  0  0  0  0  0  0  0  0  0  0
    1.7930   63.3410   70.5160 C   0  0  0  0  0  0  0  0  0  0  0  0
    0.3270   63.7080   70.4830 C   0  0  0  0  0  0  0  0  0  0  0  0
   -0.4710   62.7380   71.3530 C   0  0  0  0  0  0  0  0  0  0  0  0
   -0.0090   62.8110   72.8210 C   0  0  2  0  0  0  0  0  0  0  0  0
    1.5030   62.6100   72.9680 C   0  0  2  0  0  0  0  0  0  0  0  0
    2.4450   63.2100   71.9020 C   0  0  1  0  0  0  0  0  0  0  0  0
    3.6080   62.3300   71.8330 O   0  0  0  0  0  0  0  0  0  0  0  0
    3.0770   61.0920   72.1060 C   0  0  0  0  0  0  0  0  0  0  0  0
    1.8310   61.1740   72.6950 C   0  0  0  0  0  0  0  0  0  0  0  0
    1.0200   60.0650   72.8820 C   0  0  0  0  0  0  0  0  0  0  0  0
   -0.4210   60.2690   73.2720 C   0  0  0  0  0  0  0  0  0  0  0  0
   -0.6700   61.7260   73.7610 C   0  0  1  0  0  0  0  0  0  0  0  0
   -0.0710   61.8010   75.2100 N   0  0  1  0  0  4  0  0  0  0  0  0
    0.8810   62.9390   75.4600 C   0  0  0  0  0  0  0  0  0  0  0  0
    1.9760   62.9900   74.3960 C   0  0  0  0  0  0  0  0  0  0  0  0
    1.5650   58.8180   72.5650 C   0  0  0  0  0  0  0  0  0  0  0  0
    2.8750   58.7240   72.0490 C   0  0  0  0  0  0  0  0  0  0  0  0
    3.6260   59.8730   71.8000 C   0  0  0  0  0  0  0  0  0  0  0  0
    4.8520   59.7620   71.2280 O   0  0  0  0  0  0  0  0  0  0  0  0
   -0.3430   64.1260   73.2960 O   0  0  0  0  0  0  0  0  0  0  0  0
   -1.1500   61.7010   76.2650 C   0  0  0  0  0  0  0  0  0  0  0  0
   -2.4200   62.3990   75.8970 C   0  0  0  0  0  0  0  0  0  0  0  0
   -2.8470   63.6600   76.6100 C   0  0  0  0  0  0  0  0  0  0  0  0
   -3.6070   62.3820   76.8270 C   0  0  0  0  0  0  0  0  0  0  0  0
    0.1984   64.7314   70.8653 H   0  0  0  0  0  0  0  0  0  0  0  0
   -0.0379   63.6498   69.4469 H   0  0  0  0  0  0  0  0  0  0  0  0
   -1.5382   62.9986   71.2976 H   0  0  0  0  0  0  0  0  0  0  0  0
   -0.3062   61.7155   70.9825 H   0  0  0  0  0  0  0  0  0  0  0  0
    2.7141   64.2357   72.1945 H   0  0  0  0  0  0  0  0  0  0  0  0
   -1.0607   60.0688   72.3999 H   0  0  0  0  0  0  0  0  0  0  0  0
   -0.6606   59.5793   74.0947 H   0  0  0  0  0  0  0  0  0  0  0  0
   -1.7464   61.9520   73.7450 H   0  0  0  0  0  0  0  0  0  0  0  0
    0.5289   60.9673   75.2870 H   0  0  0  0  0  0  0  0  0  0  0  0
    0.3206   63.8854   75.4432 H   0  0  0  0  0  0  0  0  0  0  0  0
    1.3560   62.7856   76.4402 H   0  0  0  0  0  0  0  0  0  0  0  0
    2.3768   64.0139   74.3642 H   0  0  0  0  0  0  0  0  0  0  0  0
    2.7291   62.2424   74.6857 H   0  0  0  0  0  0  0  0  0  0  0  0
    0.9702   57.9055   72.7184 H   0  0  0  0  0  0  0  0  0  0  0  0
    3.3085   57.7346   71.8410 H   0  0  0  0  0  0  0  0  0  0  0  0
    5.2215   58.8677   71.0189 H   0  0  0  0  0  0  0  0  0  0  0  0
   -0.3437   64.1289   74.2860 H   0  0  0  0  0  0  0  0  0  0  0  0
   -1.3746   60.6372   76.4316 H   0  0  0  0  0  0  0  0  0  0  0  0
   -0.7624   62.1958   77.1678 H   0  0  0  0  0  0  0  0  0  0  0  0
   -2.2467   62.1185   74.8476 H   0  0  0  0  0  0  0  0  0  0  0  0
   -2.2241   64.0731   77.4171 H   0  0  0  0  0  0  0  0  0  0  0  0
   -3.1141   64.6793   76.2941 H   0  0  0  0  0  0  0  0  0  0  0  0
   -3.5405   61.8605   77.7933 H   0  0  0  0  0  0  0  0  0  0  0  0
   -4.6608   62.0801   76.7357 H   0  0  0  0  0  0  0  0  0  0  0  0
  2  1  2  0
  3  2  1  0
  4  3  1  0
  5  4  1  0
  6  5  1  0
  7  6  1  0
  7  2  1  0
  8  7  1  0
  9  8  1  0
 10  9  2  0
 10  6  1  0
 11 10  1  0
 12 11  1  0
 13  5  1  0
 13 12  1  0
 14 13  1  0
 15 14  1  0
 16 15  1  0
  6 16  1  1
 17 11  2  0
 18 17  1  0
 19  9  1  0
 19 18  2  0
 20 19  1  0
  5 21  1  1
 22 14  1  0
 23 22  1  0
 24 23  1  0
 25 24  1  0
 25 23  1  0
  3 26  1  0
  3 27  1  0
  4 28  1  0
  4 29  1  0
  7 30  1  1
 12 31  1  0
 12 32  1  0
 13 33  1  1
 14 34  1  1
 15 35  1  0
 15 36  1  0
 16 37  1  0
 16 38  1  0
 17 39  1  0
 18 40  1  0
 20 41  1  0
 21 42  1  0
 22 43  1  0
 22 44  1  0
 23 45  1  0
 24 46  1  0
 24 47  1  0
 25 48  1  0
 25 49  1  0
M  CHG  1  14   1
M  END
>  <score>  (5) 
-7.458

$$$$
=
     RDKit          3D

 49 54  0  0  0  0  0  0  0  0999 V2000
   -0.8890   59.8420   76.7750 O   0  0  0  0  0  0  0  0  0  0  0  0
   -0.1570   59.6900   75.7980 C   0  0  0  0  0  0  0  0  0  0  0  0
   -0.6280   58.8970   74.6020 C   0  0  0  0  0  0  0  0  0  0  0  0
   -0.3970   59.7000   73.3220 C   0  0  0  0  0  0  0  0  0  0  0  0
    1.1010   59.9940   73.1210 C   0  0  2  0  0  0  0  0  0  0  0  0
    1.7340   60.6630   74.3460 C   0  0  2  0  0  0  0  0  0  0  0  0
    1.2850   60.2220   75.7550 C   0  0  1  0  0  0  0  0  0  0  0  0
    1.4200   61.3920   76.6190 O   0  0  0  0  0  0  0  0  0  0  0  0
    1.1440   62.4370   75.7700 C   0  0  0  0  0  0  0  0  0  0  0  0
    1.2340   62.0720   74.4420 C   0  0  0  0  0  0  0  0  0  0  0  0
    0.8140   62.8980   73.4110 C   0  0  0  0  0  0  0  0  0  0  0  0
    0.6870   62.3290   72.0210 C   0  0  0  0  0  0  0  0  0  0  0  0
    1.4140   60.9570   71.9080 C   0  0  1  0  0  0  0  0  0  0  0  0
    2.9470   61.2880   71.8360 N   0  0  1  0  0  4  0  0  0  0  0  0
    3.8170   60.5430   72.8110 C   0  0  0  0  0  0  0  0  0  0  0  0
    3.2820   60.6650   74.2380 C   0  0  0  0  0  0  0  0  0  0  0  0
    0.4040   64.1880   73.7570 C   0  0  0  0  0  0  0  0  0  0  0  0
    0.3990   64.5950   75.1080 C   0  0  0  0  0  0  0  0  0  0  0  0
    0.7530   63.7040   76.1210 C   0  0  0  0  0  0  0  0  0  0  0  0
    0.6620   64.0920   77.4180 O   0  0  0  0  0  0  0  0  0  0  0  0
    1.7480   58.7270   72.9080 O   0  0  0  0  0  0  0  0  0  0  0  0
    3.4670   61.2150   70.4170 C   0  0  0  0  0  0  0  0  0  0  0  0
    3.7590   62.5510   69.8130 C   0  0  0  0  0  0  0  0  0  0  0  0
    4.9460   63.3660   70.2710 C   0  0  0  0  0  0  0  0  0  0  0  0
    3.5520   63.8170   70.6060 C   0  0  0  0  0  0  0  0  0  0  0  0
   -0.0667   57.9526   74.5465 H   0  0  0  0  0  0  0  0  0  0  0  0
   -1.7022   58.6853   74.7079 H   0  0  0  0  0  0  0  0  0  0  0  0
   -0.7693   59.1230   72.4627 H   0  0  0  0  0  0  0  0  0  0  0  0
   -0.9349   60.6559   73.4048 H   0  0  0  0  0  0  0  0  0  0  0  0
    1.9133   59.3826   76.0877 H   0  0  0  0  0  0  0  0  0  0  0  0
   -0.3786   62.1914   71.7852 H   0  0  0  0  0  0  0  0  0  0  0  0
    1.1525   63.0302   71.3127 H   0  0  0  0  0  0  0  0  0  0  0  0
    1.0646   60.4154   71.0166 H   0  0  0  0  0  0  0  0  0  0  0  0
    3.0175   62.2658   72.1520 H   0  0  0  0  0  0  0  0  0  0  0  0
    3.8439   59.4804   72.5280 H   0  0  0  0  0  0  0  0  0  0  0  0
    4.8262   60.9795   72.7799 H   0  0  0  0  0  0  0  0  0  0  0  0
    3.6686   59.8179   74.8237 H   0  0  0  0  0  0  0  0  0  0  0  0
    3.6213   61.6401   74.6176 H   0  0  0  0  0  0  0  0  0  0  0  0
    0.0836   64.8895   72.9726 H   0  0  0  0  0  0  0  0  0  0  0  0
    0.1130   65.6256   75.3650 H   0  0  0  0  0  0  0  0  0  0  0  0
    0.3768   65.0136   77.6401 H   0  0  0  0  0  0  0  0  0  0  0  0
    1.9593   58.3133   73.7822 H   0  0  0  0  0  0  0  0  0  0  0  0
    4.3948   60.6241   70.4174 H   0  0  0  0  0  0  0  0  0  0  0  0
    2.6751   60.7539   69.8084 H   0  0  0  0  0  0  0  0  0  0  0  0
    3.4031   62.1699   68.8445 H   0  0  0  0  0  0  0  0  0  0  0  0
    5.6046   62.9808   71.0634 H   0  0  0  0  0  0  0  0  0  0  0  0
    5.8130   63.8246   69.7730 H   0  0  0  0  0  0  0  0  0  0  0  0
    3.1915   63.7624   71.6438 H   0  0  0  0  0  0  0  0  0  0  0  0
    2.9781   64.7431   70.4543 H   0  0  0  0  0  0  0  0  0  0  0  0
  2  1  2  0
  3  2  1  0
  4  3  1  0
  5  4  1  0
  6  5  1  0
  7  6  1  0
  7  2  1  0
  8  7  1  0
  9  8  1  0
 10  9  2  0
 10  6  1  0
 11 10  1  0
 12 11  1  0
 13  5  1  0
 13 12  1  0
 14 13  1  0
 15 14  1  0
 16 15  1  0
  6 16  1  1
 17 11  2  0
 18 17  1  0
 19  9  1  0
 19 18  2  0
 20 19  1  0
  5 21  1  6
 22 14  1  0
 23 22  1  0
 24 23  1  0
 25 24  1  0
 25 23  1  0
  3 26  1  0
  3 27  1  0
  4 28  1  0
  4 29  1  0
  7 30  1  1
 12 31  1  0
 12 32  1  0
 13 33  1  6
 14 34  1  1
 15 35  1  0
 15 36  1  0
 16 37  1  0
 16 38  1  0
 17 39  1  0
 18 40  1  0
 20 41  1  0
 21 42  1  0
 22 43  1  0
 22 44  1  0
 23 45  1  0
 24 46  1  0
 24 47  1  0
 25 48  1  0
 25 49  1  0
M  CHG  1  14   1
M  END
>  <score>  (6) 
-7.438

$$$$
=
     RDKit          3D

 49 54  0  0  0  0  0  0  0  0999 V2000
    1.7460   57.1850   76.2420 O   0  0  0  0  0  0  0  0  0  0  0  0
    2.2030   57.5000   75.1440 C   0  0  0  0  0  0  0  0  0  0  0  0
    1.6860   56.8490   73.8830 C   0  0  0  0  0  0  0  0  0  0  0  0
    1.3200   57.9210   72.8570 C   0  0  0  0  0  0  0  0  0  0  0  0
    2.5550   58.7570   72.4730 C   0  0  2  0  0  0  0  0  0  0  0  0
    3.2650   59.3460   73.6980 C   0  0  2  0  0  0  0  0  0  0  0  0
    3.3590   58.5020   74.9860 C   0  0  1  0  0  0  0  0  0  0  0  0
    3.3680   59.4440   76.1000 O   0  0  0  0  0  0  0  0  0  0  0  0
    2.5820   60.4740   75.6420 C   0  0  0  0  0  0  0  0  0  0  0  0
    2.4180   60.4390   74.2720 C   0  0  0  0  0  0  0  0  0  0  0  0
    1.5140   61.2540   73.6070 C   0  0  0  0  0  0  0  0  0  0  0  0
    1.1950   60.9680   72.1620 C   0  0  0  0  0  0  0  0  0  0  0  0
    2.2360   59.9920   71.5400 C   0  0  1  0  0  0  0  0  0  0  0  0
    3.5260   60.8470   71.2820 N   0  0  1  0  0  4  0  0  0  0  0  0
    4.8040   60.2760   71.8330 C   0  0  0  0  0  0  0  0  0  0  0  0
    4.6570   59.9130   73.3100 C   0  0  0  0  0  0  0  0  0  0  0  0
    0.8500   62.2200   74.3680 C   0  0  0  0  0  0  0  0  0  0  0  0
    1.0860   62.3180   75.7560 C   0  0  0  0  0  0  0  0  0  0  0  0
    1.9430   61.4240   76.3980 C   0  0  0  0  0  0  0  0  0  0  0  0
    2.0910   61.4870   77.7450 O   0  0  0  0  0  0  0  0  0  0  0  0
    3.4650   57.8690   71.8000 O   0  0  0  0  0  0  0  0  0  0  0  0
    3.6470   61.2490   69.8280 C   0  0  0  0  0  0  0  0  0  0  0  0
    3.7650   62.7250   69.6180 C   0  0  0  0  0  0  0  0  0  0  0  0
    4.8440   63.5220   70.3110 C   0  0  0  0  0  0  0  0  0  0  0  0
    3.4070   63.6910   70.7190 C   0  0  0  0  0  0  0  0  0  0  0  0
    2.4648   56.1944   73.4647 H   0  0  0  0  0  0  0  0  0  0  0  0
    0.7910   56.2559   74.1222 H   0  0  0  0  0  0  0  0  0  0  0  0
    0.9193   57.4349   71.9552 H   0  0  0  0  0  0  0  0  0  0  0  0
    0.5665   58.5891   73.2996 H   0  0  0  0  0  0  0  0  0  0  0  0
    4.2719   57.8893   74.9504 H   0  0  0  0  0  0  0  0  0  0  0  0
    0.1948   60.5147   72.0980 H   0  0  0  0  0  0  0  0  0  0  0  0
    1.2272   61.9151   71.6034 H   0  0  0  0  0  0  0  0  0  0  0  0
    1.8371   59.5537   70.6133 H   0  0  0  0  0  0  0  0  0  0  0  0
    3.3868   61.7016   71.8398 H   0  0  0  0  0  0  0  0  0  0  0  0
    5.0662   59.3708   71.2657 H   0  0  0  0  0  0  0  0  0  0  0  0
    5.5936   61.0360   71.7386 H   0  0  0  0  0  0  0  0  0  0  0  0
    5.4167   59.1562   73.5551 H   0  0  0  0  0  0  0  0  0  0  0  0
    4.7829   60.8478   73.8760 H   0  0  0  0  0  0  0  0  0  0  0  0
    0.1405   62.9067   73.8832 H   0  0  0  0  0  0  0  0  0  0  0  0
    0.5887   63.1080   76.3379 H   0  0  0  0  0  0  0  0  0  0  0  0
    1.6164   62.1845   78.2630 H   0  0  0  0  0  0  0  0  0  0  0  0
    3.9863   57.3603   72.4706 H   0  0  0  0  0  0  0  0  0  0  0  0
    4.5417   60.7662   69.4079 H   0  0  0  0  0  0  0  0  0  0  0  0
    2.7214   60.9272   69.3284 H   0  0  0  0  0  0  0  0  0  0  0  0
    3.4520   62.5823   68.5732 H   0  0  0  0  0  0  0  0  0  0  0  0
    5.5517   63.0186   70.9861 H   0  0  0  0  0  0  0  0  0  0  0  0
    5.6432   64.2013   69.9795 H   0  0  0  0  0  0  0  0  0  0  0  0
    3.0640   63.3116   71.6929 H   0  0  0  0  0  0  0  0  0  0  0  0
    2.7207   64.5458   70.8095 H   0  0  0  0  0  0  0  0  0  0  0  0
  2  1  2  0
  3  2  1  0
  4  3  1  0
  5  4  1  0
  6  5  1  0
  7  6  1  0
  7  2  1  0
  8  7  1  0
  9  8  1  0
 10  9  2  0
 10  6  1  0
 11 10  1  0
 12 11  1  0
 13  5  1  0
 13 12  1  0
 14 13  1  0
 15 14  1  0
 16 15  1  0
  6 16  1  6
 17 11  2  0
 18 17  1  0
 19  9  1  0
 19 18  2  0
 20 19  1  0
  5 21  1  6
 22 14  1  0
 23 22  1  0
 24 23  1  0
 25 24  1  0
 25 23  1  0
  3 26  1  0
  3 27  1  0
  4 28  1  0
  4 29  1  0
  7 30  1  6
 12 31  1  0
 12 32  1  0
 13 33  1  6
 14 34  1  1
 15 35  1  0
 15 36  1  0
 16 37  1  0
 16 38  1  0
 17 39  1  0
 18 40  1  0
 20 41  1  0
 21 42  1  0
 22 43  1  0
 22 44  1  0
 23 45  1  0
 24 46  1  0
 24 47  1  0
 25 48  1  0
 25 49  1  0
M  CHG  1  14   1
M  END
>  <score>  (7) 
-7.411

$$$$
=
     RDKit          3D

 49 54  0  0  0  0  0  0  0  0999 V2000
    4.6390   62.6190   69.5790 O   0  0  0  0  0  0  0  0  0  0  0  0
    4.4700   61.7140   70.3960 C   0  0  0  0  0  0  0  0  0  0  0  0
    5.5600   61.3550   71.3790 C   0  0  0  0  0  0  0  0  0  0  0  0
    4.9880   61.3070   72.7950 C   0  0  0  0  0  0  0  0  0  0  0  0
    3.8910   60.2320   72.9070 C   0  0  2  0  0  0  0  0  0  0  0  0
    2.7980   60.4010   71.8470 C   0  0  2  0  0  0  0  0  0  0  0  0
    3.1960   60.8550   70.4260 C   0  0  1  0  0  0  0  0  0  0  0  0
    2.0630   61.6090   69.8990 O   0  0  0  0  0  0  0  0  0  0  0  0
    1.5370   62.2030   71.0210 C   0  0  0  0  0  0  0  0  0  0  0  0
    1.9740   61.6050   72.1850 C   0  0  0  0  0  0  0  0  0  0  0  0
    1.7350   62.1480   73.4390 C   0  0  0  0  0  0  0  0  0  0  0  0
    2.4720   61.5920   74.6300 C   0  0  0  0  0  0  0  0  0  0  0  0
    3.1330   60.2240   74.2940 C   0  0  1  0  0  0  0  0  0  0  0  0
    1.9670   59.1730   74.2890 N   0  0  1  0  0  4  0  0  0  0  0  0
    1.8820   58.3050   73.0630 C   0  0  0  0  0  0  0  0  0  0  0  0
    1.8870   59.1460   71.7870 C   0  0  0  0  0  0  0  0  0  0  0  0
    0.9120   63.2750   73.4970 C   0  0  0  0  0  0  0  0  0  0  0  0
    0.3880   63.8350   72.3120 C   0  0  0  0  0  0  0  0  0  0  0  0
    0.7200   63.3050   71.0660 C   0  0  0  0  0  0  0  0  0  0  0  0
    0.2700   63.9090   69.9370 O   0  0  0  0  0  0  0  0  0  0  0  0
    4.5330   58.9610   72.7040 O   0  0  0  0  0  0  0  0  0  0  0  0
    1.9310   58.3740   75.5730 C   0  0  0  0  0  0  0  0  0  0  0  0
    3.2270   58.3740   76.3190 C   0  0  0  0  0  0  0  0  0  0  0  0
    4.1450   57.1750   76.2780 C   0  0  0  0  0  0  0  0  0  0  0  0
    3.4110   57.5140   77.5450 C   0  0  0  0  0  0  0  0  0  0  0  0
    5.9750   60.3699   71.1197 H   0  0  0  0  0  0  0  0  0  0  0  0
    6.3530   62.1160   71.3343 H   0  0  0  0  0  0  0  0  0  0  0  0
    5.7967   61.0717   73.5026 H   0  0  0  0  0  0  0  0  0  0  0  0
    4.5461   62.2866   73.0295 H   0  0  0  0  0  0  0  0  0  0  0  0
    3.4282   59.9703   69.8150 H   0  0  0  0  0  0  0  0  0  0  0  0
    3.2542   62.3039   74.9323 H   0  0  0  0  0  0  0  0  0  0  0  0
    1.7504   61.4392   75.4460 H   0  0  0  0  0  0  0  0  0  0  0  0
    3.9049   59.9831   75.0398 H   0  0  0  0  0  0  0  0  0  0  0  0
    1.1073   59.7382   74.2408 H   0  0  0  0  0  0  0  0  0  0  0  0
    2.7448   57.6229   73.0462 H   0  0  0  0  0  0  0  0  0  0  0  0
    0.9397   57.7389   73.1025 H   0  0  0  0  0  0  0  0  0  0  0  0
    2.2318   58.5105   70.9580 H   0  0  0  0  0  0  0  0  0  0  0  0
    0.8588   59.5120   71.6495 H   0  0  0  0  0  0  0  0  0  0  0  0
    0.6712   63.7280   74.4701 H   0  0  0  0  0  0  0  0  0  0  0  0
   -0.2899   64.6992   72.3723 H   0  0  0  0  0  0  0  0  0  0  0  0
   -0.3183   64.7026   70.0010 H   0  0  0  0  0  0  0  0  0  0  0  0
    4.7397   58.5518   73.5815 H   0  0  0  0  0  0  0  0  0  0  0  0
    1.1550   58.8006   76.2255 H   0  0  0  0  0  0  0  0  0  0  0  0
    1.7203   57.3306   75.2958 H   0  0  0  0  0  0  0  0  0  0  0  0
    3.3347   59.4453   76.0939 H   0  0  0  0  0  0  0  0  0  0  0  0
    3.8601   56.2840   75.6992 H   0  0  0  0  0  0  0  0  0  0  0  0
    5.1994   57.0121   76.0104 H   0  0  0  0  0  0  0  0  0  0  0  0
    2.5896   56.8705   77.8931 H   0  0  0  0  0  0  0  0  0  0  0  0
    3.7072   57.7013   78.5877 H   0  0  0  0  0  0  0  0  0  0  0  0
  2  1  2  0
  3  2  1  0
  4  3  1  0
  5  4  1  0
  6  5  1  0
  7  6  1  0
  7  2  1  0
  8  7  1  0
  9  8  1  0
 10  9  2  0
 10  6  1  0
 11 10  1  0
 12 11  1  0
 13  5  1  0
 13 12  1  0
 14 13  1  0
 15 14  1  0
 16 15  1  0
  6 16  1  6
 17 11  2  0
 18 17  1  0
 19  9  1  0
 19 18  2  0
 20 19  1  0
  5 21  1  6
 22 14  1  0
 23 22  1  0
 24 23  1  0
 25 24  1  0
 25 23  1  0
  3 26  1  0
  3 27  1  0
  4 28  1  0
  4 29  1  0
  7 30  1  6
 12 31  1  0
 12 32  1  0
 13 33  1  1
 14 34  1  1
 15 35  1  0
 15 36  1  0
 16 37  1  0
 16 38  1  0
 17 39  1  0
 18 40  1  0
 20 41  1  0
 21 42  1  0
 22 43  1  0
 22 44  1  0
 23 45  1  0
 24 46  1  0
 24 47  1  0
 25 48  1  0
 25 49  1  0
M  CHG  1  14   1
M  END
>  <score>  (8) 
-7.33

$$$$
=
     RDKit          3D

 49 54  0  0  0  0  0  0  0  0999 V2000
    0.1400   62.7430   71.9950 O   0  0  0  0  0  0  0  0  0  0  0  0
    0.3780   61.8710   72.8290 C   0  0  0  0  0  0  0  0  0  0  0  0
   -0.7290   60.9810   73.3450 C   0  0  0  0  0  0  0  0  0  0  0  0
   -0.3060   59.5150   73.2470 C   0  0  0  0  0  0  0  0  0  0  0  0
    0.9430   59.2460   74.1060 C   0  0  2  0  0  0  0  0  0  0  0  0
    2.0950   60.2030   73.7790 C   0  0  2  0  0  0  0  0  0  0  0  0
    1.7720   61.6760   73.4480 C   0  0  1  0  0  0  0  0  0  0  0  0
    2.8050   62.1280   72.5210 O   0  0  0  0  0  0  0  0  0  0  0  0
    3.1020   60.9910   71.8080 C   0  0  0  0  0  0  0  0  0  0  0  0
    2.6570   59.8460   72.4380 C   0  0  0  0  0  0  0  0  0  0  0  0
    2.6680   58.6040   71.8220 C   0  0  0  0  0  0  0  0  0  0  0  0
    1.9190   57.4630   72.4620 C   0  0  0  0  0  0  0  0  0  0  0  0
    1.5440   57.7940   73.9360 C   0  0  1  0  0  0  0  0  0  0  0  0
    2.8690   57.6360   74.7620 N   0  0  1  0  0  4  0  0  0  0  0  0
    3.2290   58.8030   75.6390 C   0  0  0  0  0  0  0  0  0  0  0  0
    3.2100   60.1140   74.8530 C   0  0  0  0  0  0  0  0  0  0  0  0
    3.2720   58.5220   70.5650 C   0  0  0  0  0  0  0  0  0  0  0  0
    3.8110   59.6770   69.9580 C   0  0  0  0  0  0  0  0  0  0  0  0
    3.7050   60.9220   70.5770 C   0  0  0  0  0  0  0  0  0  0  0  0
    4.1580   62.0300   69.9390 O   0  0  0  0  0  0  0  0  0  0  0  0
    0.5560   59.4480   75.4760 O   0  0  0  0  0  0  0  0  0  0  0  0
    2.9100   56.3160   75.5020 C   0  0  0  0  0  0  0  0  0  0  0  0
    1.7680   55.4070   75.1780 C   0  0  0  0  0  0  0  0  0  0  0  0
    1.6490   54.0500   75.8290 C   0  0  0  0  0  0  0  0  0  0  0  0
    1.9870   54.1540   74.3680 C   0  0  0  0  0  0  0  0  0  0  0  0
   -0.9382   61.2309   74.3956 H   0  0  0  0  0  0  0  0  0  0  0  0
   -1.6330   61.1386   72.7384 H   0  0  0  0  0  0  0  0  0  0  0  0
   -1.1302   58.8778   73.6001 H   0  0  0  0  0  0  0  0  0  0  0  0
   -0.0671   59.2871   72.1977 H   0  0  0  0  0  0  0  0  0  0  0  0
    1.7603   62.2615   74.3792 H   0  0  0  0  0  0  0  0  0  0  0  0
    0.9981   57.2730   71.8912 H   0  0  0  0  0  0  0  0  0  0  0  0
    2.5673   56.5743   72.4581 H   0  0  0  0  0  0  0  0  0  0  0  0
    0.7531   57.1149   74.2872 H   0  0  0  0  0  0  0  0  0  0  0  0
    3.6177   57.6297   74.0547 H   0  0  0  0  0  0  0  0  0  0  0  0
    2.5039   58.8689   76.4636 H   0  0  0  0  0  0  0  0  0  0  0  0
    4.2460   58.6453   76.0273 H   0  0  0  0  0  0  0  0  0  0  0  0
    3.0676   60.9399   75.5655 H   0  0  0  0  0  0  0  0  0  0  0  0
    4.1679   60.1706   74.3153 H   0  0  0  0  0  0  0  0  0  0  0  0
    3.3278   57.5537   70.0462 H   0  0  0  0  0  0  0  0  0  0  0  0
    4.3200   59.5939   68.9864 H   0  0  0  0  0  0  0  0  0  0  0  0
    4.5889   61.9487   69.0514 H   0  0  0  0  0  0  0  0  0  0  0  0
    1.2556   59.0828   76.0738 H   0  0  0  0  0  0  0  0  0  0  0  0
    3.8471   55.8018   75.2423 H   0  0  0  0  0  0  0  0  0  0  0  0
    2.8405   56.5479   76.5750 H   0  0  0  0  0  0  0  0  0  0  0  0
    1.1157   56.2884   75.0910 H   0  0  0  0  0  0  0  0  0  0  0  0
    2.4121   53.7160   76.5475 H   0  0  0  0  0  0  0  0  0  0  0  0
    0.8730   53.5330   76.4125 H   0  0  0  0  0  0  0  0  0  0  0  0
    2.9973   53.8955   74.0180 H   0  0  0  0  0  0  0  0  0  0  0  0
    1.5601   53.7439   73.4409 H   0  0  0  0  0  0  0  0  0  0  0  0
  2  1  2  0
  3  2  1  0
  4  3  1  0
  5  4  1  0
  6  5  1  0
  7  6  1  0
  7  2  1  0
  8  7  1  0
  9  8  1  0
 10  9  2  0
 10  6  1  0
 11 10  1  0
 12 11  1  0
 13  5  1  0
 13 12  1  0
 14 13  1  0
 15 14  1  0
 16 15  1  0
  6 16  1  1
 17 11  2  0
 18 17  1  0
 19  9  1  0
 19 18  2  0
 20 19  1  0
  5 21  1  1
 22 14  1  0
 23 22  1  0
 24 23  1  0
 25 24  1  0
 25 23  1  0
  3 26  1  0
  3 27  1  0
  4 28  1  0
  4 29  1  0
  7 30  1  1
 12 31  1  0
 12 32  1  0
 13 33  1  1
 14 34  1  6
 15 35  1  0
 15 36  1  0
 16 37  1  0
 16 38  1  0
 17 39  1  0
 18 40  1  0
 20 41  1  0
 21 42  1  0
 22 43  1  0
 22 44  1  0
 23 45  1  0
 24 46  1  0
 24 47  1  0
 25 48  1  0
 25 49  1  0
M  CHG  1  14   1
M  END
>  <score>  (9) 
-7.243

$$$$
