=
     RDKit          3D

 51 53  0  0  0  0  0  0  0  0999 V2000
    0.3530   66.0830   70.5350 C   0  0  0  0  0  0  0  0  0  0  0  0
    0.6030   66.6660   69.1180 N   0  0  0  0  0  4  0  0  0  0  0  0
    1.5180   67.8910   69.1520 C   0  0  0  0  0  0  0  0  0  0  0  0
    1.5480   68.6440   67.7930 C   0  0  0  0  0  0  0  0  0  0  0  0
    1.1010   67.7520   66.6400 N   0  0  0  0  0  4  0  0  0  0  0  0
   -0.3200   67.2230   66.8260 C   0  0  0  0  0  0  0  0  0  0  0  0
   -0.6500   66.8780   68.3070 C   0  0  0  0  0  0  0  0  0  0  0  0
    1.2590   68.4270   65.2770 C   0  0  0  0  0  0  0  0  0  0  0  0
    2.6890   68.7790   64.9770 C   0  0  0  0  0  0  0  0  0  0  0  0
    3.5530   69.1940   66.0040 C   0  0  0  0  0  0  0  0  0  0  0  0
    4.8680   69.5560   65.7160 C   0  0  0  0  0  0  0  0  0  0  0  0
    5.3350   69.5070   64.4040 C   0  0  0  0  0  0  0  0  0  0  0  0
    4.4930   69.0850   63.3790 C   0  0  0  0  0  0  0  0  0  0  0  0
    3.1750   68.7210   63.6610 C   0  0  0  0  0  0  0  0  0  0  0  0
   -0.3490   63.9610   69.7870 O   0  0  0  0  0  0  0  0  0  0  0  0
    0.4900   64.5570   70.4670 C   0  0  0  0  0  0  0  0  0  0  0  0
    1.5410   64.0330   71.1730 N   0  0  0  0  0  0  0  0  0  0  0  0
    1.9110   62.6660   71.2940 C   0  0  0  0  0  0  0  0  0  0  0  0
    1.3780   61.8030   72.2530 C   0  0  0  0  0  0  0  0  0  0  0  0
    1.7930   60.4650   72.3100 C   0  0  0  0  0  0  0  0  0  0  0  0
    2.7530   59.9650   71.4180 C   0  0  0  0  0  0  0  0  0  0  0  0
    3.2840   60.8260   70.4490 C   0  0  0  0  0  0  0  0  0  0  0  0
    2.8700   62.1590   70.3940 C   0  0  0  0  0  0  0  0  0  0  0  0
    3.5580   63.1850   69.1790 Cl  0  0  0  0  0  0  0  0  0  0  0  0
    3.1760   58.5130   71.4720 C   0  0  0  0  0  0  0  0  0  0  0  0
    4.0850   58.2880   72.4570 F   0  0  0  0  0  0  0  0  0  0  0  0
    2.1350   57.6710   71.7090 F   0  0  0  0  0  0  0  0  0  0  0  0
    3.7520   58.0910   70.3160 F   0  0  0  0  0  0  0  0  0  0  0  0
    1.0931   66.4906   71.2394 H   0  0  0  0  0  0  0  0  0  0  0  0
   -0.6552   66.3549   70.8809 H   0  0  0  0  0  0  0  0  0  0  0  0
    1.1129   65.9333   68.6041 H   0  0  0  0  0  0  0  0  0  0  0  0
    1.1576   68.5800   69.9301 H   0  0  0  0  0  0  0  0  0  0  0  0
    2.5391   67.5419   69.3654 H   0  0  0  0  0  0  0  0  0  0  0  0
    0.8754   69.5124   67.8525 H   0  0  0  0  0  0  0  0  0  0  0  0
    2.5843   68.9582   67.5996 H   0  0  0  0  0  0  0  0  0  0  0  0
    1.7368   66.9418   66.6560 H   0  0  0  0  0  0  0  0  0  0  0  0
   -1.0280   67.9897   66.4783 H   0  0  0  0  0  0  0  0  0  0  0  0
   -0.4043   66.2932   66.2443 H   0  0  0  0  0  0  0  0  0  0  0  0
   -1.2247   67.7062   68.7473 H   0  0  0  0  0  0  0  0  0  0  0  0
   -1.2326   65.9450   68.3222 H   0  0  0  0  0  0  0  0  0  0  0  0
    0.8926   67.7418   64.4984 H   0  0  0  0  0  0  0  0  0  0  0  0
    0.6791   69.3616   65.2952 H   0  0  0  0  0  0  0  0  0  0  0  0
    3.1897   69.2335   67.0415 H   0  0  0  0  0  0  0  0  0  0  0  0
    5.5380   69.8808   66.5256 H   0  0  0  0  0  0  0  0  0  0  0  0
    6.3703   69.8022   64.1780 H   0  0  0  0  0  0  0  0  0  0  0  0
    4.8666   69.0383   62.3454 H   0  0  0  0  0  0  0  0  0  0  0  0
    2.5138   68.3870   62.8479 H   0  0  0  0  0  0  0  0  0  0  0  0
    2.1329   64.7098   71.6754 H   0  0  0  0  0  0  0  0  0  0  0  0
    0.6287   62.1745   72.9675 H   0  0  0  0  0  0  0  0  0  0  0  0
    1.3583   59.7959   73.0672 H   0  0  0  0  0  0  0  0  0  0  0  0
    4.0280   60.4519   69.7304 H   0  0  0  0  0  0  0  0  0  0  0  0
  2  1  1  0
  3  2  1  0
  4  3  1  0
  5  4  1  0
  6  5  1  0
  7  6  1  0
  7  2  1  0
  8  5  1  0
  9  8  1  0
 10  9  2  0
 11 10  1  0
 12 11  2  0
 13 12  1  0
 14 13  2  0
 14  9  1  0
 16 15  2  0
 16  1  1  0
 17 16  1  0
 18 17  1  0
 19 18  2  0
 20 19  1  0
 21 20  2  0
 22 21  1  0
 23 22  2  0
 23 18  1  0
 24 23  1  0
 25 21  1  0
 26 25  1  0
 27 25  1  0
 28 25  1  0
  1 29  1  0
  1 30  1  0
  2 31  1  0
  3 32  1  0
  3 33  1  0
  4 34  1  0
  4 35  1  0
  5 36  1  0
  6 37  1  0
  6 38  1  0
  7 39  1  0
  7 40  1  0
  8 41  1  0
  8 42  1  0
 10 43  1  0
 11 44  1  0
 12 45  1  0
 13 46  1  0
 14 47  1  0
 17 48  1  0
 19 49  1  0
 20 50  1  0
 22 51  1  0
M  CHG  2   2   1   5   1
M  END
>  <score>  (1) 
-10.515

$$$$
=
     RDKit          3D

 51 53  0  0  0  0  0  0  0  0999 V2000
    1.0050   66.7290   70.0270 C   0  0  0  0  0  0  0  0  0  0  0  0
    1.1640   67.2230   68.5640 N   0  0  0  0  0  4  0  0  0  0  0  0
    1.8720   68.5760   68.4850 C   0  0  0  0  0  0  0  0  0  0  0  0
    1.7860   69.2070   67.0680 C   0  0  0  0  0  0  0  0  0  0  0  0
    1.4910   68.1620   65.9990 N   0  0  0  0  0  4  0  0  0  0  0  0
    0.1720   67.4310   66.2430 C   0  0  0  0  0  0  0  0  0  0  0  0
   -0.1050   67.1650   67.7500 C   0  0  0  0  0  0  0  0  0  0  0  0
    1.5440   68.7360   64.5820 C   0  0  0  0  0  0  0  0  0  0  0  0
    2.9510   68.8770   64.0760 C   0  0  0  0  0  0  0  0  0  0  0  0
    3.9790   69.3010   64.9350 C   0  0  0  0  0  0  0  0  0  0  0  0
    5.2770   69.4690   64.4520 C   0  0  0  0  0  0  0  0  0  0  0  0
    5.5630   69.2130   63.1130 C   0  0  0  0  0  0  0  0  0  0  0  0
    4.5560   68.7800   62.2550 C   0  0  0  0  0  0  0  0  0  0  0  0
    3.2550   68.6110   62.7320 C   0  0  0  0  0  0  0  0  0  0  0  0
   -0.0310   64.6320   69.7370 O   0  0  0  0  0  0  0  0  0  0  0  0
    1.0260   65.1960   70.0300 C   0  0  0  0  0  0  0  0  0  0  0  0
    2.2290   64.6290   70.3590 N   0  0  0  0  0  0  0  0  0  0  0  0
    2.5440   63.2450   70.4440 C   0  0  0  0  0  0  0  0  0  0  0  0
    3.1860   62.5340   69.4290 C   0  0  0  0  0  0  0  0  0  0  0  0
    3.4630   61.1690   69.5870 C   0  0  0  0  0  0  0  0  0  0  0  0
    3.0980   60.4850   70.7570 C   0  0  0  0  0  0  0  0  0  0  0  0
    2.4610   61.1980   71.7810 C   0  0  0  0  0  0  0  0  0  0  0  0
    2.1850   62.5580   71.6220 C   0  0  0  0  0  0  0  0  0  0  0  0
    1.3940   63.3950   72.9160 Cl  0  0  0  0  0  0  0  0  0  0  0  0
    3.4230   59.0180   70.9270 C   0  0  0  0  0  0  0  0  0  0  0  0
    4.4850   58.8290   71.7540 F   0  0  0  0  0  0  0  0  0  0  0  0
    2.3910   58.3090   71.4580 F   0  0  0  0  0  0  0  0  0  0  0  0
    3.7390   58.4100   69.7530 F   0  0  0  0  0  0  0  0  0  0  0  0
    1.8342   67.1123   70.6398 H   0  0  0  0  0  0  0  0  0  0  0  0
    0.0551   67.0929   70.4456 H   0  0  0  0  0  0  0  0  0  0  0  0
    1.7859   66.5394   68.1093 H   0  0  0  0  0  0  0  0  0  0  0  0
    1.4043   69.2622   69.2064 H   0  0  0  0  0  0  0  0  0  0  0  0
    2.9351   68.4125   68.7156 H   0  0  0  0  0  0  0  0  0  0  0  0
    0.9833   69.9591   67.0615 H   0  0  0  0  0  0  0  0  0  0  0  0
    2.7595   69.6649   66.8385 H   0  0  0  0  0  0  0  0  0  0  0  0
    2.2480   67.4678   66.0765 H   0  0  0  0  0  0  0  0  0  0  0  0
   -0.6479   68.0426   65.8384 H   0  0  0  0  0  0  0  0  0  0  0  0
    0.2400   66.4535   65.7432 H   0  0  0  0  0  0  0  0  0  0  0  0
   -0.8051   67.9263   68.1246 H   0  0  0  0  0  0  0  0  0  0  0  0
   -0.5331   66.1566   67.8495 H   0  0  0  0  0  0  0  0  0  0  0  0
    0.9912   68.0652   63.9078 H   0  0  0  0  0  0  0  0  0  0  0  0
    1.0940   69.7394   64.6085 H   0  0  0  0  0  0  0  0  0  0  0  0
    3.7591   69.5015   65.9940 H   0  0  0  0  0  0  0  0  0  0  0  0
    6.0759   69.8042   65.1297 H   0  0  0  0  0  0  0  0  0  0  0  0
    6.5858   69.3532   62.7332 H   0  0  0  0  0  0  0  0  0  0  0  0
    4.7857   68.5707   61.1998 H   0  0  0  0  0  0  0  0  0  0  0  0
    2.4632   68.2672   62.0502 H   0  0  0  0  0  0  0  0  0  0  0  0
    2.9964   65.2829   70.5698 H   0  0  0  0  0  0  0  0  0  0  0  0
    3.4761   63.0474   68.5004 H   0  0  0  0  0  0  0  0  0  0  0  0
    3.9753   60.6245   68.7801 H   0  0  0  0  0  0  0  0  0  0  0  0
    2.1776   60.6857   72.7122 H   0  0  0  0  0  0  0  0  0  0  0  0
  2  1  1  0
  3  2  1  0
  4  3  1  0
  5  4  1  0
  6  5  1  0
  7  6  1  0
  7  2  1  0
  8  5  1  0
  9  8  1  0
 10  9  2  0
 11 10  1  0
 12 11  2  0
 13 12  1  0
 14 13  2  0
 14  9  1  0
 16 15  2  0
 16  1  1  0
 17 16  1  0
 18 17  1  0
 19 18  2  0
 20 19  1  0
 21 20  2  0
 22 21  1  0
 23 22  2  0
 23 18  1  0
 24 23  1  0
 25 21  1  0
 26 25  1  0
 27 25  1  0
 28 25  1  0
  1 29  1  0
  1 30  1  0
  2 31  1  0
  3 32  1  0
  3 33  1  0
  4 34  1  0
  4 35  1  0
  5 36  1  0
  6 37  1  0
  6 38  1  0
  7 39  1  0
  7 40  1  0
  8 41  1  0
  8 42  1  0
 10 43  1  0
 11 44  1  0
 12 45  1  0
 13 46  1  0
 14 47  1  0
 17 48  1  0
 19 49  1  0
 20 50  1  0
 22 51  1  0
M  CHG  2   2   1   5   1
M  END
>  <score>  (2) 
-10.45

$$$$
=
     RDKit          3D

 51 53  0  0  0  0  0  0  0  0999 V2000
   -0.4140   66.1200   69.8840 C   0  0  0  0  0  0  0  0  0  0  0  0
    0.1170   66.7800   68.5830 N   0  0  0  0  0  4  0  0  0  0  0  0
    1.1720   67.8490   68.8670 C   0  0  0  0  0  0  0  0  0  0  0  0
    1.5010   68.7040   67.6130 C   0  0  0  0  0  0  0  0  0  0  0  0
    1.1140   67.9900   66.3230 N   0  0  0  0  0  4  0  0  0  0  0  0
   -0.3770   67.6610   66.2610 C   0  0  0  0  0  0  0  0  0  0  0  0
   -0.9640   67.2430   67.6390 C   0  0  0  0  0  0  0  0  0  0  0  0
    1.5590   68.7490   65.0720 C   0  0  0  0  0  0  0  0  0  0  0  0
    3.0300   69.0530   65.0820 C   0  0  0  0  0  0  0  0  0  0  0  0
    3.7990   68.8920   63.9170 C   0  0  0  0  0  0  0  0  0  0  0  0
    5.1720   69.1380   63.9390 C   0  0  0  0  0  0  0  0  0  0  0  0
    5.7900   69.5470   65.1180 C   0  0  0  0  0  0  0  0  0  0  0  0
    5.0370   69.7210   66.2760 C   0  0  0  0  0  0  0  0  0  0  0  0
    3.6630   69.4780   66.2610 C   0  0  0  0  0  0  0  0  0  0  0  0
   -0.3300   63.7640   69.8320 O   0  0  0  0  0  0  0  0  0  0  0  0
    0.3140   64.7850   70.0870 C   0  0  0  0  0  0  0  0  0  0  0  0
    1.6070   64.8860   70.5290 N   0  0  0  0  0  0  0  0  0  0  0  0
    2.5160   63.8290   70.8040 C   0  0  0  0  0  0  0  0  0  0  0  0
    3.5860   63.4930   69.9730 C   0  0  0  0  0  0  0  0  0  0  0  0
    4.4420   62.4360   70.3120 C   0  0  0  0  0  0  0  0  0  0  0  0
    4.2420   61.6880   71.4820 C   0  0  0  0  0  0  0  0  0  0  0  0
    3.1740   62.0270   72.3230 C   0  0  0  0  0  0  0  0  0  0  0  0
    2.3220   63.0810   71.9840 C   0  0  0  0  0  0  0  0  0  0  0  0
    1.0150   63.4610   73.0540 Cl  0  0  0  0  0  0  0  0  0  0  0  0
    5.1850   60.5650   71.8520 C   0  0  0  0  0  0  0  0  0  0  0  0
    4.7060   59.3540   71.4640 F   0  0  0  0  0  0  0  0  0  0  0  0
    6.4100   60.6960   71.2770 F   0  0  0  0  0  0  0  0  0  0  0  0
    5.4010   60.4800   73.1910 F   0  0  0  0  0  0  0  0  0  0  0  0
   -0.2205   66.7818   70.7411 H   0  0  0  0  0  0  0  0  0  0  0  0
   -1.4977   65.9491   69.8038 H   0  0  0  0  0  0  0  0  0  0  0  0
    0.5947   66.0269   68.0676 H   0  0  0  0  0  0  0  0  0  0  0  0
    0.7971   68.5136   69.6593 H   0  0  0  0  0  0  0  0  0  0  0  0
    2.0951   67.3359   69.1746 H   0  0  0  0  0  0  0  0  0  0  0  0
    0.9482   69.6530   67.6742 H   0  0  0  0  0  0  0  0  0  0  0  0
    2.5868   68.8791   67.5941 H   0  0  0  0  0  0  0  0  0  0  0  0
    1.6274   67.0972   66.3376 H   0  0  0  0  0  0  0  0  0  0  0  0
   -0.9178   68.5501   65.9046 H   0  0  0  0  0  0  0  0  0  0  0  0
   -0.4977   66.8066   65.5787 H   0  0  0  0  0  0  0  0  0  0  0  0
   -1.4813   68.1059   68.0837 H   0  0  0  0  0  0  0  0  0  0  0  0
   -1.6620   66.4083   67.4778 H   0  0  0  0  0  0  0  0  0  0  0  0
    1.3304   68.1370   64.1870 H   0  0  0  0  0  0  0  0  0  0  0  0
    1.0179   69.7065   65.0494 H   0  0  0  0  0  0  0  0  0  0  0  0
    3.3158   68.5703   62.9827 H   0  0  0  0  0  0  0  0  0  0  0  0
    5.7676   69.0087   63.0233 H   0  0  0  0  0  0  0  0  0  0  0  0
    6.8741   69.7328   65.1344 H   0  0  0  0  0  0  0  0  0  0  0  0
    5.5261   70.0507   67.2045 H   0  0  0  0  0  0  0  0  0  0  0  0
    3.0724   69.6202   67.1781 H   0  0  0  0  0  0  0  0  0  0  0  0
    1.9621   65.8410   70.6798 H   0  0  0  0  0  0  0  0  0  0  0  0
    3.7585   64.0609   69.0469 H   0  0  0  0  0  0  0  0  0  0  0  0
    5.2847   62.1888   69.6496 H   0  0  0  0  0  0  0  0  0  0  0  0
    3.0060   61.4623   73.2519 H   0  0  0  0  0  0  0  0  0  0  0  0
  2  1  1  0
  3  2  1  0
  4  3  1  0
  5  4  1  0
  6  5  1  0
  7  6  1  0
  7  2  1  0
  8  5  1  0
  9  8  1  0
 10  9  2  0
 11 10  1  0
 12 11  2  0
 13 12  1  0
 14 13  2  0
 14  9  1  0
 16 15  2  0
 16  1  1  0
 17 16  1  0
 18 17  1  0
 19 18  2  0
 20 19  1  0
 21 20  2  0
 22 21  1  0
 23 22  2  0
 23 18  1  0
 24 23  1  0
 25 21  1  0
 26 25  1  0
 27 25  1  0
 28 25  1  0
  1 29  1  0
  1 30  1  0
  2 31  1  0
  3 32  1  0
  3 33  1  0
  4 34  1  0
  4 35  1  0
  5 36  1  0
  6 37  1  0
  6 38  1  0
  7 39  1  0
  7 40  1  0
  8 41  1  0
  8 42  1  0
 10 43  1  0
 11 44  1  0
 12 45  1  0
 13 46  1  0
 14 47  1  0
 17 48  1  0
 19 49  1  0
 20 50  1  0
 22 51  1  0
M  CHG  2   2   1   5   1
M  END
>  <score>  (3) 
-10.294

$$$$
=
     RDKit          3D

 51 53  0  0  0  0  0  0  0  0999 V2000
   -0.4090   66.4170   68.8970 C   0  0  0  0  0  0  0  0  0  0  0  0
    0.7040   67.1980   68.1490 N   0  0  0  0  0  4  0  0  0  0  0  0
    0.5990   68.7070   68.3730 C   0  0  0  0  0  0  0  0  0  0  0  0
    1.5210   69.5130   67.4160 C   0  0  0  0  0  0  0  0  0  0  0  0
    2.6510   68.6540   66.8610 N   0  0  0  0  0  4  0  0  0  0  0  0
    2.1390   67.4470   66.0770 C   0  0  0  0  0  0  0  0  0  0  0  0
    0.8580   66.8180   66.6980 C   0  0  0  0  0  0  0  0  0  0  0  0
    3.6520   69.4600   66.0330 C   0  0  0  0  0  0  0  0  0  0  0  0
    4.7970   69.9730   66.8600 C   0  0  0  0  0  0  0  0  0  0  0  0
    6.0960   70.0190   66.3290 C   0  0  0  0  0  0  0  0  0  0  0  0
    7.1630   70.4590   67.1120 C   0  0  0  0  0  0  0  0  0  0  0  0
    6.9450   70.8580   68.4280 C   0  0  0  0  0  0  0  0  0  0  0  0
    5.6600   70.8290   68.9620 C   0  0  0  0  0  0  0  0  0  0  0  0
    4.5880   70.3900   68.1840 C   0  0  0  0  0  0  0  0  0  0  0  0
    0.0240   66.1210   71.1950 O   0  0  0  0  0  0  0  0  0  0  0  0
    0.2280   65.6610   70.0700 C   0  0  0  0  0  0  0  0  0  0  0  0
    0.9520   64.5510   69.7230 N   0  0  0  0  0  0  0  0  0  0  0  0
    1.6500   63.6640   70.5880 C   0  0  0  0  0  0  0  0  0  0  0  0
    1.2550   63.3920   71.8990 C   0  0  0  0  0  0  0  0  0  0  0  0
    1.9950   62.5050   72.6920 C   0  0  0  0  0  0  0  0  0  0  0  0
    3.1470   61.8770   72.1970 C   0  0  0  0  0  0  0  0  0  0  0  0
    3.5420   62.1410   70.8780 C   0  0  0  0  0  0  0  0  0  0  0  0
    2.8030   63.0260   70.0890 C   0  0  0  0  0  0  0  0  0  0  0  0
    3.3330   63.3210   68.4670 Cl  0  0  0  0  0  0  0  0  0  0  0  0
    3.9250   60.9020   73.0520 C   0  0  0  0  0  0  0  0  0  0  0  0
    5.2650   61.1200   72.9770 F   0  0  0  0  0  0  0  0  0  0  0  0
    3.5960   60.9800   74.3690 F   0  0  0  0  0  0  0  0  0  0  0  0
    3.7270   59.6080   72.6860 F   0  0  0  0  0  0  0  0  0  0  0  0
   -1.1647   67.1206   69.2762 H   0  0  0  0  0  0  0  0  0  0  0  0
   -0.8954   65.7070   68.2119 H   0  0  0  0  0  0  0  0  0  0  0  0
    1.5895   66.8981   68.5813 H   0  0  0  0  0  0  0  0  0  0  0  0
   -0.4428   69.0176   68.2048 H   0  0  0  0  0  0  0  0  0  0  0  0
    0.9203   68.9164   69.4040 H   0  0  0  0  0  0  0  0  0  0  0  0
    0.9186   69.8935   66.5780 H   0  0  0  0  0  0  0  0  0  0  0  0
    1.9690   70.3388   67.9882 H   0  0  0  0  0  0  0  0  0  0  0  0
    3.1543   68.2952   67.6850 H   0  0  0  0  0  0  0  0  0  0  0  0
    1.9097   67.7676   65.0500 H   0  0  0  0  0  0  0  0  0  0  0  0
    2.9273   66.6802   66.1012 H   0  0  0  0  0  0  0  0  0  0  0  0
   -0.0211   67.1730   66.1402 H   0  0  0  0  0  0  0  0  0  0  0  0
    0.9455   65.7233   66.6351 H   0  0  0  0  0  0  0  0  0  0  0  0
    4.0522   68.8152   65.2367 H   0  0  0  0  0  0  0  0  0  0  0  0
    3.1213   70.3297   65.6183 H   0  0  0  0  0  0  0  0  0  0  0  0
    6.2732   69.7062   65.2894 H   0  0  0  0  0  0  0  0  0  0  0  0
    8.1781   70.4908   66.6893 H   0  0  0  0  0  0  0  0  0  0  0  0
    7.7894   71.1966   69.0464 H   0  0  0  0  0  0  0  0  0  0  0  0
    5.4892   71.1528   69.9993 H   0  0  0  0  0  0  0  0  0  0  0  0
    3.5742   70.3706   68.6103 H   0  0  0  0  0  0  0  0  0  0  0  0
    0.9960   64.3333   68.7172 H   0  0  0  0  0  0  0  0  0  0  0  0
    0.3579   63.8767   72.3117 H   0  0  0  0  0  0  0  0  0  0  0  0
    1.6665   62.2976   73.7211 H   0  0  0  0  0  0  0  0  0  0  0  0
    4.4352   61.6506   70.4637 H   0  0  0  0  0  0  0  0  0  0  0  0
  2  1  1  0
  3  2  1  0
  4  3  1  0
  5  4  1  0
  6  5  1  0
  7  6  1  0
  7  2  1  0
  8  5  1  0
  9  8  1  0
 10  9  2  0
 11 10  1  0
 12 11  2  0
 13 12  1  0
 14 13  2  0
 14  9  1  0
 16 15  2  0
 16  1  1  0
 17 16  1  0
 18 17  1  0
 19 18  2  0
 20 19  1  0
 21 20  2  0
 22 21  1  0
 23 22  2  0
 23 18  1  0
 24 23  1  0
 25 21  1  0
 26 25  1  0
 27 25  1  0
 28 25  1  0
  1 29  1  0
  1 30  1  0
  2 31  1  0
  3 32  1  0
  3 33  1  0
  4 34  1  0
  4 35  1  0
  5 36  1  0
  6 37  1  0
  6 38  1  0
  7 39  1  0
  7 40  1  0
  8 41  1  0
  8 42  1  0
 10 43  1  0
 11 44  1  0
 12 45  1  0
 13 46  1  0
 14 47  1  0
 17 48  1  0
 19 49  1  0
 20 50  1  0
 22 51  1  0
M  CHG  2   2   1   5   1
M  END
>  <score>  (4) 
-9.831

$$$$
=
     RDKit          3D

 51 53  0  0  0  0  0  0  0  0999 V2000
   -0.9050   66.7770   68.3090 C   0  0  0  0  0  0  0  0  0  0  0  0
    0.0960   65.8800   69.0870 N   0  0  0  0  0  4  0  0  0  0  0  0
   -0.6110   64.7780   69.8770 C   0  0  0  0  0  0  0  0  0  0  0  0
    0.3420   64.0600   70.8720 C   0  0  0  0  0  0  0  0  0  0  0  0
    1.8060   64.2420   70.4870 N   0  0  0  0  0  4  0  0  0  0  0  0
    2.2230   65.7120   70.4510 C   0  0  0  0  0  0  0  0  0  0  0  0
    1.1070   66.6460   69.9030 C   0  0  0  0  0  0  0  0  0  0  0  0
    2.7530   63.4260   71.3670 C   0  0  0  0  0  0  0  0  0  0  0  0
    3.0610   62.0790   70.7780 C   0  0  0  0  0  0  0  0  0  0  0  0
    3.6780   61.9750   69.5200 C   0  0  0  0  0  0  0  0  0  0  0  0
    3.9280   60.7230   68.9590 C   0  0  0  0  0  0  0  0  0  0  0  0
    3.5690   59.5650   69.6450 C   0  0  0  0  0  0  0  0  0  0  0  0
    2.9690   59.6550   70.8980 C   0  0  0  0  0  0  0  0  0  0  0  0
    2.7160   60.9050   71.4650 C   0  0  0  0  0  0  0  0  0  0  0  0
   -0.9670   67.7150   66.1470 O   0  0  0  0  0  0  0  0  0  0  0  0
   -0.2250   67.2680   67.0250 C   0  0  0  0  0  0  0  0  0  0  0  0
    1.1400   67.1520   67.0070 N   0  0  0  0  0  0  0  0  0  0  0  0
    2.0290   67.5200   65.9600 C   0  0  0  0  0  0  0  0  0  0  0  0
    2.1660   66.7990   64.7730 C   0  0  0  0  0  0  0  0  0  0  0  0
    3.0650   67.2250   63.7860 C   0  0  0  0  0  0  0  0  0  0  0  0
    3.8510   68.3730   63.9660 C   0  0  0  0  0  0  0  0  0  0  0  0
    3.7100   69.1040   65.1530 C   0  0  0  0  0  0  0  0  0  0  0  0
    2.8130   68.6780   66.1360 C   0  0  0  0  0  0  0  0  0  0  0  0
    2.6770   69.6150   67.5870 Cl  0  0  0  0  0  0  0  0  0  0  0  0
    4.8000   68.8380   62.8840 C   0  0  0  0  0  0  0  0  0  0  0  0
    5.6130   69.8360   63.3200 F   0  0  0  0  0  0  0  0  0  0  0  0
    5.6150   67.8450   62.4380 F   0  0  0  0  0  0  0  0  0  0  0  0
    4.1530   69.3200   61.7900 F   0  0  0  0  0  0  0  0  0  0  0  0
   -1.8030   66.1953   68.0538 H   0  0  0  0  0  0  0  0  0  0  0  0
   -1.2015   67.6355   68.9295 H   0  0  0  0  0  0  0  0  0  0  0  0
    0.6609   65.4079   68.3666 H   0  0  0  0  0  0  0  0  0  0  0  0
   -1.4410   65.2258   70.4431 H   0  0  0  0  0  0  0  0  0  0  0  0
   -0.9727   64.0283   69.1579 H   0  0  0  0  0  0  0  0  0  0  0  0
    0.1844   64.4754   71.8783 H   0  0  0  0  0  0  0  0  0  0  0  0
    0.1137   62.9842   70.8475 H   0  0  0  0  0  0  0  0  0  0  0  0
    1.8869   63.8743   69.5283 H   0  0  0  0  0  0  0  0  0  0  0  0
    2.4758   66.0300   71.4733 H   0  0  0  0  0  0  0  0  0  0  0  0
    3.0840   65.7936   69.7713 H   0  0  0  0  0  0  0  0  0  0  0  0
    0.5938   67.1247   70.7500 H   0  0  0  0  0  0  0  0  0  0  0  0
    1.5759   67.3991   69.2527 H   0  0  0  0  0  0  0  0  0  0  0  0
    3.6938   63.9835   71.4858 H   0  0  0  0  0  0  0  0  0  0  0  0
    2.2566   63.2641   72.3352 H   0  0  0  0  0  0  0  0  0  0  0  0
    3.9654   62.8861   68.9747 H   0  0  0  0  0  0  0  0  0  0  0  0
    4.4097   60.6497   67.9728 H   0  0  0  0  0  0  0  0  0  0  0  0
    3.7597   58.5789   69.1964 H   0  0  0  0  0  0  0  0  0  0  0  0
    2.6939   58.7394   71.4421 H   0  0  0  0  0  0  0  0  0  0  0  0
    2.2434   60.9703   72.4562 H   0  0  0  0  0  0  0  0  0  0  0  0
    1.5732   66.7511   67.8511 H   0  0  0  0  0  0  0  0  0  0  0  0
    1.5653   65.8918   64.6113 H   0  0  0  0  0  0  0  0  0  0  0  0
    3.1560   66.6489   62.8534 H   0  0  0  0  0  0  0  0  0  0  0  0
    4.3064   70.0147   65.3113 H   0  0  0  0  0  0  0  0  0  0  0  0
  2  1  1  0
  3  2  1  0
  4  3  1  0
  5  4  1  0
  6  5  1  0
  7  6  1  0
  7  2  1  0
  8  5  1  0
  9  8  1  0
 10  9  2  0
 11 10  1  0
 12 11  2  0
 13 12  1  0
 14 13  2  0
 14  9  1  0
 16 15  2  0
 16  1  1  0
 17 16  1  0
 18 17  1  0
 19 18  2  0
 20 19  1  0
 21 20  2  0
 22 21  1  0
 23 22  2  0
 23 18  1  0
 24 23  1  0
 25 21  1  0
 26 25  1  0
 27 25  1  0
 28 25  1  0
  1 29  1  0
  1 30  1  0
  2 31  1  0
  3 32  1  0
  3 33  1  0
  4 34  1  0
  4 35  1  0
  5 36  1  0
  6 37  1  0
  6 38  1  0
  7 39  1  0
  7 40  1  0
  8 41  1  0
  8 42  1  0
 10 43  1  0
 11 44  1  0
 12 45  1  0
 13 46  1  0
 14 47  1  0
 17 48  1  0
 19 49  1  0
 20 50  1  0
 22 51  1  0
M  CHG  2   2   1   5   1
M  END
>  <score>  (5) 
-9.647

$$$$
=
     RDKit          3D

 51 53  0  0  0  0  0  0  0  0999 V2000
    4.4560   59.1680   71.6690 C   0  0  0  0  0  0  0  0  0  0  0  0
    3.6430   58.4490   72.7790 N   0  0  0  0  0  4  0  0  0  0  0  0
    2.3090   57.9110   72.2610 C   0  0  0  0  0  0  0  0  0  0  0  0
    1.3720   57.4460   73.4100 C   0  0  0  0  0  0  0  0  0  0  0  0
    2.1470   57.1520   74.6890 N   0  0  0  0  0  4  0  0  0  0  0  0
    2.9130   58.3700   75.2030 C   0  0  0  0  0  0  0  0  0  0  0  0
    3.5140   59.2360   74.0590 C   0  0  0  0  0  0  0  0  0  0  0  0
    1.2660   56.5560   75.7880 C   0  0  0  0  0  0  0  0  0  0  0  0
    0.6470   55.2500   75.3780 C   0  0  0  0  0  0  0  0  0  0  0  0
   -0.7500   55.1060   75.3370 C   0  0  0  0  0  0  0  0  0  0  0  0
   -1.3230   53.8810   74.9930 C   0  0  0  0  0  0  0  0  0  0  0  0
   -0.5110   52.7920   74.6850 C   0  0  0  0  0  0  0  0  0  0  0  0
    0.8750   52.9260   74.7100 C   0  0  0  0  0  0  0  0  0  0  0  0
    1.4540   54.1490   75.0530 C   0  0  0  0  0  0  0  0  0  0  0  0
    3.1820   60.0020   69.8690 O   0  0  0  0  0  0  0  0  0  0  0  0
    3.5620   60.2320   71.0200 C   0  0  0  0  0  0  0  0  0  0  0  0
    3.2870   61.3200   71.8050 N   0  0  0  0  0  0  0  0  0  0  0  0
    2.4960   62.4530   71.4730 C   0  0  0  0  0  0  0  0  0  0  0  0
    1.1500   62.5850   71.8190 C   0  0  0  0  0  0  0  0  0  0  0  0
    0.4340   63.7340   71.4560 C   0  0  0  0  0  0  0  0  0  0  0  0
    1.0440   64.7700   70.7340 C   0  0  0  0  0  0  0  0  0  0  0  0
    2.3980   64.6460   70.3920 C   0  0  0  0  0  0  0  0  0  0  0  0
    3.1090   63.5000   70.7550 C   0  0  0  0  0  0  0  0  0  0  0  0
    4.7790   63.3910   70.3070 Cl  0  0  0  0  0  0  0  0  0  0  0  0
    0.2700   66.0180   70.3680 C   0  0  0  0  0  0  0  0  0  0  0  0
    1.0950   67.0640   70.1000 F   0  0  0  0  0  0  0  0  0  0  0  0
   -0.5080   65.8490   69.2660 F   0  0  0  0  0  0  0  0  0  0  0  0
   -0.5620   66.4290   71.3620 F   0  0  0  0  0  0  0  0  0  0  0  0
    5.3423   59.6474   72.1102 H   0  0  0  0  0  0  0  0  0  0  0  0
    4.7845   58.4403   70.9123 H   0  0  0  0  0  0  0  0  0  0  0  0
    4.2060   57.6285   73.0448 H   0  0  0  0  0  0  0  0  0  0  0  0
    1.8039   58.7062   71.6931 H   0  0  0  0  0  0  0  0  0  0  0  0
    2.5227   57.0372   71.6278 H   0  0  0  0  0  0  0  0  0  0  0  0
    0.6373   58.2391   73.6133 H   0  0  0  0  0  0  0  0  0  0  0  0
    0.8745   56.5183   73.0910 H   0  0  0  0  0  0  0  0  0  0  0  0
    2.8419   56.4366   74.4319 H   0  0  0  0  0  0  0  0  0  0  0  0
    2.2246   58.9947   75.7911 H   0  0  0  0  0  0  0  0  0  0  0  0
    3.7515   57.9994   75.8110 H   0  0  0  0  0  0  0  0  0  0  0  0
    2.8571   60.1005   73.8823 H   0  0  0  0  0  0  0  0  0  0  0  0
    4.5185   59.5634   74.3654 H   0  0  0  0  0  0  0  0  0  0  0  0
    1.8823   56.3894   76.6838 H   0  0  0  0  0  0  0  0  0  0  0  0
    0.4504   57.2667   75.9875 H   0  0  0  0  0  0  0  0  0  0  0  0
   -1.3956   55.9636   75.5774 H   0  0  0  0  0  0  0  0  0  0  0  0
   -2.4175   53.7752   74.9650 H   0  0  0  0  0  0  0  0  0  0  0  0
   -0.9649   51.8252   74.4218 H   0  0  0  0  0  0  0  0  0  0  0  0
    1.5144   52.0668   74.4591 H   0  0  0  0  0  0  0  0  0  0  0  0
    2.5492   54.2502   75.0686 H   0  0  0  0  0  0  0  0  0  0  0  0
    3.7026   61.3167   72.7474 H   0  0  0  0  0  0  0  0  0  0  0  0
    0.6484   61.7826   72.3798 H   0  0  0  0  0  0  0  0  0  0  0  0
   -0.6242   63.8246   71.7423 H   0  0  0  0  0  0  0  0  0  0  0  0
    2.9007   65.4520   69.8373 H   0  0  0  0  0  0  0  0  0  0  0  0
  2  1  1  0
  3  2  1  0
  4  3  1  0
  5  4  1  0
  6  5  1  0
  7  6  1  0
  7  2  1  0
  8  5  1  0
  9  8  1  0
 10  9  2  0
 11 10  1  0
 12 11  2  0
 13 12  1  0
 14 13  2  0
 14  9  1  0
 16 15  2  0
 16  1  1  0
 17 16  1  0
 18 17  1  0
 19 18  2  0
 20 19  1  0
 21 20  2  0
 22 21  1  0
 23 22  2  0
 23 18  1  0
 24 23  1  0
 25 21  1  0
 26 25  1  0
 27 25  1  0
 28 25  1  0
  1 29  1  0
  1 30  1  0
  2 31  1  0
  3 32  1  0
  3 33  1  0
  4 34  1  0
  4 35  1  0
  5 36  1  0
  6 37  1  0
  6 38  1  0
  7 39  1  0
  7 40  1  0
  8 41  1  0
  8 42  1  0
 10 43  1  0
 11 44  1  0
 12 45  1  0
 13 46  1  0
 14 47  1  0
 17 48  1  0
 19 49  1  0
 20 50  1  0
 22 51  1  0
M  CHG  2   2   1   5   1
M  END
>  <score>  (6) 
-8.934

$$$$
=
     RDKit          3D

 51 53  0  0  0  0  0  0  0  0999 V2000
    3.7360   58.6730   72.0940 C   0  0  0  0  0  0  0  0  0  0  0  0
    2.5500   58.2180   72.9870 N   0  0  0  0  0  4  0  0  0  0  0  0
    2.9070   58.2390   74.4730 C   0  0  0  0  0  0  0  0  0  0  0  0
    1.8390   57.5250   75.3480 C   0  0  0  0  0  0  0  0  0  0  0  0
    0.4940   57.4310   74.6370 N   0  0  0  0  0  4  0  0  0  0  0  0
    0.5810   56.6610   73.3200 C   0  0  0  0  0  0  0  0  0  0  0  0
    1.9030   56.9290   72.5460 C   0  0  0  0  0  0  0  0  0  0  0  0
   -0.6080   56.8620   75.5320 C   0  0  0  0  0  0  0  0  0  0  0  0
   -1.9070   57.6010   75.3770 C   0  0  0  0  0  0  0  0  0  0  0  0
   -1.9310   58.8940   74.8290 C   0  0  0  0  0  0  0  0  0  0  0  0
   -3.1340   59.5920   74.7220 C   0  0  0  0  0  0  0  0  0  0  0  0
   -4.3220   59.0080   75.1570 C   0  0  0  0  0  0  0  0  0  0  0  0
   -4.3120   57.7220   75.6900 C   0  0  0  0  0  0  0  0  0  0  0  0
   -3.1120   57.0180   75.7990 C   0  0  0  0  0  0  0  0  0  0  0  0
    3.5970   59.9490   70.1170 O   0  0  0  0  0  0  0  0  0  0  0  0
    3.3090   59.9240   71.3160 C   0  0  0  0  0  0  0  0  0  0  0  0
    2.6490   60.8720   72.0520 N   0  0  0  0  0  0  0  0  0  0  0  0
    2.1410   62.1220   71.6040 C   0  0  0  0  0  0  0  0  0  0  0  0
    2.9290   63.1060   71.0030 C   0  0  0  0  0  0  0  0  0  0  0  0
    2.3550   64.3150   70.5860 C   0  0  0  0  0  0  0  0  0  0  0  0
    0.9880   64.5700   70.7670 C   0  0  0  0  0  0  0  0  0  0  0  0
    0.1920   63.5810   71.3620 C   0  0  0  0  0  0  0  0  0  0  0  0
    0.7660   62.3770   71.7770 C   0  0  0  0  0  0  0  0  0  0  0  0
   -0.2580   61.1870   72.5090 Cl  0  0  0  0  0  0  0  0  0  0  0  0
    0.3740   65.8680   70.2920 C   0  0  0  0  0  0  0  0  0  0  0  0
   -0.4110   66.4360   71.2450 F   0  0  0  0  0  0  0  0  0  0  0  0
    1.3060   66.7990   69.9570 F   0  0  0  0  0  0  0  0  0  0  0  0
   -0.4130   65.7060   69.1950 F   0  0  0  0  0  0  0  0  0  0  0  0
    4.6063   58.9075   72.7245 H   0  0  0  0  0  0  0  0  0  0  0  0
    4.0100   57.8698   71.3942 H   0  0  0  0  0  0  0  0  0  0  0  0
    1.8149   58.9266   72.8515 H   0  0  0  0  0  0  0  0  0  0  0  0
    3.8735   57.7324   74.6115 H   0  0  0  0  0  0  0  0  0  0  0  0
    2.9543   59.2906   74.7922 H   0  0  0  0  0  0  0  0  0  0  0  0
    2.1906   56.5089   75.5802 H   0  0  0  0  0  0  0  0  0  0  0  0
    1.6996   58.1150   76.2658 H   0  0  0  0  0  0  0  0  0  0  0  0
    0.2332   58.4014   74.4108 H   0  0  0  0  0  0  0  0  0  0  0  0
    0.5144   55.5849   73.5380 H   0  0  0  0  0  0  0  0  0  0  0  0
   -0.2483   57.0030   72.6834 H   0  0  0  0  0  0  0  0  0  0  0  0
    2.5998   56.0980   72.7302 H   0  0  0  0  0  0  0  0  0  0  0  0
    1.6655   57.0108   71.4751 H   0  0  0  0  0  0  0  0  0  0  0  0
   -0.7680   55.8062   75.2682 H   0  0  0  0  0  0  0  0  0  0  0  0
   -0.2820   56.9701   76.5770 H   0  0  0  0  0  0  0  0  0  0  0  0
   -0.9962   59.3587   74.4824 H   0  0  0  0  0  0  0  0  0  0  0  0
   -3.1448   60.6051   74.2935 H   0  0  0  0  0  0  0  0  0  0  0  0
   -5.2683   59.5634   75.0792 H   0  0  0  0  0  0  0  0  0  0  0  0
   -5.2520   57.2598   76.0259 H   0  0  0  0  0  0  0  0  0  0  0  0
   -3.1105   56.0009   76.2178 H   0  0  0  0  0  0  0  0  0  0  0  0
    2.5035   60.6534   73.0480 H   0  0  0  0  0  0  0  0  0  0  0  0
    4.0051   62.9315   70.8562 H   0  0  0  0  0  0  0  0  0  0  0  0
    2.9881   65.0772   70.1083 H   0  0  0  0  0  0  0  0  0  0  0  0
   -0.8853   63.7533   71.5021 H   0  0  0  0  0  0  0  0  0  0  0  0
  2  1  1  0
  3  2  1  0
  4  3  1  0
  5  4  1  0
  6  5  1  0
  7  6  1  0
  7  2  1  0
  8  5  1  0
  9  8  1  0
 10  9  2  0
 11 10  1  0
 12 11  2  0
 13 12  1  0
 14 13  2  0
 14  9  1  0
 16 15  2  0
 16  1  1  0
 17 16  1  0
 18 17  1  0
 19 18  2  0
 20 19  1  0
 21 20  2  0
 22 21  1  0
 23 22  2  0
 23 18  1  0
 24 23  1  0
 25 21  1  0
 26 25  1  0
 27 25  1  0
 28 25  1  0
  1 29  1  0
  1 30  1  0
  2 31  1  0
  3 32  1  0
  3 33  1  0
  4 34  1  0
  4 35  1  0
  5 36  1  0
  6 37  1  0
  6 38  1  0
  7 39  1  0
  7 40  1  0
  8 41  1  0
  8 42  1  0
 10 43  1  0
 11 44  1  0
 12 45  1  0
 13 46  1  0
 14 47  1  0
 17 48  1  0
 19 49  1  0
 20 50  1  0
 22 51  1  0
M  CHG  2   2   1   5   1
M  END
>  <score>  (7) 
-8.931

$$$$
=
     RDKit          3D

 51 53  0  0  0  0  0  0  0  0999 V2000
    3.8100   68.7200   62.2370 C   0  0  0  0  0  0  0  0  0  0  0  0
    2.4250   68.7600   62.9380 N   0  0  0  0  0  4  0  0  0  0  0  0
    2.2180   67.5680   63.8740 C   0  0  0  0  0  0  0  0  0  0  0  0
    0.7470   67.4460   64.3590 C   0  0  0  0  0  0  0  0  0  0  0  0
   -0.0050   68.7650   64.2270 N   0  0  0  0  0  4  0  0  0  0  0  0
   -0.0500   69.2720   62.7870 C   0  0  0  0  0  0  0  0  0  0  0  0
    1.2650   68.9950   62.0040 C   0  0  0  0  0  0  0  0  0  0  0  0
   -1.4090   68.7060   64.8310 C   0  0  0  0  0  0  0  0  0  0  0  0
   -1.4210   68.0550   66.1850 C   0  0  0  0  0  0  0  0  0  0  0  0
   -0.2420   67.9640   66.9430 C   0  0  0  0  0  0  0  0  0  0  0  0
   -0.2480   67.3250   68.1830 C   0  0  0  0  0  0  0  0  0  0  0  0
   -1.4270   66.7740   68.6790 C   0  0  0  0  0  0  0  0  0  0  0  0
   -2.6050   66.8690   67.9430 C   0  0  0  0  0  0  0  0  0  0  0  0
   -2.6050   67.5070   66.7010 C   0  0  0  0  0  0  0  0  0  0  0  0
    6.0620   68.8880   62.9110 O   0  0  0  0  0  0  0  0  0  0  0  0
    4.8930   69.0370   63.2750 C   0  0  0  0  0  0  0  0  0  0  0  0
    4.4280   69.4550   64.4940 N   0  0  0  0  0  0  0  0  0  0  0  0
    5.1910   69.8140   65.6380 C   0  0  0  0  0  0  0  0  0  0  0  0
    6.5410   70.1670   65.5880 C   0  0  0  0  0  0  0  0  0  0  0  0
    7.2270   70.5100   66.7610 C   0  0  0  0  0  0  0  0  0  0  0  0
    6.5840   70.4990   68.0070 C   0  0  0  0  0  0  0  0  0  0  0  0
    5.2270   70.1540   68.0610 C   0  0  0  0  0  0  0  0  0  0  0  0
    4.5450   69.8130   66.8910 C   0  0  0  0  0  0  0  0  0  0  0  0
    2.8690   69.3910   67.0090 Cl  0  0  0  0  0  0  0  0  0  0  0  0
    7.3280   70.8950   69.2640 C   0  0  0  0  0  0  0  0  0  0  0  0
    7.8640   72.1390   69.1640 F   0  0  0  0  0  0  0  0  0  0  0  0
    6.5300   70.9070   70.3650 F   0  0  0  0  0  0  0  0  0  0  0  0
    8.3580   70.0550   69.5510 F   0  0  0  0  0  0  0  0  0  0  0  0
    3.9829   67.7190   61.8149 H   0  0  0  0  0  0  0  0  0  0  0  0
    3.8410   69.4599   61.4236 H   0  0  0  0  0  0  0  0  0  0  0  0
    2.4415   69.6009   63.5326 H   0  0  0  0  0  0  0  0  0  0  0  0
    2.4913   66.6467   63.3388 H   0  0  0  0  0  0  0  0  0  0  0  0
    2.8521   67.7221   64.7596 H   0  0  0  0  0  0  0  0  0  0  0  0
    0.2352   66.6826   63.7546 H   0  0  0  0  0  0  0  0  0  0  0  0
    0.7604   67.1656   65.4226 H   0  0  0  0  0  0  0  0  0  0  0  0
    0.5363   69.4471   64.7771 H   0  0  0  0  0  0  0  0  0  0  0  0
   -0.8802   68.7732   62.2655 H   0  0  0  0  0  0  0  0  0  0  0  0
   -0.1861   70.3628   62.8263 H   0  0  0  0  0  0  0  0  0  0  0  0
    1.1257   68.1030   61.3756 H   0  0  0  0  0  0  0  0  0  0  0  0
    1.4917   69.8770   61.3871 H   0  0  0  0  0  0  0  0  0  0  0  0
   -1.7955   69.7313   64.9281 H   0  0  0  0  0  0  0  0  0  0  0  0
   -2.0379   68.1009   64.1614 H   0  0  0  0  0  0  0  0  0  0  0  0
    0.6915   68.3991   66.5566 H   0  0  0  0  0  0  0  0  0  0  0  0
    0.6798   67.2562   68.7699 H   0  0  0  0  0  0  0  0  0  0  0  0
   -1.4275   66.2632   69.6532 H   0  0  0  0  0  0  0  0  0  0  0  0
   -3.5370   66.4408   68.3405 H   0  0  0  0  0  0  0  0  0  0  0  0
   -3.5386   67.5804   66.1239 H   0  0  0  0  0  0  0  0  0  0  0  0
    3.4046   69.5163   64.5931 H   0  0  0  0  0  0  0  0  0  0  0  0
    7.0688   70.1759   64.6230 H   0  0  0  0  0  0  0  0  0  0  0  0
    8.2885   70.7928   66.7032 H   0  0  0  0  0  0  0  0  0  0  0  0
    4.6985   70.1518   69.0257 H   0  0  0  0  0  0  0  0  0  0  0  0
  2  1  1  0
  3  2  1  0
  4  3  1  0
  5  4  1  0
  6  5  1  0
  7  6  1  0
  7  2  1  0
  8  5  1  0
  9  8  1  0
 10  9  2  0
 11 10  1  0
 12 11  2  0
 13 12  1  0
 14 13  2  0
 14  9  1  0
 16 15  2  0
 16  1  1  0
 17 16  1  0
 18 17  1  0
 19 18  2  0
 20 19  1  0
 21 20  2  0
 22 21  1  0
 23 22  2  0
 23 18  1  0
 24 23  1  0
 25 21  1  0
 26 25  1  0
 27 25  1  0
 28 25  1  0
  1 29  1  0
  1 30  1  0
  2 31  1  0
  3 32  1  0
  3 33  1  0
  4 34  1  0
  4 35  1  0
  5 36  1  0
  6 37  1  0
  6 38  1  0
  7 39  1  0
  7 40  1  0
  8 41  1  0
  8 42  1  0
 10 43  1  0
 11 44  1  0
 12 45  1  0
 13 46  1  0
 14 47  1  0
 17 48  1  0
 19 49  1  0
 20 50  1  0
 22 51  1  0
M  CHG  2   2   1   5   1
M  END
>  <score>  (8) 
-8.873

$$$$
=
     RDKit          3D

 51 53  0  0  0  0  0  0  0  0999 V2000
    2.3080   56.9480   74.9960 C   0  0  0  0  0  0  0  0  0  0  0  0
    0.7670   56.9930   75.1810 N   0  0  0  0  0  4  0  0  0  0  0  0
    0.3680   57.4460   76.5860 C   0  0  0  0  0  0  0  0  0  0  0  0
   -1.1440   57.2260   76.8710 C   0  0  0  0  0  0  0  0  0  0  0  0
   -1.9510   57.1080   75.5840 N   0  0  0  0  0  4  0  0  0  0  0  0
   -1.4890   55.9460   74.7070 C   0  0  0  0  0  0  0  0  0  0  0  0
    0.0530   55.7440   74.7300 C   0  0  0  0  0  0  0  0  0  0  0  0
   -3.4580   57.0360   75.8380 C   0  0  0  0  0  0  0  0  0  0  0  0
   -4.1900   58.2190   75.2710 C   0  0  0  0  0  0  0  0  0  0  0  0
   -3.5200   59.4350   75.0530 C   0  0  0  0  0  0  0  0  0  0  0  0
   -4.2110   60.5430   74.5630 C   0  0  0  0  0  0  0  0  0  0  0  0
   -5.5720   60.4500   74.2840 C   0  0  0  0  0  0  0  0  0  0  0  0
   -6.2450   59.2470   74.4830 C   0  0  0  0  0  0  0  0  0  0  0  0
   -5.5590   58.1350   74.9740 C   0  0  0  0  0  0  0  0  0  0  0  0
    3.0760   59.1430   75.3830 O   0  0  0  0  0  0  0  0  0  0  0  0
    2.7830   58.3230   74.5100 C   0  0  0  0  0  0  0  0  0  0  0  0
    2.8270   58.4760   73.1490 N   0  0  0  0  0  0  0  0  0  0  0  0
    3.2210   59.6300   72.4170 C   0  0  0  0  0  0  0  0  0  0  0  0
    4.5230   59.8500   71.9640 C   0  0  0  0  0  0  0  0  0  0  0  0
    4.8350   61.0130   71.2470 C   0  0  0  0  0  0  0  0  0  0  0  0
    3.8580   61.9830   70.9760 C   0  0  0  0  0  0  0  0  0  0  0  0
    2.5490   61.7610   71.4220 C   0  0  0  0  0  0  0  0  0  0  0  0
    2.2390   60.6010   72.1360 C   0  0  0  0  0  0  0  0  0  0  0  0
    0.6070   60.3730   72.6690 Cl  0  0  0  0  0  0  0  0  0  0  0  0
    4.2000   63.2240   70.1810 C   0  0  0  0  0  0  0  0  0  0  0  0
    3.3120   64.2280   70.4040 F   0  0  0  0  0  0  0  0  0  0  0  0
    5.4280   63.7210   70.4850 F   0  0  0  0  0  0  0  0  0  0  0  0
    4.2010   63.0030   68.8390 F   0  0  0  0  0  0  0  0  0  0  0  0
    2.7895   56.7074   75.9553 H   0  0  0  0  0  0  0  0  0  0  0  0
    2.5756   56.1761   74.2594 H   0  0  0  0  0  0  0  0  0  0  0  0
    0.4328   57.7201   74.5325 H   0  0  0  0  0  0  0  0  0  0  0  0
    0.9532   56.8742   77.3213 H   0  0  0  0  0  0  0  0  0  0  0  0
    0.5706   58.5245   76.6614 H   0  0  0  0  0  0  0  0  0  0  0  0
   -1.2656   56.3009   77.4536 H   0  0  0  0  0  0  0  0  0  0  0  0
   -1.5169   58.0970   77.4298 H   0  0  0  0  0  0  0  0  0  0  0  0
   -1.7689   57.9782   75.0639 H   0  0  0  0  0  0  0  0  0  0  0  0
   -1.9689   55.0235   75.0657 H   0  0  0  0  0  0  0  0  0  0  0  0
   -1.7750   56.1811   73.6712 H   0  0  0  0  0  0  0  0  0  0  0  0
    0.2958   54.9239   75.4217 H   0  0  0  0  0  0  0  0  0  0  0  0
    0.3853   55.5061   73.7087 H   0  0  0  0  0  0  0  0  0  0  0  0
   -3.8516   56.1204   75.3725 H   0  0  0  0  0  0  0  0  0  0  0  0
   -3.6155   57.0336   76.9267 H   0  0  0  0  0  0  0  0  0  0  0  0
   -2.4445   59.5134   75.2701 H   0  0  0  0  0  0  0  0  0  0  0  0
   -3.6799   61.4919   74.3967 H   0  0  0  0  0  0  0  0  0  0  0  0
   -6.1164   61.3279   73.9059 H   0  0  0  0  0  0  0  0  0  0  0  0
   -7.3181   59.1731   74.2530 H   0  0  0  0  0  0  0  0  0  0  0  0
   -6.0948   57.1869   75.1291 H   0  0  0  0  0  0  0  0  0  0  0  0
    2.5411   57.6592   72.5904 H   0  0  0  0  0  0  0  0  0  0  0  0
    5.3075   59.1072   72.1708 H   0  0  0  0  0  0  0  0  0  0  0  0
    5.8640   61.1682   70.8904 H   0  0  0  0  0  0  0  0  0  0  0  0
    1.7637   62.5014   71.2097 H   0  0  0  0  0  0  0  0  0  0  0  0
  2  1  1  0
  3  2  1  0
  4  3  1  0
  5  4  1  0
  6  5  1  0
  7  6  1  0
  7  2  1  0
  8  5  1  0
  9  8  1  0
 10  9  2  0
 11 10  1  0
 12 11  2  0
 13 12  1  0
 14 13  2  0
 14  9  1  0
 16 15  2  0
 16  1  1  0
 17 16  1  0
 18 17  1  0
 19 18  2  0
 20 19  1  0
 21 20  2  0
 22 21  1  0
 23 22  2  0
 23 18  1  0
 24 23  1  0
 25 21  1  0
 26 25  1  0
 27 25  1  0
 28 25  1  0
  1 29  1  0
  1 30  1  0
  2 31  1  0
  3 32  1  0
  3 33  1  0
  4 34  1  0
  4 35  1  0
  5 36  1  0
  6 37  1  0
  6 38  1  0
  7 39  1  0
  7 40  1  0
  8 41  1  0
  8 42  1  0
 10 43  1  0
 11 44  1  0
 12 45  1  0
 13 46  1  0
 14 47  1  0
 17 48  1  0
 19 49  1  0
 20 50  1  0
 22 51  1  0
M  CHG  2   2   1   5   1
M  END
>  <score>  (9) 
-8.556

$$$$
