=
     RDKit          3D

 79 86  0  0  0  0  0  0  0  0999 V2000
    0.0790   66.1760   69.7330 C   0  0  1  0  0  0  0  0  0  0  0  0
   -0.1520   66.4670   71.2080 C   0  0  0  0  0  0  0  0  0  0  0  0
   -1.1220   66.3870   68.9820 O   0  0  0  0  0  0  0  0  0  0  0  0
   -0.7620   66.9870   67.7480 C   0  0  2  0  0  0  0  0  0  0  0  0
    0.5320   67.5520   67.9110 N   0  0  0  0  0  0  0  0  0  0  0  0
    1.0500   67.2030   69.1340 C   0  0  0  0  0  0  0  0  0  0  0  0
    2.1160   67.5650   69.6000 O   0  0  0  0  0  0  0  0  0  0  0  0
    1.0150   68.6560   67.0560 C   0  0  2  0  0  0  0  0  0  0  0  0
    0.0150   69.0540   65.9160 C   0  0  0  0  0  0  0  0  0  0  0  0
    0.3560   69.6220   64.8830 O   0  0  0  0  0  0  0  0  0  0  0  0
   -1.3180   68.7980   66.1770 N   0  0  0  0  0  0  0  0  0  0  0  0
   -1.7710   68.0910   67.3670 C   0  0  1  0  0  0  0  0  0  0  0  0
   -3.1810   67.6300   66.9960 C   0  0  0  0  0  0  0  0  0  0  0  0
   -3.6580   68.7460   66.0630 C   0  0  0  0  0  0  0  0  0  0  0  0
   -2.4060   69.1010   65.2680 C   0  0  0  0  0  0  0  0  0  0  0  0
    2.2560   64.7750   71.0260 O   0  0  0  0  0  0  0  0  0  0  0  0
    1.5630   64.2290   70.1680 C   0  0  0  0  0  0  0  0  0  0  0  0
    0.5700   64.8380   69.4480 N   0  0  0  0  0  0  0  0  0  0  0  0
    1.7380   62.7410   69.8780 C   0  0  1  0  0  0  0  0  0  0  0  0
    3.2340   62.3820   69.9750 C   0  0  0  0  0  0  0  0  0  0  0  0
    3.7110   62.4870   71.4120 N   0  0  2  0  0  4  0  0  0  0  0  0
    5.1950   62.5230   71.5540 C   0  0  0  0  0  0  0  0  0  0  0  0
    2.9690   61.5430   72.3530 C   0  0  1  0  0  0  0  0  0  0  0  0
    1.4680   61.4270   71.9920 C   0  0  0  0  0  0  0  0  0  0  0  0
    0.9210   61.9780   70.8920 C   0  0  0  0  0  0  0  0  0  0  0  0
    0.6790   60.5530   72.8860 C   0  0  0  0  0  0  0  0  0  0  0  0
   -0.6840   60.6000   73.1860 C   0  0  0  0  0  0  0  0  0  0  0  0
   -1.2450   59.6460   74.0470 C   0  0  0  0  0  0  0  0  0  0  0  0
   -0.4780   58.6200   74.6270 C   0  0  0  0  0  0  0  0  0  0  0  0
    0.8820   58.5910   74.3120 C   0  0  0  0  0  0  0  0  0  0  0  0
    1.4450   59.5300   73.4680 C   0  0  0  0  0  0  0  0  0  0  0  0
    2.8290   59.2550   73.3360 C   0  0  0  0  0  0  0  0  0  0  0  0
    3.6720   60.1450   72.4840 C   0  0  0  0  0  0  0  0  0  0  0  0
    3.0930   58.1420   74.0980 C   0  0  0  0  0  0  0  0  0  0  0  0
    1.9060   57.7450   74.6840 N   0  0  0  0  0  0  0  0  0  0  0  0
   -0.6190   65.9820   66.7600 O   0  0  0  0  0  0  0  0  0  0  0  0
    2.4030   68.3350   66.4600 C   0  0  0  0  0  0  0  0  0  0  0  0
    3.4840   69.2610   66.9660 C   0  0  0  0  0  0  0  0  0  0  0  0
    4.6690   69.4300   66.2330 C   0  0  0  0  0  0  0  0  0  0  0  0
    5.6780   70.2710   66.7040 C   0  0  0  0  0  0  0  0  0  0  0  0
    5.5150   70.9510   67.9100 C   0  0  0  0  0  0  0  0  0  0  0  0
    4.3440   70.7870   68.6460 C   0  0  0  0  0  0  0  0  0  0  0  0
    3.3330   69.9460   68.1770 C   0  0  0  0  0  0  0  0  0  0  0  0
    0.4176   65.7495   71.8169 H   0  0  0  0  0  0  0  0  0  0  0  0
    0.1831   67.4894   71.4369 H   0  0  0  0  0  0  0  0  0  0  0  0
   -1.2238   66.3726   71.4369 H   0  0  0  0  0  0  0  0  0  0  0  0
    1.0970   69.5284   67.7209 H   0  0  0  0  0  0  0  0  0  0  0  0
   -1.8193   68.6923   68.2868 H   0  0  0  0  0  0  0  0  0  0  0  0
   -3.1588   66.6602   66.4773 H   0  0  0  0  0  0  0  0  0  0  0  0
   -3.8357   67.4755   67.8663 H   0  0  0  0  0  0  0  0  0  0  0  0
   -4.4581   68.3883   65.3983 H   0  0  0  0  0  0  0  0  0  0  0  0
   -4.0820   69.6054   66.6030 H   0  0  0  0  0  0  0  0  0  0  0  0
   -2.3354   68.4903   64.3558 H   0  0  0  0  0  0  0  0  0  0  0  0
   -2.3993   70.1486   64.9327 H   0  0  0  0  0  0  0  0  0  0  0  0
    0.1489   64.3206   68.6632 H   0  0  0  0  0  0  0  0  0  0  0  0
    1.3938   62.4820   68.8658 H   0  0  0  0  0  0  0  0  0  0  0  0
    3.3836   61.3525   69.6177 H   0  0  0  0  0  0  0  0  0  0  0  0
    3.8105   63.0846   69.3553 H   0  0  0  0  0  0  0  0  0  0  0  0
    3.4368   63.4230   71.7430 H   0  0  0  0  0  0  0  0  0  0  0  0
    5.4612   62.5295   72.6213 H   0  0  0  0  0  0  0  0  0  0  0  0
    5.6310   61.6352   71.0727 H   0  0  0  0  0  0  0  0  0  0  0  0
    5.5875   63.4309   71.0727 H   0  0  0  0  0  0  0  0  0  0  0  0
    3.0153   61.9956   73.3545 H   0  0  0  0  0  0  0  0  0  0  0  0
   -0.1609   61.8680   70.7263 H   0  0  0  0  0  0  0  0  0  0  0  0
   -1.3173   61.3851   72.7471 H   0  0  0  0  0  0  0  0  0  0  0  0
   -2.3194   59.7020   74.2761 H   0  0  0  0  0  0  0  0  0  0  0  0
   -0.9289   57.8743   75.2983 H   0  0  0  0  0  0  0  0  0  0  0  0
    4.6610   60.2716   72.9486 H   0  0  0  0  0  0  0  0  0  0  0  0
    3.7961   59.6966   71.4872 H   0  0  0  0  0  0  0  0  0  0  0  0
    4.0720   57.6553   74.2195 H   0  0  0  0  0  0  0  0  0  0  0  0
    1.8010   56.9333   75.3093 H   0  0  0  0  0  0  0  0  0  0  0  0
   -0.4940   65.1034   67.1987 H   0  0  0  0  0  0  0  0  0  0  0  0
    2.6706   67.3023   66.7281 H   0  0  0  0  0  0  0  0  0  0  0  0
    2.3351   68.4683   65.3702 H   0  0  0  0  0  0  0  0  0  0  0  0
    4.8032   68.8959   65.2808 H   0  0  0  0  0  0  0  0  0  0  0  0
    6.6033   70.3976   66.1228 H   0  0  0  0  0  0  0  0  0  0  0  0
    6.3097   71.6158   68.2796 H   0  0  0  0  0  0  0  0  0  0  0  0
    4.2154   71.3213   69.5989 H   0  0  0  0  0  0  0  0  0  0  0  0
    2.4110   69.8209   68.7637 H   0  0  0  0  0  0  0  0  0  0  0  0
  2  1  1  0
  3  1  1  0
  4  3  1  0
  5  4  1  0
  6  5  1  0
  6  1  1  0
  7  6  2  0
  8  5  1  0
  9  8  1  0
 10  9  2  0
 11  9  1  0
 12 11  1  0
 12  4  1  0
 13 12  1  0
 14 13  1  0
 15 14  1  0
 15 11  1  0
 17 16  2  0
 18 17  1  0
  1 18  1  1
 19 17  1  0
 20 19  1  0
 21 20  1  0
 22 21  1  0
 23 21  1  0
 24 23  1  0
 25 19  1  0
 25 24  2  0
 26 24  1  0
 27 26  2  0
 28 27  1  0
 29 28  2  0
 30 29  1  0
 31 30  2  0
 31 26  1  0
 32 31  1  0
 33 32  1  0
 33 23  1  0
 34 32  2  0
 35 34  1  0
 35 30  1  0
  4 36  1  6
 37  8  1  0
 38 37  1  0
 39 38  2  0
 40 39  1  0
 41 40  2  0
 42 41  1  0
 43 42  2  0
 43 38  1  0
  2 44  1  0
  2 45  1  0
  2 46  1  0
  8 47  1  1
 12 48  1  1
 13 49  1  0
 13 50  1  0
 14 51  1  0
 14 52  1  0
 15 53  1  0
 15 54  1  0
 18 55  1  0
 19 56  1  6
 20 57  1  0
 20 58  1  0
 21 59  1  1
 22 60  1  0
 22 61  1  0
 22 62  1  0
 23 63  1  1
 25 64  1  0
 27 65  1  0
 28 66  1  0
 29 67  1  0
 33 68  1  0
 33 69  1  0
 34 70  1  0
 35 71  1  0
 36 72  1  0
 37 73  1  0
 37 74  1  0
 39 75  1  0
 40 76  1  0
 41 77  1  0
 42 78  1  0
 43 79  1  0
M  CHG  1  21   1
M  END
>  <score>  (1) 
-10.864

$$$$
=
     RDKit          3D

 79 86  0  0  0  0  0  0  0  0999 V2000
    2.0150   58.1870   75.3800 C   0  0  1  0  0  0  0  0  0  0  0  0
    3.2800   57.4800   75.8420 C   0  0  0  0  0  0  0  0  0  0  0  0
    1.5720   59.1260   76.3680 O   0  0  0  0  0  0  0  0  0  0  0  0
    1.0970   60.2770   75.6880 C   0  0  2  0  0  0  0  0  0  0  0  0
    1.6460   60.2540   74.3780 N   0  0  0  0  0  0  0  0  0  0  0  0
    2.3140   59.0740   74.1650 C   0  0  0  0  0  0  0  0  0  0  0  0
    2.9380   58.7640   73.1650 O   0  0  0  0  0  0  0  0  0  0  0  0
    1.7960   61.4850   73.5730 C   0  0  2  0  0  0  0  0  0  0  0  0
    1.2060   62.7630   74.2620 C   0  0  0  0  0  0  0  0  0  0  0  0
    0.8530   63.7640   73.6440 O   0  0  0  0  0  0  0  0  0  0  0  0
    1.1750   62.7360   75.6430 N   0  0  0  0  0  0  0  0  0  0  0  0
    1.5420   61.5600   76.4210 C   0  0  1  0  0  0  0  0  0  0  0  0
    0.9090   61.8220   77.7880 C   0  0  0  0  0  0  0  0  0  0  0  0
    0.9780   63.3470   77.8960 C   0  0  0  0  0  0  0  0  0  0  0  0
    0.6840   63.8170   76.4760 C   0  0  0  0  0  0  0  0  0  0  0  0
    0.8060   56.1760   77.0730 O   0  0  0  0  0  0  0  0  0  0  0  0
    0.3540   56.4290   75.9570 C   0  0  0  0  0  0  0  0  0  0  0  0
    0.9070   57.3010   75.0590 N   0  0  0  0  0  0  0  0  0  0  0  0
   -0.9580   55.7940   75.5030 C   0  0  1  0  0  0  0  0  0  0  0  0
   -1.4850   54.8730   76.6210 C   0  0  0  0  0  0  0  0  0  0  0  0
   -1.9250   55.6930   77.8180 N   0  0  2  0  0  4  0  0  0  0  0  0
   -2.0970   54.8950   79.0670 C   0  0  0  0  0  0  0  0  0  0  0  0
   -3.0470   56.6720   77.4880 C   0  0  1  0  0  0  0  0  0  0  0  0
   -2.8740   57.2980   76.0820 C   0  0  0  0  0  0  0  0  0  0  0  0
   -1.9280   56.9110   75.2060 C   0  0  0  0  0  0  0  0  0  0  0  0
   -3.9100   58.2830   75.7090 C   0  0  0  0  0  0  0  0  0  0  0  0
   -3.8240   59.3600   74.8240 C   0  0  0  0  0  0  0  0  0  0  0  0
   -4.9470   60.1640   74.5860 C   0  0  0  0  0  0  0  0  0  0  0  0
   -6.1840   59.9220   75.2090 C   0  0  0  0  0  0  0  0  0  0  0  0
   -6.2490   58.8390   76.0880 C   0  0  0  0  0  0  0  0  0  0  0  0
   -5.1450   58.0430   76.3320 C   0  0  0  0  0  0  0  0  0  0  0  0
   -5.5040   57.0340   77.2600 C   0  0  0  0  0  0  0  0  0  0  0  0
   -4.4730   56.0510   77.7040 C   0  0  0  0  0  0  0  0  0  0  0  0
   -6.8310   57.2220   77.5660 C   0  0  0  0  0  0  0  0  0  0  0  0
   -7.2750   58.3170   76.8490 N   0  0  0  0  0  0  0  0  0  0  0  0
   -0.3060   60.1770   75.5170 O   0  0  0  0  0  0  0  0  0  0  0  0
    1.1890   61.3090   72.1640 C   0  0  0  0  0  0  0  0  0  0  0  0
    2.1430   61.7100   71.0630 C   0  0  0  0  0  0  0  0  0  0  0  0
    2.1690   63.0350   70.6010 C   0  0  0  0  0  0  0  0  0  0  0  0
    3.0360   63.4090   69.5740 C   0  0  0  0  0  0  0  0  0  0  0  0
    3.8840   62.4640   68.9970 C   0  0  0  0  0  0  0  0  0  0  0  0
    3.8630   61.1460   69.4470 C   0  0  0  0  0  0  0  0  0  0  0  0
    2.9970   60.7700   70.4750 C   0  0  0  0  0  0  0  0  0  0  0  0
    3.3100   57.4633   76.9415 H   0  0  0  0  0  0  0  0  0  0  0  0
    3.2843   56.4487   75.4593 H   0  0  0  0  0  0  0  0  0  0  0  0
    4.1606   58.0167   75.4593 H   0  0  0  0  0  0  0  0  0  0  0  0
    2.8802   61.6482   73.4838 H   0  0  0  0  0  0  0  0  0  0  0  0
    2.6215   61.3936   76.5510 H   0  0  0  0  0  0  0  0  0  0  0  0
   -0.1319   61.4677   77.8189 H   0  0  0  0  0  0  0  0  0  0  0  0
    1.4147   61.2999   78.6136 H   0  0  0  0  0  0  0  0  0  0  0  0
    0.2226   63.7260   78.6001 H   0  0  0  0  0  0  0  0  0  0  0  0
    1.9460   63.7067   78.2750 H   0  0  0  0  0  0  0  0  0  0  0  0
   -0.3959   63.9655   76.3284 H   0  0  0  0  0  0  0  0  0  0  0  0
    1.1571   64.7820   76.2417 H   0  0  0  0  0  0  0  0  0  0  0  0
    0.5182   57.3316   74.1057 H   0  0  0  0  0  0  0  0  0  0  0  0
   -0.8208   55.1825   74.5990 H   0  0  0  0  0  0  0  0  0  0  0  0
   -2.3417   54.2965   76.2419 H   0  0  0  0  0  0  0  0  0  0  0  0
   -0.6790   54.1921   76.9319 H   0  0  0  0  0  0  0  0  0  0  0  0
   -1.1325   56.3061   78.0566 H   0  0  0  0  0  0  0  0  0  0  0  0
   -1.9564   55.5475   79.9413 H   0  0  0  0  0  0  0  0  0  0  0  0
   -3.1087   54.4638   79.0902 H   0  0  0  0  0  0  0  0  0  0  0  0
   -1.3527   54.0853   79.0902 H   0  0  0  0  0  0  0  0  0  0  0  0
   -2.9677   57.4978   78.2104 H   0  0  0  0  0  0  0  0  0  0  0  0
   -1.8596   57.4283   74.2376 H   0  0  0  0  0  0  0  0  0  0  0  0
   -2.8742   59.5774   74.3134 H   0  0  0  0  0  0  0  0  0  0  0  0
   -4.8578   61.0110   73.8899 H   0  0  0  0  0  0  0  0  0  0  0  0
   -7.0606   60.5569   75.0129 H   0  0  0  0  0  0  0  0  0  0  0  0
   -4.6175   55.8213   78.7700 H   0  0  0  0  0  0  0  0  0  0  0  0
   -4.5670   55.1244   77.1188 H   0  0  0  0  0  0  0  0  0  0  0  0
   -7.4310   56.6113   78.2567 H   0  0  0  0  0  0  0  0  0  0  0  0
   -8.2346   58.6901   76.8785 H   0  0  0  0  0  0  0  0  0  0  0  0
   -0.7451   60.1457   76.4037 H   0  0  0  0  0  0  0  0  0  0  0  0
    0.9184   60.2516   72.0271 H   0  0  0  0  0  0  0  0  0  0  0  0
    0.3096   61.9664   72.0970 H   0  0  0  0  0  0  0  0  0  0  0  0
    1.5011   63.7838   71.0518 H   0  0  0  0  0  0  0  0  0  0  0  0
    3.0508   64.4501   69.2191 H   0  0  0  0  0  0  0  0  0  0  0  0
    4.5683   62.7590   68.1879 H   0  0  0  0  0  0  0  0  0  0  0  0
    4.5304   60.3998   68.9912 H   0  0  0  0  0  0  0  0  0  0  0  0
    2.9856   59.7274   70.8255 H   0  0  0  0  0  0  0  0  0  0  0  0
  2  1  1  0
  3  1  1  0
  4  3  1  0
  5  4  1  0
  6  5  1  0
  6  1  1  0
  7  6  2  0
  8  5  1  0
  9  8  1  0
 10  9  2  0
 11  9  1  0
 12 11  1  0
 12  4  1  0
 13 12  1  0
 14 13  1  0
 15 14  1  0
 15 11  1  0
 17 16  2  0
 18 17  1  0
  1 18  1  6
 19 17  1  0
 20 19  1  0
 21 20  1  0
 22 21  1  0
 23 21  1  0
 24 23  1  0
 25 19  1  0
 25 24  2  0
 26 24  1  0
 27 26  2  0
 28 27  1  0
 29 28  2  0
 30 29  1  0
 31 30  2  0
 31 26  1  0
 32 31  1  0
 33 32  1  0
 33 23  1  0
 34 32  2  0
 35 34  1  0
 35 30  1  0
  4 36  1  6
 37  8  1  0
 38 37  1  0
 39 38  2  0
 40 39  1  0
 41 40  2  0
 42 41  1  0
 43 42  2  0
 43 38  1  0
  2 44  1  0
  2 45  1  0
  2 46  1  0
  8 47  1  6
 12 48  1  1
 13 49  1  0
 13 50  1  0
 14 51  1  0
 14 52  1  0
 15 53  1  0
 15 54  1  0
 18 55  1  0
 19 56  1  6
 20 57  1  0
 20 58  1  0
 21 59  1  1
 22 60  1  0
 22 61  1  0
 22 62  1  0
 23 63  1  1
 25 64  1  0
 27 65  1  0
 28 66  1  0
 29 67  1  0
 33 68  1  0
 33 69  1  0
 34 70  1  0
 35 71  1  0
 36 72  1  0
 37 73  1  0
 37 74  1  0
 39 75  1  0
 40 76  1  0
 41 77  1  0
 42 78  1  0
 43 79  1  0
M  CHG  1  21   1
M  END
>  <score>  (2) 
-9.6

$$$$
=
     RDKit          3D

 79 86  0  0  0  0  0  0  0  0999 V2000
   -0.0940   63.9310   75.5300 C   0  0  1  0  0  0  0  0  0  0  0  0
    0.4110   65.3520   75.3330 C   0  0  0  0  0  0  0  0  0  0  0  0
    0.8370   63.1670   76.3070 O   0  0  0  0  0  0  0  0  0  0  0  0
    0.0910   62.3360   77.1820 C   0  0  2  0  0  0  0  0  0  0  0  0
   -1.2150   62.8880   77.2820 N   0  0  0  0  0  0  0  0  0  0  0  0
   -1.3580   63.9300   76.4000 C   0  0  0  0  0  0  0  0  0  0  0  0
   -2.3370   64.6440   76.2740 O   0  0  0  0  0  0  0  0  0  0  0  0
   -2.0890   62.6180   78.4440 C   0  0  2  0  0  0  0  0  0  0  0  0
   -1.4760   61.6050   79.4710 C   0  0  0  0  0  0  0  0  0  0  0  0
   -2.1510   60.9410   80.2520 O   0  0  0  0  0  0  0  0  0  0  0  0
   -0.0950   61.5560   79.5080 N   0  0  0  0  0  0  0  0  0  0  0  0
    0.7500   62.2910   78.5770 C   0  0  1  0  0  0  0  0  0  0  0  0
    2.0980   61.5760   78.6740 C   0  0  0  0  0  0  0  0  0  0  0  0
    2.1190   61.1080   80.1310 C   0  0  0  0  0  0  0  0  0  0  0  0
    0.6730   60.7010   80.3930 C   0  0  0  0  0  0  0  0  0  0  0  0
    0.0460   64.9330   72.8190 O   0  0  0  0  0  0  0  0  0  0  0  0
   -0.2000   63.7500   73.0520 C   0  0  0  0  0  0  0  0  0  0  0  0
   -0.3660   63.2070   74.2980 N   0  0  0  0  0  0  0  0  0  0  0  0
   -0.2810   62.7460   71.9050 C   0  0  1  0  0  0  0  0  0  0  0  0
    0.8940   62.9920   70.9380 C   0  0  0  0  0  0  0  0  0  0  0  0
    2.2080   62.6190   71.5960 N   0  0  2  0  0  4  0  0  0  0  0  0
    3.4100   63.1590   70.8950 C   0  0  0  0  0  0  0  0  0  0  0  0
    2.2730   61.1510   72.0040 C   0  0  1  0  0  0  0  0  0  0  0  0
    0.9130   60.6380   72.5360 C   0  0  0  0  0  0  0  0  0  0  0  0
   -0.2220   61.3620   72.5030 C   0  0  0  0  0  0  0  0  0  0  0  0
    0.9110   59.2280   72.9820 C   0  0  0  0  0  0  0  0  0  0  0  0
    0.0970   58.6050   73.9290 C   0  0  0  0  0  0  0  0  0  0  0  0
    0.2410   57.2340   74.1850 C   0  0  0  0  0  0  0  0  0  0  0  0
    1.1870   56.4440   73.5070 C   0  0  0  0  0  0  0  0  0  0  0  0
    1.9890   57.0870   72.5630 C   0  0  0  0  0  0  0  0  0  0  0  0
    1.8570   58.4390   72.3080 C   0  0  0  0  0  0  0  0  0  0  0  0
    2.7960   58.8110   71.3140 C   0  0  0  0  0  0  0  0  0  0  0  0
    2.8660   60.2360   70.8740 C   0  0  0  0  0  0  0  0  0  0  0  0
    3.4870   57.6760   70.9680 C   0  0  0  0  0  0  0  0  0  0  0  0
    2.9900   56.6340   71.7280 N   0  0  0  0  0  0  0  0  0  0  0  0
   -0.0770   61.0600   76.5910 O   0  0  0  0  0  0  0  0  0  0  0  0
   -3.4860   62.1420   77.9930 C   0  0  0  0  0  0  0  0  0  0  0  0
   -3.4240   61.1130   76.8880 C   0  0  0  0  0  0  0  0  0  0  0  0
   -3.6220   61.4980   75.5540 C   0  0  0  0  0  0  0  0  0  0  0  0
   -3.5810   60.5500   74.5300 C   0  0  0  0  0  0  0  0  0  0  0  0
   -3.3440   59.2090   74.8290 C   0  0  0  0  0  0  0  0  0  0  0  0
   -3.1500   58.8170   76.1520 C   0  0  0  0  0  0  0  0  0  0  0  0
   -3.1890   59.7640   77.1770 C   0  0  0  0  0  0  0  0  0  0  0  0
    0.5777   65.8212   76.3139 H   0  0  0  0  0  0  0  0  0  0  0  0
    1.3565   65.3305   74.7713 H   0  0  0  0  0  0  0  0  0  0  0  0
   -0.3360   65.9321   74.7713 H   0  0  0  0  0  0  0  0  0  0  0  0
   -2.1847   63.5792   78.9702 H   0  0  0  0  0  0  0  0  0  0  0  0
    0.8920   63.3578   78.8045 H   0  0  0  0  0  0  0  0  0  0  0  0
    2.1464   60.7228   77.9814 H   0  0  0  0  0  0  0  0  0  0  0  0
    2.9534   62.2133   78.4052 H   0  0  0  0  0  0  0  0  0  0  0  0
    2.7981   60.2523   80.2597 H   0  0  0  0  0  0  0  0  0  0  0  0
    2.4797   61.8814   80.8251 H   0  0  0  0  0  0  0  0  0  0  0  0
    0.5142   59.6405   80.1479 H   0  0  0  0  0  0  0  0  0  0  0  0
    0.3847   60.8142   81.4485 H   0  0  0  0  0  0  0  0  0  0  0  0
   -0.7009   62.2354   74.3665 H   0  0  0  0  0  0  0  0  0  0  0  0
   -1.2158   62.8554   71.3356 H   0  0  0  0  0  0  0  0  0  0  0  0
    0.7543   62.3796   70.0350 H   0  0  0  0  0  0  0  0  0  0  0  0
    0.9190   64.0589   70.6715 H   0  0  0  0  0  0  0  0  0  0  0  0
    2.2345   63.1206   72.4952 H   0  0  0  0  0  0  0  0  0  0  0  0
    4.1496   63.4913   71.6384 H   0  0  0  0  0  0  0  0  0  0  0  0
    3.8512   62.3726   70.2650 H   0  0  0  0  0  0  0  0  0  0  0  0
    3.1151   64.0111   70.2650 H   0  0  0  0  0  0  0  0  0  0  0  0
    2.9817   61.0878   72.8429 H   0  0  0  0  0  0  0  0  0  0  0  0
   -1.1396   60.9286   72.9275 H   0  0  0  0  0  0  0  0  0  0  0  0
   -0.6580   59.1898   74.4749 H   0  0  0  0  0  0  0  0  0  0  0  0
   -0.4056   56.7617   74.9392 H   0  0  0  0  0  0  0  0  0  0  0  0
    1.2900   55.3681   73.7116 H   0  0  0  0  0  0  0  0  0  0  0  0
    3.9141   60.5131   70.6874 H   0  0  0  0  0  0  0  0  0  0  0  0
    2.2869   60.3674   69.9480 H   0  0  0  0  0  0  0  0  0  0  0  0
    4.2912   57.6082   70.2206 H   0  0  0  0  0  0  0  0  0  0  0  0
    3.3194   55.6594   71.6783 H   0  0  0  0  0  0  0  0  0  0  0  0
   -0.1670   60.3765   77.3015 H   0  0  0  0  0  0  0  0  0  0  0  0
   -4.0027   61.6993   78.8573 H   0  0  0  0  0  0  0  0  0  0  0  0
   -4.0244   63.0176   77.6012 H   0  0  0  0  0  0  0  0  0  0  0  0
   -3.8110   62.5545   75.3128 H   0  0  0  0  0  0  0  0  0  0  0  0
   -3.7358   60.8613   73.4864 H   0  0  0  0  0  0  0  0  0  0  0  0
   -3.3102   58.4620   74.0222 H   0  0  0  0  0  0  0  0  0  0  0  0
   -2.9657   57.7588   76.3893 H   0  0  0  0  0  0  0  0  0  0  0  0
   -3.0339   59.4477   78.2191 H   0  0  0  0  0  0  0  0  0  0  0  0
  2  1  1  0
  3  1  1  0
  4  3  1  0
  5  4  1  0
  6  5  1  0
  6  1  1  0
  7  6  2  0
  8  5  1  0
  9  8  1  0
 10  9  2  0
 11  9  1  0
 12 11  1  0
 12  4  1  0
 13 12  1  0
 14 13  1  0
 15 14  1  0
 15 11  1  0
 17 16  2  0
 18 17  1  0
  1 18  1  6
 19 17  1  0
 20 19  1  0
 21 20  1  0
 22 21  1  0
 23 21  1  0
 24 23  1  0
 25 19  1  0
 25 24  2  0
 26 24  1  0
 27 26  2  0
 28 27  1  0
 29 28  2  0
 30 29  1  0
 31 30  2  0
 31 26  1  0
 32 31  1  0
 33 32  1  0
 33 23  1  0
 34 32  2  0
 35 34  1  0
 35 30  1  0
  4 36  1  6
 37  8  1  0
 38 37  1  0
 39 38  2  0
 40 39  1  0
 41 40  2  0
 42 41  1  0
 43 42  2  0
 43 38  1  0
  2 44  1  0
  2 45  1  0
  2 46  1  0
  8 47  1  1
 12 48  1  1
 13 49  1  0
 13 50  1  0
 14 51  1  0
 14 52  1  0
 15 53  1  0
 15 54  1  0
 18 55  1  0
 19 56  1  6
 20 57  1  0
 20 58  1  0
 21 59  1  1
 22 60  1  0
 22 61  1  0
 22 62  1  0
 23 63  1  1
 25 64  1  0
 27 65  1  0
 28 66  1  0
 29 67  1  0
 33 68  1  0
 33 69  1  0
 34 70  1  0
 35 71  1  0
 36 72  1  0
 37 73  1  0
 37 74  1  0
 39 75  1  0
 40 76  1  0
 41 77  1  0
 42 78  1  0
 43 79  1  0
M  CHG  1  21   1
M  END
>  <score>  (3) 
-9.595

$$$$
=
     RDKit          3D

 79 86  0  0  0  0  0  0  0  0999 V2000
   -0.9980   58.9020   77.2650 C   0  0  1  0  0  0  0  0  0  0  0  0
   -1.0400   57.5330   77.9260 C   0  0  0  0  0  0  0  0  0  0  0  0
   -1.9540   58.9780   76.2010 O   0  0  0  0  0  0  0  0  0  0  0  0
   -2.5330   60.2740   76.2310 C   0  0  2  0  0  0  0  0  0  0  0  0
   -2.2990   60.8140   77.5240 N   0  0  0  0  0  0  0  0  0  0  0  0
   -1.4790   59.9810   78.2440 C   0  0  0  0  0  0  0  0  0  0  0  0
   -1.1290   60.1310   79.4020 O   0  0  0  0  0  0  0  0  0  0  0  0
   -3.1510   61.8820   78.0900 C   0  0  2  0  0  0  0  0  0  0  0  0
   -4.2420   62.4090   77.0960 C   0  0  0  0  0  0  0  0  0  0  0  0
   -4.7600   63.5180   77.1850 O   0  0  0  0  0  0  0  0  0  0  0  0
   -4.6600   61.5060   76.1360 N   0  0  0  0  0  0  0  0  0  0  0  0
   -4.0500   60.1950   75.9620 C   0  0  1  0  0  0  0  0  0  0  0  0
   -4.4740   59.7860   74.5510 C   0  0  0  0  0  0  0  0  0  0  0  0
   -5.8470   60.4490   74.4150 C   0  0  0  0  0  0  0  0  0  0  0  0
   -5.6690   61.7830   75.1320 C   0  0  0  0  0  0  0  0  0  0  0  0
    0.2390   58.0440   74.7940 O   0  0  0  0  0  0  0  0  0  0  0  0
    0.7730   58.8810   75.5200 C   0  0  0  0  0  0  0  0  0  0  0  0
    0.3040   59.2840   76.7410 N   0  0  0  0  0  0  0  0  0  0  0  0
    2.0330   59.6050   75.0520 C   0  0  1  0  0  0  0  0  0  0  0  0
    2.8460   58.6620   74.1420 C   0  0  0  0  0  0  0  0  0  0  0  0
    2.1110   58.4230   72.8380 N   0  0  2  0  0  4  0  0  0  0  0  0
    2.6230   57.2570   72.0610 C   0  0  0  0  0  0  0  0  0  0  0  0
    1.8740   59.7050   72.0460 C   0  0  1  0  0  0  0  0  0  0  0  0
    1.5410   60.9030   72.9680 C   0  0  0  0  0  0  0  0  0  0  0  0
    1.5990   60.8460   74.3120 C   0  0  0  0  0  0  0  0  0  0  0  0
    1.2660   62.1730   72.2640 C   0  0  0  0  0  0  0  0  0  0  0  0
    0.4820   63.2540   72.6710 C   0  0  0  0  0  0  0  0  0  0  0  0
    0.3770   64.3900   71.8560 C   0  0  0  0  0  0  0  0  0  0  0  0
    1.0470   64.4900   70.6240 C   0  0  0  0  0  0  0  0  0  0  0  0
    1.8270   63.3980   70.2370 C   0  0  0  0  0  0  0  0  0  0  0  0
    1.9330   62.2720   71.0330 C   0  0  0  0  0  0  0  0  0  0  0  0
    2.7800   61.3360   70.3890 C   0  0  0  0  0  0  0  0  0  0  0  0
    3.0410   60.0180   71.0420 C   0  0  0  0  0  0  0  0  0  0  0  0
    3.1890   61.9070   69.2080 C   0  0  0  0  0  0  0  0  0  0  0  0
    2.6080   63.1590   69.1250 N   0  0  0  0  0  0  0  0  0  0  0  0
   -1.8390   61.1200   75.3320 O   0  0  0  0  0  0  0  0  0  0  0  0
   -2.2980   63.0560   78.6180 C   0  0  0  0  0  0  0  0  0  0  0  0
   -1.2220   63.4790   77.6460 C   0  0  0  0  0  0  0  0  0  0  0  0
    0.1180   63.1410   77.8870 C   0  0  0  0  0  0  0  0  0  0  0  0
    1.1200   63.5430   77.0010 C   0  0  0  0  0  0  0  0  0  0  0  0
    0.7930   64.2870   75.8690 C   0  0  0  0  0  0  0  0  0  0  0  0
   -0.5350   64.6310   75.6230 C   0  0  0  0  0  0  0  0  0  0  0  0
   -1.5380   64.2290   76.5070 C   0  0  0  0  0  0  0  0  0  0  0  0
   -1.0363   57.6535   79.0194 H   0  0  0  0  0  0  0  0  0  0  0  0
   -1.9548   57.0052   77.6184 H   0  0  0  0  0  0  0  0  0  0  0  0
   -0.1593   56.9501   77.6184 H   0  0  0  0  0  0  0  0  0  0  0  0
   -3.6885   61.4166   78.9293 H   0  0  0  0  0  0  0  0  0  0  0  0
   -4.3749   59.4215   76.6734 H   0  0  0  0  0  0  0  0  0  0  0  0
   -3.7705   60.1694   73.7973 H   0  0  0  0  0  0  0  0  0  0  0  0
   -4.4946   58.6971   74.3966 H   0  0  0  0  0  0  0  0  0  0  0  0
   -6.1068   60.6025   73.3572 H   0  0  0  0  0  0  0  0  0  0  0  0
   -6.6608   59.8407   74.8364 H   0  0  0  0  0  0  0  0  0  0  0  0
   -5.3238   62.5598   74.4338 H   0  0  0  0  0  0  0  0  0  0  0  0
   -6.6068   62.1608   75.5653 H   0  0  0  0  0  0  0  0  0  0  0  0
    0.9043   59.8894   77.3190 H   0  0  0  0  0  0  0  0  0  0  0  0
    2.6737   59.8928   75.8986 H   0  0  0  0  0  0  0  0  0  0  0  0
    3.8239   59.1182   73.9286 H   0  0  0  0  0  0  0  0  0  0  0  0
    2.9824   57.6993   74.6565 H   0  0  0  0  0  0  0  0  0  0  0  0
    1.1608   58.1172   73.0920 H   0  0  0  0  0  0  0  0  0  0  0  0
    2.9660   56.4758   72.7553 H   0  0  0  0  0  0  0  0  0  0  0  0
    1.8179   56.8566   71.4274 H   0  0  0  0  0  0  0  0  0  0  0  0
    3.4626   57.5788   71.4274 H   0  0  0  0  0  0  0  0  0  0  0  0
    0.9826   59.5318   71.4252 H   0  0  0  0  0  0  0  0  0  0  0  0
    1.3195   61.7377   74.8922 H   0  0  0  0  0  0  0  0  0  0  0  0
   -0.0534   63.2145   73.6311 H   0  0  0  0  0  0  0  0  0  0  0  0
   -0.2495   65.2297   72.1911 H   0  0  0  0  0  0  0  0  0  0  0  0
    0.9608   65.3874   69.9937 H   0  0  0  0  0  0  0  0  0  0  0  0
    3.0898   59.2301   70.2760 H   0  0  0  0  0  0  0  0  0  0  0  0
    3.9977   60.0544   71.5837 H   0  0  0  0  0  0  0  0  0  0  0  0
    3.8577   61.4506   68.4633 H   0  0  0  0  0  0  0  0  0  0  0  0
    2.7394   63.8186   68.3449 H   0  0  0  0  0  0  0  0  0  0  0  0
   -1.3015   61.7752   75.8437 H   0  0  0  0  0  0  0  0  0  0  0  0
   -2.9594   63.9146   78.8062 H   0  0  0  0  0  0  0  0  0  0  0  0
   -1.7995   62.7167   79.5380 H   0  0  0  0  0  0  0  0  0  0  0  0
    0.3814   62.5553   78.7800 H   0  0  0  0  0  0  0  0  0  0  0  0
    2.1680   63.2721   77.1969 H   0  0  0  0  0  0  0  0  0  0  0  0
    1.5820   64.6024   75.1705 H   0  0  0  0  0  0  0  0  0  0  0  0
   -0.7933   65.2203   74.7308 H   0  0  0  0  0  0  0  0  0  0  0  0
   -2.5842   64.5036   76.3071 H   0  0  0  0  0  0  0  0  0  0  0  0
  2  1  1  0
  3  1  1  0
  4  3  1  0
  5  4  1  0
  6  5  1  0
  6  1  1  0
  7  6  2  0
  8  5  1  0
  9  8  1  0
 10  9  2  0
 11  9  1  0
 12 11  1  0
 12  4  1  0
 13 12  1  0
 14 13  1  0
 15 14  1  0
 15 11  1  0
 17 16  2  0
 18 17  1  0
  1 18  1  6
 19 17  1  0
 20 19  1  0
 21 20  1  0
 22 21  1  0
 23 21  1  0
 24 23  1  0
 25 19  1  0
 25 24  2  0
 26 24  1  0
 27 26  2  0
 28 27  1  0
 29 28  2  0
 30 29  1  0
 31 30  2  0
 31 26  1  0
 32 31  1  0
 33 32  1  0
 33 23  1  0
 34 32  2  0
 35 34  1  0
 35 30  1  0
  4 36  1  6
 37  8  1  0
 38 37  1  0
 39 38  2  0
 40 39  1  0
 41 40  2  0
 42 41  1  0
 43 42  2  0
 43 38  1  0
  2 44  1  0
  2 45  1  0
  2 46  1  0
  8 47  1  1
 12 48  1  1
 13 49  1  0
 13 50  1  0
 14 51  1  0
 14 52  1  0
 15 53  1  0
 15 54  1  0
 18 55  1  0
 19 56  1  1
 20 57  1  0
 20 58  1  0
 21 59  1  1
 22 60  1  0
 22 61  1  0
 22 62  1  0
 23 63  1  6
 25 64  1  0
 27 65  1  0
 28 66  1  0
 29 67  1  0
 33 68  1  0
 33 69  1  0
 34 70  1  0
 35 71  1  0
 36 72  1  0
 37 73  1  0
 37 74  1  0
 39 75  1  0
 40 76  1  0
 41 77  1  0
 42 78  1  0
 43 79  1  0
M  CHG  1  21   1
M  END
>  <score>  (4) 
-9.588

$$$$
=
     RDKit          3D

 79 86  0  0  0  0  0  0  0  0999 V2000
   -1.0140   58.4830   76.8110 C   0  0  1  0  0  0  0  0  0  0  0  0
   -2.2620   58.2270   77.6430 C   0  0  0  0  0  0  0  0  0  0  0  0
   -0.0830   59.2970   77.5350 O   0  0  0  0  0  0  0  0  0  0  0  0
    1.2210   58.8090   77.2620 C   0  0  2  0  0  0  0  0  0  0  0  0
    1.0860   57.4810   76.7760 N   0  0  0  0  0  0  0  0  0  0  0  0
   -0.2400   57.1760   76.5950 C   0  0  0  0  0  0  0  0  0  0  0  0
   -0.6960   56.1030   76.2380 O   0  0  0  0  0  0  0  0  0  0  0  0
    2.1890   56.5010   76.8650 C   0  0  2  0  0  0  0  0  0  0  0  0
    3.5180   57.1000   77.4400 C   0  0  0  0  0  0  0  0  0  0  0  0
    4.6270   56.6190   77.2260 O   0  0  0  0  0  0  0  0  0  0  0  0
    3.3660   58.1800   78.2900 N   0  0  0  0  0  0  0  0  0  0  0  0
    2.0800   58.8140   78.5450 C   0  0  1  0  0  0  0  0  0  0  0  0
    2.4590   60.1830   79.1090 C   0  0  0  0  0  0  0  0  0  0  0  0
    3.7670   59.8840   79.8470 C   0  0  0  0  0  0  0  0  0  0  0  0
    4.4610   58.8730   78.9420 C   0  0  0  0  0  0  0  0  0  0  0  0
   -1.6470   61.2550   76.2750 O   0  0  0  0  0  0  0  0  0  0  0  0
   -1.4820   60.4480   75.3610 C   0  0  0  0  0  0  0  0  0  0  0  0
   -1.2620   59.1060   75.5210 N   0  0  0  0  0  0  0  0  0  0  0  0
   -1.4510   60.9290   73.9130 C   0  0  1  0  0  0  0  0  0  0  0  0
   -1.2560   62.4580   73.8960 C   0  0  0  0  0  0  0  0  0  0  0  0
    0.1350   62.8190   74.3810 N   0  0  2  0  0  4  0  0  0  0  0  0
    0.2930   64.2560   74.7490 C   0  0  0  0  0  0  0  0  0  0  0  0
    1.2400   62.2220   73.5150 C   0  0  1  0  0  0  0  0  0  0  0  0
    0.8850   60.7980   73.0230 C   0  0  0  0  0  0  0  0  0  0  0  0
   -0.3150   60.2200   73.2190 C   0  0  0  0  0  0  0  0  0  0  0  0
    1.9280   60.1450   72.2040 C   0  0  0  0  0  0  0  0  0  0  0  0
    2.1870   58.7840   72.0300 C   0  0  0  0  0  0  0  0  0  0  0  0
    3.2180   58.3710   71.1740 C   0  0  0  0  0  0  0  0  0  0  0  0
    4.0130   59.2890   70.4650 C   0  0  0  0  0  0  0  0  0  0  0  0
    3.7350   60.6440   70.6520 C   0  0  0  0  0  0  0  0  0  0  0  0
    2.7230   61.0610   71.4970 C   0  0  0  0  0  0  0  0  0  0  0  0
    2.6760   62.4770   71.4910 C   0  0  0  0  0  0  0  0  0  0  0  0
    1.6720   63.1780   72.3460 C   0  0  0  0  0  0  0  0  0  0  0  0
    3.6570   62.9090   70.6320 C   0  0  0  0  0  0  0  0  0  0  0  0
    4.2930   61.7910   70.1260 N   0  0  0  0  0  0  0  0  0  0  0  0
    1.7870   59.5500   76.1960 O   0  0  0  0  0  0  0  0  0  0  0  0
    2.4530   55.8320   75.4980 C   0  0  0  0  0  0  0  0  0  0  0  0
    1.7580   54.4970   75.3580 C   0  0  0  0  0  0  0  0  0  0  0  0
    1.1930   54.1230   74.1300 C   0  0  0  0  0  0  0  0  0  0  0  0
    0.5360   52.8990   73.9970 C   0  0  0  0  0  0  0  0  0  0  0  0
    0.4360   52.0380   75.0890 C   0  0  0  0  0  0  0  0  0  0  0  0
    0.9920   52.4030   76.3140 C   0  0  0  0  0  0  0  0  0  0  0  0
    1.6500   53.6270   76.4480 C   0  0  0  0  0  0  0  0  0  0  0  0
   -2.0072   58.2793   78.7118 H   0  0  0  0  0  0  0  0  0  0  0  0
   -3.0210   58.9882   77.4093 H   0  0  0  0  0  0  0  0  0  0  0  0
   -2.6600   57.2285   77.4093 H   0  0  0  0  0  0  0  0  0  0  0  0
    1.8500   55.7403   77.5836 H   0  0  0  0  0  0  0  0  0  0  0  0
    1.4297   58.2967   79.2658 H   0  0  0  0  0  0  0  0  0  0  0  0
    2.6150   60.9159   78.3037 H   0  0  0  0  0  0  0  0  0  0  0  0
    1.6827   60.6238   79.7516 H   0  0  0  0  0  0  0  0  0  0  0  0
    4.3737   60.7949   79.9572 H   0  0  0  0  0  0  0  0  0  0  0  0
    3.6072   59.5072   80.8680 H   0  0  0  0  0  0  0  0  0  0  0  0
    5.0978   59.3814   78.2031 H   0  0  0  0  0  0  0  0  0  0  0  0
    5.1242   58.1924   79.4960 H   0  0  0  0  0  0  0  0  0  0  0  0
   -1.2728   58.5065   74.6835 H   0  0  0  0  0  0  0  0  0  0  0  0
   -2.3919   60.7028   73.3900 H   0  0  0  0  0  0  0  0  0  0  0  0
   -1.3894   62.8290   72.8691 H   0  0  0  0  0  0  0  0  0  0  0  0
   -1.9979   62.9198   74.5641 H   0  0  0  0  0  0  0  0  0  0  0  0
    0.2580   62.3464   75.2879 H   0  0  0  0  0  0  0  0  0  0  0  0
    0.3039   64.3549   75.8445 H   0  0  0  0  0  0  0  0  0  0  0  0
    1.2386   64.6382   74.3369 H   0  0  0  0  0  0  0  0  0  0  0  0
   -0.5469   64.8345   74.3369 H   0  0  0  0  0  0  0  0  0  0  0  0
    2.1250   62.1177   74.1598 H   0  0  0  0  0  0  0  0  0  0  0  0
   -0.4728   59.1924   72.8596 H   0  0  0  0  0  0  0  0  0  0  0  0
    1.5825   58.0361   72.5642 H   0  0  0  0  0  0  0  0  0  0  0  0
    3.4110   57.2948   71.0533 H   0  0  0  0  0  0  0  0  0  0  0  0
    4.8175   58.9544   69.7935 H   0  0  0  0  0  0  0  0  0  0  0  0
    2.1176   64.0930   72.7633 H   0  0  0  0  0  0  0  0  0  0  0  0
    0.7930   63.4477   71.7422 H   0  0  0  0  0  0  0  0  0  0  0  0
    3.8937   63.9557   70.3904 H   0  0  0  0  0  0  0  0  0  0  0  0
    5.0721   61.8112   69.4526 H   0  0  0  0  0  0  0  0  0  0  0  0
    2.3453   60.2810   76.5621 H   0  0  0  0  0  0  0  0  0  0  0  0
    2.0925   56.5015   74.7031 H   0  0  0  0  0  0  0  0  0  0  0  0
    3.5355   55.6529   75.4192 H   0  0  0  0  0  0  0  0  0  0  0  0
    1.2683   54.7992   73.2657 H   0  0  0  0  0  0  0  0  0  0  0  0
    0.0967   52.6133   73.0298 H   0  0  0  0  0  0  0  0  0  0  0  0
   -0.0806   51.0726   74.9841 H   0  0  0  0  0  0  0  0  0  0  0  0
    0.9122   51.7253   77.1768 H   0  0  0  0  0  0  0  0  0  0  0  0
    2.0865   53.9092   77.4174 H   0  0  0  0  0  0  0  0  0  0  0  0
  2  1  1  0
  3  1  1  0
  4  3  1  0
  5  4  1  0
  6  5  1  0
  6  1  1  0
  7  6  2  0
  8  5  1  0
  9  8  1  0
 10  9  2  0
 11  9  1  0
 12 11  1  0
 12  4  1  0
 13 12  1  0
 14 13  1  0
 15 14  1  0
 15 11  1  0
 17 16  2  0
 18 17  1  0
  1 18  1  6
 19 17  1  0
 20 19  1  0
 21 20  1  0
 22 21  1  0
 23 21  1  0
 24 23  1  0
 25 19  1  0
 25 24  2  0
 26 24  1  0
 27 26  2  0
 28 27  1  0
 29 28  2  0
 30 29  1  0
 31 30  2  0
 31 26  1  0
 32 31  1  0
 33 32  1  0
 33 23  1  0
 34 32  2  0
 35 34  1  0
 35 30  1  0
  4 36  1  6
 37  8  1  0
 38 37  1  0
 39 38  2  0
 40 39  1  0
 41 40  2  0
 42 41  1  0
 43 42  2  0
 43 38  1  0
  2 44  1  0
  2 45  1  0
  2 46  1  0
  8 47  1  1
 12 48  1  1
 13 49  1  0
 13 50  1  0
 14 51  1  0
 14 52  1  0
 15 53  1  0
 15 54  1  0
 18 55  1  0
 19 56  1  6
 20 57  1  0
 20 58  1  0
 21 59  1  1
 22 60  1  0
 22 61  1  0
 22 62  1  0
 23 63  1  1
 25 64  1  0
 27 65  1  0
 28 66  1  0
 29 67  1  0
 33 68  1  0
 33 69  1  0
 34 70  1  0
 35 71  1  0
 36 72  1  0
 37 73  1  0
 37 74  1  0
 39 75  1  0
 40 76  1  0
 41 77  1  0
 42 78  1  0
 43 79  1  0
M  CHG  1  21   1
M  END
>  <score>  (5) 
-9.482

$$$$
=
     RDKit          3D

 79 86  0  0  0  0  0  0  0  0999 V2000
    0.0080   63.8480   75.6190 C   0  0  1  0  0  0  0  0  0  0  0  0
    1.0800   64.9250   75.5510 C   0  0  0  0  0  0  0  0  0  0  0  0
    0.3620   62.8430   76.5760 O   0  0  0  0  0  0  0  0  0  0  0  0
   -0.8220   62.4590   77.2580 C   0  0  2  0  0  0  0  0  0  0  0  0
   -1.7760   63.4950   77.0710 N   0  0  0  0  0  0  0  0  0  0  0  0
   -1.2940   64.4290   76.1880 C   0  0  0  0  0  0  0  0  0  0  0  0
   -1.8440   65.4640   75.8540 O   0  0  0  0  0  0  0  0  0  0  0  0
   -2.9010   63.6990   78.0090 C   0  0  2  0  0  0  0  0  0  0  0  0
   -2.9830   62.6140   79.1370 C   0  0  0  0  0  0  0  0  0  0  0  0
   -4.0160   62.3460   79.7440 O   0  0  0  0  0  0  0  0  0  0  0  0
   -1.7850   62.0170   79.4790 N   0  0  0  0  0  0  0  0  0  0  0  0
   -0.5410   62.2690   78.7640 C   0  0  1  0  0  0  0  0  0  0  0  0
    0.3430   61.0830   79.1500 C   0  0  0  0  0  0  0  0  0  0  0  0
   -0.1300   60.7690   80.5720 C   0  0  0  0  0  0  0  0  0  0  0  0
   -1.6350   61.0020   80.5040 C   0  0  0  0  0  0  0  0  0  0  0  0
   -0.0470   65.0430   72.9840 O   0  0  0  0  0  0  0  0  0  0  0  0
   -0.2070   63.8330   73.1420 C   0  0  0  0  0  0  0  0  0  0  0  0
   -0.2790   63.1960   74.3520 N   0  0  0  0  0  0  0  0  0  0  0  0
   -0.2820   62.9070   71.9300 C   0  0  1  0  0  0  0  0  0  0  0  0
    0.8050   63.3180   70.9170 C   0  0  0  0  0  0  0  0  0  0  0  0
    2.1840   63.0120   71.4680 N   0  0  2  0  0  4  0  0  0  0  0  0
    3.2910   63.6980   70.7400 C   0  0  0  0  0  0  0  0  0  0  0  0
    2.3910   61.5290   71.7610 C   0  0  1  0  0  0  0  0  0  0  0  0
    1.1130   60.8680   72.3320 C   0  0  0  0  0  0  0  0  0  0  0  0
   -0.0750   61.4960   72.4190 C   0  0  0  0  0  0  0  0  0  0  0  0
    1.2520   59.4360   72.6710 C   0  0  0  0  0  0  0  0  0  0  0  0
    0.5520   58.6830   73.6160 C   0  0  0  0  0  0  0  0  0  0  0  0
    0.8210   57.3140   73.7600 C   0  0  0  0  0  0  0  0  0  0  0  0
    1.7810   56.6550   72.9720 C   0  0  0  0  0  0  0  0  0  0  0  0
    2.4680   57.4270   72.0320 C   0  0  0  0  0  0  0  0  0  0  0  0
    2.2120   58.7780   71.8860 C   0  0  0  0  0  0  0  0  0  0  0  0
    3.0530   59.2950   70.8700 C   0  0  0  0  0  0  0  0  0  0  0  0
    2.9820   60.7480   70.5330 C   0  0  0  0  0  0  0  0  0  0  0  0
    3.8090   58.2480   70.4000 C   0  0  0  0  0  0  0  0  0  0  0  0
    3.4460   57.1190   71.1090 N   0  0  0  0  0  0  0  0  0  0  0  0
   -1.3750   61.3140   76.6330 O   0  0  0  0  0  0  0  0  0  0  0  0
   -4.2460   63.7890   77.2560 C   0  0  0  0  0  0  0  0  0  0  0  0
   -4.9760   65.0860   77.5190 C   0  0  0  0  0  0  0  0  0  0  0  0
   -4.4670   66.0050   78.4480 C   0  0  0  0  0  0  0  0  0  0  0  0
   -5.1460   67.1970   78.7080 C   0  0  0  0  0  0  0  0  0  0  0  0
   -6.3380   67.4810   78.0430 C   0  0  0  0  0  0  0  0  0  0  0  0
   -6.8520   66.5720   77.1210 C   0  0  0  0  0  0  0  0  0  0  0  0
   -6.1750   65.3800   76.8600 C   0  0  0  0  0  0  0  0  0  0  0  0
    1.3711   65.2175   76.5707 H   0  0  0  0  0  0  0  0  0  0  0  0
    1.9586   64.5346   75.0166 H   0  0  0  0  0  0  0  0  0  0  0  0
    0.6855   65.8018   75.0166 H   0  0  0  0  0  0  0  0  0  0  0  0
   -2.6989   64.6579   78.5086 H   0  0  0  0  0  0  0  0  0  0  0  0
   -0.0231   63.2032   79.0268 H   0  0  0  0  0  0  0  0  0  0  0  0
    0.1777   60.2281   78.4778 H   0  0  0  0  0  0  0  0  0  0  0  0
    1.4198   61.2973   79.0824 H   0  0  0  0  0  0  0  0  0  0  0  0
    0.0950   59.7262   80.8403 H   0  0  0  0  0  0  0  0  0  0  0  0
    0.3658   61.3865   81.3354 H   0  0  0  0  0  0  0  0  0  0  0  0
   -2.1615   60.0787   80.2205 H   0  0  0  0  0  0  0  0  0  0  0  0
   -2.0608   61.3092   81.4706 H   0  0  0  0  0  0  0  0  0  0  0  0
   -0.5508   62.2026   74.3650 H   0  0  0  0  0  0  0  0  0  0  0  0
   -1.2572   62.9759   71.4258 H   0  0  0  0  0  0  0  0  0  0  0  0
    0.6570   62.7604   69.9804 H   0  0  0  0  0  0  0  0  0  0  0  0
    0.7275   64.3991   70.7296 H   0  0  0  0  0  0  0  0  0  0  0  0
    2.2290   63.4503   72.3990 H   0  0  0  0  0  0  0  0  0  0  0  0
    3.9932   64.1331   71.4663 H   0  0  0  0  0  0  0  0  0  0  0  0
    3.8211   62.9699   70.1085 H   0  0  0  0  0  0  0  0  0  0  0  0
    2.8749   64.4968   70.1085 H   0  0  0  0  0  0  0  0  0  0  0  0
    3.1544   61.4667   72.5505 H   0  0  0  0  0  0  0  0  0  0  0  0
   -0.9262   60.9594   72.8635 H   0  0  0  0  0  0  0  0  0  0  0  0
   -0.2101   59.1633   74.2472 H   0  0  0  0  0  0  0  0  0  0  0  0
    0.2634   56.7378   74.5131 H   0  0  0  0  0  0  0  0  0  0  0  0
    1.9820   55.5800   73.0903 H   0  0  0  0  0  0  0  0  0  0  0  0
    3.9908   61.1241   70.3075 H   0  0  0  0  0  0  0  0  0  0  0  0
    2.3374   60.8947   69.6538 H   0  0  0  0  0  0  0  0  0  0  0  0
    4.5660   58.2995   69.6036 H   0  0  0  0  0  0  0  0  0  0  0  0
    3.8482   56.1812   70.9685 H   0  0  0  0  0  0  0  0  0  0  0  0
   -1.6829   60.6766   77.3251 H   0  0  0  0  0  0  0  0  0  0  0  0
   -4.0511   63.7075   76.1765 H   0  0  0  0  0  0  0  0  0  0  0  0
   -4.8845   62.9692   77.6171 H   0  0  0  0  0  0  0  0  0  0  0  0
   -3.5269   65.7854   78.9752 H   0  0  0  0  0  0  0  0  0  0  0  0
   -4.7401   67.9126   79.4381 H   0  0  0  0  0  0  0  0  0  0  0  0
   -6.8717   68.4212   78.2460 H   0  0  0  0  0  0  0  0  0  0  0  0
   -7.7936   66.7943   76.5976 H   0  0  0  0  0  0  0  0  0  0  0  0
   -6.5867   64.6664   76.1311 H   0  0  0  0  0  0  0  0  0  0  0  0
  2  1  1  0
  3  1  1  0
  4  3  1  0
  5  4  1  0
  6  5  1  0
  6  1  1  0
  7  6  2  0
  8  5  1  0
  9  8  1  0
 10  9  2  0
 11  9  1  0
 12 11  1  0
 12  4  1  0
 13 12  1  0
 14 13  1  0
 15 14  1  0
 15 11  1  0
 17 16  2  0
 18 17  1  0
  1 18  1  6
 19 17  1  0
 20 19  1  0
 21 20  1  0
 22 21  1  0
 23 21  1  0
 24 23  1  0
 25 19  1  0
 25 24  2  0
 26 24  1  0
 27 26  2  0
 28 27  1  0
 29 28  2  0
 30 29  1  0
 31 30  2  0
 31 26  1  0
 32 31  1  0
 33 32  1  0
 33 23  1  0
 34 32  2  0
 35 34  1  0
 35 30  1  0
  4 36  1  6
 37  8  1  0
 38 37  1  0
 39 38  2  0
 40 39  1  0
 41 40  2  0
 42 41  1  0
 43 42  2  0
 43 38  1  0
  2 44  1  0
  2 45  1  0
  2 46  1  0
  8 47  1  1
 12 48  1  1
 13 49  1  0
 13 50  1  0
 14 51  1  0
 14 52  1  0
 15 53  1  0
 15 54  1  0
 18 55  1  0
 19 56  1  6
 20 57  1  0
 20 58  1  0
 21 59  1  1
 22 60  1  0
 22 61  1  0
 22 62  1  0
 23 63  1  1
 25 64  1  0
 27 65  1  0
 28 66  1  0
 29 67  1  0
 33 68  1  0
 33 69  1  0
 34 70  1  0
 35 71  1  0
 36 72  1  0
 37 73  1  0
 37 74  1  0
 39 75  1  0
 40 76  1  0
 41 77  1  0
 42 78  1  0
 43 79  1  0
M  CHG  1  21   1
M  END
>  <score>  (6) 
-9.428

$$$$
=
     RDKit          3D

 79 86  0  0  0  0  0  0  0  0999 V2000
   -1.0370   60.2060   77.8830 C   0  0  1  0  0  0  0  0  0  0  0  0
   -1.0350   59.3250   79.1220 C   0  0  0  0  0  0  0  0  0  0  0  0
   -1.8830   59.6490   76.8690 O   0  0  0  0  0  0  0  0  0  0  0  0
   -2.5660   60.7220   76.2380 C   0  0  2  0  0  0  0  0  0  0  0  0
   -2.5100   61.8370   77.1160 N   0  0  0  0  0  0  0  0  0  0  0  0
   -1.7030   61.5550   78.1900 C   0  0  0  0  0  0  0  0  0  0  0  0
   -1.4860   62.2800   79.1450 O   0  0  0  0  0  0  0  0  0  0  0  0
   -3.5000   62.9330   77.0490 C   0  0  2  0  0  0  0  0  0  0  0  0
   -4.5240   62.7850   75.8720 C   0  0  0  0  0  0  0  0  0  0  0  0
   -5.1380   63.7310   75.3850 O   0  0  0  0  0  0  0  0  0  0  0  0
   -4.7670   61.4910   75.4510 N   0  0  0  0  0  0  0  0  0  0  0  0
   -4.0370   60.3400   75.9660 C   0  0  1  0  0  0  0  0  0  0  0  0
   -4.2800   59.2600   74.9120 C   0  0  0  0  0  0  0  0  0  0  0  0
   -5.6810   59.6060   74.4030 C   0  0  0  0  0  0  0  0  0  0  0  0
   -5.6870   61.1310   74.3900 C   0  0  0  0  0  0  0  0  0  0  0  0
    0.4970   58.4420   76.1790 O   0  0  0  0  0  0  0  0  0  0  0  0
    0.8910   59.5770   76.4460 C   0  0  0  0  0  0  0  0  0  0  0  0
    0.2750   60.4460   77.3050 N   0  0  0  0  0  0  0  0  0  0  0  0
    2.1300   60.1380   75.7520 C   0  0  1  0  0  0  0  0  0  0  0  0
    2.8000   59.0160   74.9340 C   0  0  0  0  0  0  0  0  0  0  0  0
    1.9250   58.6240   73.7590 N   0  0  2  0  0  4  0  0  0  0  0  0
    2.2990   57.3210   73.1360 C   0  0  0  0  0  0  0  0  0  0  0  0
    1.6710   59.7790   72.7970 C   0  0  1  0  0  0  0  0  0  0  0  0
    1.4910   61.1240   73.5420 C   0  0  0  0  0  0  0  0  0  0  0  0
    1.6820   61.2740   74.8660 C   0  0  0  0  0  0  0  0  0  0  0  0
    1.2070   62.2850   72.6710 C   0  0  0  0  0  0  0  0  0  0  0  0
    0.5220   63.4640   72.9700 C   0  0  0  0  0  0  0  0  0  0  0  0
    0.3880   64.4640   71.9970 C   0  0  0  0  0  0  0  0  0  0  0  0
    0.9340   64.3280   70.7080 C   0  0  0  0  0  0  0  0  0  0  0  0
    1.6170   63.1420   70.4300 C   0  0  0  0  0  0  0  0  0  0  0  0
    1.7490   62.1490   71.3830 C   0  0  0  0  0  0  0  0  0  0  0  0
    2.4800   61.0720   70.8230 C   0  0  0  0  0  0  0  0  0  0  0  0
    2.7430   59.8580   71.6520 C   0  0  0  0  0  0  0  0  0  0  0  0
    2.7930   61.4260   69.5330 C   0  0  0  0  0  0  0  0  0  0  0  0
    2.2680   62.6840   69.3040 N   0  0  0  0  0  0  0  0  0  0  0  0
   -1.8560   61.1130   75.0770 O   0  0  0  0  0  0  0  0  0  0  0  0
   -2.8050   64.3100   76.9830 C   0  0  0  0  0  0  0  0  0  0  0  0
   -3.4480   65.3330   77.8910 C   0  0  0  0  0  0  0  0  0  0  0  0
   -3.7840   64.9920   79.2100 C   0  0  0  0  0  0  0  0  0  0  0  0
   -4.3920   65.9280   80.0490 C   0  0  0  0  0  0  0  0  0  0  0  0
   -4.6710   67.2100   79.5790 C   0  0  0  0  0  0  0  0  0  0  0  0
   -4.3450   67.5560   78.2690 C   0  0  0  0  0  0  0  0  0  0  0  0
   -3.7360   66.6220   77.4290 C   0  0  0  0  0  0  0  0  0  0  0  0
   -1.0364   59.9577   80.0218 H   0  0  0  0  0  0  0  0  0  0  0  0
   -1.9317   58.6879   79.1203 H   0  0  0  0  0  0  0  0  0  0  0  0
   -0.1354   58.6920   79.1203 H   0  0  0  0  0  0  0  0  0  0  0  0
   -4.0805   62.8631   77.9807 H   0  0  0  0  0  0  0  0  0  0  0  0
   -4.3680   59.9660   76.9461 H   0  0  0  0  0  0  0  0  0  0  0  0
   -3.5369   59.3192   74.1031 H   0  0  0  0  0  0  0  0  0  0  0  0
   -4.1958   58.2360   75.3049 H   0  0  0  0  0  0  0  0  0  0  0  0
   -5.8429   59.2033   73.3922 H   0  0  0  0  0  0  0  0  0  0  0  0
   -6.4811   59.1792   75.0256 H   0  0  0  0  0  0  0  0  0  0  0  0
   -5.3369   61.5157   73.4208 H   0  0  0  0  0  0  0  0  0  0  0  0
   -6.6920   61.5531   74.5378 H   0  0  0  0  0  0  0  0  0  0  0  0
    0.7668   61.3158   77.5551 H   0  0  0  0  0  0  0  0  0  0  0  0
    2.8671   60.5123   76.4776 H   0  0  0  0  0  0  0  0  0  0  0  0
    3.7716   59.3709   74.5599 H   0  0  0  0  0  0  0  0  0  0  0  0
    2.9421   58.1383   75.5816 H   0  0  0  0  0  0  0  0  0  0  0  0
    0.9918   58.4225   74.1456 H   0  0  0  0  0  0  0  0  0  0  0  0
    2.5104   56.5845   73.9252 H   0  0  0  0  0  0  0  0  0  0  0  0
    1.4679   56.9611   72.5117 H   0  0  0  0  0  0  0  0  0  0  0  0
    3.1945   57.4567   72.5117 H   0  0  0  0  0  0  0  0  0  0  0  0
    0.7143   59.5682   72.2968 H   0  0  0  0  0  0  0  0  0  0  0  0
    1.5050   62.2609   75.3185 H   0  0  0  0  0  0  0  0  0  0  0  0
    0.0870   63.6084   73.9700 H   0  0  0  0  0  0  0  0  0  0  0  0
   -0.1610   65.3832   72.2493 H   0  0  0  0  0  0  0  0  0  0  0  0
    0.8278   65.1205   69.9525 H   0  0  0  0  0  0  0  0  0  0  0  0
    2.6761   58.9592   71.0214 H   0  0  0  0  0  0  0  0  0  0  0  0
    3.7505   59.9177   72.0895 H   0  0  0  0  0  0  0  0  0  0  0  0
    3.3593   60.8179   68.8122 H   0  0  0  0  0  0  0  0  0  0  0  0
    2.3511   63.2046   68.4192 H   0  0  0  0  0  0  0  0  0  0  0  0
   -1.0201   61.5733   75.3407 H   0  0  0  0  0  0  0  0  0  0  0  0
   -1.7530   64.1877   77.2803 H   0  0  0  0  0  0  0  0  0  0  0  0
   -2.8962   64.6786   75.9506 H   0  0  0  0  0  0  0  0  0  0  0  0
   -3.5671   63.9810   79.5854 H   0  0  0  0  0  0  0  0  0  0  0  0
   -4.6511   65.6532   81.0821 H   0  0  0  0  0  0  0  0  0  0  0  0
   -5.1479   67.9477   80.2411 H   0  0  0  0  0  0  0  0  0  0  0  0
   -4.5679   68.5666   77.8963 H   0  0  0  0  0  0  0  0  0  0  0  0
   -3.4806   66.9015   76.3962 H   0  0  0  0  0  0  0  0  0  0  0  0
  2  1  1  0
  3  1  1  0
  4  3  1  0
  5  4  1  0
  6  5  1  0
  6  1  1  0
  7  6  2  0
  8  5  1  0
  9  8  1  0
 10  9  2  0
 11  9  1  0
 12 11  1  0
 12  4  1  0
 13 12  1  0
 14 13  1  0
 15 14  1  0
 15 11  1  0
 17 16  2  0
 18 17  1  0
  1 18  1  6
 19 17  1  0
 20 19  1  0
 21 20  1  0
 22 21  1  0
 23 21  1  0
 24 23  1  0
 25 19  1  0
 25 24  2  0
 26 24  1  0
 27 26  2  0
 28 27  1  0
 29 28  2  0
 30 29  1  0
 31 30  2  0
 31 26  1  0
 32 31  1  0
 33 32  1  0
 33 23  1  0
 34 32  2  0
 35 34  1  0
 35 30  1  0
  4 36  1  6
 37  8  1  0
 38 37  1  0
 39 38  2  0
 40 39  1  0
 41 40  2  0
 42 41  1  0
 43 42  2  0
 43 38  1  0
  2 44  1  0
  2 45  1  0
  2 46  1  0
  8 47  1  1
 12 48  1  1
 13 49  1  0
 13 50  1  0
 14 51  1  0
 14 52  1  0
 15 53  1  0
 15 54  1  0
 18 55  1  0
 19 56  1  1
 20 57  1  0
 20 58  1  0
 21 59  1  1
 22 60  1  0
 22 61  1  0
 22 62  1  0
 23 63  1  6
 25 64  1  0
 27 65  1  0
 28 66  1  0
 29 67  1  0
 33 68  1  0
 33 69  1  0
 34 70  1  0
 35 71  1  0
 36 72  1  0
 37 73  1  0
 37 74  1  0
 39 75  1  0
 40 76  1  0
 41 77  1  0
 42 78  1  0
 43 79  1  0
M  CHG  1  21   1
M  END
>  <score>  (7) 
-9.276

$$$$
=
     RDKit          3D

 79 86  0  0  0  0  0  0  0  0999 V2000
   -0.2350   61.9500   74.7050 C   0  0  1  0  0  0  0  0  0  0  0  0
   -0.7600   62.9800   75.6940 C   0  0  0  0  0  0  0  0  0  0  0  0
   -0.0270   62.5470   73.4190 O   0  0  0  0  0  0  0  0  0  0  0  0
    1.1630   61.9970   72.8750 C   0  0  2  0  0  0  0  0  0  0  0  0
    1.9080   61.4450   73.9510 N   0  0  0  0  0  0  0  0  0  0  0  0
    1.1730   61.4930   75.1100 C   0  0  0  0  0  0  0  0  0  0  0  0
    1.5420   61.1470   76.2180 O   0  0  0  0  0  0  0  0  0  0  0  0
    3.3710   61.2490   73.8680 C   0  0  2  0  0  0  0  0  0  0  0  0
    3.9750   61.6090   72.4670 C   0  0  0  0  0  0  0  0  0  0  0  0
    5.0360   61.1530   72.0510 O   0  0  0  0  0  0  0  0  0  0  0  0
    3.2740   62.5520   71.7400 N   0  0  0  0  0  0  0  0  0  0  0  0
    1.9910   63.0910   72.1700 C   0  0  1  0  0  0  0  0  0  0  0  0
    1.4000   63.6770   70.8870 C   0  0  0  0  0  0  0  0  0  0  0  0
    2.6480   64.1310   70.1270 C   0  0  0  0  0  0  0  0  0  0  0  0
    3.6660   63.0370   70.4310 C   0  0  0  0  0  0  0  0  0  0  0  0
   -1.4570   60.3370   76.7730 O   0  0  0  0  0  0  0  0  0  0  0  0
   -1.6780   60.1250   75.5820 C   0  0  0  0  0  0  0  0  0  0  0  0
   -1.0830   60.7810   74.5380 N   0  0  0  0  0  0  0  0  0  0  0  0
   -2.7320   59.1000   75.1710 C   0  0  1  0  0  0  0  0  0  0  0  0
   -2.9800   58.1350   76.3480 C   0  0  0  0  0  0  0  0  0  0  0  0
   -3.6660   58.8600   77.4900 N   0  0  2  0  0  4  0  0  0  0  0  0
   -3.6150   58.1270   78.7880 C   0  0  0  0  0  0  0  0  0  0  0  0
   -5.0230   59.4350   77.0970 C   0  0  1  0  0  0  0  0  0  0  0  0
   -5.0200   59.9950   75.6540 C   0  0  0  0  0  0  0  0  0  0  0  0
   -3.9860   59.8550   74.8030 C   0  0  0  0  0  0  0  0  0  0  0  0
   -6.2960   60.6000   75.2190 C   0  0  0  0  0  0  0  0  0  0  0  0
   -6.5190   61.5960   74.2650 C   0  0  0  0  0  0  0  0  0  0  0  0
   -7.8270   62.0110   73.9770 C   0  0  0  0  0  0  0  0  0  0  0  0
   -8.9460   61.4490   74.6170 C   0  0  0  0  0  0  0  0  0  0  0  0
   -8.7010   60.4530   75.5640 C   0  0  0  0  0  0  0  0  0  0  0  0
   -7.4140   60.0410   75.8580 C   0  0  0  0  0  0  0  0  0  0  0  0
   -7.4730   59.0310   76.8500 C   0  0  0  0  0  0  0  0  0  0  0  0
   -6.2020   58.4310   77.3560 C   0  0  0  0  0  0  0  0  0  0  0  0
   -8.8000   58.8320   77.1450 C   0  0  0  0  0  0  0  0  0  0  0  0
   -9.5380   59.6970   76.3590 N   0  0  0  0  0  0  0  0  0  0  0  0
    0.8350   60.9030   72.0360 O   0  0  0  0  0  0  0  0  0  0  0  0
    3.7650   59.8100   74.2670 C   0  0  0  0  0  0  0  0  0  0  0  0
    2.8810   58.7640   73.6280 C   0  0  0  0  0  0  0  0  0  0  0  0
    1.8330   58.1860   74.3600 C   0  0  0  0  0  0  0  0  0  0  0  0
    1.0220   57.2080   73.7820 C   0  0  0  0  0  0  0  0  0  0  0  0
    1.2510   56.7970   72.4690 C   0  0  0  0  0  0  0  0  0  0  0  0
    2.2910   57.3640   71.7360 C   0  0  0  0  0  0  0  0  0  0  0  0
    3.1030   58.3430   72.3130 C   0  0  0  0  0  0  0  0  0  0  0  0
   -0.5804   62.6276   76.7204 H   0  0  0  0  0  0  0  0  0  0  0  0
   -0.2394   63.9364   75.5383 H   0  0  0  0  0  0  0  0  0  0  0  0
   -1.8398   63.1207   75.5383 H   0  0  0  0  0  0  0  0  0  0  0  0
    3.8054   61.9575   74.5886 H   0  0  0  0  0  0  0  0  0  0  0  0
    2.0389   63.8787   72.9363 H   0  0  0  0  0  0  0  0  0  0  0  0
    0.8445   62.9150   70.3206 H   0  0  0  0  0  0  0  0  0  0  0  0
    0.6764   64.4859   71.0662 H   0  0  0  0  0  0  0  0  0  0  0  0
    2.4495   64.1945   69.0469 H   0  0  0  0  0  0  0  0  0  0  0  0
    2.9919   65.1321   70.4262 H   0  0  0  0  0  0  0  0  0  0  0  0
    3.6115   62.2325   69.6828 H   0  0  0  0  0  0  0  0  0  0  0  0
    4.7030   63.4030   70.4066 H   0  0  0  0  0  0  0  0  0  0  0  0
   -1.2446   60.4277   73.5841 H   0  0  0  0  0  0  0  0  0  0  0  0
   -2.4024   58.5027   74.3081 H   0  0  0  0  0  0  0  0  0  0  0  0
   -3.6189   57.3062   76.0089 H   0  0  0  0  0  0  0  0  0  0  0  0
   -2.0133   57.7467   76.7011 H   0  0  0  0  0  0  0  0  0  0  0  0
   -3.0973   59.6957   77.6880 H   0  0  0  0  0  0  0  0  0  0  0  0
   -3.6651   58.8472   79.6180 H   0  0  0  0  0  0  0  0  0  0  0  0
   -4.4671   57.4343   78.8516 H   0  0  0  0  0  0  0  0  0  0  0  0
   -2.6752   57.5590   78.8516 H   0  0  0  0  0  0  0  0  0  0  0  0
   -5.2069   60.2908   77.7632 H   0  0  0  0  0  0  0  0  0  0  0  0
   -4.0578   60.3075   73.8029 H   0  0  0  0  0  0  0  0  0  0  0  0
   -5.6683   62.0547   73.7397 H   0  0  0  0  0  0  0  0  0  0  0  0
   -7.9827   62.8007   73.2272 H   0  0  0  0  0  0  0  0  0  0  0  0
   -9.9685   61.7794   74.3819 H   0  0  0  0  0  0  0  0  0  0  0  0
   -6.2902   58.2364   78.4351 H   0  0  0  0  0  0  0  0  0  0  0  0
   -6.0046   57.4837   76.8329 H   0  0  0  0  0  0  0  0  0  0  0  0
   -9.2024   58.1141   77.8748 H   0  0  0  0  0  0  0  0  0  0  0  0
  -10.5656   59.7672   76.3658 H   0  0  0  0  0  0  0  0  0  0  0  0
    0.5999   60.1189   72.5929 H   0  0  0  0  0  0  0  0  0  0  0  0
    4.8044   59.6305   73.9548 H   0  0  0  0  0  0  0  0  0  0  0  0
    3.6466   59.7236   75.3572 H   0  0  0  0  0  0  0  0  0  0  0  0
    1.6492   58.5057   75.3964 H   0  0  0  0  0  0  0  0  0  0  0  0
    0.2015   56.7610   74.3625 H   0  0  0  0  0  0  0  0  0  0  0  0
    0.6116   56.0266   72.0132 H   0  0  0  0  0  0  0  0  0  0  0  0
    2.4731   57.0401   70.7007 H   0  0  0  0  0  0  0  0  0  0  0  0
    3.9230   58.7861   71.7289 H   0  0  0  0  0  0  0  0  0  0  0  0
  2  1  1  0
  3  1  1  0
  4  3  1  0
  5  4  1  0
  6  5  1  0
  6  1  1  0
  7  6  2  0
  8  5  1  0
  9  8  1  0
 10  9  2  0
 11  9  1  0
 12 11  1  0
 12  4  1  0
 13 12  1  0
 14 13  1  0
 15 14  1  0
 15 11  1  0
 17 16  2  0
 18 17  1  0
  1 18  1  6
 19 17  1  0
 20 19  1  0
 21 20  1  0
 22 21  1  0
 23 21  1  0
 24 23  1  0
 25 19  1  0
 25 24  2  0
 26 24  1  0
 27 26  2  0
 28 27  1  0
 29 28  2  0
 30 29  1  0
 31 30  2  0
 31 26  1  0
 32 31  1  0
 33 32  1  0
 33 23  1  0
 34 32  2  0
 35 34  1  0
 35 30  1  0
  4 36  1  6
 37  8  1  0
 38 37  1  0
 39 38  2  0
 40 39  1  0
 41 40  2  0
 42 41  1  0
 43 42  2  0
 43 38  1  0
  2 44  1  0
  2 45  1  0
  2 46  1  0
  8 47  1  1
 12 48  1  1
 13 49  1  0
 13 50  1  0
 14 51  1  0
 14 52  1  0
 15 53  1  0
 15 54  1  0
 18 55  1  0
 19 56  1  6
 20 57  1  0
 20 58  1  0
 21 59  1  1
 22 60  1  0
 22 61  1  0
 22 62  1  0
 23 63  1  1
 25 64  1  0
 27 65  1  0
 28 66  1  0
 29 67  1  0
 33 68  1  0
 33 69  1  0
 34 70  1  0
 35 71  1  0
 36 72  1  0
 37 73  1  0
 37 74  1  0
 39 75  1  0
 40 76  1  0
 41 77  1  0
 42 78  1  0
 43 79  1  0
M  CHG  1  21   1
M  END
>  <score>  (8) 
-9.127

$$$$
=
     RDKit          3D

 79 86  0  0  0  0  0  0  0  0999 V2000
   -1.9140   58.9310   75.4790 C   0  0  1  0  0  0  0  0  0  0  0  0
   -1.7400   57.5870   76.1690 C   0  0  0  0  0  0  0  0  0  0  0  0
   -1.7500   60.0040   76.4140 O   0  0  0  0  0  0  0  0  0  0  0  0
   -1.0430   61.0450   75.7580 C   0  0  2  0  0  0  0  0  0  0  0  0
   -0.3890   60.4730   74.6340 N   0  0  0  0  0  0  0  0  0  0  0  0
   -0.7750   59.1650   74.4760 C   0  0  0  0  0  0  0  0  0  0  0  0
   -0.3610   58.3820   73.6390 O   0  0  0  0  0  0  0  0  0  0  0  0
    0.8040   61.0970   74.0240 C   0  0  2  0  0  0  0  0  0  0  0  0
    1.1960   62.4710   74.6700 C   0  0  0  0  0  0  0  0  0  0  0  0
    1.8560   63.3280   74.0890 O   0  0  0  0  0  0  0  0  0  0  0  0
    0.8180   62.6390   75.9880 N   0  0  0  0  0  0  0  0  0  0  0  0
    0.0000   61.6720   76.7080 C   0  0  1  0  0  0  0  0  0  0  0  0
   -0.5470   62.4730   77.8900 C   0  0  0  0  0  0  0  0  0  0  0  0
    0.5870   63.4630   78.1690 C   0  0  0  0  0  0  0  0  0  0  0  0
    1.0930   63.8240   76.7770 C   0  0  0  0  0  0  0  0  0  0  0  0
   -4.5070   59.4050   76.6700 O   0  0  0  0  0  0  0  0  0  0  0  0
   -4.3550   59.4000   75.4490 C   0  0  0  0  0  0  0  0  0  0  0  0
   -3.1870   59.1040   74.7990 N   0  0  0  0  0  0  0  0  0  0  0  0
   -5.5080   59.8020   74.5330 C   0  0  1  0  0  0  0  0  0  0  0  0
   -6.7850   59.0600   74.9780 C   0  0  0  0  0  0  0  0  0  0  0  0
   -7.2520   59.5750   76.3260 N   0  0  2  0  0  4  0  0  0  0  0  0
   -8.2410   58.6860   77.0020 C   0  0  0  0  0  0  0  0  0  0  0  0
   -7.5890   61.0630   76.3100 C   0  0  1  0  0  0  0  0  0  0  0  0
   -6.6130   61.8670   75.4170 C   0  0  0  0  0  0  0  0  0  0  0  0
   -5.6750   61.2970   74.6370 C   0  0  0  0  0  0  0  0  0  0  0  0
   -6.8600   63.3240   75.3810 C   0  0  0  0  0  0  0  0  0  0  0  0
   -5.9620   64.3640   75.1370 C   0  0  0  0  0  0  0  0  0  0  0  0
   -6.4140   65.6920   75.1180 C   0  0  0  0  0  0  0  0  0  0  0  0
   -7.7630   66.0240   75.3330 C   0  0  0  0  0  0  0  0  0  0  0  0
   -8.6450   64.9680   75.5730 C   0  0  0  0  0  0  0  0  0  0  0  0
   -8.2070   63.6570   75.5980 C   0  0  0  0  0  0  0  0  0  0  0  0
   -9.3120   62.8110   75.8650 C   0  0  0  0  0  0  0  0  0  0  0  0
   -9.0960   61.3360   75.9620 C   0  0  0  0  0  0  0  0  0  0  0  0
  -10.4160   63.6180   75.9930 C   0  0  0  0  0  0  0  0  0  0  0  0
  -10.0030   64.9250   75.8120 N   0  0  0  0  0  0  0  0  0  0  0  0
   -1.9660   61.9800   75.2290 O   0  0  0  0  0  0  0  0  0  0  0  0
    0.6350   61.2530   72.4980 C   0  0  0  0  0  0  0  0  0  0  0  0
    1.8740   60.8560   71.7290 C   0  0  0  0  0  0  0  0  0  0  0  0
    2.3580   61.6770   70.6990 C   0  0  0  0  0  0  0  0  0  0  0  0
    3.4930   61.3080   69.9750 C   0  0  0  0  0  0  0  0  0  0  0  0
    4.1530   60.1160   70.2700 C   0  0  0  0  0  0  0  0  0  0  0  0
    3.6770   59.2930   71.2880 C   0  0  0  0  0  0  0  0  0  0  0  0
    2.5430   59.6600   72.0150 C   0  0  0  0  0  0  0  0  0  0  0  0
   -1.7585   57.7296   77.2596 H   0  0  0  0  0  0  0  0  0  0  0  0
   -2.5586   56.9143   75.8733 H   0  0  0  0  0  0  0  0  0  0  0  0
   -0.7771   57.1449   75.8733 H   0  0  0  0  0  0  0  0  0  0  0  0
    1.6345   60.4054   74.2285 H   0  0  0  0  0  0  0  0  0  0  0  0
    0.5335   60.7885   77.0885 H   0  0  0  0  0  0  0  0  0  0  0  0
   -1.4755   62.9973   77.6198 H   0  0  0  0  0  0  0  0  0  0  0  0
   -0.8109   61.8510   78.7580 H   0  0  0  0  0  0  0  0  0  0  0  0
    0.2114   64.3535   78.6943 H   0  0  0  0  0  0  0  0  0  0  0  0
    1.3723   63.0446   78.8157 H   0  0  0  0  0  0  0  0  0  0  0  0
    0.5520   64.6945   76.3775 H   0  0  0  0  0  0  0  0  0  0  0  0
    2.1578   64.1001   76.7710 H   0  0  0  0  0  0  0  0  0  0  0  0
   -3.2116   58.9984   73.7747 H   0  0  0  0  0  0  0  0  0  0  0  0
   -5.3075   59.5318   73.4857 H   0  0  0  0  0  0  0  0  0  0  0  0
   -7.5776   59.2234   74.2330 H   0  0  0  0  0  0  0  0  0  0  0  0
   -6.5627   57.9861   75.0634 H   0  0  0  0  0  0  0  0  0  0  0  0
   -6.4389   59.5189   76.9558 H   0  0  0  0  0  0  0  0  0  0  0  0
   -8.1346   58.7817   78.0927 H   0  0  0  0  0  0  0  0  0  0  0  0
   -9.2593   58.9784   76.7059 H   0  0  0  0  0  0  0  0  0  0  0  0
   -8.0584   57.6425   76.7059 H   0  0  0  0  0  0  0  0  0  0  0  0
   -7.4480   61.4307   77.3371 H   0  0  0  0  0  0  0  0  0  0  0  0
   -5.0055   61.9463   74.0538 H   0  0  0  0  0  0  0  0  0  0  0  0
   -4.8993   64.1424   74.9595 H   0  0  0  0  0  0  0  0  0  0  0  0
   -5.6903   66.4986   74.9290 H   0  0  0  0  0  0  0  0  0  0  0  0
   -8.1083   67.0682   75.3131 H   0  0  0  0  0  0  0  0  0  0  0  0
   -9.7384   60.9201   76.7522 H   0  0  0  0  0  0  0  0  0  0  0  0
   -9.3490   60.8590   75.0036 H   0  0  0  0  0  0  0  0  0  0  0  0
  -11.4433   63.2847   76.2018 H   0  0  0  0  0  0  0  0  0  0  0  0
  -10.6206   65.7484   75.8501 H   0  0  0  0  0  0  0  0  0  0  0  0
   -2.4260   62.4459   75.9716 H   0  0  0  0  0  0  0  0  0  0  0  0
   -0.2010   60.6178   72.1700 H   0  0  0  0  0  0  0  0  0  0  0  0
    0.4437   62.3166   72.2925 H   0  0  0  0  0  0  0  0  0  0  0  0
    1.8396   62.6175   70.4606 H   0  0  0  0  0  0  0  0  0  0  0  0
    3.8671   61.9586   69.1707 H   0  0  0  0  0  0  0  0  0  0  0  0
    5.0479   59.8259   69.6999 H   0  0  0  0  0  0  0  0  0  0  0  0
    4.1960   58.3513   71.5198 H   0  0  0  0  0  0  0  0  0  0  0  0
    2.1728   59.0052   72.8176 H   0  0  0  0  0  0  0  0  0  0  0  0
  2  1  1  0
  3  1  1  0
  4  3  1  0
  5  4  1  0
  6  5  1  0
  6  1  1  0
  7  6  2  0
  8  5  1  0
  9  8  1  0
 10  9  2  0
 11  9  1  0
 12 11  1  0
 12  4  1  0
 13 12  1  0
 14 13  1  0
 15 14  1  0
 15 11  1  0
 17 16  2  0
 18 17  1  0
  1 18  1  6
 19 17  1  0
 20 19  1  0
 21 20  1  0
 22 21  1  0
 23 21  1  0
 24 23  1  0
 25 19  1  0
 25 24  2  0
 26 24  1  0
 27 26  2  0
 28 27  1  0
 29 28  2  0
 30 29  1  0
 31 30  2  0
 31 26  1  0
 32 31  1  0
 33 32  1  0
 33 23  1  0
 34 32  2  0
 35 34  1  0
 35 30  1  0
  4 36  1  6
 37  8  1  0
 38 37  1  0
 39 38  2  0
 40 39  1  0
 41 40  2  0
 42 41  1  0
 43 42  2  0
 43 38  1  0
  2 44  1  0
  2 45  1  0
  2 46  1  0
  8 47  1  6
 12 48  1  1
 13 49  1  0
 13 50  1  0
 14 51  1  0
 14 52  1  0
 15 53  1  0
 15 54  1  0
 18 55  1  0
 19 56  1  6
 20 57  1  0
 20 58  1  0
 21 59  1  1
 22 60  1  0
 22 61  1  0
 22 62  1  0
 23 63  1  1
 25 64  1  0
 27 65  1  0
 28 66  1  0
 29 67  1  0
 33 68  1  0
 33 69  1  0
 34 70  1  0
 35 71  1  0
 36 72  1  0
 37 73  1  0
 37 74  1  0
 39 75  1  0
 40 76  1  0
 41 77  1  0
 42 78  1  0
 43 79  1  0
M  CHG  1  21   1
M  END
>  <score>  (9) 
-8.967

$$$$
