=
     RDKit          3D

 54 57  0  0  0  0  0  0  0  0999 V2000
    0.7940   66.4610   69.9350 C   0  0  0  0  0  0  0  0  0  0  0  0
    1.7850   65.2680   69.8990 C   0  0  0  0  0  0  0  0  0  0  0  0
    1.2330   64.8180   71.1950 N   0  0  0  0  0  4  0  0  0  0  0  0
    0.0060   65.5940   70.9400 C   0  0  0  0  0  0  0  0  0  0  0  0
    0.0980   66.8090   68.7130 O   0  0  0  0  0  0  0  0  0  0  0  0
    1.3240   68.6380   68.2110 O   0  0  0  0  0  0  0  0  0  0  0  0
    0.8420   67.5730   67.8610 C   0  0  0  0  0  0  0  0  0  0  0  0
    0.9400   66.9350   66.6600 N   0  0  0  0  0  0  0  0  0  0  0  0
    1.6260   67.3610   65.5080 C   0  0  0  0  0  0  0  0  0  0  0  0
    1.2340   68.4460   64.7240 C   0  0  0  0  0  0  0  0  0  0  0  0
    1.9700   68.8130   63.5870 C   0  0  0  0  0  0  0  0  0  0  0  0
    3.1100   68.0990   63.2240 C   0  0  0  0  0  0  0  0  0  0  0  0
    3.5030   67.0130   64.0090 C   0  0  0  0  0  0  0  0  0  0  0  0
    2.7690   66.6460   65.1410 C   0  0  0  0  0  0  0  0  0  0  0  0
    3.9180   68.3430   62.1520 O   0  0  0  0  0  0  0  0  0  0  0  0
    5.1150   69.0700   62.3760 C   0  0  0  0  0  0  0  0  0  0  0  0
    5.0210   69.8240   63.4910 F   0  0  0  0  0  0  0  0  0  0  0  0
    6.1730   68.2380   62.4820 F   0  0  0  0  0  0  0  0  0  0  0  0
    5.3270   69.8930   61.3260 F   0  0  0  0  0  0  0  0  0  0  0  0
    0.9810   63.3360   71.2130 C   0  0  0  0  0  0  0  0  0  0  0  0
    0.2340   62.8700   72.4600 C   0  0  0  0  0  0  0  0  0  0  0  0
   -0.6940   61.8180   72.3480 C   0  0  0  0  0  0  0  0  0  0  0  0
   -1.4000   61.3630   73.4630 C   0  0  0  0  0  0  0  0  0  0  0  0
   -1.1860   61.9460   74.7090 C   0  0  0  0  0  0  0  0  0  0  0  0
   -0.2600   62.9770   74.8440 C   0  0  0  0  0  0  0  0  0  0  0  0
    0.4480   63.4350   73.7310 C   0  0  0  0  0  0  0  0  0  0  0  0
    2.2710   62.5580   70.9820 C   0  0  0  0  0  0  0  0  0  0  0  0
    3.3460   62.6180   71.8860 C   0  0  0  0  0  0  0  0  0  0  0  0
    4.5270   61.9170   71.6370 C   0  0  0  0  0  0  0  0  0  0  0  0
    4.6520   61.1460   70.4840 C   0  0  0  0  0  0  0  0  0  0  0  0
    3.5960   61.0690   69.5810 C   0  0  0  0  0  0  0  0  0  0  0  0
    2.4130   61.7690   69.8260 C   0  0  0  0  0  0  0  0  0  0  0  0
    1.1262   67.4897   70.1384 H   0  0  0  0  0  0  0  0  0  0  0  0
    1.6221   64.5667   69.0674 H   0  0  0  0  0  0  0  0  0  0  0  0
    2.8649   65.4289   69.7653 H   0  0  0  0  0  0  0  0  0  0  0  0
    1.7613   64.9487   72.0695 H   0  0  0  0  0  0  0  0  0  0  0  0
   -0.8127   65.0121   70.4915 H   0  0  0  0  0  0  0  0  0  0  0  0
   -0.5532   66.0552   71.7674 H   0  0  0  0  0  0  0  0  0  0  0  0
    0.4522   66.0307   66.5873 H   0  0  0  0  0  0  0  0  0  0  0  0
    0.3376   69.0206   65.0002 H   0  0  0  0  0  0  0  0  0  0  0  0
    1.6449   69.6698   62.9785 H   0  0  0  0  0  0  0  0  0  0  0  0
    4.4004   66.4396   63.7336 H   0  0  0  0  0  0  0  0  0  0  0  0
    3.0939   65.7877   65.7474 H   0  0  0  0  0  0  0  0  0  0  0  0
    0.3060   63.1173   70.3725 H   0  0  0  0  0  0  0  0  0  0  0  0
   -0.8654   61.3478   71.3684 H   0  0  0  0  0  0  0  0  0  0  0  0
   -2.1259   60.5433   73.3571 H   0  0  0  0  0  0  0  0  0  0  0  0
   -1.7480   61.5924   75.5860 H   0  0  0  0  0  0  0  0  0  0  0  0
   -0.0857   63.4320   75.8302 H   0  0  0  0  0  0  0  0  0  0  0  0
    1.1812   64.2465   73.8490 H   0  0  0  0  0  0  0  0  0  0  0  0
    3.2554   63.2240   72.7995 H   0  0  0  0  0  0  0  0  0  0  0  0
    5.3604   61.9736   72.3527 H   0  0  0  0  0  0  0  0  0  0  0  0
    5.5852   60.5980   70.2871 H   0  0  0  0  0  0  0  0  0  0  0  0
    3.6934   60.4558   68.6730 H   0  0  0  0  0  0  0  0  0  0  0  0
    1.5829   61.7028   69.1072 H   0  0  0  0  0  0  0  0  0  0  0  0
  2  1  1  0
  3  2  1  0
  4  3  1  0
  4  1  1  0
  5  1  1  0
  7  6  2  0
  7  5  1  0
  8  7  1  0
  9  8  1  0
 10  9  2  0
 11 10  1  0
 12 11  2  0
 13 12  1  0
 14 13  2  0
 14  9  1  0
 15 12  1  0
 16 15  1  0
 17 16  1  0
 18 16  1  0
 19 16  1  0
 20  3  1  0
 21 20  1  0
 22 21  2  0
 23 22  1  0
 24 23  2  0
 25 24  1  0
 26 25  2  0
 26 21  1  0
 27 20  1  0
 28 27  2  0
 29 28  1  0
 30 29  2  0
 31 30  1  0
 32 31  2  0
 32 27  1  0
  1 33  1  0
  2 34  1  0
  2 35  1  0
  3 36  1  0
  4 37  1  0
  4 38  1  0
  8 39  1  0
 10 40  1  0
 11 41  1  0
 13 42  1  0
 14 43  1  0
 20 44  1  0
 22 45  1  0
 23 46  1  0
 24 47  1  0
 25 48  1  0
 26 49  1  0
 28 50  1  0
 29 51  1  0
 30 52  1  0
 31 53  1  0
 32 54  1  0
M  CHG  1   3   1
M  END
>  <score>  (1) 
-10.034

$$$$
=
     RDKit          3D

 54 57  0  0  0  0  0  0  0  0999 V2000
   -0.3220   67.4380   68.3680 C   0  0  0  0  0  0  0  0  0  0  0  0
   -0.2150   67.7440   66.8510 C   0  0  0  0  0  0  0  0  0  0  0  0
    0.9620   68.5900   67.1420 N   0  0  0  0  0  4  0  0  0  0  0  0
    1.1570   67.8770   68.4170 C   0  0  0  0  0  0  0  0  0  0  0  0
   -0.5920   66.0730   68.7730 O   0  0  0  0  0  0  0  0  0  0  0  0
    0.0400   66.4140   70.9140 O   0  0  0  0  0  0  0  0  0  0  0  0
    0.0520   65.7070   69.9200 C   0  0  0  0  0  0  0  0  0  0  0  0
    0.6310   64.4870   69.7360 N   0  0  0  0  0  0  0  0  0  0  0  0
    1.3790   63.7360   70.6620 C   0  0  0  0  0  0  0  0  0  0  0  0
    0.8250   63.0800   71.7600 C   0  0  0  0  0  0  0  0  0  0  0  0
    1.6350   62.3470   72.6420 C   0  0  0  0  0  0  0  0  0  0  0  0
    3.0090   62.2630   72.4320 C   0  0  0  0  0  0  0  0  0  0  0  0
    3.5640   62.9210   71.3330 C   0  0  0  0  0  0  0  0  0  0  0  0
    2.7580   63.6510   70.4540 C   0  0  0  0  0  0  0  0  0  0  0  0
    3.9120   61.5900   73.2030 O   0  0  0  0  0  0  0  0  0  0  0  0
    4.4380   60.3730   72.6970 C   0  0  0  0  0  0  0  0  0  0  0  0
    3.6190   59.8420   71.7650 F   0  0  0  0  0  0  0  0  0  0  0  0
    5.6640   60.5620   72.1630 F   0  0  0  0  0  0  0  0  0  0  0  0
    4.5510   59.4920   73.7140 F   0  0  0  0  0  0  0  0  0  0  0  0
    2.0820   68.3450   66.1700 C   0  0  0  0  0  0  0  0  0  0  0  0
    3.3630   69.0940   66.5310 C   0  0  0  0  0  0  0  0  0  0  0  0
    3.4220   69.8000   67.7470 C   0  0  0  0  0  0  0  0  0  0  0  0
    4.5730   70.5000   68.1130 C   0  0  0  0  0  0  0  0  0  0  0  0
    5.6850   70.5000   67.2760 C   0  0  0  0  0  0  0  0  0  0  0  0
    5.6510   69.7950   66.0760 C   0  0  0  0  0  0  0  0  0  0  0  0
    4.5020   69.0940   65.7060 C   0  0  0  0  0  0  0  0  0  0  0  0
    1.6340   68.6130   64.7380 C   0  0  0  0  0  0  0  0  0  0  0  0
    0.3220   69.0160   64.4340 C   0  0  0  0  0  0  0  0  0  0  0  0
   -0.0700   69.2280   63.1100 C   0  0  0  0  0  0  0  0  0  0  0  0
    0.8410   69.0430   62.0740 C   0  0  0  0  0  0  0  0  0  0  0  0
    2.1470   68.6510   62.3570 C   0  0  0  0  0  0  0  0  0  0  0  0
    2.5420   68.4370   63.6790 C   0  0  0  0  0  0  0  0  0  0  0  0
   -1.1141   67.8716   68.9961 H   0  0  0  0  0  0  0  0  0  0  0  0
    0.0001   66.8660   66.2242 H   0  0  0  0  0  0  0  0  0  0  0  0
   -1.0739   68.1380   66.2879 H   0  0  0  0  0  0  0  0  0  0  0  0
    0.8934   69.6176   67.1238 H   0  0  0  0  0  0  0  0  0  0  0  0
    1.8775   67.0474   68.3662 H   0  0  0  0  0  0  0  0  0  0  0  0
    1.5638   68.3953   69.2979 H   0  0  0  0  0  0  0  0  0  0  0  0
    0.5059   64.0628   68.8058 H   0  0  0  0  0  0  0  0  0  0  0  0
   -0.2591   63.1372   71.9375 H   0  0  0  0  0  0  0  0  0  0  0  0
    1.1815   61.8360   73.5041 H   0  0  0  0  0  0  0  0  0  0  0  0
    4.6483   62.8645   71.1564 H   0  0  0  0  0  0  0  0  0  0  0  0
    3.2129   64.1620   69.5926 H   0  0  0  0  0  0  0  0  0  0  0  0
    2.3397   67.2781   66.2426 H   0  0  0  0  0  0  0  0  0  0  0  0
    2.5500   69.8002   68.4176 H   0  0  0  0  0  0  0  0  0  0  0  0
    4.6011   71.0522   69.0639 H   0  0  0  0  0  0  0  0  0  0  0  0
    6.5897   71.0564   67.5623 H   0  0  0  0  0  0  0  0  0  0  0  0
    6.5321   69.7904   65.4175 H   0  0  0  0  0  0  0  0  0  0  0  0
    4.4872   68.5353   64.7585 H   0  0  0  0  0  0  0  0  0  0  0  0
   -0.4035   69.1660   65.2471 H   0  0  0  0  0  0  0  0  0  0  0  0
   -1.1002   69.5416   62.8858 H   0  0  0  0  0  0  0  0  0  0  0  0
    0.5294   69.2064   61.0318 H   0  0  0  0  0  0  0  0  0  0  0  0
    2.8680   68.5098   61.5383 H   0  0  0  0  0  0  0  0  0  0  0  0
    3.5753   68.1272   63.8944 H   0  0  0  0  0  0  0  0  0  0  0  0
  2  1  1  0
  3  2  1  0
  4  3  1  0
  4  1  1  0
  5  1  1  0
  7  6  2  0
  7  5  1  0
  8  7  1  0
  9  8  1  0
 10  9  2  0
 11 10  1  0
 12 11  2  0
 13 12  1  0
 14 13  2  0
 14  9  1  0
 15 12  1  0
 16 15  1  0
 17 16  1  0
 18 16  1  0
 19 16  1  0
 20  3  1  0
 21 20  1  0
 22 21  2  0
 23 22  1  0
 24 23  2  0
 25 24  1  0
 26 25  2  0
 26 21  1  0
 27 20  1  0
 28 27  2  0
 29 28  1  0
 30 29  2  0
 31 30  1  0
 32 31  2  0
 32 27  1  0
  1 33  1  0
  2 34  1  0
  2 35  1  0
  3 36  1  0
  4 37  1  0
  4 38  1  0
  8 39  1  0
 10 40  1  0
 11 41  1  0
 13 42  1  0
 14 43  1  0
 20 44  1  0
 22 45  1  0
 23 46  1  0
 24 47  1  0
 25 48  1  0
 26 49  1  0
 28 50  1  0
 29 51  1  0
 30 52  1  0
 31 53  1  0
 32 54  1  0
M  CHG  1   3   1
M  END
>  <score>  (2) 
-9.973

$$$$
=
     RDKit          3D

 54 57  0  0  0  0  0  0  0  0999 V2000
   -0.2070   68.2000   67.4260 C   0  0  0  0  0  0  0  0  0  0  0  0
    0.5470   67.5940   66.2120 C   0  0  0  0  0  0  0  0  0  0  0  0
    1.4650   68.7520   66.2510 N   0  0  0  0  0  4  0  0  0  0  0  0
    1.0960   68.9960   67.6570 C   0  0  0  0  0  0  0  0  0  0  0  0
   -0.6050   67.3100   68.4970 O   0  0  0  0  0  0  0  0  0  0  0  0
    1.4820   67.3420   69.3590 O   0  0  0  0  0  0  0  0  0  0  0  0
    0.4480   66.7300   69.1440 C   0  0  0  0  0  0  0  0  0  0  0  0
    0.1140   65.4540   69.4860 N   0  0  0  0  0  0  0  0  0  0  0  0
    0.8970   64.5100   70.1750 C   0  0  0  0  0  0  0  0  0  0  0  0
    0.3760   63.3960   70.8330 C   0  0  0  0  0  0  0  0  0  0  0  0
    1.2220   62.4950   71.4990 C   0  0  0  0  0  0  0  0  0  0  0  0
    2.6000   62.7010   71.5140 C   0  0  0  0  0  0  0  0  0  0  0  0
    3.1210   63.8160   70.8560 C   0  0  0  0  0  0  0  0  0  0  0  0
    2.2800   64.7140   70.1920 C   0  0  0  0  0  0  0  0  0  0  0  0
    3.5350   61.9120   72.1180 O   0  0  0  0  0  0  0  0  0  0  0  0
    4.3120   61.0560   71.2940 C   0  0  0  0  0  0  0  0  0  0  0  0
    5.4720   61.6480   70.9390 F   0  0  0  0  0  0  0  0  0  0  0  0
    4.5750   59.8900   71.9220 F   0  0  0  0  0  0  0  0  0  0  0  0
    3.6140   60.7840   70.1700 F   0  0  0  0  0  0  0  0  0  0  0  0
    2.9010   68.3330   66.1000 C   0  0  0  0  0  0  0  0  0  0  0  0
    3.8810   69.3070   66.7500 C   0  0  0  0  0  0  0  0  0  0  0  0
    5.0660   69.6430   66.0670 C   0  0  0  0  0  0  0  0  0  0  0  0
    5.9890   70.5270   66.6270 C   0  0  0  0  0  0  0  0  0  0  0  0
    5.7420   71.0960   67.8740 C   0  0  0  0  0  0  0  0  0  0  0  0
    4.5700   70.7890   68.5580 C   0  0  0  0  0  0  0  0  0  0  0  0
    3.6430   69.9050   68.0020 C   0  0  0  0  0  0  0  0  0  0  0  0
    3.2400   68.0550   64.6400 C   0  0  0  0  0  0  0  0  0  0  0  0
    4.0470   66.9670   64.2610 C   0  0  0  0  0  0  0  0  0  0  0  0
    4.3650   66.7510   62.9190 C   0  0  0  0  0  0  0  0  0  0  0  0
    3.8840   67.6140   61.9380 C   0  0  0  0  0  0  0  0  0  0  0  0
    3.0780   68.6920   62.2950 C   0  0  0  0  0  0  0  0  0  0  0  0
    2.7570   68.9120   63.6360 C   0  0  0  0  0  0  0  0  0  0  0  0
   -1.2006   68.6611   67.3252 H   0  0  0  0  0  0  0  0  0  0  0  0
    1.0282   66.6255   66.4130 H   0  0  0  0  0  0  0  0  0  0  0  0
    0.0139   67.3210   65.2893 H   0  0  0  0  0  0  0  0  0  0  0  0
    1.3944   69.5073   65.5542 H   0  0  0  0  0  0  0  0  0  0  0  0
    1.7797   68.5427   68.3898 H   0  0  0  0  0  0  0  0  0  0  0  0
    1.0697   70.0170   68.0654 H   0  0  0  0  0  0  0  0  0  0  0  0
   -0.8269   65.1425   69.2057 H   0  0  0  0  0  0  0  0  0  0  0  0
   -0.7100   63.2214   70.8301 H   0  0  0  0  0  0  0  0  0  0  0  0
    0.7944   61.6210   72.0121 H   0  0  0  0  0  0  0  0  0  0  0  0
    4.2071   63.9905   70.8598 H   0  0  0  0  0  0  0  0  0  0  0  0
    2.7095   65.5873   69.6793 H   0  0  0  0  0  0  0  0  0  0  0  0
    3.0178   67.3901   66.6543 H   0  0  0  0  0  0  0  0  0  0  0  0
    5.2665   69.2027   65.0791 H   0  0  0  0  0  0  0  0  0  0  0  0
    6.9125   70.7747   66.0831 H   0  0  0  0  0  0  0  0  0  0  0  0
    6.4731   71.7877   68.3178 H   0  0  0  0  0  0  0  0  0  0  0  0
    4.3730   71.2441   69.5399 H   0  0  0  0  0  0  0  0  0  0  0  0
    2.7167   69.6734   68.5482 H   0  0  0  0  0  0  0  0  0  0  0  0
    4.4311   66.2799   65.0293 H   0  0  0  0  0  0  0  0  0  0  0  0
    4.9973   65.8966   62.6358 H   0  0  0  0  0  0  0  0  0  0  0  0
    4.1404   67.4444   60.8818 H   0  0  0  0  0  0  0  0  0  0  0  0
    2.6937   69.3711   61.5196 H   0  0  0  0  0  0  0  0  0  0  0  0
    2.1191   69.7653   63.9097 H   0  0  0  0  0  0  0  0  0  0  0  0
  2  1  1  0
  3  2  1  0
  4  3  1  0
  4  1  1  0
  5  1  1  0
  7  6  2  0
  7  5  1  0
  8  7  1  0
  9  8  1  0
 10  9  2  0
 11 10  1  0
 12 11  2  0
 13 12  1  0
 14 13  2  0
 14  9  1  0
 15 12  1  0
 16 15  1  0
 17 16  1  0
 18 16  1  0
 19 16  1  0
 20  3  1  0
 21 20  1  0
 22 21  2  0
 23 22  1  0
 24 23  2  0
 25 24  1  0
 26 25  2  0
 26 21  1  0
 27 20  1  0
 28 27  2  0
 29 28  1  0
 30 29  2  0
 31 30  1  0
 32 31  2  0
 32 27  1  0
  1 33  1  0
  2 34  1  0
  2 35  1  0
  3 36  1  0
  4 37  1  0
  4 38  1  0
  8 39  1  0
 10 40  1  0
 11 41  1  0
 13 42  1  0
 14 43  1  0
 20 44  1  0
 22 45  1  0
 23 46  1  0
 24 47  1  0
 25 48  1  0
 26 49  1  0
 28 50  1  0
 29 51  1  0
 30 52  1  0
 31 53  1  0
 32 54  1  0
M  CHG  1   3   1
M  END
>  <score>  (3) 
-9.8

$$$$
=
     RDKit          3D

 54 57  0  0  0  0  0  0  0  0999 V2000
    0.9100   65.7820   69.6580 C   0  0  0  0  0  0  0  0  0  0  0  0
    0.2890   64.9610   70.8190 C   0  0  0  0  0  0  0  0  0  0  0  0
    1.2520   63.8790   70.5200 N   0  0  0  0  0  4  0  0  0  0  0  0
    2.1270   64.8490   69.8380 C   0  0  0  0  0  0  0  0  0  0  0  0
    1.1540   67.1930   69.8730 O   0  0  0  0  0  0  0  0  0  0  0  0
    2.2300   68.8720   68.8130 O   0  0  0  0  0  0  0  0  0  0  0  0
    1.5610   67.8530   68.7490 C   0  0  0  0  0  0  0  0  0  0  0  0
    1.1220   67.1770   67.6510 N   0  0  0  0  0  0  0  0  0  0  0  0
    1.3280   67.4980   66.2970 C   0  0  0  0  0  0  0  0  0  0  0  0
    0.6500   68.5150   65.6250 C   0  0  0  0  0  0  0  0  0  0  0  0
    0.9110   68.7800   64.2720 C   0  0  0  0  0  0  0  0  0  0  0  0
    1.8550   68.0290   63.5760 C   0  0  0  0  0  0  0  0  0  0  0  0
    2.5350   67.0110   64.2480 C   0  0  0  0  0  0  0  0  0  0  0  0
    2.2750   66.7460   65.5960 C   0  0  0  0  0  0  0  0  0  0  0  0
    2.2090   68.1750   62.2660 O   0  0  0  0  0  0  0  0  0  0  0  0
    3.5460   68.5540   61.9790 C   0  0  0  0  0  0  0  0  0  0  0  0
    4.0740   69.2710   62.9940 F   0  0  0  0  0  0  0  0  0  0  0  0
    4.3160   67.4700   61.7450 F   0  0  0  0  0  0  0  0  0  0  0  0
    3.5500   69.3240   60.8700 F   0  0  0  0  0  0  0  0  0  0  0  0
    1.8760   63.3250   71.7710 C   0  0  0  0  0  0  0  0  0  0  0  0
    3.0050   62.3360   71.4890 C   0  0  0  0  0  0  0  0  0  0  0  0
    3.9720   62.1000   72.4850 C   0  0  0  0  0  0  0  0  0  0  0  0
    5.0220   61.2070   72.2670 C   0  0  0  0  0  0  0  0  0  0  0  0
    5.1190   60.5280   71.0560 C   0  0  0  0  0  0  0  0  0  0  0  0
    4.1640   60.7340   70.0640 C   0  0  0  0  0  0  0  0  0  0  0  0
    3.1130   61.6280   70.2780 C   0  0  0  0  0  0  0  0  0  0  0  0
    0.8170   62.7490   72.7040 C   0  0  0  0  0  0  0  0  0  0  0  0
   -0.0620   61.7330   72.2900 C   0  0  0  0  0  0  0  0  0  0  0  0
   -1.0420   61.2430   73.1560 C   0  0  0  0  0  0  0  0  0  0  0  0
   -1.1560   61.7570   74.4440 C   0  0  0  0  0  0  0  0  0  0  0  0
   -0.2890   62.7580   74.8730 C   0  0  0  0  0  0  0  0  0  0  0  0
    0.6910   63.2520   74.0110 C   0  0  0  0  0  0  0  0  0  0  0  0
    0.3854   65.9318   68.7028 H   0  0  0  0  0  0  0  0  0  0  0  0
    0.4105   65.4158   71.8132 H   0  0  0  0  0  0  0  0  0  0  0  0
   -0.7925   64.7646   70.8624 H   0  0  0  0  0  0  0  0  0  0  0  0
    0.9510   63.0193   70.0392 H   0  0  0  0  0  0  0  0  0  0  0  0
    2.9249   65.2629   70.4721 H   0  0  0  0  0  0  0  0  0  0  0  0
    2.7404   64.5479   68.9760 H   0  0  0  0  0  0  0  0  0  0  0  0
    0.5715   66.3261   67.8347 H   0  0  0  0  0  0  0  0  0  0  0  0
   -0.0982   69.1164   66.1621 H   0  0  0  0  0  0  0  0  0  0  0  0
    0.3666   69.5859   63.7579 H   0  0  0  0  0  0  0  0  0  0  0  0
    3.2838   66.4107   63.7106 H   0  0  0  0  0  0  0  0  0  0  0  0
    2.8198   65.9396   66.1087 H   0  0  0  0  0  0  0  0  0  0  0  0
    2.3520   64.1694   72.2909 H   0  0  0  0  0  0  0  0  0  0  0  0
    3.8988   62.6267   73.4479 H   0  0  0  0  0  0  0  0  0  0  0  0
    5.7734   61.0397   73.0527 H   0  0  0  0  0  0  0  0  0  0  0  0
    5.9501   59.8286   70.8826 H   0  0  0  0  0  0  0  0  0  0  0  0
    4.2376   60.1915   69.1099 H   0  0  0  0  0  0  0  0  0  0  0  0
    2.3605   61.7806   69.4903 H   0  0  0  0  0  0  0  0  0  0  0  0
    0.0229   61.3199   71.2741 H   0  0  0  0  0  0  0  0  0  0  0  0
   -1.7250   60.4492   72.8192 H   0  0  0  0  0  0  0  0  0  0  0  0
   -1.9311   61.3724   75.1231 H   0  0  0  0  0  0  0  0  0  0  0  0
   -0.3765   63.1603   75.8931 H   0  0  0  0  0  0  0  0  0  0  0  0
    1.3721   64.0432   74.3577 H   0  0  0  0  0  0  0  0  0  0  0  0
  2  1  1  0
  3  2  1  0
  4  3  1  0
  4  1  1  0
  5  1  1  0
  7  6  2  0
  7  5  1  0
  8  7  1  0
  9  8  1  0
 10  9  2  0
 11 10  1  0
 12 11  2  0
 13 12  1  0
 14 13  2  0
 14  9  1  0
 15 12  1  0
 16 15  1  0
 17 16  1  0
 18 16  1  0
 19 16  1  0
 20  3  1  0
 21 20  1  0
 22 21  2  0
 23 22  1  0
 24 23  2  0
 25 24  1  0
 26 25  2  0
 26 21  1  0
 27 20  1  0
 28 27  2  0
 29 28  1  0
 30 29  2  0
 31 30  1  0
 32 31  2  0
 32 27  1  0
  1 33  1  0
  2 34  1  0
  2 35  1  0
  3 36  1  0
  4 37  1  0
  4 38  1  0
  8 39  1  0
 10 40  1  0
 11 41  1  0
 13 42  1  0
 14 43  1  0
 20 44  1  0
 22 45  1  0
 23 46  1  0
 24 47  1  0
 25 48  1  0
 26 49  1  0
 28 50  1  0
 29 51  1  0
 30 52  1  0
 31 53  1  0
 32 54  1  0
M  CHG  1   3   1
M  END
>  <score>  (4) 
-9.214

$$$$
=
     RDKit          3D

 54 57  0  0  0  0  0  0  0  0999 V2000
    0.1000   66.4840   69.4890 C   0  0  0  0  0  0  0  0  0  0  0  0
   -0.0530   67.1590   68.1010 C   0  0  0  0  0  0  0  0  0  0  0  0
    1.0390   68.0840   68.4710 N   0  0  0  0  0  4  0  0  0  0  0  0
    1.5040   67.1250   69.4890 C   0  0  0  0  0  0  0  0  0  0  0  0
    0.0630   65.0370   69.5530 O   0  0  0  0  0  0  0  0  0  0  0  0
    0.0780   65.1390   71.8090 O   0  0  0  0  0  0  0  0  0  0  0  0
    0.3690   64.5380   70.7880 C   0  0  0  0  0  0  0  0  0  0  0  0
    0.9840   63.3310   70.6410 N   0  0  0  0  0  0  0  0  0  0  0  0
    1.4510   62.4710   71.6510 C   0  0  0  0  0  0  0  0  0  0  0  0
    0.7040   61.4230   72.1900 C   0  0  0  0  0  0  0  0  0  0  0  0
    1.2380   60.6040   73.1970 C   0  0  0  0  0  0  0  0  0  0  0  0
    2.5280   60.8250   73.6750 C   0  0  0  0  0  0  0  0  0  0  0  0
    3.2760   61.8740   73.1360 C   0  0  0  0  0  0  0  0  0  0  0  0
    2.7440   62.6900   72.1340 C   0  0  0  0  0  0  0  0  0  0  0  0
    3.1720   60.1120   74.6440 O   0  0  0  0  0  0  0  0  0  0  0  0
    3.5840   58.7910   74.3310 C   0  0  0  0  0  0  0  0  0  0  0  0
    4.6430   58.4240   75.0830 F   0  0  0  0  0  0  0  0  0  0  0  0
    2.5750   57.9130   74.5160 F   0  0  0  0  0  0  0  0  0  0  0  0
    3.9510   58.7460   73.0320 F   0  0  0  0  0  0  0  0  0  0  0  0
    2.0280   68.2590   67.3530 C   0  0  0  0  0  0  0  0  0  0  0  0
    3.1110   69.2900   67.6670 C   0  0  0  0  0  0  0  0  0  0  0  0
    2.9560   70.1220   68.7920 C   0  0  0  0  0  0  0  0  0  0  0  0
    3.9200   71.0790   69.1120 C   0  0  0  0  0  0  0  0  0  0  0  0
    5.0570   71.2160   68.3210 C   0  0  0  0  0  0  0  0  0  0  0  0
    5.2360   70.3920   67.2130 C   0  0  0  0  0  0  0  0  0  0  0  0
    4.2740   69.4340   66.8880 C   0  0  0  0  0  0  0  0  0  0  0  0
    1.3210   68.5420   66.0330 C   0  0  0  0  0  0  0  0  0  0  0  0
   -0.0620   68.7880   65.9710 C   0  0  0  0  0  0  0  0  0  0  0  0
   -0.6900   69.0160   64.7440 C   0  0  0  0  0  0  0  0  0  0  0  0
    0.0510   69.0030   63.5660 C   0  0  0  0  0  0  0  0  0  0  0  0
    1.4230   68.7680   63.6100 C   0  0  0  0  0  0  0  0  0  0  0  0
    2.0550   68.5390   64.8340 C   0  0  0  0  0  0  0  0  0  0  0  0
   -0.6402   66.6236   70.2907 H   0  0  0  0  0  0  0  0  0  0  0  0
    0.1765   66.5027   67.2486 H   0  0  0  0  0  0  0  0  0  0  0  0
   -1.0268   67.5370   67.7563 H   0  0  0  0  0  0  0  0  0  0  0  0
    0.8411   69.0619   68.7269 H   0  0  0  0  0  0  0  0  0  0  0  0
    2.3073   66.4558   69.1472 H   0  0  0  0  0  0  0  0  0  0  0  0
    1.9662   67.4734   70.4244 H   0  0  0  0  0  0  0  0  0  0  0  0
    1.1238   63.0094   69.6725 H   0  0  0  0  0  0  0  0  0  0  0  0
   -0.3155   61.2365   71.8214 H   0  0  0  0  0  0  0  0  0  0  0  0
    0.6346   59.7829   73.6113 H   0  0  0  0  0  0  0  0  0  0  0  0
    4.2956   62.0601   73.5044 H   0  0  0  0  0  0  0  0  0  0  0  0
    3.3481   63.5117   71.7219 H   0  0  0  0  0  0  0  0  0  0  0  0
    2.5595   67.3019   67.2459 H   0  0  0  0  0  0  0  0  0  0  0  0
    2.0639   70.0164   69.4268 H   0  0  0  0  0  0  0  0  0  0  0  0
    3.7810   71.7260   69.9907 H   0  0  0  0  0  0  0  0  0  0  0  0
    5.8134   71.9745   68.5710 H   0  0  0  0  0  0  0  0  0  0  0  0
    6.1380   70.4962   66.5920 H   0  0  0  0  0  0  0  0  0  0  0  0
    4.4268   68.7846   66.0134 H   0  0  0  0  0  0  0  0  0  0  0  0
   -0.6551   68.8011   66.8973 H   0  0  0  0  0  0  0  0  0  0  0  0
   -1.7729   69.2063   64.7089 H   0  0  0  0  0  0  0  0  0  0  0  0
   -0.4467   69.1782   62.6008 H   0  0  0  0  0  0  0  0  0  0  0  0
    2.0096   68.7628   62.6794 H   0  0  0  0  0  0  0  0  0  0  0  0
    3.1391   68.3542   64.8603 H   0  0  0  0  0  0  0  0  0  0  0  0
  2  1  1  0
  3  2  1  0
  4  3  1  0
  4  1  1  0
  5  1  1  0
  7  6  2  0
  7  5  1  0
  8  7  1  0
  9  8  1  0
 10  9  2  0
 11 10  1  0
 12 11  2  0
 13 12  1  0
 14 13  2  0
 14  9  1  0
 15 12  1  0
 16 15  1  0
 17 16  1  0
 18 16  1  0
 19 16  1  0
 20  3  1  0
 21 20  1  0
 22 21  2  0
 23 22  1  0
 24 23  2  0
 25 24  1  0
 26 25  2  0
 26 21  1  0
 27 20  1  0
 28 27  2  0
 29 28  1  0
 30 29  2  0
 31 30  1  0
 32 31  2  0
 32 27  1  0
  1 33  1  0
  2 34  1  0
  2 35  1  0
  3 36  1  0
  4 37  1  0
  4 38  1  0
  8 39  1  0
 10 40  1  0
 11 41  1  0
 13 42  1  0
 14 43  1  0
 20 44  1  0
 22 45  1  0
 23 46  1  0
 24 47  1  0
 25 48  1  0
 26 49  1  0
 28 50  1  0
 29 51  1  0
 30 52  1  0
 31 53  1  0
 32 54  1  0
M  CHG  1   3   1
M  END
>  <score>  (5) 
-9.192

$$$$
=
     RDKit          3D

 54 57  0  0  0  0  0  0  0  0999 V2000
    0.0230   63.4290   71.5800 C   0  0  0  0  0  0  0  0  0  0  0  0
   -0.0920   62.6110   72.8930 C   0  0  0  0  0  0  0  0  0  0  0  0
    0.4360   61.4370   72.1640 N   0  0  0  0  0  4  0  0  0  0  0  0
    1.0210   62.3320   71.1500 C   0  0  0  0  0  0  0  0  0  0  0  0
    0.5530   64.7750   71.6580 O   0  0  0  0  0  0  0  0  0  0  0  0
    1.9870   64.8960   69.9170 O   0  0  0  0  0  0  0  0  0  0  0  0
    0.9570   65.2720   70.4520 C   0  0  0  0  0  0  0  0  0  0  0  0
    0.0330   66.1710   70.0090 N   0  0  0  0  0  0  0  0  0  0  0  0
    0.0470   66.9050   68.8090 C   0  0  0  0  0  0  0  0  0  0  0  0
    1.1090   67.7140   68.4020 C   0  0  0  0  0  0  0  0  0  0  0  0
    1.0520   68.4160   67.1890 C   0  0  0  0  0  0  0  0  0  0  0  0
   -0.0690   68.3170   66.3670 C   0  0  0  0  0  0  0  0  0  0  0  0
   -1.1320   67.5080   66.7740 C   0  0  0  0  0  0  0  0  0  0  0  0
   -1.0760   66.8070   67.9830 C   0  0  0  0  0  0  0  0  0  0  0  0
   -0.2590   68.9390   65.1680 O   0  0  0  0  0  0  0  0  0  0  0  0
    0.5940   68.5810   64.0930 C   0  0  0  0  0  0  0  0  0  0  0  0
    1.6480   69.4200   64.0120 F   0  0  0  0  0  0  0  0  0  0  0  0
    1.0370   67.3120   64.2290 F   0  0  0  0  0  0  0  0  0  0  0  0
   -0.1030   68.6640   62.9390 F   0  0  0  0  0  0  0  0  0  0  0  0
    1.4840   60.7100   72.9600 C   0  0  0  0  0  0  0  0  0  0  0  0
    2.8720   60.7810   72.3280 C   0  0  0  0  0  0  0  0  0  0  0  0
    3.0420   60.3440   71.0000 C   0  0  0  0  0  0  0  0  0  0  0  0
    4.2940   60.3900   70.3860 C   0  0  0  0  0  0  0  0  0  0  0  0
    5.3960   60.8780   71.0830 C   0  0  0  0  0  0  0  0  0  0  0  0
    5.2450   61.3300   72.3920 C   0  0  0  0  0  0  0  0  0  0  0  0
    3.9940   61.2860   73.0100 C   0  0  0  0  0  0  0  0  0  0  0  0
    1.0520   59.2780   73.2570 C   0  0  0  0  0  0  0  0  0  0  0  0
    1.8880   58.1810   72.9870 C   0  0  0  0  0  0  0  0  0  0  0  0
    1.4570   56.8770   73.2420 C   0  0  0  0  0  0  0  0  0  0  0  0
    0.1890   56.6520   73.7710 C   0  0  0  0  0  0  0  0  0  0  0  0
   -0.6500   57.7270   74.0500 C   0  0  0  0  0  0  0  0  0  0  0  0
   -0.2230   59.0320   73.7960 C   0  0  0  0  0  0  0  0  0  0  0  0
   -0.8612   63.7199   70.9939 H   0  0  0  0  0  0  0  0  0  0  0  0
    0.5538   62.9677   73.7089 H   0  0  0  0  0  0  0  0  0  0  0  0
   -1.0396   62.5570   73.4491 H   0  0  0  0  0  0  0  0  0  0  0  0
   -0.1846   60.6646   71.8827 H   0  0  0  0  0  0  0  0  0  0  0  0
    2.0767   62.5863   71.3255 H   0  0  0  0  0  0  0  0  0  0  0  0
    1.0991   62.0198   70.0981 H   0  0  0  0  0  0  0  0  0  0  0  0
   -0.7739   66.3326   70.6285 H   0  0  0  0  0  0  0  0  0  0  0  0
    2.0009   67.8021   69.0398 H   0  0  0  0  0  0  0  0  0  0  0  0
    1.8983   69.0493   66.8843 H   0  0  0  0  0  0  0  0  0  0  0  0
   -2.0240   67.4210   66.1362 H   0  0  0  0  0  0  0  0  0  0  0  0
   -1.9226   66.1735   68.2861 H   0  0  0  0  0  0  0  0  0  0  0  0
    1.5755   61.2356   73.9220 H   0  0  0  0  0  0  0  0  0  0  0  0
    2.1763   59.9614   70.4395 H   0  0  0  0  0  0  0  0  0  0  0  0
    4.4106   60.0402   69.3496 H   0  0  0  0  0  0  0  0  0  0  0  0
    6.3843   60.9066   70.6009 H   0  0  0  0  0  0  0  0  0  0  0  0
    6.1140   61.7227   72.9403 H   0  0  0  0  0  0  0  0  0  0  0  0
    3.8843   61.6504   74.0421 H   0  0  0  0  0  0  0  0  0  0  0  0
    2.8919   58.3510   72.5707 H   0  0  0  0  0  0  0  0  0  0  0  0
    2.1203   56.0268   73.0246 H   0  0  0  0  0  0  0  0  0  0  0  0
   -0.1499   55.6243   73.9685 H   0  0  0  0  0  0  0  0  0  0  0  0
   -1.6504   57.5484   74.4710 H   0  0  0  0  0  0  0  0  0  0  0  0
   -0.8913   59.8765   74.0200 H   0  0  0  0  0  0  0  0  0  0  0  0
  2  1  1  0
  3  2  1  0
  4  3  1  0
  4  1  1  0
  5  1  1  0
  7  6  2  0
  7  5  1  0
  8  7  1  0
  9  8  1  0
 10  9  2  0
 11 10  1  0
 12 11  2  0
 13 12  1  0
 14 13  2  0
 14  9  1  0
 15 12  1  0
 16 15  1  0
 17 16  1  0
 18 16  1  0
 19 16  1  0
 20  3  1  0
 21 20  1  0
 22 21  2  0
 23 22  1  0
 24 23  2  0
 25 24  1  0
 26 25  2  0
 26 21  1  0
 27 20  1  0
 28 27  2  0
 29 28  1  0
 30 29  2  0
 31 30  1  0
 32 31  2  0
 32 27  1  0
  1 33  1  0
  2 34  1  0
  2 35  1  0
  3 36  1  0
  4 37  1  0
  4 38  1  0
  8 39  1  0
 10 40  1  0
 11 41  1  0
 13 42  1  0
 14 43  1  0
 20 44  1  0
 22 45  1  0
 23 46  1  0
 24 47  1  0
 25 48  1  0
 26 49  1  0
 28 50  1  0
 29 51  1  0
 30 52  1  0
 31 53  1  0
 32 54  1  0
M  CHG  1   3   1
M  END
>  <score>  (6) 
-9.072

$$$$
=
     RDKit          3D

 54 57  0  0  0  0  0  0  0  0999 V2000
    0.4560   67.9250   67.8960 C   0  0  0  0  0  0  0  0  0  0  0  0
   -0.2290   68.1660   66.5260 C   0  0  0  0  0  0  0  0  0  0  0  0
    1.1130   68.2520   65.9120 N   0  0  0  0  0  4  0  0  0  0  0  0
    1.6800   67.5110   67.0520 C   0  0  0  0  0  0  0  0  0  0  0  0
   -0.0920   66.9020   68.7640 O   0  0  0  0  0  0  0  0  0  0  0  0
    1.6260   67.1070   70.2150 O   0  0  0  0  0  0  0  0  0  0  0  0
    0.8160   66.3920   69.6470 C   0  0  0  0  0  0  0  0  0  0  0  0
    0.6200   65.0490   69.7630 N   0  0  0  0  0  0  0  0  0  0  0  0
    1.3230   64.1400   70.5740 C   0  0  0  0  0  0  0  0  0  0  0  0
    0.7840   63.5220   71.7020 C   0  0  0  0  0  0  0  0  0  0  0  0
    1.5470   62.6230   72.4630 C   0  0  0  0  0  0  0  0  0  0  0  0
    2.8600   62.3310   72.1010 C   0  0  0  0  0  0  0  0  0  0  0  0
    3.4010   62.9490   70.9720 C   0  0  0  0  0  0  0  0  0  0  0  0
    2.6410   63.8450   70.2140 C   0  0  0  0  0  0  0  0  0  0  0  0
    3.7130   61.4820   72.7430 O   0  0  0  0  0  0  0  0  0  0  0  0
    3.6780   60.1100   72.3840 C   0  0  0  0  0  0  0  0  0  0  0  0
    2.8170   59.8990   71.3660 F   0  0  0  0  0  0  0  0  0  0  0  0
    4.9060   59.6690   72.0350 F   0  0  0  0  0  0  0  0  0  0  0  0
    3.2580   59.3920   73.4480 F   0  0  0  0  0  0  0  0  0  0  0  0
    1.1920   67.4740   64.6270 C   0  0  0  0  0  0  0  0  0  0  0  0
    2.4990   66.6990   64.4750 C   0  0  0  0  0  0  0  0  0  0  0  0
    2.4810   65.2970   64.6090 C   0  0  0  0  0  0  0  0  0  0  0  0
    3.6530   64.5520   64.4800 C   0  0  0  0  0  0  0  0  0  0  0  0
    4.8600   65.1900   64.2090 C   0  0  0  0  0  0  0  0  0  0  0  0
    4.8960   66.5730   64.0580 C   0  0  0  0  0  0  0  0  0  0  0  0
    3.7250   67.3240   64.1860 C   0  0  0  0  0  0  0  0  0  0  0  0
    0.9020   68.3670   63.4260 C   0  0  0  0  0  0  0  0  0  0  0  0
   -0.3090   69.0690   63.2990 C   0  0  0  0  0  0  0  0  0  0  0  0
   -0.5600   69.8590   62.1750 C   0  0  0  0  0  0  0  0  0  0  0  0
    0.3920   69.9590   61.1650 C   0  0  0  0  0  0  0  0  0  0  0  0
    1.6000   69.2760   61.2770 C   0  0  0  0  0  0  0  0  0  0  0  0
    1.8550   68.4860   62.3990 C   0  0  0  0  0  0  0  0  0  0  0  0
    0.4813   68.6966   68.6796 H   0  0  0  0  0  0  0  0  0  0  0  0
   -0.8394   67.3237   66.1685 H   0  0  0  0  0  0  0  0  0  0  0  0
   -0.9686   68.9693   66.3927 H   0  0  0  0  0  0  0  0  0  0  0  0
    1.5091   69.1600   65.6300 H   0  0  0  0  0  0  0  0  0  0  0  0
    1.7710   66.4272   66.8875 H   0  0  0  0  0  0  0  0  0  0  0  0
    2.7029   67.7109   67.4037 H   0  0  0  0  0  0  0  0  0  0  0  0
   -0.1350   64.6507   69.1866 H   0  0  0  0  0  0  0  0  0  0  0  0
   -0.2521   63.7419   71.9989 H   0  0  0  0  0  0  0  0  0  0  0  0
    1.1056   62.1461   73.3506 H   0  0  0  0  0  0  0  0  0  0  0  0
    4.4371   62.7285   70.6754 H   0  0  0  0  0  0  0  0  0  0  0  0
    3.0839   64.3217   69.3271 H   0  0  0  0  0  0  0  0  0  0  0  0
    0.4035   66.7082   64.6696 H   0  0  0  0  0  0  0  0  0  0  0  0
    1.5310   64.7834   64.8179 H   0  0  0  0  0  0  0  0  0  0  0  0
    3.6234   63.4582   64.5926 H   0  0  0  0  0  0  0  0  0  0  0  0
    5.7846   64.6016   64.1143 H   0  0  0  0  0  0  0  0  0  0  0  0
    5.8490   67.0761   63.8373 H   0  0  0  0  0  0  0  0  0  0  0  0
    3.7624   68.4160   64.0593 H   0  0  0  0  0  0  0  0  0  0  0  0
   -1.0668   68.9954   64.0930 H   0  0  0  0  0  0  0  0  0  0  0  0
   -1.5120   70.4032   62.0879 H   0  0  0  0  0  0  0  0  0  0  0  0
    0.1901   70.5777   60.2782 H   0  0  0  0  0  0  0  0  0  0  0  0
    2.3541   69.3591   60.4805 H   0  0  0  0  0  0  0  0  0  0  0  0
    2.8123   67.9504   62.4808 H   0  0  0  0  0  0  0  0  0  0  0  0
  2  1  1  0
  3  2  1  0
  4  3  1  0
  4  1  1  0
  5  1  1  0
  7  6  2  0
  7  5  1  0
  8  7  1  0
  9  8  1  0
 10  9  2  0
 11 10  1  0
 12 11  2  0
 13 12  1  0
 14 13  2  0
 14  9  1  0
 15 12  1  0
 16 15  1  0
 17 16  1  0
 18 16  1  0
 19 16  1  0
 20  3  1  0
 21 20  1  0
 22 21  2  0
 23 22  1  0
 24 23  2  0
 25 24  1  0
 26 25  2  0
 26 21  1  0
 27 20  1  0
 28 27  2  0
 29 28  1  0
 30 29  2  0
 31 30  1  0
 32 31  2  0
 32 27  1  0
  1 33  1  0
  2 34  1  0
  2 35  1  0
  3 36  1  0
  4 37  1  0
  4 38  1  0
  8 39  1  0
 10 40  1  0
 11 41  1  0
 13 42  1  0
 14 43  1  0
 20 44  1  0
 22 45  1  0
 23 46  1  0
 24 47  1  0
 25 48  1  0
 26 49  1  0
 28 50  1  0
 29 51  1  0
 30 52  1  0
 31 53  1  0
 32 54  1  0
M  CHG  1   3   1
M  END
>  <score>  (7) 
-8.943

$$$$
=
     RDKit          3D

 54 57  0  0  0  0  0  0  0  0999 V2000
    1.0600   67.2910   69.0000 C   0  0  0  0  0  0  0  0  0  0  0  0
    0.8460   66.8960   67.5150 C   0  0  0  0  0  0  0  0  0  0  0  0
    1.3230   68.2410   67.1270 N   0  0  0  0  0  4  0  0  0  0  0  0
    2.0000   68.3750   68.4290 C   0  0  0  0  0  0  0  0  0  0  0  0
    1.6740   66.3210   69.8840 O   0  0  0  0  0  0  0  0  0  0  0  0
   -0.3960   65.9630   70.7140 O   0  0  0  0  0  0  0  0  0  0  0  0
    0.7720   65.6190   70.6320 C   0  0  0  0  0  0  0  0  0  0  0  0
    1.3960   64.5430   71.1890 N   0  0  0  0  0  0  0  0  0  0  0  0
    0.8370   63.5530   72.0170 C   0  0  0  0  0  0  0  0  0  0  0  0
    0.7220   62.2100   71.6580 C   0  0  0  0  0  0  0  0  0  0  0  0
    0.1540   61.2770   72.5390 C   0  0  0  0  0  0  0  0  0  0  0  0
   -0.3050   61.6790   73.7920 C   0  0  0  0  0  0  0  0  0  0  0  0
   -0.1900   63.0230   74.1520 C   0  0  0  0  0  0  0  0  0  0  0  0
    0.3760   63.9530   73.2740 C   0  0  0  0  0  0  0  0  0  0  0  0
   -0.8750   60.8860   74.7450 O   0  0  0  0  0  0  0  0  0  0  0  0
   -2.1200   60.2770   74.4420 C   0  0  0  0  0  0  0  0  0  0  0  0
   -2.8200   61.0190   73.5580 F   0  0  0  0  0  0  0  0  0  0  0  0
   -1.9420   59.0340   73.9450 F   0  0  0  0  0  0  0  0  0  0  0  0
   -2.8430   60.1790   75.5780 F   0  0  0  0  0  0  0  0  0  0  0  0
    2.2930   68.1810   65.9800 C   0  0  0  0  0  0  0  0  0  0  0  0
    3.5530   69.0120   66.2170 C   0  0  0  0  0  0  0  0  0  0  0  0
    4.5320   69.0720   65.2070 C   0  0  0  0  0  0  0  0  0  0  0  0
    5.6980   69.8170   65.3850 C   0  0  0  0  0  0  0  0  0  0  0  0
    5.9040   70.5200   66.5680 C   0  0  0  0  0  0  0  0  0  0  0  0
    4.9400   70.4860   67.5720 C   0  0  0  0  0  0  0  0  0  0  0  0
    3.7720   69.7420   67.4000 C   0  0  0  0  0  0  0  0  0  0  0  0
    1.6080   68.5270   64.6630 C   0  0  0  0  0  0  0  0  0  0  0  0
    2.3180   68.5900   63.4520 C   0  0  0  0  0  0  0  0  0  0  0  0
    1.6710   68.9360   62.2640 C   0  0  0  0  0  0  0  0  0  0  0  0
    0.3090   69.2230   62.2680 C   0  0  0  0  0  0  0  0  0  0  0  0
   -0.4120   69.1590   63.4570 C   0  0  0  0  0  0  0  0  0  0  0  0
    0.2310   68.8130   64.6480 C   0  0  0  0  0  0  0  0  0  0  0  0
    0.2173   67.5002   69.6753 H   0  0  0  0  0  0  0  0  0  0  0  0
    1.4838   66.0698   67.1679 H   0  0  0  0  0  0  0  0  0  0  0  0
   -0.1223   66.5116   67.1620 H   0  0  0  0  0  0  0  0  0  0  0  0
    0.6642   68.9641   66.8044 H   0  0  0  0  0  0  0  0  0  0  0  0
    3.0630   68.0924   68.4179 H   0  0  0  0  0  0  0  0  0  0  0  0
    2.0950   69.3556   68.9184 H   0  0  0  0  0  0  0  0  0  0  0  0
    2.3991   64.4426   70.9779 H   0  0  0  0  0  0  0  0  0  0  0  0
    1.0808   61.8783   70.6725 H   0  0  0  0  0  0  0  0  0  0  0  0
    0.0705   60.2220   72.2388 H   0  0  0  0  0  0  0  0  0  0  0  0
   -0.5487   63.3544   75.1377 H   0  0  0  0  0  0  0  0  0  0  0  0
    0.4589   65.0077   73.5754 H   0  0  0  0  0  0  0  0  0  0  0  0
    2.6398   67.1394   65.9106 H   0  0  0  0  0  0  0  0  0  0  0  0
    4.3756   68.5246   64.2658 H   0  0  0  0  0  0  0  0  0  0  0  0
    6.4560   69.8487   64.5885 H   0  0  0  0  0  0  0  0  0  0  0  0
    6.8269   71.1016   66.7097 H   0  0  0  0  0  0  0  0  0  0  0  0
    5.0997   71.0477   68.5042 H   0  0  0  0  0  0  0  0  0  0  0  0
    3.0145   69.7260   68.1975 H   0  0  0  0  0  0  0  0  0  0  0  0
    3.3946   68.3644   63.4398 H   0  0  0  0  0  0  0  0  0  0  0  0
    2.2388   68.9819   61.3230 H   0  0  0  0  0  0  0  0  0  0  0  0
   -0.1975   69.5003   61.3318 H   0  0  0  0  0  0  0  0  0  0  0  0
   -1.4893   69.3811   63.4588 H   0  0  0  0  0  0  0  0  0  0  0  0
   -0.3455   68.7637   65.5835 H   0  0  0  0  0  0  0  0  0  0  0  0
  2  1  1  0
  3  2  1  0
  4  3  1  0
  4  1  1  0
  5  1  1  0
  7  6  2  0
  7  5  1  0
  8  7  1  0
  9  8  1  0
 10  9  2  0
 11 10  1  0
 12 11  2  0
 13 12  1  0
 14 13  2  0
 14  9  1  0
 15 12  1  0
 16 15  1  0
 17 16  1  0
 18 16  1  0
 19 16  1  0
 20  3  1  0
 21 20  1  0
 22 21  2  0
 23 22  1  0
 24 23  2  0
 25 24  1  0
 26 25  2  0
 26 21  1  0
 27 20  1  0
 28 27  2  0
 29 28  1  0
 30 29  2  0
 31 30  1  0
 32 31  2  0
 32 27  1  0
  1 33  1  0
  2 34  1  0
  2 35  1  0
  3 36  1  0
  4 37  1  0
  4 38  1  0
  8 39  1  0
 10 40  1  0
 11 41  1  0
 13 42  1  0
 14 43  1  0
 20 44  1  0
 22 45  1  0
 23 46  1  0
 24 47  1  0
 25 48  1  0
 26 49  1  0
 28 50  1  0
 29 51  1  0
 30 52  1  0
 31 53  1  0
 32 54  1  0
M  CHG  1   3   1
M  END
>  <score>  (8) 
-7.942

$$$$
