=
     RDKit          3D

 44 47  0  0  0  0  0  0  0  0999 V2000
    0.0230   66.4720   69.5880 C   0  0  0  0  0  0  0  0  0  0  0  0
   -1.1090   66.4490   68.7640 C   0  0  0  0  0  0  0  0  0  0  0  0
   -1.0700   67.0180   67.4880 C   0  0  0  0  0  0  0  0  0  0  0  0
    0.1040   67.6060   66.9950 C   0  0  0  0  0  0  0  0  0  0  0  0
    1.2630   67.6180   67.7970 C   0  0  0  0  0  0  0  0  0  0  0  0
    1.2070   67.0470   69.0860 C   0  0  0  0  0  0  0  0  0  0  0  0
    2.4420   68.1990   67.2840 C   0  0  0  0  0  0  0  0  0  0  0  0
    2.4870   68.7630   65.9950 C   0  0  0  0  0  0  0  0  0  0  0  0
    1.3170   68.7610   65.2260 C   0  0  0  0  0  0  0  0  0  0  0  0
    0.1450   68.1820   65.7170 C   0  0  0  0  0  0  0  0  0  0  0  0
    0.0060   65.8410   70.9630 C   0  0  0  0  0  0  0  0  0  0  0  0
    2.2680   62.2520   71.1630 C   0  0  0  0  0  0  0  0  0  0  0  0
    2.8590   63.4270   70.7200 C   0  0  0  0  0  0  0  0  0  0  0  0
    2.1010   64.5910   70.6570 C   0  0  0  0  0  0  0  0  0  0  0  0
    0.7950   64.5840   71.0170 N   0  0  0  0  0  4  0  0  0  0  0  0
    0.2090   63.4450   71.4600 C   0  0  0  0  0  0  0  0  0  0  0  0
    0.9320   62.2600   71.5370 C   0  0  0  0  0  0  0  0  0  0  0  0
    3.7590   69.4050   65.4890 C   0  0  0  0  0  0  0  0  0  0  0  0
    4.6360   69.8710   66.5920 N   0  0  0  0  0  4  0  0  0  0  0  0
    5.9760   69.9430   66.4050 C   0  0  0  0  0  0  0  0  0  0  0  0
    6.8100   70.3950   67.4200 C   0  0  0  0  0  0  0  0  0  0  0  0
    6.2580   70.7810   68.6350 C   0  0  0  0  0  0  0  0  0  0  0  0
    4.8820   70.7120   68.8110 C   0  0  0  0  0  0  0  0  0  0  0  0
    4.0840   70.2550   67.7690 C   0  0  0  0  0  0  0  0  0  0  0  0
   -2.0363   65.9794   69.1239 H   0  0  0  0  0  0  0  0  0  0  0  0
   -1.9737   67.0044   66.8610 H   0  0  0  0  0  0  0  0  0  0  0  0
    2.1099   67.0509   69.7143 H   0  0  0  0  0  0  0  0  0  0  0  0
    3.3486   68.2116   67.9068 H   0  0  0  0  0  0  0  0  0  0  0  0
    1.3210   69.2196   64.2262 H   0  0  0  0  0  0  0  0  0  0  0  0
   -0.7600   68.1776   65.0917 H   0  0  0  0  0  0  0  0  0  0  0  0
    0.4288   66.5551   71.6850 H   0  0  0  0  0  0  0  0  0  0  0  0
   -1.0378   65.5934   71.2063 H   0  0  0  0  0  0  0  0  0  0  0  0
    2.8537   61.3225   71.2171 H   0  0  0  0  0  0  0  0  0  0  0  0
    3.9176   63.4374   70.4214 H   0  0  0  0  0  0  0  0  0  0  0  0
    2.5661   65.5261   70.3117 H   0  0  0  0  0  0  0  0  0  0  0  0
   -0.8488   63.4583   71.7615 H   0  0  0  0  0  0  0  0  0  0  0  0
    0.4492   61.3372   71.8912 H   0  0  0  0  0  0  0  0  0  0  0  0
    4.3107   68.6685   64.8863 H   0  0  0  0  0  0  0  0  0  0  0  0
    3.4759   70.2843   64.8917 H   0  0  0  0  0  0  0  0  0  0  0  0
    6.4080   69.6405   65.4397 H   0  0  0  0  0  0  0  0  0  0  0  0
    7.8975   70.4468   67.2630 H   0  0  0  0  0  0  0  0  0  0  0  0
    6.9047   71.1380   69.4501 H   0  0  0  0  0  0  0  0  0  0  0  0
    4.4283   71.0161   69.7658 H   0  0  0  0  0  0  0  0  0  0  0  0
    2.9931   70.2044   67.9007 H   0  0  0  0  0  0  0  0  0  0  0  0
  2  1  2  0
  3  2  1  0
  4  3  2  0
  5  4  1  0
  6  5  2  0
  6  1  1  0
  7  5  1  0
  8  7  2  0
  9  8  1  0
 10  9  2  0
 10  4  1  0
 11  1  1  0
 13 12  2  0
 14 13  1  0
 15 14  2  0
 15 11  1  0
 16 15  1  0
 17 16  2  0
 17 12  1  0
 18  8  1  0
 19 18  1  0
 20 19  2  0
 21 20  1  0
 22 21  2  0
 23 22  1  0
 24 23  2  0
 24 19  1  0
  2 25  1  0
  3 26  1  0
  6 27  1  0
  7 28  1  0
  9 29  1  0
 10 30  1  0
 11 31  1  0
 11 32  1  0
 12 33  1  0
 13 34  1  0
 14 35  1  0
 16 36  1  0
 17 37  1  0
 18 38  1  0
 18 39  1  0
 20 40  1  0
 21 41  1  0
 22 42  1  0
 23 43  1  0
 24 44  1  0
M  CHG  2  15   1  19   1
M  END
>  <score>  (1) 
-10.396

$$$$
=
     RDKit          3D

 44 47  0  0  0  0  0  0  0  0999 V2000
    2.4640   68.7340   65.9230 C   0  0  0  0  0  0  0  0  0  0  0  0
    1.2890   68.7250   65.1620 C   0  0  0  0  0  0  0  0  0  0  0  0
    0.1190   68.1530   65.6690 C   0  0  0  0  0  0  0  0  0  0  0  0
    0.0870   67.5950   66.9550 C   0  0  0  0  0  0  0  0  0  0  0  0
    1.2510   67.6160   67.7490 C   0  0  0  0  0  0  0  0  0  0  0  0
    2.4270   68.1890   67.2210 C   0  0  0  0  0  0  0  0  0  0  0  0
    1.2020   67.0640   69.0470 C   0  0  0  0  0  0  0  0  0  0  0  0
    0.0220   66.4970   69.5640 C   0  0  0  0  0  0  0  0  0  0  0  0
   -1.1160   66.4660   68.7480 C   0  0  0  0  0  0  0  0  0  0  0  0
   -1.0840   67.0150   67.4650 C   0  0  0  0  0  0  0  0  0  0  0  0
    3.7330   69.3690   65.4000 C   0  0  0  0  0  0  0  0  0  0  0  0
    6.2590   70.7180   68.5380 C   0  0  0  0  0  0  0  0  0  0  0  0
    4.8820   70.6860   68.7120 C   0  0  0  0  0  0  0  0  0  0  0  0
    4.0720   70.2450   67.6720 C   0  0  0  0  0  0  0  0  0  0  0  0
    4.6130   69.8560   66.4930 N   0  0  0  0  0  4  0  0  0  0  0  0
    5.9570   69.8740   66.3130 C   0  0  0  0  0  0  0  0  0  0  0  0
    6.8020   70.3080   67.3280 C   0  0  0  0  0  0  0  0  0  0  0  0
    0.0130   65.8870   70.9480 C   0  0  0  0  0  0  0  0  0  0  0  0
    0.7600   64.6050   71.0060 N   0  0  0  0  0  4  0  0  0  0  0  0
    2.0470   64.5540   70.5870 C   0  0  0  0  0  0  0  0  0  0  0  0
    2.7660   63.3670   70.6520 C   0  0  0  0  0  0  0  0  0  0  0  0
    2.1570   62.2260   71.1580 C   0  0  0  0  0  0  0  0  0  0  0  0
    0.8400   62.2940   71.5940 C   0  0  0  0  0  0  0  0  0  0  0  0
    0.1560   63.5010   71.5120 C   0  0  0  0  0  0  0  0  0  0  0  0
    1.2866   69.1718   64.1568 H   0  0  0  0  0  0  0  0  0  0  0  0
   -0.7903   68.1403   65.0501 H   0  0  0  0  0  0  0  0  0  0  0  0
    3.3373   68.2106   67.8382 H   0  0  0  0  0  0  0  0  0  0  0  0
    2.1084   67.0772   69.6701 H   0  0  0  0  0  0  0  0  0  0  0  0
   -2.0425   66.0053   69.1212 H   0  0  0  0  0  0  0  0  0  0  0  0
   -1.9916   66.9924   66.8439 H   0  0  0  0  0  0  0  0  0  0  0  0
    4.2839   68.6229   64.8085 H   0  0  0  0  0  0  0  0  0  0  0  0
    3.4468   70.2366   64.7873 H   0  0  0  0  0  0  0  0  0  0  0  0
    6.9135   71.0649   69.3512 H   0  0  0  0  0  0  0  0  0  0  0  0
    4.4357   71.0069   69.6648 H   0  0  0  0  0  0  0  0  0  0  0  0
    2.9809   70.2117   67.8080 H   0  0  0  0  0  0  0  0  0  0  0  0
    6.3827   69.5420   65.3546 H   0  0  0  0  0  0  0  0  0  0  0  0
    7.8910   70.3264   67.1737 H   0  0  0  0  0  0  0  0  0  0  0  0
    0.4746   66.5970   71.6501 H   0  0  0  0  0  0  0  0  0  0  0  0
   -1.0332   65.6782   71.2159 H   0  0  0  0  0  0  0  0  0  0  0  0
    2.5275   65.4610   70.1915 H   0  0  0  0  0  0  0  0  0  0  0  0
    3.8094   63.3312   70.3054 H   0  0  0  0  0  0  0  0  0  0  0  0
    2.7121   61.2779   71.2129 H   0  0  0  0  0  0  0  0  0  0  0  0
    0.3430   61.4008   72.0004 H   0  0  0  0  0  0  0  0  0  0  0  0
   -0.8854   63.5616   71.8609 H   0  0  0  0  0  0  0  0  0  0  0  0
  2  1  2  0
  3  2  1  0
  4  3  2  0
  5  4  1  0
  6  5  2  0
  6  1  1  0
  7  5  1  0
  8  7  2  0
  9  8  1  0
 10  9  2  0
 10  4  1  0
 11  1  1  0
 13 12  2  0
 14 13  1  0
 15 14  2  0
 15 11  1  0
 16 15  1  0
 17 16  2  0
 17 12  1  0
 18  8  1  0
 19 18  1  0
 20 19  2  0
 21 20  1  0
 22 21  2  0
 23 22  1  0
 24 23  2  0
 24 19  1  0
  2 25  1  0
  3 26  1  0
  6 27  1  0
  7 28  1  0
  9 29  1  0
 10 30  1  0
 11 31  1  0
 11 32  1  0
 12 33  1  0
 13 34  1  0
 14 35  1  0
 16 36  1  0
 17 37  1  0
 18 38  1  0
 18 39  1  0
 20 40  1  0
 21 41  1  0
 22 42  1  0
 23 43  1  0
 24 44  1  0
M  CHG  2  15   1  19   1
M  END
>  <score>  (2) 
-10.354

$$$$
=
     RDKit          3D

 44 47  0  0  0  0  0  0  0  0999 V2000
    1.7280   64.0190   70.9910 C   0  0  0  0  0  0  0  0  0  0  0  0
    0.4480   63.5710   70.6460 C   0  0  0  0  0  0  0  0  0  0  0  0
   -0.3980   64.3680   69.8700 C   0  0  0  0  0  0  0  0  0  0  0  0
    0.0190   65.6220   69.4030 C   0  0  0  0  0  0  0  0  0  0  0  0
    1.3140   66.0840   69.7170 C   0  0  0  0  0  0  0  0  0  0  0  0
    2.1540   65.2720   70.5080 C   0  0  0  0  0  0  0  0  0  0  0  0
    1.7280   67.3410   69.2290 C   0  0  0  0  0  0  0  0  0  0  0  0
    0.8810   68.1410   68.4380 C   0  0  0  0  0  0  0  0  0  0  0  0
   -0.4090   67.6740   68.1590 C   0  0  0  0  0  0  0  0  0  0  0  0
   -0.8290   66.4270   68.6290 C   0  0  0  0  0  0  0  0  0  0  0  0
    2.6660   63.1610   71.8110 C   0  0  0  0  0  0  0  0  0  0  0  0
    3.5600   59.4470   69.9550 C   0  0  0  0  0  0  0  0  0  0  0  0
    3.9200   60.6390   69.3430 C   0  0  0  0  0  0  0  0  0  0  0  0
    3.6150   61.8450   69.9640 C   0  0  0  0  0  0  0  0  0  0  0  0
    2.9660   61.8640   71.1520 N   0  0  0  0  0  4  0  0  0  0  0  0
    2.6160   60.7060   71.7650 C   0  0  0  0  0  0  0  0  0  0  0  0
    2.9020   59.4790   71.1770 C   0  0  0  0  0  0  0  0  0  0  0  0
    1.3460   69.4980   67.9580 C   0  0  0  0  0  0  0  0  0  0  0  0
    2.5300   69.4080   67.0670 N   0  0  0  0  0  4  0  0  0  0  0  0
    2.4120   68.8400   65.8420 C   0  0  0  0  0  0  0  0  0  0  0  0
    3.5060   68.7650   64.9880 C   0  0  0  0  0  0  0  0  0  0  0  0
    4.7280   69.2840   65.3970 C   0  0  0  0  0  0  0  0  0  0  0  0
    4.8330   69.8720   66.6510 C   0  0  0  0  0  0  0  0  0  0  0  0
    3.7140   69.9270   67.4740 C   0  0  0  0  0  0  0  0  0  0  0  0
    0.1049   62.5835   70.9884 H   0  0  0  0  0  0  0  0  0  0  0  0
   -1.4065   64.0056   69.6219 H   0  0  0  0  0  0  0  0  0  0  0  0
    3.1662   65.6259   70.7536 H   0  0  0  0  0  0  0  0  0  0  0  0
    2.7370   67.7052   69.4722 H   0  0  0  0  0  0  0  0  0  0  0  0
   -1.0972   68.2935   67.5652 H   0  0  0  0  0  0  0  0  0  0  0  0
   -1.8415   66.0710   68.3879 H   0  0  0  0  0  0  0  0  0  0  0  0
    3.6083   63.7089   71.9587 H   0  0  0  0  0  0  0  0  0  0  0  0
    2.1721   62.9447   72.7698 H   0  0  0  0  0  0  0  0  0  0  0  0
    3.7940   58.4848   69.4760 H   0  0  0  0  0  0  0  0  0  0  0  0
    4.4422   60.6300   68.3749 H   0  0  0  0  0  0  0  0  0  0  0  0
    3.9037   62.7925   69.4856 H   0  0  0  0  0  0  0  0  0  0  0  0
    2.1010   60.7378   72.7365 H   0  0  0  0  0  0  0  0  0  0  0  0
    2.6098   58.5428   71.6751 H   0  0  0  0  0  0  0  0  0  0  0  0
    0.5244   69.9781   67.4063 H   0  0  0  0  0  0  0  0  0  0  0  0
    1.6353   70.0853   68.8419 H   0  0  0  0  0  0  0  0  0  0  0  0
    1.4412   68.4346   65.5207 H   0  0  0  0  0  0  0  0  0  0  0  0
    3.4051   68.2987   63.9968 H   0  0  0  0  0  0  0  0  0  0  0  0
    5.6041   69.2298   64.7341 H   0  0  0  0  0  0  0  0  0  0  0  0
    5.7924   70.2901   66.9896 H   0  0  0  0  0  0  0  0  0  0  0  0
    3.7903   70.3966   68.4658 H   0  0  0  0  0  0  0  0  0  0  0  0
  2  1  2  0
  3  2  1  0
  4  3  2  0
  5  4  1  0
  6  5  2  0
  6  1  1  0
  7  5  1  0
  8  7  2  0
  9  8  1  0
 10  9  2  0
 10  4  1  0
 11  1  1  0
 13 12  2  0
 14 13  1  0
 15 14  2  0
 15 11  1  0
 16 15  1  0
 17 16  2  0
 17 12  1  0
 18  8  1  0
 19 18  1  0
 20 19  2  0
 21 20  1  0
 22 21  2  0
 23 22  1  0
 24 23  2  0
 24 19  1  0
  2 25  1  0
  3 26  1  0
  6 27  1  0
  7 28  1  0
  9 29  1  0
 10 30  1  0
 11 31  1  0
 11 32  1  0
 12 33  1  0
 13 34  1  0
 14 35  1  0
 16 36  1  0
 17 37  1  0
 18 38  1  0
 18 39  1  0
 20 40  1  0
 21 41  1  0
 22 42  1  0
 23 43  1  0
 24 44  1  0
M  CHG  2  15   1  19   1
M  END
>  <score>  (3) 
-10.031

$$$$
=
     RDKit          3D

 44 47  0  0  0  0  0  0  0  0999 V2000
    1.0000   68.1490   68.5140 C   0  0  0  0  0  0  0  0  0  0  0  0
   -0.3000   67.7290   68.2070 C   0  0  0  0  0  0  0  0  0  0  0  0
   -0.7740   66.4960   68.6650 C   0  0  0  0  0  0  0  0  0  0  0  0
    0.0290   65.6620   69.4560 C   0  0  0  0  0  0  0  0  0  0  0  0
    1.3320   66.0760   69.7980 C   0  0  0  0  0  0  0  0  0  0  0  0
    1.8000   67.3190   69.3220 C   0  0  0  0  0  0  0  0  0  0  0  0
    2.1250   65.2350   70.6060 C   0  0  0  0  0  0  0  0  0  0  0  0
    1.6460   63.9970   71.0770 C   0  0  0  0  0  0  0  0  0  0  0  0
    0.3570   63.5960   70.7050 C   0  0  0  0  0  0  0  0  0  0  0  0
   -0.4420   64.4230   69.9120 C   0  0  0  0  0  0  0  0  0  0  0  0
    1.5220   69.4890   68.0470 C   0  0  0  0  0  0  0  0  0  0  0  0
    4.7420   69.1460   65.2980 C   0  0  0  0  0  0  0  0  0  0  0  0
    3.4890   68.6450   64.9740 C   0  0  0  0  0  0  0  0  0  0  0  0
    2.4480   68.7630   65.8890 C   0  0  0  0  0  0  0  0  0  0  0  0
    2.6510   69.3540   67.0900 N   0  0  0  0  0  4  0  0  0  0  0  0
    3.8680   69.8550   67.4150 C   0  0  0  0  0  0  0  0  0  0  0  0
    4.9340   69.7570   66.5290 C   0  0  0  0  0  0  0  0  0  0  0  0
    2.5340   63.1060   71.9160 C   0  0  0  0  0  0  0  0  0  0  0  0
    2.9340   61.8690   71.1990 N   0  0  0  0  0  4  0  0  0  0  0  0
    2.5890   60.6580   71.6980 C   0  0  0  0  0  0  0  0  0  0  0  0
    2.9390   59.4910   71.0310 C   0  0  0  0  0  0  0  0  0  0  0  0
    3.6440   59.5730   69.8370 C   0  0  0  0  0  0  0  0  0  0  0  0
    3.9840   60.8210   69.3310 C   0  0  0  0  0  0  0  0  0  0  0  0
    3.6140   61.9630   70.0300 C   0  0  0  0  0  0  0  0  0  0  0  0
   -0.9532   68.3740   67.6009 H   0  0  0  0  0  0  0  0  0  0  0  0
   -1.7925   66.1753   68.4008 H   0  0  0  0  0  0  0  0  0  0  0  0
    2.8152   67.6477   69.5889 H   0  0  0  0  0  0  0  0  0  0  0  0
    3.1428   65.5538   70.8751 H   0  0  0  0  0  0  0  0  0  0  0  0
   -0.0294   62.6221   71.0399 H   0  0  0  0  0  0  0  0  0  0  0  0
   -1.4570   64.0968   69.6410 H   0  0  0  0  0  0  0  0  0  0  0  0
    0.7040   70.0346   67.5538 H   0  0  0  0  0  0  0  0  0  0  0  0
    1.8929   70.0309   68.9295 H   0  0  0  0  0  0  0  0  0  0  0  0
    5.5755   69.0595   64.5854 H   0  0  0  0  0  0  0  0  0  0  0  0
    3.3205   68.1587   64.0018 H   0  0  0  0  0  0  0  0  0  0  0  0
    1.4515   68.3729   65.6346 H   0  0  0  0  0  0  0  0  0  0  0  0
    4.0131   70.3439   68.3896 H   0  0  0  0  0  0  0  0  0  0  0  0
    5.9208   70.1600   66.8009 H   0  0  0  0  0  0  0  0  0  0  0  0
    3.4411   63.6660   72.1873 H   0  0  0  0  0  0  0  0  0  0  0  0
    1.9630   62.8072   72.8074 H   0  0  0  0  0  0  0  0  0  0  0  0
    2.0259   60.5981   72.6411 H   0  0  0  0  0  0  0  0  0  0  0  0
    2.6603   58.5106   71.4447 H   0  0  0  0  0  0  0  0  0  0  0  0
    3.9303   58.6583   69.2973 H   0  0  0  0  0  0  0  0  0  0  0  0
    4.5408   60.9043   68.3860 H   0  0  0  0  0  0  0  0  0  0  0  0
    3.8755   62.9541   69.6307 H   0  0  0  0  0  0  0  0  0  0  0  0
  2  1  2  0
  3  2  1  0
  4  3  2  0
  5  4  1  0
  6  5  2  0
  6  1  1  0
  7  5  1  0
  8  7  2  0
  9  8  1  0
 10  9  2  0
 10  4  1  0
 11  1  1  0
 13 12  2  0
 14 13  1  0
 15 14  2  0
 15 11  1  0
 16 15  1  0
 17 16  2  0
 17 12  1  0
 18  8  1  0
 19 18  1  0
 20 19  2  0
 21 20  1  0
 22 21  2  0
 23 22  1  0
 24 23  2  0
 24 19  1  0
  2 25  1  0
  3 26  1  0
  6 27  1  0
  7 28  1  0
  9 29  1  0
 10 30  1  0
 11 31  1  0
 11 32  1  0
 12 33  1  0
 13 34  1  0
 14 35  1  0
 16 36  1  0
 17 37  1  0
 18 38  1  0
 18 39  1  0
 20 40  1  0
 21 41  1  0
 22 42  1  0
 23 43  1  0
 24 44  1  0
M  CHG  2  15   1  19   1
M  END
>  <score>  (4) 
-9.999

$$$$
=
     RDKit          3D

 44 47  0  0  0  0  0  0  0  0999 V2000
    2.4340   68.8230   66.0820 C   0  0  0  0  0  0  0  0  0  0  0  0
    1.2650   68.8030   65.3130 C   0  0  0  0  0  0  0  0  0  0  0  0
    0.1030   68.2010   65.8030 C   0  0  0  0  0  0  0  0  0  0  0  0
    0.0730   67.6230   67.0800 C   0  0  0  0  0  0  0  0  0  0  0  0
    1.2310   67.6540   67.8820 C   0  0  0  0  0  0  0  0  0  0  0  0
    2.3990   68.2570   67.3710 C   0  0  0  0  0  0  0  0  0  0  0  0
    1.1840   67.0810   69.1710 C   0  0  0  0  0  0  0  0  0  0  0  0
    0.0110   66.4840   69.6720 C   0  0  0  0  0  0  0  0  0  0  0  0
   -1.1200   66.4440   68.8470 C   0  0  0  0  0  0  0  0  0  0  0  0
   -1.0910   67.0140   67.5720 C   0  0  0  0  0  0  0  0  0  0  0  0
    3.6950   69.4900   65.5780 C   0  0  0  0  0  0  0  0  0  0  0  0
    5.3210   67.4980   62.1970 C   0  0  0  0  0  0  0  0  0  0  0  0
    4.5130   66.8110   63.0920 C   0  0  0  0  0  0  0  0  0  0  0  0
    3.9930   67.4790   64.1950 C   0  0  0  0  0  0  0  0  0  0  0  0
    4.2750   68.7870   64.4050 N   0  0  0  0  0  4  0  0  0  0  0  0
    5.0560   69.4720   63.5330 C   0  0  0  0  0  0  0  0  0  0  0  0
    5.5950   68.8410   62.4180 C   0  0  0  0  0  0  0  0  0  0  0  0
    0.0050   65.8520   71.0450 C   0  0  0  0  0  0  0  0  0  0  0  0
    0.7440   64.5660   71.0810 N   0  0  0  0  0  4  0  0  0  0  0  0
    2.0070   64.4990   70.5940 C   0  0  0  0  0  0  0  0  0  0  0  0
    2.7200   63.3080   70.6360 C   0  0  0  0  0  0  0  0  0  0  0  0
    2.1310   62.1780   71.1900 C   0  0  0  0  0  0  0  0  0  0  0  0
    0.8390   62.2620   71.6940 C   0  0  0  0  0  0  0  0  0  0  0  0
    0.1610   63.4730   71.6320 C   0  0  0  0  0  0  0  0  0  0  0  0
    1.2608   69.2649   64.3147 H   0  0  0  0  0  0  0  0  0  0  0  0
   -0.8016   68.1803   65.1775 H   0  0  0  0  0  0  0  0  0  0  0  0
    3.3048   68.2859   67.9945 H   0  0  0  0  0  0  0  0  0  0  0  0
    2.0862   67.1012   69.8000 H   0  0  0  0  0  0  0  0  0  0  0  0
   -2.0397   65.9592   69.2064 H   0  0  0  0  0  0  0  0  0  0  0  0
   -1.9941   66.9849   66.9446 H   0  0  0  0  0  0  0  0  0  0  0  0
    3.4566   70.5240   65.2882 H   0  0  0  0  0  0  0  0  0  0  0  0
    4.4379   69.4608   66.3887 H   0  0  0  0  0  0  0  0  0  0  0  0
    5.7407   66.9830   61.3202 H   0  0  0  0  0  0  0  0  0  0  0  0
    4.2858   65.7469   62.9302 H   0  0  0  0  0  0  0  0  0  0  0  0
    3.3467   66.9403   64.9035 H   0  0  0  0  0  0  0  0  0  0  0  0
    5.2649   70.5374   63.7099 H   0  0  0  0  0  0  0  0  0  0  0  0
    6.2325   69.4003   61.7174 H   0  0  0  0  0  0  0  0  0  0  0  0
    0.4736   66.5483   71.7560 H   0  0  0  0  0  0  0  0  0  0  0  0
   -1.0414   65.6441   71.3130 H   0  0  0  0  0  0  0  0  0  0  0  0
    2.4720   65.3970   70.1611 H   0  0  0  0  0  0  0  0  0  0  0  0
    3.7427   63.2596   70.2340 H   0  0  0  0  0  0  0  0  0  0  0  0
    2.6820   61.2267   71.2291 H   0  0  0  0  0  0  0  0  0  0  0  0
    0.3575   61.3781   72.1379 H   0  0  0  0  0  0  0  0  0  0  0  0
   -0.8602   63.5459   72.0344 H   0  0  0  0  0  0  0  0  0  0  0  0
  2  1  2  0
  3  2  1  0
  4  3  2  0
  5  4  1  0
  6  5  2  0
  6  1  1  0
  7  5  1  0
  8  7  2  0
  9  8  1  0
 10  9  2  0
 10  4  1  0
 11  1  1  0
 13 12  2  0
 14 13  1  0
 15 14  2  0
 15 11  1  0
 16 15  1  0
 17 16  2  0
 17 12  1  0
 18  8  1  0
 19 18  1  0
 20 19  2  0
 21 20  1  0
 22 21  2  0
 23 22  1  0
 24 23  2  0
 24 19  1  0
  2 25  1  0
  3 26  1  0
  6 27  1  0
  7 28  1  0
  9 29  1  0
 10 30  1  0
 11 31  1  0
 11 32  1  0
 12 33  1  0
 13 34  1  0
 14 35  1  0
 16 36  1  0
 17 37  1  0
 18 38  1  0
 18 39  1  0
 20 40  1  0
 21 41  1  0
 22 42  1  0
 23 43  1  0
 24 44  1  0
M  CHG  2  15   1  19   1
M  END
>  <score>  (5) 
-9.685

$$$$
=
     RDKit          3D

 44 47  0  0  0  0  0  0  0  0999 V2000
    0.9370   64.8300   70.8480 C   0  0  0  0  0  0  0  0  0  0  0  0
    2.1520   64.6770   70.1690 C   0  0  0  0  0  0  0  0  0  0  0  0
    2.8690   63.4820   70.2580 C   0  0  0  0  0  0  0  0  0  0  0  0
    2.3830   62.4020   71.0080 C   0  0  0  0  0  0  0  0  0  0  0  0
    1.1490   62.5230   71.6790 C   0  0  0  0  0  0  0  0  0  0  0  0
    0.4400   63.7390   71.5880 C   0  0  0  0  0  0  0  0  0  0  0  0
    0.6630   61.4250   72.4190 C   0  0  0  0  0  0  0  0  0  0  0  0
    1.3780   60.2150   72.5000 C   0  0  0  0  0  0  0  0  0  0  0  0
    2.6130   60.1250   71.8450 C   0  0  0  0  0  0  0  0  0  0  0  0
    3.1030   61.2020   71.1030 C   0  0  0  0  0  0  0  0  0  0  0  0
    0.1350   66.1090   70.7450 C   0  0  0  0  0  0  0  0  0  0  0  0
    0.1310   67.7500   66.8280 C   0  0  0  0  0  0  0  0  0  0  0  0
   -0.9740   67.0510   67.2950 C   0  0  0  0  0  0  0  0  0  0  0  0
   -0.9520   66.5170   68.5790 C   0  0  0  0  0  0  0  0  0  0  0  0
    0.1370   66.6680   69.3690 N   0  0  0  0  0  4  0  0  0  0  0  0
    1.2190   67.3570   68.9290 C   0  0  0  0  0  0  0  0  0  0  0  0
    1.2370   67.9060   67.6520 C   0  0  0  0  0  0  0  0  0  0  0  0
    0.8430   59.0680   73.3280 C   0  0  0  0  0  0  0  0  0  0  0  0
    1.7510   58.7030   74.4440 N   0  0  0  0  0  4  0  0  0  0  0  0
    2.1020   59.6350   75.3620 C   0  0  0  0  0  0  0  0  0  0  0  0
    2.9360   59.3060   76.4230 C   0  0  0  0  0  0  0  0  0  0  0  0
    3.4070   58.0050   76.5430 C   0  0  0  0  0  0  0  0  0  0  0  0
    3.0320   57.0560   75.6010 C   0  0  0  0  0  0  0  0  0  0  0  0
    2.1960   57.4270   74.5550 C   0  0  0  0  0  0  0  0  0  0  0  0
    2.5449   65.5049   69.5605 H   0  0  0  0  0  0  0  0  0  0  0  0
    3.8301   63.3867   69.7314 H   0  0  0  0  0  0  0  0  0  0  0  0
   -0.5245   63.8379   72.1075 H   0  0  0  0  0  0  0  0  0  0  0  0
   -0.2983   61.5164   72.9458 H   0  0  0  0  0  0  0  0  0  0  0  0
    3.2017   59.1985   71.9156 H   0  0  0  0  0  0  0  0  0  0  0  0
    4.0688   61.1077   70.5849 H   0  0  0  0  0  0  0  0  0  0  0  0
   -0.9038   65.8995   71.0399 H   0  0  0  0  0  0  0  0  0  0  0  0
    0.6002   66.8516   71.4099 H   0  0  0  0  0  0  0  0  0  0  0  0
    0.1300   68.1764   65.8140 H   0  0  0  0  0  0  0  0  0  0  0  0
   -1.8591   66.9207   66.6550 H   0  0  0  0  0  0  0  0  0  0  0  0
   -1.8270   65.9672   68.9559 H   0  0  0  0  0  0  0  0  0  0  0  0
    2.0903   67.4826   69.5886 H   0  0  0  0  0  0  0  0  0  0  0  0
    2.1195   68.4589   67.2978 H   0  0  0  0  0  0  0  0  0  0  0  0
   -0.1317   59.3592   73.7466 H   0  0  0  0  0  0  0  0  0  0  0  0
    0.7535   58.1920   72.6687 H   0  0  0  0  0  0  0  0  0  0  0  0
    1.7227   60.6631   75.2663 H   0  0  0  0  0  0  0  0  0  0  0  0
    3.2210   60.0694   77.1619 H   0  0  0  0  0  0  0  0  0  0  0  0
    4.0704   57.7290   77.3759 H   0  0  0  0  0  0  0  0  0  0  0  0
    3.3934   56.0203   75.6822 H   0  0  0  0  0  0  0  0  0  0  0  0
    1.8920   56.6777   73.8092 H   0  0  0  0  0  0  0  0  0  0  0  0
  2  1  2  0
  3  2  1  0
  4  3  2  0
  5  4  1  0
  6  5  2  0
  6  1  1  0
  7  5  1  0
  8  7  2  0
  9  8  1  0
 10  9  2  0
 10  4  1  0
 11  1  1  0
 13 12  2  0
 14 13  1  0
 15 14  2  0
 15 11  1  0
 16 15  1  0
 17 16  2  0
 17 12  1  0
 18  8  1  0
 19 18  1  0
 20 19  2  0
 21 20  1  0
 22 21  2  0
 23 22  1  0
 24 23  2  0
 24 19  1  0
  2 25  1  0
  3 26  1  0
  6 27  1  0
  7 28  1  0
  9 29  1  0
 10 30  1  0
 11 31  1  0
 11 32  1  0
 12 33  1  0
 13 34  1  0
 14 35  1  0
 16 36  1  0
 17 37  1  0
 18 38  1  0
 18 39  1  0
 20 40  1  0
 21 41  1  0
 22 42  1  0
 23 43  1  0
 24 44  1  0
M  CHG  2  15   1  19   1
M  END
>  <score>  (6) 
-9.173

$$$$
=
     RDKit          3D

 44 47  0  0  0  0  0  0  0  0999 V2000
    2.8790   59.6130   71.6400 C   0  0  0  0  0  0  0  0  0  0  0  0
    4.0900   59.9230   71.0110 C   0  0  0  0  0  0  0  0  0  0  0  0
    4.3210   61.2060   70.5070 C   0  0  0  0  0  0  0  0  0  0  0  0
    3.3580   62.2160   70.6380 C   0  0  0  0  0  0  0  0  0  0  0  0
    2.1400   61.9340   71.2900 C   0  0  0  0  0  0  0  0  0  0  0  0
    1.9180   60.6320   71.7850 C   0  0  0  0  0  0  0  0  0  0  0  0
    1.1850   62.9630   71.4270 C   0  0  0  0  0  0  0  0  0  0  0  0
    1.4190   64.2600   70.9310 C   0  0  0  0  0  0  0  0  0  0  0  0
    2.6250   64.5110   70.2650 C   0  0  0  0  0  0  0  0  0  0  0  0
    3.5840   63.5040   70.1290 C   0  0  0  0  0  0  0  0  0  0  0  0
    2.6200   58.2360   72.2110 C   0  0  0  0  0  0  0  0  0  0  0  0
    2.3990   58.2250   76.4520 C   0  0  0  0  0  0  0  0  0  0  0  0
    1.3030   57.8370   75.6940 C   0  0  0  0  0  0  0  0  0  0  0  0
    1.3930   57.8510   74.3060 C   0  0  0  0  0  0  0  0  0  0  0  0
    2.5350   58.2470   73.6940 N   0  0  0  0  0  4  0  0  0  0  0  0
    3.6150   58.6200   74.4230 C   0  0  0  0  0  0  0  0  0  0  0  0
    3.5660   58.6200   75.8120 C   0  0  0  0  0  0  0  0  0  0  0  0
    0.3610   65.3310   71.0680 C   0  0  0  0  0  0  0  0  0  0  0  0
    0.2930   66.2160   69.8780 N   0  0  0  0  0  4  0  0  0  0  0  0
    1.3110   67.0690   69.6120 C   0  0  0  0  0  0  0  0  0  0  0  0
    1.2720   67.8910   68.4930 C   0  0  0  0  0  0  0  0  0  0  0  0
    0.1800   67.8290   67.6380 C   0  0  0  0  0  0  0  0  0  0  0  0
   -0.8530   66.9420   67.9160 C   0  0  0  0  0  0  0  0  0  0  0  0
   -0.7750   66.1380   69.0460 C   0  0  0  0  0  0  0  0  0  0  0  0
    4.8667   59.1504   70.9124 H   0  0  0  0  0  0  0  0  0  0  0  0
    5.2722   61.4263   70.0003 H   0  0  0  0  0  0  0  0  0  0  0  0
    0.9707   60.4071   72.2970 H   0  0  0  0  0  0  0  0  0  0  0  0
    0.2332   62.7468   71.9342 H   0  0  0  0  0  0  0  0  0  0  0  0
    2.8189   65.5092   69.8455 H   0  0  0  0  0  0  0  0  0  0  0  0
    4.5311   63.7244   69.6148 H   0  0  0  0  0  0  0  0  0  0  0  0
    1.6702   57.8578   71.8051 H   0  0  0  0  0  0  0  0  0  0  0  0
    3.4640   57.5901   71.9273 H   0  0  0  0  0  0  0  0  0  0  0  0
    2.3435   58.2196   77.5506 H   0  0  0  0  0  0  0  0  0  0  0  0
    0.3715   57.5212   76.1865 H   0  0  0  0  0  0  0  0  0  0  0  0
    0.5298   57.5380   73.7002 H   0  0  0  0  0  0  0  0  0  0  0  0
    4.5391   58.9256   73.9105 H   0  0  0  0  0  0  0  0  0  0  0  0
    4.4434   58.9300   76.3986 H   0  0  0  0  0  0  0  0  0  0  0  0
   -0.6169   64.8460   71.2037 H   0  0  0  0  0  0  0  0  0  0  0  0
    0.6258   65.9546   71.9346 H   0  0  0  0  0  0  0  0  0  0  0  0
    2.1771   67.1112   70.2888 H   0  0  0  0  0  0  0  0  0  0  0  0
    2.0996   68.5854   68.2860 H   0  0  0  0  0  0  0  0  0  0  0  0
    0.1329   68.4756   66.7493 H   0  0  0  0  0  0  0  0  0  0  0  0
   -1.7242   66.8772   67.2475 H   0  0  0  0  0  0  0  0  0  0  0  0
   -1.5878   65.4309   69.2682 H   0  0  0  0  0  0  0  0  0  0  0  0
  2  1  2  0
  3  2  1  0
  4  3  2  0
  5  4  1  0
  6  5  2  0
  6  1  1  0
  7  5  1  0
  8  7  2  0
  9  8  1  0
 10  9  2  0
 10  4  1  0
 11  1  1  0
 13 12  2  0
 14 13  1  0
 15 14  2  0
 15 11  1  0
 16 15  1  0
 17 16  2  0
 17 12  1  0
 18  8  1  0
 19 18  1  0
 20 19  2  0
 21 20  1  0
 22 21  2  0
 23 22  1  0
 24 23  2  0
 24 19  1  0
  2 25  1  0
  3 26  1  0
  6 27  1  0
  7 28  1  0
  9 29  1  0
 10 30  1  0
 11 31  1  0
 11 32  1  0
 12 33  1  0
 13 34  1  0
 14 35  1  0
 16 36  1  0
 17 37  1  0
 18 38  1  0
 18 39  1  0
 20 40  1  0
 21 41  1  0
 22 42  1  0
 23 43  1  0
 24 44  1  0
M  CHG  2  15   1  19   1
M  END
>  <score>  (7) 
-8.999

$$$$
=
     RDKit          3D

 44 47  0  0  0  0  0  0  0  0999 V2000
    1.1790   64.6790   71.0470 C   0  0  0  0  0  0  0  0  0  0  0  0
    2.2930   64.6950   70.1990 C   0  0  0  0  0  0  0  0  0  0  0  0
    3.3250   63.7670   70.3630 C   0  0  0  0  0  0  0  0  0  0  0  0
    3.2620   62.7880   71.3640 C   0  0  0  0  0  0  0  0  0  0  0  0
    2.1390   62.7360   72.2140 C   0  0  0  0  0  0  0  0  0  0  0  0
    1.1090   63.6840   72.0420 C   0  0  0  0  0  0  0  0  0  0  0  0
    2.0810   61.7370   73.2090 C   0  0  0  0  0  0  0  0  0  0  0  0
    3.1140   60.7940   73.3690 C   0  0  0  0  0  0  0  0  0  0  0  0
    4.2310   60.8800   72.5290 C   0  0  0  0  0  0  0  0  0  0  0  0
    4.2980   61.8580   71.5350 C   0  0  0  0  0  0  0  0  0  0  0  0
    0.0420   65.6600   70.8700 C   0  0  0  0  0  0  0  0  0  0  0  0
    0.4180   67.8850   67.2720 C   0  0  0  0  0  0  0  0  0  0  0  0
    1.4170   67.9370   68.2340 C   0  0  0  0  0  0  0  0  0  0  0  0
    1.2740   67.2050   69.4070 C   0  0  0  0  0  0  0  0  0  0  0  0
    0.1690   66.4520   69.6200 N   0  0  0  0  0  4  0  0  0  0  0  0
   -0.8100   66.3860   68.6840 C   0  0  0  0  0  0  0  0  0  0  0  0
   -0.7060   67.1020   67.4980 C   0  0  0  0  0  0  0  0  0  0  0  0
    3.0340   59.7560   74.4660 C   0  0  0  0  0  0  0  0  0  0  0  0
    2.0060   58.7210   74.1920 N   0  0  0  0  0  4  0  0  0  0  0  0
    2.2200   57.7950   73.2260 C   0  0  0  0  0  0  0  0  0  0  0  0
    1.2760   56.8080   72.9690 C   0  0  0  0  0  0  0  0  0  0  0  0
    0.1060   56.7710   73.7170 C   0  0  0  0  0  0  0  0  0  0  0  0
   -0.0970   57.7200   74.7100 C   0  0  0  0  0  0  0  0  0  0  0  0
    0.8720   58.6900   74.9350 C   0  0  0  0  0  0  0  0  0  0  0  0
    2.3565   65.4447   69.3965 H   0  0  0  0  0  0  0  0  0  0  0  0
    4.1995   63.8055   69.6968 H   0  0  0  0  0  0  0  0  0  0  0  0
    0.2292   63.6456   72.7011 H   0  0  0  0  0  0  0  0  0  0  0  0
    1.2073   61.6940   73.8759 H   0  0  0  0  0  0  0  0  0  0  0  0
    5.0627   60.1710   72.6534 H   0  0  0  0  0  0  0  0  0  0  0  0
    5.1773   61.8999   70.8754 H   0  0  0  0  0  0  0  0  0  0  0  0
   -0.9053   65.1016   70.8401 H   0  0  0  0  0  0  0  0  0  0  0  0
    0.0687   66.3617   71.7167 H   0  0  0  0  0  0  0  0  0  0  0  0
    0.5159   68.4590   66.3388 H   0  0  0  0  0  0  0  0  0  0  0  0
    2.3141   68.5521   68.0697 H   0  0  0  0  0  0  0  0  0  0  0  0
    2.0661   67.2378   70.1695 H   0  0  0  0  0  0  0  0  0  0  0  0
   -1.6955   65.7592   68.8656 H   0  0  0  0  0  0  0  0  0  0  0  0
   -1.5064   67.0491   66.7453 H   0  0  0  0  0  0  0  0  0  0  0  0
    4.0137   59.2647   74.5595 H   0  0  0  0  0  0  0  0  0  0  0  0
    2.7512   60.2717   75.3956 H   0  0  0  0  0  0  0  0  0  0  0  0
    3.1501   57.8249   72.6395 H   0  0  0  0  0  0  0  0  0  0  0  0
    1.4537   56.0624   72.1800 H   0  0  0  0  0  0  0  0  0  0  0  0
   -0.6521   55.9975   73.5245 H   0  0  0  0  0  0  0  0  0  0  0  0
   -1.0167   57.7040   75.3132 H   0  0  0  0  0  0  0  0  0  0  0  0
    0.7177   59.4407   75.7241 H   0  0  0  0  0  0  0  0  0  0  0  0
  2  1  2  0
  3  2  1  0
  4  3  2  0
  5  4  1  0
  6  5  2  0
  6  1  1  0
  7  5  1  0
  8  7  2  0
  9  8  1  0
 10  9  2  0
 10  4  1  0
 11  1  1  0
 13 12  2  0
 14 13  1  0
 15 14  2  0
 15 11  1  0
 16 15  1  0
 17 16  2  0
 17 12  1  0
 18  8  1  0
 19 18  1  0
 20 19  2  0
 21 20  1  0
 22 21  2  0
 23 22  1  0
 24 23  2  0
 24 19  1  0
  2 25  1  0
  3 26  1  0
  6 27  1  0
  7 28  1  0
  9 29  1  0
 10 30  1  0
 11 31  1  0
 11 32  1  0
 12 33  1  0
 13 34  1  0
 14 35  1  0
 16 36  1  0
 17 37  1  0
 18 38  1  0
 18 39  1  0
 20 40  1  0
 21 41  1  0
 22 42  1  0
 23 43  1  0
 24 44  1  0
M  CHG  2  15   1  19   1
M  END
>  <score>  (8) 
-8.9

$$$$
=
     RDKit          3D

 44 47  0  0  0  0  0  0  0  0999 V2000
    2.5030   59.1700   72.1280 C   0  0  0  0  0  0  0  0  0  0  0  0
    1.7750   60.2950   72.5330 C   0  0  0  0  0  0  0  0  0  0  0  0
    0.6000   60.1500   73.2760 C   0  0  0  0  0  0  0  0  0  0  0  0
    0.1350   58.8820   73.6510 C   0  0  0  0  0  0  0  0  0  0  0  0
    0.8650   57.7360   73.2760 C   0  0  0  0  0  0  0  0  0  0  0  0
    2.0440   57.8970   72.5180 C   0  0  0  0  0  0  0  0  0  0  0  0
    0.3940   56.4670   73.6710 C   0  0  0  0  0  0  0  0  0  0  0  0
   -0.7830   56.3190   74.4290 C   0  0  0  0  0  0  0  0  0  0  0  0
   -1.5060   57.4690   74.7700 C   0  0  0  0  0  0  0  0  0  0  0  0
   -1.0470   58.7340   74.3920 C   0  0  0  0  0  0  0  0  0  0  0  0
    3.7890   59.3070   71.3420 C   0  0  0  0  0  0  0  0  0  0  0  0
    4.1860   63.0980   69.4690 C   0  0  0  0  0  0  0  0  0  0  0  0
    4.8680   62.8250   70.6470 C   0  0  0  0  0  0  0  0  0  0  0  0
    4.7210   61.5800   71.2480 C   0  0  0  0  0  0  0  0  0  0  0  0
    3.9170   60.6390   70.6980 N   0  0  0  0  0  4  0  0  0  0  0  0
    3.2530   60.8900   69.5420 C   0  0  0  0  0  0  0  0  0  0  0  0
    3.3720   62.1230   68.9110 C   0  0  0  0  0  0  0  0  0  0  0  0
   -1.2770   54.9410   74.8100 C   0  0  0  0  0  0  0  0  0  0  0  0
   -0.2880   54.1900   75.6230 N   0  0  0  0  0  4  0  0  0  0  0  0
    0.0640   54.6450   76.8490 C   0  0  0  0  0  0  0  0  0  0  0  0
    0.9740   53.9450   77.6310 C   0  0  0  0  0  0  0  0  0  0  0  0
    1.5210   52.7630   77.1480 C   0  0  0  0  0  0  0  0  0  0  0  0
    1.1450   52.3020   75.8930 C   0  0  0  0  0  0  0  0  0  0  0  0
    0.2320   53.0320   75.1440 C   0  0  0  0  0  0  0  0  0  0  0  0
    2.1304   61.3008   72.2645 H   0  0  0  0  0  0  0  0  0  0  0  0
    0.0317   61.0445   73.5709 H   0  0  0  0  0  0  0  0  0  0  0  0
    2.6189   57.0063   72.2244 H   0  0  0  0  0  0  0  0  0  0  0  0
    0.9604   55.5702   73.3796 H   0  0  0  0  0  0  0  0  0  0  0  0
   -2.4424   57.3760   75.3397 H   0  0  0  0  0  0  0  0  0  0  0  0
   -1.6213   59.6269   74.6799 H   0  0  0  0  0  0  0  0  0  0  0  0
    4.6385   59.1615   72.0255 H   0  0  0  0  0  0  0  0  0  0  0  0
    3.7792   58.5480   70.5459 H   0  0  0  0  0  0  0  0  0  0  0  0
    4.2902   64.0789   68.9823 H   0  0  0  0  0  0  0  0  0  0  0  0
    5.5188   63.5869   71.1008 H   0  0  0  0  0  0  0  0  0  0  0  0
    5.2628   61.3571   72.1790 H   0  0  0  0  0  0  0  0  0  0  0  0
    2.6146   60.1109   69.0999 H   0  0  0  0  0  0  0  0  0  0  0  0
    2.8256   62.3237   67.9776 H   0  0  0  0  0  0  0  0  0  0  0  0
   -2.2048   55.0466   75.3914 H   0  0  0  0  0  0  0  0  0  0  0  0
   -1.4454   54.3764   73.8811 H   0  0  0  0  0  0  0  0  0  0  0  0
   -0.3754   55.5788   77.2296 H   0  0  0  0  0  0  0  0  0  0  0  0
    1.2589   54.3233   78.6238 H   0  0  0  0  0  0  0  0  0  0  0  0
    2.2448   52.1977   77.7535 H   0  0  0  0  0  0  0  0  0  0  0  0
    1.5668   51.3669   75.4960 H   0  0  0  0  0  0  0  0  0  0  0  0
   -0.0730   52.6677   74.1519 H   0  0  0  0  0  0  0  0  0  0  0  0
  2  1  2  0
  3  2  1  0
  4  3  2  0
  5  4  1  0
  6  5  2  0
  6  1  1  0
  7  5  1  0
  8  7  2  0
  9  8  1  0
 10  9  2  0
 10  4  1  0
 11  1  1  0
 13 12  2  0
 14 13  1  0
 15 14  2  0
 15 11  1  0
 16 15  1  0
 17 16  2  0
 17 12  1  0
 18  8  1  0
 19 18  1  0
 20 19  2  0
 21 20  1  0
 22 21  2  0
 23 22  1  0
 24 23  2  0
 24 19  1  0
  2 25  1  0
  3 26  1  0
  6 27  1  0
  7 28  1  0
  9 29  1  0
 10 30  1  0
 11 31  1  0
 11 32  1  0
 12 33  1  0
 13 34  1  0
 14 35  1  0
 16 36  1  0
 17 37  1  0
 18 38  1  0
 18 39  1  0
 20 40  1  0
 21 41  1  0
 22 42  1  0
 23 43  1  0
 24 44  1  0
M  CHG  2  15   1  19   1
M  END
>  <score>  (9) 
-8.831

$$$$
