=
     RDKit          3D

 48 50  0  0  0  0  0  0  0  0999 V2000
    1.3360   67.2960   68.1940 N   0  0  0  0  0  0  0  0  0  0  0  0
    0.9860   67.7550   66.9390 C   0  0  0  0  0  0  0  0  0  0  0  0
   -0.0670   67.3300   66.4590 O   0  0  0  0  0  0  0  0  0  0  0  0
    1.9590   68.5260   66.2880 N   0  0  0  0  0  0  0  0  0  0  0  0
    2.9670   69.2830   66.9940 C   0  0  0  0  0  0  0  0  0  0  0  0
    2.6500   69.8890   68.2260 C   0  0  0  0  0  0  0  0  0  0  0  0
    3.5970   70.6260   68.9410 C   0  0  0  0  0  0  0  0  0  0  0  0
    4.8800   70.7820   68.4320 C   0  0  0  0  0  0  0  0  0  0  0  0
    5.2070   70.2140   67.2040 C   0  0  0  0  0  0  0  0  0  0  0  0
    4.2570   69.4810   66.4770 C   0  0  0  0  0  0  0  0  0  0  0  0
    4.7550   68.7790   64.9280 S   0  0  0  0  0  0  0  0  0  0  0  0
    3.1700   68.7840   64.1240 C   0  0  0  0  0  0  0  0  0  0  0  0
    1.9680   68.6440   64.8460 C   0  0  0  0  0  0  0  0  0  0  0  0
    0.7700   68.6210   64.1070 C   0  0  0  0  0  0  0  0  0  0  0  0
    0.7650   68.7160   62.7120 C   0  0  0  0  0  0  0  0  0  0  0  0
    1.9620   68.8370   62.0180 C   0  0  0  0  0  0  0  0  0  0  0  0
    3.1610   68.8700   62.7220 C   0  0  0  0  0  0  0  0  0  0  0  0
    0.4850   66.4330   69.0010 C   0  0  0  0  0  0  0  0  0  0  0  0
    1.2000   65.7850   70.2060 C   0  0  0  0  0  0  0  0  0  0  0  0
    1.4410   64.2940   69.9990 N   0  0  0  0  0  4  0  0  0  0  0  0
    3.4680   63.0110   69.3220 C   0  0  0  0  0  0  0  0  0  0  0  0
    2.8340   63.8650   70.4060 C   0  0  0  0  0  0  0  0  0  0  0  0
    0.3530   63.4490   70.6240 C   0  0  0  0  0  0  0  0  0  0  0  0
    0.1940   63.7700   72.1000 C   0  0  0  0  0  0  0  0  0  0  0  0
    2.2480   67.5795   68.5797 H   0  0  0  0  0  0  0  0  0  0  0  0
    1.6343   69.7793   68.6337 H   0  0  0  0  0  0  0  0  0  0  0  0
    3.3273   71.0819   69.9051 H   0  0  0  0  0  0  0  0  0  0  0  0
    5.6334   71.3512   68.9962 H   0  0  0  0  0  0  0  0  0  0  0  0
    6.2218   70.3413   66.7990 H   0  0  0  0  0  0  0  0  0  0  0  0
   -0.1870   68.5258   64.6409 H   0  0  0  0  0  0  0  0  0  0  0  0
   -0.1882   68.6949   62.1634 H   0  0  0  0  0  0  0  0  0  0  0  0
    1.9617   68.9062   60.9202 H   0  0  0  0  0  0  0  0  0  0  0  0
    4.1111   68.9643   62.1758 H   0  0  0  0  0  0  0  0  0  0  0  0
   -0.3544   67.0341   69.3806 H   0  0  0  0  0  0  0  0  0  0  0  0
    0.1596   65.6103   68.3474 H   0  0  0  0  0  0  0  0  0  0  0  0
    2.1695   66.2835   70.3526 H   0  0  0  0  0  0  0  0  0  0  0  0
    0.5518   65.9032   71.0868 H   0  0  0  0  0  0  0  0  0  0  0  0
    1.3874   64.1253   68.9843 H   0  0  0  0  0  0  0  0  0  0  0  0
    4.0623   62.2104   69.7866 H   0  0  0  0  0  0  0  0  0  0  0  0
    2.6793   62.5666   68.6971 H   0  0  0  0  0  0  0  0  0  0  0  0
    4.1216   63.6374   68.6971 H   0  0  0  0  0  0  0  0  0  0  0  0
    2.7753   63.2824   71.3372 H   0  0  0  0  0  0  0  0  0  0  0  0
    3.4517   64.7626   70.5572 H   0  0  0  0  0  0  0  0  0  0  0  0
   -0.5979   63.6481   70.1082 H   0  0  0  0  0  0  0  0  0  0  0  0
    0.6315   62.3895   70.5240 H   0  0  0  0  0  0  0  0  0  0  0  0
    0.6030   62.9444   72.7009 H   0  0  0  0  0  0  0  0  0  0  0  0
    0.7368   64.6977   72.3340 H   0  0  0  0  0  0  0  0  0  0  0  0
   -0.8729   63.9004   72.3340 H   0  0  0  0  0  0  0  0  0  0  0  0
  2  1  1  0
  3  2  2  0
  4  2  1  0
  5  4  1  0
  6  5  2  0
  7  6  1  0
  8  7  2  0
  9  8  1  0
 10  9  2  0
 10  5  1  0
 11 10  1  0
 12 11  1  0
 13 12  2  0
 13  4  1  0
 14 13  1  0
 15 14  2  0
 16 15  1  0
 17 16  2  0
 17 12  1  0
 18  1  1  0
 19 18  1  0
 20 19  1  0
 22 21  1  0
 22 20  1  0
 23 20  1  0
 24 23  1  0
  1 25  1  0
  6 26  1  0
  7 27  1  0
  8 28  1  0
  9 29  1  0
 14 30  1  0
 15 31  1  0
 16 32  1  0
 17 33  1  0
 18 34  1  0
 18 35  1  0
 19 36  1  0
 19 37  1  0
 20 38  1  0
 21 39  1  0
 21 40  1  0
 21 41  1  0
 22 42  1  0
 22 43  1  0
 23 44  1  0
 23 45  1  0
 24 46  1  0
 24 47  1  0
 24 48  1  0
M  CHG  1  20   1
M  END
>  <score>  (1) 
-10.057

$$$$
=
     RDKit          3D

 48 50  0  0  0  0  0  0  0  0999 V2000
    1.3880   68.8640   66.1980 N   0  0  0  0  0  0  0  0  0  0  0  0
    1.7300   67.5470   65.9650 C   0  0  0  0  0  0  0  0  0  0  0  0
    1.7380   66.7880   66.9380 O   0  0  0  0  0  0  0  0  0  0  0  0
    2.1910   67.2630   64.6720 N   0  0  0  0  0  0  0  0  0  0  0  0
    1.8250   68.0480   63.5160 C   0  0  0  0  0  0  0  0  0  0  0  0
    0.5330   68.6060   63.4310 C   0  0  0  0  0  0  0  0  0  0  0  0
    0.1410   69.3740   62.3310 C   0  0  0  0  0  0  0  0  0  0  0  0
    1.0300   69.5910   61.2870 C   0  0  0  0  0  0  0  0  0  0  0  0
    2.3030   69.0270   61.3380 C   0  0  0  0  0  0  0  0  0  0  0  0
    2.6980   68.2480   62.4350 C   0  0  0  0  0  0  0  0  0  0  0  0
    4.3380   67.5760   62.4300 S   0  0  0  0  0  0  0  0  0  0  0  0
    4.0250   66.1330   63.4190 C   0  0  0  0  0  0  0  0  0  0  0  0
    3.0340   66.1150   64.4200 C   0  0  0  0  0  0  0  0  0  0  0  0
    2.8970   64.9340   65.1710 C   0  0  0  0  0  0  0  0  0  0  0  0
    3.7170   63.8220   64.9510 C   0  0  0  0  0  0  0  0  0  0  0  0
    4.6990   63.8650   63.9700 C   0  0  0  0  0  0  0  0  0  0  0  0
    4.8530   65.0180   63.2070 C   0  0  0  0  0  0  0  0  0  0  0  0
    0.9450   69.3630   67.4920 C   0  0  0  0  0  0  0  0  0  0  0  0
   -0.5890   69.4020   67.6650 C   0  0  0  0  0  0  0  0  0  0  0  0
   -1.2920   68.3630   66.7990 N   0  0  0  0  0  4  0  0  0  0  0  0
   -1.0870   66.6010   68.5490 C   0  0  0  0  0  0  0  0  0  0  0  0
   -2.0370   67.3290   67.6140 C   0  0  0  0  0  0  0  0  0  0  0  0
   -2.1470   69.0020   65.7260 C   0  0  0  0  0  0  0  0  0  0  0  0
   -3.6110   68.6390   65.9090 C   0  0  0  0  0  0  0  0  0  0  0  0
    1.4495   69.5294   65.4142 H   0  0  0  0  0  0  0  0  0  0  0  0
   -0.1824   68.4331   64.2485 H   0  0  0  0  0  0  0  0  0  0  0  0
   -0.8700   69.8057   62.2926 H   0  0  0  0  0  0  0  0  0  0  0  0
    0.7311   70.2047   60.4245 H   0  0  0  0  0  0  0  0  0  0  0  0
    3.0059   69.1946   60.5086 H   0  0  0  0  0  0  0  0  0  0  0  0
    2.1244   64.8831   65.9524 H   0  0  0  0  0  0  0  0  0  0  0  0
    3.5838   62.9128   65.5556 H   0  0  0  0  0  0  0  0  0  0  0  0
    5.3495   62.9948   63.7977 H   0  0  0  0  0  0  0  0  0  0  0  0
    5.6307   65.0571   62.4301 H   0  0  0  0  0  0  0  0  0  0  0  0
    1.3638   68.7126   68.2741 H   0  0  0  0  0  0  0  0  0  0  0  0
    1.2977   70.4022   67.5672 H   0  0  0  0  0  0  0  0  0  0  0  0
   -0.8317   69.2068   68.7200 H   0  0  0  0  0  0  0  0  0  0  0  0
   -0.9394   70.3964   67.3513 H   0  0  0  0  0  0  0  0  0  0  0  0
   -0.5529   67.8420   66.3058 H   0  0  0  0  0  0  0  0  0  0  0  0
   -1.3644   66.8136   69.5920 H   0  0  0  0  0  0  0  0  0  0  0  0
   -1.1506   65.5182   68.3661 H   0  0  0  0  0  0  0  0  0  0  0  0
   -0.0580   66.9440   68.3661 H   0  0  0  0  0  0  0  0  0  0  0  0
   -2.5044   66.6011   66.9346 H   0  0  0  0  0  0  0  0  0  0  0  0
   -2.8063   67.8369   68.2142 H   0  0  0  0  0  0  0  0  0  0  0  0
   -2.0376   70.0951   65.7823 H   0  0  0  0  0  0  0  0  0  0  0  0
   -1.8138   68.6316   64.7453 H   0  0  0  0  0  0  0  0  0  0  0  0
   -3.8431   68.5815   66.9827 H   0  0  0  0  0  0  0  0  0  0  0  0
   -4.2411   69.4081   65.4384 H   0  0  0  0  0  0  0  0  0  0  0  0
   -3.8088   67.6646   65.4384 H   0  0  0  0  0  0  0  0  0  0  0  0
  2  1  1  0
  3  2  2  0
  4  2  1  0
  5  4  1  0
  6  5  2  0
  7  6  1  0
  8  7  2  0
  9  8  1  0
 10  9  2  0
 10  5  1  0
 11 10  1  0
 12 11  1  0
 13 12  2  0
 13  4  1  0
 14 13  1  0
 15 14  2  0
 16 15  1  0
 17 16  2  0
 17 12  1  0
 18  1  1  0
 19 18  1  0
 20 19  1  0
 22 21  1  0
 22 20  1  0
 23 20  1  0
 24 23  1  0
  1 25  1  0
  6 26  1  0
  7 27  1  0
  8 28  1  0
  9 29  1  0
 14 30  1  0
 15 31  1  0
 16 32  1  0
 17 33  1  0
 18 34  1  0
 18 35  1  0
 19 36  1  0
 19 37  1  0
 20 38  1  0
 21 39  1  0
 21 40  1  0
 21 41  1  0
 22 42  1  0
 22 43  1  0
 23 44  1  0
 23 45  1  0
 24 46  1  0
 24 47  1  0
 24 48  1  0
M  CHG  1  20   1
M  END
>  <score>  (2) 
-8.961

$$$$
=
     RDKit          3D

 48 50  0  0  0  0  0  0  0  0999 V2000
    2.7150   69.9930   68.4750 N   0  0  0  0  0  0  0  0  0  0  0  0
    2.8550   69.5850   67.1630 C   0  0  0  0  0  0  0  0  0  0  0  0
    3.8140   70.0390   66.5330 O   0  0  0  0  0  0  0  0  0  0  0  0
    1.7920   68.8280   66.6510 N   0  0  0  0  0  0  0  0  0  0  0  0
    0.9170   68.0360   67.4830 C   0  0  0  0  0  0  0  0  0  0  0  0
    1.4350   67.3870   68.6230 C   0  0  0  0  0  0  0  0  0  0  0  0
    0.6210   66.6140   69.4550 C   0  0  0  0  0  0  0  0  0  0  0  0
   -0.7270   66.4640   69.1580 C   0  0  0  0  0  0  0  0  0  0  0  0
   -1.2550   67.0740   68.0230 C   0  0  0  0  0  0  0  0  0  0  0  0
   -0.4400   67.8430   67.1790 C   0  0  0  0  0  0  0  0  0  0  0  0
   -1.1890   68.5970   65.7600 S   0  0  0  0  0  0  0  0  0  0  0  0
    0.2420   68.6390   64.7080 C   0  0  0  0  0  0  0  0  0  0  0  0
    1.5460   68.7640   65.2270 C   0  0  0  0  0  0  0  0  0  0  0  0
    2.6050   68.8270   64.3030 C   0  0  0  0  0  0  0  0  0  0  0  0
    2.3810   68.7840   62.9230 C   0  0  0  0  0  0  0  0  0  0  0  0
    1.0870   68.6770   62.4320 C   0  0  0  0  0  0  0  0  0  0  0  0
    0.0210   68.6060   63.3210 C   0  0  0  0  0  0  0  0  0  0  0  0
    3.6840   70.8340   69.1640 C   0  0  0  0  0  0  0  0  0  0  0  0
    5.0860   70.2010   69.3040 C   0  0  0  0  0  0  0  0  0  0  0  0
    6.2000   71.1960   68.9980 N   0  0  0  0  0  4  0  0  0  0  0  0
    7.1800   70.2230   71.0720 C   0  0  0  0  0  0  0  0  0  0  0  0
    7.4820   70.8850   69.7390 C   0  0  0  0  0  0  0  0  0  0  0  0
    6.4030   71.3830   67.5100 C   0  0  0  0  0  0  0  0  0  0  0  0
    6.8150   70.0780   66.8500 C   0  0  0  0  0  0  0  0  0  0  0  0
    1.8802   69.6859   68.9942 H   0  0  0  0  0  0  0  0  0  0  0  0
    2.5035   67.4917   68.8624 H   0  0  0  0  0  0  0  0  0  0  0  0
    1.0473   66.1253   70.3435 H   0  0  0  0  0  0  0  0  0  0  0  0
   -1.3747   65.8662   69.8161 H   0  0  0  0  0  0  0  0  0  0  0  0
   -2.3221   66.9516   67.7858 H   0  0  0  0  0  0  0  0  0  0  0  0
    3.6364   68.9123   64.6757 H   0  0  0  0  0  0  0  0  0  0  0  0
    3.2308   68.8350   62.2264 H   0  0  0  0  0  0  0  0  0  0  0  0
    0.9066   68.6486   61.3473 H   0  0  0  0  0  0  0  0  0  0  0  0
   -1.0057   68.5232   62.9349 H   0  0  0  0  0  0  0  0  0  0  0  0
    3.7848   71.7748   68.6029 H   0  0  0  0  0  0  0  0  0  0  0  0
    3.3022   70.9850   70.1845 H   0  0  0  0  0  0  0  0  0  0  0  0
    5.2092   69.8372   70.3348 H   0  0  0  0  0  0  0  0  0  0  0  0
    5.1592   69.3781   68.5777 H   0  0  0  0  0  0  0  0  0  0  0  0
    5.8886   72.1080   69.3615 H   0  0  0  0  0  0  0  0  0  0  0  0
    7.4849   70.8914   71.8907 H   0  0  0  0  0  0  0  0  0  0  0  0
    6.1010   70.0218   71.1454 H   0  0  0  0  0  0  0  0  0  0  0  0
    7.7353   69.2763   71.1454 H   0  0  0  0  0  0  0  0  0  0  0  0
    8.0334   71.8202   69.9162 H   0  0  0  0  0  0  0  0  0  0  0  0
    8.0867   70.1972   69.1296 H   0  0  0  0  0  0  0  0  0  0  0  0
    5.4625   71.7330   67.0595 H   0  0  0  0  0  0  0  0  0  0  0  0
    7.2023   72.1226   67.3549 H   0  0  0  0  0  0  0  0  0  0  0  0
    7.0501   69.3335   67.6248 H   0  0  0  0  0  0  0  0  0  0  0  0
    5.9901   69.7075   66.2237 H   0  0  0  0  0  0  0  0  0  0  0  0
    7.7031   70.2483   66.2237 H   0  0  0  0  0  0  0  0  0  0  0  0
  2  1  1  0
  3  2  2  0
  4  2  1  0
  5  4  1  0
  6  5  2  0
  7  6  1  0
  8  7  2  0
  9  8  1  0
 10  9  2  0
 10  5  1  0
 11 10  1  0
 12 11  1  0
 13 12  2  0
 13  4  1  0
 14 13  1  0
 15 14  2  0
 16 15  1  0
 17 16  2  0
 17 12  1  0
 18  1  1  0
 19 18  1  0
 20 19  1  0
 22 21  1  0
 22 20  1  0
 23 20  1  0
 24 23  1  0
  1 25  1  0
  6 26  1  0
  7 27  1  0
  8 28  1  0
  9 29  1  0
 14 30  1  0
 15 31  1  0
 16 32  1  0
 17 33  1  0
 18 34  1  0
 18 35  1  0
 19 36  1  0
 19 37  1  0
 20 38  1  0
 21 39  1  0
 21 40  1  0
 21 41  1  0
 22 42  1  0
 22 43  1  0
 23 44  1  0
 23 45  1  0
 24 46  1  0
 24 47  1  0
 24 48  1  0
M  CHG  1  20   1
M  END
>  <score>  (3) 
-8.529

$$$$
=
     RDKit          3D

 48 50  0  0  0  0  0  0  0  0999 V2000
    3.5640   67.0870   63.9770 N   0  0  0  0  0  0  0  0  0  0  0  0
    4.0990   68.1200   64.7200 C   0  0  0  0  0  0  0  0  0  0  0  0
    5.3190   68.2910   64.6480 O   0  0  0  0  0  0  0  0  0  0  0  0
    3.2110   68.7510   65.6030 N   0  0  0  0  0  0  0  0  0  0  0  0
    1.7820   68.7790   65.3950 C   0  0  0  0  0  0  0  0  0  0  0  0
    1.2680   68.8680   64.0850 C   0  0  0  0  0  0  0  0  0  0  0  0
   -0.1080   68.8950   63.8420 C   0  0  0  0  0  0  0  0  0  0  0  0
   -0.9990   68.8440   64.9050 C   0  0  0  0  0  0  0  0  0  0  0  0
   -0.5140   68.7830   66.2090 C   0  0  0  0  0  0  0  0  0  0  0  0
    0.8660   68.7660   66.4590 C   0  0  0  0  0  0  0  0  0  0  0  0
    1.4050   68.6750   68.1450 S   0  0  0  0  0  0  0  0  0  0  0  0
    2.9600   69.5140   67.9620 C   0  0  0  0  0  0  0  0  0  0  0  0
    3.6990   69.4620   66.7640 C   0  0  0  0  0  0  0  0  0  0  0  0
    4.9380   70.1290   66.7400 C   0  0  0  0  0  0  0  0  0  0  0  0
    5.4300   70.8060   67.8600 C   0  0  0  0  0  0  0  0  0  0  0  0
    4.6940   70.8320   69.0370 C   0  0  0  0  0  0  0  0  0  0  0  0
    3.4630   70.1870   69.0880 C   0  0  0  0  0  0  0  0  0  0  0  0
    4.3410   66.2750   63.0510 C   0  0  0  0  0  0  0  0  0  0  0  0
    5.2030   65.1890   63.7300 C   0  0  0  0  0  0  0  0  0  0  0  0
    4.6340   63.7900   63.5230 N   0  0  0  0  0  4  0  0  0  0  0  0
    5.6740   61.9840   62.1550 C   0  0  0  0  0  0  0  0  0  0  0  0
    5.7060   62.7230   63.4820 C   0  0  0  0  0  0  0  0  0  0  0  0
    3.5220   63.4760   64.4990 C   0  0  0  0  0  0  0  0  0  0  0  0
    3.9570   63.7540   65.9280 C   0  0  0  0  0  0  0  0  0  0  0  0
    2.5608   66.8793   64.0833 H   0  0  0  0  0  0  0  0  0  0  0  0
    1.9653   68.9173   63.2357 H   0  0  0  0  0  0  0  0  0  0  0  0
   -0.4842   68.9566   62.8102 H   0  0  0  0  0  0  0  0  0  0  0  0
   -2.0830   68.8517   64.7183 H   0  0  0  0  0  0  0  0  0  0  0  0
   -1.2204   68.7478   67.0515 H   0  0  0  0  0  0  0  0  0  0  0  0
    5.5348   70.1174   65.8161 H   0  0  0  0  0  0  0  0  0  0  0  0
    6.4018   71.3189   67.8086 H   0  0  0  0  0  0  0  0  0  0  0  0
    5.0814   71.3584   69.9218 H   0  0  0  0  0  0  0  0  0  0  0  0
    2.8774   70.2039   70.0190 H   0  0  0  0  0  0  0  0  0  0  0  0
    3.6444   65.7794   62.3588 H   0  0  0  0  0  0  0  0  0  0  0  0
    5.0369   66.9570   62.5405 H   0  0  0  0  0  0  0  0  0  0  0  0
    6.2173   65.2253   63.3060 H   0  0  0  0  0  0  0  0  0  0  0  0
    5.2137   65.3929   64.8109 H   0  0  0  0  0  0  0  0  0  0  0  0
    4.2038   63.7839   62.5871 H   0  0  0  0  0  0  0  0  0  0  0  0
    5.6271   60.9006   62.3397 H   0  0  0  0  0  0  0  0  0  0  0  0
    4.7886   62.2970   61.5823 H   0  0  0  0  0  0  0  0  0  0  0  0
    6.5832   62.2193   61.5823 H   0  0  0  0  0  0  0  0  0  0  0  0
    5.5346   62.0067   64.2990 H   0  0  0  0  0  0  0  0  0  0  0  0
    6.6890   63.2031   63.5971 H   0  0  0  0  0  0  0  0  0  0  0  0
    2.6479   64.1000   64.2612 H   0  0  0  0  0  0  0  0  0  0  0  0
    3.2693   62.4090   64.4109 H   0  0  0  0  0  0  0  0  0  0  0  0
    3.2401   63.2958   66.6252 H   0  0  0  0  0  0  0  0  0  0  0  0
    4.9566   63.3269   66.0967 H   0  0  0  0  0  0  0  0  0  0  0  0
    3.9893   64.8405   66.0967 H   0  0  0  0  0  0  0  0  0  0  0  0
  2  1  1  0
  3  2  2  0
  4  2  1  0
  5  4  1  0
  6  5  2  0
  7  6  1  0
  8  7  2  0
  9  8  1  0
 10  9  2  0
 10  5  1  0
 11 10  1  0
 12 11  1  0
 13 12  2  0
 13  4  1  0
 14 13  1  0
 15 14  2  0
 16 15  1  0
 17 16  2  0
 17 12  1  0
 18  1  1  0
 19 18  1  0
 20 19  1  0
 22 21  1  0
 22 20  1  0
 23 20  1  0
 24 23  1  0
  1 25  1  0
  6 26  1  0
  7 27  1  0
  8 28  1  0
  9 29  1  0
 14 30  1  0
 15 31  1  0
 16 32  1  0
 17 33  1  0
 18 34  1  0
 18 35  1  0
 19 36  1  0
 19 37  1  0
 20 38  1  0
 21 39  1  0
 21 40  1  0
 21 41  1  0
 22 42  1  0
 22 43  1  0
 23 44  1  0
 23 45  1  0
 24 46  1  0
 24 47  1  0
 24 48  1  0
M  CHG  1  20   1
M  END
>  <score>  (4) 
-8.417

$$$$
=
     RDKit          3D

 48 50  0  0  0  0  0  0  0  0999 V2000
    0.8910   69.5510   67.1430 N   0  0  0  0  0  0  0  0  0  0  0  0
    2.1020   69.7290   67.7810 C   0  0  0  0  0  0  0  0  0  0  0  0
    2.0870   70.3310   68.8570 O   0  0  0  0  0  0  0  0  0  0  0  0
    3.2330   69.3450   67.0460 N   0  0  0  0  0  0  0  0  0  0  0  0
    3.1930   68.3450   66.0050 C   0  0  0  0  0  0  0  0  0  0  0  0
    2.3320   67.2360   66.1340 C   0  0  0  0  0  0  0  0  0  0  0  0
    2.2620   66.2480   65.1480 C   0  0  0  0  0  0  0  0  0  0  0  0
    3.0600   66.3430   64.0160 C   0  0  0  0  0  0  0  0  0  0  0  0
    3.9370   67.4160   63.8800 C   0  0  0  0  0  0  0  0  0  0  0  0
    4.0180   68.4050   64.8710 C   0  0  0  0  0  0  0  0  0  0  0  0
    5.1510   69.7450   64.6180 S   0  0  0  0  0  0  0  0  0  0  0  0
    5.4890   70.1190   66.3220 C   0  0  0  0  0  0  0  0  0  0  0  0
    4.5330   69.9110   67.3360 C   0  0  0  0  0  0  0  0  0  0  0  0
    4.8890   70.2780   68.6460 C   0  0  0  0  0  0  0  0  0  0  0  0
    6.1360   70.8420   68.9380 C   0  0  0  0  0  0  0  0  0  0  0  0
    7.0580   71.0540   67.9220 C   0  0  0  0  0  0  0  0  0  0  0  0
    6.7360   70.6940   66.6180 C   0  0  0  0  0  0  0  0  0  0  0  0
   -0.3880   69.9430   67.7200 C   0  0  0  0  0  0  0  0  0  0  0  0
   -1.5840   69.8200   66.7510 C   0  0  0  0  0  0  0  0  0  0  0  0
   -1.5610   68.5110   65.9700 N   0  0  0  0  0  4  0  0  0  0  0  0
   -2.0150   66.7890   67.7130 C   0  0  0  0  0  0  0  0  0  0  0  0
   -2.5630   67.5030   66.4900 C   0  0  0  0  0  0  0  0  0  0  0  0
   -1.6650   68.7360   64.4780 C   0  0  0  0  0  0  0  0  0  0  0  0
   -0.2880   68.8440   63.8460 C   0  0  0  0  0  0  0  0  0  0  0  0
    0.8916   69.1177   66.2086 H   0  0  0  0  0  0  0  0  0  0  0  0
    1.7013   67.1464   67.0307 H   0  0  0  0  0  0  0  0  0  0  0  0
    1.5759   65.3967   65.2687 H   0  0  0  0  0  0  0  0  0  0  0  0
    2.9998   65.5749   63.2309 H   0  0  0  0  0  0  0  0  0  0  0  0
    4.5732   67.4887   62.9856 H   0  0  0  0  0  0  0  0  0  0  0  0
    4.1689   70.1177   69.4620 H   0  0  0  0  0  0  0  0  0  0  0  0
    6.3858   71.1175   69.9732 H   0  0  0  0  0  0  0  0  0  0  0  0
    8.0364   71.5036   68.1469 H   0  0  0  0  0  0  0  0  0  0  0  0
    7.4645   70.8610   65.8109 H   0  0  0  0  0  0  0  0  0  0  0  0
   -0.5837   69.3023   68.5925 H   0  0  0  0  0  0  0  0  0  0  0  0
   -0.3029   71.0076   67.9834 H   0  0  0  0  0  0  0  0  0  0  0  0
   -2.5169   69.8695   67.3318 H   0  0  0  0  0  0  0  0  0  0  0  0
   -1.5182   70.6458   66.0273 H   0  0  0  0  0  0  0  0  0  0  0  0
   -0.6361   68.0877   66.1319 H   0  0  0  0  0  0  0  0  0  0  0  0
   -2.3912   67.2792   68.6230 H   0  0  0  0  0  0  0  0  0  0  0  0
   -2.3409   65.7384   67.7010 H   0  0  0  0  0  0  0  0  0  0  0  0
   -0.9159   66.8321   67.7010 H   0  0  0  0  0  0  0  0  0  0  0  0
   -2.7737   66.7634   65.7034 H   0  0  0  0  0  0  0  0  0  0  0  0
   -3.4857   68.0318   66.7710 H   0  0  0  0  0  0  0  0  0  0  0  0
   -2.2040   67.8916   64.0237 H   0  0  0  0  0  0  0  0  0  0  0  0
   -2.2057   69.6778   64.3027 H   0  0  0  0  0  0  0  0  0  0  0  0
    0.4746   68.9038   64.6365 H   0  0  0  0  0  0  0  0  0  0  0  0
   -0.1005   67.9578   63.2219 H   0  0  0  0  0  0  0  0  0  0  0  0
   -0.2409   69.7486   63.2219 H   0  0  0  0  0  0  0  0  0  0  0  0
  2  1  1  0
  3  2  2  0
  4  2  1  0
  5  4  1  0
  6  5  2  0
  7  6  1  0
  8  7  2  0
  9  8  1  0
 10  9  2  0
 10  5  1  0
 11 10  1  0
 12 11  1  0
 13 12  2  0
 13  4  1  0
 14 13  1  0
 15 14  2  0
 16 15  1  0
 17 16  2  0
 17 12  1  0
 18  1  1  0
 19 18  1  0
 20 19  1  0
 22 21  1  0
 22 20  1  0
 23 20  1  0
 24 23  1  0
  1 25  1  0
  6 26  1  0
  7 27  1  0
  8 28  1  0
  9 29  1  0
 14 30  1  0
 15 31  1  0
 16 32  1  0
 17 33  1  0
 18 34  1  0
 18 35  1  0
 19 36  1  0
 19 37  1  0
 20 38  1  0
 21 39  1  0
 21 40  1  0
 21 41  1  0
 22 42  1  0
 22 43  1  0
 23 44  1  0
 23 45  1  0
 24 46  1  0
 24 47  1  0
 24 48  1  0
M  CHG  1  20   1
M  END
>  <score>  (5) 
-7.715

$$$$
=
     RDKit          3D

 48 50  0  0  0  0  0  0  0  0999 V2000
    2.8190   59.3180   74.5090 N   0  0  0  0  0  0  0  0  0  0  0  0
    3.1270   59.4240   73.1670 C   0  0  0  0  0  0  0  0  0  0  0  0
    4.1920   58.9260   72.7940 O   0  0  0  0  0  0  0  0  0  0  0  0
    2.2660   60.2340   72.4140 N   0  0  0  0  0  0  0  0  0  0  0  0
    0.8900   60.4750   72.7810 C   0  0  0  0  0  0  0  0  0  0  0  0
    0.1390   59.4500   73.3900 C   0  0  0  0  0  0  0  0  0  0  0  0
   -1.1930   59.6440   73.7620 C   0  0  0  0  0  0  0  0  0  0  0  0
   -1.8060   60.8670   73.5230 C   0  0  0  0  0  0  0  0  0  0  0  0
   -1.0920   61.8860   72.8990 C   0  0  0  0  0  0  0  0  0  0  0  0
    0.2430   61.6920   72.5140 C   0  0  0  0  0  0  0  0  0  0  0  0
    1.0880   63.0420   71.7360 S   0  0  0  0  0  0  0  0  0  0  0  0
    2.2320   62.0970   70.7580 C   0  0  0  0  0  0  0  0  0  0  0  0
    2.7110   60.8400   71.1780 C   0  0  0  0  0  0  0  0  0  0  0  0
    3.6450   60.1940   70.3470 C   0  0  0  0  0  0  0  0  0  0  0  0
    4.0970   60.7760   69.1580 C   0  0  0  0  0  0  0  0  0  0  0  0
    3.6250   62.0230   68.7700 C   0  0  0  0  0  0  0  0  0  0  0  0
    2.6960   62.6820   69.5680 C   0  0  0  0  0  0  0  0  0  0  0  0
    3.6270   58.5710   75.4630 C   0  0  0  0  0  0  0  0  0  0  0  0
    3.0940   57.1550   75.7730 C   0  0  0  0  0  0  0  0  0  0  0  0
    1.6530   56.9680   75.3120 N   0  0  0  0  0  4  0  0  0  0  0  0
    0.0610   55.7420   73.8380 C   0  0  0  0  0  0  0  0  0  0  0  0
    1.5200   55.9390   74.2110 C   0  0  0  0  0  0  0  0  0  0  0  0
    0.7110   56.7240   76.4710 C   0  0  0  0  0  0  0  0  0  0  0  0
    0.0690   58.0210   76.9340 C   0  0  0  0  0  0  0  0  0  0  0  0
    1.9724   59.7927   74.8537 H   0  0  0  0  0  0  0  0  0  0  0  0
    0.6127   58.4749   73.5766 H   0  0  0  0  0  0  0  0  0  0  0  0
   -1.7552   58.8301   74.2431 H   0  0  0  0  0  0  0  0  0  0  0  0
   -2.8510   61.0297   73.8254 H   0  0  0  0  0  0  0  0  0  0  0  0
   -1.5794   62.8530   72.7058 H   0  0  0  0  0  0  0  0  0  0  0  0
    4.0296   59.2059   70.6399 H   0  0  0  0  0  0  0  0  0  0  0  0
    4.8273   60.2452   68.5296 H   0  0  0  0  0  0  0  0  0  0  0  0
    3.9831   62.4860   67.8387 H   0  0  0  0  0  0  0  0  0  0  0  0
    2.3210   63.6706   69.2646 H   0  0  0  0  0  0  0  0  0  0  0  0
    4.6434   58.4749   75.0534 H   0  0  0  0  0  0  0  0  0  0  0  0
    3.5995   59.1328   76.4083 H   0  0  0  0  0  0  0  0  0  0  0  0
    3.7286   56.4175   75.2598 H   0  0  0  0  0  0  0  0  0  0  0  0
    3.1202   57.0158   76.8638 H   0  0  0  0  0  0  0  0  0  0  0  0
    1.3613   57.8607   74.8891 H   0  0  0  0  0  0  0  0  0  0  0  0
   -0.5437   55.6604   74.7533 H   0  0  0  0  0  0  0  0  0  0  0  0
   -0.2852   56.6015   73.2453 H   0  0  0  0  0  0  0  0  0  0  0  0
   -0.0449   54.8214   73.2453 H   0  0  0  0  0  0  0  0  0  0  0  0
    1.9370   54.9821   74.5580 H   0  0  0  0  0  0  0  0  0  0  0  0
    2.0680   56.2936   73.3256 H   0  0  0  0  0  0  0  0  0  0  0  0
   -0.0774   56.0260   76.1528 H   0  0  0  0  0  0  0  0  0  0  0  0
    1.2868   56.3003   77.3070 H   0  0  0  0  0  0  0  0  0  0  0  0
    0.0543   58.0508   78.0335 H   0  0  0  0  0  0  0  0  0  0  0  0
    0.6489   58.8740   76.5518 H   0  0  0  0  0  0  0  0  0  0  0  0
   -0.9610   58.0772   76.5518 H   0  0  0  0  0  0  0  0  0  0  0  0
  2  1  1  0
  3  2  2  0
  4  2  1  0
  5  4  1  0
  6  5  2  0
  7  6  1  0
  8  7  2  0
  9  8  1  0
 10  9  2  0
 10  5  1  0
 11 10  1  0
 12 11  1  0
 13 12  2  0
 13  4  1  0
 14 13  1  0
 15 14  2  0
 16 15  1  0
 17 16  2  0
 17 12  1  0
 18  1  1  0
 19 18  1  0
 20 19  1  0
 22 21  1  0
 22 20  1  0
 23 20  1  0
 24 23  1  0
  1 25  1  0
  6 26  1  0
  7 27  1  0
  8 28  1  0
  9 29  1  0
 14 30  1  0
 15 31  1  0
 16 32  1  0
 17 33  1  0
 18 34  1  0
 18 35  1  0
 19 36  1  0
 19 37  1  0
 20 38  1  0
 21 39  1  0
 21 40  1  0
 21 41  1  0
 22 42  1  0
 22 43  1  0
 23 44  1  0
 23 45  1  0
 24 46  1  0
 24 47  1  0
 24 48  1  0
M  CHG  1  20   1
M  END
>  <score>  (6) 
-7.69

$$$$
=
     RDKit          3D

 48 50  0  0  0  0  0  0  0  0999 V2000
    1.6740   66.8740   68.9980 N   0  0  0  0  0  0  0  0  0  0  0  0
    0.8010   67.4300   68.0840 C   0  0  0  0  0  0  0  0  0  0  0  0
   -0.3580   67.0070   68.0840 O   0  0  0  0  0  0  0  0  0  0  0  0
    1.3810   68.2990   67.1490 N   0  0  0  0  0  0  0  0  0  0  0  0
    2.6010   69.0290   67.4040 C   0  0  0  0  0  0  0  0  0  0  0  0
    2.8720   69.5060   68.7030 C   0  0  0  0  0  0  0  0  0  0  0  0
    4.0410   70.2140   68.9910 C   0  0  0  0  0  0  0  0  0  0  0  0
    4.9600   70.4700   67.9820 C   0  0  0  0  0  0  0  0  0  0  0  0
    4.7020   70.0310   66.6860 C   0  0  0  0  0  0  0  0  0  0  0  0
    3.5240   69.3280   66.3900 C   0  0  0  0  0  0  0  0  0  0  0  0
    3.2730   68.7940   64.7190 S   0  0  0  0  0  0  0  0  0  0  0  0
    1.4960   68.8050   64.7110 C   0  0  0  0  0  0  0  0  0  0  0  0
    0.7440   68.5490   65.8750 C   0  0  0  0  0  0  0  0  0  0  0  0
   -0.6570   68.5430   65.7490 C   0  0  0  0  0  0  0  0  0  0  0  0
   -1.2860   68.7650   64.5200 C   0  0  0  0  0  0  0  0  0  0  0  0
   -0.5260   68.9990   63.3820 C   0  0  0  0  0  0  0  0  0  0  0  0
    0.8610   69.0180   63.4770 C   0  0  0  0  0  0  0  0  0  0  0  0
    1.2710   65.9050   70.0080 C   0  0  0  0  0  0  0  0  0  0  0  0
    0.0230   66.3170   70.8200 C   0  0  0  0  0  0  0  0  0  0  0  0
   -0.3330   65.2900   71.8880 N   0  0  0  0  0  4  0  0  0  0  0  0
   -0.1910   62.8020   71.8380 C   0  0  0  0  0  0  0  0  0  0  0  0
    0.5990   64.0980   71.8880 C   0  0  0  0  0  0  0  0  0  0  0  0
   -0.4900   65.9210   73.2550 C   0  0  0  0  0  0  0  0  0  0  0  0
    0.1290   65.0470   74.3320 C   0  0  0  0  0  0  0  0  0  0  0  0
    2.6630   67.1598   68.9637 H   0  0  0  0  0  0  0  0  0  0  0  0
    2.1464   69.3162   69.5076 H   0  0  0  0  0  0  0  0  0  0  0  0
    4.2332   70.5679   70.0146 H   0  0  0  0  0  0  0  0  0  0  0  0
    5.8877   71.0172   68.2055 H   0  0  0  0  0  0  0  0  0  0  0  0
    5.4287   70.2372   65.8864 H   0  0  0  0  0  0  0  0  0  0  0  0
   -1.2741   68.3588   66.6408 H   0  0  0  0  0  0  0  0  0  0  0  0
   -2.3840   68.7542   64.4548 H   0  0  0  0  0  0  0  0  0  0  0  0
   -1.0174   69.1681   62.4125 H   0  0  0  0  0  0  0  0  0  0  0  0
    1.4664   69.2016   62.5771 H   0  0  0  0  0  0  0  0  0  0  0  0
    1.0551   64.9513   69.5041 H   0  0  0  0  0  0  0  0  0  0  0  0
    2.1029   65.8307   70.7238 H   0  0  0  0  0  0  0  0  0  0  0  0
    0.2210   67.2824   71.3087 H   0  0  0  0  0  0  0  0  0  0  0  0
   -0.8252   66.3879   70.1233 H   0  0  0  0  0  0  0  0  0  0  0  0
   -1.2585   64.9140   71.6371 H   0  0  0  0  0  0  0  0  0  0  0  0
   -0.3995   62.4599   72.8625 H   0  0  0  0  0  0  0  0  0  0  0  0
   -1.1398   62.9711   71.3077 H   0  0  0  0  0  0  0  0  0  0  0  0
    0.3940   62.0362   71.3077 H   0  0  0  0  0  0  0  0  0  0  0  0
    1.2079   64.1151   72.8040 H   0  0  0  0  0  0  0  0  0  0  0  0
    1.2459   64.1536   71.0000 H   0  0  0  0  0  0  0  0  0  0  0  0
    0.0076   66.9020   73.2577 H   0  0  0  0  0  0  0  0  0  0  0  0
   -1.5633   66.0329   73.4683 H   0  0  0  0  0  0  0  0  0  0  0  0
   -0.1466   65.4361   75.3233 H   0  0  0  0  0  0  0  0  0  0  0  0
   -0.2420   64.0169   74.2264 H   0  0  0  0  0  0  0  0  0  0  0  0
    1.2239   65.0550   74.2264 H   0  0  0  0  0  0  0  0  0  0  0  0
  2  1  1  0
  3  2  2  0
  4  2  1  0
  5  4  1  0
  6  5  2  0
  7  6  1  0
  8  7  2  0
  9  8  1  0
 10  9  2  0
 10  5  1  0
 11 10  1  0
 12 11  1  0
 13 12  2  0
 13  4  1  0
 14 13  1  0
 15 14  2  0
 16 15  1  0
 17 16  2  0
 17 12  1  0
 18  1  1  0
 19 18  1  0
 20 19  1  0
 22 21  1  0
 22 20  1  0
 23 20  1  0
 24 23  1  0
  1 25  1  0
  6 26  1  0
  7 27  1  0
  8 28  1  0
  9 29  1  0
 14 30  1  0
 15 31  1  0
 16 32  1  0
 17 33  1  0
 18 34  1  0
 18 35  1  0
 19 36  1  0
 19 37  1  0
 20 38  1  0
 21 39  1  0
 21 40  1  0
 21 41  1  0
 22 42  1  0
 22 43  1  0
 23 44  1  0
 23 45  1  0
 24 46  1  0
 24 47  1  0
 24 48  1  0
M  CHG  1  20   1
M  END
>  <score>  (7) 
-7.497

$$$$
=
     RDKit          3D

 48 50  0  0  0  0  0  0  0  0999 V2000
    0.4130   60.4860   72.9090 N   0  0  0  0  0  0  0  0  0  0  0  0
    0.2830   61.8560   72.7950 C   0  0  0  0  0  0  0  0  0  0  0  0
   -0.8000   62.3470   73.1220 O   0  0  0  0  0  0  0  0  0  0  0  0
    1.3480   62.5110   72.1610 N   0  0  0  0  0  0  0  0  0  0  0  0
    2.6940   61.9860   72.1380 C   0  0  0  0  0  0  0  0  0  0  0  0
    3.1880   61.2810   73.2550 C   0  0  0  0  0  0  0  0  0  0  0  0
    4.4820   60.7560   73.2710 C   0  0  0  0  0  0  0  0  0  0  0  0
    5.3150   60.9340   72.1740 C   0  0  0  0  0  0  0  0  0  0  0  0
    4.8570   61.6500   71.0700 C   0  0  0  0  0  0  0  0  0  0  0  0
    3.5610   62.1880   71.0530 C   0  0  0  0  0  0  0  0  0  0  0  0
    3.0490   63.0750   69.6070 S   0  0  0  0  0  0  0  0  0  0  0  0
    1.8830   64.1710   70.3800 C   0  0  0  0  0  0  0  0  0  0  0  0
    1.1560   63.7980   71.5280 C   0  0  0  0  0  0  0  0  0  0  0  0
    0.2290   64.7260   72.0360 C   0  0  0  0  0  0  0  0  0  0  0  0
    0.0200   65.9660   71.4240 C   0  0  0  0  0  0  0  0  0  0  0  0
    0.7350   66.3090   70.2840 C   0  0  0  0  0  0  0  0  0  0  0  0
    1.6630   65.4140   69.7630 C   0  0  0  0  0  0  0  0  0  0  0  0
   -0.6120   59.6260   73.4840 C   0  0  0  0  0  0  0  0  0  0  0  0
   -0.0630   58.5040   74.3920 C   0  0  0  0  0  0  0  0  0  0  0  0
    0.2560   57.2350   73.6110 N   0  0  0  0  0  4  0  0  0  0  0  0
    2.2250   57.5240   72.1110 C   0  0  0  0  0  0  0  0  0  0  0  0
    1.7430   57.0030   73.4530 C   0  0  0  0  0  0  0  0  0  0  0  0
   -0.4790   56.0300   74.1570 C   0  0  0  0  0  0  0  0  0  0  0  0
    0.3810   54.7810   74.0660 C   0  0  0  0  0  0  0  0  0  0  0  0
    1.2815   60.0489   72.5691 H   0  0  0  0  0  0  0  0  0  0  0  0
    2.5399   61.1416   74.1328 H   0  0  0  0  0  0  0  0  0  0  0  0
    4.8410   60.2023   74.1511 H   0  0  0  0  0  0  0  0  0  0  0  0
    6.3308   60.5120   72.1768 H   0  0  0  0  0  0  0  0  0  0  0  0
    5.5180   61.7951   70.2028 H   0  0  0  0  0  0  0  0  0  0  0  0
   -0.3463   64.4698   72.9378 H   0  0  0  0  0  0  0  0  0  0  0  0
   -0.7117   66.6705   71.8462 H   0  0  0  0  0  0  0  0  0  0  0  0
    0.5686   67.2811   69.7969 H   0  0  0  0  0  0  0  0  0  0  0  0
    2.2302   65.6817   68.8593 H   0  0  0  0  0  0  0  0  0  0  0  0
   -1.2913   60.2516   74.0816 H   0  0  0  0  0  0  0  0  0  0  0  0
   -1.1173   59.1310   72.6416 H   0  0  0  0  0  0  0  0  0  0  0  0
    0.8566   58.8607   74.8790 H   0  0  0  0  0  0  0  0  0  0  0  0
   -0.8390   58.2587   75.1320 H   0  0  0  0  0  0  0  0  0  0  0  0
   -0.1013   57.3800   72.6559 H   0  0  0  0  0  0  0  0  0  0  0  0
    2.9640   58.3228   72.2717 H   0  0  0  0  0  0  0  0  0  0  0  0
    2.6894   56.7034   71.5444 H   0  0  0  0  0  0  0  0  0  0  0  0
    1.3708   57.9233   71.5444 H   0  0  0  0  0  0  0  0  0  0  0  0
    1.9496   55.9245   73.5175 H   0  0  0  0  0  0  0  0  0  0  0  0
    2.2729   57.5403   74.2533 H   0  0  0  0  0  0  0  0  0  0  0  0
   -0.7373   56.2130   75.2105 H   0  0  0  0  0  0  0  0  0  0  0  0
   -1.3888   55.8736   73.5589 H   0  0  0  0  0  0  0  0  0  0  0  0
    0.6238   54.4284   75.0793 H   0  0  0  0  0  0  0  0  0  0  0  0
   -0.1688   53.9958   73.5264 H   0  0  0  0  0  0  0  0  0  0  0  0
    1.3107   55.0145   73.5264 H   0  0  0  0  0  0  0  0  0  0  0  0
  2  1  1  0
  3  2  2  0
  4  2  1  0
  5  4  1  0
  6  5  2  0
  7  6  1  0
  8  7  2  0
  9  8  1  0
 10  9  2  0
 10  5  1  0
 11 10  1  0
 12 11  1  0
 13 12  2  0
 13  4  1  0
 14 13  1  0
 15 14  2  0
 16 15  1  0
 17 16  2  0
 17 12  1  0
 18  1  1  0
 19 18  1  0
 20 19  1  0
 22 21  1  0
 22 20  1  0
 23 20  1  0
 24 23  1  0
  1 25  1  0
  6 26  1  0
  7 27  1  0
  8 28  1  0
  9 29  1  0
 14 30  1  0
 15 31  1  0
 16 32  1  0
 17 33  1  0
 18 34  1  0
 18 35  1  0
 19 36  1  0
 19 37  1  0
 20 38  1  0
 21 39  1  0
 21 40  1  0
 21 41  1  0
 22 42  1  0
 22 43  1  0
 23 44  1  0
 23 45  1  0
 24 46  1  0
 24 47  1  0
 24 48  1  0
M  CHG  1  20   1
M  END
>  <score>  (8) 
-7.465

$$$$
