=
     RDKit          3D

 16 17  0  0  0  0  0  0  0  0999 V2000
    1.7980   68.5870   65.6770 F   0  0  0  0  0  0  0  0  0  0  0  0
    3.0040   69.0820   65.9900 C   0  0  0  0  0  0  0  0  0  0  0  0
    4.0020   69.1180   64.9990 C   0  0  0  0  0  0  0  0  0  0  0  0
    5.2750   69.6270   65.2840 C   0  0  0  0  0  0  0  0  0  0  0  0
    5.4980   70.0840   66.5660 C   0  0  0  0  0  0  0  0  0  0  0  0
    4.4940   70.0410   67.5350 C   0  0  0  0  0  0  0  0  0  0  0  0
    3.2340   69.5450   67.2810 C   0  0  0  0  0  0  0  0  0  0  0  0
    5.0600   70.5970   68.7640 C   0  0  0  0  0  0  0  0  0  0  0  0
    4.5040   70.7300   69.8290 O   0  0  0  0  0  0  0  0  0  0  0  0
    6.5250   70.9760   68.4020 C   0  0  0  0  0  0  0  0  0  0  0  0
    7.3460   71.4700   69.1410 O   0  0  0  0  0  0  0  0  0  0  0  0
    6.6730   70.6270   67.0730 N   0  0  0  0  0  0  0  0  0  0  0  0
    3.7799   68.7422   63.9893 H   0  0  0  0  0  0  0  0  0  0  0  0
    6.0636   69.6609   64.5179 H   0  0  0  0  0  0  0  0  0  0  0  0
    2.4537   69.5168   68.0559 H   0  0  0  0  0  0  0  0  0  0  0  0
    7.5392   70.7526   66.5300 H   0  0  0  0  0  0  0  0  0  0  0  0
  2  1  1  0
  3  2  2  0
  4  3  1  0
  5  4  2  0
  6  5  1  0
  7  6  2  0
  7  2  1  0
  8  6  1  0
  9  8  2  0
 10  8  1  0
 11 10  2  0
 12  5  1  0
 12 10  1  0
  3 13  1  0
  4 14  1  0
  7 15  1  0
 12 16  1  0
M  END
>  <score>  (1) 
-7.78

$$$$
=
     RDKit          3D

 16 17  0  0  0  0  0  0  0  0999 V2000
    4.2290   70.8450   70.1040 F   0  0  0  0  0  0  0  0  0  0  0  0
    4.6860   70.5830   68.8720 C   0  0  0  0  0  0  0  0  0  0  0  0
    6.0390   70.8330   68.5800 C   0  0  0  0  0  0  0  0  0  0  0  0
    6.5570   70.5740   67.3060 C   0  0  0  0  0  0  0  0  0  0  0  0
    5.6860   70.0660   66.3630 C   0  0  0  0  0  0  0  0  0  0  0  0
    4.3460   69.8240   66.6720 C   0  0  0  0  0  0  0  0  0  0  0  0
    3.8120   70.0710   67.9180 C   0  0  0  0  0  0  0  0  0  0  0  0
    3.7170   69.2950   65.4620 C   0  0  0  0  0  0  0  0  0  0  0  0
    2.5620   68.9630   65.3260 O   0  0  0  0  0  0  0  0  0  0  0  0
    4.8500   69.2540   64.3980 C   0  0  0  0  0  0  0  0  0  0  0  0
    4.7510   68.8790   63.2510 O   0  0  0  0  0  0  0  0  0  0  0  0
    5.9730   69.7350   65.0440 N   0  0  0  0  0  0  0  0  0  0  0  0
    6.6980   71.2370   69.3626 H   0  0  0  0  0  0  0  0  0  0  0  0
    7.6131   70.7669   67.0662 H   0  0  0  0  0  0  0  0  0  0  0  0
    2.7539   69.8744   68.1458 H   0  0  0  0  0  0  0  0  0  0  0  0
    6.8999   69.8350   64.6060 H   0  0  0  0  0  0  0  0  0  0  0  0
  2  1  1  0
  3  2  2  0
  4  3  1  0
  5  4  2  0
  6  5  1  0
  7  6  2  0
  7  2  1  0
  8  6  1  0
  9  8  2  0
 10  8  1  0
 11 10  2  0
 12  5  1  0
 12 10  1  0
  3 13  1  0
  4 14  1  0
  7 15  1  0
 12 16  1  0
M  END
>  <score>  (2) 
-7.696

$$$$
=
     RDKit          3D

 16 17  0  0  0  0  0  0  0  0999 V2000
    7.4990   71.2350   68.8770 F   0  0  0  0  0  0  0  0  0  0  0  0
    6.3570   70.7870   68.3370 C   0  0  0  0  0  0  0  0  0  0  0  0
    5.2010   70.7380   69.1370 C   0  0  0  0  0  0  0  0  0  0  0  0
    3.9870   70.2770   68.6120 C   0  0  0  0  0  0  0  0  0  0  0  0
    3.9830   69.8800   67.2900 C   0  0  0  0  0  0  0  0  0  0  0  0
    5.1410   69.9370   66.5140 C   0  0  0  0  0  0  0  0  0  0  0  0
    6.3470   70.3870   67.0060 C   0  0  0  0  0  0  0  0  0  0  0  0
    4.7870   69.4500   65.1800 C   0  0  0  0  0  0  0  0  0  0  0  0
    5.5180   69.3460   64.2230 O   0  0  0  0  0  0  0  0  0  0  0  0
    3.2740   69.0960   65.2640 C   0  0  0  0  0  0  0  0  0  0  0  0
    2.5850   68.6560   64.3720 O   0  0  0  0  0  0  0  0  0  0  0  0
    2.9030   69.3910   66.5620 N   0  0  0  0  0  0  0  0  0  0  0  0
    5.2509   71.0652   70.1860 H   0  0  0  0  0  0  0  0  0  0  0  0
    3.0759   70.2332   69.2268 H   0  0  0  0  0  0  0  0  0  0  0  0
    7.2509   70.4274   66.3805 H   0  0  0  0  0  0  0  0  0  0  0  0
    1.9532   69.2655   66.9402 H   0  0  0  0  0  0  0  0  0  0  0  0
  2  1  1  0
  3  2  2  0
  4  3  1  0
  5  4  2  0
  6  5  1  0
  7  6  2  0
  7  2  1  0
  8  6  1  0
  9  8  2  0
 10  8  1  0
 11 10  2  0
 12  5  1  0
 12 10  1  0
  3 13  1  0
  4 14  1  0
  7 15  1  0
 12 16  1  0
M  END
>  <score>  (3) 
-7.621

$$$$
=
     RDKit          3D

 16 17  0  0  0  0  0  0  0  0999 V2000
    7.1220   70.5520   67.0530 F   0  0  0  0  0  0  0  0  0  0  0  0
    5.8550   70.3720   67.4480 C   0  0  0  0  0  0  0  0  0  0  0  0
    5.4800   70.7830   68.7400 C   0  0  0  0  0  0  0  0  0  0  0  0
    4.1660   70.6130   69.1920 C   0  0  0  0  0  0  0  0  0  0  0  0
    3.2700   70.0320   68.3190 C   0  0  0  0  0  0  0  0  0  0  0  0
    3.6610   69.6310   67.0410 C   0  0  0  0  0  0  0  0  0  0  0  0
    4.9470   69.7870   66.5720 C   0  0  0  0  0  0  0  0  0  0  0  0
    2.4800   69.0620   66.3900 C   0  0  0  0  0  0  0  0  0  0  0  0
    2.4120   68.6030   65.2740 O   0  0  0  0  0  0  0  0  0  0  0  0
    1.3410   69.1760   67.4430 C   0  0  0  0  0  0  0  0  0  0  0  0
    0.1930   68.8170   67.3060 O   0  0  0  0  0  0  0  0  0  0  0  0
    1.9240   69.7660   68.5480 N   0  0  0  0  0  0  0  0  0  0  0  0
    6.2277   71.2432   69.4027 H   0  0  0  0  0  0  0  0  0  0  0  0
    3.8611   70.9293   70.2004 H   0  0  0  0  0  0  0  0  0  0  0  0
    5.2393   69.4667   65.5611 H   0  0  0  0  0  0  0  0  0  0  0  0
    1.4279   69.9804   69.4248 H   0  0  0  0  0  0  0  0  0  0  0  0
  2  1  1  0
  3  2  2  0
  4  3  1  0
  5  4  2  0
  6  5  1  0
  7  6  2  0
  7  2  1  0
  8  6  1  0
  9  8  2  0
 10  8  1  0
 11 10  2  0
 12  5  1  0
 12 10  1  0
  3 13  1  0
  4 14  1  0
  7 15  1  0
 12 16  1  0
M  END
>  <score>  (4) 
-7.572

$$$$
=
     RDKit          3D

 16 17  0  0  0  0  0  0  0  0999 V2000
    5.8340   70.2420   67.8590 F   0  0  0  0  0  0  0  0  0  0  0  0
    4.9840   69.8500   66.9000 C   0  0  0  0  0  0  0  0  0  0  0  0
    3.6540   69.5580   67.2480 C   0  0  0  0  0  0  0  0  0  0  0  0
    2.7330   69.1450   66.2770 C   0  0  0  0  0  0  0  0  0  0  0  0
    3.1910   69.0410   64.9800 C   0  0  0  0  0  0  0  0  0  0  0  0
    4.5160   69.3370   64.6540 C   0  0  0  0  0  0  0  0  0  0  0  0
    5.4400   69.7450   65.5900 C   0  0  0  0  0  0  0  0  0  0  0  0
    4.6600   69.1260   63.2130 C   0  0  0  0  0  0  0  0  0  0  0  0
    5.6590   69.2760   62.5500 O   0  0  0  0  0  0  0  0  0  0  0  0
    3.2550   68.6690   62.7260 C   0  0  0  0  0  0  0  0  0  0  0  0
    2.9400   68.3880   61.5910 O   0  0  0  0  0  0  0  0  0  0  0  0
    2.4640   68.6540   63.8590 N   0  0  0  0  0  0  0  0  0  0  0  0
    3.3325   69.6550   68.2955 H   0  0  0  0  0  0  0  0  0  0  0  0
    1.6896   68.9136   66.5374 H   0  0  0  0  0  0  0  0  0  0  0  0
    6.4805   69.9750   65.3170 H   0  0  0  0  0  0  0  0  0  0  0  0
    1.4682   68.3911   63.8717 H   0  0  0  0  0  0  0  0  0  0  0  0
  2  1  1  0
  3  2  2  0
  4  3  1  0
  5  4  2  0
  6  5  1  0
  7  6  2  0
  7  2  1  0
  8  6  1  0
  9  8  2  0
 10  8  1  0
 11 10  2  0
 12  5  1  0
 12 10  1  0
  3 13  1  0
  4 14  1  0
  7 15  1  0
 12 16  1  0
M  END
>  <score>  (5) 
-7.433

$$$$
=
     RDKit          3D

 16 17  0  0  0  0  0  0  0  0999 V2000
    5.6690   68.8950   63.3150 F   0  0  0  0  0  0  0  0  0  0  0  0
    4.9730   69.1020   64.4410 C   0  0  0  0  0  0  0  0  0  0  0  0
    3.6270   68.6960   64.4920 C   0  0  0  0  0  0  0  0  0  0  0  0
    2.8630   68.8940   65.6490 C   0  0  0  0  0  0  0  0  0  0  0  0
    3.4880   69.4980   66.7200 C   0  0  0  0  0  0  0  0  0  0  0  0
    4.8250   69.8930   66.6500 C   0  0  0  0  0  0  0  0  0  0  0  0
    5.5980   69.7100   65.5240 C   0  0  0  0  0  0  0  0  0  0  0  0
    5.1640   70.4900   67.9420 C   0  0  0  0  0  0  0  0  0  0  0  0
    6.2300   70.9530   68.2740 O   0  0  0  0  0  0  0  0  0  0  0  0
    3.8620   70.3990   68.7870 C   0  0  0  0  0  0  0  0  0  0  0  0
    3.7110   70.7830   69.9250 O   0  0  0  0  0  0  0  0  0  0  0  0
    2.9340   69.7930   67.9610 N   0  0  0  0  0  0  0  0  0  0  0  0
    3.1695   68.2177   63.6134 H   0  0  0  0  0  0  0  0  0  0  0  0
    1.8097   68.5812   65.7013 H   0  0  0  0  0  0  0  0  0  0  0  0
    6.6505   70.0272   65.4842 H   0  0  0  0  0  0  0  0  0  0  0  0
    1.9610   69.5872   68.2291 H   0  0  0  0  0  0  0  0  0  0  0  0
  2  1  1  0
  3  2  2  0
  4  3  1  0
  5  4  2  0
  6  5  1  0
  7  6  2  0
  7  2  1  0
  8  6  1  0
  9  8  2  0
 10  8  1  0
 11 10  2  0
 12  5  1  0
 12 10  1  0
  3 13  1  0
  4 14  1  0
  7 15  1  0
 12 16  1  0
M  END
>  <score>  (6) 
-7.395

$$$$
=
     RDKit          3D

 16 17  0  0  0  0  0  0  0  0999 V2000
    6.1350   70.2290   67.3280 F   0  0  0  0  0  0  0  0  0  0  0  0
    5.0700   69.8140   66.6300 C   0  0  0  0  0  0  0  0  0  0  0  0
    5.2080   69.5850   65.2490 C   0  0  0  0  0  0  0  0  0  0  0  0
    4.1200   69.1510   64.4820 C   0  0  0  0  0  0  0  0  0  0  0  0
    2.9220   68.9600   65.1400 C   0  0  0  0  0  0  0  0  0  0  0  0
    2.8050   69.1920   66.5120 C   0  0  0  0  0  0  0  0  0  0  0  0
    3.8600   69.6190   67.2880 C   0  0  0  0  0  0  0  0  0  0  0  0
    1.4210   68.8950   66.8790 C   0  0  0  0  0  0  0  0  0  0  0  0
    0.9240   68.9750   67.9790 O   0  0  0  0  0  0  0  0  0  0  0  0
    0.7320   68.4590   65.5550 C   0  0  0  0  0  0  0  0  0  0  0  0
   -0.4240   68.1280   65.4170 O   0  0  0  0  0  0  0  0  0  0  0  0
    1.7180   68.5360   64.5900 N   0  0  0  0  0  0  0  0  0  0  0  0
    6.1825   69.7489   64.7658 H   0  0  0  0  0  0  0  0  0  0  0  0
    4.2160   68.9700   63.4012 H   0  0  0  0  0  0  0  0  0  0  0  0
    3.7516   69.7960   68.3682 H   0  0  0  0  0  0  0  0  0  0  0  0
    1.5791   68.3092   63.5949 H   0  0  0  0  0  0  0  0  0  0  0  0
  2  1  1  0
  3  2  2  0
  4  3  1  0
  5  4  2  0
  6  5  1  0
  7  6  2  0
  7  2  1  0
  8  6  1  0
  9  8  2  0
 10  8  1  0
 11 10  2  0
 12  5  1  0
 12 10  1  0
  3 13  1  0
  4 14  1  0
  7 15  1  0
 12 16  1  0
M  END
>  <score>  (7) 
-7.191

$$$$
=
     RDKit          3D

 16 17  0  0  0  0  0  0  0  0999 V2000
    5.6770   69.7450   66.1430 F   0  0  0  0  0  0  0  0  0  0  0  0
    4.4190   69.4340   65.8040 C   0  0  0  0  0  0  0  0  0  0  0  0
    3.4390   69.3730   66.8110 C   0  0  0  0  0  0  0  0  0  0  0  0
    2.1120   69.0520   66.5000 C   0  0  0  0  0  0  0  0  0  0  0  0
    1.8180   68.8020   65.1750 C   0  0  0  0  0  0  0  0  0  0  0  0
    2.8050   68.8690   64.1900 C   0  0  0  0  0  0  0  0  0  0  0  0
    4.1180   69.1820   64.4700 C   0  0  0  0  0  0  0  0  0  0  0  0
    2.1600   68.5530   62.9150 C   0  0  0  0  0  0  0  0  0  0  0  0
    2.6810   68.5070   61.8250 O   0  0  0  0  0  0  0  0  0  0  0  0
    0.6680   68.2920   63.2680 C   0  0  0  0  0  0  0  0  0  0  0  0
   -0.2160   67.9970   62.4950 O   0  0  0  0  0  0  0  0  0  0  0  0
    0.5810   68.4680   64.6360 N   0  0  0  0  0  0  0  0  0  0  0  0
    3.7182   69.5798   67.8547 H   0  0  0  0  0  0  0  0  0  0  0  0
    1.3368   69.0013   67.2788 H   0  0  0  0  0  0  0  0  0  0  0  0
    4.8845   69.2297   63.6825 H   0  0  0  0  0  0  0  0  0  0  0  0
   -0.2854   68.3653   65.1835 H   0  0  0  0  0  0  0  0  0  0  0  0
  2  1  1  0
  3  2  2  0
  4  3  1  0
  5  4  2  0
  6  5  1  0
  7  6  2  0
  7  2  1  0
  8  6  1  0
  9  8  2  0
 10  8  1  0
 11 10  2  0
 12  5  1  0
 12 10  1  0
  3 13  1  0
  4 14  1  0
  7 15  1  0
 12 16  1  0
M  END
>  <score>  (8) 
-7.131

$$$$
=
     RDKit          3D

 16 17  0  0  0  0  0  0  0  0999 V2000
    2.3420   69.5660   68.9340 F   0  0  0  0  0  0  0  0  0  0  0  0
    2.7770   69.4520   67.6720 C   0  0  0  0  0  0  0  0  0  0  0  0
    4.0970   69.8340   67.3700 C   0  0  0  0  0  0  0  0  0  0  0  0
    4.5900   69.7320   66.0640 C   0  0  0  0  0  0  0  0  0  0  0  0
    3.7300   69.2430   65.1020 C   0  0  0  0  0  0  0  0  0  0  0  0
    2.4250   68.8680   65.4220 C   0  0  0  0  0  0  0  0  0  0  0  0
    1.9150   68.9590   66.6990 C   0  0  0  0  0  0  0  0  0  0  0  0
    1.7980   68.4000   64.1850 C   0  0  0  0  0  0  0  0  0  0  0  0
    0.6690   67.9910   64.0480 O   0  0  0  0  0  0  0  0  0  0  0  0
    2.8950   68.5450   63.0920 C   0  0  0  0  0  0  0  0  0  0  0  0
    2.7880   68.2670   61.9190 O   0  0  0  0  0  0  0  0  0  0  0  0
    3.9990   69.0540   63.7510 N   0  0  0  0  0  0  0  0  0  0  0  0
    4.7487   70.2170   68.1691 H   0  0  0  0  0  0  0  0  0  0  0  0
    5.6194   70.0291   65.8150 H   0  0  0  0  0  0  0  0  0  0  0  0
    0.8836   68.6584   66.9352 H   0  0  0  0  0  0  0  0  0  0  0  0
    4.9010   69.2651   63.3008 H   0  0  0  0  0  0  0  0  0  0  0  0
  2  1  1  0
  3  2  2  0
  4  3  1  0
  5  4  2  0
  6  5  1  0
  7  6  2  0
  7  2  1  0
  8  6  1  0
  9  8  2  0
 10  8  1  0
 11 10  2  0
 12  5  1  0
 12 10  1  0
  3 13  1  0
  4 14  1  0
  7 15  1  0
 12 16  1  0
M  END
>  <score>  (9) 
-6.809

$$$$
