=
     RDKit          3D

 74 80  0  0  0  0  0  0  0  0999 V2000
    1.5010   57.0840   75.7360 C   0  0  1  0  0  0  0  0  0  0  0  0
    2.1300   57.4400   74.3910 C   0  0  1  0  0  0  0  0  0  0  0  0
    2.1660   56.4220   73.2900 C   0  0  0  0  0  0  0  0  0  0  0  0
    2.4070   55.2320   73.4100 O   0  0  0  0  0  0  0  0  0  0  0  0
    1.9730   57.0540   72.0880 O   0  0  0  0  0  0  0  0  0  0  0  0
    1.8910   58.4710   72.3130 C   0  0  0  0  0  0  0  0  0  0  0  0
    1.3780   58.5770   73.7260 C   0  0  2  0  0  0  0  0  0  0  0  0
    1.6040   59.8790   74.4860 C   0  0  1  0  0  0  0  0  0  0  0  0
    1.4110   59.6690   75.9870 C   0  0  0  0  0  0  0  0  0  0  0  0
    1.4080   58.3650   76.5830 C   0  0  0  0  0  0  0  0  0  0  0  0
    1.2720   58.2320   77.9810 C   0  0  0  0  0  0  0  0  0  0  0  0
    1.1430   59.3740   78.7390 C   0  0  0  0  0  0  0  0  0  0  0  0
    1.0000   59.4200   80.0890 O   0  0  0  0  0  0  0  0  0  0  0  0
    0.9220   60.8440   80.3060 C   0  0  0  0  0  0  0  0  0  0  0  0
    1.0000   61.6130   79.0880 O   0  0  0  0  0  0  0  0  0  0  0  0
    1.1420   60.6230   78.1680 C   0  0  0  0  0  0  0  0  0  0  0  0
    1.2740   60.8040   76.8080 C   0  0  0  0  0  0  0  0  0  0  0  0
   -2.2660   56.2470   75.5440 C   0  0  0  0  0  0  0  0  0  0  0  0
   -1.0770   56.9780   75.6070 C   0  0  0  0  0  0  0  0  0  0  0  0
    0.1700   56.3260   75.6520 C   0  0  0  0  0  0  0  0  0  0  0  0
    0.1920   54.9160   75.6230 C   0  0  0  0  0  0  0  0  0  0  0  0
   -0.9850   54.1690   75.5250 C   0  0  0  0  0  0  0  0  0  0  0  0
   -2.2060   54.8480   75.4990 C   0  0  0  0  0  0  0  0  0  0  0  0
   -3.6380   58.1920   75.5420 C   0  0  0  0  0  0  0  0  0  0  0  0
   -3.5330   56.7740   75.5100 O   0  0  0  0  0  0  0  0  0  0  0  0
   -3.3800   54.1370   75.4240 O   0  0  0  0  0  0  0  0  0  0  0  0
   -1.0340   52.8020   75.4800 O   0  0  0  0  0  0  0  0  0  0  0  0
   -0.5080   52.1890   74.3090 C   0  0  0  0  0  0  0  0  0  0  0  0
    2.9560   60.3050   74.3080 O   0  0  0  0  0  0  0  0  0  0  0  0
    3.0630   61.5900   73.6840 C   0  0  2  0  0  0  0  0  0  0  0  0
    1.7730   62.0370   73.2620 O   0  0  0  0  0  0  0  0  0  0  0  0
    1.8630   63.2900   72.5800 C   0  0  2  0  0  0  0  0  0  0  0  0
    0.4820   63.8640   72.2400 C   0  0  0  0  0  0  0  0  0  0  0  0
    0.2880   63.9750   70.8290 O   0  0  0  0  0  0  0  0  0  0  0  0
    1.3290   64.6950   70.1600 C   0  0  2  0  0  0  0  0  0  0  0  0
    2.6450   64.4240   70.6540 O   0  0  0  0  0  0  0  0  0  0  0  0
    2.6730   63.1480   71.2920 C   0  0  1  0  0  0  0  0  0  0  0  0
    4.0910   62.7030   71.6500 C   0  0  1  0  0  0  0  0  0  0  0  0
    4.0270   61.4240   72.4920 C   0  0  1  0  0  0  0  0  0  0  0  0
    1.0790   66.1930   70.2270 C   0  0  0  0  0  0  0  0  0  0  0  0
    5.3520   61.0980   72.9440 O   0  0  0  0  0  0  0  0  0  0  0  0
    4.8500   62.4350   70.4610 O   0  0  0  0  0  0  0  0  0  0  0  0
    2.1604   56.3538   76.2279 H   0  0  0  0  0  0  0  0  0  0  0  0
    3.1591   57.6289   74.7306 H   0  0  0  0  0  0  0  0  0  0  0  0
    2.8808   58.9415   72.2183 H   0  0  0  0  0  0  0  0  0  0  0  0
    1.2448   58.9825   71.5845 H   0  0  0  0  0  0  0  0  0  0  0  0
    0.2787   58.5389   73.7267 H   0  0  0  0  0  0  0  0  0  0  0  0
    0.8866   60.6194   74.1023 H   0  0  0  0  0  0  0  0  0  0  0  0
    1.2691   57.2390   78.4543 H   0  0  0  0  0  0  0  0  0  0  0  0
   -0.0343   61.0697   80.8005 H   0  0  0  0  0  0  0  0  0  0  0  0
    1.7863   61.1265   80.9250 H   0  0  0  0  0  0  0  0  0  0  0  0
    1.2723   61.8145   76.3733 H   0  0  0  0  0  0  0  0  0  0  0  0
   -1.1157   58.0772   75.6216 H   0  0  0  0  0  0  0  0  0  0  0  0
    1.1578   54.3924   75.6788 H   0  0  0  0  0  0  0  0  0  0  0  0
   -3.6633   58.5343   76.5871 H   0  0  0  0  0  0  0  0  0  0  0  0
   -2.7702   58.6355   75.0318 H   0  0  0  0  0  0  0  0  0  0  0  0
   -4.5616   58.5029   75.0318 H   0  0  0  0  0  0  0  0  0  0  0  0
   -4.2473   54.6140   75.4053 H   0  0  0  0  0  0  0  0  0  0  0  0
    0.1835   51.3831   74.5960 H   0  0  0  0  0  0  0  0  0  0  0  0
   -1.3320   51.7701   73.7127 H   0  0  0  0  0  0  0  0  0  0  0  0
    0.0312   52.9398   73.7127 H   0  0  0  0  0  0  0  0  0  0  0  0
    3.4499   62.3499   74.3789 H   0  0  0  0  0  0  0  0  0  0  0  0
    2.3691   63.9852   73.2660 H   0  0  0  0  0  0  0  0  0  0  0  0
   -0.2915   63.2010   72.6550 H   0  0  0  0  0  0  0  0  0  0  0  0
    0.4131   64.8717   72.6756 H   0  0  0  0  0  0  0  0  0  0  0  0
    1.2954   64.3389   69.1198 H   0  0  0  0  0  0  0  0  0  0  0  0
    2.2622   62.3914   70.6073 H   0  0  0  0  0  0  0  0  0  0  0  0
    4.5782   63.5100   72.2169 H   0  0  0  0  0  0  0  0  0  0  0  0
    3.6381   60.6017   71.8735 H   0  0  0  0  0  0  0  0  0  0  0  0
    1.0262   66.5092   71.2792 H   0  0  0  0  0  0  0  0  0  0  0  0
    1.9008   66.7247   69.7251 H   0  0  0  0  0  0  0  0  0  0  0  0
    0.1290   66.4290   69.7251 H   0  0  0  0  0  0  0  0  0  0  0  0
    5.3712   61.0933   73.9338 H   0  0  0  0  0  0  0  0  0  0  0  0
    5.7533   62.1161   70.7110 H   0  0  0  0  0  0  0  0  0  0  0  0
  2  1  1  0
  3  2  1  0
  4  3  2  0
  5  3  1  0
  6  5  1  0
  7  6  1  0
  7  2  1  0
  8  7  1  0
  9  8  1  0
 10  9  2  0
 10  1  1  0
 11 10  1  0
 12 11  2  0
 13 12  1  0
 14 13  1  0
 15 14  1  0
 16 12  1  0
 16 15  1  0
 17  9  1  0
 17 16  2  0
 19 18  2  0
 20 19  1  0
 20  1  1  0
 21 20  2  0
 22 21  1  0
 23 22  2  0
 23 18  1  0
 25 24  1  0
 25 18  1  0
 26 23  1  0
 27 22  1  0
 28 27  1  0
 29  8  1  0
 30 29  1  0
 31 30  1  0
 32 31  1  0
 33 32  1  0
 34 33  1  0
 35 34  1  0
 36 35  1  0
 37 36  1  0
 37 32  1  0
 38 37  1  0
 39 38  1  0
 39 30  1  0
 40 35  1  0
 41 39  1  0
 42 38  1  0
  1 43  1  1
  2 44  1  1
  6 45  1  0
  6 46  1  0
  7 47  1  6
  8 48  1  6
 11 49  1  0
 14 50  1  0
 14 51  1  0
 17 52  1  0
 19 53  1  0
 21 54  1  0
 24 55  1  0
 24 56  1  0
 24 57  1  0
 26 58  1  0
 28 59  1  0
 28 60  1  0
 28 61  1  0
 30 62  1  1
 32 63  1  1
 33 64  1  0
 33 65  1  0
 35 66  1  6
 37 67  1  6
 38 68  1  1
 39 69  1  6
 40 70  1  0
 40 71  1  0
 40 72  1  0
 41 73  1  0
 42 74  1  0
M  END
>  <score>  (1) 
-7.758

$$$$
=
     RDKit          3D

 74 80  0  0  0  0  0  0  0  0999 V2000
    1.5990   56.9740   75.7230 C   0  0  1  0  0  0  0  0  0  0  0  0
    2.2130   57.3420   74.3730 C   0  0  1  0  0  0  0  0  0  0  0  0
    2.2650   56.3230   73.2740 C   0  0  0  0  0  0  0  0  0  0  0  0
    2.5330   55.1400   73.3940 O   0  0  0  0  0  0  0  0  0  0  0  0
    2.0500   56.9490   72.0720 O   0  0  0  0  0  0  0  0  0  0  0  0
    1.9380   58.3640   72.2950 C   0  0  0  0  0  0  0  0  0  0  0  0
    1.4300   58.4610   73.7120 C   0  0  2  0  0  0  0  0  0  0  0  0
    1.6330   59.7690   74.4690 C   0  0  1  0  0  0  0  0  0  0  0  0
    1.4540   59.5570   75.9710 C   0  0  0  0  0  0  0  0  0  0  0  0
    1.4830   58.2550   76.5690 C   0  0  0  0  0  0  0  0  0  0  0  0
    1.3590   58.1210   77.9670 C   0  0  0  0  0  0  0  0  0  0  0  0
    1.2090   59.2610   78.7240 C   0  0  0  0  0  0  0  0  0  0  0  0
    1.0730   59.3060   80.0760 O   0  0  0  0  0  0  0  0  0  0  0  0
    0.9640   60.7280   80.2910 C   0  0  0  0  0  0  0  0  0  0  0  0
    1.0180   61.4970   79.0710 O   0  0  0  0  0  0  0  0  0  0  0  0
    1.1760   60.5080   78.1520 C   0  0  0  0  0  0  0  0  0  0  0  0
    1.2950   60.6900   76.7910 C   0  0  0  0  0  0  0  0  0  0  0  0
   -0.9760   54.1010   75.5470 C   0  0  0  0  0  0  0  0  0  0  0  0
    0.2420   54.7780   75.6290 C   0  0  0  0  0  0  0  0  0  0  0  0
    0.2860   56.1860   75.6480 C   0  0  0  0  0  0  0  0  0  0  0  0
   -0.9300   56.8960   75.5910 C   0  0  0  0  0  0  0  0  0  0  0  0
   -2.1610   56.2340   75.5430 C   0  0  0  0  0  0  0  0  0  0  0  0
   -2.1660   54.8380   75.5080 C   0  0  0  0  0  0  0  0  0  0  0  0
   -0.7550   52.0830   74.3030 C   0  0  0  0  0  0  0  0  0  0  0  0
   -1.1370   52.7380   75.5060 O   0  0  0  0  0  0  0  0  0  0  0  0
   -3.3620   54.1630   75.4400 O   0  0  0  0  0  0  0  0  0  0  0  0
   -3.3770   56.8610   75.4980 O   0  0  0  0  0  0  0  0  0  0  0  0
   -3.3580   58.2820   75.5640 C   0  0  0  0  0  0  0  0  0  0  0  0
    2.9730   60.2250   74.2810 O   0  0  0  0  0  0  0  0  0  0  0  0
    3.0470   61.5180   73.6700 C   0  0  2  0  0  0  0  0  0  0  0  0
    1.7440   61.9400   73.2620 O   0  0  0  0  0  0  0  0  0  0  0  0
    1.8020   63.2030   72.5920 C   0  0  2  0  0  0  0  0  0  0  0  0
    0.4060   63.7490   72.2680 C   0  0  0  0  0  0  0  0  0  0  0  0
    0.1990   63.8700   70.8600 O   0  0  0  0  0  0  0  0  0  0  0  0
    1.2190   64.6210   70.1910 C   0  0  2  0  0  0  0  0  0  0  0  0
    2.5450   64.3740   70.6740 O   0  0  0  0  0  0  0  0  0  0  0  0
    2.6050   63.0920   71.2980 C   0  0  1  0  0  0  0  0  0  0  0  0
    4.0360   62.6760   71.6410 C   0  0  1  0  0  0  0  0  0  0  0  0
    4.0060   61.3870   72.4700 C   0  0  1  0  0  0  0  0  0  0  0  0
    0.9370   66.1120   70.2760 C   0  0  0  0  0  0  0  0  0  0  0  0
    5.3410   61.0850   72.9090 O   0  0  0  0  0  0  0  0  0  0  0  0
    4.7920   62.4370   70.4450 O   0  0  0  0  0  0  0  0  0  0  0  0
    2.2767   56.2592   76.2127 H   0  0  0  0  0  0  0  0  0  0  0  0
    3.2401   57.5546   74.7045 H   0  0  0  0  0  0  0  0  0  0  0  0
    2.9166   58.8561   72.1941 H   0  0  0  0  0  0  0  0  0  0  0  0
    1.2768   58.8599   71.5692 H   0  0  0  0  0  0  0  0  0  0  0  0
    0.3318   58.3986   73.7201 H   0  0  0  0  0  0  0  0  0  0  0  0
    0.8972   60.4931   74.0892 H   0  0  0  0  0  0  0  0  0  0  0  0
    1.3816   57.1289   78.4417 H   0  0  0  0  0  0  0  0  0  0  0  0
    0.0055   60.9329   80.7904 H   0  0  0  0  0  0  0  0  0  0  0  0
    1.8251   61.0310   80.9047 H   0  0  0  0  0  0  0  0  0  0  0  0
    1.2663   61.6994   76.3548 H   0  0  0  0  0  0  0  0  0  0  0  0
    1.1795   54.2048   75.6794 H   0  0  0  0  0  0  0  0  0  0  0  0
   -0.9105   57.9958   75.5841 H   0  0  0  0  0  0  0  0  0  0  0  0
   -0.2145   51.1562   74.5458 H   0  0  0  0  0  0  0  0  0  0  0  0
   -1.6533   51.8406   73.7163 H   0  0  0  0  0  0  0  0  0  0  0  0
   -0.1017   52.7455   73.7163 H   0  0  0  0  0  0  0  0  0  0  0  0
   -3.3711   53.1734   75.4149 H   0  0  0  0  0  0  0  0  0  0  0  0
   -3.3537   58.6001   76.6170 H   0  0  0  0  0  0  0  0  0  0  0  0
   -2.4547   58.6603   75.0630 H   0  0  0  0  0  0  0  0  0  0  0  0
   -4.2508   58.6843   75.0630 H   0  0  0  0  0  0  0  0  0  0  0  0
    3.4221   62.2790   74.3701 H   0  0  0  0  0  0  0  0  0  0  0  0
    2.2979   63.9024   73.2811 H   0  0  0  0  0  0  0  0  0  0  0  0
   -0.3492   63.0645   72.6817 H   0  0  0  0  0  0  0  0  0  0  0  0
    0.3177   64.7504   72.7145 H   0  0  0  0  0  0  0  0  0  0  0  0
    1.1851   64.2759   69.1471 H   0  0  0  0  0  0  0  0  0  0  0  0
    2.2056   62.3331   70.6091 H   0  0  0  0  0  0  0  0  0  0  0  0
    4.5093   63.4883   72.2120 H   0  0  0  0  0  0  0  0  0  0  0  0
    3.6305   60.5633   71.8452 H   0  0  0  0  0  0  0  0  0  0  0  0
    0.8797   66.4147   71.3320 H   0  0  0  0  0  0  0  0  0  0  0  0
    1.7461   66.6671   69.7788 H   0  0  0  0  0  0  0  0  0  0  0  0
   -0.0189   66.3333   69.7788 H   0  0  0  0  0  0  0  0  0  0  0  0
    5.3694   61.0786   73.8986 H   0  0  0  0  0  0  0  0  0  0  0  0
    5.7076   62.1475   70.6857 H   0  0  0  0  0  0  0  0  0  0  0  0
  2  1  1  0
  3  2  1  0
  4  3  2  0
  5  3  1  0
  6  5  1  0
  7  6  1  0
  7  2  1  0
  8  7  1  0
  9  8  1  0
 10  9  2  0
 10  1  1  0
 11 10  1  0
 12 11  2  0
 13 12  1  0
 14 13  1  0
 15 14  1  0
 16 12  1  0
 16 15  1  0
 17  9  1  0
 17 16  2  0
 19 18  2  0
 20 19  1  0
 20  1  1  0
 21 20  2  0
 22 21  1  0
 23 22  2  0
 23 18  1  0
 25 24  1  0
 25 18  1  0
 26 23  1  0
 27 22  1  0
 28 27  1  0
 29  8  1  0
 30 29  1  0
 31 30  1  0
 32 31  1  0
 33 32  1  0
 34 33  1  0
 35 34  1  0
 36 35  1  0
 37 36  1  0
 37 32  1  0
 38 37  1  0
 39 38  1  0
 39 30  1  0
 40 35  1  0
 41 39  1  0
 42 38  1  0
  1 43  1  1
  2 44  1  1
  6 45  1  0
  6 46  1  0
  7 47  1  6
  8 48  1  6
 11 49  1  0
 14 50  1  0
 14 51  1  0
 17 52  1  0
 19 53  1  0
 21 54  1  0
 24 55  1  0
 24 56  1  0
 24 57  1  0
 26 58  1  0
 28 59  1  0
 28 60  1  0
 28 61  1  0
 30 62  1  1
 32 63  1  1
 33 64  1  0
 33 65  1  0
 35 66  1  6
 37 67  1  6
 38 68  1  1
 39 69  1  6
 40 70  1  0
 40 71  1  0
 40 72  1  0
 41 73  1  0
 42 74  1  0
M  END
>  <score>  (2) 
-7.749

$$$$
=
     RDKit          3D

 74 80  0  0  0  0  0  0  0  0999 V2000
    1.7820   59.9290   74.4520 C   0  0  1  0  0  0  0  0  0  0  0  0
    0.5540   60.8380   74.4740 C   0  0  1  0  0  0  0  0  0  0  0  0
    0.6890   62.2840   74.1000 C   0  0  0  0  0  0  0  0  0  0  0  0
    1.6010   63.0310   74.4100 O   0  0  0  0  0  0  0  0  0  0  0  0
   -0.4350   62.6760   73.4170 O   0  0  0  0  0  0  0  0  0  0  0  0
   -1.3670   61.5840   73.3850 C   0  0  0  0  0  0  0  0  0  0  0  0
   -0.4880   60.3630   73.4790 C   0  0  2  0  0  0  0  0  0  0  0  0
   -1.1100   59.0530   73.9480 C   0  0  1  0  0  0  0  0  0  0  0  0
   -0.0280   58.0650   74.3820 C   0  0  0  0  0  0  0  0  0  0  0  0
    1.3150   58.4780   74.6630 C   0  0  0  0  0  0  0  0  0  0  0  0
    2.2630   57.5310   75.1060 C   0  0  0  0  0  0  0  0  0  0  0  0
    1.8610   56.2220   75.2530 C   0  0  0  0  0  0  0  0  0  0  0  0
    2.6460   55.1920   75.6640 O   0  0  0  0  0  0  0  0  0  0  0  0
    1.7040   54.1010   75.6300 C   0  0  0  0  0  0  0  0  0  0  0  0
    0.3880   54.4950   75.1860 O   0  0  0  0  0  0  0  0  0  0  0  0
    0.5760   55.8260   74.9800 C   0  0  0  0  0  0  0  0  0  0  0  0
   -0.3850   56.7140   74.5470 C   0  0  0  0  0  0  0  0  0  0  0  0
    4.2360   61.3750   71.8420 C   0  0  0  0  0  0  0  0  0  0  0  0
    3.4300   61.2640   72.9780 C   0  0  0  0  0  0  0  0  0  0  0  0
    2.6900   60.0920   73.2270 C   0  0  0  0  0  0  0  0  0  0  0  0
    2.7880   59.0290   72.3070 C   0  0  0  0  0  0  0  0  0  0  0  0
    3.6150   59.1090   71.1830 C   0  0  0  0  0  0  0  0  0  0  0  0
    4.3220   60.2930   70.9580 C   0  0  0  0  0  0  0  0  0  0  0  0
    4.3730   63.4170   70.6270 C   0  0  0  0  0  0  0  0  0  0  0  0
    4.9860   62.4700   71.4930 O   0  0  0  0  0  0  0  0  0  0  0  0
    5.1270   60.4060   69.8500 O   0  0  0  0  0  0  0  0  0  0  0  0
    3.7650   58.1110   70.2570 O   0  0  0  0  0  0  0  0  0  0  0  0
    3.3810   56.8050   70.6690 C   0  0  0  0  0  0  0  0  0  0  0  0
   -1.9220   59.2960   75.0980 O   0  0  0  0  0  0  0  0  0  0  0  0
   -3.3250   59.2300   74.8200 C   0  0  2  0  0  0  0  0  0  0  0  0
   -3.9320   60.5000   75.0670 O   0  0  0  0  0  0  0  0  0  0  0  0
   -5.3450   60.4420   74.8560 C   0  0  2  0  0  0  0  0  0  0  0  0
   -6.0040   61.8220   74.9750 C   0  0  0  0  0  0  0  0  0  0  0  0
   -6.9350   61.8720   76.0580 O   0  0  0  0  0  0  0  0  0  0  0  0
   -7.9160   60.8280   76.0220 C   0  0  2  0  0  0  0  0  0  0  0  0
   -7.4060   59.5550   75.6100 O   0  0  0  0  0  0  0  0  0  0  0  0
   -6.0020   59.4900   75.8530 C   0  0  1  0  0  0  0  0  0  0  0  0
   -5.4360   58.0850   75.6380 C   0  0  1  0  0  0  0  0  0  0  0  0
   -3.9070   58.1330   75.7340 C   0  0  1  0  0  0  0  0  0  0  0  0
   -9.0770   61.2080   75.1170 C   0  0  0  0  0  0  0  0  0  0  0  0
   -3.3790   56.8420   75.3870 O   0  0  0  0  0  0  0  0  0  0  0  0
   -5.9320   57.1830   76.6380 O   0  0  0  0  0  0  0  0  0  0  0  0
    2.4394   60.2375   75.2782 H   0  0  0  0  0  0  0  0  0  0  0  0
    0.3131   60.7725   75.5453 H   0  0  0  0  0  0  0  0  0  0  0  0
   -2.0606   61.6349   74.2373 H   0  0  0  0  0  0  0  0  0  0  0  0
   -1.9978   61.5875   72.4839 H   0  0  0  0  0  0  0  0  0  0  0  0
   -0.1488   60.0693   72.4747 H   0  0  0  0  0  0  0  0  0  0  0  0
   -1.6960   58.6432   73.1122 H   0  0  0  0  0  0  0  0  0  0  0  0
    3.2976   57.8311   75.3284 H   0  0  0  0  0  0  0  0  0  0  0  0
    2.0872   53.3304   74.9449 H   0  0  0  0  0  0  0  0  0  0  0  0
    1.6016   53.7274   76.6595 H   0  0  0  0  0  0  0  0  0  0  0  0
   -1.4093   56.3738   74.3349 H   0  0  0  0  0  0  0  0  0  0  0  0
    3.3728   62.1030   73.6871 H   0  0  0  0  0  0  0  0  0  0  0  0
    2.2000   58.1151   72.4774 H   0  0  0  0  0  0  0  0  0  0  0  0
    3.8718   64.1913   71.2264 H   0  0  0  0  0  0  0  0  0  0  0  0
    5.1405   63.8841   69.9924 H   0  0  0  0  0  0  0  0  0  0  0  0
    3.6326   62.9080   69.9924 H   0  0  0  0  0  0  0  0  0  0  0  0
    5.6297   61.2431   69.6867 H   0  0  0  0  0  0  0  0  0  0  0  0
    3.3667   56.7565   71.7678 H   0  0  0  0  0  0  0  0  0  0  0  0
    2.3780   56.5775   70.2789 H   0  0  0  0  0  0  0  0  0  0  0  0
    4.1013   56.0708   70.2789 H   0  0  0  0  0  0  0  0  0  0  0  0
   -3.5202   58.9847   73.7656 H   0  0  0  0  0  0  0  0  0  0  0  0
   -5.4949   60.0721   73.8309 H   0  0  0  0  0  0  0  0  0  0  0  0
   -5.2219   62.5772   75.1422 H   0  0  0  0  0  0  0  0  0  0  0  0
   -6.5521   62.0216   74.0424 H   0  0  0  0  0  0  0  0  0  0  0  0
   -8.2524   60.7194   77.0636 H   0  0  0  0  0  0  0  0  0  0  0  0
   -5.8019   59.7610   76.9002 H   0  0  0  0  0  0  0  0  0  0  0  0
   -5.7473   57.7304   74.6444 H   0  0  0  0  0  0  0  0  0  0  0  0
   -3.6165   58.3837   76.7649 H   0  0  0  0  0  0  0  0  0  0  0  0
   -9.9437   61.4917   75.7321 H   0  0  0  0  0  0  0  0  0  0  0  0
   -8.7843   62.0572   74.4821 H   0  0  0  0  0  0  0  0  0  0  0  0
   -9.3430   60.3500   74.4821 H   0  0  0  0  0  0  0  0  0  0  0  0
   -3.1725   56.3370   76.2131 H   0  0  0  0  0  0  0  0  0  0  0  0
   -5.7327   57.5455   77.5374 H   0  0  0  0  0  0  0  0  0  0  0  0
  2  1  1  0
  3  2  1  0
  4  3  2  0
  5  3  1  0
  6  5  1  0
  7  6  1  0
  7  2  1  0
  8  7  1  0
  9  8  1  0
 10  9  2  0
 10  1  1  0
 11 10  1  0
 12 11  2  0
 13 12  1  0
 14 13  1  0
 15 14  1  0
 16 12  1  0
 16 15  1  0
 17  9  1  0
 17 16  2  0
 19 18  2  0
 20 19  1  0
 20  1  1  0
 21 20  2  0
 22 21  1  0
 23 22  2  0
 23 18  1  0
 25 24  1  0
 25 18  1  0
 26 23  1  0
 27 22  1  0
 28 27  1  0
 29  8  1  0
 30 29  1  0
 31 30  1  0
 32 31  1  0
 33 32  1  0
 34 33  1  0
 35 34  1  0
 36 35  1  0
 37 36  1  0
 37 32  1  0
 38 37  1  0
 39 38  1  0
 39 30  1  0
 40 35  1  0
 41 39  1  0
 42 38  1  0
  1 43  1  1
  2 44  1  1
  6 45  1  0
  6 46  1  0
  7 47  1  6
  8 48  1  6
 11 49  1  0
 14 50  1  0
 14 51  1  0
 17 52  1  0
 19 53  1  0
 21 54  1  0
 24 55  1  0
 24 56  1  0
 24 57  1  0
 26 58  1  0
 28 59  1  0
 28 60  1  0
 28 61  1  0
 30 62  1  6
 32 63  1  6
 33 64  1  0
 33 65  1  0
 35 66  1  1
 37 67  1  1
 38 68  1  6
 39 69  1  1
 40 70  1  0
 40 71  1  0
 40 72  1  0
 41 73  1  0
 42 74  1  0
M  END
>  <score>  (3) 
-7.706

$$$$
=
     RDKit          3D

 74 80  0  0  0  0  0  0  0  0999 V2000
   -2.5050   57.3700   75.4180 C   0  0  1  0  0  0  0  0  0  0  0  0
   -2.1340   58.6560   74.6800 C   0  0  1  0  0  0  0  0  0  0  0  0
   -3.0120   59.8660   74.8020 C   0  0  0  0  0  0  0  0  0  0  0  0
   -4.2310   59.8810   74.8020 O   0  0  0  0  0  0  0  0  0  0  0  0
   -2.2250   60.9900   74.8230 O   0  0  0  0  0  0  0  0  0  0  0  0
   -0.8540   60.6040   74.6350 C   0  0  0  0  0  0  0  0  0  0  0  0
   -0.8040   59.1960   75.1710 C   0  0  2  0  0  0  0  0  0  0  0  0
    0.3350   58.2870   74.7240 C   0  0  1  0  0  0  0  0  0  0  0  0
    0.0030   56.8240   75.0110 C   0  0  0  0  0  0  0  0  0  0  0  0
   -1.3320   56.3820   75.2910 C   0  0  0  0  0  0  0  0  0  0  0  0
   -1.5880   55.0120   75.5030 C   0  0  0  0  0  0  0  0  0  0  0  0
   -0.5340   54.1290   75.4350 C   0  0  0  0  0  0  0  0  0  0  0  0
   -0.6100   52.7850   75.6170 O   0  0  0  0  0  0  0  0  0  0  0  0
    0.7680   52.4060   75.4250 C   0  0  0  0  0  0  0  0  0  0  0  0
    1.6360   53.5260   75.1510 O   0  0  0  0  0  0  0  0  0  0  0  0
    0.7450   54.5520   75.1710 C   0  0  0  0  0  0  0  0  0  0  0  0
    1.0460   55.8790   74.9550 C   0  0  0  0  0  0  0  0  0  0  0  0
   -2.5600   58.0800   79.2150 C   0  0  0  0  0  0  0  0  0  0  0  0
   -2.0950   57.9290   77.9060 C   0  0  0  0  0  0  0  0  0  0  0  0
   -2.9710   57.5620   76.8660 C   0  0  0  0  0  0  0  0  0  0  0  0
   -4.3310   57.3580   77.1750 C   0  0  0  0  0  0  0  0  0  0  0  0
   -4.8200   57.5390   78.4720 C   0  0  0  0  0  0  0  0  0  0  0  0
   -3.9210   57.8870   79.4820 C   0  0  0  0  0  0  0  0  0  0  0  0
   -0.6960   59.2880   80.0710 C   0  0  0  0  0  0  0  0  0  0  0  0
   -1.7980   58.4190   80.3050 O   0  0  0  0  0  0  0  0  0  0  0  0
   -4.3720   58.0500   80.7700 O   0  0  0  0  0  0  0  0  0  0  0  0
   -6.1290   57.3690   78.8370 O   0  0  0  0  0  0  0  0  0  0  0  0
   -7.1070   57.7620   77.8820 C   0  0  0  0  0  0  0  0  0  0  0  0
    0.5020   58.3950   73.3090 O   0  0  0  0  0  0  0  0  0  0  0  0
    1.7260   59.0370   72.9350 C   0  0  2  0  0  0  0  0  0  0  0  0
    1.4720   60.3960   72.5700 O   0  0  0  0  0  0  0  0  0  0  0  0
    2.6710   61.0400   72.1320 C   0  0  2  0  0  0  0  0  0  0  0  0
    2.4590   62.5360   71.8680 C   0  0  0  0  0  0  0  0  0  0  0  0
    2.6840   62.8690   70.4980 O   0  0  0  0  0  0  0  0  0  0  0  0
    3.9520   62.4280   69.9980 C   0  0  2  0  0  0  0  0  0  0  0  0
    4.3520   61.1350   70.4680 O   0  0  0  0  0  0  0  0  0  0  0  0
    3.2060   60.3830   70.8610 C   0  0  1  0  0  0  0  0  0  0  0  0
    3.5410   58.9230   71.1670 C   0  0  1  0  0  0  0  0  0  0  0  0
    2.3080   58.2300   71.7580 C   0  0  1  0  0  0  0  0  0  0  0  0
    5.0430   63.4310   70.3330 C   0  0  0  0  0  0  0  0  0  0  0  0
    2.6750   56.9040   72.1750 O   0  0  0  0  0  0  0  0  0  0  0  0
    3.9270   58.2330   69.9690 O   0  0  0  0  0  0  0  0  0  0  0  0
   -3.4011   56.9551   74.9335 H   0  0  0  0  0  0  0  0  0  0  0  0
   -2.1905   58.2822   73.6470 H   0  0  0  0  0  0  0  0  0  0  0  0
   -0.5820   60.6282   73.5694 H   0  0  0  0  0  0  0  0  0  0  0  0
   -0.1474   61.2786   75.1407 H   0  0  0  0  0  0  0  0  0  0  0  0
   -0.6226   59.2163   76.2558 H   0  0  0  0  0  0  0  0  0  0  0  0
    1.2409   58.5925   75.2680 H   0  0  0  0  0  0  0  0  0  0  0  0
   -2.6066   54.6567   75.7178 H   0  0  0  0  0  0  0  0  0  0  0  0
    1.1225   51.9048   76.3378 H   0  0  0  0  0  0  0  0  0  0  0  0
    0.8042   51.7439   74.5474 H   0  0  0  0  0  0  0  0  0  0  0  0
    2.0786   56.1937   74.7434 H   0  0  0  0  0  0  0  0  0  0  0  0
   -1.0309   58.0990   77.6849 H   0  0  0  0  0  0  0  0  0  0  0  0
   -5.0231   57.0494   76.3776 H   0  0  0  0  0  0  0  0  0  0  0  0
   -0.2781   59.6176   81.0337 H   0  0  0  0  0  0  0  0  0  0  0  0
    0.0772   58.7539   79.4992 H   0  0  0  0  0  0  0  0  0  0  0  0
   -1.0351   60.1644   79.4992 H   0  0  0  0  0  0  0  0  0  0  0  0
   -3.7378   58.2967   81.4890 H   0  0  0  0  0  0  0  0  0  0  0  0
   -8.0053   58.1230   78.4043 H   0  0  0  0  0  0  0  0  0  0  0  0
   -6.7012   58.5669   77.2515 H   0  0  0  0  0  0  0  0  0  0  0  0
   -7.3709   56.9001   77.2515 H   0  0  0  0  0  0  0  0  0  0  0  0
    2.4451   59.0607   73.7671 H   0  0  0  0  0  0  0  0  0  0  0  0
    3.4022   60.9294   72.9463 H   0  0  0  0  0  0  0  0  0  0  0  0
    1.4252   62.8017   72.1340 H   0  0  0  0  0  0  0  0  0  0  0  0
    3.1809   63.0971   72.4796 H   0  0  0  0  0  0  0  0  0  0  0  0
    3.8160   62.3485   68.9093 H   0  0  0  0  0  0  0  0  0  0  0  0
    2.4752   60.3802   70.0389 H   0  0  0  0  0  0  0  0  0  0  0  0
    4.3746   58.8985   71.8843 H   0  0  0  0  0  0  0  0  0  0  0  0
    1.5235   58.1686   70.9894 H   0  0  0  0  0  0  0  0  0  0  0  0
    5.1379   63.5183   71.4254 H   0  0  0  0  0  0  0  0  0  0  0  0
    5.9983   63.0892   69.9081 H   0  0  0  0  0  0  0  0  0  0  0  0
    4.7826   64.4116   69.9081 H   0  0  0  0  0  0  0  0  0  0  0  0
    2.6870   56.8606   73.1640 H   0  0  0  0  0  0  0  0  0  0  0  0
    4.3961   57.3945   70.2077 H   0  0  0  0  0  0  0  0  0  0  0  0
  2  1  1  0
  3  2  1  0
  4  3  2  0
  5  3  1  0
  6  5  1  0
  7  6  1  0
  7  2  1  0
  8  7  1  0
  9  8  1  0
 10  9  2  0
 10  1  1  0
 11 10  1  0
 12 11  2  0
 13 12  1  0
 14 13  1  0
 15 14  1  0
 16 12  1  0
 16 15  1  0
 17  9  1  0
 17 16  2  0
 19 18  2  0
 20 19  1  0
 20  1  1  0
 21 20  2  0
 22 21  1  0
 23 22  2  0
 23 18  1  0
 25 24  1  0
 25 18  1  0
 26 23  1  0
 27 22  1  0
 28 27  1  0
 29  8  1  0
 30 29  1  0
 31 30  1  0
 32 31  1  0
 33 32  1  0
 34 33  1  0
 35 34  1  0
 36 35  1  0
 37 36  1  0
 37 32  1  0
 38 37  1  0
 39 38  1  0
 39 30  1  0
 40 35  1  0
 41 39  1  0
 42 38  1  0
  1 43  1  6
  2 44  1  6
  6 45  1  0
  6 46  1  0
  7 47  1  1
  8 48  1  1
 11 49  1  0
 14 50  1  0
 14 51  1  0
 17 52  1  0
 19 53  1  0
 21 54  1  0
 24 55  1  0
 24 56  1  0
 24 57  1  0
 26 58  1  0
 28 59  1  0
 28 60  1  0
 28 61  1  0
 30 62  1  1
 32 63  1  1
 33 64  1  0
 33 65  1  0
 35 66  1  6
 37 67  1  6
 38 68  1  1
 39 69  1  6
 40 70  1  0
 40 71  1  0
 40 72  1  0
 41 73  1  0
 42 74  1  0
M  END
>  <score>  (4) 
-7.641

$$$$
=
     RDKit          3D

 74 80  0  0  0  0  0  0  0  0999 V2000
    0.8830   57.7940   76.9320 C   0  0  1  0  0  0  0  0  0  0  0  0
    2.0110   58.4710   76.1550 C   0  0  1  0  0  0  0  0  0  0  0  0
    3.4370   58.1070   76.4400 C   0  0  0  0  0  0  0  0  0  0  0  0
    3.9290   57.9070   77.5380 O   0  0  0  0  0  0  0  0  0  0  0  0
    4.1460   58.1190   75.2660 O   0  0  0  0  0  0  0  0  0  0  0  0
    3.2840   58.5590   74.2040 C   0  0  0  0  0  0  0  0  0  0  0  0
    1.9090   58.1580   74.6740 C   0  0  2  0  0  0  0  0  0  0  0  0
    0.7000   58.8600   74.0660 C   0  0  1  0  0  0  0  0  0  0  0  0
   -0.5400   58.6470   74.9320 C   0  0  0  0  0  0  0  0  0  0  0  0
   -0.4570   58.1920   76.2880 C   0  0  0  0  0  0  0  0  0  0  0  0
   -1.6320   58.0580   77.0580 C   0  0  0  0  0  0  0  0  0  0  0  0
   -2.8380   58.3700   76.4720 C   0  0  0  0  0  0  0  0  0  0  0  0
   -4.0560   58.2920   77.0700 O   0  0  0  0  0  0  0  0  0  0  0  0
   -4.9140   58.7360   76.0000 C   0  0  0  0  0  0  0  0  0  0  0  0
   -4.1980   59.0520   74.7870 O   0  0  0  0  0  0  0  0  0  0  0  0
   -2.9190   58.8020   75.1710 C   0  0  0  0  0  0  0  0  0  0  0  0
   -1.8000   58.9510   74.3810 C   0  0  0  0  0  0  0  0  0  0  0  0
    1.0660   53.9970   76.2450 C   0  0  0  0  0  0  0  0  0  0  0  0
    0.9360   55.3720   76.0360 C   0  0  0  0  0  0  0  0  0  0  0  0
    1.0330   56.2780   77.1090 C   0  0  0  0  0  0  0  0  0  0  0  0
    1.2740   55.7650   78.4000 C   0  0  0  0  0  0  0  0  0  0  0  0
    1.4420   54.3960   78.6230 C   0  0  0  0  0  0  0  0  0  0  0  0
    1.3220   53.5240   77.5380 C   0  0  0  0  0  0  0  0  0  0  0  0
    0.1790   53.3250   74.1400 C   0  0  0  0  0  0  0  0  0  0  0  0
    0.9760   53.0250   75.2800 O   0  0  0  0  0  0  0  0  0  0  0  0
    1.4620   52.1710   77.7320 O   0  0  0  0  0  0  0  0  0  0  0  0
    1.6890   53.8340   79.8460 O   0  0  0  0  0  0  0  0  0  0  0  0
    2.9570   54.1180   80.4270 C   0  0  0  0  0  0  0  0  0  0  0  0
    0.9340   60.2690   74.0330 O   0  0  0  0  0  0  0  0  0  0  0  0
    0.9700   60.8020   72.7040 C   0  0  2  0  0  0  0  0  0  0  0  0
    2.2930   60.7000   72.1730 O   0  0  0  0  0  0  0  0  0  0  0  0
    2.3680   61.2840   70.8690 C   0  0  2  0  0  0  0  0  0  0  0  0
    3.7380   61.0640   70.2160 C   0  0  0  0  0  0  0  0  0  0  0  0
    4.4130   62.3000   69.9760 O   0  0  0  0  0  0  0  0  0  0  0  0
    3.6320   63.2490   69.2410 C   0  0  2  0  0  0  0  0  0  0  0  0
    2.2480   63.2810   69.6040 O   0  0  0  0  0  0  0  0  0  0  0  0
    2.0810   62.7830   70.9300 C   0  0  1  0  0  0  0  0  0  0  0  0
    0.6600   62.9900   71.4580 C   0  0  1  0  0  0  0  0  0  0  0  0
    0.5060   62.2690   72.8020 C   0  0  1  0  0  0  0  0  0  0  0  0
    3.7410   62.9970   67.7460 C   0  0  0  0  0  0  0  0  0  0  0  0
   -0.8680   62.3470   73.2170 O   0  0  0  0  0  0  0  0  0  0  0  0
    0.3930   64.3870   71.6520 O   0  0  0  0  0  0  0  0  0  0  0  0
    0.9271   58.1602   77.9683 H   0  0  0  0  0  0  0  0  0  0  0  0
    1.8415   59.5088   76.4778 H   0  0  0  0  0  0  0  0  0  0  0  0
    3.3509   59.6487   74.0699 H   0  0  0  0  0  0  0  0  0  0  0  0
    3.5475   58.1204   73.2302 H   0  0  0  0  0  0  0  0  0  0  0  0
    1.7014   57.1190   74.3782 H   0  0  0  0  0  0  0  0  0  0  0  0
    0.5450   58.4471   73.0583 H   0  0  0  0  0  0  0  0  0  0  0  0
   -1.5854   57.7126   78.1013 H   0  0  0  0  0  0  0  0  0  0  0  0
   -5.6387   57.9383   75.7798 H   0  0  0  0  0  0  0  0  0  0  0  0
   -5.4048   59.6604   76.3385 H   0  0  0  0  0  0  0  0  0  0  0  0
   -1.8889   59.3001   73.3417 H   0  0  0  0  0  0  0  0  0  0  0  0
    0.7555   55.7518   75.0196 H   0  0  0  0  0  0  0  0  0  0  0  0
    1.3311   56.4589   79.2516 H   0  0  0  0  0  0  0  0  0  0  0  0
   -0.8040   53.6950   74.4669 H   0  0  0  0  0  0  0  0  0  0  0  0
    0.6788   54.0965   73.5359 H   0  0  0  0  0  0  0  0  0  0  0  0
    0.0460   52.4154   73.5359 H   0  0  0  0  0  0  0  0  0  0  0  0
    1.3777   51.5497   76.9658 H   0  0  0  0  0  0  0  0  0  0  0  0
    2.8705   54.0986   81.5234 H   0  0  0  0  0  0  0  0  0  0  0  0
    3.6865   53.3610   80.1033 H   0  0  0  0  0  0  0  0  0  0  0  0
    3.2939   55.1139   80.1033 H   0  0  0  0  0  0  0  0  0  0  0  0
    0.3111   60.2437   72.0228 H   0  0  0  0  0  0  0  0  0  0  0  0
    1.6054   60.7822   70.2553 H   0  0  0  0  0  0  0  0  0  0  0  0
    4.3554   60.4441   70.8828 H   0  0  0  0  0  0  0  0  0  0  0  0
    3.5807   60.5654   69.2482 H   0  0  0  0  0  0  0  0  0  0  0  0
    4.0573   64.2287   69.5043 H   0  0  0  0  0  0  0  0  0  0  0  0
    2.7584   63.3226   71.6082 H   0  0  0  0  0  0  0  0  0  0  0  0
   -0.0493   62.5841   70.7217 H   0  0  0  0  0  0  0  0  0  0  0  0
    1.1439   62.7601   73.5516 H   0  0  0  0  0  0  0  0  0  0  0  0
    4.1722   62.0000   67.5727 H   0  0  0  0  0  0  0  0  0  0  0  0
    2.7405   63.0478   67.2917 H   0  0  0  0  0  0  0  0  0  0  0  0
    4.3892   63.7609   67.2917 H   0  0  0  0  0  0  0  0  0  0  0  0
   -0.9144   62.3496   74.2059 H   0  0  0  0  0  0  0  0  0  0  0  0
    0.3553   64.5843   72.6214 H   0  0  0  0  0  0  0  0  0  0  0  0
  2  1  1  0
  3  2  1  0
  4  3  2  0
  5  3  1  0
  6  5  1  0
  7  6  1  0
  7  2  1  0
  8  7  1  0
  9  8  1  0
 10  9  2  0
 10  1  1  0
 11 10  1  0
 12 11  2  0
 13 12  1  0
 14 13  1  0
 15 14  1  0
 16 12  1  0
 16 15  1  0
 17  9  1  0
 17 16  2  0
 19 18  2  0
 20 19  1  0
 20  1  1  0
 21 20  2  0
 22 21  1  0
 23 22  2  0
 23 18  1  0
 25 24  1  0
 25 18  1  0
 26 23  1  0
 27 22  1  0
 28 27  1  0
 29  8  1  0
 30 29  1  0
 31 30  1  0
 32 31  1  0
 33 32  1  0
 34 33  1  0
 35 34  1  0
 36 35  1  0
 37 36  1  0
 37 32  1  0
 38 37  1  0
 39 38  1  0
 39 30  1  0
 40 35  1  0
 41 39  1  0
 42 38  1  0
  1 43  1  1
  2 44  1  6
  6 45  1  0
  6 46  1  0
  7 47  1  1
  8 48  1  6
 11 49  1  0
 14 50  1  0
 14 51  1  0
 17 52  1  0
 19 53  1  0
 21 54  1  0
 24 55  1  0
 24 56  1  0
 24 57  1  0
 26 58  1  0
 28 59  1  0
 28 60  1  0
 28 61  1  0
 30 62  1  6
 32 63  1  6
 33 64  1  0
 33 65  1  0
 35 66  1  6
 37 67  1  1
 38 68  1  6
 39 69  1  1
 40 70  1  0
 40 71  1  0
 40 72  1  0
 41 73  1  0
 42 74  1  0
M  END
>  <score>  (5) 
-7.582

$$$$
=
     RDKit          3D

 74 80  0  0  0  0  0  0  0  0999 V2000
    1.9370   61.0600   74.1820 C   0  0  1  0  0  0  0  0  0  0  0  0
    0.6280   61.7750   73.8500 C   0  0  1  0  0  0  0  0  0  0  0  0
    0.4210   62.3540   72.4820 C   0  0  0  0  0  0  0  0  0  0  0  0
    1.2470   62.9510   71.8130 O   0  0  0  0  0  0  0  0  0  0  0  0
   -0.8930   62.1900   72.1210 O   0  0  0  0  0  0  0  0  0  0  0  0
   -1.6090   61.6000   73.2180 C   0  0  0  0  0  0  0  0  0  0  0  0
   -0.5490   60.8250   73.9590 C   0  0  2  0  0  0  0  0  0  0  0  0
   -0.8010   60.4590   75.4160 C   0  0  1  0  0  0  0  0  0  0  0  0
    0.5030   60.0690   76.1100 C   0  0  0  0  0  0  0  0  0  0  0  0
    1.7870   60.3880   75.5580 C   0  0  0  0  0  0  0  0  0  0  0  0
    2.9590   60.0450   76.2640 C   0  0  0  0  0  0  0  0  0  0  0  0
    2.8310   59.4030   77.4750 C   0  0  0  0  0  0  0  0  0  0  0  0
    3.8550   59.0030   78.2740 O   0  0  0  0  0  0  0  0  0  0  0  0
    3.1280   58.4150   79.3730 C   0  0  0  0  0  0  0  0  0  0  0  0
    1.6960   58.4600   79.2000 O   0  0  0  0  0  0  0  0  0  0  0  0
    1.6020   59.0930   78.0010 C   0  0  0  0  0  0  0  0  0  0  0  0
    0.4290   59.4090   77.3510 C   0  0  0  0  0  0  0  0  0  0  0  0
    3.7120   59.6070   71.0730 C   0  0  0  0  0  0  0  0  0  0  0  0
    3.2820   60.5140   72.0450 C   0  0  0  0  0  0  0  0  0  0  0  0
    2.4460   60.0990   73.1010 C   0  0  0  0  0  0  0  0  0  0  0  0
    2.0600   58.7440   73.1590 C   0  0  0  0  0  0  0  0  0  0  0  0
    2.5090   57.8160   72.2140 C   0  0  0  0  0  0  0  0  0  0  0  0
    3.3230   58.2660   71.1720 C   0  0  0  0  0  0  0  0  0  0  0  0
    4.2250   61.1040   69.2950 C   0  0  0  0  0  0  0  0  0  0  0  0
    4.5120   59.9010   69.9970 O   0  0  0  0  0  0  0  0  0  0  0  0
    3.7610   57.3780   70.2180 O   0  0  0  0  0  0  0  0  0  0  0  0
    2.1830   56.4870   72.2190 O   0  0  0  0  0  0  0  0  0  0  0  0
    1.4860   56.0110   73.3640 C   0  0  0  0  0  0  0  0  0  0  0  0
   -1.3050   61.5990   76.1140 O   0  0  0  0  0  0  0  0  0  0  0  0
   -2.6420   61.4190   76.5960 C   0  0  2  0  0  0  0  0  0  0  0  0
   -3.0910   60.0940   76.3050 O   0  0  0  0  0  0  0  0  0  0  0  0
   -4.4470   59.9100   76.7210 C   0  0  2  0  0  0  0  0  0  0  0  0
   -4.9110   58.4580   76.5520 C   0  0  0  0  0  0  0  0  0  0  0  0
   -5.9840   58.3520   75.6150 O   0  0  0  0  0  0  0  0  0  0  0  0
   -7.0870   59.2210   75.9020 C   0  0  2  0  0  0  0  0  0  0  0  0
   -6.7070   60.5200   76.3700 O   0  0  0  0  0  0  0  0  0  0  0  0
   -5.3830   60.8260   75.9360 C   0  0  1  0  0  0  0  0  0  0  0  0
   -4.9970   62.2790   76.2150 C   0  0  1  0  0  0  0  0  0  0  0  0
   -3.5120   62.4820   75.8970 C   0  0  1  0  0  0  0  0  0  0  0  0
   -8.0230   58.5880   76.9180 C   0  0  0  0  0  0  0  0  0  0  0  0
   -3.1270   63.8070   76.3000 O   0  0  0  0  0  0  0  0  0  0  0  0
   -5.7700   63.1720   75.3990 O   0  0  0  0  0  0  0  0  0  0  0  0
    2.7312   61.8202   74.2177 H   0  0  0  0  0  0  0  0  0  0  0  0
    0.6949   62.5995   74.5751 H   0  0  0  0  0  0  0  0  0  0  0  0
   -2.0500   62.3756   73.8614 H   0  0  0  0  0  0  0  0  0  0  0  0
   -2.4483   60.9691   72.8900 H   0  0  0  0  0  0  0  0  0  0  0  0
   -0.4461   59.8214   73.5207 H   0  0  0  0  0  0  0  0  0  0  0  0
   -1.5137   59.6213   75.4306 H   0  0  0  0  0  0  0  0  0  0  0  0
    3.9521   60.2849   75.8564 H   0  0  0  0  0  0  0  0  0  0  0  0
    3.4348   57.3632   79.4715 H   0  0  0  0  0  0  0  0  0  0  0  0
    3.3659   59.0024   80.2721 H   0  0  0  0  0  0  0  0  0  0  0  0
   -0.5448   59.1509   77.7926 H   0  0  0  0  0  0  0  0  0  0  0  0
    3.6000   61.5653   71.9852 H   0  0  0  0  0  0  0  0  0  0  0  0
    1.3909   58.4095   73.9654 H   0  0  0  0  0  0  0  0  0  0  0  0
    4.0322   61.9121   70.0159 H   0  0  0  0  0  0  0  0  0  0  0  0
    5.0840   61.3736   68.6630 H   0  0  0  0  0  0  0  0  0  0  0  0
    3.3368   60.9568   68.6630 H   0  0  0  0  0  0  0  0  0  0  0  0
    4.3381   57.6919   69.4774 H   0  0  0  0  0  0  0  0  0  0  0  0
    1.9957   56.3591   74.2745 H   0  0  0  0  0  0  0  0  0  0  0  0
    0.4551   56.3946   73.3515 H   0  0  0  0  0  0  0  0  0  0  0  0
    1.4682   54.9112   73.3515 H   0  0  0  0  0  0  0  0  0  0  0  0
   -2.7020   61.5419   77.6875 H   0  0  0  0  0  0  0  0  0  0  0  0
   -4.4850   60.1649   77.7904 H   0  0  0  0  0  0  0  0  0  0  0  0
   -4.0648   57.8526   76.1950 H   0  0  0  0  0  0  0  0  0  0  0  0
   -5.2702   58.0971   77.5270 H   0  0  0  0  0  0  0  0  0  0  0  0
   -7.5956   59.3616   74.9368 H   0  0  0  0  0  0  0  0  0  0  0  0
   -5.3149   60.6783   74.8481 H   0  0  0  0  0  0  0  0  0  0  0  0
   -5.1943   62.4955   77.2753 H   0  0  0  0  0  0  0  0  0  0  0  0
   -3.3546   62.3675   74.8144 H   0  0  0  0  0  0  0  0  0  0  0  0
   -7.6745   58.8237   77.9343 H   0  0  0  0  0  0  0  0  0  0  0  0
   -9.0392   58.9850   76.7776 H   0  0  0  0  0  0  0  0  0  0  0  0
   -8.0329   57.4970   76.7776 H   0  0  0  0  0  0  0  0  0  0  0  0
   -3.1116   63.8599   77.2885 H   0  0  0  0  0  0  0  0  0  0  0  0
   -6.2949   63.7784   75.9794 H   0  0  0  0  0  0  0  0  0  0  0  0
  2  1  1  0
  3  2  1  0
  4  3  2  0
  5  3  1  0
  6  5  1  0
  7  6  1  0
  7  2  1  0
  8  7  1  0
  9  8  1  0
 10  9  2  0
 10  1  1  0
 11 10  1  0
 12 11  2  0
 13 12  1  0
 14 13  1  0
 15 14  1  0
 16 12  1  0
 16 15  1  0
 17  9  1  0
 17 16  2  0
 19 18  2  0
 20 19  1  0
 20  1  1  0
 21 20  2  0
 22 21  1  0
 23 22  2  0
 23 18  1  0
 25 24  1  0
 25 18  1  0
 26 23  1  0
 27 22  1  0
 28 27  1  0
 29  8  1  0
 30 29  1  0
 31 30  1  0
 32 31  1  0
 33 32  1  0
 34 33  1  0
 35 34  1  0
 36 35  1  0
 37 36  1  0
 37 32  1  0
 38 37  1  0
 39 38  1  0
 39 30  1  0
 40 35  1  0
 41 39  1  0
 42 38  1  0
  1 43  1  1
  2 44  1  1
  6 45  1  0
  6 46  1  0
  7 47  1  6
  8 48  1  6
 11 49  1  0
 14 50  1  0
 14 51  1  0
 17 52  1  0
 19 53  1  0
 21 54  1  0
 24 55  1  0
 24 56  1  0
 24 57  1  0
 26 58  1  0
 28 59  1  0
 28 60  1  0
 28 61  1  0
 30 62  1  1
 32 63  1  1
 33 64  1  0
 33 65  1  0
 35 66  1  6
 37 67  1  6
 38 68  1  1
 39 69  1  6
 40 70  1  0
 40 71  1  0
 40 72  1  0
 41 73  1  0
 42 74  1  0
M  END
>  <score>  (6) 
-7.394

$$$$
=
     RDKit          3D

 74 80  0  0  0  0  0  0  0  0999 V2000
    1.8780   61.0270   74.6080 C   0  0  1  0  0  0  0  0  0  0  0  0
    0.4330   61.4690   74.3810 C   0  0  1  0  0  0  0  0  0  0  0  0
    0.1280   62.5380   73.3740 C   0  0  0  0  0  0  0  0  0  0  0  0
    0.7700   63.5560   73.1800 O   0  0  0  0  0  0  0  0  0  0  0  0
   -1.0570   62.2390   72.7490 O   0  0  0  0  0  0  0  0  0  0  0  0
   -1.6160   61.0580   73.3460 C   0  0  0  0  0  0  0  0  0  0  0  0
   -0.4100   60.3180   73.8660 C   0  0  2  0  0  0  0  0  0  0  0  0
   -0.6120   59.2770   74.9610 C   0  0  1  0  0  0  0  0  0  0  0  0
    0.7140   58.9470   75.6450 C   0  0  0  0  0  0  0  0  0  0  0  0
    1.8690   59.7870   75.5200 C   0  0  0  0  0  0  0  0  0  0  0  0
    3.0540   59.4600   76.2110 C   0  0  0  0  0  0  0  0  0  0  0  0
    3.0650   58.3270   76.9930 C   0  0  0  0  0  0  0  0  0  0  0  0
    4.1200   57.8710   77.7170 O   0  0  0  0  0  0  0  0  0  0  0  0
    3.5510   56.6880   78.3140 C   0  0  0  0  0  0  0  0  0  0  0  0
    2.1810   56.4540   77.9230 O   0  0  0  0  0  0  0  0  0  0  0  0
    1.9600   57.5200   77.1090 C   0  0  0  0  0  0  0  0  0  0  0  0
    0.7800   57.7990   76.4560 C   0  0  0  0  0  0  0  0  0  0  0  0
    4.2940   61.5880   71.6460 C   0  0  0  0  0  0  0  0  0  0  0  0
    3.5690   61.8100   72.8200 C   0  0  0  0  0  0  0  0  0  0  0  0
    2.7040   60.8240   73.3320 C   0  0  0  0  0  0  0  0  0  0  0  0
    2.5910   59.6030   72.6360 C   0  0  0  0  0  0  0  0  0  0  0  0
    3.3340   59.3510   71.4800 C   0  0  0  0  0  0  0  0  0  0  0  0
    4.1700   60.3570   70.9910 C   0  0  0  0  0  0  0  0  0  0  0  0
    4.5630   63.5240   70.2880 C   0  0  0  0  0  0  0  0  0  0  0  0
    5.1520   62.4790   71.0510 O   0  0  0  0  0  0  0  0  0  0  0  0
    4.8970   60.1420   69.8440 O   0  0  0  0  0  0  0  0  0  0  0  0
    3.2820   58.1850   70.7640 O   0  0  0  0  0  0  0  0  0  0  0  0
    2.5990   57.0980   71.3760 C   0  0  0  0  0  0  0  0  0  0  0  0
   -1.4680   59.8100   75.9730 O   0  0  0  0  0  0  0  0  0  0  0  0
   -2.5060   58.9050   76.3650 C   0  0  2  0  0  0  0  0  0  0  0  0
   -3.6560   59.0930   75.5390 O   0  0  0  0  0  0  0  0  0  0  0  0
   -4.7290   58.2430   75.9530 C   0  0  2  0  0  0  0  0  0  0  0  0
   -5.9280   58.3190   74.9990 C   0  0  0  0  0  0  0  0  0  0  0  0
   -7.0910   58.8300   75.6520 O   0  0  0  0  0  0  0  0  0  0  0  0
   -7.4290   58.1320   76.8570 C   0  0  2  0  0  0  0  0  0  0  0  0
   -6.3010   57.7560   77.6550 O   0  0  0  0  0  0  0  0  0  0  0  0
   -5.1920   58.6050   77.3630 C   0  0  1  0  0  0  0  0  0  0  0  0
   -4.0270   58.3980   78.3310 C   0  0  1  0  0  0  0  0  0  0  0  0
   -2.8140   59.2010   77.8470 C   0  0  1  0  0  0  0  0  0  0  0  0
   -8.2490   56.8900   76.5500 C   0  0  0  0  0  0  0  0  0  0  0  0
   -1.6850   58.8850   78.6790 O   0  0  0  0  0  0  0  0  0  0  0  0
   -4.3800   58.8470   79.6480 O   0  0  0  0  0  0  0  0  0  0  0  0
    2.4053   61.8554   75.1037 H   0  0  0  0  0  0  0  0  0  0  0  0
    0.2156   61.8599   75.3860 H   0  0  0  0  0  0  0  0  0  0  0  0
   -2.3003   61.3192   74.1666 H   0  0  0  0  0  0  0  0  0  0  0  0
   -2.2104   60.4619   72.6380 H   0  0  0  0  0  0  0  0  0  0  0  0
    0.0105   59.6854   73.0703 H   0  0  0  0  0  0  0  0  0  0  0  0
   -1.0409   58.3787   74.4930 H   0  0  0  0  0  0  0  0  0  0  0  0
    3.9482   60.0951   76.1272 H   0  0  0  0  0  0  0  0  0  0  0  0
    4.1539   55.8193   78.0109 H   0  0  0  0  0  0  0  0  0  0  0  0
    3.5581   56.8372   79.4038 H   0  0  0  0  0  0  0  0  0  0  0  0
   -0.0926   57.1383   76.5661 H   0  0  0  0  0  0  0  0  0  0  0  0
    3.6755   62.7675   73.3509 H   0  0  0  0  0  0  0  0  0  0  0  0
    1.9025   58.8317   73.0115 H   0  0  0  0  0  0  0  0  0  0  0  0
    4.1378   64.2784   70.9663 H   0  0  0  0  0  0  0  0  0  0  0  0
    5.3302   63.9921   69.6537 H   0  0  0  0  0  0  0  0  0  0  0  0
    3.7653   63.1101   69.6537 H   0  0  0  0  0  0  0  0  0  0  0  0
    5.4909   60.8525   69.4939 H   0  0  0  0  0  0  0  0  0  0  0  0
    2.6603   57.1956   72.4699 H   0  0  0  0  0  0  0  0  0  0  0  0
    1.5437   57.1066   71.0657 H   0  0  0  0  0  0  0  0  0  0  0  0
    3.0647   56.1510   71.0657 H   0  0  0  0  0  0  0  0  0  0  0  0
   -2.1986   57.8556   76.2455 H   0  0  0  0  0  0  0  0  0  0  0  0
   -4.3387   57.2147   75.9394 H   0  0  0  0  0  0  0  0  0  0  0  0
   -5.6726   58.9795   74.1573 H   0  0  0  0  0  0  0  0  0  0  0  0
   -6.1516   57.3010   74.6474 H   0  0  0  0  0  0  0  0  0  0  0  0
   -8.0164   58.8514   77.4464 H   0  0  0  0  0  0  0  0  0  0  0  0
   -5.5047   59.6556   77.4555 H   0  0  0  0  0  0  0  0  0  0  0  0
   -3.7877   57.3249   78.3657 H   0  0  0  0  0  0  0  0  0  0  0  0
   -3.0366   60.2755   77.9233 H   0  0  0  0  0  0  0  0  0  0  0  0
   -8.5623   56.4155   77.4916 H   0  0  0  0  0  0  0  0  0  0  0  0
   -9.1387   57.1726   75.9681 H   0  0  0  0  0  0  0  0  0  0  0  0
   -7.6396   56.1829   75.9681 H   0  0  0  0  0  0  0  0  0  0  0  0
   -1.9460   58.9581   79.6312 H   0  0  0  0  0  0  0  0  0  0  0  0
   -3.9319   58.2770   80.3221 H   0  0  0  0  0  0  0  0  0  0  0  0
  2  1  1  0
  3  2  1  0
  4  3  2  0
  5  3  1  0
  6  5  1  0
  7  6  1  0
  7  2  1  0
  8  7  1  0
  9  8  1  0
 10  9  2  0
 10  1  1  0
 11 10  1  0
 12 11  2  0
 13 12  1  0
 14 13  1  0
 15 14  1  0
 16 12  1  0
 16 15  1  0
 17  9  1  0
 17 16  2  0
 19 18  2  0
 20 19  1  0
 20  1  1  0
 21 20  2  0
 22 21  1  0
 23 22  2  0
 23 18  1  0
 25 24  1  0
 25 18  1  0
 26 23  1  0
 27 22  1  0
 28 27  1  0
 29  8  1  0
 30 29  1  0
 31 30  1  0
 32 31  1  0
 33 32  1  0
 34 33  1  0
 35 34  1  0
 36 35  1  0
 37 36  1  0
 37 32  1  0
 38 37  1  0
 39 38  1  0
 39 30  1  0
 40 35  1  0
 41 39  1  0
 42 38  1  0
  1 43  1  1
  2 44  1  1
  6 45  1  0
  6 46  1  0
  7 47  1  6
  8 48  1  6
 11 49  1  0
 14 50  1  0
 14 51  1  0
 17 52  1  0
 19 53  1  0
 21 54  1  0
 24 55  1  0
 24 56  1  0
 24 57  1  0
 26 58  1  0
 28 59  1  0
 28 60  1  0
 28 61  1  0
 30 62  1  1
 32 63  1  1
 33 64  1  0
 33 65  1  0
 35 66  1  1
 37 67  1  6
 38 68  1  1
 39 69  1  6
 40 70  1  0
 40 71  1  0
 40 72  1  0
 41 73  1  0
 42 74  1  0
M  END
>  <score>  (7) 
-7.394

$$$$
=
     RDKit          3D

 74 80  0  0  0  0  0  0  0  0999 V2000
   -0.2220   59.0910   73.8390 C   0  0  1  0  0  0  0  0  0  0  0  0
   -1.3340   59.3850   74.8460 C   0  0  1  0  0  0  0  0  0  0  0  0
   -1.9600   58.2610   75.6160 C   0  0  0  0  0  0  0  0  0  0  0  0
   -2.2540   57.1600   75.1820 O   0  0  0  0  0  0  0  0  0  0  0  0
   -2.2430   58.6920   76.8880 O   0  0  0  0  0  0  0  0  0  0  0  0
   -1.9150   60.0870   76.9920 C   0  0  0  0  0  0  0  0  0  0  0  0
   -0.8260   60.2740   75.9660 C   0  0  2  0  0  0  0  0  0  0  0  0
   -0.5520   61.6800   75.4440 C   0  0  1  0  0  0  0  0  0  0  0  0
    0.2530   61.6280   74.1470 C   0  0  0  0  0  0  0  0  0  0  0  0
    0.3730   60.4300   73.3680 C   0  0  0  0  0  0  0  0  0  0  0  0
    1.0900   60.4500   72.1540 C   0  0  0  0  0  0  0  0  0  0  0  0
    1.6630   61.6360   71.7510 C   0  0  0  0  0  0  0  0  0  0  0  0
    2.3860   61.8230   70.6160 O   0  0  0  0  0  0  0  0  0  0  0  0
    2.7090   63.2240   70.7270 C   0  0  0  0  0  0  0  0  0  0  0  0
    2.1910   63.8370   71.9270 O   0  0  0  0  0  0  0  0  0  0  0  0
    1.5530   62.7820   72.4990 C   0  0  0  0  0  0  0  0  0  0  0  0
    0.8610   62.8120   73.6900 C   0  0  0  0  0  0  0  0  0  0  0  0
    2.8150   57.5160   75.6330 C   0  0  0  0  0  0  0  0  0  0  0  0
    1.8550   58.4490   75.2330 C   0  0  0  0  0  0  0  0  0  0  0  0
    0.8440   58.0990   74.3180 C   0  0  0  0  0  0  0  0  0  0  0  0
    0.8180   56.7800   73.8190 C   0  0  0  0  0  0  0  0  0  0  0  0
    1.7490   55.8240   74.2340 C   0  0  0  0  0  0  0  0  0  0  0  0
    2.7480   56.2110   75.1310 C   0  0  0  0  0  0  0  0  0  0  0  0
    3.5250   58.4100   77.7220 C   0  0  0  0  0  0  0  0  0  0  0  0
    3.8490   57.7500   76.5050 O   0  0  0  0  0  0  0  0  0  0  0  0
    3.6890   55.2960   75.5390 O   0  0  0  0  0  0  0  0  0  0  0  0
    1.7730   54.5260   73.8000 O   0  0  0  0  0  0  0  0  0  0  0  0
    0.7210   53.6860   74.2610 C   0  0  0  0  0  0  0  0  0  0  0  0
   -1.7900   62.3190   75.1270 O   0  0  0  0  0  0  0  0  0  0  0  0
   -2.3560   63.0290   76.2350 C   0  0  2  0  0  0  0  0  0  0  0  0
   -3.7530   62.7430   76.3340 O   0  0  0  0  0  0  0  0  0  0  0  0
   -4.3540   63.4900   77.3960 C   0  0  2  0  0  0  0  0  0  0  0  0
   -5.8200   63.1000   77.6180 C   0  0  0  0  0  0  0  0  0  0  0  0
   -6.7020   64.1960   77.3700 O   0  0  0  0  0  0  0  0  0  0  0  0
   -6.3640   65.3840   78.0960 C   0  0  2  0  0  0  0  0  0  0  0  0
   -4.9580   65.6380   78.1860 O   0  0  0  0  0  0  0  0  0  0  0  0
   -4.2750   64.9900   77.1140 C   0  0  1  0  0  0  0  0  0  0  0  0
   -2.8040   65.3970   77.0260 C   0  0  1  0  0  0  0  0  0  0  0  0
   -2.0970   64.5270   75.9810 C   0  0  1  0  0  0  0  0  0  0  0  0
   -6.9460   65.3430   79.5000 C   0  0  0  0  0  0  0  0  0  0  0  0
   -0.6890   64.8170   76.0100 O   0  0  0  0  0  0  0  0  0  0  0  0
   -2.6850   66.7730   76.6370 O   0  0  0  0  0  0  0  0  0  0  0  0
   -0.6753   58.5603   72.9888 H   0  0  0  0  0  0  0  0  0  0  0  0
   -2.0840   59.7993   74.1562 H   0  0  0  0  0  0  0  0  0  0  0  0
   -2.7877   60.7140   76.7569 H   0  0  0  0  0  0  0  0  0  0  0  0
   -1.6011   60.3773   78.0055 H   0  0  0  0  0  0  0  0  0  0  0  0
    0.1514   60.0374   76.4117 H   0  0  0  0  0  0  0  0  0  0  0  0
    0.0028   62.2240   76.2227 H   0  0  0  0  0  0  0  0  0  0  0  0
    1.1894   59.5404   71.5435 H   0  0  0  0  0  0  0  0  0  0  0  0
    3.8038   63.3309   70.7251 H   0  0  0  0  0  0  0  0  0  0  0  0
    2.2407   63.7346   69.8726 H   0  0  0  0  0  0  0  0  0  0  0  0
    0.7853   63.7425   74.2718 H   0  0  0  0  0  0  0  0  0  0  0  0
    1.8896   59.4709   75.6385 H   0  0  0  0  0  0  0  0  0  0  0  0
    0.0475   56.4974   73.0866 H   0  0  0  0  0  0  0  0  0  0  0  0
    3.8326   57.7834   78.5721 H   0  0  0  0  0  0  0  0  0  0  0  0
    4.0521   59.3744   77.7677 H   0  0  0  0  0  0  0  0  0  0  0  0
    2.4396   58.5828   77.7677 H   0  0  0  0  0  0  0  0  0  0  0  0
    4.3987   55.5656   76.1744 H   0  0  0  0  0  0  0  0  0  0  0  0
    0.7125   53.6792   75.3609 H   0  0  0  0  0  0  0  0  0  0  0  0
   -0.2418   54.0666   73.8892 H   0  0  0  0  0  0  0  0  0  0  0  0
    0.8791   52.6629   73.8892 H   0  0  0  0  0  0  0  0  0  0  0  0
   -1.9011   62.7256   77.1895 H   0  0  0  0  0  0  0  0  0  0  0  0
   -3.7886   63.2507   78.3087 H   0  0  0  0  0  0  0  0  0  0  0  0
   -6.0764   62.2750   76.9371 H   0  0  0  0  0  0  0  0  0  0  0  0
   -5.9384   62.7956   78.6684 H   0  0  0  0  0  0  0  0  0  0  0  0
   -6.8047   66.2071   77.5144 H   0  0  0  0  0  0  0  0  0  0  0  0
   -4.7439   65.2735   76.1602 H   0  0  0  0  0  0  0  0  0  0  0  0
   -2.3424   65.2589   78.0149 H   0  0  0  0  0  0  0  0  0  0  0  0
   -2.4994   64.7599   74.9841 H   0  0  0  0  0  0  0  0  0  0  0  0
   -6.1310   65.4004   80.2366 H   0  0  0  0  0  0  0  0  0  0  0  0
   -7.6271   66.1954   79.6396 H   0  0  0  0  0  0  0  0  0  0  0  0
   -7.5009   64.4035   79.6396 H   0  0  0  0  0  0  0  0  0  0  0  0
   -0.3843   64.8798   76.9498 H   0  0  0  0  0  0  0  0  0  0  0  0
   -2.6358   67.3416   77.4460 H   0  0  0  0  0  0  0  0  0  0  0  0
  2  1  1  0
  3  2  1  0
  4  3  2  0
  5  3  1  0
  6  5  1  0
  7  6  1  0
  7  2  1  0
  8  7  1  0
  9  8  1  0
 10  9  2  0
 10  1  1  0
 11 10  1  0
 12 11  2  0
 13 12  1  0
 14 13  1  0
 15 14  1  0
 16 12  1  0
 16 15  1  0
 17  9  1  0
 17 16  2  0
 19 18  2  0
 20 19  1  0
 20  1  1  0
 21 20  2  0
 22 21  1  0
 23 22  2  0
 23 18  1  0
 25 24  1  0
 25 18  1  0
 26 23  1  0
 27 22  1  0
 28 27  1  0
 29  8  1  0
 30 29  1  0
 31 30  1  0
 32 31  1  0
 33 32  1  0
 34 33  1  0
 35 34  1  0
 36 35  1  0
 37 36  1  0
 37 32  1  0
 38 37  1  0
 39 38  1  0
 39 30  1  0
 40 35  1  0
 41 39  1  0
 42 38  1  0
  1 43  1  6
  2 44  1  6
  6 45  1  0
  6 46  1  0
  7 47  1  1
  8 48  1  1
 11 49  1  0
 14 50  1  0
 14 51  1  0
 17 52  1  0
 19 53  1  0
 21 54  1  0
 24 55  1  0
 24 56  1  0
 24 57  1  0
 26 58  1  0
 28 59  1  0
 28 60  1  0
 28 61  1  0
 30 62  1  1
 32 63  1  1
 33 64  1  0
 33 65  1  0
 35 66  1  6
 37 67  1  6
 38 68  1  1
 39 69  1  6
 40 70  1  0
 40 71  1  0
 40 72  1  0
 41 73  1  0
 42 74  1  0
M  END
>  <score>  (8) 
-7.195

$$$$
=
     RDKit          3D

 74 80  0  0  0  0  0  0  0  0999 V2000
    1.2980   60.8420   74.2350 C   0  0  1  0  0  0  0  0  0  0  0  0
    0.3100   61.7100   75.0130 C   0  0  1  0  0  0  0  0  0  0  0  0
    0.4880   63.2000   75.0420 C   0  0  0  0  0  0  0  0  0  0  0  0
    1.5420   63.8020   75.1520 O   0  0  0  0  0  0  0  0  0  0  0  0
   -0.7460   63.7990   75.0180 O   0  0  0  0  0  0  0  0  0  0  0  0
   -1.7610   62.7820   75.0600 C   0  0  0  0  0  0  0  0  0  0  0  0
   -1.0880   61.5850   74.4380 C   0  0  2  0  0  0  0  0  0  0  0  0
   -1.6570   60.2000   74.7270 C   0  0  1  0  0  0  0  0  0  0  0  0
   -0.6390   59.1140   74.3840 C   0  0  0  0  0  0  0  0  0  0  0  0
    0.7530   59.4030   74.1980 C   0  0  0  0  0  0  0  0  0  0  0  0
    1.6580   58.3550   73.9280 C   0  0  0  0  0  0  0  0  0  0  0  0
    1.1680   57.0710   73.8490 C   0  0  0  0  0  0  0  0  0  0  0  0
    1.9010   55.9550   73.5940 O   0  0  0  0  0  0  0  0  0  0  0  0
    0.8770   54.9400   73.6390 C   0  0  0  0  0  0  0  0  0  0  0  0
   -0.4400   55.4690   73.9010 O   0  0  0  0  0  0  0  0  0  0  0  0
   -0.1650   56.7940   74.0220 C   0  0  0  0  0  0  0  0  0  0  0  0
   -1.0870   57.7830   74.2890 C   0  0  0  0  0  0  0  0  0  0  0  0
    1.2180   62.6590   70.8270 C   0  0  0  0  0  0  0  0  0  0  0  0
    0.8350   62.2080   72.0930 C   0  0  0  0  0  0  0  0  0  0  0  0
    1.6800   61.3720   72.8490 C   0  0  0  0  0  0  0  0  0  0  0  0
    2.9270   61.0070   72.3010 C   0  0  0  0  0  0  0  0  0  0  0  0
    3.3410   61.4760   71.0510 C   0  0  0  0  0  0  0  0  0  0  0  0
    2.4710   62.2900   70.3220 C   0  0  0  0  0  0  0  0  0  0  0  0
    0.3090   64.8170   70.3990 C   0  0  0  0  0  0  0  0  0  0  0  0
    0.4730   63.4610   70.0000 O   0  0  0  0  0  0  0  0  0  0  0  0
    2.8450   62.7480   69.0810 O   0  0  0  0  0  0  0  0  0  0  0  0
    4.5410   61.1700   70.4680 O   0  0  0  0  0  0  0  0  0  0  0  0
    5.6300   60.9300   71.3510 C   0  0  0  0  0  0  0  0  0  0  0  0
   -1.9240   60.0770   76.1250 O   0  0  0  0  0  0  0  0  0  0  0  0
   -3.3230   59.9970   76.4250 C   0  0  2  0  0  0  0  0  0  0  0  0
   -4.0910   60.2790   75.2540 O   0  0  0  0  0  0  0  0  0  0  0  0
   -5.4910   60.2670   75.5450 C   0  0  2  0  0  0  0  0  0  0  0  0
   -6.3450   60.4260   74.2810 C   0  0  0  0  0  0  0  0  0  0  0  0
   -7.1230   61.6230   74.3150 O   0  0  0  0  0  0  0  0  0  0  0  0
   -7.9170   61.7600   75.5000 C   0  0  2  0  0  0  0  0  0  0  0  0
   -7.2650   61.3270   76.6990 O   0  0  0  0  0  0  0  0  0  0  0  0
   -5.8490   61.3780   76.5300 C   0  0  1  0  0  0  0  0  0  0  0  0
   -5.0940   61.1380   77.8380 C   0  0  1  0  0  0  0  0  0  0  0  0
   -3.5940   61.0210   77.5460 C   0  0  1  0  0  0  0  0  0  0  0  0
   -9.2310   61.0100   75.3590 C   0  0  0  0  0  0  0  0  0  0  0  0
   -2.9120   60.6510   78.7560 O   0  0  0  0  0  0  0  0  0  0  0  0
   -5.3030   62.2280   78.7480 O   0  0  0  0  0  0  0  0  0  0  0  0
    2.2582   60.8688   74.7710 H   0  0  0  0  0  0  0  0  0  0  0  0
    0.4918   61.3124   76.0224 H   0  0  0  0  0  0  0  0  0  0  0  0
   -2.0614   62.5693   76.0966 H   0  0  0  0  0  0  0  0  0  0  0  0
   -2.6824   63.0753   74.5356 H   0  0  0  0  0  0  0  0  0  0  0  0
   -1.2018   61.6204   73.3445 H   0  0  0  0  0  0  0  0  0  0  0  0
   -2.5688   60.0811   74.1233 H   0  0  0  0  0  0  0  0  0  0  0  0
    2.7293   58.5589   73.7841 H   0  0  0  0  0  0  0  0  0  0  0  0
    0.8580   54.4200   72.6698 H   0  0  0  0  0  0  0  0  0  0  0  0
    1.1266   54.2619   74.4683 H   0  0  0  0  0  0  0  0  0  0  0  0
   -2.1506   57.5374   74.4250 H   0  0  0  0  0  0  0  0  0  0  0  0
   -0.1394   62.5098   72.5047 H   0  0  0  0  0  0  0  0  0  0  0  0
    3.5891   60.3379   72.8702 H   0  0  0  0  0  0  0  0  0  0  0  0
    0.3017   64.8777   71.4973 H   0  0  0  0  0  0  0  0  0  0  0  0
    1.1409   65.4186   70.0041 H   0  0  0  0  0  0  0  0  0  0  0  0
   -0.6424   65.2029   70.0041 H   0  0  0  0  0  0  0  0  0  0  0  0
    2.2315   63.3252   68.5608 H   0  0  0  0  0  0  0  0  0  0  0  0
    5.2820   61.0067   72.3917 H   0  0  0  0  0  0  0  0  0  0  0  0
    6.0318   59.9218   71.1721 H   0  0  0  0  0  0  0  0  0  0  0  0
    6.4184   61.6759   71.1721 H   0  0  0  0  0  0  0  0  0  0  0  0
   -3.6119   58.9890   76.7572 H   0  0  0  0  0  0  0  0  0  0  0  0
   -5.7104   59.2862   75.9921 H   0  0  0  0  0  0  0  0  0  0  0  0
   -5.6814   60.4572   73.4043 H   0  0  0  0  0  0  0  0  0  0  0  0
   -7.0346   59.5709   74.2239 H   0  0  0  0  0  0  0  0  0  0  0  0
   -8.0925   62.8413   75.5999 H   0  0  0  0  0  0  0  0  0  0  0  0
   -5.5619   62.3779   76.1726 H   0  0  0  0  0  0  0  0  0  0  0  0
   -5.4691   60.2095   78.2932 H   0  0  0  0  0  0  0  0  0  0  0  0
   -3.2163   61.9926   77.1948 H   0  0  0  0  0  0  0  0  0  0  0  0
   -9.6316   60.7813   76.3576 H   0  0  0  0  0  0  0  0  0  0  0  0
   -9.9515   61.6329   74.8087 H   0  0  0  0  0  0  0  0  0  0  0  0
   -9.0611   60.0728   74.8087 H   0  0  0  0  0  0  0  0  0  0  0  0
   -3.4461   60.9407   79.5376 H   0  0  0  0  0  0  0  0  0  0  0  0
   -5.2396   61.8974   79.6790 H   0  0  0  0  0  0  0  0  0  0  0  0
  2  1  1  0
  3  2  1  0
  4  3  2  0
  5  3  1  0
  6  5  1  0
  7  6  1  0
  7  2  1  0
  8  7  1  0
  9  8  1  0
 10  9  2  0
 10  1  1  0
 11 10  1  0
 12 11  2  0
 13 12  1  0
 14 13  1  0
 15 14  1  0
 16 12  1  0
 16 15  1  0
 17  9  1  0
 17 16  2  0
 19 18  2  0
 20 19  1  0
 20  1  1  0
 21 20  2  0
 22 21  1  0
 23 22  2  0
 23 18  1  0
 25 24  1  0
 25 18  1  0
 26 23  1  0
 27 22  1  0
 28 27  1  0
 29  8  1  0
 30 29  1  0
 31 30  1  0
 32 31  1  0
 33 32  1  0
 34 33  1  0
 35 34  1  0
 36 35  1  0
 37 36  1  0
 37 32  1  0
 38 37  1  0
 39 38  1  0
 39 30  1  0
 40 35  1  0
 41 39  1  0
 42 38  1  0
  1 43  1  1
  2 44  1  1
  6 45  1  0
  6 46  1  0
  7 47  1  6
  8 48  1  6
 11 49  1  0
 14 50  1  0
 14 51  1  0
 17 52  1  0
 19 53  1  0
 21 54  1  0
 24 55  1  0
 24 56  1  0
 24 57  1  0
 26 58  1  0
 28 59  1  0
 28 60  1  0
 28 61  1  0
 30 62  1  1
 32 63  1  1
 33 64  1  0
 33 65  1  0
 35 66  1  1
 37 67  1  6
 38 68  1  1
 39 69  1  6
 40 70  1  0
 40 71  1  0
 40 72  1  0
 41 73  1  0
 42 74  1  0
M  END
>  <score>  (9) 
-7.187

$$$$
