=
     RDKit          3D

 40 43  0  0  0  0  0  0  0  0999 V2000
    2.2710   67.9950   61.6360 O   0  0  0  0  0  0  0  0  0  0  0  0
    2.2820   68.2900   62.8250 C   0  0  0  0  0  0  0  0  0  0  0  0
    1.0820   68.1280   63.6570 C   0  0  0  0  0  0  0  0  0  0  0  0
    1.1000   68.4560   64.9580 C   0  0  0  0  0  0  0  0  0  0  0  0
    2.2510   68.9470   65.5690 O   0  0  0  0  0  0  0  0  0  0  0  0
    3.4080   69.1170   64.8490 C   0  0  0  0  0  0  0  0  0  0  0  0
    3.4780   68.8170   63.4900 C   0  0  0  0  0  0  0  0  0  0  0  0
    4.6600   69.0130   62.7720 C   0  0  0  0  0  0  0  0  0  0  0  0
    5.7830   69.5170   63.4230 C   0  0  0  0  0  0  0  0  0  0  0  0
    5.7190   69.8190   64.7860 C   0  0  0  0  0  0  0  0  0  0  0  0
    4.5360   69.6230   65.5230 C   0  0  0  0  0  0  0  0  0  0  0  0
    4.5100   69.9440   66.9600 C   0  0  0  0  0  0  0  0  0  0  0  0
    5.6750   70.3530   67.6280 C   0  0  0  0  0  0  0  0  0  0  0  0
    5.6500   70.6610   68.9910 C   0  0  0  0  0  0  0  0  0  0  0  0
    4.4580   70.5650   69.7050 C   0  0  0  0  0  0  0  0  0  0  0  0
    3.2910   70.1630   69.0570 C   0  0  0  0  0  0  0  0  0  0  0  0
    3.3180   69.8560   67.6950 C   0  0  0  0  0  0  0  0  0  0  0  0
    0.0000   68.3380   65.8100 N   0  0  0  0  0  0  0  0  0  0  0  0
   -1.3640   68.7190   65.3740 C   0  0  0  0  0  0  0  0  0  0  0  0
   -2.2260   69.1130   66.5820 C   0  0  0  0  0  0  0  0  0  0  0  0
   -2.3840   68.0670   67.5520 O   0  0  0  0  0  0  0  0  0  0  0  0
   -1.2920   67.1390   67.5600 C   0  0  0  0  0  0  0  0  0  0  0  0
    0.0570   67.7660   67.1720 C   0  0  0  0  0  0  0  0  0  0  0  0
    0.1584   67.7334   63.2084 H   0  0  0  0  0  0  0  0  0  0  0  0
    4.7034   68.7709   61.6998 H   0  0  0  0  0  0  0  0  0  0  0  0
    6.7179   69.6770   62.8660 H   0  0  0  0  0  0  0  0  0  0  0  0
    6.6103   70.2176   65.2926 H   0  0  0  0  0  0  0  0  0  0  0  0
    6.6203   70.4321   67.0711 H   0  0  0  0  0  0  0  0  0  0  0  0
    6.5718   70.9793   69.4999 H   0  0  0  0  0  0  0  0  0  0  0  0
    4.4375   70.8059   70.7781 H   0  0  0  0  0  0  0  0  0  0  0  0
    2.3483   70.0876   69.6189 H   0  0  0  0  0  0  0  0  0  0  0  0
    2.3922   69.5409   67.1915 H   0  0  0  0  0  0  0  0  0  0  0  0
   -1.2977   69.5725   64.6832 H   0  0  0  0  0  0  0  0  0  0  0  0
   -1.8294   67.8584   64.8712 H   0  0  0  0  0  0  0  0  0  0  0  0
   -1.7550   69.9752   67.0766 H   0  0  0  0  0  0  0  0  0  0  0  0
   -3.2298   69.3430   66.1954 H   0  0  0  0  0  0  0  0  0  0  0  0
   -1.2010   66.7191   68.5726 H   0  0  0  0  0  0  0  0  0  0  0  0
   -1.5179   66.3715   66.8051 H   0  0  0  0  0  0  0  0  0  0  0  0
    0.3025   68.5642   67.8880 H   0  0  0  0  0  0  0  0  0  0  0  0
    0.8281   66.9817   67.1921 H   0  0  0  0  0  0  0  0  0  0  0  0
  2  1  2  0
  3  2  1  0
  4  3  2  0
  5  4  1  0
  6  5  1  0
  7  6  2  0
  7  2  1  0
  8  7  1  0
  9  8  2  0
 10  9  1  0
 11  6  1  0
 11 10  2  0
 12 11  1  0
 13 12  2  0
 14 13  1  0
 15 14  2  0
 16 15  1  0
 17 16  2  0
 17 12  1  0
 18  4  1  0
 19 18  1  0
 20 19  1  0
 21 20  1  0
 22 21  1  0
 23 22  1  0
 23 18  1  0
  3 24  1  0
  8 25  1  0
  9 26  1  0
 10 27  1  0
 13 28  1  0
 14 29  1  0
 15 30  1  0
 16 31  1  0
 17 32  1  0
 19 33  1  0
 19 34  1  0
 20 35  1  0
 20 36  1  0
 22 37  1  0
 22 38  1  0
 23 39  1  0
 23 40  1  0
M  END
>  <score>  (1) 
-11.598

$$$$
=
     RDKit          3D

 40 43  0  0  0  0  0  0  0  0999 V2000
   -1.1950   67.5000   66.1690 O   0  0  0  0  0  0  0  0  0  0  0  0
    0.0180   67.6730   66.1720 C   0  0  0  0  0  0  0  0  0  0  0  0
    0.9060   66.8160   65.3760 C   0  0  0  0  0  0  0  0  0  0  0  0
    2.2350   67.0080   65.3870 C   0  0  0  0  0  0  0  0  0  0  0  0
    2.8170   68.0250   66.1380 O   0  0  0  0  0  0  0  0  0  0  0  0
    2.0420   68.8640   66.9010 C   0  0  0  0  0  0  0  0  0  0  0  0
    0.6570   68.7310   66.9610 C   0  0  0  0  0  0  0  0  0  0  0  0
   -0.1130   69.5840   67.7570 C   0  0  0  0  0  0  0  0  0  0  0  0
    0.5150   70.5800   68.4990 C   0  0  0  0  0  0  0  0  0  0  0  0
    1.9040   70.7200   68.4420 C   0  0  0  0  0  0  0  0  0  0  0  0
    2.6910   69.8690   67.6420 C   0  0  0  0  0  0  0  0  0  0  0  0
    4.1520   70.0540   67.6000 C   0  0  0  0  0  0  0  0  0  0  0  0
    4.8790   69.7810   66.4310 C   0  0  0  0  0  0  0  0  0  0  0  0
    6.2650   69.9600   66.3900 C   0  0  0  0  0  0  0  0  0  0  0  0
    6.9420   70.4150   67.5180 C   0  0  0  0  0  0  0  0  0  0  0  0
    6.2360   70.6930   68.6870 C   0  0  0  0  0  0  0  0  0  0  0  0
    4.8510   70.5140   68.7270 C   0  0  0  0  0  0  0  0  0  0  0  0
    3.1440   66.2320   64.6630 N   0  0  0  0  0  0  0  0  0  0  0  0
    4.2370   66.8490   63.8770 C   0  0  0  0  0  0  0  0  0  0  0  0
    4.6580   65.9280   62.7230 C   0  0  0  0  0  0  0  0  0  0  0  0
    5.1320   64.6420   63.1450 O   0  0  0  0  0  0  0  0  0  0  0  0
    4.5810   64.2250   64.4010 C   0  0  0  0  0  0  0  0  0  0  0  0
    3.1620   64.7540   64.6620 C   0  0  0  0  0  0  0  0  0  0  0  0
    0.4779   66.0082   64.7643 H   0  0  0  0  0  0  0  0  0  0  0  0
   -1.2063   69.4690   67.7966 H   0  0  0  0  0  0  0  0  0  0  0  0
   -0.0813   71.2560   69.1294 H   0  0  0  0  0  0  0  0  0  0  0  0
    2.3918   71.5093   69.0328 H   0  0  0  0  0  0  0  0  0  0  0  0
    4.3514   69.4215   65.5352 H   0  0  0  0  0  0  0  0  0  0  0  0
    6.8206   69.7412   65.4662 H   0  0  0  0  0  0  0  0  0  0  0  0
    8.0326   70.5549   67.4867 H   0  0  0  0  0  0  0  0  0  0  0  0
    6.7696   71.0536   69.5788 H   0  0  0  0  0  0  0  0  0  0  0  0
    4.3013   70.7364   69.6535 H   0  0  0  0  0  0  0  0  0  0  0  0
    3.8898   67.8084   63.4658 H   0  0  0  0  0  0  0  0  0  0  0  0
    5.1022   67.0092   64.5371 H   0  0  0  0  0  0  0  0  0  0  0  0
    3.7887   65.7775   62.0660 H   0  0  0  0  0  0  0  0  0  0  0  0
    5.4961   66.4232   62.2107 H   0  0  0  0  0  0  0  0  0  0  0  0
    4.5499   63.1256   64.4182 H   0  0  0  0  0  0  0  0  0  0  0  0
    5.2275   64.6402   65.1881 H   0  0  0  0  0  0  0  0  0  0  0  0
    2.4893   64.3858   63.8734 H   0  0  0  0  0  0  0  0  0  0  0  0
    2.8287   64.3970   65.6476 H   0  0  0  0  0  0  0  0  0  0  0  0
  2  1  2  0
  3  2  1  0
  4  3  2  0
  5  4  1  0
  6  5  1  0
  7  6  2  0
  7  2  1  0
  8  7  1  0
  9  8  2  0
 10  9  1  0
 11  6  1  0
 11 10  2  0
 12 11  1  0
 13 12  2  0
 14 13  1  0
 15 14  2  0
 16 15  1  0
 17 16  2  0
 17 12  1  0
 18  4  1  0
 19 18  1  0
 20 19  1  0
 21 20  1  0
 22 21  1  0
 23 22  1  0
 23 18  1  0
  3 24  1  0
  8 25  1  0
  9 26  1  0
 10 27  1  0
 13 28  1  0
 14 29  1  0
 15 30  1  0
 16 31  1  0
 17 32  1  0
 19 33  1  0
 19 34  1  0
 20 35  1  0
 20 36  1  0
 22 37  1  0
 22 38  1  0
 23 39  1  0
 23 40  1  0
M  END
>  <score>  (2) 
-9.974

$$$$
=
     RDKit          3D

 40 43  0  0  0  0  0  0  0  0999 V2000
    6.0760   69.4870   62.5190 O   0  0  0  0  0  0  0  0  0  0  0  0
    5.2550   69.4530   63.4280 C   0  0  0  0  0  0  0  0  0  0  0  0
    5.6290   69.8210   64.8000 C   0  0  0  0  0  0  0  0  0  0  0  0
    4.7260   69.7790   65.7920 C   0  0  0  0  0  0  0  0  0  0  0  0
    3.4070   69.3990   65.5600 O   0  0  0  0  0  0  0  0  0  0  0  0
    2.9920   69.0470   64.2980 C   0  0  0  0  0  0  0  0  0  0  0  0
    3.8630   69.0470   63.2110 C   0  0  0  0  0  0  0  0  0  0  0  0
    3.4250   68.6700   61.9400 C   0  0  0  0  0  0  0  0  0  0  0  0
    2.0990   68.2870   61.7570 C   0  0  0  0  0  0  0  0  0  0  0  0
    1.2200   68.2850   62.8430 C   0  0  0  0  0  0  0  0  0  0  0  0
    1.6470   68.6660   64.1290 C   0  0  0  0  0  0  0  0  0  0  0  0
    0.6890   68.6610   65.2470 C   0  0  0  0  0  0  0  0  0  0  0  0
   -0.6640   68.9760   65.0400 C   0  0  0  0  0  0  0  0  0  0  0  0
   -1.5730   68.9670   66.1000 C   0  0  0  0  0  0  0  0  0  0  0  0
   -1.1440   68.6420   67.3850 C   0  0  0  0  0  0  0  0  0  0  0  0
    0.1950   68.3240   67.6090 C   0  0  0  0  0  0  0  0  0  0  0  0
    1.1030   68.3330   66.5480 C   0  0  0  0  0  0  0  0  0  0  0  0
    5.0070   70.1070   67.1200 N   0  0  0  0  0  0  0  0  0  0  0  0
    6.2230   70.8660   67.4920 C   0  0  0  0  0  0  0  0  0  0  0  0
    6.6370   70.5510   68.9370 C   0  0  0  0  0  0  0  0  0  0  0  0
    5.6370   70.8760   69.9130 O   0  0  0  0  0  0  0  0  0  0  0  0
    4.3040   70.8360   69.3870 C   0  0  0  0  0  0  0  0  0  0  0  0
    4.1130   69.8100   68.2590 C   0  0  0  0  0  0  0  0  0  0  0  0
    6.6608   70.1345   65.0168 H   0  0  0  0  0  0  0  0  0  0  0  0
    4.1225   68.6755   61.0894 H   0  0  0  0  0  0  0  0  0  0  0  0
    1.7443   67.9868   60.7600 H   0  0  0  0  0  0  0  0  0  0  0  0
    0.1743   67.9799   62.6901 H   0  0  0  0  0  0  0  0  0  0  0  0
   -1.0124   69.2334   64.0289 H   0  0  0  0  0  0  0  0  0  0  0  0
   -2.6291   69.2168   65.9202 H   0  0  0  0  0  0  0  0  0  0  0  0
   -1.8595   68.6363   68.2205 H   0  0  0  0  0  0  0  0  0  0  0  0
    0.5364   68.0658   68.6223 H   0  0  0  0  0  0  0  0  0  0  0  0
    2.1571   68.0796   66.7341 H   0  0  0  0  0  0  0  0  0  0  0  0
    7.0431   70.5900   66.8128 H   0  0  0  0  0  0  0  0  0  0  0  0
    6.0075   71.9417   67.4117 H   0  0  0  0  0  0  0  0  0  0  0  0
    6.8535   69.4749   69.0083 H   0  0  0  0  0  0  0  0  0  0  0  0
    7.5152   71.1746   69.1603 H   0  0  0  0  0  0  0  0  0  0  0  0
    3.6152   70.5828   70.2064 H   0  0  0  0  0  0  0  0  0  0  0  0
    4.0996   71.8274   68.9564 H   0  0  0  0  0  0  0  0  0  0  0  0
    4.3412   68.8050   68.6436 H   0  0  0  0  0  0  0  0  0  0  0  0
    3.0708   69.8601   67.9106 H   0  0  0  0  0  0  0  0  0  0  0  0
  2  1  2  0
  3  2  1  0
  4  3  2  0
  5  4  1  0
  6  5  1  0
  7  6  2  0
  7  2  1  0
  8  7  1  0
  9  8  2  0
 10  9  1  0
 11  6  1  0
 11 10  2  0
 12 11  1  0
 13 12  2  0
 14 13  1  0
 15 14  2  0
 16 15  1  0
 17 16  2  0
 17 12  1  0
 18  4  1  0
 19 18  1  0
 20 19  1  0
 21 20  1  0
 22 21  1  0
 23 22  1  0
 23 18  1  0
  3 24  1  0
  8 25  1  0
  9 26  1  0
 10 27  1  0
 13 28  1  0
 14 29  1  0
 15 30  1  0
 16 31  1  0
 17 32  1  0
 19 33  1  0
 19 34  1  0
 20 35  1  0
 20 36  1  0
 22 37  1  0
 22 38  1  0
 23 39  1  0
 23 40  1  0
M  END
>  <score>  (3) 
-9.648

$$$$
=
     RDKit          3D

 40 43  0  0  0  0  0  0  0  0999 V2000
    4.0900   58.9800   69.1410 O   0  0  0  0  0  0  0  0  0  0  0  0
    3.4790   59.4750   70.0800 C   0  0  0  0  0  0  0  0  0  0  0  0
    2.9710   58.6400   71.1770 C   0  0  0  0  0  0  0  0  0  0  0  0
    2.2990   59.1880   72.2020 C   0  0  0  0  0  0  0  0  0  0  0  0
    2.0680   60.5590   72.2710 O   0  0  0  0  0  0  0  0  0  0  0  0
    2.5210   61.3950   71.2800 C   0  0  0  0  0  0  0  0  0  0  0  0
    3.2150   60.9140   70.1720 C   0  0  0  0  0  0  0  0  0  0  0  0
    3.6520   61.7810   69.1670 C   0  0  0  0  0  0  0  0  0  0  0  0
    3.3890   63.1430   69.2740 C   0  0  0  0  0  0  0  0  0  0  0  0
    2.6940   63.6330   70.3830 C   0  0  0  0  0  0  0  0  0  0  0  0
    2.2510   62.7720   71.4040 C   0  0  0  0  0  0  0  0  0  0  0  0
    1.5300   63.3260   72.5630 C   0  0  0  0  0  0  0  0  0  0  0  0
    1.8970   62.9810   73.8740 C   0  0  0  0  0  0  0  0  0  0  0  0
    1.2150   63.5100   74.9730 C   0  0  0  0  0  0  0  0  0  0  0  0
    0.1560   64.3930   74.7760 C   0  0  0  0  0  0  0  0  0  0  0  0
   -0.2210   64.7480   73.4830 C   0  0  0  0  0  0  0  0  0  0  0  0
    0.4610   64.2200   72.3850 C   0  0  0  0  0  0  0  0  0  0  0  0
    1.7800   58.4600   73.2750 N   0  0  0  0  0  0  0  0  0  0  0  0
    1.5070   57.0080   73.1690 C   0  0  0  0  0  0  0  0  0  0  0  0
    0.4060   56.5920   74.1550 C   0  0  0  0  0  0  0  0  0  0  0  0
    0.7260   56.8500   75.5300 O   0  0  0  0  0  0  0  0  0  0  0  0
    1.6450   57.9360   75.6990 C   0  0  0  0  0  0  0  0  0  0  0  0
    1.5260   59.0230   74.6180 C   0  0  0  0  0  0  0  0  0  0  0  0
    3.1432   57.5537   71.1583 H   0  0  0  0  0  0  0  0  0  0  0  0
    4.2001   61.3894   68.2974 H   0  0  0  0  0  0  0  0  0  0  0  0
    3.7275   63.8330   68.4870 H   0  0  0  0  0  0  0  0  0  0  0  0
    2.4896   64.7112   70.4591 H   0  0  0  0  0  0  0  0  0  0  0  0
    2.7327   62.2848   74.0380 H   0  0  0  0  0  0  0  0  0  0  0  0
    1.5145   63.2291   75.9935 H   0  0  0  0  0  0  0  0  0  0  0  0
   -0.3819   64.8094   75.6404 H   0  0  0  0  0  0  0  0  0  0  0  0
   -1.0572   65.4453   73.3267 H   0  0  0  0  0  0  0  0  0  0  0  0
    0.1574   64.5077   71.3676 H   0  0  0  0  0  0  0  0  0  0  0  0
    1.1816   56.7752   72.1444 H   0  0  0  0  0  0  0  0  0  0  0  0
    2.4269   56.4555   73.4107 H   0  0  0  0  0  0  0  0  0  0  0  0
   -0.5108   57.1454   73.9035 H   0  0  0  0  0  0  0  0  0  0  0  0
    0.2843   55.5033   74.0554 H   0  0  0  0  0  0  0  0  0  0  0  0
    1.4580   58.3994   76.6790 H   0  0  0  0  0  0  0  0  0  0  0  0
    2.6578   57.5142   75.6194 H   0  0  0  0  0  0  0  0  0  0  0  0
    0.5118   59.4481   74.6446 H   0  0  0  0  0  0  0  0  0  0  0  0
    2.2746   59.8033   74.8198 H   0  0  0  0  0  0  0  0  0  0  0  0
  2  1  2  0
  3  2  1  0
  4  3  2  0
  5  4  1  0
  6  5  1  0
  7  6  2  0
  7  2  1  0
  8  7  1  0
  9  8  2  0
 10  9  1  0
 11  6  1  0
 11 10  2  0
 12 11  1  0
 13 12  2  0
 14 13  1  0
 15 14  2  0
 16 15  1  0
 17 16  2  0
 17 12  1  0
 18  4  1  0
 19 18  1  0
 20 19  1  0
 21 20  1  0
 22 21  1  0
 23 22  1  0
 23 18  1  0
  3 24  1  0
  8 25  1  0
  9 26  1  0
 10 27  1  0
 13 28  1  0
 14 29  1  0
 15 30  1  0
 16 31  1  0
 17 32  1  0
 19 33  1  0
 19 34  1  0
 20 35  1  0
 20 36  1  0
 22 37  1  0
 22 38  1  0
 23 39  1  0
 23 40  1  0
M  END
>  <score>  (4) 
-9.206

$$$$
=
     RDKit          3D

 40 43  0  0  0  0  0  0  0  0999 V2000
    0.3190   57.0300   74.1050 O   0  0  0  0  0  0  0  0  0  0  0  0
    0.7180   58.1090   73.6860 C   0  0  0  0  0  0  0  0  0  0  0  0
    0.2070   59.3710   74.2360 C   0  0  0  0  0  0  0  0  0  0  0  0
    0.6460   60.5510   73.7700 C   0  0  0  0  0  0  0  0  0  0  0  0
    1.6050   60.6240   72.7640 O   0  0  0  0  0  0  0  0  0  0  0  0
    2.1270   59.4810   72.2100 C   0  0  0  0  0  0  0  0  0  0  0  0
    1.7210   58.2140   72.6210 C   0  0  0  0  0  0  0  0  0  0  0  0
    2.2530   57.0630   72.0330 C   0  0  0  0  0  0  0  0  0  0  0  0
    3.2020   57.1860   71.0220 C   0  0  0  0  0  0  0  0  0  0  0  0
    3.6150   58.4550   70.6060 C   0  0  0  0  0  0  0  0  0  0  0  0
    3.0900   59.6220   71.1920 C   0  0  0  0  0  0  0  0  0  0  0  0
    3.5570   60.9410   70.7340 C   0  0  0  0  0  0  0  0  0  0  0  0
    2.9780   61.5640   69.6170 C   0  0  0  0  0  0  0  0  0  0  0  0
    3.4190   62.8170   69.1850 C   0  0  0  0  0  0  0  0  0  0  0  0
    4.4460   63.4670   69.8650 C   0  0  0  0  0  0  0  0  0  0  0  0
    5.0320   62.8650   70.9770 C   0  0  0  0  0  0  0  0  0  0  0  0
    4.5900   61.6130   71.4080 C   0  0  0  0  0  0  0  0  0  0  0  0
    0.2020   61.7900   74.2370 N   0  0  0  0  0  0  0  0  0  0  0  0
   -0.1300   62.0090   75.6630 C   0  0  0  0  0  0  0  0  0  0  0  0
   -1.1510   63.1460   75.8120 C   0  0  0  0  0  0  0  0  0  0  0  0
   -0.6980   64.4070   75.3000 O   0  0  0  0  0  0  0  0  0  0  0  0
    0.2700   64.2720   74.2510 C   0  0  0  0  0  0  0  0  0  0  0  0
    0.0920   63.0040   73.4010 C   0  0  0  0  0  0  0  0  0  0  0  0
   -0.5443   59.3493   75.0392 H   0  0  0  0  0  0  0  0  0  0  0  0
    1.9243   56.0676   72.3665 H   0  0  0  0  0  0  0  0  0  0  0  0
    3.6259   56.2866   70.5515 H   0  0  0  0  0  0  0  0  0  0  0  0
    4.3644   58.5432   69.8056 H   0  0  0  0  0  0  0  0  0  0  0  0
    2.1657   61.0583   69.0744 H   0  0  0  0  0  0  0  0  0  0  0  0
    2.9549   63.2906   68.3073 H   0  0  0  0  0  0  0  0  0  0  0  0
    4.7940   64.4536   69.5251 H   0  0  0  0  0  0  0  0  0  0  0  0
    5.8433   63.3768   71.5154 H   0  0  0  0  0  0  0  0  0  0  0  0
    5.0572   61.1462   72.2877 H   0  0  0  0  0  0  0  0  0  0  0  0
   -0.5548   61.0846   76.0813 H   0  0  0  0  0  0  0  0  0  0  0  0
    0.7882   62.2841   76.2026 H   0  0  0  0  0  0  0  0  0  0  0  0
   -2.0663   62.8620   75.2721 H   0  0  0  0  0  0  0  0  0  0  0  0
   -1.3207   63.2824   76.8902 H   0  0  0  0  0  0  0  0  0  0  0  0
    0.1886   65.1471   73.5895 H   0  0  0  0  0  0  0  0  0  0  0  0
    1.2560   64.1983   74.7330 H   0  0  0  0  0  0  0  0  0  0  0  0
   -0.8996   63.0253   72.9254 H   0  0  0  0  0  0  0  0  0  0  0  0
    0.8834   62.9783   72.6374 H   0  0  0  0  0  0  0  0  0  0  0  0
  2  1  2  0
  3  2  1  0
  4  3  2  0
  5  4  1  0
  6  5  1  0
  7  6  2  0
  7  2  1  0
  8  7  1  0
  9  8  2  0
 10  9  1  0
 11  6  1  0
 11 10  2  0
 12 11  1  0
 13 12  2  0
 14 13  1  0
 15 14  2  0
 16 15  1  0
 17 16  2  0
 17 12  1  0
 18  4  1  0
 19 18  1  0
 20 19  1  0
 21 20  1  0
 22 21  1  0
 23 22  1  0
 23 18  1  0
  3 24  1  0
  8 25  1  0
  9 26  1  0
 10 27  1  0
 13 28  1  0
 14 29  1  0
 15 30  1  0
 16 31  1  0
 17 32  1  0
 19 33  1  0
 19 34  1  0
 20 35  1  0
 20 36  1  0
 22 37  1  0
 22 38  1  0
 23 39  1  0
 23 40  1  0
M  END
>  <score>  (5) 
-9.023

$$$$
=
     RDKit          3D

 40 43  0  0  0  0  0  0  0  0999 V2000
   -2.5060   59.9000   74.2900 O   0  0  0  0  0  0  0  0  0  0  0  0
   -1.3410   59.7210   73.9580 C   0  0  0  0  0  0  0  0  0  0  0  0
   -0.6280   58.4920   74.3310 C   0  0  0  0  0  0  0  0  0  0  0  0
    0.6500   58.3030   73.9670 C   0  0  0  0  0  0  0  0  0  0  0  0
    1.3410   59.2520   73.2180 O   0  0  0  0  0  0  0  0  0  0  0  0
    0.7310   60.4200   72.8340 C   0  0  0  0  0  0  0  0  0  0  0  0
   -0.5880   60.7080   73.1780 C   0  0  0  0  0  0  0  0  0  0  0  0
   -1.1850   61.9100   72.7900 C   0  0  0  0  0  0  0  0  0  0  0  0
   -0.4510   62.8330   72.0510 C   0  0  0  0  0  0  0  0  0  0  0  0
    0.8720   62.5510   71.7020 C   0  0  0  0  0  0  0  0  0  0  0  0
    1.4850   61.3420   72.0820 C   0  0  0  0  0  0  0  0  0  0  0  0
    2.8780   61.0750   71.6870 C   0  0  0  0  0  0  0  0  0  0  0  0
    3.1830   60.5720   70.4120 C   0  0  0  0  0  0  0  0  0  0  0  0
    4.5050   60.3220   70.0360 C   0  0  0  0  0  0  0  0  0  0  0  0
    5.5430   60.5740   70.9300 C   0  0  0  0  0  0  0  0  0  0  0  0
    5.2600   61.0760   72.1990 C   0  0  0  0  0  0  0  0  0  0  0  0
    3.9380   61.3250   72.5740 C   0  0  0  0  0  0  0  0  0  0  0  0
    1.3950   57.1670   74.2890 N   0  0  0  0  0  0  0  0  0  0  0  0
    1.7720   56.8560   75.6870 C   0  0  0  0  0  0  0  0  0  0  0  0
    3.0490   56.0050   75.7270 C   0  0  0  0  0  0  0  0  0  0  0  0
    2.9340   54.7480   75.0440 O   0  0  0  0  0  0  0  0  0  0  0  0
    1.9640   54.7680   73.9890 C   0  0  0  0  0  0  0  0  0  0  0  0
    1.8130   56.1400   73.3120 C   0  0  0  0  0  0  0  0  0  0  0  0
   -1.1473   57.7180   74.9151 H   0  0  0  0  0  0  0  0  0  0  0  0
   -2.2277   62.1253   73.0666 H   0  0  0  0  0  0  0  0  0  0  0  0
   -0.9118   63.7829   71.7422 H   0  0  0  0  0  0  0  0  0  0  0  0
    1.4453   63.2872   71.1195 H   0  0  0  0  0  0  0  0  0  0  0  0
    2.3695   60.3720   69.6992 H   0  0  0  0  0  0  0  0  0  0  0  0
    4.7263   59.9261   69.0338 H   0  0  0  0  0  0  0  0  0  0  0  0
    6.5843   60.3771   70.6350 H   0  0  0  0  0  0  0  0  0  0  0  0
    6.0787   61.2763   72.9058 H   0  0  0  0  0  0  0  0  0  0  0  0
    3.7240   61.7221   73.5772 H   0  0  0  0  0  0  0  0  0  0  0  0
    1.9468   57.7956   76.2316 H   0  0  0  0  0  0  0  0  0  0  0  0
    0.9542   56.2897   76.1567 H   0  0  0  0  0  0  0  0  0  0  0  0
    3.8624   56.5795   75.2597 H   0  0  0  0  0  0  0  0  0  0  0  0
    3.2459   55.7758   76.7847 H   0  0  0  0  0  0  0  0  0  0  0  0
    2.2664   54.0359   73.2257 H   0  0  0  0  0  0  0  0  0  0  0  0
    0.9917   54.5254   74.4426 H   0  0  0  0  0  0  0  0  0  0  0  0
    2.7778   56.4328   72.8723 H   0  0  0  0  0  0  0  0  0  0  0  0
    1.0422   56.0636   72.5310 H   0  0  0  0  0  0  0  0  0  0  0  0
  2  1  2  0
  3  2  1  0
  4  3  2  0
  5  4  1  0
  6  5  1  0
  7  6  2  0
  7  2  1  0
  8  7  1  0
  9  8  2  0
 10  9  1  0
 11  6  1  0
 11 10  2  0
 12 11  1  0
 13 12  2  0
 14 13  1  0
 15 14  2  0
 16 15  1  0
 17 16  2  0
 17 12  1  0
 18  4  1  0
 19 18  1  0
 20 19  1  0
 21 20  1  0
 22 21  1  0
 23 22  1  0
 23 18  1  0
  3 24  1  0
  8 25  1  0
  9 26  1  0
 10 27  1  0
 13 28  1  0
 14 29  1  0
 15 30  1  0
 16 31  1  0
 17 32  1  0
 19 33  1  0
 19 34  1  0
 20 35  1  0
 20 36  1  0
 22 37  1  0
 22 38  1  0
 23 39  1  0
 23 40  1  0
M  END
>  <score>  (6) 
-8.984

$$$$
