=
     RDKit          3D

 31 33  0  0  0  0  0  0  0  0999 V2000
    1.7010   68.2770   65.1420 N   0  0  0  0  0  0  0  0  0  0  0  0
    2.4170   68.4700   63.9480 C   0  0  0  0  0  0  0  0  0  0  0  0
    3.7850   68.4800   63.7490 C   0  0  0  0  0  0  0  0  0  0  0  0
    4.2560   68.6950   62.4470 C   0  0  0  0  0  0  0  0  0  0  0  0
    3.3670   68.8960   61.3730 C   0  0  0  0  0  0  0  0  0  0  0  0
    1.9860   68.8850   61.5820 C   0  0  0  0  0  0  0  0  0  0  0  0
    1.5500   68.6690   62.8740 C   0  0  0  0  0  0  0  0  0  0  0  0
    0.1870   68.6110   63.4000 C   0  0  0  0  0  0  0  0  0  0  0  0
   -0.8420   68.7320   62.7770 O   0  0  0  0  0  0  0  0  0  0  0  0
    0.3390   68.3670   64.9230 C   0  0  0  0  0  0  0  0  0  0  0  0
   -0.5760   68.2890   65.7150 O   0  0  0  0  0  0  0  0  0  0  0  0
    2.2850   68.1190   66.4430 C   0  0  0  0  0  0  0  0  0  0  0  0
    2.3590   69.4330   67.0480 N   0  0  0  0  0  0  0  0  0  0  0  0
    7.5150   71.1950   69.3970 Cl  0  0  0  0  0  0  0  0  0  0  0  0
    6.0260   70.6970   68.6960 C   0  0  0  0  0  0  0  0  0  0  0  0
    5.9840   70.3020   67.3630 C   0  0  0  0  0  0  0  0  0  0  0  0
    4.7720   69.8920   66.7930 C   0  0  0  0  0  0  0  0  0  0  0  0
    3.5830   69.9010   67.5350 C   0  0  0  0  0  0  0  0  0  0  0  0
    3.6630   70.2660   68.8890 C   0  0  0  0  0  0  0  0  0  0  0  0
    4.8700   70.6750   69.4650 C   0  0  0  0  0  0  0  0  0  0  0  0
    4.4815   68.3242   64.5860 H   0  0  0  0  0  0  0  0  0  0  0  0
    5.3399   68.7070   62.2601 H   0  0  0  0  0  0  0  0  0  0  0  0
    3.7639   69.0631   60.3608 H   0  0  0  0  0  0  0  0  0  0  0  0
    1.2780   69.0413   60.7548 H   0  0  0  0  0  0  0  0  0  0  0  0
    1.6583   67.4567   67.0583 H   0  0  0  0  0  0  0  0  0  0  0  0
    3.2863   67.6699   66.3669 H   0  0  0  0  0  0  0  0  0  0  0  0
    1.5149   70.0190   67.1190 H   0  0  0  0  0  0  0  0  0  0  0  0
    6.9019   70.3116   66.7569 H   0  0  0  0  0  0  0  0  0  0  0  0
    4.7530   69.5573   65.7453 H   0  0  0  0  0  0  0  0  0  0  0  0
    2.7560   70.2293   69.5102 H   0  0  0  0  0  0  0  0  0  0  0  0
    4.9034   70.9778   70.5220 H   0  0  0  0  0  0  0  0  0  0  0  0
  2  1  1  0
  3  2  2  0
  4  3  1  0
  5  4  2  0
  6  5  1  0
  7  6  2  0
  7  2  1  0
  8  7  1  0
  9  8  2  0
 10  8  1  0
 10  1  1  0
 11 10  2  0
 12  1  1  0
 13 12  1  0
 15 14  1  0
 16 15  2  0
 17 16  1  0
 18 17  2  0
 18 13  1  0
 19 18  1  0
 20 19  2  0
 20 15  1  0
  3 21  1  0
  4 22  1  0
  5 23  1  0
  6 24  1  0
 12 25  1  0
 12 26  1  0
 13 27  1  0
 16 28  1  0
 17 29  1  0
 19 30  1  0
 20 31  1  0
M  END
>  <score>  (1) 
-10.253

$$$$
=
     RDKit          3D

 31 33  0  0  0  0  0  0  0  0999 V2000
    1.2990   68.4600   65.8280 N   0  0  0  0  0  0  0  0  0  0  0  0
    1.1780   68.6600   64.4420 C   0  0  0  0  0  0  0  0  0  0  0  0
    2.1710   68.6860   63.4800 C   0  0  0  0  0  0  0  0  0  0  0  0
    1.7900   68.9050   62.1490 C   0  0  0  0  0  0  0  0  0  0  0  0
    0.4380   69.0930   61.8000 C   0  0  0  0  0  0  0  0  0  0  0  0
   -0.5590   69.0660   62.7770 C   0  0  0  0  0  0  0  0  0  0  0  0
   -0.1550   68.8470   64.0790 C   0  0  0  0  0  0  0  0  0  0  0  0
   -0.9520   68.7730   65.3020 C   0  0  0  0  0  0  0  0  0  0  0  0
   -2.1530   68.8810   65.4000 O   0  0  0  0  0  0  0  0  0  0  0  0
    0.0640   68.5330   66.4470 C   0  0  0  0  0  0  0  0  0  0  0  0
   -0.2130   68.4460   67.6240 O   0  0  0  0  0  0  0  0  0  0  0  0
    2.5340   68.3110   66.5410 C   0  0  0  0  0  0  0  0  0  0  0  0
    3.3800   69.4310   66.1830 N   0  0  0  0  0  0  0  0  0  0  0  0
    7.8510   71.3340   69.5880 Cl  0  0  0  0  0  0  0  0  0  0  0  0
    6.5470   70.7700   68.6200 C   0  0  0  0  0  0  0  0  0  0  0  0
    5.2620   70.7160   69.1490 C   0  0  0  0  0  0  0  0  0  0  0  0
    4.1980   70.2600   68.3590 C   0  0  0  0  0  0  0  0  0  0  0  0
    4.4080   69.8240   67.0440 C   0  0  0  0  0  0  0  0  0  0  0  0
    5.7080   69.9270   66.5240 C   0  0  0  0  0  0  0  0  0  0  0  0
    6.7750   70.3820   67.3050 C   0  0  0  0  0  0  0  0  0  0  0  0
    3.2270   68.5394   63.7508 H   0  0  0  0  0  0  0  0  0  0  0  0
    2.5597   68.9305   61.3635 H   0  0  0  0  0  0  0  0  0  0  0  0
    0.1654   69.2626   60.7479 H   0  0  0  0  0  0  0  0  0  0  0  0
   -1.6187   69.2126   62.5210 H   0  0  0  0  0  0  0  0  0  0  0  0
    2.3450   68.3141   67.6246 H   0  0  0  0  0  0  0  0  0  0  0  0
    3.0198   67.3591   66.2806 H   0  0  0  0  0  0  0  0  0  0  0  0
    3.2246   69.9351   65.2983 H   0  0  0  0  0  0  0  0  0  0  0  0
    5.0808   71.0311   70.1872 H   0  0  0  0  0  0  0  0  0  0  0  0
    3.1811   70.2441   68.7782 H   0  0  0  0  0  0  0  0  0  0  0  0
    5.8916   69.6430   65.4773 H   0  0  0  0  0  0  0  0  0  0  0  0
    7.7888   70.4325   66.8811 H   0  0  0  0  0  0  0  0  0  0  0  0
  2  1  1  0
  3  2  2  0
  4  3  1  0
  5  4  2  0
  6  5  1  0
  7  6  2  0
  7  2  1  0
  8  7  1  0
  9  8  2  0
 10  8  1  0
 10  1  1  0
 11 10  2  0
 12  1  1  0
 13 12  1  0
 15 14  1  0
 16 15  2  0
 17 16  1  0
 18 17  2  0
 18 13  1  0
 19 18  1  0
 20 19  2  0
 20 15  1  0
  3 21  1  0
  4 22  1  0
  5 23  1  0
  6 24  1  0
 12 25  1  0
 12 26  1  0
 13 27  1  0
 16 28  1  0
 17 29  1  0
 19 30  1  0
 20 31  1  0
M  END
>  <score>  (2) 
-9.612

$$$$
=
     RDKit          3D

 31 33  0  0  0  0  0  0  0  0999 V2000
    2.7020   68.2070   65.3430 N   0  0  0  0  0  0  0  0  0  0  0  0
    3.5750   68.0960   64.2470 C   0  0  0  0  0  0  0  0  0  0  0  0
    4.2790   69.0910   63.5950 C   0  0  0  0  0  0  0  0  0  0  0  0
    5.0950   68.7190   62.5180 C   0  0  0  0  0  0  0  0  0  0  0  0
    5.1950   67.3740   62.1100 C   0  0  0  0  0  0  0  0  0  0  0  0
    4.4810   66.3750   62.7740 C   0  0  0  0  0  0  0  0  0  0  0  0
    3.6860   66.7700   63.8320 C   0  0  0  0  0  0  0  0  0  0  0  0
    2.8280   65.9690   64.7030 C   0  0  0  0  0  0  0  0  0  0  0  0
    2.6600   64.7710   64.6620 O   0  0  0  0  0  0  0  0  0  0  0  0
    2.1750   66.9740   65.6830 C   0  0  0  0  0  0  0  0  0  0  0  0
    1.3700   66.6920   66.5450 O   0  0  0  0  0  0  0  0  0  0  0  0
    2.3060   69.4370   65.9680 C   0  0  0  0  0  0  0  0  0  0  0  0
    2.6810   69.3540   67.3650 N   0  0  0  0  0  0  0  0  0  0  0  0
    7.8530   71.3910   69.4390 Cl  0  0  0  0  0  0  0  0  0  0  0  0
    6.3580   70.8130   68.8170 C   0  0  0  0  0  0  0  0  0  0  0  0
    6.2770   70.3740   67.5000 C   0  0  0  0  0  0  0  0  0  0  0  0
    5.0600   69.8990   66.9940 C   0  0  0  0  0  0  0  0  0  0  0  0
    3.9040   69.8850   67.7860 C   0  0  0  0  0  0  0  0  0  0  0  0
    4.0240   70.2960   69.1230 C   0  0  0  0  0  0  0  0  0  0  0  0
    5.2360   70.7700   69.6350 C   0  0  0  0  0  0  0  0  0  0  0  0
    4.2012   70.1416   63.9115 H   0  0  0  0  0  0  0  0  0  0  0  0
    5.6673   69.4904   61.9819 H   0  0  0  0  0  0  0  0  0  0  0  0
    5.8416   67.1088   61.2605 H   0  0  0  0  0  0  0  0  0  0  0  0
    4.5485   65.3205   62.4683 H   0  0  0  0  0  0  0  0  0  0  0  0
    2.8204   70.2840   65.4904 H   0  0  0  0  0  0  0  0  0  0  0  0
    1.2219   69.5930   65.8657 H   0  0  0  0  0  0  0  0  0  0  0  0
    2.0498   68.9061   68.0446 H   0  0  0  0  0  0  0  0  0  0  0  0
    7.1682   70.3997   66.8557 H   0  0  0  0  0  0  0  0  0  0  0  0
    5.0111   69.5312   65.9585 H   0  0  0  0  0  0  0  0  0  0  0  0
    3.1452   70.2440   69.7825 H   0  0  0  0  0  0  0  0  0  0  0  0
    5.3006   71.1071   70.6801 H   0  0  0  0  0  0  0  0  0  0  0  0
  2  1  1  0
  3  2  2  0
  4  3  1  0
  5  4  2  0
  6  5  1  0
  7  6  2  0
  7  2  1  0
  8  7  1  0
  9  8  2  0
 10  8  1  0
 10  1  1  0
 11 10  2  0
 12  1  1  0
 13 12  1  0
 15 14  1  0
 16 15  2  0
 17 16  1  0
 18 17  2  0
 18 13  1  0
 19 18  1  0
 20 19  2  0
 20 15  1  0
  3 21  1  0
  4 22  1  0
  5 23  1  0
  6 24  1  0
 12 25  1  0
 12 26  1  0
 13 27  1  0
 16 28  1  0
 17 29  1  0
 19 30  1  0
 20 31  1  0
M  END
>  <score>  (3) 
-9.546

$$$$
=
     RDKit          3D

 31 33  0  0  0  0  0  0  0  0999 V2000
    3.1350   69.2870   66.2940 N   0  0  0  0  0  0  0  0  0  0  0  0
    4.4200   69.7170   66.6710 C   0  0  0  0  0  0  0  0  0  0  0  0
    5.5900   69.7000   65.9360 C   0  0  0  0  0  0  0  0  0  0  0  0
    6.7530   70.1930   66.5430 C   0  0  0  0  0  0  0  0  0  0  0  0
    6.7330   70.6890   67.8610 C   0  0  0  0  0  0  0  0  0  0  0  0
    5.5470   70.7030   68.5970 C   0  0  0  0  0  0  0  0  0  0  0  0
    4.4170   70.2130   67.9740 C   0  0  0  0  0  0  0  0  0  0  0  0
    3.0510   70.0910   68.4810 C   0  0  0  0  0  0  0  0  0  0  0  0
    2.6450   70.4200   69.5730 O   0  0  0  0  0  0  0  0  0  0  0  0
    2.2350   69.4490   67.3320 C   0  0  0  0  0  0  0  0  0  0  0  0
    1.0590   69.1600   67.3830 O   0  0  0  0  0  0  0  0  0  0  0  0
    2.8030   68.6570   65.0490 C   0  0  0  0  0  0  0  0  0  0  0  0
    2.3290   67.3220   65.3510 N   0  0  0  0  0  0  0  0  0  0  0  0
    5.5920   62.8130   63.2940 Cl  0  0  0  0  0  0  0  0  0  0  0  0
    4.6270   64.1050   63.8920 C   0  0  0  0  0  0  0  0  0  0  0  0
    3.7810   63.8950   64.9760 C   0  0  0  0  0  0  0  0  0  0  0  0
    2.9980   64.9480   65.4660 C   0  0  0  0  0  0  0  0  0  0  0  0
    3.0270   66.2130   64.8640 C   0  0  0  0  0  0  0  0  0  0  0  0
    3.9190   66.4060   63.7970 C   0  0  0  0  0  0  0  0  0  0  0  0
    4.7050   65.3610   63.3030 C   0  0  0  0  0  0  0  0  0  0  0  0
    5.6080   69.3118   64.9069 H   0  0  0  0  0  0  0  0  0  0  0  0
    7.6981   70.1926   65.9801 H   0  0  0  0  0  0  0  0  0  0  0  0
    7.6604   71.0688   68.3145 H   0  0  0  0  0  0  0  0  0  0  0  0
    5.5144   71.0873   69.6272 H   0  0  0  0  0  0  0  0  0  0  0  0
    2.0150   69.2287   64.5369 H   0  0  0  0  0  0  0  0  0  0  0  0
    3.6814   68.6166   64.3881 H   0  0  0  0  0  0  0  0  0  0  0  0
    1.4818   67.1904   65.9218 H   0  0  0  0  0  0  0  0  0  0  0  0
    3.7269   62.9029   65.4480 H   0  0  0  0  0  0  0  0  0  0  0  0
    2.3493   64.7790   66.3382 H   0  0  0  0  0  0  0  0  0  0  0  0
    4.0012   67.4028   63.3391 H   0  0  0  0  0  0  0  0  0  0  0  0
    5.3815   65.5320   62.4527 H   0  0  0  0  0  0  0  0  0  0  0  0
  2  1  1  0
  3  2  2  0
  4  3  1  0
  5  4  2  0
  6  5  1  0
  7  6  2  0
  7  2  1  0
  8  7  1  0
  9  8  2  0
 10  8  1  0
 10  1  1  0
 11 10  2  0
 12  1  1  0
 13 12  1  0
 15 14  1  0
 16 15  2  0
 17 16  1  0
 18 17  2  0
 18 13  1  0
 19 18  1  0
 20 19  2  0
 20 15  1  0
  3 21  1  0
  4 22  1  0
  5 23  1  0
  6 24  1  0
 12 25  1  0
 12 26  1  0
 13 27  1  0
 16 28  1  0
 17 29  1  0
 19 30  1  0
 20 31  1  0
M  END
>  <score>  (4) 
-9.483

$$$$
=
     RDKit          3D

 31 33  0  0  0  0  0  0  0  0999 V2000
    1.8410   68.4160   64.5740 N   0  0  0  0  0  0  0  0  0  0  0  0
    0.7980   68.4090   65.5160 C   0  0  0  0  0  0  0  0  0  0  0  0
    0.8600   68.1720   66.8760 C   0  0  0  0  0  0  0  0  0  0  0  0
   -0.3350   68.2240   67.6070 C   0  0  0  0  0  0  0  0  0  0  0  0
   -1.5620   68.5100   66.9770 C   0  0  0  0  0  0  0  0  0  0  0  0
   -1.6170   68.7490   65.6030 C   0  0  0  0  0  0  0  0  0  0  0  0
   -0.4240   68.6910   64.9080 C   0  0  0  0  0  0  0  0  0  0  0  0
   -0.1660   68.8850   63.4830 C   0  0  0  0  0  0  0  0  0  0  0  0
   -0.9740   69.1520   62.6230 O   0  0  0  0  0  0  0  0  0  0  0  0
    1.3580   68.6720   63.3030 C   0  0  0  0  0  0  0  0  0  0  0  0
    1.9530   68.7200   62.2480 O   0  0  0  0  0  0  0  0  0  0  0  0
    3.2110   68.0920   64.8490 C   0  0  0  0  0  0  0  0  0  0  0  0
    3.9700   69.3240   64.7850 N   0  0  0  0  0  0  0  0  0  0  0  0
    6.8400   70.8920   69.7360 Cl  0  0  0  0  0  0  0  0  0  0  0  0
    6.0210   70.4540   68.2890 C   0  0  0  0  0  0  0  0  0  0  0  0
    6.7350   70.3100   67.1040 C   0  0  0  0  0  0  0  0  0  0  0  0
    6.0680   69.9490   65.9250 C   0  0  0  0  0  0  0  0  0  0  0  0
    4.6800   69.7580   65.9080 C   0  0  0  0  0  0  0  0  0  0  0  0
    3.9920   69.8710   67.1270 C   0  0  0  0  0  0  0  0  0  0  0  0
    4.6500   70.2300   68.3080 C   0  0  0  0  0  0  0  0  0  0  0  0
    1.8175   67.9494   67.3697 H   0  0  0  0  0  0  0  0  0  0  0  0
   -0.3142   68.0383   68.6910 H   0  0  0  0  0  0  0  0  0  0  0  0
   -2.4855   68.5453   67.5735 H   0  0  0  0  0  0  0  0  0  0  0  0
   -2.5671   68.9734   65.0962 H   0  0  0  0  0  0  0  0  0  0  0  0
    3.2982   67.6486   65.8519 H   0  0  0  0  0  0  0  0  0  0  0  0
    3.5916   67.3636   64.1179 H   0  0  0  0  0  0  0  0  0  0  0  0
    3.9864   69.8774   63.9164 H   0  0  0  0  0  0  0  0  0  0  0  0
    7.8218   70.4792   67.0920 H   0  0  0  0  0  0  0  0  0  0  0  0
    6.6439   69.8134   64.9977 H   0  0  0  0  0  0  0  0  0  0  0  0
    2.9104   69.6726   67.1537 H   0  0  0  0  0  0  0  0  0  0  0  0
    4.0853   70.3343   69.2462 H   0  0  0  0  0  0  0  0  0  0  0  0
  2  1  1  0
  3  2  2  0
  4  3  1  0
  5  4  2  0
  6  5  1  0
  7  6  2  0
  7  2  1  0
  8  7  1  0
  9  8  2  0
 10  8  1  0
 10  1  1  0
 11 10  2  0
 12  1  1  0
 13 12  1  0
 15 14  1  0
 16 15  2  0
 17 16  1  0
 18 17  2  0
 18 13  1  0
 19 18  1  0
 20 19  2  0
 20 15  1  0
  3 21  1  0
  4 22  1  0
  5 23  1  0
  6 24  1  0
 12 25  1  0
 12 26  1  0
 13 27  1  0
 16 28  1  0
 17 29  1  0
 19 30  1  0
 20 31  1  0
M  END
>  <score>  (5) 
-9.44

$$$$
=
     RDKit          3D

 31 33  0  0  0  0  0  0  0  0999 V2000
    3.3110   69.6500   67.3950 N   0  0  0  0  0  0  0  0  0  0  0  0
    4.5510   70.0800   67.8990 C   0  0  0  0  0  0  0  0  0  0  0  0
    4.8650   70.5130   69.1740 C   0  0  0  0  0  0  0  0  0  0  0  0
    6.1900   70.8910   69.4300 C   0  0  0  0  0  0  0  0  0  0  0  0
    7.1720   70.8340   68.4210 C   0  0  0  0  0  0  0  0  0  0  0  0
    6.8470   70.3950   67.1370 C   0  0  0  0  0  0  0  0  0  0  0  0
    5.5350   70.0280   66.9130 C   0  0  0  0  0  0  0  0  0  0  0  0
    4.8980   69.5430   65.6900 C   0  0  0  0  0  0  0  0  0  0  0  0
    5.4250   69.3570   64.6160 O   0  0  0  0  0  0  0  0  0  0  0  0
    3.4090   69.3240   66.0540 C   0  0  0  0  0  0  0  0  0  0  0  0
    2.5470   68.9520   65.2870 O   0  0  0  0  0  0  0  0  0  0  0  0
    2.0740   69.6500   68.1210 C   0  0  0  0  0  0  0  0  0  0  0  0
    1.4580   68.3540   67.9280 N   0  0  0  0  0  0  0  0  0  0  0  0
   -4.1960   68.1200   66.1420 Cl  0  0  0  0  0  0  0  0  0  0  0  0
   -2.5640   68.1780   66.6810 C   0  0  0  0  0  0  0  0  0  0  0  0
   -2.0190   67.0940   67.3610 C   0  0  0  0  0  0  0  0  0  0  0  0
   -0.6880   67.1390   67.7960 C   0  0  0  0  0  0  0  0  0  0  0  0
    0.1040   68.2760   67.5860 C   0  0  0  0  0  0  0  0  0  0  0  0
   -0.4600   69.3390   66.8620 C   0  0  0  0  0  0  0  0  0  0  0  0
   -1.7870   69.3010   66.4230 C   0  0  0  0  0  0  0  0  0  0  0  0
    4.0992   70.5593   69.9623 H   0  0  0  0  0  0  0  0  0  0  0  0
    6.4682   71.2382   70.4360 H   0  0  0  0  0  0  0  0  0  0  0  0
    8.2044   71.1384   68.6477 H   0  0  0  0  0  0  0  0  0  0  0  0
    7.6023   70.3436   66.3390 H   0  0  0  0  0  0  0  0  0  0  0  0
    2.2660   69.8193   69.1908 H   0  0  0  0  0  0  0  0  0  0  0  0
    1.4125   70.4517   67.7607 H   0  0  0  0  0  0  0  0  0  0  0  0
    2.0137   67.4943   68.0419 H   0  0  0  0  0  0  0  0  0  0  0  0
   -2.6324   66.2022   67.5571 H   0  0  0  0  0  0  0  0  0  0  0  0
   -0.2575   66.2675   68.3109 H   0  0  0  0  0  0  0  0  0  0  0  0
    0.1562   70.2215   66.6351 H   0  0  0  0  0  0  0  0  0  0  0  0
   -2.2135   70.1551   65.8765 H   0  0  0  0  0  0  0  0  0  0  0  0
  2  1  1  0
  3  2  2  0
  4  3  1  0
  5  4  2  0
  6  5  1  0
  7  6  2  0
  7  2  1  0
  8  7  1  0
  9  8  2  0
 10  8  1  0
 10  1  1  0
 11 10  2  0
 12  1  1  0
 13 12  1  0
 15 14  1  0
 16 15  2  0
 17 16  1  0
 18 17  2  0
 18 13  1  0
 19 18  1  0
 20 19  2  0
 20 15  1  0
  3 21  1  0
  4 22  1  0
  5 23  1  0
  6 24  1  0
 12 25  1  0
 12 26  1  0
 13 27  1  0
 16 28  1  0
 17 29  1  0
 19 30  1  0
 20 31  1  0
M  END
>  <score>  (6) 
-9.372

$$$$
=
     RDKit          3D

 31 33  0  0  0  0  0  0  0  0999 V2000
    2.9610   67.2360   64.6820 N   0  0  0  0  0  0  0  0  0  0  0  0
    3.4420   65.9150   64.6850 C   0  0  0  0  0  0  0  0  0  0  0  0
    3.3420   64.9580   65.6780 C   0  0  0  0  0  0  0  0  0  0  0  0
    3.9080   63.7000   65.4350 C   0  0  0  0  0  0  0  0  0  0  0  0
    4.5600   63.4160   64.2190 C   0  0  0  0  0  0  0  0  0  0  0  0
    4.6570   64.3870   63.2210 C   0  0  0  0  0  0  0  0  0  0  0  0
    4.0890   65.6180   63.4870 C   0  0  0  0  0  0  0  0  0  0  0  0
    4.0360   66.8190   62.6550 C   0  0  0  0  0  0  0  0  0  0  0  0
    4.4840   66.9560   61.5400 O   0  0  0  0  0  0  0  0  0  0  0  0
    3.2910   67.8800   63.5030 C   0  0  0  0  0  0  0  0  0  0  0  0
    3.0760   69.0240   63.1640 O   0  0  0  0  0  0  0  0  0  0  0  0
    2.3150   67.8870   65.7850 C   0  0  0  0  0  0  0  0  0  0  0  0
    2.7790   69.2580   65.8130 N   0  0  0  0  0  0  0  0  0  0  0  0
    7.2980   71.0270   69.2280 Cl  0  0  0  0  0  0  0  0  0  0  0  0
    5.9800   70.5010   68.2570 C   0  0  0  0  0  0  0  0  0  0  0  0
    4.6970   70.4580   68.7930 C   0  0  0  0  0  0  0  0  0  0  0  0
    3.6220   70.0330   68.0000 C   0  0  0  0  0  0  0  0  0  0  0  0
    3.8180   69.6190   66.6760 C   0  0  0  0  0  0  0  0  0  0  0  0
    5.1170   69.7110   66.1500 C   0  0  0  0  0  0  0  0  0  0  0  0
    6.1940   70.1350   66.9340 C   0  0  0  0  0  0  0  0  0  0  0  0
    2.8341   65.1776   66.6287 H   0  0  0  0  0  0  0  0  0  0  0  0
    3.8422   62.9198   66.2076 H   0  0  0  0  0  0  0  0  0  0  0  0
    4.9967   62.4199   64.0545 H   0  0  0  0  0  0  0  0  0  0  0  0
    5.1627   64.1814   62.2660 H   0  0  0  0  0  0  0  0  0  0  0  0
    1.2237   67.8625   65.6489 H   0  0  0  0  0  0  0  0  0  0  0  0
    2.5544   67.3774   66.7300 H   0  0  0  0  0  0  0  0  0  0  0  0
    2.3460   69.9637   65.2004 H   0  0  0  0  0  0  0  0  0  0  0  0
    4.5263   70.7571   69.8377 H   0  0  0  0  0  0  0  0  0  0  0  0
    2.6073   70.0244   68.4245 H   0  0  0  0  0  0  0  0  0  0  0  0
    5.2909   69.4434   65.0973 H   0  0  0  0  0  0  0  0  0  0  0  0
    7.2061   70.1786   66.5054 H   0  0  0  0  0  0  0  0  0  0  0  0
  2  1  1  0
  3  2  2  0
  4  3  1  0
  5  4  2  0
  6  5  1  0
  7  6  2  0
  7  2  1  0
  8  7  1  0
  9  8  2  0
 10  8  1  0
 10  1  1  0
 11 10  2  0
 12  1  1  0
 13 12  1  0
 15 14  1  0
 16 15  2  0
 17 16  1  0
 18 17  2  0
 18 13  1  0
 19 18  1  0
 20 19  2  0
 20 15  1  0
  3 21  1  0
  4 22  1  0
  5 23  1  0
  6 24  1  0
 12 25  1  0
 12 26  1  0
 13 27  1  0
 16 28  1  0
 17 29  1  0
 19 30  1  0
 20 31  1  0
M  END
>  <score>  (7) 
-9.161

$$$$
=
     RDKit          3D

 31 33  0  0  0  0  0  0  0  0999 V2000
    3.5550   68.7340   63.8450 N   0  0  0  0  0  0  0  0  0  0  0  0
    2.1570   68.8020   63.7130 C   0  0  0  0  0  0  0  0  0  0  0  0
    1.1930   68.8200   64.7030 C   0  0  0  0  0  0  0  0  0  0  0  0
   -0.1500   68.8930   64.3100 C   0  0  0  0  0  0  0  0  0  0  0  0
   -0.5090   68.9470   62.9480 C   0  0  0  0  0  0  0  0  0  0  0  0
    0.4700   68.9280   61.9540 C   0  0  0  0  0  0  0  0  0  0  0  0
    1.7850   68.8560   62.3700 C   0  0  0  0  0  0  0  0  0  0  0  0
    3.0130   68.8130   61.5780 C   0  0  0  0  0  0  0  0  0  0  0  0
    3.1060   68.8460   60.3720 O   0  0  0  0  0  0  0  0  0  0  0  0
    4.1680   68.7110   62.6050 C   0  0  0  0  0  0  0  0  0  0  0  0
    5.3450   68.6230   62.3290 O   0  0  0  0  0  0  0  0  0  0  0  0
    4.2660   68.5920   65.0820 C   0  0  0  0  0  0  0  0  0  0  0  0
    4.4690   69.9210   65.6210 N   0  0  0  0  0  0  0  0  0  0  0  0
    7.4440   70.8600   70.6680 Cl  0  0  0  0  0  0  0  0  0  0  0  0
    6.5680   70.5720   69.2170 C   0  0  0  0  0  0  0  0  0  0  0  0
    5.1810   70.4830   69.2500 C   0  0  0  0  0  0  0  0  0  0  0  0
    4.4660   70.2530   68.0670 C   0  0  0  0  0  0  0  0  0  0  0  0
    5.1270   70.0780   66.8450 C   0  0  0  0  0  0  0  0  0  0  0  0
    6.5250   70.2120   66.8350 C   0  0  0  0  0  0  0  0  0  0  0  0
    7.2450   70.4440   68.0110 C   0  0  0  0  0  0  0  0  0  0  0  0
    1.4713   68.7783   65.7664 H   0  0  0  0  0  0  0  0  0  0  0  0
   -0.9377   68.9084   65.0776 H   0  0  0  0  0  0  0  0  0  0  0  0
   -1.5707   69.0046   62.6662 H   0  0  0  0  0  0  0  0  0  0  0  0
    0.2063   68.9685   60.8869 H   0  0  0  0  0  0  0  0  0  0  0  0
    3.6770   67.9866   65.7867 H   0  0  0  0  0  0  0  0  0  0  0  0
    5.2300   68.0877   64.9197 H   0  0  0  0  0  0  0  0  0  0  0  0
    4.1305   70.7460   65.1056 H   0  0  0  0  0  0  0  0  0  0  0  0
    4.6451   70.5931   70.2043 H   0  0  0  0  0  0  0  0  0  0  0  0
    3.3673   70.2092   68.0988 H   0  0  0  0  0  0  0  0  0  0  0  0
    7.0658   70.1326   65.8804 H   0  0  0  0  0  0  0  0  0  0  0  0
    8.3416   70.5247   67.9812 H   0  0  0  0  0  0  0  0  0  0  0  0
  2  1  1  0
  3  2  2  0
  4  3  1  0
  5  4  2  0
  6  5  1  0
  7  6  2  0
  7  2  1  0
  8  7  1  0
  9  8  2  0
 10  8  1  0
 10  1  1  0
 11 10  2  0
 12  1  1  0
 13 12  1  0
 15 14  1  0
 16 15  2  0
 17 16  1  0
 18 17  2  0
 18 13  1  0
 19 18  1  0
 20 19  2  0
 20 15  1  0
  3 21  1  0
  4 22  1  0
  5 23  1  0
  6 24  1  0
 12 25  1  0
 12 26  1  0
 13 27  1  0
 16 28  1  0
 17 29  1  0
 19 30  1  0
 20 31  1  0
M  END
>  <score>  (8) 
-9.155

$$$$
=
     RDKit          3D

 31 33  0  0  0  0  0  0  0  0999 V2000
    2.6280   69.5150   66.8200 N   0  0  0  0  0  0  0  0  0  0  0  0
    3.8510   69.9160   67.3860 C   0  0  0  0  0  0  0  0  0  0  0  0
    4.1020   70.3940   68.6580 C   0  0  0  0  0  0  0  0  0  0  0  0
    5.4240   70.7280   68.9840 C   0  0  0  0  0  0  0  0  0  0  0  0
    6.4650   70.5830   68.0460 C   0  0  0  0  0  0  0  0  0  0  0  0
    6.2030   70.1000   66.7630 C   0  0  0  0  0  0  0  0  0  0  0  0
    4.8930   69.7780   66.4700 C   0  0  0  0  0  0  0  0  0  0  0  0
    4.3140   69.2640   65.2290 C   0  0  0  0  0  0  0  0  0  0  0  0
    4.8990   69.0060   64.2020 O   0  0  0  0  0  0  0  0  0  0  0  0
    2.7970   69.1230   65.5050 C   0  0  0  0  0  0  0  0  0  0  0  0
    1.9690   68.7520   64.7000 O   0  0  0  0  0  0  0  0  0  0  0  0
    1.3490   69.6000   67.4630 C   0  0  0  0  0  0  0  0  0  0  0  0
    0.6460   68.3620   67.1970 N   0  0  0  0  0  0  0  0  0  0  0  0
    0.2170   64.5620   71.7340 Cl  0  0  0  0  0  0  0  0  0  0  0  0
    0.3300   65.6480   70.4050 C   0  0  0  0  0  0  0  0  0  0  0  0
   -0.7650   65.8370   69.5690 C   0  0  0  0  0  0  0  0  0  0  0  0
   -0.6750   66.7240   68.4880 C   0  0  0  0  0  0  0  0  0  0  0  0
    0.5160   67.4080   68.2120 C   0  0  0  0  0  0  0  0  0  0  0  0
    1.5920   67.2280   69.0960 C   0  0  0  0  0  0  0  0  0  0  0  0
    1.5090   66.3460   70.1770 C   0  0  0  0  0  0  0  0  0  0  0  0
    3.2903   70.5088   69.3915 H   0  0  0  0  0  0  0  0  0  0  0  0
    5.6524   71.1100   69.9899 H   0  0  0  0  0  0  0  0  0  0  0  0
    7.4936   70.8529   68.3273 H   0  0  0  0  0  0  0  0  0  0  0  0
    7.0043   69.9813   66.0188 H   0  0  0  0  0  0  0  0  0  0  0  0
    1.4814   69.7315   68.5471 H   0  0  0  0  0  0  0  0  0  0  0  0
    0.7790   70.4596   67.0806 H   0  0  0  0  0  0  0  0  0  0  0  0
    0.2439   68.1849   66.2654 H   0  0  0  0  0  0  0  0  0  0  0  0
   -1.7012   65.2906   69.7562 H   0  0  0  0  0  0  0  0  0  0  0  0
   -1.5534   66.8858   67.8460 H   0  0  0  0  0  0  0  0  0  0  0  0
    2.5212   67.7939   68.9341 H   0  0  0  0  0  0  0  0  0  0  0  0
    2.3727   66.2054   70.8436 H   0  0  0  0  0  0  0  0  0  0  0  0
  2  1  1  0
  3  2  2  0
  4  3  1  0
  5  4  2  0
  6  5  1  0
  7  6  2  0
  7  2  1  0
  8  7  1  0
  9  8  2  0
 10  8  1  0
 10  1  1  0
 11 10  2  0
 12  1  1  0
 13 12  1  0
 15 14  1  0
 16 15  2  0
 17 16  1  0
 18 17  2  0
 18 13  1  0
 19 18  1  0
 20 19  2  0
 20 15  1  0
  3 21  1  0
  4 22  1  0
  5 23  1  0
  6 24  1  0
 12 25  1  0
 12 26  1  0
 13 27  1  0
 16 28  1  0
 17 29  1  0
 19 30  1  0
 20 31  1  0
M  END
>  <score>  (9) 
-8.952

$$$$
