=
     RDKit          3D

 43 46  0  0  0  0  0  0  0  0999 V2000
    1.0760   67.2880   67.9520 C   0  0  0  0  0  0  0  0  0  0  0  0
    1.4390   66.4710   69.0000 N   0  0  0  0  0  0  0  0  0  0  0  0
    0.3240   66.0000   69.5210 C   0  0  0  0  0  0  0  0  0  0  0  0
   -0.7510   66.4820   68.8110 N   0  0  0  0  0  0  0  0  0  0  0  0
   -0.3010   67.2970   67.7960 C   0  0  0  0  0  0  0  0  0  0  0  0
    4.8870   69.8810   64.7920 F   0  0  0  0  0  0  0  0  0  0  0  0
    3.9760   69.2630   65.5560 C   0  0  0  0  0  0  0  0  0  0  0  0
    3.3400   68.1240   65.0790 C   0  0  0  0  0  0  0  0  0  0  0  0
    2.3900   67.4840   65.8770 C   0  0  0  0  0  0  0  0  0  0  0  0
    2.0680   67.9850   67.1490 C   0  0  0  0  0  0  0  0  0  0  0  0
    2.7350   69.1270   67.6160 C   0  0  0  0  0  0  0  0  0  0  0  0
    3.6860   69.7690   66.8170 C   0  0  0  0  0  0  0  0  0  0  0  0
   -1.2070   67.8910   66.8210 C   0  0  0  0  0  0  0  0  0  0  0  0
   -2.5860   67.8690   67.0310 C   0  0  0  0  0  0  0  0  0  0  0  0
   -3.4080   68.4500   66.0800 C   0  0  0  0  0  0  0  0  0  0  0  0
   -2.9520   69.0410   64.9550 N   0  0  0  0  0  0  0  0  0  0  0  0
   -1.6160   69.0460   64.7710 C   0  0  0  0  0  0  0  0  0  0  0  0
   -0.7120   68.4950   65.6640 C   0  0  0  0  0  0  0  0  0  0  0  0
    0.2290   65.0810   70.6610 C   0  0  0  0  0  0  0  0  0  0  0  0
   -0.0330   65.5190   71.9670 C   0  0  0  0  0  0  0  0  0  0  0  0
   -0.1140   64.6040   73.0250 C   0  0  0  0  0  0  0  0  0  0  0  0
    0.0670   63.2370   72.7950 C   0  0  0  0  0  0  0  0  0  0  0  0
    0.3240   62.7910   71.4980 C   0  0  0  0  0  0  0  0  0  0  0  0
    0.4090   63.7060   70.4450 C   0  0  0  0  0  0  0  0  0  0  0  0
   -0.0440   62.0740   74.1730 S   0  0  0  0  0  3  0  0  0  0  0  0
   -0.6130   60.6490   73.2120 C   0  0  0  0  0  0  0  0  0  0  0  0
   -1.3140   62.5650   75.1210 O   0  0  0  0  0  1  0  0  0  0  0  0
   -1.7389   66.2669   69.0078 H   0  0  0  0  0  0  0  0  0  0  0  0
    3.5828   67.7297   64.0812 H   0  0  0  0  0  0  0  0  0  0  0  0
    1.8885   66.5781   65.5058 H   0  0  0  0  0  0  0  0  0  0  0  0
    2.5083   69.5204   68.6179 H   0  0  0  0  0  0  0  0  0  0  0  0
    4.2012   70.6688   67.1844 H   0  0  0  0  0  0  0  0  0  0  0  0
   -3.0106   67.4009   67.9313 H   0  0  0  0  0  0  0  0  0  0  0  0
   -4.4944   68.4288   66.2509 H   0  0  0  0  0  0  0  0  0  0  0  0
   -1.2210   69.5153   63.8579 H   0  0  0  0  0  0  0  0  0  0  0  0
    0.3694   68.5324   65.4663 H   0  0  0  0  0  0  0  0  0  0  0  0
   -0.1764   66.5919   72.1629 H   0  0  0  0  0  0  0  0  0  0  0  0
   -0.3214   64.9637   74.0436 H   0  0  0  0  0  0  0  0  0  0  0  0
    0.4600   61.7168   71.3039 H   0  0  0  0  0  0  0  0  0  0  0  0
    0.6208   63.3420   69.4288 H   0  0  0  0  0  0  0  0  0  0  0  0
   -0.9324   59.8492   73.8963 H   0  0  0  0  0  0  0  0  0  0  0  0
   -1.4603   60.9491   72.5779 H   0  0  0  0  0  0  0  0  0  0  0  0
    0.2079   60.2830   72.5779 H   0  0  0  0  0  0  0  0  0  0  0  0
  2  1  1  0
  3  2  2  0
  4  3  1  0
  5  4  1  0
  5  1  2  0
  7  6  1  0
  8  7  2  0
  9  8  1  0
 10  9  2  0
 10  1  1  0
 11 10  1  0
 12 11  2  0
 12  7  1  0
 13  5  1  0
 14 13  2  0
 15 14  1  0
 16 15  2  0
 17 16  1  0
 18 17  2  0
 18 13  1  0
 19  3  1  0
 20 19  2  0
 21 20  1  0
 22 21  2  0
 23 22  1  0
 24 19  1  0
 24 23  2  0
 25 22  1  0
 26 25  1  0
 25 27  1  1
  4 28  1  0
  8 29  1  0
  9 30  1  0
 11 31  1  0
 12 32  1  0
 14 33  1  0
 15 34  1  0
 17 35  1  0
 18 36  1  0
 20 37  1  0
 21 38  1  0
 23 39  1  0
 24 40  1  0
 26 41  1  0
 26 42  1  0
 26 43  1  0
M  CHG  2  25   1  27  -1
M  END
>  <score>  (1) 
-9.438

$$$$
=
     RDKit          3D

 43 46  0  0  0  0  0  0  0  0999 V2000
    0.5920   62.4300   71.9740 C   0  0  0  0  0  0  0  0  0  0  0  0
   -0.6110   62.1780   72.5960 N   0  0  0  0  0  0  0  0  0  0  0  0
   -0.5460   60.9490   73.0690 C   0  0  0  0  0  0  0  0  0  0  0  0
    0.6870   60.4130   72.7810 N   0  0  0  0  0  0  0  0  0  0  0  0
    1.4400   61.3400   72.0930 C   0  0  0  0  0  0  0  0  0  0  0  0
    1.5420   67.3640   69.5290 F   0  0  0  0  0  0  0  0  0  0  0  0
    1.3190   66.1780   70.1110 C   0  0  0  0  0  0  0  0  0  0  0  0
    0.2090   66.0130   70.9280 C   0  0  0  0  0  0  0  0  0  0  0  0
   -0.0190   64.7760   71.5340 C   0  0  0  0  0  0  0  0  0  0  0  0
    0.8660   63.7040   71.3300 C   0  0  0  0  0  0  0  0  0  0  0  0
    1.9710   63.8890   70.4860 C   0  0  0  0  0  0  0  0  0  0  0  0
    2.2000   65.1280   69.8810 C   0  0  0  0  0  0  0  0  0  0  0  0
    2.8260   61.0880   71.7210 C   0  0  0  0  0  0  0  0  0  0  0  0
    3.1350   60.5110   70.4890 C   0  0  0  0  0  0  0  0  0  0  0  0
    4.4660   60.2960   70.1760 C   0  0  0  0  0  0  0  0  0  0  0  0
    5.4900   60.6140   70.9960 N   0  0  0  0  0  0  0  0  0  0  0  0
    5.1680   61.1670   72.1840 C   0  0  0  0  0  0  0  0  0  0  0  0
    3.8680   61.4250   72.5860 C   0  0  0  0  0  0  0  0  0  0  0  0
   -1.6040   60.2580   73.8140 C   0  0  0  0  0  0  0  0  0  0  0  0
   -1.4280   58.9840   74.3740 C   0  0  0  0  0  0  0  0  0  0  0  0
   -2.4680   58.3620   75.0770 C   0  0  0  0  0  0  0  0  0  0  0  0
   -3.7020   59.0020   75.2300 C   0  0  0  0  0  0  0  0  0  0  0  0
   -3.8850   60.2710   74.6800 C   0  0  0  0  0  0  0  0  0  0  0  0
   -2.8480   60.8880   73.9750 C   0  0  0  0  0  0  0  0  0  0  0  0
   -5.0290   58.1830   76.1420 S   0  0  0  0  0  3  0  0  0  0  0  0
   -6.1700   57.9970   74.7480 C   0  0  0  0  0  0  0  0  0  0  0  0
   -5.6840   59.3140   77.1630 O   0  0  0  0  0  1  0  0  0  0  0  0
    0.9993   59.4661   73.0392 H   0  0  0  0  0  0  0  0  0  0  0  0
   -0.4850   66.8496   71.0965 H   0  0  0  0  0  0  0  0  0  0  0  0
   -0.9005   64.6393   72.1777 H   0  0  0  0  0  0  0  0  0  0  0  0
    2.6618   63.0536   70.2991 H   0  0  0  0  0  0  0  0  0  0  0  0
    3.0725   65.2712   69.2266 H   0  0  0  0  0  0  0  0  0  0  0  0
    2.3390   60.2332   69.7824 H   0  0  0  0  0  0  0  0  0  0  0  0
    4.7029   59.8399   69.2034 H   0  0  0  0  0  0  0  0  0  0  0  0
    5.9850   61.4279   72.8728 H   0  0  0  0  0  0  0  0  0  0  0  0
    3.6617   61.8846   73.5639 H   0  0  0  0  0  0  0  0  0  0  0  0
   -0.4633   58.4679   74.2600 H   0  0  0  0  0  0  0  0  0  0  0  0
   -2.3129   57.3635   75.5116 H   0  0  0  0  0  0  0  0  0  0  0  0
   -4.8485   60.7875   74.8016 H   0  0  0  0  0  0  0  0  0  0  0  0
   -3.0094   61.8848   73.5386 H   0  0  0  0  0  0  0  0  0  0  0  0
   -7.1889   57.8309   75.1278 H   0  0  0  0  0  0  0  0  0  0  0  0
   -6.1516   58.9100   74.1347 H   0  0  0  0  0  0  0  0  0  0  0  0
   -5.8626   57.1371   74.1347 H   0  0  0  0  0  0  0  0  0  0  0  0
  2  1  1  0
  3  2  2  0
  4  3  1  0
  5  4  1  0
  5  1  2  0
  7  6  1  0
  8  7  2  0
  9  8  1  0
 10  9  2  0
 10  1  1  0
 11 10  1  0
 12 11  2  0
 12  7  1  0
 13  5  1  0
 14 13  2  0
 15 14  1  0
 16 15  2  0
 17 16  1  0
 18 17  2  0
 18 13  1  0
 19  3  1  0
 20 19  2  0
 21 20  1  0
 22 21  2  0
 23 22  1  0
 24 19  1  0
 24 23  2  0
 25 22  1  0
 26 25  1  0
 25 27  1  1
  4 28  1  0
  8 29  1  0
  9 30  1  0
 11 31  1  0
 12 32  1  0
 14 33  1  0
 15 34  1  0
 17 35  1  0
 18 36  1  0
 20 37  1  0
 21 38  1  0
 23 39  1  0
 24 40  1  0
 26 41  1  0
 26 42  1  0
 26 43  1  0
M  CHG  2  25   1  27  -1
M  END
>  <score>  (2) 
-9.202

$$$$
=
     RDKit          3D

 43 46  0  0  0  0  0  0  0  0999 V2000
    0.8330   64.0570   72.1240 C   0  0  0  0  0  0  0  0  0  0  0  0
    0.0810   64.9740   71.4240 N   0  0  0  0  0  0  0  0  0  0  0  0
    0.7720   65.2900   70.3450 C   0  0  0  0  0  0  0  0  0  0  0  0
    1.9450   64.5750   70.3290 N   0  0  0  0  0  0  0  0  0  0  0  0
    2.0070   63.7700   71.4460 C   0  0  0  0  0  0  0  0  0  0  0  0
   -1.0100   61.8160   76.9000 F   0  0  0  0  0  0  0  0  0  0  0  0
   -0.5670   62.3600   75.7590 C   0  0  0  0  0  0  0  0  0  0  0  0
   -0.8760   61.7570   74.5470 C   0  0  0  0  0  0  0  0  0  0  0  0
   -0.4110   62.3260   73.3590 C   0  0  0  0  0  0  0  0  0  0  0  0
    0.3710   63.4920   73.3820 C   0  0  0  0  0  0  0  0  0  0  0  0
    0.6570   64.0930   74.6170 C   0  0  0  0  0  0  0  0  0  0  0  0
    0.1920   63.5230   75.8060 C   0  0  0  0  0  0  0  0  0  0  0  0
    3.1010   62.8310   71.6640 C   0  0  0  0  0  0  0  0  0  0  0  0
    4.2060   62.8220   70.8120 C   0  0  0  0  0  0  0  0  0  0  0  0
    5.2230   61.9160   71.0610 C   0  0  0  0  0  0  0  0  0  0  0  0
    5.2100   61.0370   72.0850 N   0  0  0  0  0  0  0  0  0  0  0  0
    4.1300   61.0610   72.8930 C   0  0  0  0  0  0  0  0  0  0  0  0
    3.0650   61.9300   72.7290 C   0  0  0  0  0  0  0  0  0  0  0  0
    0.3530   66.2340   69.3030 C   0  0  0  0  0  0  0  0  0  0  0  0
    1.1940   67.2410   68.8110 C   0  0  0  0  0  0  0  0  0  0  0  0
    0.7510   68.1210   67.8140 C   0  0  0  0  0  0  0  0  0  0  0  0
   -0.5420   68.0080   67.2950 C   0  0  0  0  0  0  0  0  0  0  0  0
   -1.3860   67.0060   67.7750 C   0  0  0  0  0  0  0  0  0  0  0  0
   -0.9430   66.1330   68.7720 C   0  0  0  0  0  0  0  0  0  0  0  0
   -1.0940   69.1500   66.0090 S   0  0  0  0  0  3  0  0  0  0  0  0
   -2.8370   68.6600   66.0130 C   0  0  0  0  0  0  0  0  0  0  0  0
   -0.4400   68.6230   64.5790 O   0  0  0  0  0  1  0  0  0  0  0  0
    2.6663   64.6317   69.5959 H   0  0  0  0  0  0  0  0  0  0  0  0
   -1.4817   60.8391   74.5226 H   0  0  0  0  0  0  0  0  0  0  0  0
   -0.6599   61.8560   72.3961 H   0  0  0  0  0  0  0  0  0  0  0  0
    1.2508   65.0184   74.6501 H   0  0  0  0  0  0  0  0  0  0  0  0
    0.4256   63.9925   76.7730 H   0  0  0  0  0  0  0  0  0  0  0  0
    4.2677   63.5182   69.9626 H   0  0  0  0  0  0  0  0  0  0  0  0
    6.0912   61.9125   70.3856 H   0  0  0  0  0  0  0  0  0  0  0  0
    4.0935   60.3489   73.7306 H   0  0  0  0  0  0  0  0  0  0  0  0
    2.2107   61.9108   73.4217 H   0  0  0  0  0  0  0  0  0  0  0  0
    2.2134   67.3421   69.2117 H   0  0  0  0  0  0  0  0  0  0  0  0
    1.4247   68.9050   67.4378 H   0  0  0  0  0  0  0  0  0  0  0  0
   -2.4026   66.9031   67.3676 H   0  0  0  0  0  0  0  0  0  0  0  0
   -1.6215   65.3528   69.1475 H   0  0  0  0  0  0  0  0  0  0  0  0
   -3.1878   68.5614   67.0509 H   0  0  0  0  0  0  0  0  0  0  0  0
   -3.4342   69.4251   65.4953 H   0  0  0  0  0  0  0  0  0  0  0  0
   -2.9480   67.6958   65.4953 H   0  0  0  0  0  0  0  0  0  0  0  0
  2  1  1  0
  3  2  2  0
  4  3  1  0
  5  4  1  0
  5  1  2  0
  7  6  1  0
  8  7  2  0
  9  8  1  0
 10  9  2  0
 10  1  1  0
 11 10  1  0
 12 11  2  0
 12  7  1  0
 13  5  1  0
 14 13  2  0
 15 14  1  0
 16 15  2  0
 17 16  1  0
 18 17  2  0
 18 13  1  0
 19  3  1  0
 20 19  2  0
 21 20  1  0
 22 21  2  0
 23 22  1  0
 24 19  1  0
 24 23  2  0
 25 22  1  0
 26 25  1  0
 25 27  1  6
  4 28  1  0
  8 29  1  0
  9 30  1  0
 11 31  1  0
 12 32  1  0
 14 33  1  0
 15 34  1  0
 17 35  1  0
 18 36  1  0
 20 37  1  0
 21 38  1  0
 23 39  1  0
 24 40  1  0
 26 41  1  0
 26 42  1  0
 26 43  1  0
M  CHG  2  25   1  27  -1
M  END
>  <score>  (3) 
-9.194

$$$$
=
     RDKit          3D

 43 46  0  0  0  0  0  0  0  0999 V2000
    1.8020   63.9300   71.1110 C   0  0  0  0  0  0  0  0  0  0  0  0
    1.6830   64.6760   69.9600 N   0  0  0  0  0  0  0  0  0  0  0  0
    0.5420   65.3320   70.0470 C   0  0  0  0  0  0  0  0  0  0  0  0
   -0.0650   65.0370   71.2450 N   0  0  0  0  0  0  0  0  0  0  0  0
    0.7220   64.1530   71.9510 C   0  0  0  0  0  0  0  0  0  0  0  0
    6.1620   60.5790   72.1050 F   0  0  0  0  0  0  0  0  0  0  0  0
    5.1220   61.3880   71.8640 C   0  0  0  0  0  0  0  0  0  0  0  0
    3.8880   61.1060   72.4360 C   0  0  0  0  0  0  0  0  0  0  0  0
    2.8050   61.9500   72.1820 C   0  0  0  0  0  0  0  0  0  0  0  0
    2.9520   63.0720   71.3490 C   0  0  0  0  0  0  0  0  0  0  0  0
    4.2110   63.3460   70.7960 C   0  0  0  0  0  0  0  0  0  0  0  0
    5.2950   62.5000   71.0500 C   0  0  0  0  0  0  0  0  0  0  0  0
    0.3790   63.7190   73.3000 C   0  0  0  0  0  0  0  0  0  0  0  0
    0.7670   64.4740   74.4070 C   0  0  0  0  0  0  0  0  0  0  0  0
    0.4140   64.0250   75.6680 C   0  0  0  0  0  0  0  0  0  0  0  0
   -0.2880   62.8950   75.8920 N   0  0  0  0  0  0  0  0  0  0  0  0
   -0.6480   62.1780   74.8080 C   0  0  0  0  0  0  0  0  0  0  0  0
   -0.3470   62.5450   73.5070 C   0  0  0  0  0  0  0  0  0  0  0  0
    0.0040   66.2580   69.0430 C   0  0  0  0  0  0  0  0  0  0  0  0
   -1.3200   66.1940   68.5870 C   0  0  0  0  0  0  0  0  0  0  0  0
   -1.7900   67.0990   67.6260 C   0  0  0  0  0  0  0  0  0  0  0  0
   -0.9420   68.0810   67.1040 C   0  0  0  0  0  0  0  0  0  0  0  0
    0.3760   68.1550   67.5550 C   0  0  0  0  0  0  0  0  0  0  0  0
    0.8440   67.2480   68.5100 C   0  0  0  0  0  0  0  0  0  0  0  0
   -1.5680   69.2400   65.8680 S   0  0  0  0  0  3  0  0  0  0  0  0
   -3.2990   68.7080   65.9250 C   0  0  0  0  0  0  0  0  0  0  0  0
   -0.9570   68.7620   64.4020 O   0  0  0  0  0  1  0  0  0  0  0  0
   -0.9672   65.4174   71.5649 H   0  0  0  0  0  0  0  0  0  0  0  0
    3.7650   60.2253   73.0835 H   0  0  0  0  0  0  0  0  0  0  0  0
    1.8276   61.7345   72.6383 H   0  0  0  0  0  0  0  0  0  0  0  0
    4.3468   64.2320   70.1584 H   0  0  0  0  0  0  0  0  0  0  0  0
    6.2791   62.7140   70.6077 H   0  0  0  0  0  0  0  0  0  0  0  0
    1.3401   65.4044   74.2808 H   0  0  0  0  0  0  0  0  0  0  0  0
    0.7236   64.6239   76.5371 H   0  0  0  0  0  0  0  0  0  0  0  0
   -1.2134   61.2478   74.9664 H   0  0  0  0  0  0  0  0  0  0  0  0
   -0.6721   61.9264   72.6575 H   0  0  0  0  0  0  0  0  0  0  0  0
   -1.9971   65.4253   68.9878 H   0  0  0  0  0  0  0  0  0  0  0  0
   -2.8323   67.0367   67.2800 H   0  0  0  0  0  0  0  0  0  0  0  0
    1.0489   68.9293   67.1579 H   0  0  0  0  0  0  0  0  0  0  0  0
    1.8884   67.3112   68.8496 H   0  0  0  0  0  0  0  0  0  0  0  0
   -3.6181   68.6099   66.9731 H   0  0  0  0  0  0  0  0  0  0  0  0
   -3.9288   69.4541   65.4182 H   0  0  0  0  0  0  0  0  0  0  0  0
   -3.4011   67.7370   65.4182 H   0  0  0  0  0  0  0  0  0  0  0  0
  2  1  1  0
  3  2  2  0
  4  3  1  0
  5  4  1  0
  5  1  2  0
  7  6  1  0
  8  7  2  0
  9  8  1  0
 10  9  2  0
 10  1  1  0
 11 10  1  0
 12 11  2  0
 12  7  1  0
 13  5  1  0
 14 13  2  0
 15 14  1  0
 16 15  2  0
 17 16  1  0
 18 17  2  0
 18 13  1  0
 19  3  1  0
 20 19  2  0
 21 20  1  0
 22 21  2  0
 23 22  1  0
 24 19  1  0
 24 23  2  0
 25 22  1  0
 26 25  1  0
 25 27  1  6
  4 28  1  0
  8 29  1  0
  9 30  1  0
 11 31  1  0
 12 32  1  0
 14 33  1  0
 15 34  1  0
 17 35  1  0
 18 36  1  0
 20 37  1  0
 21 38  1  0
 23 39  1  0
 24 40  1  0
 26 41  1  0
 26 42  1  0
 26 43  1  0
M  CHG  2  25   1  27  -1
M  END
>  <score>  (4) 
-8.963

$$$$
=
     RDKit          3D

 43 46  0  0  0  0  0  0  0  0999 V2000
   -0.0490   66.9640   68.4760 C   0  0  0  0  0  0  0  0  0  0  0  0
   -0.4190   65.9020   69.2700 N   0  0  0  0  0  0  0  0  0  0  0  0
    0.6470   65.5540   69.9640 C   0  0  0  0  0  0  0  0  0  0  0  0
    1.6910   66.3900   69.6470 N   0  0  0  0  0  0  0  0  0  0  0  0
    1.2740   67.3090   68.7080 C   0  0  0  0  0  0  0  0  0  0  0  0
   -3.7370   69.3390   65.0140 F   0  0  0  0  0  0  0  0  0  0  0  0
   -2.8470   68.7720   65.8390 C   0  0  0  0  0  0  0  0  0  0  0  0
   -3.2760   67.8370   66.7720 C   0  0  0  0  0  0  0  0  0  0  0  0
   -2.3460   67.2490   67.6310 C   0  0  0  0  0  0  0  0  0  0  0  0
   -0.9880   67.6020   67.5660 C   0  0  0  0  0  0  0  0  0  0  0  0
   -0.5750   68.5360   66.6050 C   0  0  0  0  0  0  0  0  0  0  0  0
   -1.5070   69.1250   65.7450 C   0  0  0  0  0  0  0  0  0  0  0  0
    2.1400   68.3810   68.2360 C   0  0  0  0  0  0  0  0  0  0  0  0
    2.5480   69.3950   69.1030 C   0  0  0  0  0  0  0  0  0  0  0  0
    3.3760   70.3910   68.6110 C   0  0  0  0  0  0  0  0  0  0  0  0
    3.8160   70.4380   67.3360 N   0  0  0  0  0  0  0  0  0  0  0  0
    3.4060   69.4500   66.5150 C   0  0  0  0  0  0  0  0  0  0  0  0
    2.5820   68.4100   66.9120 C   0  0  0  0  0  0  0  0  0  0  0  0
    0.7150   64.4670   70.9470 C   0  0  0  0  0  0  0  0  0  0  0  0
    0.1700   64.5750   72.2350 C   0  0  0  0  0  0  0  0  0  0  0  0
    0.2590   63.5110   73.1410 C   0  0  0  0  0  0  0  0  0  0  0  0
    0.8980   62.3220   72.7760 C   0  0  0  0  0  0  0  0  0  0  0  0
    1.4400   62.2040   71.4960 C   0  0  0  0  0  0  0  0  0  0  0  0
    1.3530   63.2680   70.5950 C   0  0  0  0  0  0  0  0  0  0  0  0
    1.0020   60.9600   73.9590 S   0  0  0  0  0  3  0  0  0  0  0  0
    2.8080   60.8260   73.9810 C   0  0  0  0  0  0  0  0  0  0  0  0
    0.4200   59.6080   73.1940 O   0  0  0  0  0  1  0  0  0  0  0  0
    2.6380   66.3379   70.0488 H   0  0  0  0  0  0  0  0  0  0  0  0
   -4.3393   67.5622   66.8335 H   0  0  0  0  0  0  0  0  0  0  0  0
   -2.6799   66.5019   68.3660 H   0  0  0  0  0  0  0  0  0  0  0  0
    0.4883   68.8069   66.5273 H   0  0  0  0  0  0  0  0  0  0  0  0
   -1.1807   69.8638   64.9982 H   0  0  0  0  0  0  0  0  0  0  0  0
    2.2199   69.4036   70.1529 H   0  0  0  0  0  0  0  0  0  0  0  0
    3.6928   71.1889   69.2988 H   0  0  0  0  0  0  0  0  0  0  0  0
    3.7458   69.4713   65.4690 H   0  0  0  0  0  0  0  0  0  0  0  0
    2.2830   67.6256   66.2011 H   0  0  0  0  0  0  0  0  0  0  0  0
   -0.3328   65.5057   72.5366 H   0  0  0  0  0  0  0  0  0  0  0  0
   -0.1765   63.6112   74.1461 H   0  0  0  0  0  0  0  0  0  0  0  0
    1.9375   61.2702   71.1952 H   0  0  0  0  0  0  0  0  0  0  0  0
    1.7924   63.1640   69.5920 H   0  0  0  0  0  0  0  0  0  0  0  0
    3.1611   60.7998   75.0225 H   0  0  0  0  0  0  0  0  0  0  0  0
    3.1135   59.9027   73.4669 H   0  0  0  0  0  0  0  0  0  0  0  0
    3.2464   61.6941   73.4669 H   0  0  0  0  0  0  0  0  0  0  0  0
  2  1  1  0
  3  2  2  0
  4  3  1  0
  5  4  1  0
  5  1  2  0
  7  6  1  0
  8  7  2  0
  9  8  1  0
 10  9  2  0
 10  1  1  0
 11 10  1  0
 12 11  2  0
 12  7  1  0
 13  5  1  0
 14 13  2  0
 15 14  1  0
 16 15  2  0
 17 16  1  0
 18 17  2  0
 18 13  1  0
 19  3  1  0
 20 19  2  0
 21 20  1  0
 22 21  2  0
 23 22  1  0
 24 19  1  0
 24 23  2  0
 25 22  1  0
 26 25  1  0
 25 27  1  6
  4 28  1  0
  8 29  1  0
  9 30  1  0
 11 31  1  0
 12 32  1  0
 14 33  1  0
 15 34  1  0
 17 35  1  0
 18 36  1  0
 20 37  1  0
 21 38  1  0
 23 39  1  0
 24 40  1  0
 26 41  1  0
 26 42  1  0
 26 43  1  0
M  CHG  2  25   1  27  -1
M  END
>  <score>  (5) 
-8.848

$$$$
=
     RDKit          3D

 43 46  0  0  0  0  0  0  0  0999 V2000
    0.6990   60.8730   72.6110 C   0  0  0  0  0  0  0  0  0  0  0  0
   -0.2740   60.1540   73.2710 N   0  0  0  0  0  0  0  0  0  0  0  0
    0.1840   58.9250   73.4040 C   0  0  0  0  0  0  0  0  0  0  0  0
    1.4440   58.8460   72.8600 N   0  0  0  0  0  0  0  0  0  0  0  0
    1.8050   60.0770   72.3570 C   0  0  0  0  0  0  0  0  0  0  0  0
   -0.0160   66.2990   71.4830 F   0  0  0  0  0  0  0  0  0  0  0  0
    0.1550   64.9970   71.7460 C   0  0  0  0  0  0  0  0  0  0  0  0
    0.0660   64.5450   73.0560 C   0  0  0  0  0  0  0  0  0  0  0  0
    0.2460   63.1870   73.3270 C   0  0  0  0  0  0  0  0  0  0  0  0
    0.5220   62.2800   72.2900 C   0  0  0  0  0  0  0  0  0  0  0  0
    0.5900   62.7570   70.9720 C   0  0  0  0  0  0  0  0  0  0  0  0
    0.4110   64.1170   70.7020 C   0  0  0  0  0  0  0  0  0  0  0  0
    3.1240   60.3250   71.7900 C   0  0  0  0  0  0  0  0  0  0  0  0
    3.3230   60.2690   70.4100 C   0  0  0  0  0  0  0  0  0  0  0  0
    4.5920   60.5180   69.9160 C   0  0  0  0  0  0  0  0  0  0  0  0
    5.6550   60.8140   70.6930 N   0  0  0  0  0  0  0  0  0  0  0  0
    5.4400   60.8590   72.0240 C   0  0  0  0  0  0  0  0  0  0  0  0
    4.2080   60.6290   72.6140 C   0  0  0  0  0  0  0  0  0  0  0  0
   -0.5180   57.8120   74.0530 C   0  0  0  0  0  0  0  0  0  0  0  0
   -1.5740   58.0060   74.9550 C   0  0  0  0  0  0  0  0  0  0  0  0
   -2.2150   56.9130   75.5520 C   0  0  0  0  0  0  0  0  0  0  0  0
   -1.8080   55.6070   75.2600 C   0  0  0  0  0  0  0  0  0  0  0  0
   -0.7600   55.4040   74.3610 C   0  0  0  0  0  0  0  0  0  0  0  0
   -0.1200   56.4960   73.7690 C   0  0  0  0  0  0  0  0  0  0  0  0
   -2.6480   54.2110   76.0390 S   0  0  0  0  0  3  0  0  0  0  0  0
   -1.5950   54.1140   77.5090 C   0  0  0  0  0  0  0  0  0  0  0  0
   -2.3240   52.8730   75.1150 O   0  0  0  0  0  1  0  0  0  0  0  0
    2.0279   57.9979   72.8326 H   0  0  0  0  0  0  0  0  0  0  0  0
   -0.1445   65.2506   73.8732 H   0  0  0  0  0  0  0  0  0  0  0  0
    0.1710   62.8237   74.3626 H   0  0  0  0  0  0  0  0  0  0  0  0
    0.7853   62.0567   70.1465 H   0  0  0  0  0  0  0  0  0  0  0  0
    0.4725   64.4883   69.6684 H   0  0  0  0  0  0  0  0  0  0  0  0
    2.4909   60.0325   69.7305 H   0  0  0  0  0  0  0  0  0  0  0  0
    4.7426   60.4719   68.8273 H   0  0  0  0  0  0  0  0  0  0  0  0
    6.2926   61.0919   72.6789 H   0  0  0  0  0  0  0  0  0  0  0  0
    4.0872   60.6847   73.7059 H   0  0  0  0  0  0  0  0  0  0  0  0
   -1.9026   59.0277   75.1964 H   0  0  0  0  0  0  0  0  0  0  0  0
   -3.0438   57.0828   76.2550 H   0  0  0  0  0  0  0  0  0  0  0  0
   -0.4368   54.3811   74.1177 H   0  0  0  0  0  0  0  0  0  0  0  0
    0.7099   56.3215   73.0684 H   0  0  0  0  0  0  0  0  0  0  0  0
   -2.2201   54.1716   78.4123 H   0  0  0  0  0  0  0  0  0  0  0  0
   -1.0450   53.1614   77.5038 H   0  0  0  0  0  0  0  0  0  0  0  0
   -0.8802   54.9501   77.5038 H   0  0  0  0  0  0  0  0  0  0  0  0
  2  1  1  0
  3  2  2  0
  4  3  1  0
  5  4  1  0
  5  1  2  0
  7  6  1  0
  8  7  2  0
  9  8  1  0
 10  9  2  0
 10  1  1  0
 11 10  1  0
 12 11  2  0
 12  7  1  0
 13  5  1  0
 14 13  2  0
 15 14  1  0
 16 15  2  0
 17 16  1  0
 18 17  2  0
 18 13  1  0
 19  3  1  0
 20 19  2  0
 21 20  1  0
 22 21  2  0
 23 22  1  0
 24 19  1  0
 24 23  2  0
 25 22  1  0
 26 25  1  0
 25 27  1  6
  4 28  1  0
  8 29  1  0
  9 30  1  0
 11 31  1  0
 12 32  1  0
 14 33  1  0
 15 34  1  0
 17 35  1  0
 18 36  1  0
 20 37  1  0
 21 38  1  0
 23 39  1  0
 24 40  1  0
 26 41  1  0
 26 42  1  0
 26 43  1  0
M  CHG  2  25   1  27  -1
M  END
>  <score>  (6) 
-8.752

$$$$
=
     RDKit          3D

 43 46  0  0  0  0  0  0  0  0999 V2000
    0.7000   62.6290   72.2480 C   0  0  0  0  0  0  0  0  0  0  0  0
    0.7840   63.2470   71.0200 N   0  0  0  0  0  0  0  0  0  0  0  0
    0.4060   64.4980   71.1940 C   0  0  0  0  0  0  0  0  0  0  0  0
    0.1020   64.7020   72.5200 N   0  0  0  0  0  0  0  0  0  0  0  0
    0.2920   63.5300   73.2190 C   0  0  0  0  0  0  0  0  0  0  0  0
    2.1030   57.2530   72.8460 F   0  0  0  0  0  0  0  0  0  0  0  0
    1.7590   58.5400   72.7040 C   0  0  0  0  0  0  0  0  0  0  0  0
    2.6240   59.4130   72.0570 C   0  0  0  0  0  0  0  0  0  0  0  0
    2.2630   60.7540   71.9120 C   0  0  0  0  0  0  0  0  0  0  0  0
    1.0430   61.2270   72.4220 C   0  0  0  0  0  0  0  0  0  0  0  0
    0.1780   60.3230   73.0580 C   0  0  0  0  0  0  0  0  0  0  0  0
    0.5400   58.9810   73.2030 C   0  0  0  0  0  0  0  0  0  0  0  0
    0.1280   63.4560   74.6660 C   0  0  0  0  0  0  0  0  0  0  0  0
   -1.0310   62.9120   75.2200 C   0  0  0  0  0  0  0  0  0  0  0  0
   -1.1400   62.8580   76.5990 C   0  0  0  0  0  0  0  0  0  0  0  0
   -0.1860   63.3010   77.4450 N   0  0  0  0  0  0  0  0  0  0  0  0
    0.9240   63.8270   76.8870 C   0  0  0  0  0  0  0  0  0  0  0  0
    1.1280   63.9230   75.5200 C   0  0  0  0  0  0  0  0  0  0  0  0
    0.3430   65.5300   70.1540 C   0  0  0  0  0  0  0  0  0  0  0  0
   -0.7890   65.7260   69.3490 C   0  0  0  0  0  0  0  0  0  0  0  0
   -0.8040   66.7250   68.3670 C   0  0  0  0  0  0  0  0  0  0  0  0
    0.3130   67.5420   68.1710 C   0  0  0  0  0  0  0  0  0  0  0  0
    1.4430   67.3570   68.9690 C   0  0  0  0  0  0  0  0  0  0  0  0
    1.4570   66.3570   69.9450 C   0  0  0  0  0  0  0  0  0  0  0  0
    0.2730   68.8250   66.9000 S   0  0  0  0  0  3  0  0  0  0  0  0
    1.2450   70.0580   67.8020 C   0  0  0  0  0  0  0  0  0  0  0  0
   -1.2860   69.3870   66.8270 O   0  0  0  0  0  1  0  0  0  0  0  0
   -0.2179   65.5924   72.9270 H   0  0  0  0  0  0  0  0  0  0  0  0
    3.5849   59.0512   71.6623 H   0  0  0  0  0  0  0  0  0  0  0  0
    2.9413   61.4472   71.3929 H   0  0  0  0  0  0  0  0  0  0  0  0
   -0.7906   60.6729   73.4446 H   0  0  0  0  0  0  0  0  0  0  0  0
   -0.1370   58.2775   73.7097 H   0  0  0  0  0  0  0  0  0  0  0  0
   -1.8393   62.5348   74.5762 H   0  0  0  0  0  0  0  0  0  0  0  0
   -2.0568   62.4294   77.0301 H   0  0  0  0  0  0  0  0  0  0  0  0
    1.7128   64.2013   77.5561 H   0  0  0  0  0  0  0  0  0  0  0  0
    2.0554   64.3567   75.1177 H   0  0  0  0  0  0  0  0  0  0  0  0
   -1.6742   65.0885   69.4903 H   0  0  0  0  0  0  0  0  0  0  0  0
   -1.7008   66.8674   67.7461 H   0  0  0  0  0  0  0  0  0  0  0  0
    2.3246   67.9998   68.8293 H   0  0  0  0  0  0  0  0  0  0  0  0
    2.3576   66.2156   70.5605 H   0  0  0  0  0  0  0  0  0  0  0  0
    1.1220   69.9020   68.8839 H   0  0  0  0  0  0  0  0  0  0  0  0
    2.3071   69.9545   67.5350 H   0  0  0  0  0  0  0  0  0  0  0  0
    0.8964   71.0666   67.5350 H   0  0  0  0  0  0  0  0  0  0  0  0
  2  1  1  0
  3  2  2  0
  4  3  1  0
  5  4  1  0
  5  1  2  0
  7  6  1  0
  8  7  2  0
  9  8  1  0
 10  9  2  0
 10  1  1  0
 11 10  1  0
 12 11  2  0
 12  7  1  0
 13  5  1  0
 14 13  2  0
 15 14  1  0
 16 15  2  0
 17 16  1  0
 18 17  2  0
 18 13  1  0
 19  3  1  0
 20 19  2  0
 21 20  1  0
 22 21  2  0
 23 22  1  0
 24 19  1  0
 24 23  2  0
 25 22  1  0
 26 25  1  0
 25 27  1  1
  4 28  1  0
  8 29  1  0
  9 30  1  0
 11 31  1  0
 12 32  1  0
 14 33  1  0
 15 34  1  0
 17 35  1  0
 18 36  1  0
 20 37  1  0
 21 38  1  0
 23 39  1  0
 24 40  1  0
 26 41  1  0
 26 42  1  0
 26 43  1  0
M  CHG  2  25   1  27  -1
M  END
>  <score>  (7) 
-8.46

$$$$
=
     RDKit          3D

 43 46  0  0  0  0  0  0  0  0999 V2000
    1.4380   59.6340   73.1660 C   0  0  0  0  0  0  0  0  0  0  0  0
    0.8200   58.6000   73.8350 N   0  0  0  0  0  0  0  0  0  0  0  0
    1.3900   57.4840   73.4240 C   0  0  0  0  0  0  0  0  0  0  0  0
    2.3790   57.7840   72.5180 N   0  0  0  0  0  0  0  0  0  0  0  0
    2.4420   59.1500   72.3420 C   0  0  0  0  0  0  0  0  0  0  0  0
   -0.0860   64.9640   73.8690 F   0  0  0  0  0  0  0  0  0  0  0  0
    0.2850   63.6870   73.7070 C   0  0  0  0  0  0  0  0  0  0  0  0
   -0.0770   63.0110   72.5490 C   0  0  0  0  0  0  0  0  0  0  0  0
    0.3100   61.6790   72.3830 C   0  0  0  0  0  0  0  0  0  0  0  0
    1.0510   61.0190   73.3770 C   0  0  0  0  0  0  0  0  0  0  0  0
    1.4190   61.7280   74.5310 C   0  0  0  0  0  0  0  0  0  0  0  0
    1.0310   63.0600   74.6970 C   0  0  0  0  0  0  0  0  0  0  0  0
    3.4530   59.7760   71.5000 C   0  0  0  0  0  0  0  0  0  0  0  0
    3.2720   59.8580   70.1190 C   0  0  0  0  0  0  0  0  0  0  0  0
    4.2570   60.4680   69.3600 C   0  0  0  0  0  0  0  0  0  0  0  0
    5.3870   60.9910   69.8780 N   0  0  0  0  0  0  0  0  0  0  0  0
    5.5430   60.8960   71.2150 C   0  0  0  0  0  0  0  0  0  0  0  0
    4.6150   60.3100   72.0590 C   0  0  0  0  0  0  0  0  0  0  0  0
    1.0510   56.1300   73.8740 C   0  0  0  0  0  0  0  0  0  0  0  0
   -0.2230   55.5700   73.7010 C   0  0  0  0  0  0  0  0  0  0  0  0
   -0.5010   54.2720   74.1480 C   0  0  0  0  0  0  0  0  0  0  0  0
    0.4900   53.5130   74.7790 C   0  0  0  0  0  0  0  0  0  0  0  0
    1.7620   54.0600   74.9520 C   0  0  0  0  0  0  0  0  0  0  0  0
    2.0360   55.3570   74.5090 C   0  0  0  0  0  0  0  0  0  0  0  0
    0.1110   51.8410   75.3470 S   0  0  0  0  0  3  0  0  0  0  0  0
   -1.6680   51.8920   75.0110 C   0  0  0  0  0  0  0  0  0  0  0  0
    0.2980   51.8340   76.9950 O   0  0  0  0  0  1  0  0  0  0  0  0
    2.9801   57.0950   72.0439 H   0  0  0  0  0  0  0  0  0  0  0  0
   -0.6632   63.5199   71.7696 H   0  0  0  0  0  0  0  0  0  0  0  0
    0.0316   61.1416   71.4645 H   0  0  0  0  0  0  0  0  0  0  0  0
    2.0167   61.2318   75.3098 H   0  0  0  0  0  0  0  0  0  0  0  0
    1.3148   63.6093   75.6068 H   0  0  0  0  0  0  0  0  0  0  0  0
    2.3684   59.4479   69.6442 H   0  0  0  0  0  0  0  0  0  0  0  0
    4.1090   60.5294   68.2717 H   0  0  0  0  0  0  0  0  0  0  0  0
    6.4607   61.3080   71.6601 H   0  0  0  0  0  0  0  0  0  0  0  0
    4.7894   60.2663   73.1442 H   0  0  0  0  0  0  0  0  0  0  0  0
   -1.0127   56.1566   73.2088 H   0  0  0  0  0  0  0  0  0  0  0  0
   -1.5050   53.8469   74.0019 H   0  0  0  0  0  0  0  0  0  0  0  0
    2.5516   53.4686   75.4386 H   0  0  0  0  0  0  0  0  0  0  0  0
    3.0404   55.7792   74.6604 H   0  0  0  0  0  0  0  0  0  0  0  0
   -2.2205   51.9078   75.9621 H   0  0  0  0  0  0  0  0  0  0  0  0
   -1.9063   52.7973   74.4334 H   0  0  0  0  0  0  0  0  0  0  0  0
   -1.9577   51.0018   74.4334 H   0  0  0  0  0  0  0  0  0  0  0  0
  2  1  1  0
  3  2  2  0
  4  3  1  0
  5  4  1  0
  5  1  2  0
  7  6  1  0
  8  7  2  0
  9  8  1  0
 10  9  2  0
 10  1  1  0
 11 10  1  0
 12 11  2  0
 12  7  1  0
 13  5  1  0
 14 13  2  0
 15 14  1  0
 16 15  2  0
 17 16  1  0
 18 17  2  0
 18 13  1  0
 19  3  1  0
 20 19  2  0
 21 20  1  0
 22 21  2  0
 23 22  1  0
 24 19  1  0
 24 23  2  0
 25 22  1  0
 26 25  1  0
 25 27  1  1
  4 28  1  0
  8 29  1  0
  9 30  1  0
 11 31  1  0
 12 32  1  0
 14 33  1  0
 15 34  1  0
 17 35  1  0
 18 36  1  0
 20 37  1  0
 21 38  1  0
 23 39  1  0
 24 40  1  0
 26 41  1  0
 26 42  1  0
 26 43  1  0
M  CHG  2  25   1  27  -1
M  END
>  <score>  (8) 
-8.41

$$$$
=
     RDKit          3D

 43 46  0  0  0  0  0  0  0  0999 V2000
   -2.7040   60.9210   74.4180 C   0  0  0  0  0  0  0  0  0  0  0  0
   -1.8650   60.7000   73.3480 N   0  0  0  0  0  0  0  0  0  0  0  0
   -0.9460   61.6450   73.3810 C   0  0  0  0  0  0  0  0  0  0  0  0
   -1.1660   62.4570   74.4670 N   0  0  0  0  0  0  0  0  0  0  0  0
   -2.2740   62.0130   75.1550 C   0  0  0  0  0  0  0  0  0  0  0  0
   -7.0180   57.5270   75.4640 F   0  0  0  0  0  0  0  0  0  0  0  0
   -5.9880   58.3450   75.2090 C   0  0  0  0  0  0  0  0  0  0  0  0
   -4.6960   57.9340   75.5070 C   0  0  0  0  0  0  0  0  0  0  0  0
   -3.6250   58.7890   75.2410 C   0  0  0  0  0  0  0  0  0  0  0  0
   -3.8450   60.0600   74.6850 C   0  0  0  0  0  0  0  0  0  0  0  0
   -5.1570   60.4480   74.3760 C   0  0  0  0  0  0  0  0  0  0  0  0
   -6.2290   59.5910   74.6440 C   0  0  0  0  0  0  0  0  0  0  0  0
   -2.7070   62.6280   76.4040 C   0  0  0  0  0  0  0  0  0  0  0  0
   -1.9820   62.4290   77.5790 C   0  0  0  0  0  0  0  0  0  0  0  0
   -2.4290   63.0370   78.7410 C   0  0  0  0  0  0  0  0  0  0  0  0
   -3.5290   63.8160   78.8040 N   0  0  0  0  0  0  0  0  0  0  0  0
   -4.2170   63.9900   77.6570 C   0  0  0  0  0  0  0  0  0  0  0  0
   -3.8500   63.4280   76.4450 C   0  0  0  0  0  0  0  0  0  0  0  0
    0.1610   61.8000   72.4310 C   0  0  0  0  0  0  0  0  0  0  0  0
    0.2510   62.8810   71.5420 C   0  0  0  0  0  0  0  0  0  0  0  0
    1.3270   62.9880   70.6510 C   0  0  0  0  0  0  0  0  0  0  0  0
    2.3300   62.0140   70.6330 C   0  0  0  0  0  0  0  0  0  0  0  0
    2.2510   60.9370   71.5160 C   0  0  0  0  0  0  0  0  0  0  0  0
    1.1750   60.8300   72.4010 C   0  0  0  0  0  0  0  0  0  0  0  0
    3.7090   62.1710   69.4780 S   0  0  0  0  0  3  0  0  0  0  0  0
    4.7540   63.2160   70.5250 C   0  0  0  0  0  0  0  0  0  0  0  0
    3.1830   63.1120   68.2180 O   0  0  0  0  0  1  0  0  0  0  0  0
   -0.5916   63.2716   74.7267 H   0  0  0  0  0  0  0  0  0  0  0  0
   -4.5176   56.9427   75.9491 H   0  0  0  0  0  0  0  0  0  0  0  0
   -2.5991   58.4643   75.4690 H   0  0  0  0  0  0  0  0  0  0  0  0
   -5.3437   61.4317   73.9204 H   0  0  0  0  0  0  0  0  0  0  0  0
   -7.2576   59.9018   74.4087 H   0  0  0  0  0  0  0  0  0  0  0  0
   -1.0767   61.8041   77.5829 H   0  0  0  0  0  0  0  0  0  0  0  0
   -1.8543   62.8754   79.6649 H   0  0  0  0  0  0  0  0  0  0  0  0
   -5.1221   64.6144   77.6855 H   0  0  0  0  0  0  0  0  0  0  0  0
   -4.4448   63.6079   75.5373 H   0  0  0  0  0  0  0  0  0  0  0  0
   -0.5320   63.6536   71.5443 H   0  0  0  0  0  0  0  0  0  0  0  0
    1.3830   63.8433   69.9616 H   0  0  0  0  0  0  0  0  0  0  0  0
    3.0386   60.1691   71.5156 H   0  0  0  0  0  0  0  0  0  0  0  0
    1.1217   59.9709   73.0859 H   0  0  0  0  0  0  0  0  0  0  0  0
    4.5416   63.0036   71.5832 H   0  0  0  0  0  0  0  0  0  0  0  0
    5.8126   63.0044   70.3138 H   0  0  0  0  0  0  0  0  0  0  0  0
    4.5424   64.2746   70.3138 H   0  0  0  0  0  0  0  0  0  0  0  0
  2  1  1  0
  3  2  2  0
  4  3  1  0
  5  4  1  0
  5  1  2  0
  7  6  1  0
  8  7  2  0
  9  8  1  0
 10  9  2  0
 10  1  1  0
 11 10  1  0
 12 11  2  0
 12  7  1  0
 13  5  1  0
 14 13  2  0
 15 14  1  0
 16 15  2  0
 17 16  1  0
 18 17  2  0
 18 13  1  0
 19  3  1  0
 20 19  2  0
 21 20  1  0
 22 21  2  0
 23 22  1  0
 24 19  1  0
 24 23  2  0
 25 22  1  0
 26 25  1  0
 25 27  1  6
  4 28  1  0
  8 29  1  0
  9 30  1  0
 11 31  1  0
 12 32  1  0
 14 33  1  0
 15 34  1  0
 17 35  1  0
 18 36  1  0
 20 37  1  0
 21 38  1  0
 23 39  1  0
 24 40  1  0
 26 41  1  0
 26 42  1  0
 26 43  1  0
M  CHG  2  25   1  27  -1
M  END
>  <score>  (9) 
-7.75

$$$$
