=
     RDKit          3D

 57 59  0  0  0  0  0  0  0  0999 V2000
    0.0700   64.7930   71.5170 C   0  0  0  0  0  0  0  0  0  0  0  0
   -0.0420   65.2430   72.6610 O   0  0  0  0  0  0  0  0  0  0  0  0
    0.0760   65.6200   70.3140 C   0  0  0  0  0  0  0  0  0  0  0  0
   -0.9410   65.9360   69.4360 C   0  0  0  0  0  0  0  0  0  0  0  0
   -0.5230   66.7940   68.3610 C   0  0  0  0  0  0  0  0  0  0  0  0
    0.8290   67.1100   68.4640 C   0  0  0  0  0  0  0  0  0  0  0  0
    1.5390   66.3700   69.8430 S   0  0  0  0  0  0  0  0  0  0  0  0
    1.4730   67.9400   67.5240 C   0  0  0  0  0  0  0  0  0  0  0  0
    0.7310   68.4610   66.4560 C   0  0  0  0  0  0  0  0  0  0  0  0
   -0.6330   68.1580   66.3290 C   0  0  0  0  0  0  0  0  0  0  0  0
   -1.2570   67.3310   67.2740 C   0  0  0  0  0  0  0  0  0  0  0  0
   -1.2750   68.7150   65.2500 O   0  0  0  0  0  0  0  0  0  0  0  0
   -2.6940   68.7770   65.2730 C   0  0  0  0  0  0  0  0  0  0  0  0
    1.2550   69.2790   65.4840 O   0  0  0  0  0  0  0  0  0  0  0  0
    2.2410   68.7360   64.6170 C   0  0  0  0  0  0  0  0  0  0  0  0
    2.7790   61.3160   72.0730 N   0  0  1  0  0  4  0  0  0  0  0  0
    3.3100   61.4680   73.5120 C   0  0  0  0  0  0  0  0  0  0  0  0
    1.4680   60.5300   72.0890 C   0  0  0  0  0  0  0  0  0  0  0  0
    0.3280   61.1600   72.8850 C   0  0  0  0  0  0  0  0  0  0  0  0
    0.0850   62.6610   72.7640 C   0  0  0  0  0  0  0  0  0  0  0  0
    0.1650   63.2660   71.3570 C   0  0  2  0  0  0  0  0  0  0  0  0
    1.4520   62.9430   70.5700 C   0  0  0  0  0  0  0  0  0  0  0  0
    2.6900   62.7370   71.4440 C   0  0  0  0  0  0  0  0  0  0  0  0
    3.8830   60.4730   71.3240 C   0  0  0  0  0  0  0  0  0  0  0  0
    3.5250   60.0030   69.9020 C   0  0  0  0  0  0  0  0  0  0  0  0
    3.4970   57.8470   70.8650 C   0  0  0  0  0  0  0  0  0  0  0  0
    3.8570   58.6280   69.7280 O   0  0  0  0  0  0  0  0  0  0  0  0
   -1.9712   65.5671   69.5480 H   0  0  0  0  0  0  0  0  0  0  0  0
    2.5426   68.1752   67.6276 H   0  0  0  0  0  0  0  0  0  0  0  0
   -2.3268   67.0967   67.1706 H   0  0  0  0  0  0  0  0  0  0  0  0
   -3.0435   68.7923   66.3159 H   0  0  0  0  0  0  0  0  0  0  0  0
   -3.0295   69.6907   64.7605 H   0  0  0  0  0  0  0  0  0  0  0  0
   -3.1079   67.8961   64.7605 H   0  0  0  0  0  0  0  0  0  0  0  0
    3.0498   68.2906   65.2149 H   0  0  0  0  0  0  0  0  0  0  0  0
    1.7850   67.9618   63.9824 H   0  0  0  0  0  0  0  0  0  0  0  0
    2.6515   69.5352   63.9824 H   0  0  0  0  0  0  0  0  0  0  0  0
    2.5055   61.2377   74.2259 H   0  0  0  0  0  0  0  0  0  0  0  0
    4.1489   60.7739   73.6685 H   0  0  0  0  0  0  0  0  0  0  0  0
    3.6546   62.5009   73.6685 H   0  0  0  0  0  0  0  0  0  0  0  0
    1.1303   60.4148   71.0485 H   0  0  0  0  0  0  0  0  0  0  0  0
    1.6950   59.5786   72.5923 H   0  0  0  0  0  0  0  0  0  0  0  0
   -0.5994   60.6569   72.5738 H   0  0  0  0  0  0  0  0  0  0  0  0
    0.6313   61.0248   73.9337 H   0  0  0  0  0  0  0  0  0  0  0  0
   -0.9212   62.8675   73.1577 H   0  0  0  0  0  0  0  0  0  0  0  0
    0.9065   63.1305   73.3250 H   0  0  0  0  0  0  0  0  0  0  0  0
   -0.6560   62.8229   70.7742 H   0  0  0  0  0  0  0  0  0  0  0  0
    1.2808   62.0223   69.9929 H   0  0  0  0  0  0  0  0  0  0  0  0
    1.6584   63.8154   69.9326 H   0  0  0  0  0  0  0  0  0  0  0  0
    3.5842   62.8997   70.8243 H   0  0  0  0  0  0  0  0  0  0  0  0
    2.6211   63.4541   72.2753 H   0  0  0  0  0  0  0  0  0  0  0  0
    4.7899   61.0917   71.2555 H   0  0  0  0  0  0  0  0  0  0  0  0
    4.0078   59.5549   71.9169 H   0  0  0  0  0  0  0  0  0  0  0  0
    2.4456   60.1375   69.7382 H   0  0  0  0  0  0  0  0  0  0  0  0
    4.0980   60.5999   69.1772 H   0  0  0  0  0  0  0  0  0  0  0  0
    3.7507   58.3973   71.7831 H   0  0  0  0  0  0  0  0  0  0  0  0
    2.4156   57.6465   70.8446 H   0  0  0  0  0  0  0  0  0  0  0  0
    4.0469   56.8946   70.8446 H   0  0  0  0  0  0  0  0  0  0  0  0
  2  1  2  0
  3  1  1  0
  4  3  2  0
  5  4  1  0
  6  5  2  0
  7  6  1  0
  7  3  1  0
  8  6  1  0
  9  8  2  0
 10  9  1  0
 11 10  2  0
 11  5  1  0
 12 10  1  0
 13 12  1  0
 14  9  1  0
 15 14  1  0
 16 17  1  1
 18 16  1  0
 19 18  1  0
 20 19  1  0
 21 20  1  0
 21  1  1  0
 22 21  1  0
 23 22  1  0
 23 16  1  0
 24 16  1  0
 25 24  1  0
 27 26  1  0
 27 25  1  0
  4 28  1  0
  8 29  1  0
 11 30  1  0
 13 31  1  0
 13 32  1  0
 13 33  1  0
 15 34  1  0
 15 35  1  0
 15 36  1  0
 17 37  1  0
 17 38  1  0
 17 39  1  0
 18 40  1  0
 18 41  1  0
 19 42  1  0
 19 43  1  0
 20 44  1  0
 20 45  1  0
 21 46  1  6
 22 47  1  0
 22 48  1  0
 23 49  1  0
 23 50  1  0
 24 51  1  0
 24 52  1  0
 25 53  1  0
 25 54  1  0
 26 55  1  0
 26 56  1  0
 26 57  1  0
M  CHG  1  16   1
M  END
>  <score>  (1) 
-7.825

$$$$
=
     RDKit          3D

 57 59  0  0  0  0  0  0  0  0999 V2000
    0.0270   65.3880   71.0090 C   0  0  0  0  0  0  0  0  0  0  0  0
   -0.3020   65.8810   72.0920 O   0  0  0  0  0  0  0  0  0  0  0  0
    0.2990   66.1700   69.8080 C   0  0  0  0  0  0  0  0  0  0  0  0
    1.4690   66.7470   69.3570 C   0  0  0  0  0  0  0  0  0  0  0  0
    1.3200   67.4430   68.1080 C   0  0  0  0  0  0  0  0  0  0  0  0
    0.0120   67.3660   67.6400 C   0  0  0  0  0  0  0  0  0  0  0  0
   -0.9820   66.4630   68.7120 S   0  0  0  0  0  0  0  0  0  0  0  0
   -0.3830   67.9730   66.4310 C   0  0  0  0  0  0  0  0  0  0  0  0
    0.5690   68.6720   65.6780 C   0  0  0  0  0  0  0  0  0  0  0  0
    1.8960   68.7650   66.1270 C   0  0  0  0  0  0  0  0  0  0  0  0
    2.2700   68.1550   67.3330 C   0  0  0  0  0  0  0  0  0  0  0  0
    2.7550   69.4710   65.3220 O   0  0  0  0  0  0  0  0  0  0  0  0
    4.1400   69.4440   65.6340 C   0  0  0  0  0  0  0  0  0  0  0  0
    0.2950   69.3000   64.4860 O   0  0  0  0  0  0  0  0  0  0  0  0
   -0.5130   68.6120   63.5420 C   0  0  0  0  0  0  0  0  0  0  0  0
    2.6000   61.8990   71.9820 N   0  0  1  0  0  4  0  0  0  0  0  0
    2.9810   62.1030   73.4630 C   0  0  0  0  0  0  0  0  0  0  0  0
    1.2810   61.1330   71.8910 C   0  0  0  0  0  0  0  0  0  0  0  0
    0.0760   61.8100   72.5380 C   0  0  0  0  0  0  0  0  0  0  0  0
   -0.1260   63.3080   72.3330 C   0  0  0  0  0  0  0  0  0  0  0  0
    0.1100   63.8540   70.9200 C   0  0  2  0  0  0  0  0  0  0  0  0
    1.4670   63.4810   70.2860 C   0  0  0  0  0  0  0  0  0  0  0  0
    2.6030   63.2940   71.2920 C   0  0  0  0  0  0  0  0  0  0  0  0
    3.7610   61.0110   71.3880 C   0  0  0  0  0  0  0  0  0  0  0  0
    3.3620   60.0490   70.2530 C   0  0  0  0  0  0  0  0  0  0  0  0
    3.2430   57.8210   71.0270 C   0  0  0  0  0  0  0  0  0  0  0  0
    4.0470   58.8060   70.3830 O   0  0  0  0  0  0  0  0  0  0  0  0
    2.4230   66.6807   69.9006 H   0  0  0  0  0  0  0  0  0  0  0  0
   -1.4241   67.8989   66.0837 H   0  0  0  0  0  0  0  0  0  0  0  0
    3.3108   68.2297   67.6812 H   0  0  0  0  0  0  0  0  0  0  0  0
    4.2698   69.4415   66.7263 H   0  0  0  0  0  0  0  0  0  0  0  0
    4.5940   68.5368   65.2087 H   0  0  0  0  0  0  0  0  0  0  0  0
    4.6291   70.3328   65.2087 H   0  0  0  0  0  0  0  0  0  0  0  0
   -1.2464   67.9875   64.0732 H   0  0  0  0  0  0  0  0  0  0  0  0
   -1.0415   69.3417   62.9109 H   0  0  0  0  0  0  0  0  0  0  0  0
    0.1231   67.9740   62.9109 H   0  0  0  0  0  0  0  0  0  0  0  0
    2.1939   61.6815   74.1055 H   0  0  0  0  0  0  0  0  0  0  0  0
    3.9343   61.5947   73.6697 H   0  0  0  0  0  0  0  0  0  0  0  0
    3.0864   63.1782   73.6697 H   0  0  0  0  0  0  0  0  0  0  0  0
    1.0515   60.9807   70.8260 H   0  0  0  0  0  0  0  0  0  0  0  0
    1.4372   60.1997   72.4518 H   0  0  0  0  0  0  0  0  0  0  0  0
   -0.8228   61.3072   72.1516 H   0  0  0  0  0  0  0  0  0  0  0  0
    0.2657   61.7135   73.6172 H   0  0  0  0  0  0  0  0  0  0  0  0
   -1.1637   63.5443   72.6113 H   0  0  0  0  0  0  0  0  0  0  0  0
    0.6417   63.7884   72.9574 H   0  0  0  0  0  0  0  0  0  0  0  0
   -0.6543   63.3996   70.2724 H   0  0  0  0  0  0  0  0  0  0  0  0
    1.3405   62.5398   69.7308 H   0  0  0  0  0  0  0  0  0  0  0  0
    1.7545   64.3238   69.6403 H   0  0  0  0  0  0  0  0  0  0  0  0
    3.5597   63.4187   70.7636 H   0  0  0  0  0  0  0  0  0  0  0  0
    2.4611   64.0455   72.0826 H   0  0  0  0  0  0  0  0  0  0  0  0
    4.5366   61.6872   70.9990 H   0  0  0  0  0  0  0  0  0  0  0  0
    4.0971   60.3696   72.2160 H   0  0  0  0  0  0  0  0  0  0  0  0
    2.2775   59.8700   70.2957 H   0  0  0  0  0  0  0  0  0  0  0  0
    3.6356   60.5049   69.2900 H   0  0  0  0  0  0  0  0  0  0  0  0
    3.3325   57.9306   72.1179 H   0  0  0  0  0  0  0  0  0  0  0  0
    2.1922   57.9540   70.7301 H   0  0  0  0  0  0  0  0  0  0  0  0
    3.5838   56.8182   70.7301 H   0  0  0  0  0  0  0  0  0  0  0  0
  2  1  2  0
  3  1  1  0
  4  3  2  0
  5  4  1  0
  6  5  2  0
  7  6  1  0
  7  3  1  0
  8  6  1  0
  9  8  2  0
 10  9  1  0
 11 10  2  0
 11  5  1  0
 12 10  1  0
 13 12  1  0
 14  9  1  0
 15 14  1  0
 16 17  1  1
 18 16  1  0
 19 18  1  0
 20 19  1  0
 21 20  1  0
 21  1  1  0
 22 21  1  0
 23 22  1  0
 23 16  1  0
 24 16  1  0
 25 24  1  0
 27 26  1  0
 27 25  1  0
  4 28  1  0
  8 29  1  0
 11 30  1  0
 13 31  1  0
 13 32  1  0
 13 33  1  0
 15 34  1  0
 15 35  1  0
 15 36  1  0
 17 37  1  0
 17 38  1  0
 17 39  1  0
 18 40  1  0
 18 41  1  0
 19 42  1  0
 19 43  1  0
 20 44  1  0
 20 45  1  0
 21 46  1  6
 22 47  1  0
 22 48  1  0
 23 49  1  0
 23 50  1  0
 24 51  1  0
 24 52  1  0
 25 53  1  0
 25 54  1  0
 26 55  1  0
 26 56  1  0
 26 57  1  0
M  CHG  1  16   1
M  END
>  <score>  (2) 
-7.582

$$$$
=
     RDKit          3D

 57 59  0  0  0  0  0  0  0  0999 V2000
    1.4550   59.1360   73.6900 C   0  0  0  0  0  0  0  0  0  0  0  0
    1.4720   60.0490   74.5210 O   0  0  0  0  0  0  0  0  0  0  0  0
    1.2350   57.7340   74.0270 C   0  0  0  0  0  0  0  0  0  0  0  0
    0.2610   56.8500   73.6060 C   0  0  0  0  0  0  0  0  0  0  0  0
    0.3940   55.5370   74.1760 C   0  0  0  0  0  0  0  0  0  0  0  0
    1.4920   55.4660   75.0280 C   0  0  0  0  0  0  0  0  0  0  0  0
    2.3190   56.9710   75.1080 S   0  0  0  0  0  0  0  0  0  0  0  0
    1.8310   54.2790   75.7070 C   0  0  0  0  0  0  0  0  0  0  0  0
    1.0400   53.1380   75.5190 C   0  0  0  0  0  0  0  0  0  0  0  0
   -0.0730   53.1830   74.6660 C   0  0  0  0  0  0  0  0  0  0  0  0
   -0.3950   54.3730   73.9980 C   0  0  0  0  0  0  0  0  0  0  0  0
   -0.7860   52.0160   74.5460 O   0  0  0  0  0  0  0  0  0  0  0  0
   -2.1420   52.0130   74.9700 C   0  0  0  0  0  0  0  0  0  0  0  0
    1.2780   51.9300   76.1300 O   0  0  0  0  0  0  0  0  0  0  0  0
    1.0530   51.8340   77.5290 C   0  0  0  0  0  0  0  0  0  0  0  0
    4.2500   61.3290   71.0220 N   0  0  1  0  0  4  0  0  0  0  0  0
    5.6490   60.8250   71.4330 C   0  0  0  0  0  0  0  0  0  0  0  0
    3.6640   60.4060   69.9540 C   0  0  0  0  0  0  0  0  0  0  0  0
    3.4740   58.9500   70.3690 C   0  0  0  0  0  0  0  0  0  0  0  0
    2.9050   58.6460   71.7510 C   0  0  0  0  0  0  0  0  0  0  0  0
    1.7240   59.5040   72.2210 C   0  0  2  0  0  0  0  0  0  0  0  0
    1.9410   61.0290   72.1370 C   0  0  0  0  0  0  0  0  0  0  0  0
    3.3950   61.4690   72.3150 C   0  0  0  0  0  0  0  0  0  0  0  0
    4.5050   62.7550   70.3960 C   0  0  0  0  0  0  0  0  0  0  0  0
    3.7040   63.0860   69.1230 C   0  0  0  0  0  0  0  0  0  0  0  0
    2.3440   64.4860   70.4520 C   0  0  0  0  0  0  0  0  0  0  0  0
    2.3720   63.4710   69.4510 O   0  0  0  0  0  0  0  0  0  0  0  0
   -0.5391   57.1241   72.9026 H   0  0  0  0  0  0  0  0  0  0  0  0
    2.7043   54.2485   76.3752 H   0  0  0  0  0  0  0  0  0  0  0  0
   -1.2681   54.4035   73.3296 H   0  0  0  0  0  0  0  0  0  0  0  0
   -2.1824   52.0129   76.0693 H   0  0  0  0  0  0  0  0  0  0  0  0
   -2.6487   52.9100   74.5845 H   0  0  0  0  0  0  0  0  0  0  0  0
   -2.6447   51.1137   74.5845 H   0  0  0  0  0  0  0  0  0  0  0  0
    1.9345   52.2101   78.0688 H   0  0  0  0  0  0  0  0  0  0  0  0
    0.1726   52.4349   77.8009 H   0  0  0  0  0  0  0  0  0  0  0  0
    0.8776   50.7827   77.8009 H   0  0  0  0  0  0  0  0  0  0  0  0
    5.7216   60.7989   72.5303 H   0  0  0  0  0  0  0  0  0  0  0  0
    5.8071   59.8134   71.0309 H   0  0  0  0  0  0  0  0  0  0  0  0
    6.4159   61.5034   71.0309 H   0  0  0  0  0  0  0  0  0  0  0  0
    2.6810   60.8058   69.6643 H   0  0  0  0  0  0  0  0  0  0  0  0
    4.3985   60.3908   69.1353 H   0  0  0  0  0  0  0  0  0  0  0  0
    2.7979   58.4901   69.6332 H   0  0  0  0  0  0  0  0  0  0  0  0
    4.4980   58.5504   70.4103 H   0  0  0  0  0  0  0  0  0  0  0  0
    2.5737   57.5971   71.7502 H   0  0  0  0  0  0  0  0  0  0  0  0
    3.7210   58.8736   72.4527 H   0  0  0  0  0  0  0  0  0  0  0  0
    0.8849   59.2875   71.5435 H   0  0  0  0  0  0  0  0  0  0  0  0
    1.5956   61.3722   71.1507 H   0  0  0  0  0  0  0  0  0  0  0  0
    1.3735   61.4740   72.9676 H   0  0  0  0  0  0  0  0  0  0  0  0
    3.4037   62.5243   72.6253 H   0  0  0  0  0  0  0  0  0  0  0  0
    3.8424   60.8074   73.0713 H   0  0  0  0  0  0  0  0  0  0  0  0
    4.2523   63.5072   71.1578 H   0  0  0  0  0  0  0  0  0  0  0  0
    5.5620   62.7607   70.0914 H   0  0  0  0  0  0  0  0  0  0  0  0
    4.1978   63.9122   68.5905 H   0  0  0  0  0  0  0  0  0  0  0  0
    3.6661   62.1897   68.4864 H   0  0  0  0  0  0  0  0  0  0  0  0
    2.3569   64.0192   71.4480 H   0  0  0  0  0  0  0  0  0  0  0  0
    3.2246   65.1357   70.3401 H   0  0  0  0  0  0  0  0  0  0  0  0
    1.4290   65.0862   70.3401 H   0  0  0  0  0  0  0  0  0  0  0  0
  2  1  2  0
  3  1  1  0
  4  3  2  0
  5  4  1  0
  6  5  2  0
  7  6  1  0
  7  3  1  0
  8  6  1  0
  9  8  2  0
 10  9  1  0
 11 10  2  0
 11  5  1  0
 12 10  1  0
 13 12  1  0
 14  9  1  0
 15 14  1  0
 16 17  1  1
 18 16  1  0
 19 18  1  0
 20 19  1  0
 21 20  1  0
 21  1  1  0
 22 21  1  0
 23 22  1  0
 23 16  1  0
 24 16  1  0
 25 24  1  0
 27 26  1  0
 27 25  1  0
  4 28  1  0
  8 29  1  0
 11 30  1  0
 13 31  1  0
 13 32  1  0
 13 33  1  0
 15 34  1  0
 15 35  1  0
 15 36  1  0
 17 37  1  0
 17 38  1  0
 17 39  1  0
 18 40  1  0
 18 41  1  0
 19 42  1  0
 19 43  1  0
 20 44  1  0
 20 45  1  0
 21 46  1  6
 22 47  1  0
 22 48  1  0
 23 49  1  0
 23 50  1  0
 24 51  1  0
 24 52  1  0
 25 53  1  0
 25 54  1  0
 26 55  1  0
 26 56  1  0
 26 57  1  0
M  CHG  1  16   1
M  END
>  <score>  (3) 
-7.142

$$$$
=
     RDKit          3D

 57 59  0  0  0  0  0  0  0  0999 V2000
    0.6100   59.6230   74.2670 C   0  0  0  0  0  0  0  0  0  0  0  0
    1.4200   59.6420   75.1980 O   0  0  0  0  0  0  0  0  0  0  0  0
   -0.8370   59.5750   74.4470 C   0  0  0  0  0  0  0  0  0  0  0  0
   -1.8130   60.5010   74.1380 C   0  0  0  0  0  0  0  0  0  0  0  0
   -3.1410   60.0680   74.4770 C   0  0  0  0  0  0  0  0  0  0  0  0
   -3.1290   58.7960   75.0410 C   0  0  0  0  0  0  0  0  0  0  0  0
   -1.5310   58.1730   75.1400 S   0  0  0  0  0  0  0  0  0  0  0  0
   -4.3130   58.1550   75.4560 C   0  0  0  0  0  0  0  0  0  0  0  0
   -5.5370   58.8170   75.2960 C   0  0  0  0  0  0  0  0  0  0  0  0
   -5.5780   60.1000   74.7290 C   0  0  0  0  0  0  0  0  0  0  0  0
   -4.3890   60.7220   74.3220 C   0  0  0  0  0  0  0  0  0  0  0  0
   -6.8230   60.6670   74.6130 O   0  0  0  0  0  0  0  0  0  0  0  0
   -7.3880   60.7830   73.3150 C   0  0  0  0  0  0  0  0  0  0  0  0
   -6.7510   58.2860   75.6630 O   0  0  0  0  0  0  0  0  0  0  0  0
   -6.8560   57.6930   76.9500 C   0  0  0  0  0  0  0  0  0  0  0  0
    3.8370   61.2570   71.6870 N   0  0  1  0  0  4  0  0  0  0  0  0
    5.1330   61.0050   72.4860 C   0  0  0  0  0  0  0  0  0  0  0  0
    3.5170   60.0350   70.8270 C   0  0  0  0  0  0  0  0  0  0  0  0
    3.2870   58.7320   71.5870 C   0  0  0  0  0  0  0  0  0  0  0  0
    2.4490   58.7600   72.8620 C   0  0  0  0  0  0  0  0  0  0  0  0
    1.1710   59.6070   72.8350 C   0  0  2  0  0  0  0  0  0  0  0  0
    1.3560   61.0670   72.3720 C   0  0  0  0  0  0  0  0  0  0  0  0
    2.7250   61.6630   72.6980 C   0  0  0  0  0  0  0  0  0  0  0  0
    4.1750   62.4810   70.7500 C   0  0  0  0  0  0  0  0  0  0  0  0
    3.4100   62.5400   69.4140 C   0  0  0  0  0  0  0  0  0  0  0  0
    2.3330   64.4260   70.3400 C   0  0  0  0  0  0  0  0  0  0  0  0
    2.1770   63.2360   69.5710 O   0  0  0  0  0  0  0  0  0  0  0  0
   -1.5955   61.4758   73.6770 H   0  0  0  0  0  0  0  0  0  0  0  0
   -4.2767   57.1490   75.8994 H   0  0  0  0  0  0  0  0  0  0  0  0
   -4.4251   61.7277   73.8779 H   0  0  0  0  0  0  0  0  0  0  0  0
   -8.4622   61.0035   73.4011 H   0  0  0  0  0  0  0  0  0  0  0  0
   -6.8890   61.5974   72.7694 H   0  0  0  0  0  0  0  0  0  0  0  0
   -7.2503   59.8378   72.7694 H   0  0  0  0  0  0  0  0  0  0  0  0
   -6.7193   58.4649   77.7216 H   0  0  0  0  0  0  0  0  0  0  0  0
   -7.8494   57.2341   77.0623 H   0  0  0  0  0  0  0  0  0  0  0  0
   -6.0806   56.9209   77.0623 H   0  0  0  0  0  0  0  0  0  0  0  0
    4.9138   61.0476   73.5631 H   0  0  0  0  0  0  0  0  0  0  0  0
    5.5330   60.0122   72.2322 H   0  0  0  0  0  0  0  0  0  0  0  0
    5.8759   61.7755   72.2322 H   0  0  0  0  0  0  0  0  0  0  0  0
    2.6058   60.2560   70.2518 H   0  0  0  0  0  0  0  0  0  0  0  0
    4.4078   59.8653   70.2044 H   0  0  0  0  0  0  0  0  0  0  0  0
    2.7946   58.0357   70.8923 H   0  0  0  0  0  0  0  0  0  0  0  0
    4.2908   58.4481   71.9360 H   0  0  0  0  0  0  0  0  0  0  0  0
    2.1563   57.7244   73.0899 H   0  0  0  0  0  0  0  0  0  0  0  0
    3.0921   59.2361   73.6168 H   0  0  0  0  0  0  0  0  0  0  0  0
    0.4998   59.1459   72.0955 H   0  0  0  0  0  0  0  0  0  0  0  0
    1.2159   61.1027   71.2815 H   0  0  0  0  0  0  0  0  0  0  0  0
    0.6137   61.6667   72.9191 H   0  0  0  0  0  0  0  0  0  0  0  0
    2.6365   62.7594   72.6962 H   0  0  0  0  0  0  0  0  0  0  0  0
    3.0229   61.2695   73.6811 H   0  0  0  0  0  0  0  0  0  0  0  0
    3.9515   63.4029   71.3068 H   0  0  0  0  0  0  0  0  0  0  0  0
    5.2349   62.3641   70.4800 H   0  0  0  0  0  0  0  0  0  0  0  0
    4.0267   63.0616   68.6673 H   0  0  0  0  0  0  0  0  0  0  0  0
    3.1971   61.5130   69.0823 H   0  0  0  0  0  0  0  0  0  0  0  0
    2.3004   64.1773   71.4110 H   0  0  0  0  0  0  0  0  0  0  0  0
    3.3000   64.8927   70.1012 H   0  0  0  0  0  0  0  0  0  0  0  0
    1.5190   65.1262   70.1012 H   0  0  0  0  0  0  0  0  0  0  0  0
  2  1  2  0
  3  1  1  0
  4  3  2  0
  5  4  1  0
  6  5  2  0
  7  6  1  0
  7  3  1  0
  8  6  1  0
  9  8  2  0
 10  9  1  0
 11 10  2  0
 11  5  1  0
 12 10  1  0
 13 12  1  0
 14  9  1  0
 15 14  1  0
 16 17  1  1
 18 16  1  0
 19 18  1  0
 20 19  1  0
 21 20  1  0
 21  1  1  0
 22 21  1  0
 23 22  1  0
 23 16  1  0
 24 16  1  0
 25 24  1  0
 27 26  1  0
 27 25  1  0
  4 28  1  0
  8 29  1  0
 11 30  1  0
 13 31  1  0
 13 32  1  0
 13 33  1  0
 15 34  1  0
 15 35  1  0
 15 36  1  0
 17 37  1  0
 17 38  1  0
 17 39  1  0
 18 40  1  0
 18 41  1  0
 19 42  1  0
 19 43  1  0
 20 44  1  0
 20 45  1  0
 21 46  1  6
 22 47  1  0
 22 48  1  0
 23 49  1  0
 23 50  1  0
 24 51  1  0
 24 52  1  0
 25 53  1  0
 25 54  1  0
 26 55  1  0
 26 56  1  0
 26 57  1  0
M  CHG  1  16   1
M  END
>  <score>  (4) 
-6.729

$$$$
=
     RDKit          3D

 57 59  0  0  0  0  0  0  0  0999 V2000
    1.6660   58.8010   73.6100 C   0  0  0  0  0  0  0  0  0  0  0  0
    2.6550   58.5210   74.2930 O   0  0  0  0  0  0  0  0  0  0  0  0
    0.2920   58.7070   74.0910 C   0  0  0  0  0  0  0  0  0  0  0  0
   -0.7660   59.5860   73.9680 C   0  0  0  0  0  0  0  0  0  0  0  0
   -1.9740   59.1170   74.5890 C   0  0  0  0  0  0  0  0  0  0  0  0
   -1.7900   57.8670   75.1730 C   0  0  0  0  0  0  0  0  0  0  0  0
   -0.1810   57.3060   74.9510 S   0  0  0  0  0  0  0  0  0  0  0  0
   -2.8340   57.1980   75.8440 C   0  0  0  0  0  0  0  0  0  0  0  0
   -4.0910   57.8090   75.9250 C   0  0  0  0  0  0  0  0  0  0  0  0
   -4.3040   59.0690   75.3450 C   0  0  0  0  0  0  0  0  0  0  0  0
   -3.2540   59.7190   74.6820 C   0  0  0  0  0  0  0  0  0  0  0  0
   -5.5700   59.5860   75.4770 O   0  0  0  0  0  0  0  0  0  0  0  0
   -6.2560   59.9860   74.3000 C   0  0  0  0  0  0  0  0  0  0  0  0
   -5.1780   57.2480   76.5540 O   0  0  0  0  0  0  0  0  0  0  0  0
   -5.0790   56.9840   77.9460 C   0  0  0  0  0  0  0  0  0  0  0  0
    4.2650   61.3050   71.0180 N   0  0  1  0  0  4  0  0  0  0  0  0
    5.7020   60.9130   71.4200 C   0  0  0  0  0  0  0  0  0  0  0  0
    3.7640   60.3660   69.9210 C   0  0  0  0  0  0  0  0  0  0  0  0
    3.7000   58.8880   70.2930 C   0  0  0  0  0  0  0  0  0  0  0  0
    3.1570   58.4950   71.6640 C   0  0  0  0  0  0  0  0  0  0  0  0
    1.9050   59.2340   72.1530 C   0  0  2  0  0  0  0  0  0  0  0  0
    1.9890   60.7740   72.1150 C   0  0  0  0  0  0  0  0  0  0  0  0
    3.3990   61.3330   72.3110 C   0  0  0  0  0  0  0  0  0  0  0  0
    4.3960   62.7650   70.4350 C   0  0  0  0  0  0  0  0  0  0  0  0
    3.4970   63.0940   69.2280 C   0  0  0  0  0  0  0  0  0  0  0  0
    2.1010   64.5860   70.4110 C   0  0  0  0  0  0  0  0  0  0  0  0
    2.1680   63.3800   69.6540 O   0  0  0  0  0  0  0  0  0  0  0  0
   -0.6913   60.5511   73.4456 H   0  0  0  0  0  0  0  0  0  0  0  0
   -2.6634   56.2104   76.2973 H   0  0  0  0  0  0  0  0  0  0  0  0
   -3.4250   60.7067   74.2291 H   0  0  0  0  0  0  0  0  0  0  0  0
   -7.1758   60.5224   74.5761 H   0  0  0  0  0  0  0  0  0  0  0  0
   -5.6094   60.6487   73.7060 H   0  0  0  0  0  0  0  0  0  0  0  0
   -6.5142   59.0969   73.7060 H   0  0  0  0  0  0  0  0  0  0  0  0
   -5.4103   57.8676   78.5112 H   0  0  0  0  0  0  0  0  0  0  0  0
   -5.7160   56.1246   78.2024 H   0  0  0  0  0  0  0  0  0  0  0  0
   -4.0340   56.7553   78.2024 H   0  0  0  0  0  0  0  0  0  0  0  0
    5.7828   60.8910   72.5168 H   0  0  0  0  0  0  0  0  0  0  0  0
    5.9375   59.9178   71.0149 H   0  0  0  0  0  0  0  0  0  0  0  0
    6.4102   61.6508   71.0149 H   0  0  0  0  0  0  0  0  0  0  0  0
    2.7508   60.6873   69.6379 H   0  0  0  0  0  0  0  0  0  0  0  0
    4.4992   60.4382   69.1060 H   0  0  0  0  0  0  0  0  0  0  0  0
    3.0674   58.3931   69.5414 H   0  0  0  0  0  0  0  0  0  0  0  0
    4.7548   58.5777   70.3272 H   0  0  0  0  0  0  0  0  0  0  0  0
    2.9178   57.4218   71.6314 H   0  0  0  0  0  0  0  0  0  0  0  0
    3.9490   58.7711   72.3757 H   0  0  0  0  0  0  0  0  0  0  0  0
    1.0895   58.9661   71.4651 H   0  0  0  0  0  0  0  0  0  0  0  0
    1.6160   61.1152   71.1381 H   0  0  0  0  0  0  0  0  0  0  0  0
    1.3843   61.1431   72.9565 H   0  0  0  0  0  0  0  0  0  0  0  0
    3.3156   62.3757   72.6513 H   0  0  0  0  0  0  0  0  0  0  0  0
    3.9010   60.6910   73.0498 H   0  0  0  0  0  0  0  0  0  0  0  0
    4.1497   63.4723   71.2406 H   0  0  0  0  0  0  0  0  0  0  0  0
    5.4290   62.8449   70.0656 H   0  0  0  0  0  0  0  0  0  0  0  0
    3.9043   63.9703   68.7024 H   0  0  0  0  0  0  0  0  0  0  0  0
    3.4737   62.2233   68.5562 H   0  0  0  0  0  0  0  0  0  0  0  0
    2.1143   64.3463   71.4845 H   0  0  0  0  0  0  0  0  0  0  0  0
    2.9653   65.2210   70.1663 H   0  0  0  0  0  0  0  0  0  0  0  0
    1.1717   65.1213   70.1663 H   0  0  0  0  0  0  0  0  0  0  0  0
  2  1  2  0
  3  1  1  0
  4  3  2  0
  5  4  1  0
  6  5  2  0
  7  6  1  0
  7  3  1  0
  8  6  1  0
  9  8  2  0
 10  9  1  0
 11 10  2  0
 11  5  1  0
 12 10  1  0
 13 12  1  0
 14  9  1  0
 15 14  1  0
 16 17  1  1
 18 16  1  0
 19 18  1  0
 20 19  1  0
 21 20  1  0
 21  1  1  0
 22 21  1  0
 23 22  1  0
 23 16  1  0
 24 16  1  0
 25 24  1  0
 27 26  1  0
 27 25  1  0
  4 28  1  0
  8 29  1  0
 11 30  1  0
 13 31  1  0
 13 32  1  0
 13 33  1  0
 15 34  1  0
 15 35  1  0
 15 36  1  0
 17 37  1  0
 17 38  1  0
 17 39  1  0
 18 40  1  0
 18 41  1  0
 19 42  1  0
 19 43  1  0
 20 44  1  0
 20 45  1  0
 21 46  1  6
 22 47  1  0
 22 48  1  0
 23 49  1  0
 23 50  1  0
 24 51  1  0
 24 52  1  0
 25 53  1  0
 25 54  1  0
 26 55  1  0
 26 56  1  0
 26 57  1  0
M  CHG  1  16   1
M  END
>  <score>  (5) 
-6.725

$$$$
=
     RDKit          3D

 57 59  0  0  0  0  0  0  0  0999 V2000
    0.5350   65.9130   70.3960 C   0  0  0  0  0  0  0  0  0  0  0  0
   -0.2610   66.6390   70.9990 O   0  0  0  0  0  0  0  0  0  0  0  0
    0.8790   64.5580   70.8150 C   0  0  0  0  0  0  0  0  0  0  0  0
    0.1650   63.6380   71.5560 C   0  0  0  0  0  0  0  0  0  0  0  0
    0.8630   62.3970   71.7540 C   0  0  0  0  0  0  0  0  0  0  0  0
    2.1110   62.4160   71.1370 C   0  0  0  0  0  0  0  0  0  0  0  0
    2.3930   63.9150   70.3470 S   0  0  0  0  0  0  0  0  0  0  0  0
    2.9830   61.3100   71.1900 C   0  0  0  0  0  0  0  0  0  0  0  0
    2.5830   60.1600   71.8820 C   0  0  0  0  0  0  0  0  0  0  0  0
    1.3300   60.1150   72.5120 C   0  0  0  0  0  0  0  0  0  0  0  0
    0.4750   61.2250   72.4490 C   0  0  0  0  0  0  0  0  0  0  0  0
    1.0280   58.9450   73.1650 O   0  0  0  0  0  0  0  0  0  0  0  0
   -0.2200   58.8570   73.8370 C   0  0  0  0  0  0  0  0  0  0  0  0
    3.3520   59.0270   71.9970 O   0  0  0  0  0  0  0  0  0  0  0  0
    3.5180   58.2150   70.8420 C   0  0  0  0  0  0  0  0  0  0  0  0
   -0.0120   68.7160   66.9930 N   0  0  1  0  0  4  0  0  0  0  0  0
   -0.5300   70.0150   67.6430 C   0  0  0  0  0  0  0  0  0  0  0  0
    1.5160   68.7180   66.9870 C   0  0  0  0  0  0  0  0  0  0  0  0
    2.1840   68.7880   68.3570 C   0  0  0  0  0  0  0  0  0  0  0  0
    1.6240   67.9380   69.4940 C   0  0  0  0  0  0  0  0  0  0  0  0
    1.2310   66.4950   69.1540 C   0  0  2  0  0  0  0  0  0  0  0  0
    0.2810   66.3360   67.9490 C   0  0  0  0  0  0  0  0  0  0  0  0
   -0.6680   67.5160   67.7350 C   0  0  0  0  0  0  0  0  0  0  0  0
   -0.5390   68.7740   65.5060 C   0  0  0  0  0  0  0  0  0  0  0  0
    0.5180   68.5620   64.4060 C   0  0  0  0  0  0  0  0  0  0  0  0
   -0.1960   69.4770   62.3500 C   0  0  0  0  0  0  0  0  0  0  0  0
   -0.1060   68.3020   63.1520 O   0  0  0  0  0  0  0  0  0  0  0  0
   -0.8405   63.8353   71.9561 H   0  0  0  0  0  0  0  0  0  0  0  0
    3.9643   61.3495   70.6946 H   0  0  0  0  0  0  0  0  0  0  0  0
   -0.5065   61.1852   72.9441 H   0  0  0  0  0  0  0  0  0  0  0  0
   -0.0527   58.8688   74.9241 H   0  0  0  0  0  0  0  0  0  0  0  0
   -0.8502   59.7129   73.5537 H   0  0  0  0  0  0  0  0  0  0  0  0
   -0.7238   57.9211   73.5537 H   0  0  0  0  0  0  0  0  0  0  0  0
    3.7296   57.1800   71.1487 H   0  0  0  0  0  0  0  0  0  0  0  0
    2.5965   58.2384   70.2418 H   0  0  0  0  0  0  0  0  0  0  0  0
    4.3564   58.5982   70.2418 H   0  0  0  0  0  0  0  0  0  0  0  0
   -0.4912   69.9178   68.7380 H   0  0  0  0  0  0  0  0  0  0  0  0
    0.1001   70.8595   67.3273 H   0  0  0  0  0  0  0  0  0  0  0  0
   -1.5684   70.1942   67.3273 H   0  0  0  0  0  0  0  0  0  0  0  0
    1.8530   67.7944   66.4937 H   0  0  0  0  0  0  0  0  0  0  0  0
    1.8121   69.6383   66.4622 H   0  0  0  0  0  0  0  0  0  0  0  0
    3.2345   68.4920   68.2196 H   0  0  0  0  0  0  0  0  0  0  0  0
    2.0058   69.8223   68.6864 H   0  0  0  0  0  0  0  0  0  0  0  0
    2.3873   67.8968   70.2850 H   0  0  0  0  0  0  0  0  0  0  0  0
    0.6838   68.4303   69.7834 H   0  0  0  0  0  0  0  0  0  0  0  0
    2.1563   65.9716   68.8714 H   0  0  0  0  0  0  0  0  0  0  0  0
    0.8920   66.2166   67.0421 H   0  0  0  0  0  0  0  0  0  0  0  0
   -0.3493   65.4592   68.1587 H   0  0  0  0  0  0  0  0  0  0  0  0
   -1.5271   67.1684   67.1425 H   0  0  0  0  0  0  0  0  0  0  0  0
   -0.9651   67.8759   68.7311 H   0  0  0  0  0  0  0  0  0  0  0  0
   -1.3062   67.9942   65.3902 H   0  0  0  0  0  0  0  0  0  0  0  0
   -0.9133   69.7986   65.3639 H   0  0  0  0  0  0  0  0  0  0  0  0
    1.1370   69.4673   64.3206 H   0  0  0  0  0  0  0  0  0  0  0  0
    1.1419   67.6975   64.6767 H   0  0  0  0  0  0  0  0  0  0  0  0
   -0.2637   70.3610   63.0011 H   0  0  0  0  0  0  0  0  0  0  0  0
    0.6987   69.5569   61.7150 H   0  0  0  0  0  0  0  0  0  0  0  0
   -1.0924   69.4198   61.7150 H   0  0  0  0  0  0  0  0  0  0  0  0
  2  1  2  0
  3  1  1  0
  4  3  2  0
  5  4  1  0
  6  5  2  0
  7  6  1  0
  7  3  1  0
  8  6  1  0
  9  8  2  0
 10  9  1  0
 11 10  2  0
 11  5  1  0
 12 10  1  0
 13 12  1  0
 14  9  1  0
 15 14  1  0
 16 17  1  1
 18 16  1  0
 19 18  1  0
 20 19  1  0
 21 20  1  0
 21  1  1  0
 22 21  1  0
 23 22  1  0
 23 16  1  0
 24 16  1  0
 25 24  1  0
 27 26  1  0
 27 25  1  0
  4 28  1  0
  8 29  1  0
 11 30  1  0
 13 31  1  0
 13 32  1  0
 13 33  1  0
 15 34  1  0
 15 35  1  0
 15 36  1  0
 17 37  1  0
 17 38  1  0
 17 39  1  0
 18 40  1  0
 18 41  1  0
 19 42  1  0
 19 43  1  0
 20 44  1  0
 20 45  1  0
 21 46  1  6
 22 47  1  0
 22 48  1  0
 23 49  1  0
 23 50  1  0
 24 51  1  0
 24 52  1  0
 25 53  1  0
 25 54  1  0
 26 55  1  0
 26 56  1  0
 26 57  1  0
M  CHG  1  16   1
M  END
>  <score>  (6) 
-6.629

$$$$
=
     RDKit          3D

 57 59  0  0  0  0  0  0  0  0999 V2000
    0.1520   59.6930   74.4810 C   0  0  0  0  0  0  0  0  0  0  0  0
    0.9260   59.8380   75.4320 O   0  0  0  0  0  0  0  0  0  0  0  0
   -1.2990   59.6260   74.6160 C   0  0  0  0  0  0  0  0  0  0  0  0
   -2.1110   58.6230   75.1070 C   0  0  0  0  0  0  0  0  0  0  0  0
   -3.5100   58.9500   75.0700 C   0  0  0  0  0  0  0  0  0  0  0  0
   -3.7180   60.2210   74.5430 C   0  0  0  0  0  0  0  0  0  0  0  0
   -2.2310   60.9710   74.1170 S   0  0  0  0  0  0  0  0  0  0  0  0
   -5.0100   60.7670   74.4050 C   0  0  0  0  0  0  0  0  0  0  0  0
   -6.1160   60.0090   74.8100 C   0  0  0  0  0  0  0  0  0  0  0  0
   -5.9340   58.7250   75.3450 C   0  0  0  0  0  0  0  0  0  0  0  0
   -4.6410   58.1980   75.4750 C   0  0  0  0  0  0  0  0  0  0  0  0
   -7.0770   58.0600   75.7140 O   0  0  0  0  0  0  0  0  0  0  0  0
   -7.0570   57.3100   76.9200 C   0  0  0  0  0  0  0  0  0  0  0  0
   -7.4170   60.4420   74.7220 O   0  0  0  0  0  0  0  0  0  0  0  0
   -7.7910   61.1990   73.5790 C   0  0  0  0  0  0  0  0  0  0  0  0
    3.5070   61.0210   71.8890 N   0  0  1  0  0  4  0  0  0  0  0  0
    4.7660   60.8250   72.7580 C   0  0  0  0  0  0  0  0  0  0  0  0
    3.1960   59.7290   71.1360 C   0  0  0  0  0  0  0  0  0  0  0  0
    2.9110   58.5070   72.0060 C   0  0  0  0  0  0  0  0  0  0  0  0
    2.0260   58.6700   73.2380 C   0  0  0  0  0  0  0  0  0  0  0  0
    0.7670   59.5310   73.0800 C   0  0  2  0  0  0  0  0  0  0  0  0
    0.9980   60.9380   72.4900 C   0  0  0  0  0  0  0  0  0  0  0  0
    2.3660   61.5400   72.8120 C   0  0  0  0  0  0  0  0  0  0  0  0
    3.9050   62.1450   70.8550 C   0  0  0  0  0  0  0  0  0  0  0  0
    3.1360   62.1360   69.5200 C   0  0  0  0  0  0  0  0  0  0  0  0
    2.4130   64.2310   70.3340 C   0  0  0  0  0  0  0  0  0  0  0  0
    2.0820   63.0940   69.5400 O   0  0  0  0  0  0  0  0  0  0  0  0
   -1.7247   57.6667   75.4893 H   0  0  0  0  0  0  0  0  0  0  0  0
   -5.1478   61.7743   73.9851 H   0  0  0  0  0  0  0  0  0  0  0  0
   -4.5032   57.1909   75.8955 H   0  0  0  0  0  0  0  0  0  0  0  0
   -7.0753   57.9967   77.7792 H   0  0  0  0  0  0  0  0  0  0  0  0
   -7.9379   56.6523   76.9574 H   0  0  0  0  0  0  0  0  0  0  0  0
   -6.1423   56.7002   76.9574 H   0  0  0  0  0  0  0  0  0  0  0  0
   -8.2570   62.1422   73.9003 H   0  0  0  0  0  0  0  0  0  0  0  0
   -6.8975   61.4182   72.9760 H   0  0  0  0  0  0  0  0  0  0  0  0
   -8.5080   60.6226   72.9760 H   0  0  0  0  0  0  0  0  0  0  0  0
    4.4879   60.8683   73.8214 H   0  0  0  0  0  0  0  0  0  0  0  0
    5.2159   59.8460   72.5362 H   0  0  0  0  0  0  0  0  0  0  0  0
    5.4922   61.6209   72.5362 H   0  0  0  0  0  0  0  0  0  0  0  0
    2.3120   59.9092   70.5066 H   0  0  0  0  0  0  0  0  0  0  0  0
    4.1064   59.4867   70.5682 H   0  0  0  0  0  0  0  0  0  0  0  0
    2.4314   57.7561   71.3609 H   0  0  0  0  0  0  0  0  0  0  0  0
    3.8949   58.2407   72.4196 H   0  0  0  0  0  0  0  0  0  0  0  0
    1.7044   57.6657   73.5511 H   0  0  0  0  0  0  0  0  0  0  0  0
    2.6492   59.2055   73.9693 H   0  0  0  0  0  0  0  0  0  0  0  0
    0.1164   59.0119   72.3608 H   0  0  0  0  0  0  0  0  0  0  0  0
    0.8993   60.8731   71.3964 H   0  0  0  0  0  0  0  0  0  0  0  0
    0.2479   61.5985   72.9493 H   0  0  0  0  0  0  0  0  0  0  0  0
    2.2998   62.6325   72.7027 H   0  0  0  0  0  0  0  0  0  0  0  0
    2.6184   61.2374   73.8390 H   0  0  0  0  0  0  0  0  0  0  0  0
    3.7347   63.1199   71.3352 H   0  0  0  0  0  0  0  0  0  0  0  0
    4.9556   61.9499   70.5939 H   0  0  0  0  0  0  0  0  0  0  0  0
    3.8298   62.3795   68.7019 H   0  0  0  0  0  0  0  0  0  0  0  0
    2.7027   61.1364   69.3680 H   0  0  0  0  0  0  0  0  0  0  0  0
    2.3367   63.9689   71.3996 H   0  0  0  0  0  0  0  0  0  0  0  0
    3.4412   64.5496   70.1075 H   0  0  0  0  0  0  0  0  0  0  0  0
    1.7165   65.0517   70.1075 H   0  0  0  0  0  0  0  0  0  0  0  0
  2  1  2  0
  3  1  1  0
  4  3  2  0
  5  4  1  0
  6  5  2  0
  7  6  1  0
  7  3  1  0
  8  6  1  0
  9  8  2  0
 10  9  1  0
 11 10  2  0
 11  5  1  0
 12 10  1  0
 13 12  1  0
 14  9  1  0
 15 14  1  0
 16 17  1  1
 18 16  1  0
 19 18  1  0
 20 19  1  0
 21 20  1  0
 21  1  1  0
 22 21  1  0
 23 22  1  0
 23 16  1  0
 24 16  1  0
 25 24  1  0
 27 26  1  0
 27 25  1  0
  4 28  1  0
  8 29  1  0
 11 30  1  0
 13 31  1  0
 13 32  1  0
 13 33  1  0
 15 34  1  0
 15 35  1  0
 15 36  1  0
 17 37  1  0
 17 38  1  0
 17 39  1  0
 18 40  1  0
 18 41  1  0
 19 42  1  0
 19 43  1  0
 20 44  1  0
 20 45  1  0
 21 46  1  6
 22 47  1  0
 22 48  1  0
 23 49  1  0
 23 50  1  0
 24 51  1  0
 24 52  1  0
 25 53  1  0
 25 54  1  0
 26 55  1  0
 26 56  1  0
 26 57  1  0
M  CHG  1  16   1
M  END
>  <score>  (7) 
-6.575

$$$$
=
     RDKit          3D

 57 59  0  0  0  0  0  0  0  0999 V2000
    1.0940   59.5140   74.0780 C   0  0  0  0  0  0  0  0  0  0  0  0
    1.8640   59.0060   74.8990 O   0  0  0  0  0  0  0  0  0  0  0  0
   -0.1880   60.1160   74.4280 C   0  0  0  0  0  0  0  0  0  0  0  0
   -1.4680   59.8070   74.0150 C   0  0  0  0  0  0  0  0  0  0  0  0
   -2.4770   60.6480   74.6010 C   0  0  0  0  0  0  0  0  0  0  0  0
   -1.9150   61.5850   75.4620 C   0  0  0  0  0  0  0  0  0  0  0  0
   -0.2060   61.4190   75.5360 S   0  0  0  0  0  0  0  0  0  0  0  0
   -2.7040   62.5230   76.1580 C   0  0  0  0  0  0  0  0  0  0  0  0
   -4.0930   62.5110   75.9770 C   0  0  0  0  0  0  0  0  0  0  0  0
   -4.6850   61.5760   75.1150 C   0  0  0  0  0  0  0  0  0  0  0  0
   -3.8840   60.6500   74.4310 C   0  0  0  0  0  0  0  0  0  0  0  0
   -6.0520   61.6420   75.0040 O   0  0  0  0  0  0  0  0  0  0  0  0
   -6.6860   60.8210   74.0330 C   0  0  0  0  0  0  0  0  0  0  0  0
   -4.9560   63.3770   76.6050 O   0  0  0  0  0  0  0  0  0  0  0  0
   -4.9920   64.7240   76.1540 C   0  0  0  0  0  0  0  0  0  0  0  0
    4.0010   61.1240   71.1280 N   0  0  1  0  0  4  0  0  0  0  0  0
    5.3780   60.9140   71.7910 C   0  0  0  0  0  0  0  0  0  0  0  0
    3.6140   59.8740   70.3390 C   0  0  0  0  0  0  0  0  0  0  0  0
    3.4890   58.5890   71.1530 C   0  0  0  0  0  0  0  0  0  0  0  0
    2.7900   58.6400   72.5080 C   0  0  0  0  0  0  0  0  0  0  0  0
    1.5010   59.4660   72.5950 C   0  0  2  0  0  0  0  0  0  0  0  0
    1.6090   60.9150   72.0780 C   0  0  0  0  0  0  0  0  0  0  0  0
    2.9950   61.5410   72.2400 C   0  0  0  0  0  0  0  0  0  0  0  0
    4.2160   62.3260   70.1290 C   0  0  0  0  0  0  0  0  0  0  0  0
    3.5740   63.6660   70.5370 C   0  0  0  0  0  0  0  0  0  0  0  0
    1.3710   64.5160   70.5470 C   0  0  0  0  0  0  0  0  0  0  0  0
    2.4030   63.9180   69.7660 O   0  0  0  0  0  0  0  0  0  0  0  0
   -1.6945   58.9965   73.3067 H   0  0  0  0  0  0  0  0  0  0  0  0
   -2.2357   63.2539   76.8336 H   0  0  0  0  0  0  0  0  0  0  0  0
   -4.3523   59.9183   73.7562 H   0  0  0  0  0  0  0  0  0  0  0  0
   -7.2828   60.0482   74.5396 H   0  0  0  0  0  0  0  0  0  0  0  0
   -7.3439   61.4386   73.4039 H   0  0  0  0  0  0  0  0  0  0  0  0
   -5.9222   60.3407   73.4039 H   0  0  0  0  0  0  0  0  0  0  0  0
   -5.0101   65.4006   77.0211 H   0  0  0  0  0  0  0  0  0  0  0  0
   -4.0991   64.9311   75.5459 H   0  0  0  0  0  0  0  0  0  0  0  0
   -5.8947   64.8831   75.5459 H   0  0  0  0  0  0  0  0  0  0  0  0
    5.2647   60.9313   72.8850 H   0  0  0  0  0  0  0  0  0  0  0  0
    5.7902   59.9426   71.4804 H   0  0  0  0  0  0  0  0  0  0  0  0
    6.0610   61.7184   71.4804 H   0  0  0  0  0  0  0  0  0  0  0  0
    2.6433   60.0651   69.8582 H   0  0  0  0  0  0  0  0  0  0  0  0
    4.4370   59.7006   69.6300 H   0  0  0  0  0  0  0  0  0  0  0  0
    2.9387   57.8662   70.5328 H   0  0  0  0  0  0  0  0  0  0  0  0
    4.5290   58.3301   71.4009 H   0  0  0  0  0  0  0  0  0  0  0  0
    2.5421   57.6068   72.7927 H   0  0  0  0  0  0  0  0  0  0  0  0
    3.5004   59.1473   73.1773 H   0  0  0  0  0  0  0  0  0  0  0  0
    0.7645   58.9735   71.9431 H   0  0  0  0  0  0  0  0  0  0  0  0
    1.3525   60.9188   71.0083 H   0  0  0  0  0  0  0  0  0  0  0  0
    0.9187   61.5180   72.6862 H   0  0  0  0  0  0  0  0  0  0  0  0
    2.8869   62.6355   72.2185 H   0  0  0  0  0  0  0  0  0  0  0  0
    3.4025   61.1795   73.1956 H   0  0  0  0  0  0  0  0  0  0  0  0
    5.2990   62.4890   70.0266 H   0  0  0  0  0  0  0  0  0  0  0  0
    3.7154   62.0292   69.1956 H   0  0  0  0  0  0  0  0  0  0  0  0
    3.3035   63.6273   71.6025 H   0  0  0  0  0  0  0  0  0  0  0  0
    4.2975   64.4746   70.3563 H   0  0  0  0  0  0  0  0  0  0  0  0
    1.5971   64.3850   71.6155 H   0  0  0  0  0  0  0  0  0  0  0  0
    1.3101   65.5893   70.3140 H   0  0  0  0  0  0  0  0  0  0  0  0
    0.4095   64.0351   70.3140 H   0  0  0  0  0  0  0  0  0  0  0  0
  2  1  2  0
  3  1  1  0
  4  3  2  0
  5  4  1  0
  6  5  2  0
  7  6  1  0
  7  3  1  0
  8  6  1  0
  9  8  2  0
 10  9  1  0
 11 10  2  0
 11  5  1  0
 12 10  1  0
 13 12  1  0
 14  9  1  0
 15 14  1  0
 16 17  1  1
 18 16  1  0
 19 18  1  0
 20 19  1  0
 21 20  1  0
 21  1  1  0
 22 21  1  0
 23 22  1  0
 23 16  1  0
 24 16  1  0
 25 24  1  0
 27 26  1  0
 27 25  1  0
  4 28  1  0
  8 29  1  0
 11 30  1  0
 13 31  1  0
 13 32  1  0
 13 33  1  0
 15 34  1  0
 15 35  1  0
 15 36  1  0
 17 37  1  0
 17 38  1  0
 17 39  1  0
 18 40  1  0
 18 41  1  0
 19 42  1  0
 19 43  1  0
 20 44  1  0
 20 45  1  0
 21 46  1  6
 22 47  1  0
 22 48  1  0
 23 49  1  0
 23 50  1  0
 24 51  1  0
 24 52  1  0
 25 53  1  0
 25 54  1  0
 26 55  1  0
 26 56  1  0
 26 57  1  0
M  CHG  1  16   1
M  END
>  <score>  (8) 
-6.567

$$$$
=
     RDKit          3D

 57 59  0  0  0  0  0  0  0  0999 V2000
    0.0210   58.9860   74.8090 C   0  0  0  0  0  0  0  0  0  0  0  0
    0.5750   58.9400   75.9120 O   0  0  0  0  0  0  0  0  0  0  0  0
    0.3360   59.9710   73.7810 C   0  0  0  0  0  0  0  0  0  0  0  0
   -0.3690   61.0770   73.3490 C   0  0  0  0  0  0  0  0  0  0  0  0
    0.2930   61.8040   72.2990 C   0  0  0  0  0  0  0  0  0  0  0  0
    1.5080   61.2130   71.9650 C   0  0  0  0  0  0  0  0  0  0  0  0
    1.8070   59.8170   72.9210 S   0  0  0  0  0  0  0  0  0  0  0  0
    2.3410   61.7450   70.9600 C   0  0  0  0  0  0  0  0  0  0  0  0
    1.9360   62.9000   70.2800 C   0  0  0  0  0  0  0  0  0  0  0  0
    0.7150   63.5150   70.5990 C   0  0  0  0  0  0  0  0  0  0  0  0
   -0.1010   62.9720   71.6000 C   0  0  0  0  0  0  0  0  0  0  0  0
    0.4040   64.6420   69.8780 O   0  0  0  0  0  0  0  0  0  0  0  0
    0.3020   65.8760   70.5740 C   0  0  0  0  0  0  0  0  0  0  0  0
    2.6690   63.5030   69.2860 O   0  0  0  0  0  0  0  0  0  0  0  0
    3.6400   62.7200   68.6060 C   0  0  0  0  0  0  0  0  0  0  0  0
   -1.3040   54.8320   75.6640 N   0  0  1  0  0  4  0  0  0  0  0  0
   -1.2000   54.7030   77.1970 C   0  0  0  0  0  0  0  0  0  0  0  0
   -2.6770   55.3870   75.2870 C   0  0  0  0  0  0  0  0  0  0  0  0
   -3.0070   56.7700   75.8410 C   0  0  0  0  0  0  0  0  0  0  0  0
   -1.9320   57.8530   75.8110 C   0  0  0  0  0  0  0  0  0  0  0  0
   -1.0960   57.9660   74.5300 C   0  0  2  0  0  0  0  0  0  0  0  0
   -0.4420   56.6540   74.0500 C   0  0  0  0  0  0  0  0  0  0  0  0
   -0.0920   55.6760   75.1730 C   0  0  0  0  0  0  0  0  0  0  0  0
   -1.1730   53.3540   75.1270 C   0  0  0  0  0  0  0  0  0  0  0  0
    0.1970   52.9680   74.5380 C   0  0  0  0  0  0  0  0  0  0  0  0
    1.2250   52.1700   76.5080 C   0  0  0  0  0  0  0  0  0  0  0  0
    0.7330   51.8340   75.2130 O   0  0  0  0  0  0  0  0  0  0  0  0
   -1.3423   61.3733   73.7672 H   0  0  0  0  0  0  0  0  0  0  0  0
    3.2966   61.2592   70.7132 H   0  0  0  0  0  0  0  0  0  0  0  0
   -1.0571   63.4572   71.8458 H   0  0  0  0  0  0  0  0  0  0  0  0
    0.3175   65.6881   71.6577 H   0  0  0  0  0  0  0  0  0  0  0  0
    1.1498   66.5218   70.3016 H   0  0  0  0  0  0  0  0  0  0  0  0
   -0.6404   66.3738   70.3016 H   0  0  0  0  0  0  0  0  0  0  0  0
    4.2770   62.2063   69.3411 H   0  0  0  0  0  0  0  0  0  0  0  0
    3.1336   61.9746   67.9752 H   0  0  0  0  0  0  0  0  0  0  0  0
    4.2612   63.3729   67.9752 H   0  0  0  0  0  0  0  0  0  0  0  0
   -1.8224   55.4750   77.6730 H   0  0  0  0  0  0  0  0  0  0  0  0
   -1.5509   53.7073   77.5058 H   0  0  0  0  0  0  0  0  0  0  0  0
   -0.1525   54.8347   77.5058 H   0  0  0  0  0  0  0  0  0  0  0  0
   -2.7298   55.4412   74.1896 H   0  0  0  0  0  0  0  0  0  0  0  0
   -3.4109   54.7015   75.7359 H   0  0  0  0  0  0  0  0  0  0  0  0
   -3.8650   57.1510   75.2677 H   0  0  0  0  0  0  0  0  0  0  0  0
   -3.1739   56.5925   76.9137 H   0  0  0  0  0  0  0  0  0  0  0  0
   -2.4307   58.8207   75.9687 H   0  0  0  0  0  0  0  0  0  0  0  0
   -1.2162   57.5682   76.5962 H   0  0  0  0  0  0  0  0  0  0  0  0
   -1.7855   58.2635   73.7262 H   0  0  0  0  0  0  0  0  0  0  0  0
   -1.1393   56.1532   73.3623 H   0  0  0  0  0  0  0  0  0  0  0  0
    0.5071   56.9333   73.5691 H   0  0  0  0  0  0  0  0  0  0  0  0
    0.6846   54.9888   74.8062 H   0  0  0  0  0  0  0  0  0  0  0  0
    0.2510   56.2763   76.0285 H   0  0  0  0  0  0  0  0  0  0  0  0
   -1.3836   52.6720   75.9640 H   0  0  0  0  0  0  0  0  0  0  0  0
   -1.8863   53.2774   74.2931 H   0  0  0  0  0  0  0  0  0  0  0  0
    0.0772   52.7299   73.4708 H   0  0  0  0  0  0  0  0  0  0  0  0
    0.8879   53.8145   74.6646 H   0  0  0  0  0  0  0  0  0  0  0  0
    0.5735   51.7251   77.2746 H   0  0  0  0  0  0  0  0  0  0  0  0
    2.2471   51.7804   76.6244 H   0  0  0  0  0  0  0  0  0  0  0  0
    1.2341   53.2638   76.6244 H   0  0  0  0  0  0  0  0  0  0  0  0
  2  1  2  0
  3  1  1  0
  4  3  2  0
  5  4  1  0
  6  5  2  0
  7  6  1  0
  7  3  1  0
  8  6  1  0
  9  8  2  0
 10  9  1  0
 11 10  2  0
 11  5  1  0
 12 10  1  0
 13 12  1  0
 14  9  1  0
 15 14  1  0
 16 17  1  1
 18 16  1  0
 19 18  1  0
 20 19  1  0
 21 20  1  0
 21  1  1  0
 22 21  1  0
 23 22  1  0
 23 16  1  0
 24 16  1  0
 25 24  1  0
 27 26  1  0
 27 25  1  0
  4 28  1  0
  8 29  1  0
 11 30  1  0
 13 31  1  0
 13 32  1  0
 13 33  1  0
 15 34  1  0
 15 35  1  0
 15 36  1  0
 17 37  1  0
 17 38  1  0
 17 39  1  0
 18 40  1  0
 18 41  1  0
 19 42  1  0
 19 43  1  0
 20 44  1  0
 20 45  1  0
 21 46  1  6
 22 47  1  0
 22 48  1  0
 23 49  1  0
 23 50  1  0
 24 51  1  0
 24 52  1  0
 25 53  1  0
 25 54  1  0
 26 55  1  0
 26 56  1  0
 26 57  1  0
M  CHG  1  16   1
M  END
>  <score>  (9) 
-4.869

$$$$
