=
     RDKit          3D

 22 24  0  0  0  0  0  0  0  0999 V2000
    0.8660   68.7800   67.5940 O   0  0  0  0  0  0  0  0  0  0  0  0
    1.8570   68.9780   66.9050 C   0  0  0  0  0  0  0  0  0  0  0  0
    1.8690   68.5740   65.4390 C   0  0  0  0  0  0  0  0  0  0  0  0
    0.8890   68.0470   64.9330 O   0  0  0  0  0  0  0  0  0  0  0  0
    3.0810   68.8330   64.6500 C   0  0  0  0  0  0  0  0  0  0  0  0
    3.1330   68.4770   63.2990 C   0  0  0  0  0  0  0  0  0  0  0  0
    4.2900   68.7310   62.5730 C   0  0  0  0  0  0  0  0  0  0  0  0
    5.3490   69.3310   63.2290 C   0  0  0  0  0  0  0  0  0  0  0  0
    5.3180   69.6830   64.5330 N   0  0  0  0  0  0  0  0  0  0  0  0
    4.1850   69.4340   65.2460 C   0  0  0  0  0  0  0  0  0  0  0  0
    4.1720   69.8260   66.6690 C   0  0  0  0  0  0  0  0  0  0  0  0
    3.0570   69.6090   67.4700 C   0  0  0  0  0  0  0  0  0  0  0  0
    3.0850   69.9950   68.8140 C   0  0  0  0  0  0  0  0  0  0  0  0
    4.2310   70.5910   69.3260 C   0  0  0  0  0  0  0  0  0  0  0  0
    5.3030   70.7760   68.4730 C   0  0  0  0  0  0  0  0  0  0  0  0
    5.2950   70.4090   67.1710 N   0  0  0  0  0  0  0  0  0  0  0  0
    2.2670   68.0008   62.8160 H   0  0  0  0  0  0  0  0  0  0  0  0
    4.3614   68.4629   61.5086 H   0  0  0  0  0  0  0  0  0  0  0  0
    6.2672   69.5328   62.6578 H   0  0  0  0  0  0  0  0  0  0  0  0
    2.2094   69.8286   69.4587 H   0  0  0  0  0  0  0  0  0  0  0  0
    4.2837   70.9062   70.3786 H   0  0  0  0  0  0  0  0  0  0  0  0
    6.2120   71.2473   68.8749 H   0  0  0  0  0  0  0  0  0  0  0  0
  2  1  2  0
  3  2  1  0
  4  3  2  0
  5  3  1  0
  6  5  2  0
  7  6  1  0
  8  7  2  0
  9  8  1  0
 10  9  2  0
 10  5  1  0
 11 10  1  0
 12 11  2  0
 12  2  1  0
 13 12  1  0
 14 13  2  0
 15 14  1  0
 16 15  2  0
 16 11  1  0
  6 17  1  0
  7 18  1  0
  8 19  1  0
 13 20  1  0
 14 21  1  0
 15 22  1  0
M  END
>  <score>  (1) 
-9.146

$$$$
=
     RDKit          3D

 22 24  0  0  0  0  0  0  0  0999 V2000
    1.1860   68.3940   65.3450 O   0  0  0  0  0  0  0  0  0  0  0  0
    2.2970   68.8390   65.5930 C   0  0  0  0  0  0  0  0  0  0  0  0
    2.6470   69.3030   66.9970 C   0  0  0  0  0  0  0  0  0  0  0  0
    1.8210   69.2370   67.8960 O   0  0  0  0  0  0  0  0  0  0  0  0
    3.9960   69.8300   67.2480 C   0  0  0  0  0  0  0  0  0  0  0  0
    4.3580   70.2660   68.5260 C   0  0  0  0  0  0  0  0  0  0  0  0
    5.6380   70.7610   68.7380 C   0  0  0  0  0  0  0  0  0  0  0  0
    6.5070   70.7980   67.6630 C   0  0  0  0  0  0  0  0  0  0  0  0
    6.1770   70.3790   66.4210 N   0  0  0  0  0  0  0  0  0  0  0  0
    4.9210   69.8950   66.2100 C   0  0  0  0  0  0  0  0  0  0  0  0
    4.5810   69.4450   64.8480 C   0  0  0  0  0  0  0  0  0  0  0  0
    3.3230   68.9370   64.5450 C   0  0  0  0  0  0  0  0  0  0  0  0
    3.0400   68.5200   63.2400 C   0  0  0  0  0  0  0  0  0  0  0  0
    4.0250   68.6210   62.2660 C   0  0  0  0  0  0  0  0  0  0  0  0
    5.2540   69.1360   62.6370 C   0  0  0  0  0  0  0  0  0  0  0  0
    5.5460   69.5440   63.8920 N   0  0  0  0  0  0  0  0  0  0  0  0
    3.6365   70.2175   69.3549 H   0  0  0  0  0  0  0  0  0  0  0  0
    5.9514   71.1133   69.7318 H   0  0  0  0  0  0  0  0  0  0  0  0
    7.5217   71.1896   67.8275 H   0  0  0  0  0  0  0  0  0  0  0  0
    2.0482   68.1165   62.9880 H   0  0  0  0  0  0  0  0  0  0  0  0
    3.8336   68.3012   61.2311 H   0  0  0  0  0  0  0  0  0  0  0  0
    6.0367   69.2180   61.8684 H   0  0  0  0  0  0  0  0  0  0  0  0
  2  1  2  0
  3  2  1  0
  4  3  2  0
  5  3  1  0
  6  5  2  0
  7  6  1  0
  8  7  2  0
  9  8  1  0
 10  9  2  0
 10  5  1  0
 11 10  1  0
 12 11  2  0
 12  2  1  0
 13 12  1  0
 14 13  2  0
 15 14  1  0
 16 15  2  0
 16 11  1  0
  6 17  1  0
  7 18  1  0
  8 19  1  0
 13 20  1  0
 14 21  1  0
 15 22  1  0
M  END
>  <score>  (2) 
-9.144

$$$$
=
     RDKit          3D

 22 24  0  0  0  0  0  0  0  0999 V2000
    3.0290   68.4260   63.4370 O   0  0  0  0  0  0  0  0  0  0  0  0
    3.2780   68.8350   64.5630 C   0  0  0  0  0  0  0  0  0  0  0  0
    4.6570   69.3780   64.8990 C   0  0  0  0  0  0  0  0  0  0  0  0
    5.5340   69.4140   64.0480 O   0  0  0  0  0  0  0  0  0  0  0  0
    4.9080   69.8590   66.2650 C   0  0  0  0  0  0  0  0  0  0  0  0
    6.1630   70.3670   66.6140 C   0  0  0  0  0  0  0  0  0  0  0  0
    6.3780   70.8150   67.9120 C   0  0  0  0  0  0  0  0  0  0  0  0
    5.3270   70.7370   68.8080 C   0  0  0  0  0  0  0  0  0  0  0  0
    4.1070   70.2500   68.4890 N   0  0  0  0  0  0  0  0  0  0  0  0
    3.8960   69.8100   67.2180 C   0  0  0  0  0  0  0  0  0  0  0  0
    2.5570   69.2820   66.8910 C   0  0  0  0  0  0  0  0  0  0  0  0
    2.2550   68.8120   65.6180 C   0  0  0  0  0  0  0  0  0  0  0  0
    0.9740   68.3200   65.3480 C   0  0  0  0  0  0  0  0  0  0  0  0
    0.0230   68.3090   66.3610 C   0  0  0  0  0  0  0  0  0  0  0  0
    0.3930   68.7910   67.6030 C   0  0  0  0  0  0  0  0  0  0  0  0
    1.6260   69.2700   67.8830 N   0  0  0  0  0  0  0  0  0  0  0  0
    6.9714   70.4116   65.8694 H   0  0  0  0  0  0  0  0  0  0  0  0
    7.3543   71.2193   68.2175 H   0  0  0  0  0  0  0  0  0  0  0  0
    5.4931   71.0906   69.8363 H   0  0  0  0  0  0  0  0  0  0  0  0
    0.7221   67.9459   64.3447 H   0  0  0  0  0  0  0  0  0  0  0  0
   -0.9932   67.9285   66.1804 H   0  0  0  0  0  0  0  0  0  0  0  0
   -0.3571   68.7844   68.4076 H   0  0  0  0  0  0  0  0  0  0  0  0
  2  1  2  0
  3  2  1  0
  4  3  2  0
  5  3  1  0
  6  5  2  0
  7  6  1  0
  8  7  2  0
  9  8  1  0
 10  9  2  0
 10  5  1  0
 11 10  1  0
 12 11  2  0
 12  2  1  0
 13 12  1  0
 14 13  2  0
 15 14  1  0
 16 15  2  0
 16 11  1  0
  6 17  1  0
  7 18  1  0
  8 19  1  0
 13 20  1  0
 14 21  1  0
 15 22  1  0
M  END
>  <score>  (3) 
-9.065

$$$$
=
     RDKit          3D

 22 24  0  0  0  0  0  0  0  0999 V2000
    5.4820   69.4050   63.9890 O   0  0  0  0  0  0  0  0  0  0  0  0
    4.6140   69.3790   64.8500 C   0  0  0  0  0  0  0  0  0  0  0  0
    3.2250   68.8520   64.5290 C   0  0  0  0  0  0  0  0  0  0  0  0
    2.9590   68.4480   63.4060 O   0  0  0  0  0  0  0  0  0  0  0  0
    2.2150   68.8400   65.5960 C   0  0  0  0  0  0  0  0  0  0  0  0
    0.9250   68.3630   65.3410 C   0  0  0  0  0  0  0  0  0  0  0  0
   -0.0130   68.3610   66.3660 C   0  0  0  0  0  0  0  0  0  0  0  0
    0.3770   68.8370   67.6040 C   0  0  0  0  0  0  0  0  0  0  0  0
    1.6180   69.3010   67.8700 N   0  0  0  0  0  0  0  0  0  0  0  0
    2.5390   69.3040   66.8660 C   0  0  0  0  0  0  0  0  0  0  0  0
    3.8870   69.8150   67.1770 C   0  0  0  0  0  0  0  0  0  0  0  0
    4.8880   69.8540   66.2130 C   0  0  0  0  0  0  0  0  0  0  0  0
    6.1540   70.3460   66.5480 C   0  0  0  0  0  0  0  0  0  0  0  0
    6.3890   70.7890   67.8430 C   0  0  0  0  0  0  0  0  0  0  0  0
    5.3480   70.7220   68.7520 C   0  0  0  0  0  0  0  0  0  0  0  0
    4.1180   70.2500   68.4470 N   0  0  0  0  0  0  0  0  0  0  0  0
    0.6562   67.9937   64.3403 H   0  0  0  0  0  0  0  0  0  0  0  0
   -1.0354   67.9917   66.1975 H   0  0  0  0  0  0  0  0  0  0  0  0
   -0.3637   68.8381   68.4173 H   0  0  0  0  0  0  0  0  0  0  0  0
    6.9543   70.3816   65.7942 H   0  0  0  0  0  0  0  0  0  0  0  0
    7.3735   71.1815   68.1374 H   0  0  0  0  0  0  0  0  0  0  0  0
    5.5309   71.0717   69.7788 H   0  0  0  0  0  0  0  0  0  0  0  0
  2  1  2  0
  3  2  1  0
  4  3  2  0
  5  3  1  0
  6  5  2  0
  7  6  1  0
  8  7  2  0
  9  8  1  0
 10  9  2  0
 10  5  1  0
 11 10  1  0
 12 11  2  0
 12  2  1  0
 13 12  1  0
 14 13  2  0
 15 14  1  0
 16 15  2  0
 16 11  1  0
  6 17  1  0
  7 18  1  0
  8 19  1  0
 13 20  1  0
 14 21  1  0
 15 22  1  0
M  END
>  <score>  (4) 
-9.05

$$$$
=
     RDKit          3D

 22 24  0  0  0  0  0  0  0  0999 V2000
    3.4380   69.7600   68.1130 O   0  0  0  0  0  0  0  0  0  0  0  0
    3.1560   69.4710   66.9580 C   0  0  0  0  0  0  0  0  0  0  0  0
    4.2200   69.5040   65.8730 C   0  0  0  0  0  0  0  0  0  0  0  0
    5.3700   69.8200   66.1420 O   0  0  0  0  0  0  0  0  0  0  0  0
    3.8340   69.1480   64.5010 C   0  0  0  0  0  0  0  0  0  0  0  0
    4.7830   69.1660   63.4740 C   0  0  0  0  0  0  0  0  0  0  0  0
    4.3950   68.8250   62.1840 C   0  0  0  0  0  0  0  0  0  0  0  0
    3.0720   68.4810   61.9740 C   0  0  0  0  0  0  0  0  0  0  0  0
    2.1410   68.4570   62.9530 N   0  0  0  0  0  0  0  0  0  0  0  0
    2.5200   68.7910   64.2180 C   0  0  0  0  0  0  0  0  0  0  0  0
    1.4880   68.7590   65.2720 C   0  0  0  0  0  0  0  0  0  0  0  0
    1.7870   69.0840   66.5890 C   0  0  0  0  0  0  0  0  0  0  0  0
    0.7810   69.0420   67.5590 C   0  0  0  0  0  0  0  0  0  0  0  0
   -0.5060   68.6730   67.1870 C   0  0  0  0  0  0  0  0  0  0  0  0
   -0.7330   68.3620   65.8590 C   0  0  0  0  0  0  0  0  0  0  0  0
    0.2270   68.3980   64.9070 N   0  0  0  0  0  0  0  0  0  0  0  0
    5.8253   69.4471   63.6851 H   0  0  0  0  0  0  0  0  0  0  0  0
    5.1181   68.8286   61.3551 H   0  0  0  0  0  0  0  0  0  0  0  0
    2.7605   68.2121   60.9539 H   0  0  0  0  0  0  0  0  0  0  0  0
    1.0058   69.2982   68.6049 H   0  0  0  0  0  0  0  0  0  0  0  0
   -1.3193   68.6296   67.9264 H   0  0  0  0  0  0  0  0  0  0  0  0
   -1.7504   68.0692   65.5604 H   0  0  0  0  0  0  0  0  0  0  0  0
  2  1  2  0
  3  2  1  0
  4  3  2  0
  5  3  1  0
  6  5  2  0
  7  6  1  0
  8  7  2  0
  9  8  1  0
 10  9  2  0
 10  5  1  0
 11 10  1  0
 12 11  2  0
 12  2  1  0
 13 12  1  0
 14 13  2  0
 15 14  1  0
 16 15  2  0
 16 11  1  0
  6 17  1  0
  7 18  1  0
  8 19  1  0
 13 20  1  0
 14 21  1  0
 15 22  1  0
M  END
>  <score>  (5) 
-8.647

$$$$
=
     RDKit          3D

 22 24  0  0  0  0  0  0  0  0999 V2000
    2.2610   68.5720   61.6960 O   0  0  0  0  0  0  0  0  0  0  0  0
    2.1240   68.6580   62.9080 C   0  0  0  0  0  0  0  0  0  0  0  0
    0.7550   68.4790   63.5440 C   0  0  0  0  0  0  0  0  0  0  0  0
   -0.2250   68.2480   62.8500 O   0  0  0  0  0  0  0  0  0  0  0  0
    0.6390   68.5900   65.0040 C   0  0  0  0  0  0  0  0  0  0  0  0
   -0.6030   68.4310   65.6280 C   0  0  0  0  0  0  0  0  0  0  0  0
   -0.6870   68.5410   67.0100 C   0  0  0  0  0  0  0  0  0  0  0  0
    0.4740   68.8040   67.7130 C   0  0  0  0  0  0  0  0  0  0  0  0
    1.6830   68.9590   67.1290 N   0  0  0  0  0  0  0  0  0  0  0  0
    1.7680   68.8530   65.7740 C   0  0  0  0  0  0  0  0  0  0  0  0
    3.0960   69.0260   65.1570 C   0  0  0  0  0  0  0  0  0  0  0  0
    3.2740   68.9330   63.7810 C   0  0  0  0  0  0  0  0  0  0  0  0
    4.5500   69.1040   63.2340 C   0  0  0  0  0  0  0  0  0  0  0  0
    5.6220   69.3640   64.0790 C   0  0  0  0  0  0  0  0  0  0  0  0
    5.3730   69.4420   65.4370 C   0  0  0  0  0  0  0  0  0  0  0  0
    4.1470   69.2810   65.9850 N   0  0  0  0  0  0  0  0  0  0  0  0
   -1.5027   68.2213   65.0309 H   0  0  0  0  0  0  0  0  0  0  0  0
   -1.6491   68.4223   67.5299 H   0  0  0  0  0  0  0  0  0  0  0  0
    0.4103   68.8919   68.8076 H   0  0  0  0  0  0  0  0  0  0  0  0
    4.7031   69.0334   62.1470 H   0  0  0  0  0  0  0  0  0  0  0  0
    6.6375   69.5035   63.6799 H   0  0  0  0  0  0  0  0  0  0  0  0
    6.2194   69.6464   66.1092 H   0  0  0  0  0  0  0  0  0  0  0  0
  2  1  2  0
  3  2  1  0
  4  3  2  0
  5  3  1  0
  6  5  2  0
  7  6  1  0
  8  7  2  0
  9  8  1  0
 10  9  2  0
 10  5  1  0
 11 10  1  0
 12 11  2  0
 12  2  1  0
 13 12  1  0
 14 13  2  0
 15 14  1  0
 16 15  2  0
 16 11  1  0
  6 17  1  0
  7 18  1  0
  8 19  1  0
 13 20  1  0
 14 21  1  0
 15 22  1  0
M  END
>  <score>  (6) 
-8.515

$$$$
=
     RDKit          3D

 22 24  0  0  0  0  0  0  0  0999 V2000
   -0.0980   68.1020   62.7510 O   0  0  0  0  0  0  0  0  0  0  0  0
    0.7750   68.4100   63.5500 C   0  0  0  0  0  0  0  0  0  0  0  0
    0.4510   68.5600   65.0270 C   0  0  0  0  0  0  0  0  0  0  0  0
   -0.6860   68.3740   65.4350 O   0  0  0  0  0  0  0  0  0  0  0  0
    1.5330   68.9300   65.9490 C   0  0  0  0  0  0  0  0  0  0  0  0
    1.2770   69.0770   67.3160 C   0  0  0  0  0  0  0  0  0  0  0  0
    2.3160   69.4280   68.1690 C   0  0  0  0  0  0  0  0  0  0  0  0
    3.5710   69.6180   67.6190 C   0  0  0  0  0  0  0  0  0  0  0  0
    3.8390   69.4800   66.3020 N   0  0  0  0  0  0  0  0  0  0  0  0
    2.8210   69.1360   65.4640 C   0  0  0  0  0  0  0  0  0  0  0  0
    3.1350   68.9910   64.0300 C   0  0  0  0  0  0  0  0  0  0  0  0
    2.1570   68.6420   63.1060 C   0  0  0  0  0  0  0  0  0  0  0  0
    2.4940   68.5140   61.7550 C   0  0  0  0  0  0  0  0  0  0  0  0
    3.8070   68.7390   61.3590 C   0  0  0  0  0  0  0  0  0  0  0  0
    4.7290   69.0820   62.3310 C   0  0  0  0  0  0  0  0  0  0  0  0
    4.4210   69.2110   63.6420 N   0  0  0  0  0  0  0  0  0  0  0  0
    0.2633   68.9164   67.7118 H   0  0  0  0  0  0  0  0  0  0  0  0
    2.1458   69.5511   69.2488 H   0  0  0  0  0  0  0  0  0  0  0  0
    4.3961   69.8968   68.2909 H   0  0  0  0  0  0  0  0  0  0  0  0
    1.7288   68.2384   61.0143 H   0  0  0  0  0  0  0  0  0  0  0  0
    4.1040   68.6470   60.3039 H   0  0  0  0  0  0  0  0  0  0  0  0
    5.7695   69.2596   62.0213 H   0  0  0  0  0  0  0  0  0  0  0  0
  2  1  2  0
  3  2  1  0
  4  3  2  0
  5  3  1  0
  6  5  2  0
  7  6  1  0
  8  7  2  0
  9  8  1  0
 10  9  2  0
 10  5  1  0
 11 10  1  0
 12 11  2  0
 12  2  1  0
 13 12  1  0
 14 13  2  0
 15 14  1  0
 16 15  2  0
 16 11  1  0
  6 17  1  0
  7 18  1  0
  8 19  1  0
 13 20  1  0
 14 21  1  0
 15 22  1  0
M  END
>  <score>  (7) 
-8.393

$$$$
=
     RDKit          3D

 22 24  0  0  0  0  0  0  0  0999 V2000
    2.1690   69.0780   62.0120 O   0  0  0  0  0  0  0  0  0  0  0  0
    2.3520   68.1480   62.7840 C   0  0  0  0  0  0  0  0  0  0  0  0
    3.4590   67.1380   62.5290 C   0  0  0  0  0  0  0  0  0  0  0  0
    4.1800   67.2450   61.5470 O   0  0  0  0  0  0  0  0  0  0  0  0
    3.6420   66.0380   63.4850 C   0  0  0  0  0  0  0  0  0  0  0  0
    4.6500   65.0890   63.2860 C   0  0  0  0  0  0  0  0  0  0  0  0
    4.8030   64.0580   64.2040 C   0  0  0  0  0  0  0  0  0  0  0  0
    3.9410   64.0170   65.2850 C   0  0  0  0  0  0  0  0  0  0  0  0
    2.9630   64.9250   65.4950 N   0  0  0  0  0  0  0  0  0  0  0  0
    2.8100   65.9370   64.5960 C   0  0  0  0  0  0  0  0  0  0  0  0
    1.7360   66.9170   64.8440 C   0  0  0  0  0  0  0  0  0  0  0  0
    1.5110   67.9800   63.9780 C   0  0  0  0  0  0  0  0  0  0  0  0
    0.4820   68.8880   64.2480 C   0  0  0  0  0  0  0  0  0  0  0  0
   -0.3000   68.7100   65.3830 C   0  0  0  0  0  0  0  0  0  0  0  0
   -0.0210   67.6300   66.2000 C   0  0  0  0  0  0  0  0  0  0  0  0
    0.9690   66.7420   65.9550 N   0  0  0  0  0  0  0  0  0  0  0  0
    5.3143   65.1584   62.4120 H   0  0  0  0  0  0  0  0  0  0  0  0
    5.5864   63.2967   64.0752 H   0  0  0  0  0  0  0  0  0  0  0  0
    4.0582   63.2008   66.0131 H   0  0  0  0  0  0  0  0  0  0  0  0
    0.2938   69.7333   63.5698 H   0  0  0  0  0  0  0  0  0  0  0  0
   -1.1161   69.4071   65.6240 H   0  0  0  0  0  0  0  0  0  0  0  0
   -0.6384   67.4851   67.0988 H   0  0  0  0  0  0  0  0  0  0  0  0
  2  1  2  0
  3  2  1  0
  4  3  2  0
  5  3  1  0
  6  5  2  0
  7  6  1  0
  8  7  2  0
  9  8  1  0
 10  9  2  0
 10  5  1  0
 11 10  1  0
 12 11  2  0
 12  2  1  0
 13 12  1  0
 14 13  2  0
 15 14  1  0
 16 15  2  0
 16 11  1  0
  6 17  1  0
  7 18  1  0
  8 19  1  0
 13 20  1  0
 14 21  1  0
 15 22  1  0
M  END
>  <score>  (8) 
-7.748

$$$$
=
     RDKit          3D

 22 24  0  0  0  0  0  0  0  0999 V2000
    4.5170   60.4430   69.1470 O   0  0  0  0  0  0  0  0  0  0  0  0
    3.6500   60.9720   69.8270 C   0  0  0  0  0  0  0  0  0  0  0  0
    3.2440   62.4150   69.5740 C   0  0  0  0  0  0  0  0  0  0  0  0
    3.7810   63.0640   68.6870 O   0  0  0  0  0  0  0  0  0  0  0  0
    2.1970   63.0080   70.4170 C   0  0  0  0  0  0  0  0  0  0  0  0
    1.7950   64.3330   70.2160 C   0  0  0  0  0  0  0  0  0  0  0  0
    0.8030   64.8710   71.0250 C   0  0  0  0  0  0  0  0  0  0  0  0
    0.2520   64.0630   72.0030 C   0  0  0  0  0  0  0  0  0  0  0  0
    0.6260   62.7820   72.2120 N   0  0  0  0  0  0  0  0  0  0  0  0
    1.6000   62.2520   71.4200 C   0  0  0  0  0  0  0  0  0  0  0  0
    1.9930   60.8510   71.6650 C   0  0  0  0  0  0  0  0  0  0  0  0
    2.9780   60.2320   70.9030 C   0  0  0  0  0  0  0  0  0  0  0  0
    3.3230   58.9020   71.1670 C   0  0  0  0  0  0  0  0  0  0  0  0
    2.6730   58.2220   72.1900 C   0  0  0  0  0  0  0  0  0  0  0  0
    1.7040   58.9000   72.9070 C   0  0  0  0  0  0  0  0  0  0  0  0
    1.3570   60.1850   72.6670 N   0  0  0  0  0  0  0  0  0  0  0  0
    2.2595   64.9415   69.4261 H   0  0  0  0  0  0  0  0  0  0  0  0
    0.4653   65.9094   70.8920 H   0  0  0  0  0  0  0  0  0  0  0  0
   -0.5337   64.4867   72.6457 H   0  0  0  0  0  0  0  0  0  0  0  0
    4.1000   58.4002   70.5716 H   0  0  0  0  0  0  0  0  0  0  0  0
    2.9217   57.1760   72.4224 H   0  0  0  0  0  0  0  0  0  0  0  0
    1.1871   58.3647   73.7171 H   0  0  0  0  0  0  0  0  0  0  0  0
  2  1  2  0
  3  2  1  0
  4  3  2  0
  5  3  1  0
  6  5  2  0
  7  6  1  0
  8  7  2  0
  9  8  1  0
 10  9  2  0
 10  5  1  0
 11 10  1  0
 12 11  2  0
 12  2  1  0
 13 12  1  0
 14 13  2  0
 15 14  1  0
 16 15  2  0
 16 11  1  0
  6 17  1  0
  7 18  1  0
  8 19  1  0
 13 20  1  0
 14 21  1  0
 15 22  1  0
M  END
>  <score>  (9) 
-7.238

$$$$
