=
     RDKit          3D

 67 70  0  0  0  0  0  0  0  0999 V2000
    3.0110   61.1580   71.5370 C   0  0  1  0  0  0  0  0  0  0  0  0
    4.1800   60.4950   72.3900 C   0  0  1  0  0  0  0  0  0  0  0  0
    5.5010   61.2370   72.5530 C   0  0  0  0  0  0  0  0  0  0  0  0
    3.5820   60.1600   73.7800 C   0  0  0  0  0  0  0  0  0  0  0  0
    2.0820   60.1650   73.5340 C   0  0  2  0  0  0  0  0  0  0  0  0
    1.8830   61.4040   72.6280 C   0  0  1  0  0  0  0  0  0  0  0  0
    2.1490   62.7420   73.3750 C   0  0  0  0  0  0  0  0  0  0  0  0
    0.4190   61.3570   72.1250 C   0  0  0  0  0  0  0  0  0  0  0  0
   -0.6290   61.2570   73.2570 C   0  0  1  0  0  0  0  0  0  0  0  0
   -0.3380   60.0990   74.2570 C   0  0  1  0  0  0  0  0  0  0  0  0
    1.1450   60.1210   74.7540 C   0  0  1  0  0  0  0  0  0  0  0  0
    1.4520   58.8900   75.6250 C   0  0  0  0  0  0  0  0  0  0  0  0
    0.4740   58.7350   76.7820 C   0  0  1  0  0  0  0  0  0  0  0  0
   -0.9470   58.7240   76.2840 C   0  0  0  0  0  0  0  0  0  0  0  0
   -1.7540   57.6740   76.5190 C   0  0  0  0  0  0  0  0  0  0  0  0
   -3.1300   57.6090   75.9910 C   0  0  0  0  0  0  0  0  0  0  0  0
   -3.8630   56.6570   76.2220 O   0  0  0  0  0  0  0  0  0  0  0  0
   -3.5900   58.7450   75.1690 C   0  0  0  0  0  0  0  0  0  0  0  0
   -2.7910   59.7940   74.9310 C   0  0  0  0  0  0  0  0  0  0  0  0
   -1.3640   59.9530   75.4560 C   0  0  2  0  0  0  0  0  0  0  0  0
   -1.3970   61.1740   76.4040 C   0  0  0  0  0  0  0  0  0  0  0  0
    0.7840   57.5770   77.4320 F   0  0  0  0  0  0  0  0  0  0  0  0
   -0.4590   58.9420   73.5020 F   0  0  0  0  0  0  0  0  0  0  0  0
   -0.7400   62.5180   73.9080 O   0  0  0  0  0  0  0  0  0  0  0  0
    3.3310   62.4770   70.7550 C   0  0  0  0  0  0  0  0  0  0  0  0
    4.3730   63.1170   70.9290 O   0  0  0  0  0  0  0  0  0  0  0  0
    2.2380   63.1050   69.8850 C   0  0  0  0  0  0  0  0  0  0  0  0
    2.2640   64.5240   69.7920 O   0  0  0  0  0  0  0  0  0  0  0  0
    1.1980   65.1600   70.3460 C   0  0  0  0  0  0  0  0  0  0  0  0
    0.3820   64.6510   71.1000 O   0  0  0  0  0  0  0  0  0  0  0  0
    1.1360   66.5760   69.8620 C   0  0  0  0  0  0  0  0  0  0  0  0
    2.5170   60.1090   70.6570 O   0  0  0  0  0  0  0  0  0  0  0  0
    3.3380   57.9180   70.8220 C   0  0  0  0  0  0  0  0  0  0  0  0
    3.4240   59.2410   70.1260 C   0  0  0  0  0  0  0  0  0  0  0  0
    4.1960   59.5000   69.2170 O   0  0  0  0  0  0  0  0  0  0  0  0
    4.5007   59.6252   71.7978 H   0  0  0  0  0  0  0  0  0  0  0  0
    5.7221   61.3612   73.6234 H   0  0  0  0  0  0  0  0  0  0  0  0
    6.3071   60.6596   72.0766 H   0  0  0  0  0  0  0  0  0  0  0  0
    5.4274   62.2258   72.0766 H   0  0  0  0  0  0  0  0  0  0  0  0
    3.9201   59.1718   74.1253 H   0  0  0  0  0  0  0  0  0  0  0  0
    3.8896   60.8714   74.5605 H   0  0  0  0  0  0  0  0  0  0  0  0
    1.7732   59.2133   73.0768 H   0  0  0  0  0  0  0  0  0  0  0  0
    2.1146   62.5689   74.4607 H   0  0  0  0  0  0  0  0  0  0  0  0
    3.1412   63.1266   73.0963 H   0  0  0  0  0  0  0  0  0  0  0  0
    1.3794   63.4768   73.0963 H   0  0  0  0  0  0  0  0  0  0  0  0
    0.2209   62.2732   71.5495 H   0  0  0  0  0  0  0  0  0  0  0  0
    0.3195   60.4463   71.5162 H   0  0  0  0  0  0  0  0  0  0  0  0
   -1.5986   61.0019   72.8045 H   0  0  0  0  0  0  0  0  0  0  0  0
    1.3041   61.0155   75.3741 H   0  0  0  0  0  0  0  0  0  0  0  0
    1.3984   57.9899   74.9949 H   0  0  0  0  0  0  0  0  0  0  0  0
    2.4564   59.0255   76.0526 H   0  0  0  0  0  0  0  0  0  0  0  0
    0.5576   59.5859   77.4741 H   0  0  0  0  0  0  0  0  0  0  0  0
   -1.3759   56.8369   77.1243 H   0  0  0  0  0  0  0  0  0  0  0  0
   -4.6049   58.7304   74.7450 H   0  0  0  0  0  0  0  0  0  0  0  0
   -3.1942   60.6059   74.3079 H   0  0  0  0  0  0  0  0  0  0  0  0
   -1.3876   60.8279   77.4481 H   0  0  0  0  0  0  0  0  0  0  0  0
   -0.5156   61.8056   76.2192 H   0  0  0  0  0  0  0  0  0  0  0  0
   -2.3112   61.7571   76.2192 H   0  0  0  0  0  0  0  0  0  0  0  0
   -0.7283   62.3851   74.8890 H   0  0  0  0  0  0  0  0  0  0  0  0
    2.3394   62.6976   68.8683 H   0  0  0  0  0  0  0  0  0  0  0  0
    1.2847   62.8536   70.3728 H   0  0  0  0  0  0  0  0  0  0  0  0
    1.1062   67.2575   70.7250 H   0  0  0  0  0  0  0  0  0  0  0  0
    2.0254   66.7945   69.2528 H   0  0  0  0  0  0  0  0  0  0  0  0
    0.2309   66.7160   69.2528 H   0  0  0  0  0  0  0  0  0  0  0  0
    3.3482   58.0751   71.9107 H   0  0  0  0  0  0  0  0  0  0  0  0
    2.4051   57.4118   70.5333 H   0  0  0  0  0  0  0  0  0  0  0  0
    4.1976   57.2953   70.5333 H   0  0  0  0  0  0  0  0  0  0  0  0
  2  1  1  0
  3  2  1  0
  4  2  1  0
  5  4  1  0
  6  5  1  0
  6  1  1  0
  6  7  1  1
  8  6  1  0
  9  8  1  0
 10  9  1  0
 11 10  1  0
 11  5  1  0
 12 11  1  0
 13 12  1  0
 14 13  1  0
 15 14  2  0
 16 15  1  0
 17 16  2  0
 18 16  1  0
 19 18  2  0
 20 19  1  0
 20 14  1  0
 20 10  1  0
 20 21  1  1
 22 13  1  0
 10 23  1  6
 24  9  1  0
 25  1  1  0
 26 25  2  0
 27 25  1  0
 28 27  1  0
 29 28  1  0
 30 29  2  0
 31 29  1  0
  1 32  1  6
 34 33  1  0
 34 32  1  0
 35 34  2  0
  2 36  1  6
  3 37  1  0
  3 38  1  0
  3 39  1  0
  4 40  1  0
  4 41  1  0
  5 42  1  6
  7 43  1  0
  7 44  1  0
  7 45  1  0
  8 46  1  0
  8 47  1  0
  9 48  1  6
 11 49  1  1
 12 50  1  0
 12 51  1  0
 13 52  1  1
 15 53  1  0
 18 54  1  0
 19 55  1  0
 21 56  1  0
 21 57  1  0
 21 58  1  0
 24 59  1  0
 27 60  1  0
 27 61  1  0
 31 62  1  0
 31 63  1  0
 31 64  1  0
 33 65  1  0
 33 66  1  0
 33 67  1  0
M  END
>  <score>  (1) 
-8.302

$$$$
=
     RDKit          3D

 67 70  0  0  0  0  0  0  0  0999 V2000
    0.4760   56.7150   75.3950 C   0  0  1  0  0  0  0  0  0  0  0  0
    0.0780   57.5480   76.6920 C   0  0  1  0  0  0  0  0  0  0  0  0
    0.4230   56.9980   78.0700 C   0  0  0  0  0  0  0  0  0  0  0  0
    0.6850   58.9620   76.5150 C   0  0  0  0  0  0  0  0  0  0  0  0
    0.9490   59.0540   75.0210 C   0  0  2  0  0  0  0  0  0  0  0  0
    1.5370   57.6620   74.6880 C   0  0  1  0  0  0  0  0  0  0  0  0
    2.9450   57.4390   75.3100 C   0  0  0  0  0  0  0  0  0  0  0  0
    1.6170   57.5700   73.1440 C   0  0  0  0  0  0  0  0  0  0  0  0
    2.3970   58.7320   72.4880 C   0  0  1  0  0  0  0  0  0  0  0  0
    1.9000   60.1360   72.9460 C   0  0  1  0  0  0  0  0  0  0  0  0
    1.7930   60.2320   74.5040 C   0  0  1  0  0  0  0  0  0  0  0  0
    1.1650   61.5720   74.9290 C   0  0  0  0  0  0  0  0  0  0  0  0
    1.8960   62.7710   74.3410 C   0  0  1  0  0  0  0  0  0  0  0  0
    1.9970   62.6550   72.8430 C   0  0  0  0  0  0  0  0  0  0  0  0
    1.4750   63.6000   72.0400 C   0  0  0  0  0  0  0  0  0  0  0  0
    1.5040   63.4820   70.5700 C   0  0  0  0  0  0  0  0  0  0  0  0
    1.0400   64.3530   69.8460 O   0  0  0  0  0  0  0  0  0  0  0  0
    2.1190   62.2660   70.0040 C   0  0  0  0  0  0  0  0  0  0  0  0
    2.6400   61.3220   70.7980 C   0  0  0  0  0  0  0  0  0  0  0  0
    2.6730   61.3730   72.3260 C   0  0  2  0  0  0  0  0  0  0  0  0
    4.1680   61.4360   72.7150 C   0  0  0  0  0  0  0  0  0  0  0  0
    1.2130   63.8920   74.7100 F   0  0  0  0  0  0  0  0  0  0  0  0
    0.5970   60.2200   72.4780 F   0  0  0  0  0  0  0  0  0  0  0  0
    3.7900   58.5500   72.7150 O   0  0  0  0  0  0  0  0  0  0  0  0
    1.0580   55.2740   75.5990 C   0  0  0  0  0  0  0  0  0  0  0  0
    1.5190   54.8910   76.6790 O   0  0  0  0  0  0  0  0  0  0  0  0
    1.2410   54.3710   74.3770 C   0  0  0  0  0  0  0  0  0  0  0  0
    0.0820   53.6660   73.9510 O   0  0  0  0  0  0  0  0  0  0  0  0
   -0.0710   52.4260   74.4860 C   0  0  0  0  0  0  0  0  0  0  0  0
    0.7460   51.8520   75.1910 O   0  0  0  0  0  0  0  0  0  0  0  0
   -1.3760   51.8340   74.0500 C   0  0  0  0  0  0  0  0  0  0  0  0
   -0.7080   56.7090   74.5480 O   0  0  0  0  0  0  0  0  0  0  0  0
   -2.4490   55.4940   75.5430 C   0  0  0  0  0  0  0  0  0  0  0  0
   -1.9240   56.8390   75.1480 C   0  0  0  0  0  0  0  0  0  0  0  0
   -2.5050   57.8950   75.3380 O   0  0  0  0  0  0  0  0  0  0  0  0
   -1.0210   57.5118   76.7228 H   0  0  0  0  0  0  0  0  0  0  0  0
    0.0075   57.6604   78.8437 H   0  0  0  0  0  0  0  0  0  0  0  0
   -0.0055   55.9910   78.1807 H   0  0  0  0  0  0  0  0  0  0  0  0
    1.5162   56.9455   78.1807 H   0  0  0  0  0  0  0  0  0  0  0  0
   -0.0258   59.7375   76.8366 H   0  0  0  0  0  0  0  0  0  0  0  0
    1.5911   59.1165   77.1192 H   0  0  0  0  0  0  0  0  0  0  0  0
    0.0172   59.2941   74.4881 H   0  0  0  0  0  0  0  0  0  0  0  0
    2.8673   57.4513   76.4072 H   0  0  0  0  0  0  0  0  0  0  0  0
    3.3413   56.4669   74.9814 H   0  0  0  0  0  0  0  0  0  0  0  0
    3.6223   58.2411   74.9814 H   0  0  0  0  0  0  0  0  0  0  0  0
    2.1142   56.6254   72.8784 H   0  0  0  0  0  0  0  0  0  0  0  0
    0.5852   57.6242   72.7666 H   0  0  0  0  0  0  0  0  0  0  0  0
    2.2055   58.7057   71.4051 H   0  0  0  0  0  0  0  0  0  0  0  0
    2.8018   60.1828   74.9399 H   0  0  0  0  0  0  0  0  0  0  0  0
    0.1191   61.5950   74.5890 H   0  0  0  0  0  0  0  0  0  0  0  0
    1.2358   61.6417   76.0245 H   0  0  0  0  0  0  0  0  0  0  0  0
    2.9268   62.8189   74.7221 H   0  0  0  0  0  0  0  0  0  0  0  0
    1.0120   64.4885   72.4941 H   0  0  0  0  0  0  0  0  0  0  0  0
    2.1500   62.1329   68.9125 H   0  0  0  0  0  0  0  0  0  0  0  0
    3.0797   60.4386   70.3119 H   0  0  0  0  0  0  0  0  0  0  0  0
    4.2618   61.4400   73.8110 H   0  0  0  0  0  0  0  0  0  0  0  0
    4.6907   60.5591   72.3054 H   0  0  0  0  0  0  0  0  0  0  0  0
    4.6151   62.3538   72.3054 H   0  0  0  0  0  0  0  0  0  0  0  0
    3.9654   58.5271   73.6891 H   0  0  0  0  0  0  0  0  0  0  0  0
    1.5806   54.9994   73.5405 H   0  0  0  0  0  0  0  0  0  0  0  0
    1.9655   53.6007   74.6798 H   0  0  0  0  0  0  0  0  0  0  0  0
   -1.9704   51.5644   74.9355 H   0  0  0  0  0  0  0  0  0  0  0  0
   -1.9290   52.5694   73.4472 H   0  0  0  0  0  0  0  0  0  0  0  0
   -1.1870   50.9335   73.4472 H   0  0  0  0  0  0  0  0  0  0  0  0
   -2.4781   55.4195   76.6401 H   0  0  0  0  0  0  0  0  0  0  0  0
   -3.4640   55.3636   75.1396 H   0  0  0  0  0  0  0  0  0  0  0  0
   -1.7907   54.7105   75.1396 H   0  0  0  0  0  0  0  0  0  0  0  0
  2  1  1  0
  3  2  1  0
  4  2  1  0
  5  4  1  0
  6  5  1  0
  6  1  1  0
  6  7  1  1
  8  6  1  0
  9  8  1  0
 10  9  1  0
 11 10  1  0
 11  5  1  0
 12 11  1  0
 13 12  1  0
 14 13  1  0
 15 14  2  0
 16 15  1  0
 17 16  2  0
 18 16  1  0
 19 18  2  0
 20 19  1  0
 20 14  1  0
 20 10  1  0
 20 21  1  6
 22 13  1  0
 10 23  1  6
 24  9  1  0
 25  1  1  0
 26 25  2  0
 27 25  1  0
 28 27  1  0
 29 28  1  0
 30 29  2  0
 31 29  1  0
  1 32  1  6
 34 33  1  0
 34 32  1  0
 35 34  2  0
  2 36  1  1
  3 37  1  0
  3 38  1  0
  3 39  1  0
  4 40  1  0
  4 41  1  0
  5 42  1  6
  7 43  1  0
  7 44  1  0
  7 45  1  0
  8 46  1  0
  8 47  1  0
  9 48  1  6
 11 49  1  1
 12 50  1  0
 12 51  1  0
 13 52  1  1
 15 53  1  0
 18 54  1  0
 19 55  1  0
 21 56  1  0
 21 57  1  0
 21 58  1  0
 24 59  1  0
 27 60  1  0
 27 61  1  0
 31 62  1  0
 31 63  1  0
 31 64  1  0
 33 65  1  0
 33 66  1  0
 33 67  1  0
M  END
>  <score>  (2) 
-7.949

$$$$
=
     RDKit          3D

 67 70  0  0  0  0  0  0  0  0999 V2000
    0.2910   56.9870   75.3360 C   0  0  1  0  0  0  0  0  0  0  0  0
   -1.2600   57.2530   75.0960 C   0  0  1  0  0  0  0  0  0  0  0  0
   -2.2460   57.0120   76.2320 C   0  0  0  0  0  0  0  0  0  0  0  0
   -1.3860   58.7080   74.5790 C   0  0  0  0  0  0  0  0  0  0  0  0
    0.0140   59.0370   74.0880 C   0  0  2  0  0  0  0  0  0  0  0  0
    0.9180   58.4400   75.1940 C   0  0  1  0  0  0  0  0  0  0  0  0
    0.7990   59.2050   76.5440 C   0  0  0  0  0  0  0  0  0  0  0  0
    2.3720   58.5120   74.6680 C   0  0  0  0  0  0  0  0  0  0  0  0
    2.8080   59.9280   74.2250 C   0  0  1  0  0  0  0  0  0  0  0  0
    1.8120   60.5880   73.2250 C   0  0  1  0  0  0  0  0  0  0  0  0
    0.3350   60.4990   73.7360 C   0  0  1  0  0  0  0  0  0  0  0  0
   -0.6450   61.0250   72.6720 C   0  0  0  0  0  0  0  0  0  0  0  0
   -0.2960   62.4310   72.2010 C   0  0  1  0  0  0  0  0  0  0  0  0
    1.1300   62.4970   71.7230 C   0  0  0  0  0  0  0  0  0  0  0  0
    1.4200   62.8730   70.4640 C   0  0  0  0  0  0  0  0  0  0  0  0
    2.8020   62.8870   69.9500 C   0  0  0  0  0  0  0  0  0  0  0  0
    3.0600   63.2460   68.8080 O   0  0  0  0  0  0  0  0  0  0  0  0
    3.8680   62.4500   70.8720 C   0  0  0  0  0  0  0  0  0  0  0  0
    3.5860   62.0740   72.1260 C   0  0  0  0  0  0  0  0  0  0  0  0
    2.1890   62.0500   72.7460 C   0  0  2  0  0  0  0  0  0  0  0  0
    2.2150   63.0950   73.8860 C   0  0  0  0  0  0  0  0  0  0  0  0
   -1.1720   62.7630   71.2090 F   0  0  0  0  0  0  0  0  0  0  0  0
    1.8630   59.7860   72.0950 F   0  0  0  0  0  0  0  0  0  0  0  0
    3.0320   60.7330   75.3770 O   0  0  0  0  0  0  0  0  0  0  0  0
    0.7190   56.3220   76.6890 C   0  0  0  0  0  0  0  0  0  0  0  0
   -0.0890   56.0540   77.5830 O   0  0  0  0  0  0  0  0  0  0  0  0
    2.2110   56.1740   77.0000 C   0  0  0  0  0  0  0  0  0  0  0  0
    2.6550   56.7920   78.2010 O   0  0  0  0  0  0  0  0  0  0  0  0
    3.7850   57.5400   78.0850 C   0  0  0  0  0  0  0  0  0  0  0  0
    3.8330   58.6930   77.6840 O   0  0  0  0  0  0  0  0  0  0  0  0
    4.9810   56.7290   78.4790 C   0  0  0  0  0  0  0  0  0  0  0  0
    0.7470   56.2220   74.1850 O   0  0  0  0  0  0  0  0  0  0  0  0
    1.8510   54.1630   73.9870 C   0  0  0  0  0  0  0  0  0  0  0  0
    0.5500   54.8740   74.1960 C   0  0  0  0  0  0  0  0  0  0  0  0
   -0.5270   54.3220   74.3520 O   0  0  0  0  0  0  0  0  0  0  0  0
   -1.5714   56.4753   74.3831 H   0  0  0  0  0  0  0  0  0  0  0  0
   -1.7321   57.1376   77.1964 H   0  0  0  0  0  0  0  0  0  0  0  0
   -3.0722   57.7346   76.1599 H   0  0  0  0  0  0  0  0  0  0  0  0
   -2.6457   55.9897   76.1599 H   0  0  0  0  0  0  0  0  0  0  0  0
   -2.1149   58.7709   73.7575 H   0  0  0  0  0  0  0  0  0  0  0  0
   -1.7425   59.4058   75.3510 H   0  0  0  0  0  0  0  0  0  0  0  0
    0.1730   58.6060   73.0885 H   0  0  0  0  0  0  0  0  0  0  0  0
    0.9092   58.4963   77.3780 H   0  0  0  0  0  0  0  0  0  0  0  0
    1.5893   59.9678   76.6041 H   0  0  0  0  0  0  0  0  0  0  0  0
   -0.1857   59.6917   76.6041 H   0  0  0  0  0  0  0  0  0  0  0  0
    3.0472   58.1763   75.4689 H   0  0  0  0  0  0  0  0  0  0  0  0
    2.4217   57.8689   73.7769 H   0  0  0  0  0  0  0  0  0  0  0  0
    3.7503   59.8372   73.6647 H   0  0  0  0  0  0  0  0  0  0  0  0
    0.2235   61.1266   74.6325 H   0  0  0  0  0  0  0  0  0  0  0  0
   -0.6224   60.3472   71.8059 H   0  0  0  0  0  0  0  0  0  0  0  0
   -1.6447   61.0644   73.1291 H   0  0  0  0  0  0  0  0  0  0  0  0
   -0.3819   63.1483   73.0306 H   0  0  0  0  0  0  0  0  0  0  0  0
    0.6005   63.1795   69.7973 H   0  0  0  0  0  0  0  0  0  0  0  0
    4.9112   62.4328   70.5236 H   0  0  0  0  0  0  0  0  0  0  0  0
    4.4268   61.7571   72.7605 H   0  0  0  0  0  0  0  0  0  0  0  0
    2.2022   62.5786   74.8572 H   0  0  0  0  0  0  0  0  0  0  0  0
    3.1285   63.7025   73.8058 H   0  0  0  0  0  0  0  0  0  0  0  0
    1.3328   63.7471   73.8058 H   0  0  0  0  0  0  0  0  0  0  0  0
    2.8814   60.1918   76.1922 H   0  0  0  0  0  0  0  0  0  0  0  0
    2.4368   55.0997   77.0693 H   0  0  0  0  0  0  0  0  0  0  0  0
    2.7397   56.6894   76.1846 H   0  0  0  0  0  0  0  0  0  0  0  0
    5.0480   56.6836   79.5760 H   0  0  0  0  0  0  0  0  0  0  0  0
    4.8826   55.7105   78.0752 H   0  0  0  0  0  0  0  0  0  0  0  0
    5.8908   57.1973   78.0752 H   0  0  0  0  0  0  0  0  0  0  0  0
    2.2966   53.9195   74.9628 H   0  0  0  0  0  0  0  0  0  0  0  0
    1.6754   53.2355   73.4223 H   0  0  0  0  0  0  0  0  0  0  0  0
    2.5368   54.8117   73.4223 H   0  0  0  0  0  0  0  0  0  0  0  0
  2  1  1  0
  3  2  1  0
  4  2  1  0
  5  4  1  0
  6  5  1  0
  6  1  1  0
  6  7  1  1
  8  6  1  0
  9  8  1  0
 10  9  1  0
 11 10  1  0
 11  5  1  0
 12 11  1  0
 13 12  1  0
 14 13  1  0
 15 14  2  0
 16 15  1  0
 17 16  2  0
 18 16  1  0
 19 18  2  0
 20 19  1  0
 20 14  1  0
 20 10  1  0
 20 21  1  1
 22 13  1  0
 10 23  1  6
 24  9  1  0
 25  1  1  0
 26 25  2  0
 27 25  1  0
 28 27  1  0
 29 28  1  0
 30 29  2  0
 31 29  1  0
  1 32  1  6
 34 33  1  0
 34 32  1  0
 35 34  2  0
  2 36  1  6
  3 37  1  0
  3 38  1  0
  3 39  1  0
  4 40  1  0
  4 41  1  0
  5 42  1  6
  7 43  1  0
  7 44  1  0
  7 45  1  0
  8 46  1  0
  8 47  1  0
  9 48  1  6
 11 49  1  1
 12 50  1  0
 12 51  1  0
 13 52  1  1
 15 53  1  0
 18 54  1  0
 19 55  1  0
 21 56  1  0
 21 57  1  0
 21 58  1  0
 24 59  1  0
 27 60  1  0
 27 61  1  0
 31 62  1  0
 31 63  1  0
 31 64  1  0
 33 65  1  0
 33 66  1  0
 33 67  1  0
M  END
>  <score>  (3) 
-7.747

$$$$
=
     RDKit          3D

 67 70  0  0  0  0  0  0  0  0999 V2000
    2.0820   59.3560   74.1020 C   0  0  1  0  0  0  0  0  0  0  0  0
    0.6340   59.9370   73.7810 C   0  0  1  0  0  0  0  0  0  0  0  0
    0.4230   60.7690   72.5230 C   0  0  0  0  0  0  0  0  0  0  0  0
   -0.3400   58.7310   73.7940 C   0  0  0  0  0  0  0  0  0  0  0  0
    0.4210   57.6640   74.5630 C   0  0  2  0  0  0  0  0  0  0  0  0
    1.8570   57.7870   73.9990 C   0  0  1  0  0  0  0  0  0  0  0  0
    1.9600   57.3320   72.5150 C   0  0  0  0  0  0  0  0  0  0  0  0
    2.7640   56.9040   74.8910 C   0  0  0  0  0  0  0  0  0  0  0  0
    2.2830   55.4400   75.0150 C   0  0  1  0  0  0  0  0  0  0  0  0
    0.7880   55.3220   75.4370 C   0  0  1  0  0  0  0  0  0  0  0  0
   -0.1350   56.2290   74.5580 C   0  0  1  0  0  0  0  0  0  0  0  0
   -1.5820   56.2110   75.0810 C   0  0  0  0  0  0  0  0  0  0  0  0
   -2.1390   54.7990   75.2080 C   0  0  1  0  0  0  0  0  0  0  0  0
   -1.2330   53.9400   76.0500 C   0  0  0  0  0  0  0  0  0  0  0  0
   -1.6840   53.3520   77.1720 C   0  0  0  0  0  0  0  0  0  0  0  0
   -0.8030   52.5570   78.0490 C   0  0  0  0  0  0  0  0  0  0  0  0
   -1.2250   52.0130   79.0610 O   0  0  0  0  0  0  0  0  0  0  0  0
    0.6140   52.4430   77.6540 C   0  0  0  0  0  0  0  0  0  0  0  0
    1.0700   53.0250   76.5370 C   0  0  0  0  0  0  0  0  0  0  0  0
    0.2250   53.8460   75.5630 C   0  0  2  0  0  0  0  0  0  0  0  0
    0.2290   53.0580   74.2320 C   0  0  0  0  0  0  0  0  0  0  0  0
   -3.3850   54.8940   75.7540 F   0  0  0  0  0  0  0  0  0  0  0  0
    0.7370   55.8650   76.7120 F   0  0  0  0  0  0  0  0  0  0  0  0
    2.5590   54.7490   73.8010 O   0  0  0  0  0  0  0  0  0  0  0  0
    3.2720   59.8130   73.1900 C   0  0  0  0  0  0  0  0  0  0  0  0
    4.0560   59.0130   72.6700 O   0  0  0  0  0  0  0  0  0  0  0  0
    3.5970   61.3060   73.0930 C   0  0  0  0  0  0  0  0  0  0  0  0
    4.9550   61.6240   72.8130 O   0  0  0  0  0  0  0  0  0  0  0  0
    5.2850   61.6490   71.4950 C   0  0  0  0  0  0  0  0  0  0  0  0
    5.9410   60.7980   70.9120 O   0  0  0  0  0  0  0  0  0  0  0  0
    4.7660   62.9010   70.8580 C   0  0  0  0  0  0  0  0  0  0  0  0
    2.3270   59.6510   75.5060 O   0  0  0  0  0  0  0  0  0  0  0  0
    0.7920   60.1200   77.2150 C   0  0  0  0  0  0  0  0  0  0  0  0
    1.6100   60.6560   76.0820 C   0  0  0  0  0  0  0  0  0  0  0  0
    1.6280   61.8240   75.7290 O   0  0  0  0  0  0  0  0  0  0  0  0
    0.4540   60.6917   74.5607 H   0  0  0  0  0  0  0  0  0  0  0  0
    0.1616   61.7997   72.8046 H   0  0  0  0  0  0  0  0  0  0  0  0
    1.3481   60.7749   71.9279 H   0  0  0  0  0  0  0  0  0  0  0  0
   -0.3931   60.3333   71.9279 H   0  0  0  0  0  0  0  0  0  0  0  0
   -1.2785   58.9898   74.3061 H   0  0  0  0  0  0  0  0  0  0  0  0
   -0.6293   58.4049   72.7841 H   0  0  0  0  0  0  0  0  0  0  0  0
    0.3397   57.8506   75.6440 H   0  0  0  0  0  0  0  0  0  0  0  0
    2.2027   56.2598   72.4762 H   0  0  0  0  0  0  0  0  0  0  0  0
    0.9991   57.5089   72.0097 H   0  0  0  0  0  0  0  0  0  0  0  0
    2.7510   57.9055   72.0097 H   0  0  0  0  0  0  0  0  0  0  0  0
    3.7763   56.9011   74.4607 H   0  0  0  0  0  0  0  0  0  0  0  0
    2.7373   57.3365   75.9021 H   0  0  0  0  0  0  0  0  0  0  0  0
    2.8443   54.9635   75.8322 H   0  0  0  0  0  0  0  0  0  0  0  0
   -0.1474   55.8412   73.5287 H   0  0  0  0  0  0  0  0  0  0  0  0
   -1.6052   56.6897   76.0711 H   0  0  0  0  0  0  0  0  0  0  0  0
   -2.2064   56.7525   74.3551 H   0  0  0  0  0  0  0  0  0  0  0  0
   -2.1994   54.3185   74.2203 H   0  0  0  0  0  0  0  0  0  0  0  0
   -2.7434   53.4673   77.4448 H   0  0  0  0  0  0  0  0  0  0  0  0
    1.3076   51.8705   78.2874 H   0  0  0  0  0  0  0  0  0  0  0  0
    2.1376   52.9024   76.3019 H   0  0  0  0  0  0  0  0  0  0  0  0
    0.2345   51.9788   74.4448 H   0  0  0  0  0  0  0  0  0  0  0  0
   -0.6705   53.3128   73.6523 H   0  0  0  0  0  0  0  0  0  0  0  0
    1.1258   53.3220   73.6523 H   0  0  0  0  0  0  0  0  0  0  0  0
    2.9181   53.8498   74.0074 H   0  0  0  0  0  0  0  0  0  0  0  0
    2.9771   61.7357   72.2923 H   0  0  0  0  0  0  0  0  0  0  0  0
    3.3902   61.7236   74.0894 H   0  0  0  0  0  0  0  0  0  0  0  0
    4.4700   63.6151   71.6406 H   0  0  0  0  0  0  0  0  0  0  0  0
    5.5531   63.3477   70.2327 H   0  0  0  0  0  0  0  0  0  0  0  0
    3.8937   62.6599   70.2327 H   0  0  0  0  0  0  0  0  0  0  0  0
    1.2483   60.4190   78.1702 H   0  0  0  0  0  0  0  0  0  0  0  0
   -0.2290   60.5248   77.1537 H   0  0  0  0  0  0  0  0  0  0  0  0
    0.7555   59.0223   77.1537 H   0  0  0  0  0  0  0  0  0  0  0  0
  2  1  1  0
  3  2  1  0
  4  2  1  0
  5  4  1  0
  6  5  1  0
  6  1  1  0
  6  7  1  6
  8  6  1  0
  9  8  1  0
 10  9  1  0
 11 10  1  0
 11  5  1  0
 12 11  1  0
 13 12  1  0
 14 13  1  0
 15 14  2  0
 16 15  1  0
 17 16  2  0
 18 16  1  0
 19 18  2  0
 20 19  1  0
 20 14  1  0
 20 10  1  0
 20 21  1  6
 22 13  1  0
 10 23  1  1
 24  9  1  0
 25  1  1  0
 26 25  2  0
 27 25  1  0
 28 27  1  0
 29 28  1  0
 30 29  2  0
 31 29  1  0
  1 32  1  1
 34 33  1  0
 34 32  1  0
 35 34  2  0
  2 36  1  1
  3 37  1  0
  3 38  1  0
  3 39  1  0
  4 40  1  0
  4 41  1  0
  5 42  1  1
  7 43  1  0
  7 44  1  0
  7 45  1  0
  8 46  1  0
  8 47  1  0
  9 48  1  1
 11 49  1  6
 12 50  1  0
 12 51  1  0
 13 52  1  6
 15 53  1  0
 18 54  1  0
 19 55  1  0
 21 56  1  0
 21 57  1  0
 21 58  1  0
 24 59  1  0
 27 60  1  0
 27 61  1  0
 31 62  1  0
 31 63  1  0
 31 64  1  0
 33 65  1  0
 33 66  1  0
 33 67  1  0
M  END
>  <score>  (4) 
-7.586

$$$$
=
     RDKit          3D

 67 70  0  0  0  0  0  0  0  0999 V2000
    2.2750   59.5990   73.1480 C   0  0  1  0  0  0  0  0  0  0  0  0
    2.7850   58.7330   74.3830 C   0  0  1  0  0  0  0  0  0  0  0  0
    4.1850   58.9680   74.9360 C   0  0  0  0  0  0  0  0  0  0  0  0
    1.7320   58.9010   75.5080 C   0  0  0  0  0  0  0  0  0  0  0  0
    0.4980   59.3970   74.7720 C   0  0  2  0  0  0  0  0  0  0  0  0
    1.0800   60.4330   73.7800 C   0  0  1  0  0  0  0  0  0  0  0  0
    1.6330   61.7010   74.4910 C   0  0  0  0  0  0  0  0  0  0  0  0
   -0.0690   60.8220   72.8170 C   0  0  0  0  0  0  0  0  0  0  0  0
   -1.3450   61.3180   73.5350 C   0  0  1  0  0  0  0  0  0  0  0  0
   -1.8420   60.3400   74.6420 C   0  0  1  0  0  0  0  0  0  0  0  0
   -0.6830   59.9220   75.6060 C   0  0  1  0  0  0  0  0  0  0  0  0
   -1.1590   58.8480   76.6010 C   0  0  0  0  0  0  0  0  0  0  0  0
   -2.4030   59.2740   77.3690 C   0  0  1  0  0  0  0  0  0  0  0  0
   -3.5020   59.6810   76.4240 C   0  0  0  0  0  0  0  0  0  0  0  0
   -4.6920   59.0540   76.4370 C   0  0  0  0  0  0  0  0  0  0  0  0
   -5.7640   59.3890   75.4820 C   0  0  0  0  0  0  0  0  0  0  0  0
   -6.8500   58.8240   75.5100 O   0  0  0  0  0  0  0  0  0  0  0  0
   -5.4750   60.4400   74.4870 C   0  0  0  0  0  0  0  0  0  0  0  0
   -4.2930   61.0680   74.4680 C   0  0  0  0  0  0  0  0  0  0  0  0
   -3.1370   60.7990   75.4320 C   0  0  2  0  0  0  0  0  0  0  0  0
   -2.9480   62.1050   76.2390 C   0  0  0  0  0  0  0  0  0  0  0  0
   -2.7820   58.2250   78.1540 F   0  0  0  0  0  0  0  0  0  0  0  0
   -2.1940   59.1850   73.9610 F   0  0  0  0  0  0  0  0  0  0  0  0
   -1.1240   62.6330   74.0330 O   0  0  0  0  0  0  0  0  0  0  0  0
    3.3060   60.5450   72.4420 C   0  0  0  0  0  0  0  0  0  0  0  0
    4.2680   61.0420   73.0360 O   0  0  0  0  0  0  0  0  0  0  0  0
    3.0120   61.0270   71.0190 C   0  0  0  0  0  0  0  0  0  0  0  0
    2.8770   62.4340   70.8600 O   0  0  0  0  0  0  0  0  0  0  0  0
    3.6130   62.9780   69.8550 C   0  0  0  0  0  0  0  0  0  0  0  0
    3.2620   63.0670   68.6880 O   0  0  0  0  0  0  0  0  0  0  0  0
    4.9480   63.4160   70.3750 C   0  0  0  0  0  0  0  0  0  0  0  0
    1.6780   58.6530   72.2180 O   0  0  0  0  0  0  0  0  0  0  0  0
    3.2390   57.3440   71.0560 C   0  0  0  0  0  0  0  0  0  0  0  0
    2.2150   57.4020   72.1460 C   0  0  0  0  0  0  0  0  0  0  0  0
    1.9080   56.4640   72.8630 O   0  0  0  0  0  0  0  0  0  0  0  0
    2.8872   57.7120   73.9866 H   0  0  0  0  0  0  0  0  0  0  0  0
    4.1507   58.9622   76.0354 H   0  0  0  0  0  0  0  0  0  0  0  0
    4.8563   58.1700   74.5859 H   0  0  0  0  0  0  0  0  0  0  0  0
    4.5589   59.9415   74.5859 H   0  0  0  0  0  0  0  0  0  0  0  0
    1.5327   57.9406   76.0059 H   0  0  0  0  0  0  0  0  0  0  0  0
    2.0608   59.5878   76.3019 H   0  0  0  0  0  0  0  0  0  0  0  0
   -0.0207   58.5519   74.2958 H   0  0  0  0  0  0  0  0  0  0  0  0
    1.5738   61.5654   75.5810 H   0  0  0  0  0  0  0  0  0  0  0  0
    2.6814   61.8582   74.1974 H   0  0  0  0  0  0  0  0  0  0  0  0
    1.0349   62.5762   74.1974 H   0  0  0  0  0  0  0  0  0  0  0  0
    0.2900   61.6237   72.1549 H   0  0  0  0  0  0  0  0  0  0  0  0
   -0.3458   59.9117   72.2649 H   0  0  0  0  0  0  0  0  0  0  0  0
   -2.1623   61.3483   72.7994 H   0  0  0  0  0  0  0  0  0  0  0  0
   -0.3623   60.7988   76.1878 H   0  0  0  0  0  0  0  0  0  0  0  0
   -1.3866   57.9272   76.0439 H   0  0  0  0  0  0  0  0  0  0  0  0
   -0.3528   58.6897   77.3325 H   0  0  0  0  0  0  0  0  0  0  0  0
   -2.1878   60.1516   77.9963 H   0  0  0  0  0  0  0  0  0  0  0  0
   -4.8709   58.2664   77.1838 H   0  0  0  0  0  0  0  0  0  0  0  0
   -6.2438   60.7118   73.7487 H   0  0  0  0  0  0  0  0  0  0  0  0
   -4.1413   61.8386   73.6979 H   0  0  0  0  0  0  0  0  0  0  0  0
   -2.9807   61.8791   77.3151 H   0  0  0  0  0  0  0  0  0  0  0  0
   -1.9756   62.5537   75.9879 H   0  0  0  0  0  0  0  0  0  0  0  0
   -3.7533   62.8110   75.9879 H   0  0  0  0  0  0  0  0  0  0  0  0
   -1.1269   62.6158   75.0228 H   0  0  0  0  0  0  0  0  0  0  0  0
    3.8354   60.6912   70.3715 H   0  0  0  0  0  0  0  0  0  0  0  0
    2.0335   60.6000   70.7539 H   0  0  0  0  0  0  0  0  0  0  0  0
    4.9327   63.4110   71.4749 H   0  0  0  0  0  0  0  0  0  0  0  0
    5.7257   62.7259   70.0160 H   0  0  0  0  0  0  0  0  0  0  0  0
    5.1658   64.4327   70.0160 H   0  0  0  0  0  0  0  0  0  0  0  0
    4.2439   57.2871   71.4997 H   0  0  0  0  0  0  0  0  0  0  0  0
    3.0620   56.4544   70.4336 H   0  0  0  0  0  0  0  0  0  0  0  0
    3.1636   58.2479   70.4336 H   0  0  0  0  0  0  0  0  0  0  0  0
  2  1  1  0
  3  2  1  0
  4  2  1  0
  5  4  1  0
  6  5  1  0
  6  1  1  0
  6  7  1  1
  8  6  1  0
  9  8  1  0
 10  9  1  0
 11 10  1  0
 11  5  1  0
 12 11  1  0
 13 12  1  0
 14 13  1  0
 15 14  2  0
 16 15  1  0
 17 16  2  0
 18 16  1  0
 19 18  2  0
 20 19  1  0
 20 14  1  0
 20 10  1  0
 20 21  1  1
 22 13  1  0
 10 23  1  6
 24  9  1  0
 25  1  1  0
 26 25  2  0
 27 25  1  0
 28 27  1  0
 29 28  1  0
 30 29  2  0
 31 29  1  0
  1 32  1  6
 34 33  1  0
 34 32  1  0
 35 34  2  0
  2 36  1  6
  3 37  1  0
  3 38  1  0
  3 39  1  0
  4 40  1  0
  4 41  1  0
  5 42  1  6
  7 43  1  0
  7 44  1  0
  7 45  1  0
  8 46  1  0
  8 47  1  0
  9 48  1  6
 11 49  1  1
 12 50  1  0
 12 51  1  0
 13 52  1  1
 15 53  1  0
 18 54  1  0
 19 55  1  0
 21 56  1  0
 21 57  1  0
 21 58  1  0
 24 59  1  0
 27 60  1  0
 27 61  1  0
 31 62  1  0
 31 63  1  0
 31 64  1  0
 33 65  1  0
 33 66  1  0
 33 67  1  0
M  END
>  <score>  (5) 
-7.445

$$$$
=
     RDKit          3D

 67 70  0  0  0  0  0  0  0  0999 V2000
    1.6670   61.2000   73.7810 C   0  0  1  0  0  0  0  0  0  0  0  0
    0.1850   61.5630   73.3270 C   0  0  1  0  0  0  0  0  0  0  0  0
   -0.0390   62.2770   72.0000 C   0  0  0  0  0  0  0  0  0  0  0  0
   -0.6270   60.2430   73.3660 C   0  0  0  0  0  0  0  0  0  0  0  0
    0.2050   59.3380   74.2590 C   0  0  2  0  0  0  0  0  0  0  0  0
    1.6510   59.6120   73.7800 C   0  0  1  0  0  0  0  0  0  0  0  0
    1.9190   59.0790   72.3440 C   0  0  0  0  0  0  0  0  0  0  0  0
    2.5950   58.9160   74.7910 C   0  0  0  0  0  0  0  0  0  0  0  0
    2.2960   57.4120   74.9920 C   0  0  1  0  0  0  0  0  0  0  0  0
    0.8020   57.1260   75.3250 C   0  0  1  0  0  0  0  0  0  0  0  0
   -0.1620   57.8450   74.3240 C   0  0  1  0  0  0  0  0  0  0  0  0
   -1.6300   57.6700   74.7540 C   0  0  0  0  0  0  0  0  0  0  0  0
   -2.0100   56.2080   74.9490 C   0  0  1  0  0  0  0  0  0  0  0  0
   -1.0660   55.5330   75.9080 C   0  0  0  0  0  0  0  0  0  0  0  0
   -1.5190   54.9650   77.0400 C   0  0  0  0  0  0  0  0  0  0  0  0
   -0.6110   54.3510   78.0270 C   0  0  0  0  0  0  0  0  0  0  0  0
   -1.0330   53.8230   79.0470 O   0  0  0  0  0  0  0  0  0  0  0  0
    0.8340   54.3990   77.7330 C   0  0  0  0  0  0  0  0  0  0  0  0
    1.2920   54.9630   76.6080 C   0  0  0  0  0  0  0  0  0  0  0  0
    0.4230   55.6000   75.5240 C   0  0  2  0  0  0  0  0  0  0  0  0
    0.6250   54.7350   74.2580 C   0  0  0  0  0  0  0  0  0  0  0  0
   -3.2950   56.1730   75.4050 F   0  0  0  0  0  0  0  0  0  0  0  0
    0.5890   57.7400   76.5510 F   0  0  0  0  0  0  0  0  0  0  0  0
    2.7460   56.6870   73.8530 O   0  0  0  0  0  0  0  0  0  0  0  0
    2.8530   61.7500   72.9160 C   0  0  0  0  0  0  0  0  0  0  0  0
    4.0360   61.5710   73.2210 O   0  0  0  0  0  0  0  0  0  0  0  0
    2.5440   62.7060   71.7610 C   0  0  0  0  0  0  0  0  0  0  0  0
    3.5030   62.7340   70.7110 O   0  0  0  0  0  0  0  0  0  0  0  0
    3.2060   61.9620   69.6330 C   0  0  0  0  0  0  0  0  0  0  0  0
    2.3270   62.1940   68.8150 O   0  0  0  0  0  0  0  0  0  0  0  0
    4.0840   60.7490   69.6100 C   0  0  0  0  0  0  0  0  0  0  0  0
    1.7690   61.6160   75.1720 O   0  0  0  0  0  0  0  0  0  0  0  0
    0.0860   62.4710   76.5630 C   0  0  0  0  0  0  0  0  0  0  0  0
    1.1410   62.7670   75.5430 C   0  0  0  0  0  0  0  0  0  0  0  0
    1.3980   63.8780   75.1100 O   0  0  0  0  0  0  0  0  0  0  0  0
   -0.1443   62.3362   74.0367 H   0  0  0  0  0  0  0  0  0  0  0  0
   -0.3633   63.3108   72.1900 H   0  0  0  0  0  0  0  0  0  0  0  0
    0.8993   62.2867   71.4259 H   0  0  0  0  0  0  0  0  0  0  0  0
   -0.8147   61.7490   71.4259 H   0  0  0  0  0  0  0  0  0  0  0  0
   -1.6257   60.4088   73.7963 H   0  0  0  0  0  0  0  0  0  0  0  0
   -0.7983   59.8169   72.3665 H   0  0  0  0  0  0  0  0  0  0  0  0
    0.0218   59.5822   75.3158 H   0  0  0  0  0  0  0  0  0  0  0  0
    2.4124   58.0977   72.4033 H   0  0  0  0  0  0  0  0  0  0  0  0
    0.9647   58.9777   71.8064 H   0  0  0  0  0  0  0  0  0  0  0  0
    2.5695   59.7846   71.8064 H   0  0  0  0  0  0  0  0  0  0  0  0
    3.6282   59.0185   74.4278 H   0  0  0  0  0  0  0  0  0  0  0  0
    2.4396   59.4059   75.7635 H   0  0  0  0  0  0  0  0  0  0  0  0
    2.8515   57.0670   75.8766 H   0  0  0  0  0  0  0  0  0  0  0  0
   -0.0496   57.3936   73.3272 H   0  0  0  0  0  0  0  0  0  0  0  0
   -1.7859   58.2046   75.7026 H   0  0  0  0  0  0  0  0  0  0  0  0
   -2.2640   58.0762   73.9521 H   0  0  0  0  0  0  0  0  0  0  0  0
   -1.9361   55.6601   73.9980 H   0  0  0  0  0  0  0  0  0  0  0  0
   -2.6014   54.9582   77.2360 H   0  0  0  0  0  0  0  0  0  0  0  0
    1.5467   53.9645   78.4494 H   0  0  0  0  0  0  0  0  0  0  0  0
    2.3808   54.9682   76.4516 H   0  0  0  0  0  0  0  0  0  0  0  0
    0.8660   53.7032   74.5535 H   0  0  0  0  0  0  0  0  0  0  0  0
   -0.2983   54.7390   73.6600 H   0  0  0  0  0  0  0  0  0  0  0  0
    1.4510   55.1475   73.6600 H   0  0  0  0  0  0  0  0  0  0  0  0
    3.2443   55.8842   74.1485 H   0  0  0  0  0  0  0  0  0  0  0  0
    1.5768   62.4113   71.3277 H   0  0  0  0  0  0  0  0  0  0  0  0
    2.5477   63.7155   72.1978 H   0  0  0  0  0  0  0  0  0  0  0  0
    4.3083   60.4391   70.6413 H   0  0  0  0  0  0  0  0  0  0  0  0
    3.5667   59.9318   69.0859 H   0  0  0  0  0  0  0  0  0  0  0  0
    5.0219   60.9851   69.0859 H   0  0  0  0  0  0  0  0  0  0  0  0
    0.5080   62.5894   77.5719 H   0  0  0  0  0  0  0  0  0  0  0  0
   -0.7552   63.1678   76.4333 H   0  0  0  0  0  0  0  0  0  0  0  0
   -0.2700   61.4383   76.4333 H   0  0  0  0  0  0  0  0  0  0  0  0
  2  1  1  0
  3  2  1  0
  4  2  1  0
  5  4  1  0
  6  5  1  0
  6  1  1  0
  6  7  1  6
  8  6  1  0
  9  8  1  0
 10  9  1  0
 11 10  1  0
 11  5  1  0
 12 11  1  0
 13 12  1  0
 14 13  1  0
 15 14  2  0
 16 15  1  0
 17 16  2  0
 18 16  1  0
 19 18  2  0
 20 19  1  0
 20 14  1  0
 20 10  1  0
 20 21  1  6
 22 13  1  0
 10 23  1  1
 24  9  1  0
 25  1  1  0
 26 25  2  0
 27 25  1  0
 28 27  1  0
 29 28  1  0
 30 29  2  0
 31 29  1  0
  1 32  1  1
 34 33  1  0
 34 32  1  0
 35 34  2  0
  2 36  1  1
  3 37  1  0
  3 38  1  0
  3 39  1  0
  4 40  1  0
  4 41  1  0
  5 42  1  1
  7 43  1  0
  7 44  1  0
  7 45  1  0
  8 46  1  0
  8 47  1  0
  9 48  1  1
 11 49  1  6
 12 50  1  0
 12 51  1  0
 13 52  1  6
 15 53  1  0
 18 54  1  0
 19 55  1  0
 21 56  1  0
 21 57  1  0
 21 58  1  0
 24 59  1  0
 27 60  1  0
 27 61  1  0
 31 62  1  0
 31 63  1  0
 31 64  1  0
 33 65  1  0
 33 66  1  0
 33 67  1  0
M  END
>  <score>  (6) 
-7.408

$$$$
=
     RDKit          3D

 67 70  0  0  0  0  0  0  0  0999 V2000
    1.8800   59.1870   73.4670 C   0  0  1  0  0  0  0  0  0  0  0  0
    2.1790   58.3400   72.1520 C   0  0  1  0  0  0  0  0  0  0  0  0
    3.5190   58.5000   71.4470 C   0  0  0  0  0  0  0  0  0  0  0  0
    1.9420   56.8530   72.5190 C   0  0  0  0  0  0  0  0  0  0  0  0
    1.0890   56.9260   73.7750 C   0  0  2  0  0  0  0  0  0  0  0  0
    1.7590   58.0640   74.5830 C   0  0  1  0  0  0  0  0  0  0  0  0
    3.1720   57.6790   75.1060 C   0  0  0  0  0  0  0  0  0  0  0  0
    0.8190   58.3780   75.7730 C   0  0  0  0  0  0  0  0  0  0  0  0
    0.4700   57.1440   76.6360 C   0  0  1  0  0  0  0  0  0  0  0  0
   -0.0620   55.9430   75.7980 C   0  0  1  0  0  0  0  0  0  0  0  0
    0.8680   55.6320   74.5780 C   0  0  1  0  0  0  0  0  0  0  0  0
    0.2520   54.5420   73.6840 C   0  0  0  0  0  0  0  0  0  0  0  0
   -0.0970   53.2790   74.4590 C   0  0  1  0  0  0  0  0  0  0  0  0
   -0.9840   53.6000   75.6330 C   0  0  0  0  0  0  0  0  0  0  0  0
   -2.2020   53.0420   75.7520 C   0  0  0  0  0  0  0  0  0  0  0  0
   -3.1160   53.3850   76.8580 C   0  0  0  0  0  0  0  0  0  0  0  0
   -4.2170   52.8620   76.9670 O   0  0  0  0  0  0  0  0  0  0  0  0
   -2.6480   54.3900   77.8320 C   0  0  0  0  0  0  0  0  0  0  0  0
   -1.4360   54.9490   77.7190 C   0  0  0  0  0  0  0  0  0  0  0  0
   -0.4200   54.6370   76.6210 C   0  0  2  0  0  0  0  0  0  0  0  0
    0.7920   53.9960   77.3370 C   0  0  0  0  0  0  0  0  0  0  0  0
   -0.7060   52.4180   73.5940 F   0  0  0  0  0  0  0  0  0  0  0  0
   -1.2540   56.3940   75.2510 F   0  0  0  0  0  0  0  0  0  0  0  0
    1.5970   56.7920   77.4320 O   0  0  0  0  0  0  0  0  0  0  0  0
    2.9200   60.2830   73.8840 C   0  0  0  0  0  0  0  0  0  0  0  0
    2.6590   61.1700   74.7020 O   0  0  0  0  0  0  0  0  0  0  0  0
    4.2410   60.3790   73.1160 C   0  0  0  0  0  0  0  0  0  0  0  0
    4.5800   61.6720   72.6320 O   0  0  0  0  0  0  0  0  0  0  0  0
    5.2050   61.6950   71.4260 C   0  0  0  0  0  0  0  0  0  0  0  0
    5.9730   60.8400   71.0090 O   0  0  0  0  0  0  0  0  0  0  0  0
    4.8550   62.9500   70.6880 C   0  0  0  0  0  0  0  0  0  0  0  0
    0.5470   59.7430   73.2880 O   0  0  0  0  0  0  0  0  0  0  0  0
   -0.8250   61.6120   72.9360 C   0  0  0  0  0  0  0  0  0  0  0  0
    0.4230   60.8810   72.5490 C   0  0  0  0  0  0  0  0  0  0  0  0
    1.2110   61.2550   71.6960 O   0  0  0  0  0  0  0  0  0  0  0  0
    1.4958   58.7484   71.3927 H   0  0  0  0  0  0  0  0  0  0  0  0
    4.3185   58.5955   72.1964 H   0  0  0  0  0  0  0  0  0  0  0  0
    3.7098   57.6183   70.8176 H   0  0  0  0  0  0  0  0  0  0  0  0
    3.4968   59.4019   70.8176 H   0  0  0  0  0  0  0  0  0  0  0  0
    1.4085   56.3296   71.7119 H   0  0  0  0  0  0  0  0  0  0  0  0
    2.8783   56.2958   72.6702 H   0  0  0  0  0  0  0  0  0  0  0  0
    0.0393   57.1159   73.5066 H   0  0  0  0  0  0  0  0  0  0  0  0
    3.1686   57.6799   76.2060 H   0  0  0  0  0  0  0  0  0  0  0  0
    3.4373   56.6758   74.7410 H   0  0  0  0  0  0  0  0  0  0  0  0
    3.9095   58.4089   74.7410 H   0  0  0  0  0  0  0  0  0  0  0  0
    1.3107   59.1228   76.4160 H   0  0  0  0  0  0  0  0  0  0  0  0
   -0.1251   58.7473   75.3462 H   0  0  0  0  0  0  0  0  0  0  0  0
   -0.3645   57.4153   77.2993 H   0  0  0  0  0  0  0  0  0  0  0  0
    1.8343   55.2561   74.9453 H   0  0  0  0  0  0  0  0  0  0  0  0
   -0.6656   54.9391   73.2255 H   0  0  0  0  0  0  0  0  0  0  0  0
    1.0001   54.2713   72.9243 H   0  0  0  0  0  0  0  0  0  0  0  0
    0.8121   52.8150   74.8691 H   0  0  0  0  0  0  0  0  0  0  0  0
   -2.5268   52.3068   75.0010 H   0  0  0  0  0  0  0  0  0  0  0  0
   -3.3047   54.6847   78.6638 H   0  0  0  0  0  0  0  0  0  0  0  0
   -1.1490   55.6923   78.4774 H   0  0  0  0  0  0  0  0  0  0  0  0
    0.6549   54.0685   78.4260 H   0  0  0  0  0  0  0  0  0  0  0  0
    0.8716   52.9379   77.0471 H   0  0  0  0  0  0  0  0  0  0  0  0
    1.7114   54.5258   77.0471 H   0  0  0  0  0  0  0  0  0  0  0  0
    1.3601   56.8660   78.3904 H   0  0  0  0  0  0  0  0  0  0  0  0
    5.0470   60.0473   73.7871 H   0  0  0  0  0  0  0  0  0  0  0  0
    4.1156   59.7481   72.2237 H   0  0  0  0  0  0  0  0  0  0  0  0
    4.6320   63.7497   71.4097 H   0  0  0  0  0  0  0  0  0  0  0  0
    5.7031   63.2524   70.0561 H   0  0  0  0  0  0  0  0  0  0  0  0
    3.9728   62.7699   70.0561 H   0  0  0  0  0  0  0  0  0  0  0  0
   -0.8993   61.6555   74.0326 H   0  0  0  0  0  0  0  0  0  0  0  0
   -0.7924   62.6338   72.5299 H   0  0  0  0  0  0  0  0  0  0  0  0
   -1.7002   61.0838   72.5299 H   0  0  0  0  0  0  0  0  0  0  0  0
  2  1  1  0
  3  2  1  0
  4  2  1  0
  5  4  1  0
  6  5  1  0
  6  1  1  0
  6  7  1  1
  8  6  1  0
  9  8  1  0
 10  9  1  0
 11 10  1  0
 11  5  1  0
 12 11  1  0
 13 12  1  0
 14 13  1  0
 15 14  2  0
 16 15  1  0
 17 16  2  0
 18 16  1  0
 19 18  2  0
 20 19  1  0
 20 14  1  0
 20 10  1  0
 20 21  1  1
 22 13  1  0
 10 23  1  6
 24  9  1  0
 25  1  1  0
 26 25  2  0
 27 25  1  0
 28 27  1  0
 29 28  1  0
 30 29  2  0
 31 29  1  0
  1 32  1  6
 34 33  1  0
 34 32  1  0
 35 34  2  0
  2 36  1  6
  3 37  1  0
  3 38  1  0
  3 39  1  0
  4 40  1  0
  4 41  1  0
  5 42  1  6
  7 43  1  0
  7 44  1  0
  7 45  1  0
  8 46  1  0
  8 47  1  0
  9 48  1  1
 11 49  1  1
 12 50  1  0
 12 51  1  0
 13 52  1  1
 15 53  1  0
 18 54  1  0
 19 55  1  0
 21 56  1  0
 21 57  1  0
 21 58  1  0
 24 59  1  0
 27 60  1  0
 27 61  1  0
 31 62  1  0
 31 63  1  0
 31 64  1  0
 33 65  1  0
 33 66  1  0
 33 67  1  0
M  END
>  <score>  (7) 
-7.116

$$$$
=
     RDKit          3D

 67 70  0  0  0  0  0  0  0  0999 V2000
   -2.1940   59.4760   76.0090 C   0  0  1  0  0  0  0  0  0  0  0  0
   -2.7380   60.9340   76.3440 C   0  0  1  0  0  0  0  0  0  0  0  0
   -3.0930   61.2890   77.7820 C   0  0  0  0  0  0  0  0  0  0  0  0
   -1.6940   61.9350   75.7890 C   0  0  0  0  0  0  0  0  0  0  0  0
   -0.9060   61.1120   74.7840 C   0  0  2  0  0  0  0  0  0  0  0  0
   -0.7110   59.7630   75.5190 C   0  0  1  0  0  0  0  0  0  0  0  0
    0.2410   59.8790   76.7440 C   0  0  0  0  0  0  0  0  0  0  0  0
   -0.1260   58.7720   74.4830 C   0  0  0  0  0  0  0  0  0  0  0  0
    1.1600   59.2780   73.7900 C   0  0  1  0  0  0  0  0  0  0  0  0
    1.0050   60.7050   73.1820 C   0  0  1  0  0  0  0  0  0  0  0  0
    0.3920   61.7090   74.2130 C   0  0  1  0  0  0  0  0  0  0  0  0
    0.1130   63.0710   73.5530 C   0  0  0  0  0  0  0  0  0  0  0  0
    1.3430   63.6500   72.8670 C   0  0  1  0  0  0  0  0  0  0  0  0
    1.9220   62.6660   71.8860 C   0  0  0  0  0  0  0  0  0  0  0  0
    2.0430   62.9780   70.5830 C   0  0  0  0  0  0  0  0  0  0  0  0
    2.5490   62.0110   69.5900 C   0  0  0  0  0  0  0  0  0  0  0  0
    2.6710   62.3080   68.4090 O   0  0  0  0  0  0  0  0  0  0  0  0
    2.9060   60.6660   70.0810 C   0  0  0  0  0  0  0  0  0  0  0  0
    2.7880   60.3490   71.3760 C   0  0  0  0  0  0  0  0  0  0  0  0
    2.2940   61.2920   72.4730 C   0  0  2  0  0  0  0  0  0  0  0  0
    3.4950   61.4960   73.4270 C   0  0  0  0  0  0  0  0  0  0  0  0
    0.9650   64.8060   72.2500 F   0  0  0  0  0  0  0  0  0  0  0  0
    0.0480   60.5630   72.1880 F   0  0  0  0  0  0  0  0  0  0  0  0
    2.2500   59.1940   74.7010 O   0  0  0  0  0  0  0  0  0  0  0  0
   -2.2080   58.4070   77.1550 C   0  0  0  0  0  0  0  0  0  0  0  0
   -2.1800   58.7150   78.3510 O   0  0  0  0  0  0  0  0  0  0  0  0
   -2.0580   56.9280   76.7890 C   0  0  0  0  0  0  0  0  0  0  0  0
   -1.0540   56.2150   77.5010 O   0  0  0  0  0  0  0  0  0  0  0  0
    0.0840   55.9630   76.8020 C   0  0  0  0  0  0  0  0  0  0  0  0
    1.1530   56.5360   76.9570 O   0  0  0  0  0  0  0  0  0  0  0  0
   -0.1680   54.9060   75.7720 C   0  0  0  0  0  0  0  0  0  0  0  0
   -2.9400   59.0310   74.8410 O   0  0  0  0  0  0  0  0  0  0  0  0
   -5.1120   58.2530   75.2630 C   0  0  0  0  0  0  0  0  0  0  0  0
   -4.2560   59.3730   74.7560 C   0  0  0  0  0  0  0  0  0  0  0  0
   -4.6810   60.4340   74.3300 O   0  0  0  0  0  0  0  0  0  0  0  0
   -3.7289   60.9805   75.8687 H   0  0  0  0  0  0  0  0  0  0  0  0
   -2.4861   60.6821   78.4700 H   0  0  0  0  0  0  0  0  0  0  0  0
   -2.8896   62.3557   77.9573 H   0  0  0  0  0  0  0  0  0  0  0  0
   -4.1597   61.0856   77.9573 H   0  0  0  0  0  0  0  0  0  0  0  0
   -2.1887   62.7858   75.2976 H   0  0  0  0  0  0  0  0  0  0  0  0
   -1.0595   62.3696   76.5755 H   0  0  0  0  0  0  0  0  0  0  0  0
   -1.4633   61.0396   73.8384 H   0  0  0  0  0  0  0  0  0  0  0  0
   -0.3452   59.8076   77.6720 H   0  0  0  0  0  0  0  0  0  0  0  0
    0.9793   59.0642   76.7131 H   0  0  0  0  0  0  0  0  0  0  0  0
    0.7620   60.8473   76.7131 H   0  0  0  0  0  0  0  0  0  0  0  0
    0.1066   57.8287   74.9988 H   0  0  0  0  0  0  0  0  0  0  0  0
   -0.8848   58.6469   73.6965 H   0  0  0  0  0  0  0  0  0  0  0  0
    1.3639   58.6253   72.9284 H   0  0  0  0  0  0  0  0  0  0  0  0
    1.1119   61.8738   75.0282 H   0  0  0  0  0  0  0  0  0  0  0  0
   -0.6817   62.9434   72.8032 H   0  0  0  0  0  0  0  0  0  0  0  0
   -0.1877   63.7712   74.3463 H   0  0  0  0  0  0  0  0  0  0  0  0
    2.1324   63.8600   73.6038 H   0  0  0  0  0  0  0  0  0  0  0  0
    1.7558   63.9854   70.2474 H   0  0  0  0  0  0  0  0  0  0  0  0
    3.2752   59.9114   69.3709 H   0  0  0  0  0  0  0  0  0  0  0  0
    3.0690   59.3283   71.6748 H   0  0  0  0  0  0  0  0  0  0  0  0
    3.1492   61.4373   74.4696 H   0  0  0  0  0  0  0  0  0  0  0  0
    4.2452   60.7124   73.2448 H   0  0  0  0  0  0  0  0  0  0  0  0
    3.9444   62.4833   73.2448 H   0  0  0  0  0  0  0  0  0  0  0  0
    1.9070   59.2204   75.6293 H   0  0  0  0  0  0  0  0  0  0  0  0
   -3.0222   56.4335   76.9783 H   0  0  0  0  0  0  0  0  0  0  0  0
   -1.7471   56.9103   75.7340 H   0  0  0  0  0  0  0  0  0  0  0  0
   -0.3952   53.9531   76.2724 H   0  0  0  0  0  0  0  0  0  0  0  0
   -1.0206   55.2024   75.1434 H   0  0  0  0  0  0  0  0  0  0  0  0
    0.7267   54.7859   75.1434 H   0  0  0  0  0  0  0  0  0  0  0  0
   -5.1084   58.2577   76.3630 H   0  0  0  0  0  0  0  0  0  0  0  0
   -6.1417   58.3848   74.8991 H   0  0  0  0  0  0  0  0  0  0  0  0
   -4.7145   57.2940   74.8991 H   0  0  0  0  0  0  0  0  0  0  0  0
  2  1  1  0
  3  2  1  0
  4  2  1  0
  5  4  1  0
  6  5  1  0
  6  1  1  0
  6  7  1  1
  8  6  1  0
  9  8  1  0
 10  9  1  0
 11 10  1  0
 11  5  1  0
 12 11  1  0
 13 12  1  0
 14 13  1  0
 15 14  2  0
 16 15  1  0
 17 16  2  0
 18 16  1  0
 19 18  2  0
 20 19  1  0
 20 14  1  0
 20 10  1  0
 20 21  1  1
 22 13  1  0
 10 23  1  6
 24  9  1  0
 25  1  1  0
 26 25  2  0
 27 25  1  0
 28 27  1  0
 29 28  1  0
 30 29  2  0
 31 29  1  0
  1 32  1  6
 34 33  1  0
 34 32  1  0
 35 34  2  0
  2 36  1  6
  3 37  1  0
  3 38  1  0
  3 39  1  0
  4 40  1  0
  4 41  1  0
  5 42  1  6
  7 43  1  0
  7 44  1  0
  7 45  1  0
  8 46  1  0
  8 47  1  0
  9 48  1  6
 11 49  1  1
 12 50  1  0
 12 51  1  0
 13 52  1  1
 15 53  1  0
 18 54  1  0
 19 55  1  0
 21 56  1  0
 21 57  1  0
 21 58  1  0
 24 59  1  0
 27 60  1  0
 27 61  1  0
 31 62  1  0
 31 63  1  0
 31 64  1  0
 33 65  1  0
 33 66  1  0
 33 67  1  0
M  END
>  <score>  (8) 
-6.65

$$$$
=
     RDKit          3D

 67 70  0  0  0  0  0  0  0  0999 V2000
    1.3540   60.7260   73.2470 C   0  0  1  0  0  0  0  0  0  0  0  0
    2.4650   60.2130   72.2280 C   0  0  1  0  0  0  0  0  0  0  0  0
    3.7600   61.0000   72.0740 C   0  0  0  0  0  0  0  0  0  0  0  0
    2.7750   58.7440   72.6110 C   0  0  0  0  0  0  0  0  0  0  0  0
    1.5690   58.3270   73.4370 C   0  0  2  0  0  0  0  0  0  0  0  0
    1.3160   59.5650   74.3310 C   0  0  1  0  0  0  0  0  0  0  0  0
    2.4400   59.7840   75.3840 C   0  0  0  0  0  0  0  0  0  0  0  0
   -0.0400   59.3330   75.0400 C   0  0  0  0  0  0  0  0  0  0  0  0
   -0.1200   57.9970   75.8150 C   0  0  1  0  0  0  0  0  0  0  0  0
    0.2830   56.7660   74.9500 C   0  0  1  0  0  0  0  0  0  0  0  0
    1.6410   56.9990   74.2090 C   0  0  1  0  0  0  0  0  0  0  0  0
    1.9500   55.8350   73.2510 C   0  0  0  0  0  0  0  0  0  0  0  0
    1.9150   54.4810   73.9480 C   0  0  1  0  0  0  0  0  0  0  0  0
    0.6050   54.2800   74.6610 C   0  0  0  0  0  0  0  0  0  0  0  0
   -0.1950   53.2410   74.3590 C   0  0  0  0  0  0  0  0  0  0  0  0
   -1.5110   53.0540   74.9980 C   0  0  0  0  0  0  0  0  0  0  0  0
   -2.2260   52.0980   74.7280 O   0  0  0  0  0  0  0  0  0  0  0  0
   -1.9330   54.0710   75.9810 C   0  0  0  0  0  0  0  0  0  0  0  0
   -1.1420   55.1070   76.2860 C   0  0  0  0  0  0  0  0  0  0  0  0
    0.2420   55.3650   75.6910 C   0  0  2  0  0  0  0  0  0  0  0  0
    1.2370   55.2510   76.8690 C   0  0  0  0  0  0  0  0  0  0  0  0
    2.1190   53.5230   72.9980 F   0  0  0  0  0  0  0  0  0  0  0  0
   -0.6780   56.7040   73.9530 F   0  0  0  0  0  0  0  0  0  0  0  0
    0.6500   58.0980   77.0070 O   0  0  0  0  0  0  0  0  0  0  0  0
    1.5720   62.1210   73.9270 C   0  0  0  0  0  0  0  0  0  0  0  0
    2.2200   63.0270   73.3930 O   0  0  0  0  0  0  0  0  0  0  0  0
    1.1360   62.3100   75.3820 C   0  0  0  0  0  0  0  0  0  0  0  0
    0.3360   63.4570   75.6420 O   0  0  0  0  0  0  0  0  0  0  0  0
   -0.3500   63.4310   76.8150 C   0  0  0  0  0  0  0  0  0  0  0  0
    0.1270   63.6480   77.9200 O   0  0  0  0  0  0  0  0  0  0  0  0
   -1.7780   63.0520   76.5690 C   0  0  0  0  0  0  0  0  0  0  0  0
    0.0920   60.6630   72.5250 O   0  0  0  0  0  0  0  0  0  0  0  0
   -0.3180   62.7350   71.5050 C   0  0  0  0  0  0  0  0  0  0  0  0
   -0.7210   61.7560   72.5640 C   0  0  0  0  0  0  0  0  0  0  0  0
   -1.6430   61.9180   73.3470 O   0  0  0  0  0  0  0  0  0  0  0  0
    2.0183   60.3514   71.2323 H   0  0  0  0  0  0  0  0  0  0  0  0
    4.1613   61.2439   73.0687 H   0  0  0  0  0  0  0  0  0  0  0  0
    4.4934   60.3947   71.5210 H   0  0  0  0  0  0  0  0  0  0  0  0
    3.5605   61.9297   71.5210 H   0  0  0  0  0  0  0  0  0  0  0  0
    2.8718   58.1162   71.7130 H   0  0  0  0  0  0  0  0  0  0  0  0
    3.7242   58.6360   73.1563 H   0  0  0  0  0  0  0  0  0  0  0  0
    0.7314   58.0664   72.7733 H   0  0  0  0  0  0  0  0  0  0  0  0
    2.0159   59.7014   76.3956 H   0  0  0  0  0  0  0  0  0  0  0  0
    3.2212   59.0212   75.2505 H   0  0  0  0  0  0  0  0  0  0  0  0
    2.8777   60.7843   75.2505 H   0  0  0  0  0  0  0  0  0  0  0  0
   -0.2049   60.1563   75.7506 H   0  0  0  0  0  0  0  0  0  0  0  0
   -0.8090   59.2936   74.2545 H   0  0  0  0  0  0  0  0  0  0  0  0
   -1.1714   57.8186   76.0848 H   0  0  0  0  0  0  0  0  0  0  0  0
    2.4532   57.0465   74.9494 H   0  0  0  0  0  0  0  0  0  0  0  0
    1.2034   55.8353   72.4431 H   0  0  0  0  0  0  0  0  0  0  0  0
    2.9677   55.9841   72.8612 H   0  0  0  0  0  0  0  0  0  0  0  0
    2.7017   54.4210   74.7145 H   0  0  0  0  0  0  0  0  0  0  0  0
    0.1433   52.5079   73.6119 H   0  0  0  0  0  0  0  0  0  0  0  0
   -2.9133   53.9761   76.4709 H   0  0  0  0  0  0  0  0  0  0  0  0
   -1.5183   55.8307   77.0241 H   0  0  0  0  0  0  0  0  0  0  0  0
    0.6880   55.3139   77.8201 H   0  0  0  0  0  0  0  0  0  0  0  0
    1.7632   54.2867   76.8125 H   0  0  0  0  0  0  0  0  0  0  0  0
    1.9677   56.0713   76.8125 H   0  0  0  0  0  0  0  0  0  0  0  0
    0.0532   58.0197   77.7930 H   0  0  0  0  0  0  0  0  0  0  0  0
    0.5601   61.4216   75.6804 H   0  0  0  0  0  0  0  0  0  0  0  0
    2.0629   62.4544   75.9565 H   0  0  0  0  0  0  0  0  0  0  0  0
   -2.2922   62.9155   77.5318 H   0  0  0  0  0  0  0  0  0  0  0  0
   -2.2757   63.8492   75.9973 H   0  0  0  0  0  0  0  0  0  0  0  0
   -1.8149   62.1130   75.9973 H   0  0  0  0  0  0  0  0  0  0  0  0
    0.0599   63.6529   71.9789 H   0  0  0  0  0  0  0  0  0  0  0  0
    0.4716   62.2937   70.8791 H   0  0  0  0  0  0  0  0  0  0  0  0
   -1.1894   62.9775   70.8791 H   0  0  0  0  0  0  0  0  0  0  0  0
  2  1  1  0
  3  2  1  0
  4  2  1  0
  5  4  1  0
  6  5  1  0
  6  1  1  0
  6  7  1  1
  8  6  1  0
  9  8  1  0
 10  9  1  0
 11 10  1  0
 11  5  1  0
 12 11  1  0
 13 12  1  0
 14 13  1  0
 15 14  2  0
 16 15  1  0
 17 16  2  0
 18 16  1  0
 19 18  2  0
 20 19  1  0
 20 14  1  0
 20 10  1  0
 20 21  1  1
 22 13  1  0
 10 23  1  6
 24  9  1  0
 25  1  1  0
 26 25  2  0
 27 25  1  0
 28 27  1  0
 29 28  1  0
 30 29  2  0
 31 29  1  0
  1 32  1  6
 34 33  1  0
 34 32  1  0
 35 34  2  0
  2 36  1  6
  3 37  1  0
  3 38  1  0
  3 39  1  0
  4 40  1  0
  4 41  1  0
  5 42  1  6
  7 43  1  0
  7 44  1  0
  7 45  1  0
  8 46  1  0
  8 47  1  0
  9 48  1  1
 11 49  1  1
 12 50  1  0
 12 51  1  0
 13 52  1  1
 15 53  1  0
 18 54  1  0
 19 55  1  0
 21 56  1  0
 21 57  1  0
 21 58  1  0
 24 59  1  0
 27 60  1  0
 27 61  1  0
 31 62  1  0
 31 63  1  0
 31 64  1  0
 33 65  1  0
 33 66  1  0
 33 67  1  0
M  END
>  <score>  (9) 
-5.923

$$$$
