=
     RDKit          3D

 27 28  0  0  0  0  0  0  0  0999 V2000
    4.5940   69.8220   66.0520 C   0  0  0  0  0  0  0  0  0  0  0  0
    3.7320   69.5050   67.1080 C   0  0  0  0  0  0  0  0  0  0  0  0
    2.6560   68.6440   66.9050 C   0  0  0  0  0  0  0  0  0  0  0  0
    2.4460   68.0920   65.6390 C   0  0  0  0  0  0  0  0  0  0  0  0
    3.3320   68.3430   64.5830 C   0  0  0  0  0  0  0  0  0  0  0  0
    4.4160   69.2090   64.7960 C   0  0  0  0  0  0  0  0  0  0  0  0
    5.5470   69.5430   63.5160 Cl  0  0  0  0  0  0  0  0  0  0  0  0
    3.0730   67.5840   63.0400 Cl  0  0  0  0  0  0  0  0  0  0  0  0
    1.2490   67.2480   65.4600 C   0  0  0  0  0  0  0  0  0  0  0  0
    1.4340   66.1220   65.0020 O   0  0  0  0  0  0  0  0  0  0  0  0
   -0.0350   67.8000   65.8730 C   0  0  0  0  0  0  0  0  0  0  0  0
   -0.7850   68.8160   65.3070 C   0  0  0  0  0  0  0  0  0  0  0  0
   -1.9990   69.0620   66.0160 C   0  0  0  0  0  0  0  0  0  0  0  0
   -2.1360   68.2290   67.1030 C   0  0  0  0  0  0  0  0  0  0  0  0
   -0.8100   67.1630   67.2650 S   0  0  0  0  0  0  0  0  0  0  0  0
    5.6330   70.7090   66.1790 O   0  0  0  0  0  0  0  0  0  0  0  0
    6.6270   70.4190   67.1910 C   0  0  0  0  0  0  0  0  0  0  0  0
    5.9820   72.4760   68.1740 O   0  0  0  0  0  1  0  0  0  0  0  0
    6.5850   71.3830   68.3970 C   0  0  0  0  0  0  0  0  0  0  0  0
    7.1500   70.9880   69.4560 O   0  0  0  0  0  0  0  0  0  0  0  0
    3.9052   69.9383   68.1041 H   0  0  0  0  0  0  0  0  0  0  0  0
    1.9768   68.4006   67.7353 H   0  0  0  0  0  0  0  0  0  0  0  0
   -0.4790   69.3729   64.4091 H   0  0  0  0  0  0  0  0  0  0  0  0
   -2.7366   69.8257   65.7282 H   0  0  0  0  0  0  0  0  0  0  0  0
   -2.9974   68.2472   67.7869 H   0  0  0  0  0  0  0  0  0  0  0  0
    6.4601   69.3957   67.5584 H   0  0  0  0  0  0  0  0  0  0  0  0
    7.6125   70.5395   66.7174 H   0  0  0  0  0  0  0  0  0  0  0  0
  2  1  2  0
  3  2  1  0
  4  3  2  0
  5  4  1  0
  6  5  2  0
  6  1  1  0
  7  6  1  0
  8  5  1  0
  9  4  1  0
 10  9  2  0
 11  9  1  0
 12 11  2  0
 13 12  1  0
 14 13  2  0
 15 14  1  0
 15 11  1  0
 16  1  1  0
 17 16  1  0
 19 17  1  0
 19 18  1  0
 20 19  2  0
  2 21  1  0
  3 22  1  0
 12 23  1  0
 13 24  1  0
 14 25  1  0
 17 26  1  0
 17 27  1  0
M  CHG  1  18  -1
M  END
>  <score>  (1) 
-8.88

$$$$
=
     RDKit          3D

 27 28  0  0  0  0  0  0  0  0999 V2000
    4.7330   70.1950   67.2280 C   0  0  0  0  0  0  0  0  0  0  0  0
    5.2310   69.8160   65.9770 C   0  0  0  0  0  0  0  0  0  0  0  0
    4.4560   69.0460   65.1140 C   0  0  0  0  0  0  0  0  0  0  0  0
    3.1710   68.6580   65.5030 C   0  0  0  0  0  0  0  0  0  0  0  0
    2.6260   69.0790   66.7230 C   0  0  0  0  0  0  0  0  0  0  0  0
    3.4120   69.8590   67.5860 C   0  0  0  0  0  0  0  0  0  0  0  0
    2.7730   70.4120   69.1080 Cl  0  0  0  0  0  0  0  0  0  0  0  0
    0.9990   68.6310   67.1420 Cl  0  0  0  0  0  0  0  0  0  0  0  0
    2.4230   67.7790   64.5850 C   0  0  0  0  0  0  0  0  0  0  0  0
    2.5250   66.5680   64.7770 O   0  0  0  0  0  0  0  0  0  0  0  0
    1.6030   68.4120   63.5600 C   0  0  0  0  0  0  0  0  0  0  0  0
    0.2950   68.8590   63.6240 C   0  0  0  0  0  0  0  0  0  0  0  0
   -0.1500   69.4290   62.3940 C   0  0  0  0  0  0  0  0  0  0  0  0
    0.8300   69.3970   61.4290 C   0  0  0  0  0  0  0  0  0  0  0  0
    2.2720   68.6830   62.0020 S   0  0  0  0  0  0  0  0  0  0  0  0
    5.4730   70.9030   68.1410 O   0  0  0  0  0  0  0  0  0  0  0  0
    6.8810   70.5840   68.2390 C   0  0  0  0  0  0  0  0  0  0  0  0
    8.4340   71.8230   69.5290 O   0  0  0  0  0  1  0  0  0  0  0  0
    7.5100   70.9580   69.5990 C   0  0  0  0  0  0  0  0  0  0  0  0
    7.0490   70.3670   70.6170 O   0  0  0  0  0  0  0  0  0  0  0  0
    6.2411   70.1282   65.6732 H   0  0  0  0  0  0  0  0  0  0  0  0
    4.8523   68.7452   64.1329 H   0  0  0  0  0  0  0  0  0  0  0  0
   -0.3327   68.7832   64.5241 H   0  0  0  0  0  0  0  0  0  0  0  0
   -1.1563   69.8443   62.2362 H   0  0  0  0  0  0  0  0  0  0  0  0
    0.7002   69.7856   60.4082 H   0  0  0  0  0  0  0  0  0  0  0  0
    7.0031   69.5016   68.0860 H   0  0  0  0  0  0  0  0  0  0  0  0
    7.3989   71.1779   67.4715 H   0  0  0  0  0  0  0  0  0  0  0  0
  2  1  2  0
  3  2  1  0
  4  3  2  0
  5  4  1  0
  6  5  2  0
  6  1  1  0
  7  6  1  0
  8  5  1  0
  9  4  1  0
 10  9  2  0
 11  9  1  0
 12 11  2  0
 13 12  1  0
 14 13  2  0
 15 14  1  0
 15 11  1  0
 16  1  1  0
 17 16  1  0
 19 17  1  0
 19 18  1  0
 20 19  2  0
  2 21  1  0
  3 22  1  0
 12 23  1  0
 13 24  1  0
 14 25  1  0
 17 26  1  0
 17 27  1  0
M  CHG  1  18  -1
M  END
>  <score>  (2) 
-8.519

$$$$
=
     RDKit          3D

 27 28  0  0  0  0  0  0  0  0999 V2000
    3.6110   69.0070   64.5570 C   0  0  0  0  0  0  0  0  0  0  0  0
    2.2830   68.6730   64.2700 C   0  0  0  0  0  0  0  0  0  0  0  0
    1.3180   68.6980   65.2730 C   0  0  0  0  0  0  0  0  0  0  0  0
    1.6830   69.0650   66.5700 C   0  0  0  0  0  0  0  0  0  0  0  0
    2.9920   69.4650   66.8690 C   0  0  0  0  0  0  0  0  0  0  0  0
    3.9590   69.4420   65.8510 C   0  0  0  0  0  0  0  0  0  0  0  0
    5.5950   69.9390   66.1730 Cl  0  0  0  0  0  0  0  0  0  0  0  0
    3.3910   69.9790   68.4810 Cl  0  0  0  0  0  0  0  0  0  0  0  0
    0.6390   69.0000   67.6110 C   0  0  0  0  0  0  0  0  0  0  0  0
   -0.1250   69.9610   67.6850 O   0  0  0  0  0  0  0  0  0  0  0  0
    0.5750   67.7970   68.4300 C   0  0  0  0  0  0  0  0  0  0  0  0
    1.5210   67.2560   69.2840 C   0  0  0  0  0  0  0  0  0  0  0  0
    1.0710   66.0550   69.9110 C   0  0  0  0  0  0  0  0  0  0  0  0
   -0.2020   65.7160   69.5150 C   0  0  0  0  0  0  0  0  0  0  0  0
   -0.8460   66.8340   68.3950 S   0  0  0  0  0  0  0  0  0  0  0  0
    4.6140   68.9430   63.6230 O   0  0  0  0  0  0  0  0  0  0  0  0
    5.2650   67.6640   63.4390 C   0  0  0  0  0  0  0  0  0  0  0  0
    4.5990   65.4910   62.7700 O   0  0  0  0  0  1  0  0  0  0  0  0
    4.5190   66.7200   62.4700 C   0  0  0  0  0  0  0  0  0  0  0  0
    3.9250   67.2640   61.4960 O   0  0  0  0  0  0  0  0  0  0  0  0
    1.9998   68.3890   63.2457 H   0  0  0  0  0  0  0  0  0  0  0  0
    0.2755   68.4306   65.0456 H   0  0  0  0  0  0  0  0  0  0  0  0
    2.5107   67.7026   69.4601 H   0  0  0  0  0  0  0  0  0  0  0  0
    1.6702   65.4709   70.6250 H   0  0  0  0  0  0  0  0  0  0  0  0
   -0.7422   64.8288   69.8771 H   0  0  0  0  0  0  0  0  0  0  0  0
    6.2748   67.8426   63.0410 H   0  0  0  0  0  0  0  0  0  0  0  0
    5.2819   67.1682   64.4208 H   0  0  0  0  0  0  0  0  0  0  0  0
  2  1  2  0
  3  2  1  0
  4  3  2  0
  5  4  1  0
  6  5  2  0
  6  1  1  0
  7  6  1  0
  8  5  1  0
  9  4  1  0
 10  9  2  0
 11  9  1  0
 12 11  2  0
 13 12  1  0
 14 13  2  0
 15 14  1  0
 15 11  1  0
 16  1  1  0
 17 16  1  0
 19 17  1  0
 19 18  1  0
 20 19  2  0
  2 21  1  0
  3 22  1  0
 12 23  1  0
 13 24  1  0
 14 25  1  0
 17 26  1  0
 17 27  1  0
M  CHG  1  18  -1
M  END
>  <score>  (3) 
-8.096

$$$$
=
     RDKit          3D

 27 28  0  0  0  0  0  0  0  0999 V2000
    3.9360   68.1850   64.6480 C   0  0  0  0  0  0  0  0  0  0  0  0
    2.8570   67.3150   64.4600 C   0  0  0  0  0  0  0  0  0  0  0  0
    1.8380   67.2410   65.4060 C   0  0  0  0  0  0  0  0  0  0  0  0
    1.8970   68.0480   66.5450 C   0  0  0  0  0  0  0  0  0  0  0  0
    2.9330   68.9730   66.7250 C   0  0  0  0  0  0  0  0  0  0  0  0
    3.9550   69.0440   65.7640 C   0  0  0  0  0  0  0  0  0  0  0  0
    5.2580   70.1850   65.9410 Cl  0  0  0  0  0  0  0  0  0  0  0  0
    2.9350   70.0070   68.1220 Cl  0  0  0  0  0  0  0  0  0  0  0  0
    0.8320   67.8750   67.5520 C   0  0  0  0  0  0  0  0  0  0  0  0
    1.1960   67.6060   68.6960 O   0  0  0  0  0  0  0  0  0  0  0  0
   -0.5450   68.0740   67.1210 C   0  0  0  0  0  0  0  0  0  0  0  0
   -1.0770   69.0190   66.2620 C   0  0  0  0  0  0  0  0  0  0  0  0
   -2.4860   68.8770   66.0940 C   0  0  0  0  0  0  0  0  0  0  0  0
   -2.9880   67.8300   66.8310 C   0  0  0  0  0  0  0  0  0  0  0  0
   -1.7680   67.0290   67.7200 S   0  0  0  0  0  0  0  0  0  0  0  0
    4.9960   68.2560   63.7790 O   0  0  0  0  0  0  0  0  0  0  0  0
    4.7930   68.9940   62.5510 C   0  0  0  0  0  0  0  0  0  0  0  0
    4.0650   67.0630   61.3870 O   0  0  0  0  0  1  0  0  0  0  0  0
    3.8350   68.2980   61.5590 C   0  0  0  0  0  0  0  0  0  0  0  0
    2.9440   69.0220   61.0300 O   0  0  0  0  0  0  0  0  0  0  0  0
    2.8132   66.6853   63.5591 H   0  0  0  0  0  0  0  0  0  0  0  0
    0.9930   66.5525   65.2577 H   0  0  0  0  0  0  0  0  0  0  0  0
   -0.4784   69.7953   65.7630 H   0  0  0  0  0  0  0  0  0  0  0  0
   -3.0981   69.5272   65.4517 H   0  0  0  0  0  0  0  0  0  0  0  0
   -4.0496   67.5421   66.8464 H   0  0  0  0  0  0  0  0  0  0  0  0
    4.3753   69.9798   62.8034 H   0  0  0  0  0  0  0  0  0  0  0  0
    5.7719   69.0673   62.0546 H   0  0  0  0  0  0  0  0  0  0  0  0
  2  1  2  0
  3  2  1  0
  4  3  2  0
  5  4  1  0
  6  5  2  0
  6  1  1  0
  7  6  1  0
  8  5  1  0
  9  4  1  0
 10  9  2  0
 11  9  1  0
 12 11  2  0
 13 12  1  0
 14 13  2  0
 15 14  1  0
 15 11  1  0
 16  1  1  0
 17 16  1  0
 19 17  1  0
 19 18  1  0
 20 19  2  0
  2 21  1  0
  3 22  1  0
 12 23  1  0
 13 24  1  0
 14 25  1  0
 17 26  1  0
 17 27  1  0
M  CHG  1  18  -1
M  END
>  <score>  (4) 
-7.782

$$$$
=
     RDKit          3D

 27 28  0  0  0  0  0  0  0  0999 V2000
    2.4680   63.2130   70.9830 C   0  0  0  0  0  0  0  0  0  0  0  0
    1.4250   62.4000   71.4390 C   0  0  0  0  0  0  0  0  0  0  0  0
    1.6640   61.0710   71.7780 C   0  0  0  0  0  0  0  0  0  0  0  0
    2.9570   60.5550   71.6670 C   0  0  0  0  0  0  0  0  0  0  0  0
    4.0300   61.3650   71.2760 C   0  0  0  0  0  0  0  0  0  0  0  0
    3.7810   62.7060   70.9390 C   0  0  0  0  0  0  0  0  0  0  0  0
    5.0850   63.7530   70.4560 Cl  0  0  0  0  0  0  0  0  0  0  0  0
    5.6360   60.7020   71.2140 Cl  0  0  0  0  0  0  0  0  0  0  0  0
    3.1400   59.1210   71.9650 C   0  0  0  0  0  0  0  0  0  0  0  0
    3.3190   58.3780   71.0010 O   0  0  0  0  0  0  0  0  0  0  0  0
    3.1340   58.7150   73.3650 C   0  0  0  0  0  0  0  0  0  0  0  0
    3.9850   59.0740   74.3950 C   0  0  0  0  0  0  0  0  0  0  0  0
    3.6390   58.4560   75.6330 C   0  0  0  0  0  0  0  0  0  0  0  0
    2.5360   57.6420   75.5100 C   0  0  0  0  0  0  0  0  0  0  0  0
    1.9280   57.6240   73.9130 S   0  0  0  0  0  0  0  0  0  0  0  0
    2.2790   64.5110   70.5800 O   0  0  0  0  0  0  0  0  0  0  0  0
    0.9360   65.0420   70.6730 C   0  0  0  0  0  0  0  0  0  0  0  0
   -0.3630   66.1960   69.0620 O   0  0  0  0  0  1  0  0  0  0  0  0
    0.6890   66.2690   69.7670 C   0  0  0  0  0  0  0  0  0  0  0  0
    1.5490   67.1930   69.8200 O   0  0  0  0  0  0  0  0  0  0  0  0
    0.4097   62.8133   71.5303 H   0  0  0  0  0  0  0  0  0  0  0  0
    0.8407   60.4323   72.1306 H   0  0  0  0  0  0  0  0  0  0  0  0
    4.8354   59.7609   74.2726 H   0  0  0  0  0  0  0  0  0  0  0  0
    4.1880   58.6113   76.5735 H   0  0  0  0  0  0  0  0  0  0  0  0
    2.0976   57.0705   76.3414 H   0  0  0  0  0  0  0  0  0  0  0  0
    0.2288   64.2501   70.3855 H   0  0  0  0  0  0  0  0  0  0  0  0
    0.7934   65.3754   71.7115 H   0  0  0  0  0  0  0  0  0  0  0  0
  2  1  2  0
  3  2  1  0
  4  3  2  0
  5  4  1  0
  6  5  2  0
  6  1  1  0
  7  6  1  0
  8  5  1  0
  9  4  1  0
 10  9  2  0
 11  9  1  0
 12 11  2  0
 13 12  1  0
 14 13  2  0
 15 14  1  0
 15 11  1  0
 16  1  1  0
 17 16  1  0
 19 17  1  0
 19 18  1  0
 20 19  2  0
  2 21  1  0
  3 22  1  0
 12 23  1  0
 13 24  1  0
 14 25  1  0
 17 26  1  0
 17 27  1  0
M  CHG  1  18  -1
M  END
>  <score>  (5) 
-7.144

$$$$
=
     RDKit          3D

 27 28  0  0  0  0  0  0  0  0999 V2000
    1.8790   63.3830   70.6800 C   0  0  0  0  0  0  0  0  0  0  0  0
    1.4910   63.1770   72.0080 C   0  0  0  0  0  0  0  0  0  0  0  0
    2.1270   62.2140   72.7870 C   0  0  0  0  0  0  0  0  0  0  0  0
    3.1630   61.4570   72.2350 C   0  0  0  0  0  0  0  0  0  0  0  0
    3.6130   61.6880   70.9290 C   0  0  0  0  0  0  0  0  0  0  0  0
    2.9690   62.6640   70.1510 C   0  0  0  0  0  0  0  0  0  0  0  0
    3.5000   62.9920   68.5260 Cl  0  0  0  0  0  0  0  0  0  0  0  0
    4.9490   60.7700   70.3000 Cl  0  0  0  0  0  0  0  0  0  0  0  0
    3.7500   60.3980   73.0780 C   0  0  0  0  0  0  0  0  0  0  0  0
    4.8200   60.6610   73.6250 O   0  0  0  0  0  0  0  0  0  0  0  0
    3.0020   59.1560   73.2230 C   0  0  0  0  0  0  0  0  0  0  0  0
    2.3380   58.4060   72.2680 C   0  0  0  0  0  0  0  0  0  0  0  0
    1.7220   57.2410   72.8160 C   0  0  0  0  0  0  0  0  0  0  0  0
    1.9330   57.1390   74.1720 C   0  0  0  0  0  0  0  0  0  0  0  0
    2.8620   58.4390   74.7760 S   0  0  0  0  0  0  0  0  0  0  0  0
    1.2500   64.2750   69.8500 O   0  0  0  0  0  0  0  0  0  0  0  0
    0.9290   65.5750   70.4010 C   0  0  0  0  0  0  0  0  0  0  0  0
   -0.4410   66.4220   68.6630 O   0  0  0  0  0  1  0  0  0  0  0  0
    0.6150   66.6430   69.3300 C   0  0  0  0  0  0  0  0  0  0  0  0
    1.4320   67.6020   69.2300 O   0  0  0  0  0  0  0  0  0  0  0  0
    0.6783   63.7796   72.4397 H   0  0  0  0  0  0  0  0  0  0  0  0
    1.8159   62.0506   73.8294 H   0  0  0  0  0  0  0  0  0  0  0  0
    2.2902   58.6780   71.2032 H   0  0  0  0  0  0  0  0  0  0  0  0
    1.1476   56.5122   72.2254 H   0  0  0  0  0  0  0  0  0  0  0  0
    1.5486   56.3170   74.7938 H   0  0  0  0  0  0  0  0  0  0  0  0
    0.0497   65.4682   71.0532 H   0  0  0  0  0  0  0  0  0  0  0  0
    1.8182   65.9206   70.9486 H   0  0  0  0  0  0  0  0  0  0  0  0
  2  1  2  0
  3  2  1  0
  4  3  2  0
  5  4  1  0
  6  5  2  0
  6  1  1  0
  7  6  1  0
  8  5  1  0
  9  4  1  0
 10  9  2  0
 11  9  1  0
 12 11  2  0
 13 12  1  0
 14 13  2  0
 15 14  1  0
 15 11  1  0
 16  1  1  0
 17 16  1  0
 19 17  1  0
 19 18  1  0
 20 19  2  0
  2 21  1  0
  3 22  1  0
 12 23  1  0
 13 24  1  0
 14 25  1  0
 17 26  1  0
 17 27  1  0
M  CHG  1  18  -1
M  END
>  <score>  (6) 
-6.839

$$$$
=
     RDKit          3D

 27 28  0  0  0  0  0  0  0  0999 V2000
    1.2980   64.1180   70.5390 C   0  0  0  0  0  0  0  0  0  0  0  0
    2.1560   63.3170   69.7770 C   0  0  0  0  0  0  0  0  0  0  0  0
    2.8860   62.2960   70.3780 C   0  0  0  0  0  0  0  0  0  0  0  0
    2.7500   62.0680   71.7500 C   0  0  0  0  0  0  0  0  0  0  0  0
    1.8500   62.8130   72.5220 C   0  0  0  0  0  0  0  0  0  0  0  0
    1.1150   63.8400   71.9070 C   0  0  0  0  0  0  0  0  0  0  0  0
   -0.0230   64.7850   72.8250 Cl  0  0  0  0  0  0  0  0  0  0  0  0
    1.6610   62.4560   74.2130 Cl  0  0  0  0  0  0  0  0  0  0  0  0
    3.6030   61.0250   72.3500 C   0  0  0  0  0  0  0  0  0  0  0  0
    4.5690   61.4130   73.0060 O   0  0  0  0  0  0  0  0  0  0  0  0
    3.2130   59.6350   72.1500 C   0  0  0  0  0  0  0  0  0  0  0  0
    3.5150   58.7700   71.1130 C   0  0  0  0  0  0  0  0  0  0  0  0
    2.9370   57.4780   71.2900 C   0  0  0  0  0  0  0  0  0  0  0  0
    2.2090   57.3970   72.4550 C   0  0  0  0  0  0  0  0  0  0  0  0
    2.2220   58.8680   73.3240 S   0  0  0  0  0  0  0  0  0  0  0  0
    0.6010   65.1750   70.0110 O   0  0  0  0  0  0  0  0  0  0  0  0
    1.3060   66.4320   69.8810 C   0  0  0  0  0  0  0  0  0  0  0  0
    1.6390   68.2550   68.4040 O   0  0  0  0  0  1  0  0  0  0  0  0
    0.9160   67.2360   68.6210 C   0  0  0  0  0  0  0  0  0  0  0  0
   -0.0690   66.8040   67.9580 O   0  0  0  0  0  0  0  0  0  0  0  0
    2.2540   63.4956   68.6960 H   0  0  0  0  0  0  0  0  0  0  0  0
    3.5651   61.6730   69.7775 H   0  0  0  0  0  0  0  0  0  0  0  0
    4.1333   59.0483   70.2468 H   0  0  0  0  0  0  0  0  0  0  0  0
    3.0586   56.6463   70.5805 H   0  0  0  0  0  0  0  0  0  0  0  0
    1.6807   56.4914   72.7877 H   0  0  0  0  0  0  0  0  0  0  0  0
    1.0864   67.0464   70.7666 H   0  0  0  0  0  0  0  0  0  0  0  0
    2.3758   66.1924   69.7907 H   0  0  0  0  0  0  0  0  0  0  0  0
  2  1  2  0
  3  2  1  0
  4  3  2  0
  5  4  1  0
  6  5  2  0
  6  1  1  0
  7  6  1  0
  8  5  1  0
  9  4  1  0
 10  9  2  0
 11  9  1  0
 12 11  2  0
 13 12  1  0
 14 13  2  0
 15 14  1  0
 15 11  1  0
 16  1  1  0
 17 16  1  0
 19 17  1  0
 19 18  1  0
 20 19  2  0
  2 21  1  0
  3 22  1  0
 12 23  1  0
 13 24  1  0
 14 25  1  0
 17 26  1  0
 17 27  1  0
M  CHG  1  18  -1
M  END
>  <score>  (7) 
-6.797

$$$$
=
     RDKit          3D

 27 28  0  0  0  0  0  0  0  0999 V2000
    4.2970   60.9480   71.5380 C   0  0  0  0  0  0  0  0  0  0  0  0
    4.2890   61.2510   72.9040 C   0  0  0  0  0  0  0  0  0  0  0  0
    3.6600   60.4010   73.8110 C   0  0  0  0  0  0  0  0  0  0  0  0
    3.0430   59.2360   73.3480 C   0  0  0  0  0  0  0  0  0  0  0  0
    3.0940   58.8780   71.9950 C   0  0  0  0  0  0  0  0  0  0  0  0
    3.7330   59.7390   71.0870 C   0  0  0  0  0  0  0  0  0  0  0  0
    3.8290   59.3300   69.3980 Cl  0  0  0  0  0  0  0  0  0  0  0  0
    2.3710   57.3870   71.4680 Cl  0  0  0  0  0  0  0  0  0  0  0  0
    2.3260   58.4110   74.3390 C   0  0  0  0  0  0  0  0  0  0  0  0
    2.9970   57.5800   74.9500 O   0  0  0  0  0  0  0  0  0  0  0  0
    0.9070   58.6730   74.5370 C   0  0  0  0  0  0  0  0  0  0  0  0
   -0.0240   59.2140   73.6670 C   0  0  0  0  0  0  0  0  0  0  0  0
   -1.3250   59.3060   74.2430 C   0  0  0  0  0  0  0  0  0  0  0  0
   -1.3480   58.8360   75.5360 C   0  0  0  0  0  0  0  0  0  0  0  0
    0.1880   58.2910   76.0480 S   0  0  0  0  0  0  0  0  0  0  0  0
    4.8490   61.7770   70.5950 O   0  0  0  0  0  0  0  0  0  0  0  0
    4.1500   63.0130   70.3130 C   0  0  0  0  0  0  0  0  0  0  0  0
    1.9560   62.6800   69.4830 O   0  0  0  0  0  1  0  0  0  0  0  0
    3.1540   62.9080   69.1360 C   0  0  0  0  0  0  0  0  0  0  0  0
    3.6330   63.0520   67.9760 O   0  0  0  0  0  0  0  0  0  0  0  0
    4.7824   62.1659   73.2639 H   0  0  0  0  0  0  0  0  0  0  0  0
    3.6492   60.6452   74.8835 H   0  0  0  0  0  0  0  0  0  0  0  0
    0.2140   59.5376   72.6430 H   0  0  0  0  0  0  0  0  0  0  0  0
   -2.2048   59.7049   73.7168 H   0  0  0  0  0  0  0  0  0  0  0  0
   -2.2495   58.8138   76.1660 H   0  0  0  0  0  0  0  0  0  0  0  0
    3.5932   63.3105   71.2138 H   0  0  0  0  0  0  0  0  0  0  0  0
    4.9103   63.7544   70.0260 H   0  0  0  0  0  0  0  0  0  0  0  0
  2  1  2  0
  3  2  1  0
  4  3  2  0
  5  4  1  0
  6  5  2  0
  6  1  1  0
  7  6  1  0
  8  5  1  0
  9  4  1  0
 10  9  2  0
 11  9  1  0
 12 11  2  0
 13 12  1  0
 14 13  2  0
 15 14  1  0
 15 11  1  0
 16  1  1  0
 17 16  1  0
 19 17  1  0
 19 18  1  0
 20 19  2  0
  2 21  1  0
  3 22  1  0
 12 23  1  0
 13 24  1  0
 14 25  1  0
 17 26  1  0
 17 27  1  0
M  CHG  1  18  -1
M  END
>  <score>  (8) 
-6.499

$$$$
=
     RDKit          3D

 27 28  0  0  0  0  0  0  0  0999 V2000
    3.4890   61.4210   72.2380 C   0  0  0  0  0  0  0  0  0  0  0  0
    4.0260   60.1750   71.8990 C   0  0  0  0  0  0  0  0  0  0  0  0
    3.7780   59.0600   72.6950 C   0  0  0  0  0  0  0  0  0  0  0  0
    2.9800   59.1920   73.8340 C   0  0  0  0  0  0  0  0  0  0  0  0
    2.3780   60.4140   74.1600 C   0  0  0  0  0  0  0  0  0  0  0  0
    2.6310   61.5330   73.3500 C   0  0  0  0  0  0  0  0  0  0  0  0
    1.8970   63.0700   73.7100 Cl  0  0  0  0  0  0  0  0  0  0  0  0
    1.3390   60.5220   75.5490 Cl  0  0  0  0  0  0  0  0  0  0  0  0
    2.8120   57.9970   74.6840 C   0  0  0  0  0  0  0  0  0  0  0  0
    3.5850   57.8850   75.6340 O   0  0  0  0  0  0  0  0  0  0  0  0
    1.7300   57.0790   74.3530 C   0  0  0  0  0  0  0  0  0  0  0  0
    0.5320   57.3200   73.7020 C   0  0  0  0  0  0  0  0  0  0  0  0
   -0.2650   56.1440   73.5700 C   0  0  0  0  0  0  0  0  0  0  0  0
    0.3460   55.0440   74.1250 C   0  0  0  0  0  0  0  0  0  0  0  0
    1.8670   55.4280   74.8020 S   0  0  0  0  0  0  0  0  0  0  0  0
    3.7490   62.5640   71.5240 O   0  0  0  0  0  0  0  0  0  0  0  0
    4.2400   62.3990   70.1730 C   0  0  0  0  0  0  0  0  0  0  0  0
    2.0010   62.7480   69.4810 O   0  0  0  0  0  1  0  0  0  0  0  0
    3.2060   62.7710   69.0870 C   0  0  0  0  0  0  0  0  0  0  0  0
    3.6630   63.0470   67.9410 O   0  0  0  0  0  0  0  0  0  0  0  0
    4.6484   60.0752   70.9975 H   0  0  0  0  0  0  0  0  0  0  0  0
    4.2071   58.0827   72.4291 H   0  0  0  0  0  0  0  0  0  0  0  0
    0.2283   58.3088   73.3279 H   0  0  0  0  0  0  0  0  0  0  0  0
   -1.2507   56.1200   73.0824 H   0  0  0  0  0  0  0  0  0  0  0  0
   -0.0930   54.0354   74.1322 H   0  0  0  0  0  0  0  0  0  0  0  0
    5.1247   63.0398   70.0443 H   0  0  0  0  0  0  0  0  0  0  0  0
    4.4726   61.3317   70.0435 H   0  0  0  0  0  0  0  0  0  0  0  0
  2  1  2  0
  3  2  1  0
  4  3  2  0
  5  4  1  0
  6  5  2  0
  6  1  1  0
  7  6  1  0
  8  5  1  0
  9  4  1  0
 10  9  2  0
 11  9  1  0
 12 11  2  0
 13 12  1  0
 14 13  2  0
 15 14  1  0
 15 11  1  0
 16  1  1  0
 17 16  1  0
 19 17  1  0
 19 18  1  0
 20 19  2  0
  2 21  1  0
  3 22  1  0
 12 23  1  0
 13 24  1  0
 14 25  1  0
 17 26  1  0
 17 27  1  0
M  CHG  1  18  -1
M  END
>  <score>  (9) 
-6.248

$$$$
