=
     RDKit          3D

 29 30  0  0  0  0  0  0  0  0999 V2000
    3.0240   68.3190   64.8300 C   0  0  0  0  0  0  0  0  0  0  0  0
    4.1560   68.4410   63.7950 C   0  0  0  0  0  0  0  0  0  0  0  0
    4.8310   69.4550   63.6200 O   0  0  0  0  0  0  0  0  0  0  0  0
    4.3780   67.3620   62.9850 N   0  0  0  0  0  0  0  0  0  0  0  0
    4.1310   66.0780   63.3410 C   0  0  0  0  0  0  0  0  0  0  0  0
    4.6890   65.1390   62.7820 O   0  0  0  0  0  0  0  0  0  0  0  0
    3.2840   65.8850   64.3820 N   0  0  0  0  0  0  0  0  0  0  0  0
    2.7750   66.8470   65.2090 C   0  0  0  0  0  0  0  0  0  0  0  0
    2.0940   66.4940   66.1730 O   0  0  0  0  0  0  0  0  0  0  0  0
    3.3290   69.0990   66.1280 C   0  0  0  0  0  0  0  0  0  0  0  0
    4.6370   69.5340   66.4180 C   0  0  0  0  0  0  0  0  0  0  0  0
    4.9340   70.2050   67.6080 C   0  0  0  0  0  0  0  0  0  0  0  0
    3.9350   70.4370   68.5460 C   0  0  0  0  0  0  0  0  0  0  0  0
    2.6430   69.9890   68.3010 C   0  0  0  0  0  0  0  0  0  0  0  0
    2.3450   69.3200   67.1100 C   0  0  0  0  0  0  0  0  0  0  0  0
    1.8000   68.7250   62.5540 C   0  0  0  0  0  0  0  0  0  0  0  0
    1.7240   68.7570   64.0780 C   0  0  0  0  0  0  0  0  0  0  0  0
    4.7575   67.5364   62.0435 H   0  0  0  0  0  0  0  0  0  0  0  0
    2.9945   64.9143   64.5687 H   0  0  0  0  0  0  0  0  0  0  0  0
    5.4416   69.3417   65.6930 H   0  0  0  0  0  0  0  0  0  0  0  0
    5.9603   70.5500   67.8023 H   0  0  0  0  0  0  0  0  0  0  0  0
    4.1663   70.9730   69.4783 H   0  0  0  0  0  0  0  0  0  0  0  0
    1.8523   70.1611   69.0461 H   0  0  0  0  0  0  0  0  0  0  0  0
    1.3205   68.9589   66.9368 H   0  0  0  0  0  0  0  0  0  0  0  0
    2.7727   68.3154   62.2439 H   0  0  0  0  0  0  0  0  0  0  0  0
    0.9925   68.0905   62.1598 H   0  0  0  0  0  0  0  0  0  0  0  0
    1.6896   69.7460   62.1598 H   0  0  0  0  0  0  0  0  0  0  0  0
    1.4874   69.7870   64.3833 H   0  0  0  0  0  0  0  0  0  0  0  0
    0.9541   68.0222   64.3559 H   0  0  0  0  0  0  0  0  0  0  0  0
  2  1  1  0
  3  2  2  0
  4  2  1  0
  5  4  1  0
  6  5  2  0
  7  5  1  0
  8  7  1  0
  8  1  1  0
  9  8  2  0
 10  1  1  0
 11 10  2  0
 12 11  1  0
 13 12  2  0
 14 13  1  0
 15 14  2  0
 15 10  1  0
 17 16  1  0
 17  1  1  0
  4 18  1  0
  7 19  1  0
 11 20  1  0
 12 21  1  0
 13 22  1  0
 14 23  1  0
 15 24  1  0
 16 25  1  0
 16 26  1  0
 16 27  1  0
 17 28  1  0
 17 29  1  0
M  END
>  <score>  (1) 
-9.496

$$$$
=
     RDKit          3D

 29 30  0  0  0  0  0  0  0  0999 V2000
    1.5630   67.8990   65.2450 C   0  0  0  0  0  0  0  0  0  0  0  0
    0.8230   67.5550   66.5500 C   0  0  0  0  0  0  0  0  0  0  0  0
    1.3800   67.2330   67.6000 O   0  0  0  0  0  0  0  0  0  0  0  0
   -0.5420   67.5560   66.5090 N   0  0  0  0  0  0  0  0  0  0  0  0
   -1.2800   68.3340   65.6800 C   0  0  0  0  0  0  0  0  0  0  0  0
   -2.4500   68.6060   65.9270 O   0  0  0  0  0  0  0  0  0  0  0  0
   -0.6450   68.8420   64.5950 N   0  0  0  0  0  0  0  0  0  0  0  0
    0.6950   68.7840   64.3310 C   0  0  0  0  0  0  0  0  0  0  0  0
    1.1280   69.3830   63.3460 O   0  0  0  0  0  0  0  0  0  0  0  0
    2.8930   68.6440   65.5030 C   0  0  0  0  0  0  0  0  0  0  0  0
    3.9060   68.6710   64.5250 C   0  0  0  0  0  0  0  0  0  0  0  0
    5.1290   69.3070   64.7610 C   0  0  0  0  0  0  0  0  0  0  0  0
    5.3750   69.9120   65.9880 C   0  0  0  0  0  0  0  0  0  0  0  0
    4.4050   69.8720   66.9820 C   0  0  0  0  0  0  0  0  0  0  0  0
    3.1810   69.2380   66.7460 C   0  0  0  0  0  0  0  0  0  0  0  0
    2.8500   65.6470   64.9100 C   0  0  0  0  0  0  0  0  0  0  0  0
    1.6970   66.5460   64.4720 C   0  0  0  0  0  0  0  0  0  0  0  0
   -1.0434   66.9244   67.1498 H   0  0  0  0  0  0  0  0  0  0  0  0
   -1.2329   69.3209   63.8979 H   0  0  0  0  0  0  0  0  0  0  0  0
    3.7317   68.1817   63.5554 H   0  0  0  0  0  0  0  0  0  0  0  0
    5.8975   69.3285   63.9743 H   0  0  0  0  0  0  0  0  0  0  0  0
    6.3332   70.4201   66.1712 H   0  0  0  0  0  0  0  0  0  0  0  0
    4.6005   70.3406   67.9578 H   0  0  0  0  0  0  0  0  0  0  0  0
    2.4286   69.2029   67.5476 H   0  0  0  0  0  0  0  0  0  0  0  0
    2.8923   65.6140   66.0087 H   0  0  0  0  0  0  0  0  0  0  0  0
    2.6921   64.6312   64.5185 H   0  0  0  0  0  0  0  0  0  0  0  0
    3.7966   66.0478   64.5185 H   0  0  0  0  0  0  0  0  0  0  0  0
    1.8350   66.7778   63.4056 H   0  0  0  0  0  0  0  0  0  0  0  0
    0.7774   65.9830   64.6897 H   0  0  0  0  0  0  0  0  0  0  0  0
  2  1  1  0
  3  2  2  0
  4  2  1  0
  5  4  1  0
  6  5  2  0
  7  5  1  0
  8  7  1  0
  8  1  1  0
  9  8  2  0
 10  1  1  0
 11 10  2  0
 12 11  1  0
 13 12  2  0
 14 13  1  0
 15 14  2  0
 15 10  1  0
 17 16  1  0
 17  1  1  0
  4 18  1  0
  7 19  1  0
 11 20  1  0
 12 21  1  0
 13 22  1  0
 14 23  1  0
 15 24  1  0
 16 25  1  0
 16 26  1  0
 16 27  1  0
 17 28  1  0
 17 29  1  0
M  END
>  <score>  (2) 
-9.359

$$$$
=
     RDKit          3D

 29 30  0  0  0  0  0  0  0  0999 V2000
    3.7150   68.2090   64.1000 C   0  0  0  0  0  0  0  0  0  0  0  0
    2.3530   68.6210   63.5140 C   0  0  0  0  0  0  0  0  0  0  0  0
    1.3740   68.9400   64.1900 O   0  0  0  0  0  0  0  0  0  0  0  0
    2.2190   68.5710   62.1550 N   0  0  0  0  0  0  0  0  0  0  0  0
    3.2390   68.7500   61.2810 C   0  0  0  0  0  0  0  0  0  0  0  0
    3.0370   69.0880   60.1190 O   0  0  0  0  0  0  0  0  0  0  0  0
    4.4950   68.5930   61.7690 N   0  0  0  0  0  0  0  0  0  0  0  0
    4.8480   68.4290   63.0790 C   0  0  0  0  0  0  0  0  0  0  0  0
    6.0450   68.3990   63.3680 O   0  0  0  0  0  0  0  0  0  0  0  0
    4.0690   69.0020   65.3780 C   0  0  0  0  0  0  0  0  0  0  0  0
    5.3460   69.5720   65.5440 C   0  0  0  0  0  0  0  0  0  0  0  0
    5.6920   70.2570   66.7130 C   0  0  0  0  0  0  0  0  0  0  0  0
    4.7760   70.3690   67.7530 C   0  0  0  0  0  0  0  0  0  0  0  0
    3.5190   69.7890   67.6280 C   0  0  0  0  0  0  0  0  0  0  0  0
    3.1720   69.1050   66.4590 C   0  0  0  0  0  0  0  0  0  0  0  0
    2.3200   66.1180   64.8220 C   0  0  0  0  0  0  0  0  0  0  0  0
    3.6410   66.6570   64.2770 C   0  0  0  0  0  0  0  0  0  0  0  0
    1.2819   68.3852   61.7700 H   0  0  0  0  0  0  0  0  0  0  0  0
    5.2617   68.5979   61.0812 H   0  0  0  0  0  0  0  0  0  0  0  0
    6.0872   69.4764   64.7368 H   0  0  0  0  0  0  0  0  0  0  0  0
    6.6906   70.7080   66.8099 H   0  0  0  0  0  0  0  0  0  0  0  0
    5.0447   70.9138   68.6700 H   0  0  0  0  0  0  0  0  0  0  0  0
    2.7945   69.8684   68.4519 H   0  0  0  0  0  0  0  0  0  0  0  0
    2.1790   68.6381   66.3820 H   0  0  0  0  0  0  0  0  0  0  0  0
    2.3455   66.1284   65.9217 H   0  0  0  0  0  0  0  0  0  0  0  0
    1.4922   66.7503   64.4684 H   0  0  0  0  0  0  0  0  0  0  0  0
    2.1708   65.0871   64.4684 H   0  0  0  0  0  0  0  0  0  0  0  0
    4.4408   66.3567   64.9699 H   0  0  0  0  0  0  0  0  0  0  0  0
    3.7456   66.2333   63.2673 H   0  0  0  0  0  0  0  0  0  0  0  0
  2  1  1  0
  3  2  2  0
  4  2  1  0
  5  4  1  0
  6  5  2  0
  7  5  1  0
  8  7  1  0
  8  1  1  0
  9  8  2  0
 10  1  1  0
 11 10  2  0
 12 11  1  0
 13 12  2  0
 14 13  1  0
 15 14  2  0
 15 10  1  0
 17 16  1  0
 17  1  1  0
  4 18  1  0
  7 19  1  0
 11 20  1  0
 12 21  1  0
 13 22  1  0
 14 23  1  0
 15 24  1  0
 16 25  1  0
 16 26  1  0
 16 27  1  0
 17 28  1  0
 17 29  1  0
M  END
>  <score>  (3) 
-9.337

$$$$
=
     RDKit          3D

 29 30  0  0  0  0  0  0  0  0999 V2000
    3.0690   67.3780   63.9590 C   0  0  0  0  0  0  0  0  0  0  0  0
    2.4690   66.1120   64.5970 C   0  0  0  0  0  0  0  0  0  0  0  0
    1.3720   66.0680   65.1530 O   0  0  0  0  0  0  0  0  0  0  0  0
    3.2430   64.9860   64.5890 N   0  0  0  0  0  0  0  0  0  0  0  0
    4.1700   64.7030   63.6420 C   0  0  0  0  0  0  0  0  0  0  0  0
    4.5490   63.5550   63.4370 O   0  0  0  0  0  0  0  0  0  0  0  0
    4.6150   65.7440   62.8950 N   0  0  0  0  0  0  0  0  0  0  0  0
    4.1160   67.0160   62.8880 C   0  0  0  0  0  0  0  0  0  0  0  0
    4.5700   67.8230   62.0750 O   0  0  0  0  0  0  0  0  0  0  0  0
    1.9940   68.2640   63.2910 C   0  0  0  0  0  0  0  0  0  0  0  0
    0.8070   68.5960   63.9730 C   0  0  0  0  0  0  0  0  0  0  0  0
   -0.1920   69.3630   63.3660 C   0  0  0  0  0  0  0  0  0  0  0  0
   -0.0380   69.7980   62.0550 C   0  0  0  0  0  0  0  0  0  0  0  0
    1.1090   69.4580   61.3480 C   0  0  0  0  0  0  0  0  0  0  0  0
    2.1090   68.6920   61.9550 C   0  0  0  0  0  0  0  0  0  0  0  0
    4.4030   69.4730   64.7800 C   0  0  0  0  0  0  0  0  0  0  0  0
    3.8910   68.0690   65.0950 C   0  0  0  0  0  0  0  0  0  0  0  0
    3.1133   64.3076   65.3531 H   0  0  0  0  0  0  0  0  0  0  0  0
    5.4109   65.5564   62.2687 H   0  0  0  0  0  0  0  0  0  0  0  0
    0.6630   68.2443   65.0053 H   0  0  0  0  0  0  0  0  0  0  0  0
   -1.1017   69.6227   63.9272 H   0  0  0  0  0  0  0  0  0  0  0  0
   -0.8200   70.4082   61.5795 H   0  0  0  0  0  0  0  0  0  0  0  0
    1.2307   69.7926   60.3072 H   0  0  0  0  0  0  0  0  0  0  0  0
    3.0038   68.4183   61.3767 H   0  0  0  0  0  0  0  0  0  0  0  0
    4.5992   70.0110   65.7192 H   0  0  0  0  0  0  0  0  0  0  0  0
    5.3331   69.4019   64.1970 H   0  0  0  0  0  0  0  0  0  0  0  0
    3.6455   70.0173   64.1970 H   0  0  0  0  0  0  0  0  0  0  0  0
    4.7610   67.4337   65.3173 H   0  0  0  0  0  0  0  0  0  0  0  0
    3.1967   68.1850   65.9403 H   0  0  0  0  0  0  0  0  0  0  0  0
  2  1  1  0
  3  2  2  0
  4  2  1  0
  5  4  1  0
  6  5  2  0
  7  5  1  0
  8  7  1  0
  8  1  1  0
  9  8  2  0
 10  1  1  0
 11 10  2  0
 12 11  1  0
 13 12  2  0
 14 13  1  0
 15 14  2  0
 15 10  1  0
 17 16  1  0
 17  1  1  0
  4 18  1  0
  7 19  1  0
 11 20  1  0
 12 21  1  0
 13 22  1  0
 14 23  1  0
 15 24  1  0
 16 25  1  0
 16 26  1  0
 16 27  1  0
 17 28  1  0
 17 29  1  0
M  END
>  <score>  (4) 
-8.929

$$$$
=
     RDKit          3D

 29 30  0  0  0  0  0  0  0  0999 V2000
    0.7510   68.6120   67.4760 C   0  0  0  0  0  0  0  0  0  0  0  0
   -0.3220   69.7150   67.4900 C   0  0  0  0  0  0  0  0  0  0  0  0
   -0.2060   70.7890   68.0810 O   0  0  0  0  0  0  0  0  0  0  0  0
   -1.4960   69.4480   66.8450 N   0  0  0  0  0  0  0  0  0  0  0  0
   -1.6100   68.6220   65.7760 C   0  0  0  0  0  0  0  0  0  0  0  0
   -2.5540   68.7070   64.9980 O   0  0  0  0  0  0  0  0  0  0  0  0
   -0.6010   67.7380   65.5790 N   0  0  0  0  0  0  0  0  0  0  0  0
    0.5900   67.6960   66.2480 C   0  0  0  0  0  0  0  0  0  0  0  0
    1.4450   66.8890   65.8790 O   0  0  0  0  0  0  0  0  0  0  0  0
    2.1850   69.1870   67.4550 C   0  0  0  0  0  0  0  0  0  0  0  0
    2.9860   69.0850   66.3010 C   0  0  0  0  0  0  0  0  0  0  0  0
    4.2990   69.5650   66.2810 C   0  0  0  0  0  0  0  0  0  0  0  0
    4.8490   70.1390   67.4220 C   0  0  0  0  0  0  0  0  0  0  0  0
    4.0910   70.2240   68.5830 C   0  0  0  0  0  0  0  0  0  0  0  0
    2.7780   69.7460   68.6030 C   0  0  0  0  0  0  0  0  0  0  0  0
    1.5370   66.7510   69.1390 C   0  0  0  0  0  0  0  0  0  0  0  0
    0.4190   67.6930   68.6980 C   0  0  0  0  0  0  0  0  0  0  0  0
   -2.3510   69.9043   67.1937 H   0  0  0  0  0  0  0  0  0  0  0  0
   -0.7471   67.0249   64.8503 H   0  0  0  0  0  0  0  0  0  0  0  0
    2.5698   68.6178   65.3963 H   0  0  0  0  0  0  0  0  0  0  0  0
    4.8978   69.4885   65.3614 H   0  0  0  0  0  0  0  0  0  0  0  0
    5.8793   70.5239   67.4053 H   0  0  0  0  0  0  0  0  0  0  0  0
    4.5259   70.6692   69.4900 H   0  0  0  0  0  0  0  0  0  0  0  0
    2.1961   69.8077   69.5344 H   0  0  0  0  0  0  0  0  0  0  0  0
    1.5764   66.7178   70.2378 H   0  0  0  0  0  0  0  0  0  0  0  0
    1.3413   65.7415   68.7484 H   0  0  0  0  0  0  0  0  0  0  0  0
    2.4987   67.1152   68.7484 H   0  0  0  0  0  0  0  0  0  0  0  0
   -0.4549   67.0799   68.4327 H   0  0  0  0  0  0  0  0  0  0  0  0
    0.2457   68.3717   69.5462 H   0  0  0  0  0  0  0  0  0  0  0  0
  2  1  1  0
  3  2  2  0
  4  2  1  0
  5  4  1  0
  6  5  2  0
  7  5  1  0
  8  7  1  0
  8  1  1  0
  9  8  2  0
 10  1  1  0
 11 10  2  0
 12 11  1  0
 13 12  2  0
 14 13  1  0
 15 14  2  0
 15 10  1  0
 17 16  1  0
 17  1  1  0
  4 18  1  0
  7 19  1  0
 11 20  1  0
 12 21  1  0
 13 22  1  0
 14 23  1  0
 15 24  1  0
 16 25  1  0
 16 26  1  0
 16 27  1  0
 17 28  1  0
 17 29  1  0
M  END
>  <score>  (5) 
-8.65

$$$$
=
     RDKit          3D

 29 30  0  0  0  0  0  0  0  0999 V2000
    2.2340   68.1250   64.5950 C   0  0  0  0  0  0  0  0  0  0  0  0
    0.8170   68.4960   65.0690 C   0  0  0  0  0  0  0  0  0  0  0  0
    0.5070   68.6930   66.2440 O   0  0  0  0  0  0  0  0  0  0  0  0
   -0.1620   68.5520   64.1170 N   0  0  0  0  0  0  0  0  0  0  0  0
    0.0540   68.8700   62.8170 C   0  0  0  0  0  0  0  0  0  0  0  0
   -0.8470   69.2920   62.1010 O   0  0  0  0  0  0  0  0  0  0  0  0
    1.3280   68.7540   62.3650 N   0  0  0  0  0  0  0  0  0  0  0  0
    2.4410   68.5020   63.1160 C   0  0  0  0  0  0  0  0  0  0  0  0
    3.5420   68.5260   62.5640 O   0  0  0  0  0  0  0  0  0  0  0  0
    3.3330   68.8280   65.4240 C   0  0  0  0  0  0  0  0  0  0  0  0
    3.0960   69.2110   66.7580 C   0  0  0  0  0  0  0  0  0  0  0  0
    4.0670   69.8850   67.5060 C   0  0  0  0  0  0  0  0  0  0  0  0
    5.2900   70.2090   66.9290 C   0  0  0  0  0  0  0  0  0  0  0  0
    5.5380   69.8710   65.6050 C   0  0  0  0  0  0  0  0  0  0  0  0
    4.5670   69.1960   64.8570 C   0  0  0  0  0  0  0  0  0  0  0  0
    3.6320   65.9390   64.2640 C   0  0  0  0  0  0  0  0  0  0  0  0
    2.2820   66.5620   64.6130 C   0  0  0  0  0  0  0  0  0  0  0  0
   -1.1272   68.3386   64.4062 H   0  0  0  0  0  0  0  0  0  0  0  0
    1.4707   68.8676   61.3513 H   0  0  0  0  0  0  0  0  0  0  0  0
    2.1268   68.9752   67.2218 H   0  0  0  0  0  0  0  0  0  0  0  0
    3.8629   70.1590   68.5516 H   0  0  0  0  0  0  0  0  0  0  0  0
    6.0579   70.7309   67.5189 H   0  0  0  0  0  0  0  0  0  0  0  0
    6.5008   70.1347   65.1429 H   0  0  0  0  0  0  0  0  0  0  0  0
    4.7724   68.9482   63.8051 H   0  0  0  0  0  0  0  0  0  0  0  0
    4.1713   65.6901   65.1899 H   0  0  0  0  0  0  0  0  0  0  0  0
    3.4722   65.0236   63.6754 H   0  0  0  0  0  0  0  0  0  0  0  0
    4.2249   66.6546   63.6754 H   0  0  0  0  0  0  0  0  0  0  0  0
    1.5413   66.1923   63.8886 H   0  0  0  0  0  0  0  0  0  0  0  0
    2.0740   66.2666   65.6520 H   0  0  0  0  0  0  0  0  0  0  0  0
  2  1  1  0
  3  2  2  0
  4  2  1  0
  5  4  1  0
  6  5  2  0
  7  5  1  0
  8  7  1  0
  8  1  1  0
  9  8  2  0
 10  1  1  0
 11 10  2  0
 12 11  1  0
 13 12  2  0
 14 13  1  0
 15 14  2  0
 15 10  1  0
 17 16  1  0
 17  1  1  0
  4 18  1  0
  7 19  1  0
 11 20  1  0
 12 21  1  0
 13 22  1  0
 14 23  1  0
 15 24  1  0
 16 25  1  0
 16 26  1  0
 16 27  1  0
 17 28  1  0
 17 29  1  0
M  END
>  <score>  (6) 
-8.64

$$$$
=
     RDKit          3D

 29 30  0  0  0  0  0  0  0  0999 V2000
    3.0610   68.1150   63.4040 C   0  0  0  0  0  0  0  0  0  0  0  0
    3.0190   68.2000   61.8670 C   0  0  0  0  0  0  0  0  0  0  0  0
    3.7850   67.5960   61.1170 O   0  0  0  0  0  0  0  0  0  0  0  0
    2.1030   69.0510   61.3160 N   0  0  0  0  0  0  0  0  0  0  0  0
    0.9170   69.3710   61.8900 C   0  0  0  0  0  0  0  0  0  0  0  0
   -0.0230   69.7960   61.2260 O   0  0  0  0  0  0  0  0  0  0  0  0
    0.8030   69.1430   63.2220 N   0  0  0  0  0  0  0  0  0  0  0  0
    1.6970   68.4830   64.0170 C   0  0  0  0  0  0  0  0  0  0  0  0
    1.3970   68.2740   65.1930 O   0  0  0  0  0  0  0  0  0  0  0  0
    3.4410   66.7030   63.9030 C   0  0  0  0  0  0  0  0  0  0  0  0
    4.6580   66.1060   63.5210 C   0  0  0  0  0  0  0  0  0  0  0  0
    4.9960   64.8130   63.9320 C   0  0  0  0  0  0  0  0  0  0  0  0
    4.1140   64.0780   64.7170 C   0  0  0  0  0  0  0  0  0  0  0  0
    2.8930   64.6310   65.0820 C   0  0  0  0  0  0  0  0  0  0  0  0
    2.5560   65.9250   64.6720 C   0  0  0  0  0  0  0  0  0  0  0  0
    4.4690   69.2100   65.3170 C   0  0  0  0  0  0  0  0  0  0  0  0
    4.0200   69.2640   63.8590 C   0  0  0  0  0  0  0  0  0  0  0  0
    2.3280   69.4770   60.4056 H   0  0  0  0  0  0  0  0  0  0  0  0
   -0.0448   69.5046   63.6817 H   0  0  0  0  0  0  0  0  0  0  0  0
    5.3576   66.6690   62.8857 H   0  0  0  0  0  0  0  0  0  0  0  0
    5.9607   64.3765   63.6341 H   0  0  0  0  0  0  0  0  0  0  0  0
    4.3820   63.0636   65.0473 H   0  0  0  0  0  0  0  0  0  0  0  0
    2.1891   64.0494   65.6954 H   0  0  0  0  0  0  0  0  0  0  0  0
    1.5791   66.3431   64.9565 H   0  0  0  0  0  0  0  0  0  0  0  0
    3.5934   69.3153   65.9744 H   0  0  0  0  0  0  0  0  0  0  0  0
    4.9613   68.2462   65.5136 H   0  0  0  0  0  0  0  0  0  0  0  0
    5.1758   70.0296   65.5136 H   0  0  0  0  0  0  0  0  0  0  0  0
    3.5011   70.2208   63.6999 H   0  0  0  0  0  0  0  0  0  0  0  0
    4.9342   69.1485   63.2582 H   0  0  0  0  0  0  0  0  0  0  0  0
  2  1  1  0
  3  2  2  0
  4  2  1  0
  5  4  1  0
  6  5  2  0
  7  5  1  0
  8  7  1  0
  8  1  1  0
  9  8  2  0
 10  1  1  0
 11 10  2  0
 12 11  1  0
 13 12  2  0
 14 13  1  0
 15 14  2  0
 15 10  1  0
 17 16  1  0
 17  1  1  0
  4 18  1  0
  7 19  1  0
 11 20  1  0
 12 21  1  0
 13 22  1  0
 14 23  1  0
 15 24  1  0
 16 25  1  0
 16 26  1  0
 16 27  1  0
 17 28  1  0
 17 29  1  0
M  END
>  <score>  (7) 
-8.438

$$$$
=
     RDKit          3D

 29 30  0  0  0  0  0  0  0  0999 V2000
    0.8890   68.2570   66.5190 C   0  0  0  0  0  0  0  0  0  0  0  0
    1.4020   67.3150   65.4150 C   0  0  0  0  0  0  0  0  0  0  0  0
    2.1330   66.3450   65.6140 O   0  0  0  0  0  0  0  0  0  0  0  0
    1.0610   67.6220   64.1280 N   0  0  0  0  0  0  0  0  0  0  0  0
   -0.0740   68.2730   63.7730 C   0  0  0  0  0  0  0  0  0  0  0  0
   -0.5370   68.1850   62.6410 O   0  0  0  0  0  0  0  0  0  0  0  0
   -0.7020   68.9780   64.7470 N   0  0  0  0  0  0  0  0  0  0  0  0
   -0.4010   68.9750   66.0800 C   0  0  0  0  0  0  0  0  0  0  0  0
   -1.1340   69.5970   66.8500 O   0  0  0  0  0  0  0  0  0  0  0  0
    0.5900   67.5070   67.8370 C   0  0  0  0  0  0  0  0  0  0  0  0
    1.5430   67.4620   68.8730 C   0  0  0  0  0  0  0  0  0  0  0  0
    1.3010   66.7530   70.0540 C   0  0  0  0  0  0  0  0  0  0  0  0
    0.1100   66.0560   70.2180 C   0  0  0  0  0  0  0  0  0  0  0  0
   -0.8340   66.0580   69.1990 C   0  0  0  0  0  0  0  0  0  0  0  0
   -0.5940   66.7680   68.0180 C   0  0  0  0  0  0  0  0  0  0  0  0
    3.3470   69.0460   66.1010 C   0  0  0  0  0  0  0  0  0  0  0  0
    1.9560   69.3940   66.6260 C   0  0  0  0  0  0  0  0  0  0  0  0
    1.7087   67.3404   63.3783 H   0  0  0  0  0  0  0  0  0  0  0  0
   -1.4861   69.5770   64.4516 H   0  0  0  0  0  0  0  0  0  0  0  0
    2.4972   67.9954   68.7508 H   0  0  0  0  0  0  0  0  0  0  0  0
    2.0551   66.7471   70.8548 H   0  0  0  0  0  0  0  0  0  0  0  0
   -0.0842   65.5054   71.1502 H   0  0  0  0  0  0  0  0  0  0  0  0
   -1.7736   65.4993   69.3213 H   0  0  0  0  0  0  0  0  0  0  0  0
   -1.3454   66.7484   67.2149 H   0  0  0  0  0  0  0  0  0  0  0  0
    4.0269   68.8759   66.9488 H   0  0  0  0  0  0  0  0  0  0  0  0
    3.2901   68.1344   65.4880 H   0  0  0  0  0  0  0  0  0  0  0  0
    3.7260   69.8770   65.4880 H   0  0  0  0  0  0  0  0  0  0  0  0
    2.0535   69.6676   67.6870 H   0  0  0  0  0  0  0  0  0  0  0  0
    1.5895   70.2112   65.9874 H   0  0  0  0  0  0  0  0  0  0  0  0
  2  1  1  0
  3  2  2  0
  4  2  1  0
  5  4  1  0
  6  5  2  0
  7  5  1  0
  8  7  1  0
  8  1  1  0
  9  8  2  0
 10  1  1  0
 11 10  2  0
 12 11  1  0
 13 12  2  0
 14 13  1  0
 15 14  2  0
 15 10  1  0
 17 16  1  0
 17  1  1  0
  4 18  1  0
  7 19  1  0
 11 20  1  0
 12 21  1  0
 13 22  1  0
 14 23  1  0
 15 24  1  0
 16 25  1  0
 16 26  1  0
 16 27  1  0
 17 28  1  0
 17 29  1  0
M  END
>  <score>  (8) 
-8.432

$$$$
=
     RDKit          3D

 29 30  0  0  0  0  0  0  0  0999 V2000
    2.6170   67.8830   64.9430 C   0  0  0  0  0  0  0  0  0  0  0  0
    1.3680   67.7270   65.8280 C   0  0  0  0  0  0  0  0  0  0  0  0
    0.5580   66.8050   65.7300 O   0  0  0  0  0  0  0  0  0  0  0  0
    1.1250   68.7150   66.7410 N   0  0  0  0  0  0  0  0  0  0  0  0
    2.0890   69.4670   67.3260 C   0  0  0  0  0  0  0  0  0  0  0  0
    1.8960   70.0440   68.3910 O   0  0  0  0  0  0  0  0  0  0  0  0
    3.2950   69.5040   66.7050 N   0  0  0  0  0  0  0  0  0  0  0  0
    3.6890   68.7410   65.6410 C   0  0  0  0  0  0  0  0  0  0  0  0
    4.8550   68.8260   65.2560 O   0  0  0  0  0  0  0  0  0  0  0  0
    3.2570   66.5220   64.5860 C   0  0  0  0  0  0  0  0  0  0  0  0
    3.9940   66.3620   63.3970 C   0  0  0  0  0  0  0  0  0  0  0  0
    4.5440   65.1260   63.0420 C   0  0  0  0  0  0  0  0  0  0  0  0
    4.3510   64.0170   63.8570 C   0  0  0  0  0  0  0  0  0  0  0  0
    3.6000   64.1400   65.0200 C   0  0  0  0  0  0  0  0  0  0  0  0
    3.0520   65.3760   65.3770 C   0  0  0  0  0  0  0  0  0  0  0  0
    0.8240   68.3420   63.0950 C   0  0  0  0  0  0  0  0  0  0  0  0
    2.1570   68.7440   63.7210 C   0  0  0  0  0  0  0  0  0  0  0  0
    0.1457   68.9000   67.0012 H   0  0  0  0  0  0  0  0  0  0  0  0
    3.9840   70.1755   67.0728 H   0  0  0  0  0  0  0  0  0  0  0  0
    4.1403   67.2271   62.7335 H   0  0  0  0  0  0  0  0  0  0  0  0
    5.1303   65.0316   62.1161 H   0  0  0  0  0  0  0  0  0  0  0  0
    4.7905   63.0466   63.5830 H   0  0  0  0  0  0  0  0  0  0  0  0
    3.4361   63.2619   65.6619 H   0  0  0  0  0  0  0  0  0  0  0  0
    2.4491   65.4541   66.2937 H   0  0  0  0  0  0  0  0  0  0  0  0
    0.0967   68.1227   63.8905 H   0  0  0  0  0  0  0  0  0  0  0  0
    0.4481   69.1667   62.4717 H   0  0  0  0  0  0  0  0  0  0  0  0
    0.9667   67.4469   62.4717 H   0  0  0  0  0  0  0  0  0  0  0  0
    2.9319   68.6696   62.9438 H   0  0  0  0  0  0  0  0  0  0  0  0
    2.0121   69.7632   64.1087 H   0  0  0  0  0  0  0  0  0  0  0  0
  2  1  1  0
  3  2  2  0
  4  2  1  0
  5  4  1  0
  6  5  2  0
  7  5  1  0
  8  7  1  0
  8  1  1  0
  9  8  2  0
 10  1  1  0
 11 10  2  0
 12 11  1  0
 13 12  2  0
 14 13  1  0
 15 14  2  0
 15 10  1  0
 17 16  1  0
 17  1  1  0
  4 18  1  0
  7 19  1  0
 11 20  1  0
 12 21  1  0
 13 22  1  0
 14 23  1  0
 15 24  1  0
 16 25  1  0
 16 26  1  0
 16 27  1  0
 17 28  1  0
 17 29  1  0
M  END
>  <score>  (9) 
-8.188

$$$$
