=
     RDKit          3D

 54 56  0  0  0  0  0  0  0  0999 V2000
    0.4230   63.8980   70.6760 C   0  0  2  0  0  0  0  0  0  0  0  0
   -0.1100   63.1270   71.9100 C   0  0  0  0  0  0  0  0  0  0  0  0
    0.7570   61.9120   71.9990 C   0  0  0  0  0  0  0  0  0  0  0  0
    1.8170   61.9520   71.1070 C   0  0  0  0  0  0  0  0  0  0  0  0
    1.7140   63.1750   70.3240 C   0  0  0  0  0  0  0  0  0  0  0  0
    2.5490   63.5140   69.5050 O   0  0  0  0  0  0  0  0  0  0  0  0
    2.7770   60.9600   71.0260 C   0  0  0  0  0  0  0  0  0  0  0  0
    2.6550   59.8670   71.8900 C   0  0  0  0  0  0  0  0  0  0  0  0
    1.5730   59.8050   72.8130 C   0  0  0  0  0  0  0  0  0  0  0  0
    0.6240   60.8380   72.8660 C   0  0  0  0  0  0  0  0  0  0  0  0
    1.5460   58.6930   73.6190 O   0  0  0  0  0  0  0  0  0  0  0  0
    0.4000   57.8560   73.5580 C   0  0  0  0  0  0  0  0  0  0  0  0
    3.5290   58.8090   71.9220 O   0  0  0  0  0  0  0  0  0  0  0  0
    3.4020   57.8150   70.9150 C   0  0  0  0  0  0  0  0  0  0  0  0
    0.6430   65.3820   70.9790 C   0  0  0  0  0  0  0  0  0  0  0  0
    0.0740   67.8830   67.4810 C   0  0  0  0  0  0  0  0  0  0  0  0
    1.2330   67.9930   68.2610 C   0  0  0  0  0  0  0  0  0  0  0  0
    1.4050   67.2010   69.3970 C   0  0  0  0  0  0  0  0  0  0  0  0
    0.4320   66.2700   69.7730 C   0  0  0  0  0  0  0  0  0  0  0  0
   -0.7230   66.1480   68.9920 C   0  0  0  0  0  0  0  0  0  0  0  0
   -0.9000   66.9460   67.8580 C   0  0  0  0  0  0  0  0  0  0  0  0
   -0.1140   68.7420   66.2610 C   0  0  0  0  0  0  0  0  0  0  0  0
    0.1890   68.0820   64.9250 N   0  0  1  0  0  4  0  0  0  0  0  0
   -0.2460   68.9260   63.7580 C   0  0  0  0  0  0  0  0  0  0  0  0
    2.5960   68.7510   64.8330 C   0  0  0  0  0  0  0  0  0  0  0  0
    1.6110   67.6000   64.7460 C   0  0  0  0  0  0  0  0  0  0  0  0
   -0.2895   63.9016   69.8380 H   0  0  0  0  0  0  0  0  0  0  0  0
   -0.0167   63.7382   72.8198 H   0  0  0  0  0  0  0  0  0  0  0  0
   -1.1760   62.8727   71.8146 H   0  0  0  0  0  0  0  0  0  0  0  0
    3.6071   61.0281   70.3075 H   0  0  0  0  0  0  0  0  0  0  0  0
   -0.2099   60.7963   73.5822 H   0  0  0  0  0  0  0  0  0  0  0  0
    0.0682   57.6137   74.5784 H   0  0  0  0  0  0  0  0  0  0  0  0
   -0.4076   58.3784   73.0242 H   0  0  0  0  0  0  0  0  0  0  0  0
    0.6519   56.9278   73.0242 H   0  0  0  0  0  0  0  0  0  0  0  0
    3.2761   56.8293   71.3866 H   0  0  0  0  0  0  0  0  0  0  0  0
    2.5249   58.0369   70.2893 H   0  0  0  0  0  0  0  0  0  0  0  0
    4.3067   57.8092   70.2893 H   0  0  0  0  0  0  0  0  0  0  0  0
   -0.0620   65.6871   71.7663 H   0  0  0  0  0  0  0  0  0  0  0  0
    1.6897   65.5011   71.2957 H   0  0  0  0  0  0  0  0  0  0  0  0
    2.0154   68.7112   67.9748 H   0  0  0  0  0  0  0  0  0  0  0  0
    2.3162   67.3104   70.0034 H   0  0  0  0  0  0  0  0  0  0  0  0
   -1.4972   65.4187   69.2726 H   0  0  0  0  0  0  0  0  0  0  0  0
   -1.8132   66.8382   67.2544 H   0  0  0  0  0  0  0  0  0  0  0  0
   -1.1626   69.0737   66.2418 H   0  0  0  0  0  0  0  0  0  0  0  0
    0.6162   69.5588   66.3594 H   0  0  0  0  0  0  0  0  0  0  0  0
   -0.3833   67.2258   64.9446 H   0  0  0  0  0  0  0  0  0  0  0  0
   -0.7206   69.8468   64.1281 H   0  0  0  0  0  0  0  0  0  0  0  0
    0.6306   69.1856   63.1463 H   0  0  0  0  0  0  0  0  0  0  0  0
   -0.9661   68.3627   63.1463 H   0  0  0  0  0  0  0  0  0  0  0  0
    2.7953   68.9839   65.8894 H   0  0  0  0  0  0  0  0  0  0  0  0
    3.5357   68.4677   64.3363 H   0  0  0  0  0  0  0  0  0  0  0  0
    2.1710   69.6357   64.3363 H   0  0  0  0  0  0  0  0  0  0  0  0
    1.7059   67.1204   63.7606 H   0  0  0  0  0  0  0  0  0  0  0  0
    1.8398   66.8844   65.5495 H   0  0  0  0  0  0  0  0  0  0  0  0
  2  1  1  0
  3  2  1  0
  4  3  2  0
  5  1  1  0
  5  4  1  0
  6  5  2  0
  7  4  1  0
  8  7  2  0
  9  8  1  0
 10  9  2  0
 10  3  1  0
 11  9  1  0
 12 11  1  0
 13  8  1  0
 14 13  1  0
 15  1  1  0
 17 16  2  0
 18 17  1  0
 19 15  1  0
 19 18  2  0
 20 19  1  0
 21 20  2  0
 21 16  1  0
 22 16  1  0
 23 22  1  0
 24 23  1  0
 26 25  1  0
 26 23  1  0
  1 27  1  6
  2 28  1  0
  2 29  1  0
  7 30  1  0
 10 31  1  0
 12 32  1  0
 12 33  1  0
 12 34  1  0
 14 35  1  0
 14 36  1  0
 14 37  1  0
 15 38  1  0
 15 39  1  0
 17 40  1  0
 18 41  1  0
 20 42  1  0
 21 43  1  0
 22 44  1  0
 22 45  1  0
 23 46  1  1
 24 47  1  0
 24 48  1  0
 24 49  1  0
 25 50  1  0
 25 51  1  0
 25 52  1  0
 26 53  1  0
 26 54  1  0
M  CHG  1  23   1
M  END
>  <score>  (1) 
-8.911

$$$$
=
     RDKit          3D

 54 56  0  0  0  0  0  0  0  0999 V2000
    0.3740   64.3060   70.6120 C   0  0  2  0  0  0  0  0  0  0  0  0
    0.1100   63.5380   71.9330 C   0  0  0  0  0  0  0  0  0  0  0  0
    1.2700   62.6050   72.0650 C   0  0  0  0  0  0  0  0  0  0  0  0
    2.2480   62.8380   71.1120 C   0  0  0  0  0  0  0  0  0  0  0  0
    1.7970   63.9150   70.2420 C   0  0  0  0  0  0  0  0  0  0  0  0
    2.4820   64.3840   69.3510 O   0  0  0  0  0  0  0  0  0  0  0  0
    3.4330   62.1270   71.0520 C   0  0  0  0  0  0  0  0  0  0  0  0
    3.6360   61.1240   72.0040 C   0  0  0  0  0  0  0  0  0  0  0  0
    2.6440   60.8670   72.9920 C   0  0  0  0  0  0  0  0  0  0  0  0
    1.4570   61.6170   73.0190 C   0  0  0  0  0  0  0  0  0  0  0  0
    2.9410   59.8640   73.8830 O   0  0  0  0  0  0  0  0  0  0  0  0
    2.4020   59.9570   75.1930 C   0  0  0  0  0  0  0  0  0  0  0  0
    4.7600   60.3370   72.0680 O   0  0  0  0  0  0  0  0  0  0  0  0
    5.9260   60.7950   71.3970 C   0  0  0  0  0  0  0  0  0  0  0  0
    0.2040   65.8170   70.7850 C   0  0  0  0  0  0  0  0  0  0  0  0
    0.0450   68.0050   67.0430 C   0  0  0  0  0  0  0  0  0  0  0  0
   -1.0180   67.1830   67.4390 C   0  0  0  0  0  0  0  0  0  0  0  0
   -0.9570   66.4660   68.6340 C   0  0  0  0  0  0  0  0  0  0  0  0
    0.1610   66.5620   69.4690 C   0  0  0  0  0  0  0  0  0  0  0  0
    1.2220   67.3900   69.0840 C   0  0  0  0  0  0  0  0  0  0  0  0
    1.1650   68.1040   67.8830 C   0  0  0  0  0  0  0  0  0  0  0  0
   -0.0200   68.7740   65.7520 C   0  0  0  0  0  0  0  0  0  0  0  0
    0.4030   68.0180   64.5020 N   0  0  1  0  0  4  0  0  0  0  0  0
   -0.0480   68.7010   63.2400 C   0  0  0  0  0  0  0  0  0  0  0  0
    2.5560   68.3720   63.2830 C   0  0  0  0  0  0  0  0  0  0  0  0
    1.8680   67.6520   64.4280 C   0  0  0  0  0  0  0  0  0  0  0  0
   -0.3440   64.0479   69.8196 H   0  0  0  0  0  0  0  0  0  0  0  0
    0.0715   64.2327   72.7850 H   0  0  0  0  0  0  0  0  0  0  0  0
   -0.8532   63.0069   71.9214 H   0  0  0  0  0  0  0  0  0  0  0  0
    4.1887   62.3433   70.2825 H   0  0  0  0  0  0  0  0  0  0  0  0
    0.6897   61.4239   73.7832 H   0  0  0  0  0  0  0  0  0  0  0  0
    3.2059   59.8183   75.9309 H   0  0  0  0  0  0  0  0  0  0  0  0
    1.9439   60.9474   75.3316 H   0  0  0  0  0  0  0  0  0  0  0  0
    1.6385   59.1773   75.3316 H   0  0  0  0  0  0  0  0  0  0  0  0
    6.6826   61.0922   72.1381 H   0  0  0  0  0  0  0  0  0  0  0  0
    6.3273   59.9877   70.7668 H   0  0  0  0  0  0  0  0  0  0  0  0
    5.6706   61.6596   70.7668 H   0  0  0  0  0  0  0  0  0  0  0  0
   -0.7360   66.0044   71.3246 H   0  0  0  0  0  0  0  0  0  0  0  0
    1.0781   66.1845   71.3425 H   0  0  0  0  0  0  0  0  0  0  0  0
   -1.9103   67.1021   66.8008 H   0  0  0  0  0  0  0  0  0  0  0  0
   -1.7975   65.8179   68.9229 H   0  0  0  0  0  0  0  0  0  0  0  0
    2.1071   67.4797   69.7310 H   0  0  0  0  0  0  0  0  0  0  0  0
    2.0069   68.7501   67.5935 H   0  0  0  0  0  0  0  0  0  0  0  0
   -1.0594   69.1046   65.6095 H   0  0  0  0  0  0  0  0  0  0  0  0
    0.7036   69.5954   65.8601 H   0  0  0  0  0  0  0  0  0  0  0  0
   -0.0928   67.1191   64.5857 H   0  0  0  0  0  0  0  0  0  0  0  0
   -0.6374   69.5936   63.4967 H   0  0  0  0  0  0  0  0  0  0  0  0
    0.8313   68.9993   62.6502 H   0  0  0  0  0  0  0  0  0  0  0  0
   -0.6677   68.0095   62.6502 H   0  0  0  0  0  0  0  0  0  0  0  0
    3.2629   69.1117   63.6869 H   0  0  0  0  0  0  0  0  0  0  0  0
    3.1013   67.6426   62.6660 H   0  0  0  0  0  0  0  0  0  0  0  0
    1.8026   68.8836   62.6660 H   0  0  0  0  0  0  0  0  0  0  0  0
    1.9594   66.5664   64.2759 H   0  0  0  0  0  0  0  0  0  0  0  0
    2.3505   67.9536   65.3694 H   0  0  0  0  0  0  0  0  0  0  0  0
  2  1  1  0
  3  2  1  0
  4  3  2  0
  5  1  1  0
  5  4  1  0
  6  5  2  0
  7  4  1  0
  8  7  2  0
  9  8  1  0
 10  9  2  0
 10  3  1  0
 11  9  1  0
 12 11  1  0
 13  8  1  0
 14 13  1  0
 15  1  1  0
 17 16  2  0
 18 17  1  0
 19 15  1  0
 19 18  2  0
 20 19  1  0
 21 20  2  0
 21 16  1  0
 22 16  1  0
 23 22  1  0
 24 23  1  0
 26 25  1  0
 26 23  1  0
  1 27  1  6
  2 28  1  0
  2 29  1  0
  7 30  1  0
 10 31  1  0
 12 32  1  0
 12 33  1  0
 12 34  1  0
 14 35  1  0
 14 36  1  0
 14 37  1  0
 15 38  1  0
 15 39  1  0
 17 40  1  0
 18 41  1  0
 20 42  1  0
 21 43  1  0
 22 44  1  0
 22 45  1  0
 23 46  1  1
 24 47  1  0
 24 48  1  0
 24 49  1  0
 25 50  1  0
 25 51  1  0
 25 52  1  0
 26 53  1  0
 26 54  1  0
M  CHG  1  23   1
M  END
>  <score>  (2) 
-8.212

$$$$
=
     RDKit          3D

 54 56  0  0  0  0  0  0  0  0999 V2000
    0.9890   65.0190   71.2470 C   0  0  2  0  0  0  0  0  0  0  0  0
    1.6790   64.1190   70.1910 C   0  0  0  0  0  0  0  0  0  0  0  0
    1.9350   62.8300   70.9040 C   0  0  0  0  0  0  0  0  0  0  0  0
    1.3430   62.7920   72.1560 C   0  0  0  0  0  0  0  0  0  0  0  0
    0.6850   64.0690   72.3950 C   0  0  0  0  0  0  0  0  0  0  0  0
    0.0210   64.3020   73.3890 O   0  0  0  0  0  0  0  0  0  0  0  0
    1.4070   61.6920   72.9920 C   0  0  0  0  0  0  0  0  0  0  0  0
    2.1120   60.5730   72.5370 C   0  0  0  0  0  0  0  0  0  0  0  0
    2.7280   60.5910   71.2550 C   0  0  0  0  0  0  0  0  0  0  0  0
    2.6330   61.7280   70.4360 C   0  0  0  0  0  0  0  0  0  0  0  0
    3.3930   59.4410   70.9010 O   0  0  0  0  0  0  0  0  0  0  0  0
    3.5890   59.1860   69.5180 C   0  0  0  0  0  0  0  0  0  0  0  0
    2.2610   59.4120   73.2560 O   0  0  0  0  0  0  0  0  0  0  0  0
    3.2160   59.4050   74.3080 C   0  0  0  0  0  0  0  0  0  0  0  0
   -0.2680   65.6930   70.6910 C   0  0  0  0  0  0  0  0  0  0  0  0
    0.4530   68.0310   67.1090 C   0  0  0  0  0  0  0  0  0  0  0  0
   -0.7460   67.3240   67.2750 C   0  0  0  0  0  0  0  0  0  0  0  0
   -0.9680   66.5570   68.4200 C   0  0  0  0  0  0  0  0  0  0  0  0
   -0.0060   66.4890   69.4320 C   0  0  0  0  0  0  0  0  0  0  0  0
    1.1890   67.2010   69.2750 C   0  0  0  0  0  0  0  0  0  0  0  0
    1.4160   67.9640   68.1260 C   0  0  0  0  0  0  0  0  0  0  0  0
    0.6930   68.8520   65.8720 C   0  0  0  0  0  0  0  0  0  0  0  0
    0.6050   68.1080   64.5480 N   0  0  1  0  0  4  0  0  0  0  0  0
   -0.1520   68.8840   63.5050 C   0  0  0  0  0  0  0  0  0  0  0  0
    2.3550   66.3300   64.7050 C   0  0  0  0  0  0  0  0  0  0  0  0
    1.9190   67.6010   63.9990 C   0  0  0  0  0  0  0  0  0  0  0  0
    1.6220   65.8603   71.5656 H   0  0  0  0  0  0  0  0  0  0  0  0
    1.0190   63.9597   69.3256 H   0  0  0  0  0  0  0  0  0  0  0  0
    2.6026   64.5693   69.7984 H   0  0  0  0  0  0  0  0  0  0  0  0
    0.9211   61.6970   73.9789 H   0  0  0  0  0  0  0  0  0  0  0  0
    3.1037   61.7435   69.4419 H   0  0  0  0  0  0  0  0  0  0  0  0
    4.2552   58.3193   69.3958 H   0  0  0  0  0  0  0  0  0  0  0  0
    2.6197   58.9733   69.0434 H   0  0  0  0  0  0  0  0  0  0  0  0
    4.0439   60.0679   69.0434 H   0  0  0  0  0  0  0  0  0  0  0  0
    2.6946   59.4088   75.2766 H   0  0  0  0  0  0  0  0  0  0  0  0
    3.8398   58.5023   74.2309 H   0  0  0  0  0  0  0  0  0  0  0  0
    3.8530   60.2985   74.2309 H   0  0  0  0  0  0  0  0  0  0  0  0
   -1.0118   64.9148   70.4649 H   0  0  0  0  0  0  0  0  0  0  0  0
   -0.6285   66.3970   71.4555 H   0  0  0  0  0  0  0  0  0  0  0  0
   -1.5199   67.3741   66.4949 H   0  0  0  0  0  0  0  0  0  0  0  0
   -1.9104   65.9999   68.5271 H   0  0  0  0  0  0  0  0  0  0  0  0
    1.9559   67.1597   70.0625 H   0  0  0  0  0  0  0  0  0  0  0  0
    2.3603   68.5179   68.0185 H   0  0  0  0  0  0  0  0  0  0  0  0
   -0.0539   69.6593   65.8542 H   0  0  0  0  0  0  0  0  0  0  0  0
    1.7334   69.2014   65.9463 H   0  0  0  0  0  0  0  0  0  0  0  0
    0.0686   67.2608   64.7836 H   0  0  0  0  0  0  0  0  0  0  0  0
   -0.8386   69.5878   63.9981 H   0  0  0  0  0  0  0  0  0  0  0  0
    0.5574   69.4430   62.8771 H   0  0  0  0  0  0  0  0  0  0  0  0
   -0.7284   68.1886   62.8771 H   0  0  0  0  0  0  0  0  0  0  0  0
    2.3038   66.4792   65.7936 H   0  0  0  0  0  0  0  0  0  0  0  0
    1.6890   65.5034   64.4165 H   0  0  0  0  0  0  0  0  0  0  0  0
    3.3881   66.0863   64.4165 H   0  0  0  0  0  0  0  0  0  0  0  0
    2.6894   68.3731   64.1418 H   0  0  0  0  0  0  0  0  0  0  0  0
    1.7870   67.3779   62.9300 H   0  0  0  0  0  0  0  0  0  0  0  0
  2  1  1  0
  3  2  1  0
  4  3  2  0
  5  1  1  0
  5  4  1  0
  6  5  2  0
  7  4  1  0
  8  7  2  0
  9  8  1  0
 10  9  2  0
 10  3  1  0
 11  9  1  0
 12 11  1  0
 13  8  1  0
 14 13  1  0
 15  1  1  0
 17 16  2  0
 18 17  1  0
 19 15  1  0
 19 18  2  0
 20 19  1  0
 21 20  2  0
 21 16  1  0
 22 16  1  0
 23 22  1  0
 24 23  1  0
 26 25  1  0
 26 23  1  0
  1 27  1  1
  2 28  1  0
  2 29  1  0
  7 30  1  0
 10 31  1  0
 12 32  1  0
 12 33  1  0
 12 34  1  0
 14 35  1  0
 14 36  1  0
 14 37  1  0
 15 38  1  0
 15 39  1  0
 17 40  1  0
 18 41  1  0
 20 42  1  0
 21 43  1  0
 22 44  1  0
 22 45  1  0
 23 46  1  1
 24 47  1  0
 24 48  1  0
 24 49  1  0
 25 50  1  0
 25 51  1  0
 25 52  1  0
 26 53  1  0
 26 54  1  0
M  CHG  1  23   1
M  END
>  <score>  (3) 
-7.933

$$$$
=
     RDKit          3D

 54 56  0  0  0  0  0  0  0  0999 V2000
    1.5080   60.6990   72.1480 C   0  0  2  0  0  0  0  0  0  0  0  0
    0.2720   60.4110   73.0380 C   0  0  0  0  0  0  0  0  0  0  0  0
    0.3670   58.9530   73.3550 C   0  0  0  0  0  0  0  0  0  0  0  0
    1.5610   58.3950   72.9260 C   0  0  0  0  0  0  0  0  0  0  0  0
    2.3350   59.4260   72.2500 C   0  0  0  0  0  0  0  0  0  0  0  0
    3.4620   59.2440   71.8250 O   0  0  0  0  0  0  0  0  0  0  0  0
    1.8970   57.0700   73.1360 C   0  0  0  0  0  0  0  0  0  0  0  0
    0.9750   56.2670   73.8140 C   0  0  0  0  0  0  0  0  0  0  0  0
   -0.2580   56.8190   74.2630 C   0  0  0  0  0  0  0  0  0  0  0  0
   -0.5560   58.1720   74.0320 C   0  0  0  0  0  0  0  0  0  0  0  0
   -1.0930   55.9480   74.9190 O   0  0  0  0  0  0  0  0  0  0  0  0
   -1.3140   56.1560   76.3070 C   0  0  0  0  0  0  0  0  0  0  0  0
    1.1700   54.9370   74.0920 O   0  0  0  0  0  0  0  0  0  0  0  0
    2.1920   54.5980   75.0200 C   0  0  0  0  0  0  0  0  0  0  0  0
    2.2740   61.9380   72.6160 C   0  0  0  0  0  0  0  0  0  0  0  0
    0.9870   65.5310   70.5530 C   0  0  0  0  0  0  0  0  0  0  0  0
    2.1790   64.8870   70.1970 C   0  0  0  0  0  0  0  0  0  0  0  0
    2.6010   63.7420   70.8740 C   0  0  0  0  0  0  0  0  0  0  0  0
    1.8360   63.2040   71.9140 C   0  0  0  0  0  0  0  0  0  0  0  0
    0.6380   63.8380   72.2670 C   0  0  0  0  0  0  0  0  0  0  0  0
    0.2180   64.9890   71.5950 C   0  0  0  0  0  0  0  0  0  0  0  0
    0.5370   66.7680   69.8270 C   0  0  0  0  0  0  0  0  0  0  0  0
    0.3170   66.6220   68.3290 N   0  0  1  0  0  4  0  0  0  0  0  0
   -1.1240   66.8130   67.9400 C   0  0  0  0  0  0  0  0  0  0  0  0
    0.7080   68.8690   67.3060 C   0  0  0  0  0  0  0  0  0  0  0  0
    1.2300   67.4520   67.4550 C   0  0  0  0  0  0  0  0  0  0  0  0
    1.2369   60.9326   71.1078 H   0  0  0  0  0  0  0  0  0  0  0  0
    0.3080   61.0117   73.9588 H   0  0  0  0  0  0  0  0  0  0  0  0
   -0.6725   60.6681   72.5361 H   0  0  0  0  0  0  0  0  0  0  0  0
    2.8555   56.6624   72.7822 H   0  0  0  0  0  0  0  0  0  0  0  0
   -1.5051   58.6039   74.3822 H   0  0  0  0  0  0  0  0  0  0  0  0
   -0.6333   55.5153   76.8867 H   0  0  0  0  0  0  0  0  0  0  0  0
   -1.1244   57.2109   76.5544 H   0  0  0  0  0  0  0  0  0  0  0  0
   -2.3555   55.9028   76.5544 H   0  0  0  0  0  0  0  0  0  0  0  0
    1.8130   54.7237   76.0450 H   0  0  0  0  0  0  0  0  0  0  0  0
    2.4942   53.5515   74.8666 H   0  0  0  0  0  0  0  0  0  0  0  0
    3.0597   55.2564   74.8666 H   0  0  0  0  0  0  0  0  0  0  0  0
    2.1121   62.0626   73.6969 H   0  0  0  0  0  0  0  0  0  0  0  0
    3.3355   61.7788   72.3753 H   0  0  0  0  0  0  0  0  0  0  0  0
    2.7893   65.2884   69.3745 H   0  0  0  0  0  0  0  0  0  0  0  0
    3.5457   63.2572   70.5866 H   0  0  0  0  0  0  0  0  0  0  0  0
    0.0224   63.4263   73.0803 H   0  0  0  0  0  0  0  0  0  0  0  0
   -0.7249   65.4754   71.8855 H   0  0  0  0  0  0  0  0  0  0  0  0
   -0.4127   67.0944   70.2759 H   0  0  0  0  0  0  0  0  0  0  0  0
    1.3596   67.4902   69.9358 H   0  0  0  0  0  0  0  0  0  0  0  0
    0.5819   65.6445   68.1412 H   0  0  0  0  0  0  0  0  0  0  0  0
   -1.7409   66.8948   68.8471 H   0  0  0  0  0  0  0  0  0  0  0  0
   -1.2242   67.7323   67.3443 H   0  0  0  0  0  0  0  0  0  0  0  0
   -1.4603   65.9516   67.3443 H   0  0  0  0  0  0  0  0  0  0  0  0
    0.5467   69.3070   68.3021 H   0  0  0  0  0  0  0  0  0  0  0  0
    1.4422   69.4741   66.7540 H   0  0  0  0  0  0  0  0  0  0  0  0
   -0.2433   68.8532   66.7540 H   0  0  0  0  0  0  0  0  0  0  0  0
    1.2947   66.9870   66.4602 H   0  0  0  0  0  0  0  0  0  0  0  0
    2.2219   67.4942   67.9287 H   0  0  0  0  0  0  0  0  0  0  0  0
  2  1  1  0
  3  2  1  0
  4  3  2  0
  5  1  1  0
  5  4  1  0
  6  5  2  0
  7  4  1  0
  8  7  2  0
  9  8  1  0
 10  9  2  0
 10  3  1  0
 11  9  1  0
 12 11  1  0
 13  8  1  0
 14 13  1  0
 15  1  1  0
 17 16  2  0
 18 17  1  0
 19 15  1  0
 19 18  2  0
 20 19  1  0
 21 20  2  0
 21 16  1  0
 22 16  1  0
 23 22  1  0
 24 23  1  0
 26 25  1  0
 26 23  1  0
  1 27  1  6
  2 28  1  0
  2 29  1  0
  7 30  1  0
 10 31  1  0
 12 32  1  0
 12 33  1  0
 12 34  1  0
 14 35  1  0
 14 36  1  0
 14 37  1  0
 15 38  1  0
 15 39  1  0
 17 40  1  0
 18 41  1  0
 20 42  1  0
 21 43  1  0
 22 44  1  0
 22 45  1  0
 23 46  1  6
 24 47  1  0
 24 48  1  0
 24 49  1  0
 25 50  1  0
 25 51  1  0
 25 52  1  0
 26 53  1  0
 26 54  1  0
M  CHG  1  23   1
M  END
>  <score>  (4) 
-7.784

$$$$
=
     RDKit          3D

 54 56  0  0  0  0  0  0  0  0999 V2000
    0.6990   65.8530   70.5490 C   0  0  2  0  0  0  0  0  0  0  0  0
    1.3000   64.5710   69.9190 C   0  0  0  0  0  0  0  0  0  0  0  0
    1.1860   63.5360   70.9920 C   0  0  0  0  0  0  0  0  0  0  0  0
    0.4550   63.9810   72.0810 C   0  0  0  0  0  0  0  0  0  0  0  0
    0.0630   65.3620   71.8400 C   0  0  0  0  0  0  0  0  0  0  0  0
   -0.6490   65.9960   72.5990 O   0  0  0  0  0  0  0  0  0  0  0  0
    0.1820   63.1920   73.1840 C   0  0  0  0  0  0  0  0  0  0  0  0
    0.6780   61.8850   73.1850 C   0  0  0  0  0  0  0  0  0  0  0  0
    1.4320   61.4070   72.0770 C   0  0  0  0  0  0  0  0  0  0  0  0
    1.6820   62.2410   70.9750 C   0  0  0  0  0  0  0  0  0  0  0  0
    1.8710   60.1090   72.1750 O   0  0  0  0  0  0  0  0  0  0  0  0
    3.1010   59.8720   72.8450 C   0  0  0  0  0  0  0  0  0  0  0  0
    0.4880   60.9900   74.2090 O   0  0  0  0  0  0  0  0  0  0  0  0
   -0.7490   61.0340   74.9060 C   0  0  0  0  0  0  0  0  0  0  0  0
   -0.3090   66.5300   69.6160 C   0  0  0  0  0  0  0  0  0  0  0  0
    1.5120   68.4130   66.1590 C   0  0  0  0  0  0  0  0  0  0  0  0
    0.2900   67.7360   66.0460 C   0  0  0  0  0  0  0  0  0  0  0  0
   -0.2840   67.1150   67.1560 C   0  0  0  0  0  0  0  0  0  0  0  0
    0.3390   67.1660   68.4070 C   0  0  0  0  0  0  0  0  0  0  0  0
    1.5550   67.8500   68.5270 C   0  0  0  0  0  0  0  0  0  0  0  0
    2.1350   68.4670   67.4150 C   0  0  0  0  0  0  0  0  0  0  0  0
    2.1330   69.0770   64.9610 C   0  0  0  0  0  0  0  0  0  0  0  0
    3.4180   68.4510   64.4400 N   0  0  1  0  0  4  0  0  0  0  0  0
    3.2030   67.6780   63.1670 C   0  0  0  0  0  0  0  0  0  0  0  0
    5.2150   69.6810   65.6660 C   0  0  0  0  0  0  0  0  0  0  0  0
    4.5940   69.3920   64.3120 C   0  0  0  0  0  0  0  0  0  0  0  0
    1.4553   66.6305   70.7322 H   0  0  0  0  0  0  0  0  0  0  0  0
    0.7288   64.2714   69.0279 H   0  0  0  0  0  0  0  0  0  0  0  0
    2.3387   64.7160   69.5872 H   0  0  0  0  0  0  0  0  0  0  0  0
   -0.4045   63.5793   74.0302 H   0  0  0  0  0  0  0  0  0  0  0  0
    2.2605   61.8739   70.1144 H   0  0  0  0  0  0  0  0  0  0  0  0
    2.9382   59.9034   73.9324 H   0  0  0  0  0  0  0  0  0  0  0  0
    3.4887   58.8826   72.5607 H   0  0  0  0  0  0  0  0  0  0  0  0
    3.8286   60.6465   72.5607 H   0  0  0  0  0  0  0  0  0  0  0  0
   -0.5598   61.0273   75.9896 H   0  0  0  0  0  0  0  0  0  0  0  0
   -1.2906   61.9520   74.6341 H   0  0  0  0  0  0  0  0  0  0  0  0
   -1.3545   60.1568   74.6341 H   0  0  0  0  0  0  0  0  0  0  0  0
   -1.0293   65.7739   69.2704 H   0  0  0  0  0  0  0  0  0  0  0  0
   -0.7982   67.3327   70.1873 H   0  0  0  0  0  0  0  0  0  0  0  0
   -0.2215   67.6938   65.0731 H   0  0  0  0  0  0  0  0  0  0  0  0
   -1.2381   66.5788   67.0457 H   0  0  0  0  0  0  0  0  0  0  0  0
    2.0577   67.9021   69.5040 H   0  0  0  0  0  0  0  0  0  0  0  0
    3.0904   69.0008   67.5258 H   0  0  0  0  0  0  0  0  0  0  0  0
    1.3949   69.0574   64.1456 H   0  0  0  0  0  0  0  0  0  0  0  0
    2.4107   70.0878   65.2943 H   0  0  0  0  0  0  0  0  0  0  0  0
    3.6835   67.7916   65.1854 H   0  0  0  0  0  0  0  0  0  0  0  0
    2.9155   66.6444   63.4098 H   0  0  0  0  0  0  0  0  0  0  0  0
    2.4029   68.1530   62.5803 H   0  0  0  0  0  0  0  0  0  0  0  0
    4.1335   67.6716   62.5803 H   0  0  0  0  0  0  0  0  0  0  0  0
    4.5260   69.3604   66.4613 H   0  0  0  0  0  0  0  0  0  0  0  0
    6.1635   69.1318   65.7591 H   0  0  0  0  0  0  0  0  0  0  0  0
    5.4056   70.7603   65.7591 H   0  0  0  0  0  0  0  0  0  0  0  0
    4.2506   70.3369   63.8656 H   0  0  0  0  0  0  0  0  0  0  0  0
    5.3536   68.9157   63.6747 H   0  0  0  0  0  0  0  0  0  0  0  0
  2  1  1  0
  3  2  1  0
  4  3  2  0
  5  1  1  0
  5  4  1  0
  6  5  2  0
  7  4  1  0
  8  7  2  0
  9  8  1  0
 10  9  2  0
 10  3  1  0
 11  9  1  0
 12 11  1  0
 13  8  1  0
 14 13  1  0
 15  1  1  0
 17 16  2  0
 18 17  1  0
 19 15  1  0
 19 18  2  0
 20 19  1  0
 21 20  2  0
 21 16  1  0
 22 16  1  0
 23 22  1  0
 24 23  1  0
 26 25  1  0
 26 23  1  0
  1 27  1  1
  2 28  1  0
  2 29  1  0
  7 30  1  0
 10 31  1  0
 12 32  1  0
 12 33  1  0
 12 34  1  0
 14 35  1  0
 14 36  1  0
 14 37  1  0
 15 38  1  0
 15 39  1  0
 17 40  1  0
 18 41  1  0
 20 42  1  0
 21 43  1  0
 22 44  1  0
 22 45  1  0
 23 46  1  1
 24 47  1  0
 24 48  1  0
 24 49  1  0
 25 50  1  0
 25 51  1  0
 25 52  1  0
 26 53  1  0
 26 54  1  0
M  CHG  1  23   1
M  END
>  <score>  (5) 
-7.65

$$$$
=
     RDKit          3D

 54 56  0  0  0  0  0  0  0  0999 V2000
   -0.5230   67.9830   67.1320 C   0  0  2  0  0  0  0  0  0  0  0  0
    0.0860   66.8450   66.2740 C   0  0  0  0  0  0  0  0  0  0  0  0
    1.4170   67.3700   65.8410 C   0  0  0  0  0  0  0  0  0  0  0  0
    1.7400   68.5680   66.4600 C   0  0  0  0  0  0  0  0  0  0  0  0
    0.6310   68.9560   67.3190 C   0  0  0  0  0  0  0  0  0  0  0  0
    0.6590   69.9350   68.0430 O   0  0  0  0  0  0  0  0  0  0  0  0
    2.9350   69.2320   66.2490 C   0  0  0  0  0  0  0  0  0  0  0  0
    3.8490   68.6550   65.3620 C   0  0  0  0  0  0  0  0  0  0  0  0
    3.5380   67.4270   64.7150 C   0  0  0  0  0  0  0  0  0  0  0  0
    2.3140   66.7830   64.9620 C   0  0  0  0  0  0  0  0  0  0  0  0
    4.5040   66.9430   63.8650 O   0  0  0  0  0  0  0  0  0  0  0  0
    4.4160   65.5840   63.4640 C   0  0  0  0  0  0  0  0  0  0  0  0
    5.0720   69.1990   65.0540 O   0  0  0  0  0  0  0  0  0  0  0  0
    5.6630   70.0760   66.0020 C   0  0  0  0  0  0  0  0  0  0  0  0
   -1.0760   67.4630   68.4610 C   0  0  0  0  0  0  0  0  0  0  0  0
    1.5680   64.6900   70.4930 C   0  0  0  0  0  0  0  0  0  0  0  0
    1.9980   65.9840   70.1680 C   0  0  0  0  0  0  0  0  0  0  0  0
    1.1510   66.8680   69.4980 C   0  0  0  0  0  0  0  0  0  0  0  0
   -0.1470   66.4870   69.1480 C   0  0  0  0  0  0  0  0  0  0  0  0
   -0.5850   65.1990   69.4790 C   0  0  0  0  0  0  0  0  0  0  0  0
    0.2640   64.3100   70.1440 C   0  0  0  0  0  0  0  0  0  0  0  0
    2.4840   63.7360   71.2100 C   0  0  0  0  0  0  0  0  0  0  0  0
    3.7530   63.3430   70.4710 N   0  0  1  0  0  4  0  0  0  0  0  0
    4.6350   62.4400   71.2890 C   0  0  0  0  0  0  0  0  0  0  0  0
    3.1410   61.3290   69.1240 C   0  0  0  0  0  0  0  0  0  0  0  0
    3.5500   62.7900   69.0790 C   0  0  0  0  0  0  0  0  0  0  0  0
   -1.3903   68.4596   66.6517 H   0  0  0  0  0  0  0  0  0  0  0  0
    0.2055   65.9294   66.8718 H   0  0  0  0  0  0  0  0  0  0  0  0
   -0.5545   66.5775   65.4207 H   0  0  0  0  0  0  0  0  0  0  0  0
    3.1582   70.1799   66.7606 H   0  0  0  0  0  0  0  0  0  0  0  0
    2.0720   65.8309   64.4672 H   0  0  0  0  0  0  0  0  0  0  0  0
    4.3743   64.9407   64.3553 H   0  0  0  0  0  0  0  0  0  0  0  0
    3.5065   65.4372   62.8630 H   0  0  0  0  0  0  0  0  0  0  0  0
    5.2990   65.3211   62.8630 H   0  0  0  0  0  0  0  0  0  0  0  0
    5.4287   69.7284   67.0190 H   0  0  0  0  0  0  0  0  0  0  0  0
    6.7538   70.0875   65.8606 H   0  0  0  0  0  0  0  0  0  0  0  0
    5.2642   71.0914   65.8606 H   0  0  0  0  0  0  0  0  0  0  0  0
   -1.2414   68.3198   69.1308 H   0  0  0  0  0  0  0  0  0  0  0  0
   -2.0108   66.9268   68.2404 H   0  0  0  0  0  0  0  0  0  0  0  0
    3.0131   66.3059   70.4438 H   0  0  0  0  0  0  0  0  0  0  0  0
    1.5093   67.8761   69.2425 H   0  0  0  0  0  0  0  0  0  0  0  0
   -1.6051   64.8844   69.2136 H   0  0  0  0  0  0  0  0  0  0  0  0
   -0.0946   63.3012   70.3964 H   0  0  0  0  0  0  0  0  0  0  0  0
    2.7801   64.2046   72.1601 H   0  0  0  0  0  0  0  0  0  0  0  0
    1.9092   62.8052   71.3249 H   0  0  0  0  0  0  0  0  0  0  0  0
    4.2385   64.2408   70.3327 H   0  0  0  0  0  0  0  0  0  0  0  0
    4.4559   62.6234   72.3587 H   0  0  0  0  0  0  0  0  0  0  0  0
    4.4045   61.3906   71.0532 H   0  0  0  0  0  0  0  0  0  0  0  0
    5.6896   62.6457   71.0532 H   0  0  0  0  0  0  0  0  0  0  0  0
    3.0505   61.0057   70.1715 H   0  0  0  0  0  0  0  0  0  0  0  0
    2.1732   61.2034   68.6166 H   0  0  0  0  0  0  0  0  0  0  0  0
    3.9029   60.7191   68.6166 H   0  0  0  0  0  0  0  0  0  0  0  0
    4.4901   62.8824   68.5154 H   0  0  0  0  0  0  0  0  0  0  0  0
    2.7475   63.3619   68.5902 H   0  0  0  0  0  0  0  0  0  0  0  0
  2  1  1  0
  3  2  1  0
  4  3  2  0
  5  1  1  0
  5  4  1  0
  6  5  2  0
  7  4  1  0
  8  7  2  0
  9  8  1  0
 10  9  2  0
 10  3  1  0
 11  9  1  0
 12 11  1  0
 13  8  1  0
 14 13  1  0
 15  1  1  0
 17 16  2  0
 18 17  1  0
 19 15  1  0
 19 18  2  0
 20 19  1  0
 21 20  2  0
 21 16  1  0
 22 16  1  0
 23 22  1  0
 24 23  1  0
 26 25  1  0
 26 23  1  0
  1 27  1  6
  2 28  1  0
  2 29  1  0
  7 30  1  0
 10 31  1  0
 12 32  1  0
 12 33  1  0
 12 34  1  0
 14 35  1  0
 14 36  1  0
 14 37  1  0
 15 38  1  0
 15 39  1  0
 17 40  1  0
 18 41  1  0
 20 42  1  0
 21 43  1  0
 22 44  1  0
 22 45  1  0
 23 46  1  6
 24 47  1  0
 24 48  1  0
 24 49  1  0
 25 50  1  0
 25 51  1  0
 25 52  1  0
 26 53  1  0
 26 54  1  0
M  CHG  1  23   1
M  END
>  <score>  (6) 
-7.476

$$$$
=
     RDKit          3D

 54 56  0  0  0  0  0  0  0  0999 V2000
    0.6650   66.8430   67.5140 C   0  0  2  0  0  0  0  0  0  0  0  0
    2.0250   66.8040   66.7720 C   0  0  0  0  0  0  0  0  0  0  0  0
    1.7800   67.5450   65.4970 C   0  0  0  0  0  0  0  0  0  0  0  0
    0.5350   68.1530   65.4690 C   0  0  0  0  0  0  0  0  0  0  0  0
   -0.1650   67.8270   66.7030 C   0  0  0  0  0  0  0  0  0  0  0  0
   -1.2590   68.2800   66.9890 O   0  0  0  0  0  0  0  0  0  0  0  0
    0.0930   68.9250   64.4100 C   0  0  0  0  0  0  0  0  0  0  0  0
    0.9550   69.0880   63.3210 C   0  0  0  0  0  0  0  0  0  0  0  0
    2.2380   68.4730   63.3290 C   0  0  0  0  0  0  0  0  0  0  0  0
    2.6490   67.7000   64.4270 C   0  0  0  0  0  0  0  0  0  0  0  0
    3.0090   68.6970   62.2140 O   0  0  0  0  0  0  0  0  0  0  0  0
    4.4190   68.7250   62.3750 C   0  0  0  0  0  0  0  0  0  0  0  0
    0.6520   69.8240   62.2020 O   0  0  0  0  0  0  0  0  0  0  0  0
   -0.6990   69.8340   61.7630 C   0  0  0  0  0  0  0  0  0  0  0  0
    0.8230   67.2700   68.9750 C   0  0  0  0  0  0  0  0  0  0  0  0
    1.1880   63.9490   71.7420 C   0  0  0  0  0  0  0  0  0  0  0  0
    2.1620   64.1750   70.7590 C   0  0  0  0  0  0  0  0  0  0  0  0
    2.0330   65.2330   69.8590 C   0  0  0  0  0  0  0  0  0  0  0  0
    0.9360   66.0990   69.9250 C   0  0  0  0  0  0  0  0  0  0  0  0
   -0.0340   65.8830   70.9110 C   0  0  0  0  0  0  0  0  0  0  0  0
    0.0900   64.8200   71.8090 C   0  0  0  0  0  0  0  0  0  0  0  0
    1.3260   62.8050   72.7080 C   0  0  0  0  0  0  0  0  0  0  0  0
    1.0640   61.4170   72.1430 N   0  0  1  0  0  4  0  0  0  0  0  0
    2.3300   60.6250   71.9630 C   0  0  0  0  0  0  0  0  0  0  0  0
   -1.2320   61.4310   73.1300 C   0  0  0  0  0  0  0  0  0  0  0  0
    0.0150   60.6070   72.8700 C   0  0  0  0  0  0  0  0  0  0  0  0
    0.1871   65.8542   67.5767 H   0  0  0  0  0  0  0  0  0  0  0  0
    2.8060   67.3010   67.3662 H   0  0  0  0  0  0  0  0  0  0  0  0
    2.3753   65.7761   66.5965 H   0  0  0  0  0  0  0  0  0  0  0  0
   -0.9017   69.3943   64.4239 H   0  0  0  0  0  0  0  0  0  0  0  0
    3.6417   67.2262   64.4383 H   0  0  0  0  0  0  0  0  0  0  0  0
    4.6656   68.7299   63.4470 H   0  0  0  0  0  0  0  0  0  0  0  0
    4.8599   67.8354   61.9014 H   0  0  0  0  0  0  0  0  0  0  0  0
    4.8242   69.6314   61.9014 H   0  0  0  0  0  0  0  0  0  0  0  0
   -1.3682   69.8390   62.6360 H   0  0  0  0  0  0  0  0  0  0  0  0
   -0.8808   70.7335   61.1565 H   0  0  0  0  0  0  0  0  0  0  0  0
   -0.8941   68.9373   61.1565 H   0  0  0  0  0  0  0  0  0  0  0  0
    1.7321   67.8827   69.0645 H   0  0  0  0  0  0  0  0  0  0  0  0
   -0.0808   67.8322   69.2526 H   0  0  0  0  0  0  0  0  0  0  0  0
    3.0369   63.5111   70.6969 H   0  0  0  0  0  0  0  0  0  0  0  0
    2.8026   65.3882   69.0885 H   0  0  0  0  0  0  0  0  0  0  0  0
   -0.9013   66.5561   70.9793 H   0  0  0  0  0  0  0  0  0  0  0  0
   -0.6818   64.6641   72.5772 H   0  0  0  0  0  0  0  0  0  0  0  0
    2.3531   62.8194   73.1015 H   0  0  0  0  0  0  0  0  0  0  0  0
    0.5487   62.9657   73.4695 H   0  0  0  0  0  0  0  0  0  0  0  0
    0.6589   61.6070   71.2153 H   0  0  0  0  0  0  0  0  0  0  0  0
    2.7438   60.3661   72.9488 H   0  0  0  0  0  0  0  0  0  0  0  0
    2.1097   59.7034   71.4043 H   0  0  0  0  0  0  0  0  0  0  0  0
    3.0623   61.2263   71.4043 H   0  0  0  0  0  0  0  0  0  0  0  0
   -1.3851   61.5322   74.2146 H   0  0  0  0  0  0  0  0  0  0  0  0
   -1.1124   62.4285   72.6820 H   0  0  0  0  0  0  0  0  0  0  0  0
   -2.1027   60.9298   72.6820 H   0  0  0  0  0  0  0  0  0  0  0  0
    0.4271   60.2667   73.8315 H   0  0  0  0  0  0  0  0  0  0  0  0
   -0.2602   59.7482   72.2401 H   0  0  0  0  0  0  0  0  0  0  0  0
  2  1  1  0
  3  2  1  0
  4  3  2  0
  5  1  1  0
  5  4  1  0
  6  5  2  0
  7  4  1  0
  8  7  2  0
  9  8  1  0
 10  9  2  0
 10  3  1  0
 11  9  1  0
 12 11  1  0
 13  8  1  0
 14 13  1  0
 15  1  1  0
 17 16  2  0
 18 17  1  0
 19 15  1  0
 19 18  2  0
 20 19  1  0
 21 20  2  0
 21 16  1  0
 22 16  1  0
 23 22  1  0
 24 23  1  0
 26 25  1  0
 26 23  1  0
  1 27  1  1
  2 28  1  0
  2 29  1  0
  7 30  1  0
 10 31  1  0
 12 32  1  0
 12 33  1  0
 12 34  1  0
 14 35  1  0
 14 36  1  0
 14 37  1  0
 15 38  1  0
 15 39  1  0
 17 40  1  0
 18 41  1  0
 20 42  1  0
 21 43  1  0
 22 44  1  0
 22 45  1  0
 23 46  1  6
 24 47  1  0
 24 48  1  0
 24 49  1  0
 25 50  1  0
 25 51  1  0
 25 52  1  0
 26 53  1  0
 26 54  1  0
M  CHG  1  23   1
M  END
>  <score>  (7) 
-7.308

$$$$
=
     RDKit          3D

 54 56  0  0  0  0  0  0  0  0999 V2000
    2.4590   61.0550   72.9360 C   0  0  2  0  0  0  0  0  0  0  0  0
    3.7730   60.5130   73.5530 C   0  0  0  0  0  0  0  0  0  0  0  0
    3.3500   59.3280   74.3600 C   0  0  0  0  0  0  0  0  0  0  0  0
    2.0170   59.0030   74.1630 C   0  0  0  0  0  0  0  0  0  0  0  0
    1.4370   59.9720   73.2450 C   0  0  0  0  0  0  0  0  0  0  0  0
    0.2930   59.8990   72.8330 O   0  0  0  0  0  0  0  0  0  0  0  0
    1.4030   57.9240   74.7720 C   0  0  0  0  0  0  0  0  0  0  0  0
    2.1770   57.1350   75.6280 C   0  0  0  0  0  0  0  0  0  0  0  0
    3.5480   57.4510   75.8450 C   0  0  0  0  0  0  0  0  0  0  0  0
    4.1330   58.5540   75.2020 C   0  0  0  0  0  0  0  0  0  0  0  0
    4.2210   56.6130   76.7000 O   0  0  0  0  0  0  0  0  0  0  0  0
    4.6500   57.1390   77.9470 C   0  0  0  0  0  0  0  0  0  0  0  0
    1.7040   56.0350   76.3010 O   0  0  0  0  0  0  0  0  0  0  0  0
    1.5830   54.8180   75.5780 C   0  0  0  0  0  0  0  0  0  0  0  0
    2.5990   61.3210   71.4350 C   0  0  0  0  0  0  0  0  0  0  0  0
    0.9140   65.1510   70.2900 C   0  0  0  0  0  0  0  0  0  0  0  0
    0.0830   64.0740   70.6270 C   0  0  0  0  0  0  0  0  0  0  0  0
    0.6280   62.8370   70.9780 C   0  0  0  0  0  0  0  0  0  0  0  0
    2.0130   62.6500   71.0120 C   0  0  0  0  0  0  0  0  0  0  0  0
    2.8470   63.7250   70.6850 C   0  0  0  0  0  0  0  0  0  0  0  0
    2.3040   64.9620   70.3280 C   0  0  0  0  0  0  0  0  0  0  0  0
    0.3260   66.4810   69.9060 C   0  0  0  0  0  0  0  0  0  0  0  0
    0.2610   66.7800   68.4170 N   0  0  1  0  0  4  0  0  0  0  0  0
   -1.1530   66.9330   67.9250 C   0  0  0  0  0  0  0  0  0  0  0  0
    1.3220   67.8830   66.4410 C   0  0  0  0  0  0  0  0  0  0  0  0
    1.1270   67.9260   67.9450 C   0  0  0  0  0  0  0  0  0  0  0  0
    2.1654   62.0300   73.3522 H   0  0  0  0  0  0  0  0  0  0  0  0
    4.4781   60.2135   72.7636 H   0  0  0  0  0  0  0  0  0  0  0  0
    4.2908   61.2689   74.1617 H   0  0  0  0  0  0  0  0  0  0  0  0
    0.3428   57.6946   74.5893 H   0  0  0  0  0  0  0  0  0  0  0  0
    5.1931   58.7992   75.3636 H   0  0  0  0  0  0  0  0  0  0  0  0
    4.1851   56.5690   78.7649 H   0  0  0  0  0  0  0  0  0  0  0  0
    5.7447   57.0601   78.0211 H   0  0  0  0  0  0  0  0  0  0  0  0
    4.3526   58.1954   78.0211 H   0  0  0  0  0  0  0  0  0  0  0  0
    1.4996   53.9787   76.2842 H   0  0  0  0  0  0  0  0  0  0  0  0
    0.6841   54.8554   74.9450 H   0  0  0  0  0  0  0  0  0  0  0  0
    2.4716   54.6776   74.9450 H   0  0  0  0  0  0  0  0  0  0  0  0
    3.6679   61.3110   71.1756 H   0  0  0  0  0  0  0  0  0  0  0  0
    2.0407   60.5331   70.9082 H   0  0  0  0  0  0  0  0  0  0  0  0
   -1.0092   64.2043   70.6149 H   0  0  0  0  0  0  0  0  0  0  0  0
   -0.0401   62.0004   71.2306 H   0  0  0  0  0  0  0  0  0  0  0  0
    3.9390   63.5952   70.7092 H   0  0  0  0  0  0  0  0  0  0  0  0
    2.9736   65.7969   70.0739 H   0  0  0  0  0  0  0  0  0  0  0  0
   -0.6995   66.5217   70.3018 H   0  0  0  0  0  0  0  0  0  0  0  0
    1.0043   67.2365   70.3292 H   0  0  0  0  0  0  0  0  0  0  0  0
    0.6717   65.9398   67.9855 H   0  0  0  0  0  0  0  0  0  0  0  0
   -1.8346   67.0067   68.7852 H   0  0  0  0  0  0  0  0  0  0  0  0
   -1.2324   67.8450   67.3151 H   0  0  0  0  0  0  0  0  0  0  0  0
   -1.4256   66.0591   67.3151 H   0  0  0  0  0  0  0  0  0  0  0  0
    2.3731   67.6512   66.2140 H   0  0  0  0  0  0  0  0  0  0  0  0
    0.6737   67.1062   66.0093 H   0  0  0  0  0  0  0  0  0  0  0  0
    1.0606   68.8604   66.0093 H   0  0  0  0  0  0  0  0  0  0  0  0
    2.1090   67.8596   68.4362 H   0  0  0  0  0  0  0  0  0  0  0  0
    0.6266   68.8706   68.2045 H   0  0  0  0  0  0  0  0  0  0  0  0
  2  1  1  0
  3  2  1  0
  4  3  2  0
  5  1  1  0
  5  4  1  0
  6  5  2  0
  7  4  1  0
  8  7  2  0
  9  8  1  0
 10  9  2  0
 10  3  1  0
 11  9  1  0
 12 11  1  0
 13  8  1  0
 14 13  1  0
 15  1  1  0
 17 16  2  0
 18 17  1  0
 19 15  1  0
 19 18  2  0
 20 19  1  0
 21 20  2  0
 21 16  1  0
 22 16  1  0
 23 22  1  0
 24 23  1  0
 26 25  1  0
 26 23  1  0
  1 27  1  1
  2 28  1  0
  2 29  1  0
  7 30  1  0
 10 31  1  0
 12 32  1  0
 12 33  1  0
 12 34  1  0
 14 35  1  0
 14 36  1  0
 14 37  1  0
 15 38  1  0
 15 39  1  0
 17 40  1  0
 18 41  1  0
 20 42  1  0
 21 43  1  0
 22 44  1  0
 22 45  1  0
 23 46  1  6
 24 47  1  0
 24 48  1  0
 24 49  1  0
 25 50  1  0
 25 51  1  0
 25 52  1  0
 26 53  1  0
 26 54  1  0
M  CHG  1  23   1
M  END
>  <score>  (8) 
-6.97

$$$$
=
     RDKit          3D

 54 56  0  0  0  0  0  0  0  0999 V2000
   -0.0510   59.8180   73.2480 C   0  0  2  0  0  0  0  0  0  0  0  0
    1.3930   59.9200   72.6930 C   0  0  0  0  0  0  0  0  0  0  0  0
    1.4060   61.1910   71.9080 C   0  0  0  0  0  0  0  0  0  0  0  0
    0.2400   61.9240   72.0670 C   0  0  0  0  0  0  0  0  0  0  0  0
   -0.6590   61.1770   72.9350 C   0  0  0  0  0  0  0  0  0  0  0  0
   -1.7350   61.6060   73.3090 O   0  0  0  0  0  0  0  0  0  0  0  0
    0.0300   63.1530   71.4700 C   0  0  0  0  0  0  0  0  0  0  0  0
    1.0520   63.6660   70.6650 C   0  0  0  0  0  0  0  0  0  0  0  0
    2.2570   62.9310   70.4870 C   0  0  0  0  0  0  0  0  0  0  0  0
    2.4310   61.6880   71.1170 C   0  0  0  0  0  0  0  0  0  0  0  0
    3.1990   63.5230   69.6810 O   0  0  0  0  0  0  0  0  0  0  0  0
    3.7150   62.7670   68.5950 C   0  0  0  0  0  0  0  0  0  0  0  0
    0.9850   64.8710   70.0090 O   0  0  0  0  0  0  0  0  0  0  0  0
    0.2830   65.9310   70.6430 C   0  0  0  0  0  0  0  0  0  0  0  0
   -0.0670   59.4960   74.7440 C   0  0  0  0  0  0  0  0  0  0  0  0
   -0.8430   55.3090   75.5720 C   0  0  0  0  0  0  0  0  0  0  0  0
   -0.6960   55.7640   74.2550 C   0  0  0  0  0  0  0  0  0  0  0  0
   -0.4640   57.1150   73.9900 C   0  0  0  0  0  0  0  0  0  0  0  0
   -0.3620   58.0400   75.0330 C   0  0  0  0  0  0  0  0  0  0  0  0
   -0.4980   57.5890   76.3510 C   0  0  0  0  0  0  0  0  0  0  0  0
   -0.7370   56.2380   76.6180 C   0  0  0  0  0  0  0  0  0  0  0  0
   -1.0980   53.8540   75.8550 C   0  0  0  0  0  0  0  0  0  0  0  0
    0.1330   52.9720   75.9880 N   0  0  1  0  0  4  0  0  0  0  0  0
    0.3350   52.4790   77.3960 C   0  0  0  0  0  0  0  0  0  0  0  0
   -0.9370   51.8550   74.0250 C   0  0  0  0  0  0  0  0  0  0  0  0
    0.2290   51.8360   74.9960 C   0  0  0  0  0  0  0  0  0  0  0  0
   -0.6234   58.9959   72.7936 H   0  0  0  0  0  0  0  0  0  0  0  0
    2.1228   59.9637   73.5149 H   0  0  0  0  0  0  0  0  0  0  0  0
    1.6670   59.0485   72.0804 H   0  0  0  0  0  0  0  0  0  0  0  0
   -0.9076   63.7077   71.6227 H   0  0  0  0  0  0  0  0  0  0  0  0
    3.3632   61.1190   70.9855 H   0  0  0  0  0  0  0  0  0  0  0  0
    4.2953   61.9169   68.9830 H   0  0  0  0  0  0  0  0  0  0  0  0
    2.8829   62.3930   67.9804 H   0  0  0  0  0  0  0  0  0  0  0  0
    4.3665   63.4056   67.9804 H   0  0  0  0  0  0  0  0  0  0  0  0
    0.3574   65.8187   71.7347 H   0  0  0  0  0  0  0  0  0  0  0  0
    0.7229   66.8934   70.3426 H   0  0  0  0  0  0  0  0  0  0  0  0
   -0.7748   65.9016   70.3426 H   0  0  0  0  0  0  0  0  0  0  0  0
    0.9177   59.7446   75.1665 H   0  0  0  0  0  0  0  0  0  0  0  0
   -0.8719   60.0913   75.1998 H   0  0  0  0  0  0  0  0  0  0  0  0
   -0.7641   55.0496   73.4214 H   0  0  0  0  0  0  0  0  0  0  0  0
   -0.3604   57.4552   72.9491 H   0  0  0  0  0  0  0  0  0  0  0  0
   -0.4161   58.3035   77.1833 H   0  0  0  0  0  0  0  0  0  0  0  0
   -0.8431   55.8996   77.6592 H   0  0  0  0  0  0  0  0  0  0  0  0
   -1.6614   53.7888   76.7975 H   0  0  0  0  0  0  0  0  0  0  0  0
   -1.6404   53.4732   74.9770 H   0  0  0  0  0  0  0  0  0  0  0  0
    0.9089   53.6045   75.7454 H   0  0  0  0  0  0  0  0  0  0  0  0
    0.0164   53.2565   78.1060 H   0  0  0  0  0  0  0  0  0  0  0  0
   -0.2630   51.5696   77.5554 H   0  0  0  0  0  0  0  0  0  0  0  0
    1.3992   52.2507   77.5554 H   0  0  0  0  0  0  0  0  0  0  0  0
   -1.8823   51.8704   74.5874 H   0  0  0  0  0  0  0  0  0  0  0  0
   -0.8723   52.7522   73.3919 H   0  0  0  0  0  0  0  0  0  0  0  0
   -0.9016   50.9562   73.3919 H   0  0  0  0  0  0  0  0  0  0  0  0
    0.2253   50.8813   75.5424 H   0  0  0  0  0  0  0  0  0  0  0  0
    1.1610   51.9517   74.4233 H   0  0  0  0  0  0  0  0  0  0  0  0
  2  1  1  0
  3  2  1  0
  4  3  2  0
  5  1  1  0
  5  4  1  0
  6  5  2  0
  7  4  1  0
  8  7  2  0
  9  8  1  0
 10  9  2  0
 10  3  1  0
 11  9  1  0
 12 11  1  0
 13  8  1  0
 14 13  1  0
 15  1  1  0
 17 16  2  0
 18 17  1  0
 19 15  1  0
 19 18  2  0
 20 19  1  0
 21 20  2  0
 21 16  1  0
 22 16  1  0
 23 22  1  0
 24 23  1  0
 26 25  1  0
 26 23  1  0
  1 27  1  6
  2 28  1  0
  2 29  1  0
  7 30  1  0
 10 31  1  0
 12 32  1  0
 12 33  1  0
 12 34  1  0
 14 35  1  0
 14 36  1  0
 14 37  1  0
 15 38  1  0
 15 39  1  0
 17 40  1  0
 18 41  1  0
 20 42  1  0
 21 43  1  0
 22 44  1  0
 22 45  1  0
 23 46  1  6
 24 47  1  0
 24 48  1  0
 24 49  1  0
 25 50  1  0
 25 51  1  0
 25 52  1  0
 26 53  1  0
 26 54  1  0
M  CHG  1  23   1
M  END
>  <score>  (9) 
-6.87

$$$$
