=
     RDKit          3D

 67 70  0  0  0  0  0  0  0  0999 V2000
   -0.7980   67.0390   68.0120 C   0  0  0  0  0  0  0  0  0  0  0  0
   -1.9870   67.2610   68.2180 O   0  0  0  0  0  0  0  0  0  0  0  0
    0.0360   66.4500   68.9340 N   0  0  0  0  0  0  0  0  0  0  0  0
    3.5300   66.5580   63.7290 C   0  0  0  0  0  0  0  0  0  0  0  0
    2.8480   66.3000   64.9240 C   0  0  0  0  0  0  0  0  0  0  0  0
    1.6690   66.9870   65.2140 C   0  0  0  0  0  0  0  0  0  0  0  0
    1.0440   66.6870   66.4010 O   0  0  0  0  0  0  0  0  0  0  0  0
   -0.1240   67.3650   66.7160 C   0  0  0  0  0  0  0  0  0  0  0  0
   -0.6990   68.2920   65.9380 C   0  0  0  0  0  0  0  0  0  0  0  0
   -0.0750   68.6320   64.6530 C   0  0  0  0  0  0  0  0  0  0  0  0
   -0.5840   69.4590   63.9080 O   0  0  0  0  0  0  0  0  0  0  0  0
    1.1710   67.9280   64.3180 C   0  0  0  0  0  0  0  0  0  0  0  0
    1.8400   68.1950   63.1210 C   0  0  0  0  0  0  0  0  0  0  0  0
    3.0220   67.5130   62.8190 C   0  0  0  0  0  0  0  0  0  0  0  0
    4.8730   64.5740   63.7240 C   0  0  0  0  0  0  0  0  0  0  0  0
    4.6930   65.9340   63.3540 O   0  0  0  0  0  0  0  0  0  0  0  0
    3.7540   67.6990   61.6740 O   0  0  0  0  0  0  0  0  0  0  0  0
    3.3980   68.7850   60.8270 C   0  0  0  0  0  0  0  0  0  0  0  0
   -0.3960   66.1000   70.2700 C   0  0  0  0  0  0  0  0  0  0  0  0
    0.6210   65.2400   71.0270 C   0  0  0  0  0  0  0  0  0  0  0  0
    1.9520   64.9760   70.3100 C   0  0  0  0  0  0  0  0  0  0  0  0
    2.5650   63.5680   70.4820 C   0  0  0  0  0  0  0  0  0  0  0  0
    2.0420   62.9490   71.7980 C   0  0  0  0  0  0  0  0  0  0  0  0
    3.0160   61.9890   72.4730 C   0  0  0  0  0  0  0  0  0  0  0  0
    3.7570   61.2240   71.4160 N   0  0  0  0  0  4  0  0  0  0  0  0
    4.6640   62.1130   70.6060 C   0  0  0  0  0  0  0  0  0  0  0  0
    4.0920   63.5200   70.4390 C   0  0  0  0  0  0  0  0  0  0  0  0
    4.5020   60.0210   71.9560 C   0  0  0  0  0  0  0  0  0  0  0  0
    3.6040   59.0490   72.6730 C   0  0  0  0  0  0  0  0  0  0  0  0
    2.7050   58.2470   71.9510 C   0  0  0  0  0  0  0  0  0  0  0  0
    1.8550   57.3640   72.6200 C   0  0  0  0  0  0  0  0  0  0  0  0
    1.8960   57.2700   74.0080 C   0  0  0  0  0  0  0  0  0  0  0  0
    2.7880   58.0570   74.7340 C   0  0  0  0  0  0  0  0  0  0  0  0
    3.6400   58.9410   74.0710 C   0  0  0  0  0  0  0  0  0  0  0  0
    1.0090   66.2497   68.6619 H   0  0  0  0  0  0  0  0  0  0  0  0
    3.2411   65.5567   65.6332 H   0  0  0  0  0  0  0  0  0  0  0  0
   -1.6256   68.7914   66.2574 H   0  0  0  0  0  0  0  0  0  0  0  0
    1.4378   68.9397   62.4184 H   0  0  0  0  0  0  0  0  0  0  0  0
    4.8840   64.4908   64.8208 H   0  0  0  0  0  0  0  0  0  0  0  0
    4.0468   63.9713   63.3188 H   0  0  0  0  0  0  0  0  0  0  0  0
    5.8275   64.2070   63.3188 H   0  0  0  0  0  0  0  0  0  0  0  0
    3.1139   69.6517   61.4419 H   0  0  0  0  0  0  0  0  0  0  0  0
    4.2559   69.0513   60.1921 H   0  0  0  0  0  0  0  0  0  0  0  0
    2.5490   68.4918   60.1921 H   0  0  0  0  0  0  0  0  0  0  0  0
   -0.5615   67.0273   70.8381 H   0  0  0  0  0  0  0  0  0  0  0  0
   -1.3168   65.5064   70.1709 H   0  0  0  0  0  0  0  0  0  0  0  0
    0.8464   65.7454   71.9777 H   0  0  0  0  0  0  0  0  0  0  0  0
    0.1467   64.2539   71.1398 H   0  0  0  0  0  0  0  0  0  0  0  0
    1.7895   65.1398   69.2345 H   0  0  0  0  0  0  0  0  0  0  0  0
    2.6729   65.6642   70.7755 H   0  0  0  0  0  0  0  0  0  0  0  0
    2.2416   62.9810   69.6098 H   0  0  0  0  0  0  0  0  0  0  0  0
    1.8231   63.7671   72.5000 H   0  0  0  0  0  0  0  0  0  0  0  0
    1.1511   62.3595   71.5355 H   0  0  0  0  0  0  0  0  0  0  0  0
    3.7304   62.5583   73.0857 H   0  0  0  0  0  0  0  0  0  0  0  0
    2.4633   61.2911   73.1191 H   0  0  0  0  0  0  0  0  0  0  0  0
    3.0322   60.8548   70.7841 H   0  0  0  0  0  0  0  0  0  0  0  0
    5.6370   62.1839   71.1141 H   0  0  0  0  0  0  0  0  0  0  0  0
    4.7673   61.6688   69.6050 H   0  0  0  0  0  0  0  0  0  0  0  0
    4.4829   64.1529   71.2493 H   0  0  0  0  0  0  0  0  0  0  0  0
    4.3984   63.8772   69.4448 H   0  0  0  0  0  0  0  0  0  0  0  0
    4.9831   59.4997   71.1153 H   0  0  0  0  0  0  0  0  0  0  0  0
    5.2388   60.3891   72.6852 H   0  0  0  0  0  0  0  0  0  0  0  0
    2.6704   58.3148   70.8536 H   0  0  0  0  0  0  0  0  0  0  0  0
    1.1512   56.7411   72.0485 H   0  0  0  0  0  0  0  0  0  0  0  0
    1.2242   56.5743   74.5321 H   0  0  0  0  0  0  0  0  0  0  0  0
    2.8204   57.9812   75.8309 H   0  0  0  0  0  0  0  0  0  0  0  0
    4.3446   59.5573   74.6486 H   0  0  0  0  0  0  0  0  0  0  0  0
  2  1  2  0
  3  1  1  0
  5  4  2  0
  6  5  1  0
  7  6  1  0
  8  7  1  0
  8  1  1  0
  9  8  2  0
 10  9  1  0
 11 10  2  0
 12 10  1  0
 12  6  2  0
 13 12  1  0
 14 13  2  0
 14  4  1  0
 16 15  1  0
 16  4  1  0
 17 14  1  0
 18 17  1  0
 19  3  1  0
 20 19  1  0
 21 20  1  0
 22 21  1  0
 23 22  1  0
 24 23  1  0
 25 24  1  0
 26 25  1  0
 27 26  1  0
 27 22  1  0
 28 25  1  0
 29 28  1  0
 30 29  2  0
 31 30  1  0
 32 31  2  0
 33 32  1  0
 34 33  2  0
 34 29  1  0
  3 35  1  0
  5 36  1  0
  9 37  1  0
 13 38  1  0
 15 39  1  0
 15 40  1  0
 15 41  1  0
 18 42  1  0
 18 43  1  0
 18 44  1  0
 19 45  1  0
 19 46  1  0
 20 47  1  0
 20 48  1  0
 21 49  1  0
 21 50  1  0
 22 51  1  0
 23 52  1  0
 23 53  1  0
 24 54  1  0
 24 55  1  0
 25 56  1  0
 26 57  1  0
 26 58  1  0
 27 59  1  0
 27 60  1  0
 28 61  1  0
 28 62  1  0
 30 63  1  0
 31 64  1  0
 32 65  1  0
 33 66  1  0
 34 67  1  0
M  CHG  1  25   1
M  END
>  <score>  (1) 
-10.121

$$$$
=
     RDKit          3D

 67 70  0  0  0  0  0  0  0  0999 V2000
   -0.1240   67.3740   68.0060 C   0  0  0  0  0  0  0  0  0  0  0  0
   -1.2850   67.7720   68.0430 O   0  0  0  0  0  0  0  0  0  0  0  0
    0.4240   66.5420   68.9530 N   0  0  0  0  0  0  0  0  0  0  0  0
    4.9180   69.8450   65.6010 C   0  0  0  0  0  0  0  0  0  0  0  0
    3.9910   69.4750   66.5840 C   0  0  0  0  0  0  0  0  0  0  0  0
    2.8440   68.7670   66.2260 C   0  0  0  0  0  0  0  0  0  0  0  0
    1.9750   68.4290   67.2360 O   0  0  0  0  0  0  0  0  0  0  0  0
    0.8220   67.7350   66.9030 C   0  0  0  0  0  0  0  0  0  0  0  0
    0.4940   67.3560   65.6600 C   0  0  0  0  0  0  0  0  0  0  0  0
    1.4010   67.6810   64.5520 C   0  0  0  0  0  0  0  0  0  0  0  0
    1.1430   67.3330   63.4080 O   0  0  0  0  0  0  0  0  0  0  0  0
    2.6190   68.4290   64.8950 C   0  0  0  0  0  0  0  0  0  0  0  0
    3.5340   68.7910   63.9030 C   0  0  0  0  0  0  0  0  0  0  0  0
    4.6880   69.5000   64.2500 C   0  0  0  0  0  0  0  0  0  0  0  0
    6.5110   70.6450   67.2010 C   0  0  0  0  0  0  0  0  0  0  0  0
    6.0740   70.5390   65.8540 O   0  0  0  0  0  0  0  0  0  0  0  0
    5.6490   69.9020   63.3570 O   0  0  0  0  0  0  0  0  0  0  0  0
    5.5540   69.4240   62.0210 C   0  0  0  0  0  0  0  0  0  0  0  0
   -0.2970   66.1110   70.1310 C   0  0  0  0  0  0  0  0  0  0  0  0
    0.5130   65.1660   71.0240 C   0  0  0  0  0  0  0  0  0  0  0  0
    1.9870   64.9720   70.6420 C   0  0  0  0  0  0  0  0  0  0  0  0
    2.5580   63.5440   70.7870 C   0  0  0  0  0  0  0  0  0  0  0  0
    2.1010   62.9540   72.1410 C   0  0  0  0  0  0  0  0  0  0  0  0
    3.0820   61.9640   72.7590 C   0  0  0  0  0  0  0  0  0  0  0  0
    3.7240   61.1640   71.6640 N   0  0  0  0  0  4  0  0  0  0  0  0
    4.6060   62.0130   70.7880 C   0  0  0  0  0  0  0  0  0  0  0  0
    4.0770   63.4390   70.6450 C   0  0  0  0  0  0  0  0  0  0  0  0
    4.4580   59.9380   72.1650 C   0  0  0  0  0  0  0  0  0  0  0  0
    3.5430   58.9240   72.7970 C   0  0  0  0  0  0  0  0  0  0  0  0
    2.6180   58.2150   72.0120 C   0  0  0  0  0  0  0  0  0  0  0  0
    1.7530   57.2930   72.6030 C   0  0  0  0  0  0  0  0  0  0  0  0
    1.8030   57.0680   73.9760 C   0  0  0  0  0  0  0  0  0  0  0  0
    2.7200   57.7610   74.7640 C   0  0  0  0  0  0  0  0  0  0  0  0
    3.5880   58.6840   74.1780 C   0  0  0  0  0  0  0  0  0  0  0  0
    1.3900   66.2110   68.8181 H   0  0  0  0  0  0  0  0  0  0  0  0
    4.1675   69.7424   67.6363 H   0  0  0  0  0  0  0  0  0  0  0  0
   -0.4418   66.8090   65.4725 H   0  0  0  0  0  0  0  0  0  0  0  0
    3.3472   68.5193   62.8536 H   0  0  0  0  0  0  0  0  0  0  0  0
    5.6678   70.4405   67.8772 H   0  0  0  0  0  0  0  0  0  0  0  0
    7.3136   69.9155   67.3846 H   0  0  0  0  0  0  0  0  0  0  0  0
    6.8901   71.6611   67.3846 H   0  0  0  0  0  0  0  0  0  0  0  0
    5.3396   68.3452   62.0319 H   0  0  0  0  0  0  0  0  0  0  0  0
    4.7436   69.9536   61.4988 H   0  0  0  0  0  0  0  0  0  0  0  0
    6.5054   69.6035   61.4988 H   0  0  0  0  0  0  0  0  0  0  0  0
   -0.5687   67.0000   70.7190 H   0  0  0  0  0  0  0  0  0  0  0  0
   -1.1821   65.5559   69.7868 H   0  0  0  0  0  0  0  0  0  0  0  0
    0.4812   65.5632   72.0493 H   0  0  0  0  0  0  0  0  0  0  0  0
    0.0455   64.1771   70.9076 H   0  0  0  0  0  0  0  0  0  0  0  0
    2.1010   65.2715   69.5897 H   0  0  0  0  0  0  0  0  0  0  0  0
    2.5547   65.5849   71.3576 H   0  0  0  0  0  0  0  0  0  0  0  0
    2.1563   62.9635   69.9434 H   0  0  0  0  0  0  0  0  0  0  0  0
    1.9590   63.7846   72.8480 H   0  0  0  0  0  0  0  0  0  0  0  0
    1.1738   62.3960   71.9437 H   0  0  0  0  0  0  0  0  0  0  0  0
    3.8554   62.5113   73.3178 H   0  0  0  0  0  0  0  0  0  0  0  0
    2.5478   61.2915   73.4462 H   0  0  0  0  0  0  0  0  0  0  0  0
    2.9465   60.8162   71.0849 H   0  0  0  0  0  0  0  0  0  0  0  0
    5.6126   62.0513   71.2300 H   0  0  0  0  0  0  0  0  0  0  0  0
    4.6253   61.5582   69.7866 H   0  0  0  0  0  0  0  0  0  0  0  0
    4.5431   64.0627   71.4220 H   0  0  0  0  0  0  0  0  0  0  0  0
    4.3309   63.7777   69.6297 H   0  0  0  0  0  0  0  0  0  0  0  0
    4.9720   59.4652   71.3152 H   0  0  0  0  0  0  0  0  0  0  0  0
    5.1658   60.2707   72.9385 H   0  0  0  0  0  0  0  0  0  0  0  0
    2.5755   58.3875   70.9264 H   0  0  0  0  0  0  0  0  0  0  0  0
    1.0301   56.7429   71.9827 H   0  0  0  0  0  0  0  0  0  0  0  0
    1.1181   56.3426   74.4392 H   0  0  0  0  0  0  0  0  0  0  0  0
    2.7599   57.5806   75.8484 H   0  0  0  0  0  0  0  0  0  0  0  0
    4.3120   59.2266   74.8036 H   0  0  0  0  0  0  0  0  0  0  0  0
  2  1  2  0
  3  1  1  0
  5  4  2  0
  6  5  1  0
  7  6  1  0
  8  7  1  0
  8  1  1  0
  9  8  2  0
 10  9  1  0
 11 10  2  0
 12 10  1  0
 12  6  2  0
 13 12  1  0
 14 13  2  0
 14  4  1  0
 16 15  1  0
 16  4  1  0
 17 14  1  0
 18 17  1  0
 19  3  1  0
 20 19  1  0
 21 20  1  0
 22 21  1  0
 23 22  1  0
 24 23  1  0
 25 24  1  0
 26 25  1  0
 27 26  1  0
 27 22  1  0
 28 25  1  0
 29 28  1  0
 30 29  2  0
 31 30  1  0
 32 31  2  0
 33 32  1  0
 34 33  2  0
 34 29  1  0
  3 35  1  0
  5 36  1  0
  9 37  1  0
 13 38  1  0
 15 39  1  0
 15 40  1  0
 15 41  1  0
 18 42  1  0
 18 43  1  0
 18 44  1  0
 19 45  1  0
 19 46  1  0
 20 47  1  0
 20 48  1  0
 21 49  1  0
 21 50  1  0
 22 51  1  0
 23 52  1  0
 23 53  1  0
 24 54  1  0
 24 55  1  0
 25 56  1  0
 26 57  1  0
 26 58  1  0
 27 59  1  0
 27 60  1  0
 28 61  1  0
 28 62  1  0
 30 63  1  0
 31 64  1  0
 32 65  1  0
 33 66  1  0
 34 67  1  0
M  CHG  1  25   1
M  END
>  <score>  (2) 
-9.994

$$$$
=
     RDKit          3D

 67 70  0  0  0  0  0  0  0  0999 V2000
    3.2120   62.1570   71.0160 C   0  0  0  0  0  0  0  0  0  0  0  0
    4.3480   62.6200   70.9630 O   0  0  0  0  0  0  0  0  0  0  0  0
    2.0830   62.8760   70.7020 N   0  0  0  0  0  0  0  0  0  0  0  0
    0.5630   57.7180   74.2700 C   0  0  0  0  0  0  0  0  0  0  0  0
    0.8690   59.0190   73.8500 C   0  0  0  0  0  0  0  0  0  0  0  0
    1.7720   59.2180   72.8060 C   0  0  0  0  0  0  0  0  0  0  0  0
    2.0290   60.5170   72.4380 O   0  0  0  0  0  0  0  0  0  0  0  0
    2.9320   60.7400   71.4100 C   0  0  0  0  0  0  0  0  0  0  0  0
    3.5710   59.7740   70.7350 C   0  0  0  0  0  0  0  0  0  0  0  0
    3.3140   58.3710   71.0830 C   0  0  0  0  0  0  0  0  0  0  0  0
    3.8650   57.4640   70.4740 O   0  0  0  0  0  0  0  0  0  0  0  0
    2.3690   58.1260   72.1810 C   0  0  0  0  0  0  0  0  0  0  0  0
    2.0720   56.8230   72.5880 C   0  0  0  0  0  0  0  0  0  0  0  0
    1.1680   56.6110   73.6330 C   0  0  0  0  0  0  0  0  0  0  0  0
   -1.6970   57.6550   75.0630 C   0  0  0  0  0  0  0  0  0  0  0  0
   -0.3130   57.4210   75.2830 O   0  0  0  0  0  0  0  0  0  0  0  0
    0.8080   55.3760   74.1080 O   0  0  0  0  0  0  0  0  0  0  0  0
    1.7750   54.3340   74.0510 C   0  0  0  0  0  0  0  0  0  0  0  0
    2.1200   64.2780   70.3450 C   0  0  0  0  0  0  0  0  0  0  0  0
    0.7860   64.9950   70.5760 C   0  0  0  0  0  0  0  0  0  0  0  0
    0.7470   66.4850   70.2110 C   0  0  0  0  0  0  0  0  0  0  0  0
    0.4280   66.8300   68.7390 C   0  0  0  0  0  0  0  0  0  0  0  0
    1.1200   68.1620   68.3720 C   0  0  0  0  0  0  0  0  0  0  0  0
    0.3830   68.9870   67.3230 C   0  0  0  0  0  0  0  0  0  0  0  0
   -0.2420   68.0580   66.3230 N   0  0  0  0  0  4  0  0  0  0  0  0
   -1.3390   67.2270   66.9340 C   0  0  0  0  0  0  0  0  0  0  0  0
   -1.0610   66.8900   68.3980 C   0  0  0  0  0  0  0  0  0  0  0  0
   -0.7130   68.7570   65.0660 C   0  0  0  0  0  0  0  0  0  0  0  0
    0.3240   68.7630   63.9750 C   0  0  0  0  0  0  0  0  0  0  0  0
    0.0140   69.2740   62.7030 C   0  0  0  0  0  0  0  0  0  0  0  0
    0.9690   69.2560   61.6850 C   0  0  0  0  0  0  0  0  0  0  0  0
    2.2370   68.7330   61.9250 C   0  0  0  0  0  0  0  0  0  0  0  0
    2.5570   68.2290   63.1840 C   0  0  0  0  0  0  0  0  0  0  0  0
    1.6060   68.2450   64.2060 C   0  0  0  0  0  0  0  0  0  0  0  0
    1.1718   62.3963   70.7217 H   0  0  0  0  0  0  0  0  0  0  0  0
    0.3978   59.8822   74.3429 H   0  0  0  0  0  0  0  0  0  0  0  0
    4.2779   60.0289   69.9317 H   0  0  0  0  0  0  0  0  0  0  0  0
    2.5479   55.9667   72.0878 H   0  0  0  0  0  0  0  0  0  0  0  0
   -2.2125   57.7422   76.0308 H   0  0  0  0  0  0  0  0  0  0  0  0
   -1.8253   58.5876   74.4939 H   0  0  0  0  0  0  0  0  0  0  0  0
   -2.1247   56.8164   74.4939 H   0  0  0  0  0  0  0  0  0  0  0  0
    2.0525   54.0350   75.0726 H   0  0  0  0  0  0  0  0  0  0  0  0
    1.3518   53.4697   73.5182 H   0  0  0  0  0  0  0  0  0  0  0  0
    2.6684   54.6916   73.5182 H   0  0  0  0  0  0  0  0  0  0  0  0
    2.8926   64.7730   70.9517 H   0  0  0  0  0  0  0  0  0  0  0  0
    2.3400   64.3356   69.2688 H   0  0  0  0  0  0  0  0  0  0  0  0
    0.0205   64.4819   69.9753 H   0  0  0  0  0  0  0  0  0  0  0  0
    0.6124   64.9526   71.6614 H   0  0  0  0  0  0  0  0  0  0  0  0
   -0.0197   66.9622   70.8390 H   0  0  0  0  0  0  0  0  0  0  0  0
    1.7707   66.8509   70.3787 H   0  0  0  0  0  0  0  0  0  0  0  0
    0.8202   65.9983   68.1353 H   0  0  0  0  0  0  0  0  0  0  0  0
    1.2078   68.7673   69.2863 H   0  0  0  0  0  0  0  0  0  0  0  0
    2.0952   67.8992   67.9361 H   0  0  0  0  0  0  0  0  0  0  0  0
   -0.4003   69.5871   67.8090 H   0  0  0  0  0  0  0  0  0  0  0  0
    1.0895   69.6599   66.8150 H   0  0  0  0  0  0  0  0  0  0  0  0
    0.5113   67.4190   66.0314 H   0  0  0  0  0  0  0  0  0  0  0  0
   -2.2837   67.7872   66.8727 H   0  0  0  0  0  0  0  0  0  0  0  0
   -1.3972   66.2813   66.3751 H   0  0  0  0  0  0  0  0  0  0  0  0
   -1.5314   67.6596   69.0276 H   0  0  0  0  0  0  0  0  0  0  0  0
   -1.4754   65.8880   68.5832 H   0  0  0  0  0  0  0  0  0  0  0  0
   -1.6110   68.2422   64.6937 H   0  0  0  0  0  0  0  0  0  0  0  0
   -0.9209   69.8046   65.3293 H   0  0  0  0  0  0  0  0  0  0  0  0
   -0.9856   69.6900   62.5087 H   0  0  0  0  0  0  0  0  0  0  0  0
    0.7193   69.6558   60.6911 H   0  0  0  0  0  0  0  0  0  0  0  0
    2.9866   68.7177   61.1201 H   0  0  0  0  0  0  0  0  0  0  0  0
    3.5598   67.8182   63.3728 H   0  0  0  0  0  0  0  0  0  0  0  0
    1.8644   67.8485   65.1990 H   0  0  0  0  0  0  0  0  0  0  0  0
  2  1  2  0
  3  1  1  0
  5  4  2  0
  6  5  1  0
  7  6  1  0
  8  7  1  0
  8  1  1  0
  9  8  2  0
 10  9  1  0
 11 10  2  0
 12 10  1  0
 12  6  2  0
 13 12  1  0
 14 13  2  0
 14  4  1  0
 16 15  1  0
 16  4  1  0
 17 14  1  0
 18 17  1  0
 19  3  1  0
 20 19  1  0
 21 20  1  0
 22 21  1  0
 23 22  1  0
 24 23  1  0
 25 24  1  0
 26 25  1  0
 27 26  1  0
 27 22  1  0
 28 25  1  0
 29 28  1  0
 30 29  2  0
 31 30  1  0
 32 31  2  0
 33 32  1  0
 34 33  2  0
 34 29  1  0
  3 35  1  0
  5 36  1  0
  9 37  1  0
 13 38  1  0
 15 39  1  0
 15 40  1  0
 15 41  1  0
 18 42  1  0
 18 43  1  0
 18 44  1  0
 19 45  1  0
 19 46  1  0
 20 47  1  0
 20 48  1  0
 21 49  1  0
 21 50  1  0
 22 51  1  0
 23 52  1  0
 23 53  1  0
 24 54  1  0
 24 55  1  0
 25 56  1  0
 26 57  1  0
 26 58  1  0
 27 59  1  0
 27 60  1  0
 28 61  1  0
 28 62  1  0
 30 63  1  0
 31 64  1  0
 32 65  1  0
 33 66  1  0
 34 67  1  0
M  CHG  1  25   1
M  END
>  <score>  (3) 
-9.874

$$$$
=
     RDKit          3D

 67 70  0  0  0  0  0  0  0  0999 V2000
    1.1270   67.3480   68.7620 C   0  0  0  0  0  0  0  0  0  0  0  0
    1.8500   67.9790   69.5270 O   0  0  0  0  0  0  0  0  0  0  0  0
    0.4600   66.2000   69.1210 N   0  0  0  0  0  0  0  0  0  0  0  0
    2.6600   68.7230   63.0120 C   0  0  0  0  0  0  0  0  0  0  0  0
    2.8280   68.3280   64.3450 C   0  0  0  0  0  0  0  0  0  0  0  0
    1.7230   68.2480   65.1920 C   0  0  0  0  0  0  0  0  0  0  0  0
    1.9530   67.8510   66.4870 O   0  0  0  0  0  0  0  0  0  0  0  0
    0.8710   67.7750   67.3500 C   0  0  0  0  0  0  0  0  0  0  0  0
   -0.3950   68.0520   67.0100 C   0  0  0  0  0  0  0  0  0  0  0  0
   -0.6900   68.4640   65.6320 C   0  0  0  0  0  0  0  0  0  0  0  0
   -1.8370   68.7040   65.2810 O   0  0  0  0  0  0  0  0  0  0  0  0
    0.4540   68.5600   64.7140 C   0  0  0  0  0  0  0  0  0  0  0  0
    0.2690   68.9540   63.3860 C   0  0  0  0  0  0  0  0  0  0  0  0
    1.3700   69.0380   62.5280 C   0  0  0  0  0  0  0  0  0  0  0  0
    4.9950   69.0600   62.5950 C   0  0  0  0  0  0  0  0  0  0  0  0
    3.6820   68.8280   62.1030 O   0  0  0  0  0  0  0  0  0  0  0  0
    1.2990   69.4120   61.2100 O   0  0  0  0  0  0  0  0  0  0  0  0
    0.0450   69.8660   60.7160 C   0  0  0  0  0  0  0  0  0  0  0  0
    0.6050   65.5830   70.4220 C   0  0  0  0  0  0  0  0  0  0  0  0
    1.9690   64.9150   70.6250 C   0  0  0  0  0  0  0  0  0  0  0  0
    2.2530   63.6790   69.7610 C   0  0  0  0  0  0  0  0  0  0  0  0
    2.1810   62.3080   70.4690 C   0  0  0  0  0  0  0  0  0  0  0  0
    2.2640   62.5250   71.9970 C   0  0  0  0  0  0  0  0  0  0  0  0
    2.9200   61.3810   72.7620 C   0  0  0  0  0  0  0  0  0  0  0  0
    2.5410   60.0810   72.1140 N   0  0  0  0  0  4  0  0  0  0  0  0
    3.1280   59.9460   70.7330 C   0  0  0  0  0  0  0  0  0  0  0  0
    3.2310   61.2920   70.0170 C   0  0  0  0  0  0  0  0  0  0  0  0
    2.8540   58.8700   72.9670 C   0  0  0  0  0  0  0  0  0  0  0  0
    1.6280   58.0810   73.3380 C   0  0  0  0  0  0  0  0  0  0  0  0
    0.4640   58.7370   73.7700 C   0  0  0  0  0  0  0  0  0  0  0  0
   -0.6640   58.0020   74.1380 C   0  0  0  0  0  0  0  0  0  0  0  0
   -0.6430   56.6110   74.0760 C   0  0  0  0  0  0  0  0  0  0  0  0
    0.5040   55.9500   73.6440 C   0  0  0  0  0  0  0  0  0  0  0  0
    1.6350   56.6800   73.2740 C   0  0  0  0  0  0  0  0  0  0  0  0
   -0.1697   65.7606   68.4345 H   0  0  0  0  0  0  0  0  0  0  0  0
    3.8308   68.0810   64.7237 H   0  0  0  0  0  0  0  0  0  0  0  0
   -1.2022   67.9719   67.7530 H   0  0  0  0  0  0  0  0  0  0  0  0
   -0.7384   69.1970   63.0172 H   0  0  0  0  0  0  0  0  0  0  0  0
    4.9802   69.0574   63.6949 H   0  0  0  0  0  0  0  0  0  0  0  0
    5.6668   68.2666   62.2355 H   0  0  0  0  0  0  0  0  0  0  0  0
    5.3542   70.0355   62.2355 H   0  0  0  0  0  0  0  0  0  0  0  0
   -0.6170   70.1057   61.5612 H   0  0  0  0  0  0  0  0  0  0  0  0
    0.1968   70.7662   60.1024 H   0  0  0  0  0  0  0  0  0  0  0  0
   -0.4147   69.0772   60.1024 H   0  0  0  0  0  0  0  0  0  0  0  0
    0.4770   66.3576   71.1924 H   0  0  0  0  0  0  0  0  0  0  0  0
   -0.1590   64.7952   70.4970 H   0  0  0  0  0  0  0  0  0  0  0  0
    2.7451   65.6632   70.4060 H   0  0  0  0  0  0  0  0  0  0  0  0
    1.9685   64.5542   71.6641 H   0  0  0  0  0  0  0  0  0  0  0  0
    1.5201   63.6698   68.9408 H   0  0  0  0  0  0  0  0  0  0  0  0
    3.2997   63.7845   69.4396 H   0  0  0  0  0  0  0  0  0  0  0  0
    1.2172   61.8626   70.1815 H   0  0  0  0  0  0  0  0  0  0  0  0
    2.8445   63.4406   72.1832 H   0  0  0  0  0  0  0  0  0  0  0  0
    1.2281   62.5919   72.3608 H   0  0  0  0  0  0  0  0  0  0  0  0
    4.0133   61.5002   72.7383 H   0  0  0  0  0  0  0  0  0  0  0  0
    2.5793   61.3889   73.8079 H   0  0  0  0  0  0  0  0  0  0  0  0
    1.5158   60.1094   72.0192 H   0  0  0  0  0  0  0  0  0  0  0  0
    4.1349   59.5110   70.8167 H   0  0  0  0  0  0  0  0  0  0  0  0
    2.4611   59.2995   70.1437 H   0  0  0  0  0  0  0  0  0  0  0  0
    4.2285   61.7134   70.2105 H   0  0  0  0  0  0  0  0  0  0  0  0
    3.0571   61.1025   68.9475 H   0  0  0  0  0  0  0  0  0  0  0  0
    3.5372   58.2141   72.4076 H   0  0  0  0  0  0  0  0  0  0  0  0
    3.3073   59.2332   73.9011 H   0  0  0  0  0  0  0  0  0  0  0  0
    0.4411   59.8357   73.8186 H   0  0  0  0  0  0  0  0  0  0  0  0
   -1.5715   58.5226   74.4777 H   0  0  0  0  0  0  0  0  0  0  0  0
   -1.5328   56.0341   74.3684 H   0  0  0  0  0  0  0  0  0  0  0  0
    0.5189   54.8512   73.5942 H   0  0  0  0  0  0  0  0  0  0  0  0
    2.5373   56.1531   72.9301 H   0  0  0  0  0  0  0  0  0  0  0  0
  2  1  2  0
  3  1  1  0
  5  4  2  0
  6  5  1  0
  7  6  1  0
  8  7  1  0
  8  1  1  0
  9  8  2  0
 10  9  1  0
 11 10  2  0
 12 10  1  0
 12  6  2  0
 13 12  1  0
 14 13  2  0
 14  4  1  0
 16 15  1  0
 16  4  1  0
 17 14  1  0
 18 17  1  0
 19  3  1  0
 20 19  1  0
 21 20  1  0
 22 21  1  0
 23 22  1  0
 24 23  1  0
 25 24  1  0
 26 25  1  0
 27 26  1  0
 27 22  1  0
 28 25  1  0
 29 28  1  0
 30 29  2  0
 31 30  1  0
 32 31  2  0
 33 32  1  0
 34 33  2  0
 34 29  1  0
  3 35  1  0
  5 36  1  0
  9 37  1  0
 13 38  1  0
 15 39  1  0
 15 40  1  0
 15 41  1  0
 18 42  1  0
 18 43  1  0
 18 44  1  0
 19 45  1  0
 19 46  1  0
 20 47  1  0
 20 48  1  0
 21 49  1  0
 21 50  1  0
 22 51  1  0
 23 52  1  0
 23 53  1  0
 24 54  1  0
 24 55  1  0
 25 56  1  0
 26 57  1  0
 26 58  1  0
 27 59  1  0
 27 60  1  0
 28 61  1  0
 28 62  1  0
 30 63  1  0
 31 64  1  0
 32 65  1  0
 33 66  1  0
 34 67  1  0
M  CHG  1  25   1
M  END
>  <score>  (4) 
-9.864

$$$$
=
     RDKit          3D

 67 70  0  0  0  0  0  0  0  0999 V2000
    2.8060   63.0410   70.7750 C   0  0  0  0  0  0  0  0  0  0  0  0
    3.8830   63.6150   70.6430 O   0  0  0  0  0  0  0  0  0  0  0  0
    1.5900   63.6590   70.6050 N   0  0  0  0  0  0  0  0  0  0  0  0
    0.7290   58.2000   73.8670 C   0  0  0  0  0  0  0  0  0  0  0  0
    0.8760   59.5420   73.4960 C   0  0  0  0  0  0  0  0  0  0  0  0
    1.7400   59.8860   72.4570 C   0  0  0  0  0  0  0  0  0  0  0  0
    1.8370   61.2200   72.1380 O   0  0  0  0  0  0  0  0  0  0  0  0
    2.6990   61.5860   71.1150 C   0  0  0  0  0  0  0  0  0  0  0  0
    3.4430   60.7300   70.4020 C   0  0  0  0  0  0  0  0  0  0  0  0
    3.3570   59.2940   70.6970 C   0  0  0  0  0  0  0  0  0  0  0  0
    4.0070   58.4820   70.0520 O   0  0  0  0  0  0  0  0  0  0  0  0
    2.4570   58.8980   71.7890 C   0  0  0  0  0  0  0  0  0  0  0  0
    2.3200   57.5540   72.1470 C   0  0  0  0  0  0  0  0  0  0  0  0
    1.4570   57.1970   73.1870 C   0  0  0  0  0  0  0  0  0  0  0  0
   -0.7510   58.7360   75.6720 C   0  0  0  0  0  0  0  0  0  0  0  0
   -0.0960   57.7620   74.8720 O   0  0  0  0  0  0  0  0  0  0  0  0
    1.2500   55.9110   73.6150 O   0  0  0  0  0  0  0  0  0  0  0  0
    2.1960   55.3500   74.5170 C   0  0  0  0  0  0  0  0  0  0  0  0
    1.4600   65.0720   70.3230 C   0  0  0  0  0  0  0  0  0  0  0  0
    0.0050   65.5460   70.2670 C   0  0  0  0  0  0  0  0  0  0  0  0
   -0.3680   66.4490   69.0840 C   0  0  0  0  0  0  0  0  0  0  0  0
    0.8000   66.9890   68.2290 C   0  0  0  0  0  0  0  0  0  0  0  0
    1.5150   68.1160   69.0090 C   0  0  0  0  0  0  0  0  0  0  0  0
    2.1390   69.1930   68.1280 C   0  0  0  0  0  0  0  0  0  0  0  0
    2.6820   68.5510   66.8850 N   0  0  0  0  0  4  0  0  0  0  0  0
    1.5880   67.9940   66.0130 C   0  0  0  0  0  0  0  0  0  0  0  0
    0.4080   67.4720   66.8320 C   0  0  0  0  0  0  0  0  0  0  0  0
    3.6080   69.4550   66.0980 C   0  0  0  0  0  0  0  0  0  0  0  0
    4.7440   69.9940   66.9250 C   0  0  0  0  0  0  0  0  0  0  0  0
    6.0600   69.9560   66.4360 C   0  0  0  0  0  0  0  0  0  0  0  0
    7.1160   70.4330   67.2140 C   0  0  0  0  0  0  0  0  0  0  0  0
    6.8700   70.9530   68.4820 C   0  0  0  0  0  0  0  0  0  0  0  0
    5.5680   71.0010   68.9760 C   0  0  0  0  0  0  0  0  0  0  0  0
    4.5080   70.5260   68.2010 C   0  0  0  0  0  0  0  0  0  0  0  0
    0.7340   63.0913   70.6817 H   0  0  0  0  0  0  0  0  0  0  0  0
    0.3105   60.3242   74.0236 H   0  0  0  0  0  0  0  0  0  0  0  0
    4.1087   61.0974   69.6071 H   0  0  0  0  0  0  0  0  0  0  0  0
    2.8894   56.7797   71.6121 H   0  0  0  0  0  0  0  0  0  0  0  0
   -0.5941   58.5027   76.7355 H   0  0  0  0  0  0  0  0  0  0  0  0
   -0.3378   59.7310   75.4500 H   0  0  0  0  0  0  0  0  0  0  0  0
   -1.8283   58.7286   75.4500 H   0  0  0  0  0  0  0  0  0  0  0  0
    1.8742   55.5408   75.5514 H   0  0  0  0  0  0  0  0  0  0  0  0
    2.2646   54.2651   74.3486 H   0  0  0  0  0  0  0  0  0  0  0  0
    3.1808   55.8102   74.3486 H   0  0  0  0  0  0  0  0  0  0  0  0
    1.9807   65.6350   71.1116 H   0  0  0  0  0  0  0  0  0  0  0  0
    1.8990   65.2483   69.3299 H   0  0  0  0  0  0  0  0  0  0  0  0
   -0.6372   64.6540   70.2239 H   0  0  0  0  0  0  0  0  0  0  0  0
   -0.1382   66.1639   71.1657 H   0  0  0  0  0  0  0  0  0  0  0  0
   -1.0287   65.8725   68.4198 H   0  0  0  0  0  0  0  0  0  0  0  0
   -0.8326   67.3387   69.5342 H   0  0  0  0  0  0  0  0  0  0  0  0
    1.4734   66.1374   68.0521 H   0  0  0  0  0  0  0  0  0  0  0  0
    0.7796   68.5964   69.6711 H   0  0  0  0  0  0  0  0  0  0  0  0
    2.3414   67.6421   69.5589 H   0  0  0  0  0  0  0  0  0  0  0  0
    1.3748   69.9359   67.8560 H   0  0  0  0  0  0  0  0  0  0  0  0
    2.9517   69.6953   68.6732 H   0  0  0  0  0  0  0  0  0  0  0  0
    3.2573   67.7613   67.2111 H   0  0  0  0  0  0  0  0  0  0  0  0
    1.2299   68.7890   65.3423 H   0  0  0  0  0  0  0  0  0  0  0  0
    2.0053   67.1495   65.4449 H   0  0  0  0  0  0  0  0  0  0  0  0
   -0.3279   68.2827   66.9379 H   0  0  0  0  0  0  0  0  0  0  0  0
   -0.0008   66.6046   66.2931 H   0  0  0  0  0  0  0  0  0  0  0  0
    4.0269   68.8821   65.2576 H   0  0  0  0  0  0  0  0  0  0  0  0
    3.0147   70.3145   65.7527 H   0  0  0  0  0  0  0  0  0  0  0  0
    6.2596   69.5480   65.4342 H   0  0  0  0  0  0  0  0  0  0  0  0
    8.1443   70.3981   66.8248 H   0  0  0  0  0  0  0  0  0  0  0  0
    7.7042   71.3262   69.0942 H   0  0  0  0  0  0  0  0  0  0  0  0
    5.3750   71.4134   69.9773 H   0  0  0  0  0  0  0  0  0  0  0  0
    3.4814   70.5694   68.5938 H   0  0  0  0  0  0  0  0  0  0  0  0
  2  1  2  0
  3  1  1  0
  5  4  2  0
  6  5  1  0
  7  6  1  0
  8  7  1  0
  8  1  1  0
  9  8  2  0
 10  9  1  0
 11 10  2  0
 12 10  1  0
 12  6  2  0
 13 12  1  0
 14 13  2  0
 14  4  1  0
 16 15  1  0
 16  4  1  0
 17 14  1  0
 18 17  1  0
 19  3  1  0
 20 19  1  0
 21 20  1  0
 22 21  1  0
 23 22  1  0
 24 23  1  0
 25 24  1  0
 26 25  1  0
 27 26  1  0
 27 22  1  0
 28 25  1  0
 29 28  1  0
 30 29  2  0
 31 30  1  0
 32 31  2  0
 33 32  1  0
 34 33  2  0
 34 29  1  0
  3 35  1  0
  5 36  1  0
  9 37  1  0
 13 38  1  0
 15 39  1  0
 15 40  1  0
 15 41  1  0
 18 42  1  0
 18 43  1  0
 18 44  1  0
 19 45  1  0
 19 46  1  0
 20 47  1  0
 20 48  1  0
 21 49  1  0
 21 50  1  0
 22 51  1  0
 23 52  1  0
 23 53  1  0
 24 54  1  0
 24 55  1  0
 25 56  1  0
 26 57  1  0
 26 58  1  0
 27 59  1  0
 27 60  1  0
 28 61  1  0
 28 62  1  0
 30 63  1  0
 31 64  1  0
 32 65  1  0
 33 66  1  0
 34 67  1  0
M  CHG  1  25   1
M  END
>  <score>  (5) 
-9.545

$$$$
=
     RDKit          3D

 67 70  0  0  0  0  0  0  0  0999 V2000
   -0.2510   67.4790   67.5630 C   0  0  0  0  0  0  0  0  0  0  0  0
   -1.3090   68.0700   67.7580 O   0  0  0  0  0  0  0  0  0  0  0  0
    0.2900   66.5770   68.4490 N   0  0  0  0  0  0  0  0  0  0  0  0
    0.8130   69.3650   61.8510 C   0  0  0  0  0  0  0  0  0  0  0  0
    0.1100   69.1640   63.0460 C   0  0  0  0  0  0  0  0  0  0  0  0
    0.7200   68.4940   64.1070 C   0  0  0  0  0  0  0  0  0  0  0  0
   -0.0210   68.3320   65.2540 O   0  0  0  0  0  0  0  0  0  0  0  0
    0.5610   67.6590   66.3180 C   0  0  0  0  0  0  0  0  0  0  0  0
    1.8040   67.1600   66.3150 C   0  0  0  0  0  0  0  0  0  0  0  0
    2.6370   67.3260   65.1170 C   0  0  0  0  0  0  0  0  0  0  0  0
    3.7840   66.9010   65.0880 O   0  0  0  0  0  0  0  0  0  0  0  0
    2.0240   68.0260   63.9800 C   0  0  0  0  0  0  0  0  0  0  0  0
    2.7380   68.2190   62.7950 C   0  0  0  0  0  0  0  0  0  0  0  0
    2.1380   68.8890   61.7250 C   0  0  0  0  0  0  0  0  0  0  0  0
   -1.0170   70.5350   60.8400 C   0  0  0  0  0  0  0  0  0  0  0  0
    0.3020   70.0130   60.7550 O   0  0  0  0  0  0  0  0  0  0  0  0
    2.7490   69.1320   60.5210 O   0  0  0  0  0  0  0  0  0  0  0  0
    4.1690   69.0570   60.4700 C   0  0  0  0  0  0  0  0  0  0  0  0
   -0.3040   66.2910   69.7370 C   0  0  0  0  0  0  0  0  0  0  0  0
    0.4180   65.1760   70.5000 C   0  0  0  0  0  0  0  0  0  0  0  0
    1.9170   65.0210   70.2140 C   0  0  0  0  0  0  0  0  0  0  0  0
    2.6820   63.9830   71.0660 C   0  0  0  0  0  0  0  0  0  0  0  0
    3.8840   63.4520   70.2530 C   0  0  0  0  0  0  0  0  0  0  0  0
    4.2740   62.0130   70.5720 C   0  0  0  0  0  0  0  0  0  0  0  0
    4.0730   61.7670   72.0390 N   0  0  0  0  0  4  0  0  0  0  0  0
    2.6190   61.8180   72.4260 C   0  0  0  0  0  0  0  0  0  0  0  0
    1.8330   62.8220   71.5840 C   0  0  0  0  0  0  0  0  0  0  0  0
    4.7320   60.4960   72.5310 C   0  0  0  0  0  0  0  0  0  0  0  0
    3.7960   59.3180   72.5470 C   0  0  0  0  0  0  0  0  0  0  0  0
    3.5490   58.5900   71.3720 C   0  0  0  0  0  0  0  0  0  0  0  0
    2.6610   57.5130   71.3830 C   0  0  0  0  0  0  0  0  0  0  0  0
    2.0150   57.1520   72.5620 C   0  0  0  0  0  0  0  0  0  0  0  0
    2.2550   57.8640   73.7360 C   0  0  0  0  0  0  0  0  0  0  0  0
    3.1430   58.9410   73.7310 C   0  0  0  0  0  0  0  0  0  0  0  0
    1.1548   66.0841   68.1845 H   0  0  0  0  0  0  0  0  0  0  0  0
   -0.9210   69.5337   63.1476 H   0  0  0  0  0  0  0  0  0  0  0  0
    2.1955   66.6331   67.1977 H   0  0  0  0  0  0  0  0  0  0  0  0
    3.7685   67.8451   62.7042 H   0  0  0  0  0  0  0  0  0  0  0  0
   -1.2996   70.6469   61.8972 H   0  0  0  0  0  0  0  0  0  0  0  0
   -1.0557   71.5162   60.3443 H   0  0  0  0  0  0  0  0  0  0  0  0
   -1.7167   69.8460   60.3443 H   0  0  0  0  0  0  0  0  0  0  0  0
    4.5720   69.0357   61.4933 H   0  0  0  0  0  0  0  0  0  0  0  0
    4.4690   68.1418   59.9386 H   0  0  0  0  0  0  0  0  0  0  0  0
    4.5637   69.9355   59.9386 H   0  0  0  0  0  0  0  0  0  0  0  0
   -0.2757   67.2065   70.3461 H   0  0  0  0  0  0  0  0  0  0  0  0
   -1.3331   65.9484   69.5537 H   0  0  0  0  0  0  0  0  0  0  0  0
    0.3002   65.3745   71.5755 H   0  0  0  0  0  0  0  0  0  0  0  0
   -0.0453   64.2383   70.1594 H   0  0  0  0  0  0  0  0  0  0  0  0
    2.0269   64.7319   69.1584 H   0  0  0  0  0  0  0  0  0  0  0  0
    2.3629   65.9927   70.4728 H   0  0  0  0  0  0  0  0  0  0  0  0
    3.0159   64.5117   71.9710 H   0  0  0  0  0  0  0  0  0  0  0  0
    3.6294   63.5106   69.1845 H   0  0  0  0  0  0  0  0  0  0  0  0
    4.7469   64.0783   70.5233 H   0  0  0  0  0  0  0  0  0  0  0  0
    3.6435   61.3227   69.9923 H   0  0  0  0  0  0  0  0  0  0  0  0
    5.3287   61.8461   70.3078 H   0  0  0  0  0  0  0  0  0  0  0  0
    4.5526   62.5431   72.5170 H   0  0  0  0  0  0  0  0  0  0  0  0
    2.1802   60.8189   72.2873 H   0  0  0  0  0  0  0  0  0  0  0  0
    2.5600   62.1386   73.4766 H   0  0  0  0  0  0  0  0  0  0  0  0
    1.4047   62.2919   70.7205 H   0  0  0  0  0  0  0  0  0  0  0  0
    1.0590   63.2537   72.2356 H   0  0  0  0  0  0  0  0  0  0  0  0
    5.5794   60.2617   71.8699 H   0  0  0  0  0  0  0  0  0  0  0  0
    5.0568   60.6729   73.5670 H   0  0  0  0  0  0  0  0  0  0  0  0
    4.0580   58.8699   70.4379 H   0  0  0  0  0  0  0  0  0  0  0  0
    2.4714   56.9485   70.4582 H   0  0  0  0  0  0  0  0  0  0  0  0
    1.3144   56.3040   72.5672 H   0  0  0  0  0  0  0  0  0  0  0  0
    1.7443   57.5770   74.6670 H   0  0  0  0  0  0  0  0  0  0  0  0
    3.3322   59.4977   74.6606 H   0  0  0  0  0  0  0  0  0  0  0  0
  2  1  2  0
  3  1  1  0
  5  4  2  0
  6  5  1  0
  7  6  1  0
  8  7  1  0
  8  1  1  0
  9  8  2  0
 10  9  1  0
 11 10  2  0
 12 10  1  0
 12  6  2  0
 13 12  1  0
 14 13  2  0
 14  4  1  0
 16 15  1  0
 16  4  1  0
 17 14  1  0
 18 17  1  0
 19  3  1  0
 20 19  1  0
 21 20  1  0
 22 21  1  0
 23 22  1  0
 24 23  1  0
 25 24  1  0
 26 25  1  0
 27 26  1  0
 27 22  1  0
 28 25  1  0
 29 28  1  0
 30 29  2  0
 31 30  1  0
 32 31  2  0
 33 32  1  0
 34 33  2  0
 34 29  1  0
  3 35  1  0
  5 36  1  0
  9 37  1  0
 13 38  1  0
 15 39  1  0
 15 40  1  0
 15 41  1  0
 18 42  1  0
 18 43  1  0
 18 44  1  0
 19 45  1  0
 19 46  1  0
 20 47  1  0
 20 48  1  0
 21 49  1  0
 21 50  1  0
 22 51  1  0
 23 52  1  0
 23 53  1  0
 24 54  1  0
 24 55  1  0
 25 56  1  0
 26 57  1  0
 26 58  1  0
 27 59  1  0
 27 60  1  0
 28 61  1  0
 28 62  1  0
 30 63  1  0
 31 64  1  0
 32 65  1  0
 33 66  1  0
 34 67  1  0
M  CHG  1  25   1
M  END
>  <score>  (6) 
-9.117

$$$$
=
     RDKit          3D

 67 70  0  0  0  0  0  0  0  0999 V2000
    1.1460   61.8510   72.2110 C   0  0  0  0  0  0  0  0  0  0  0  0
    2.1100   61.7140   71.4640 O   0  0  0  0  0  0  0  0  0  0  0  0
    0.5970   63.0720   72.5280 N   0  0  0  0  0  0  0  0  0  0  0  0
    0.5200   56.0560   74.0360 C   0  0  0  0  0  0  0  0  0  0  0  0
    1.1220   57.1810   73.4590 C   0  0  0  0  0  0  0  0  0  0  0  0
    0.4500   58.4030   73.4520 C   0  0  0  0  0  0  0  0  0  0  0  0
    1.0960   59.4700   72.8750 O   0  0  0  0  0  0  0  0  0  0  0  0
    0.4420   60.6930   72.8460 C   0  0  0  0  0  0  0  0  0  0  0  0
   -0.7780   60.9150   73.3530 C   0  0  0  0  0  0  0  0  0  0  0  0
   -1.4980   59.8080   73.9950 C   0  0  0  0  0  0  0  0  0  0  0  0
   -2.6050   59.9810   74.4860 O   0  0  0  0  0  0  0  0  0  0  0  0
   -0.8180   58.5050   74.0170 C   0  0  0  0  0  0  0  0  0  0  0  0
   -1.4310   57.3920   74.5970 C   0  0  0  0  0  0  0  0  0  0  0  0
   -0.7670   56.1620   74.6100 C   0  0  0  0  0  0  0  0  0  0  0  0
    2.2180   54.6360   74.9540 C   0  0  0  0  0  0  0  0  0  0  0  0
    1.1010   54.8140   74.0940 O   0  0  0  0  0  0  0  0  0  0  0  0
   -1.2780   55.0110   75.1530 O   0  0  0  0  0  0  0  0  0  0  0  0
   -2.6730   54.9670   75.4260 C   0  0  0  0  0  0  0  0  0  0  0  0
    1.1520   64.3250   72.0640 C   0  0  0  0  0  0  0  0  0  0  0  0
    0.5530   64.7950   70.7350 C   0  0  0  0  0  0  0  0  0  0  0  0
    0.9350   66.2110   70.2830 C   0  0  0  0  0  0  0  0  0  0  0  0
    0.5060   66.6240   68.8580 C   0  0  0  0  0  0  0  0  0  0  0  0
    1.1470   67.9870   68.5130 C   0  0  0  0  0  0  0  0  0  0  0  0
    0.3230   68.8490   67.5630 C   0  0  0  0  0  0  0  0  0  0  0  0
   -0.3560   67.9590   66.5630 N   0  0  0  0  0  4  0  0  0  0  0  0
   -1.3930   67.0760   67.2050 C   0  0  0  0  0  0  0  0  0  0  0  0
   -1.0050   66.6710   68.6270 C   0  0  0  0  0  0  0  0  0  0  0  0
   -0.9270   68.7120   65.3800 C   0  0  0  0  0  0  0  0  0  0  0  0
    0.0380   68.8190   64.2310 C   0  0  0  0  0  0  0  0  0  0  0  0
   -0.4140   69.1950   62.9550 C   0  0  0  0  0  0  0  0  0  0  0  0
    0.4780   69.2700   61.8850 C   0  0  0  0  0  0  0  0  0  0  0  0
    1.8250   68.9730   62.0750 C   0  0  0  0  0  0  0  0  0  0  0  0
    2.2860   68.6030   63.3370 C   0  0  0  0  0  0  0  0  0  0  0  0
    1.3980   68.5280   64.4120 C   0  0  0  0  0  0  0  0  0  0  0  0
   -0.2449   63.0951   73.1209 H   0  0  0  0  0  0  0  0  0  0  0  0
    2.1238   57.1009   73.0118 H   0  0  0  0  0  0  0  0  0  0  0  0
   -1.2345   61.9138   73.2892 H   0  0  0  0  0  0  0  0  0  0  0  0
   -2.4328   57.4831   75.0420 H   0  0  0  0  0  0  0  0  0  0  0  0
    1.8864   54.6888   76.0015 H   0  0  0  0  0  0  0  0  0  0  0  0
    2.6748   53.6537   74.7631 H   0  0  0  0  0  0  0  0  0  0  0  0
    2.9575   55.4276   74.7631 H   0  0  0  0  0  0  0  0  0  0  0  0
   -2.8337   54.9619   76.5142 H   0  0  0  0  0  0  0  0  0  0  0  0
   -3.1605   55.8502   74.9875 H   0  0  0  0  0  0  0  0  0  0  0  0
   -3.1038   54.0548   74.9875 H   0  0  0  0  0  0  0  0  0  0  0  0
    0.9608   65.0954   72.8255 H   0  0  0  0  0  0  0  0  0  0  0  0
    2.2277   64.1649   71.8992 H   0  0  0  0  0  0  0  0  0  0  0  0
    0.8793   64.0936   69.9530 H   0  0  0  0  0  0  0  0  0  0  0  0
   -0.5350   64.8204   70.8950 H   0  0  0  0  0  0  0  0  0  0  0  0
    0.4770   66.9207   70.9877 H   0  0  0  0  0  0  0  0  0  0  0  0
    2.0348   66.2228   70.2684 H   0  0  0  0  0  0  0  0  0  0  0  0
    0.8683   65.8325   68.1855 H   0  0  0  0  0  0  0  0  0  0  0  0
    1.2896   68.5468   69.4491 H   0  0  0  0  0  0  0  0  0  0  0  0
    2.0928   67.7669   67.9962 H   0  0  0  0  0  0  0  0  0  0  0  0
   -0.4335   69.4076   68.1336 H   0  0  0  0  0  0  0  0  0  0  0  0
    0.9797   69.5614   67.0421 H   0  0  0  0  0  0  0  0  0  0  0  0
    0.3850   67.3504   66.1870 H   0  0  0  0  0  0  0  0  0  0  0  0
   -2.3488   67.6193   67.2396 H   0  0  0  0  0  0  0  0  0  0  0  0
   -1.4758   66.1591   66.6030 H   0  0  0  0  0  0  0  0  0  0  0  0
   -1.4417   67.3982   69.3274 H   0  0  0  0  0  0  0  0  0  0  0  0
   -1.3885   65.6528   68.7891 H   0  0  0  0  0  0  0  0  0  0  0  0
   -1.8291   68.1872   65.0326 H   0  0  0  0  0  0  0  0  0  0  0  0
   -1.1517   69.7345   65.7177 H   0  0  0  0  0  0  0  0  0  0  0  0
   -1.4769   69.4315   62.7988 H   0  0  0  0  0  0  0  0  0  0  0  0
    0.1163   69.5645   60.8888 H   0  0  0  0  0  0  0  0  0  0  0  0
    2.5254   69.0304   61.2288 H   0  0  0  0  0  0  0  0  0  0  0  0
    3.3506   68.3698   63.4864 H   0  0  0  0  0  0  0  0  0  0  0  0
    1.7674   68.2389   65.4070 H   0  0  0  0  0  0  0  0  0  0  0  0
  2  1  2  0
  3  1  1  0
  5  4  2  0
  6  5  1  0
  7  6  1  0
  8  7  1  0
  8  1  1  0
  9  8  2  0
 10  9  1  0
 11 10  2  0
 12 10  1  0
 12  6  2  0
 13 12  1  0
 14 13  2  0
 14  4  1  0
 16 15  1  0
 16  4  1  0
 17 14  1  0
 18 17  1  0
 19  3  1  0
 20 19  1  0
 21 20  1  0
 22 21  1  0
 23 22  1  0
 24 23  1  0
 25 24  1  0
 26 25  1  0
 27 26  1  0
 27 22  1  0
 28 25  1  0
 29 28  1  0
 30 29  2  0
 31 30  1  0
 32 31  2  0
 33 32  1  0
 34 33  2  0
 34 29  1  0
  3 35  1  0
  5 36  1  0
  9 37  1  0
 13 38  1  0
 15 39  1  0
 15 40  1  0
 15 41  1  0
 18 42  1  0
 18 43  1  0
 18 44  1  0
 19 45  1  0
 19 46  1  0
 20 47  1  0
 20 48  1  0
 21 49  1  0
 21 50  1  0
 22 51  1  0
 23 52  1  0
 23 53  1  0
 24 54  1  0
 24 55  1  0
 25 56  1  0
 26 57  1  0
 26 58  1  0
 27 59  1  0
 27 60  1  0
 28 61  1  0
 28 62  1  0
 30 63  1  0
 31 64  1  0
 32 65  1  0
 33 66  1  0
 34 67  1  0
M  CHG  1  25   1
M  END
>  <score>  (7) 
-9.006

$$$$
=
     RDKit          3D

 67 70  0  0  0  0  0  0  0  0999 V2000
    3.4460   59.2280   73.6570 C   0  0  0  0  0  0  0  0  0  0  0  0
    4.4880   58.9380   74.2370 O   0  0  0  0  0  0  0  0  0  0  0  0
    3.3600   60.2060   72.6930 N   0  0  0  0  0  0  0  0  0  0  0  0
   -0.1020   54.4840   75.1460 C   0  0  0  0  0  0  0  0  0  0  0  0
    1.0740   55.2000   74.8870 C   0  0  0  0  0  0  0  0  0  0  0  0
    1.0050   56.5450   74.5280 C   0  0  0  0  0  0  0  0  0  0  0  0
    2.1940   57.1930   74.2900 O   0  0  0  0  0  0  0  0  0  0  0  0
    2.1490   58.5290   73.9200 C   0  0  0  0  0  0  0  0  0  0  0  0
    1.0230   59.2440   73.7850 C   0  0  0  0  0  0  0  0  0  0  0  0
   -0.2690   58.5970   74.0450 C   0  0  0  0  0  0  0  0  0  0  0  0
   -1.3140   59.2250   73.9510 O   0  0  0  0  0  0  0  0  0  0  0  0
   -0.2310   57.1770   74.4240 C   0  0  0  0  0  0  0  0  0  0  0  0
   -1.4130   56.4770   74.6800 C   0  0  0  0  0  0  0  0  0  0  0  0
   -1.3550   55.1280   75.0420 C   0  0  0  0  0  0  0  0  0  0  0  0
    0.1760   52.1880   74.5220 C   0  0  0  0  0  0  0  0  0  0  0  0
   -0.1360   53.1620   75.5080 O   0  0  0  0  0  0  0  0  0  0  0  0
   -2.4530   54.3520   75.3150 O   0  0  0  0  0  0  0  0  0  0  0  0
   -3.2380   54.6870   76.4530 C   0  0  0  0  0  0  0  0  0  0  0  0
    4.4820   61.0400   72.3200 C   0  0  0  0  0  0  0  0  0  0  0  0
    4.6250   61.2160   70.8050 C   0  0  0  0  0  0  0  0  0  0  0  0
    3.3500   61.0130   69.9760 C   0  0  0  0  0  0  0  0  0  0  0  0
    2.4170   62.2340   69.8280 C   0  0  0  0  0  0  0  0  0  0  0  0
    3.2590   63.5270   69.9290 C   0  0  0  0  0  0  0  0  0  0  0  0
    2.5160   64.7190   70.5200 C   0  0  0  0  0  0  0  0  0  0  0  0
    1.0860   64.6770   70.0650 N   0  0  0  0  0  4  0  0  0  0  0  0
    0.3460   63.4970   70.6380 C   0  0  0  0  0  0  0  0  0  0  0  0
    1.2510   62.2790   70.8160 C   0  0  0  0  0  0  0  0  0  0  0  0
    0.3390   65.9710   70.3110 C   0  0  0  0  0  0  0  0  0  0  0  0
    0.0640   66.7390   69.0470 C   0  0  0  0  0  0  0  0  0  0  0  0
   -1.1710   66.6090   68.3910 C   0  0  0  0  0  0  0  0  0  0  0  0
   -1.4150   67.3030   67.2040 C   0  0  0  0  0  0  0  0  0  0  0  0
   -0.4350   68.1320   66.6650 C   0  0  0  0  0  0  0  0  0  0  0  0
    0.7920   68.2720   67.3100 C   0  0  0  0  0  0  0  0  0  0  0  0
    1.0410   67.5810   68.4970 C   0  0  0  0  0  0  0  0  0  0  0  0
    2.4584   60.3506   72.2165 H   0  0  0  0  0  0  0  0  0  0  0  0
    2.0511   54.7011   74.9669 H   0  0  0  0  0  0  0  0  0  0  0  0
    1.0665   60.3010   73.4835 H   0  0  0  0  0  0  0  0  0  0  0  0
   -2.3850   56.9853   74.5970 H   0  0  0  0  0  0  0  0  0  0  0  0
    0.4761   51.2511   75.0141 H   0  0  0  0  0  0  0  0  0  0  0  0
   -0.7086   52.0054   73.8942 H   0  0  0  0  0  0  0  0  0  0  0  0
    1.0021   52.5533   73.8942 H   0  0  0  0  0  0  0  0  0  0  0  0
   -2.6772   54.4477   77.3686 H   0  0  0  0  0  0  0  0  0  0  0  0
   -3.4694   55.7622   76.4352 H   0  0  0  0  0  0  0  0  0  0  0  0
   -4.1744   54.1101   76.4352 H   0  0  0  0  0  0  0  0  0  0  0  0
    4.3473   62.0319   72.7761 H   0  0  0  0  0  0  0  0  0  0  0  0
    5.3942   60.5409   72.6789 H   0  0  0  0  0  0  0  0  0  0  0  0
    4.9874   62.2377   70.6186 H   0  0  0  0  0  0  0  0  0  0  0  0
    5.3162   60.4241   70.4806 H   0  0  0  0  0  0  0  0  0  0  0  0
    3.6552   60.7025   68.9658 H   0  0  0  0  0  0  0  0  0  0  0  0
    2.7620   60.2655   70.5287 H   0  0  0  0  0  0  0  0  0  0  0  0
    1.9439   62.1425   68.8392 H   0  0  0  0  0  0  0  0  0  0  0  0
    4.1340   63.3189   70.5623 H   0  0  0  0  0  0  0  0  0  0  0  0
    3.5301   63.8056   68.9000 H   0  0  0  0  0  0  0  0  0  0  0  0
    2.5553   64.6707   71.6182 H   0  0  0  0  0  0  0  0  0  0  0  0
    2.9862   65.6547   70.1832 H   0  0  0  0  0  0  0  0  0  0  0  0
    1.1248   64.5573   69.0427 H   0  0  0  0  0  0  0  0  0  0  0  0
   -0.0653   63.7790   71.6185 H   0  0  0  0  0  0  0  0  0  0  0  0
   -0.4524   63.2241   69.9323 H   0  0  0  0  0  0  0  0  0  0  0  0
    1.6605   62.2961   71.8368 H   0  0  0  0  0  0  0  0  0  0  0  0
    0.6339   61.3880   70.6280 H   0  0  0  0  0  0  0  0  0  0  0  0
   -0.6207   65.7356   70.7942 H   0  0  0  0  0  0  0  0  0  0  0  0
    0.9750   66.6026   70.9486 H   0  0  0  0  0  0  0  0  0  0  0  0
   -1.9497   65.9575   68.8142 H   0  0  0  0  0  0  0  0  0  0  0  0
   -2.3835   67.1944   66.6939 H   0  0  0  0  0  0  0  0  0  0  0  0
   -0.6295   68.6768   65.7294 H   0  0  0  0  0  0  0  0  0  0  0  0
    1.5653   68.9277   66.8834 H   0  0  0  0  0  0  0  0  0  0  0  0
    2.0101   67.6978   69.0042 H   0  0  0  0  0  0  0  0  0  0  0  0
  2  1  2  0
  3  1  1  0
  5  4  2  0
  6  5  1  0
  7  6  1  0
  8  7  1  0
  8  1  1  0
  9  8  2  0
 10  9  1  0
 11 10  2  0
 12 10  1  0
 12  6  2  0
 13 12  1  0
 14 13  2  0
 14  4  1  0
 16 15  1  0
 16  4  1  0
 17 14  1  0
 18 17  1  0
 19  3  1  0
 20 19  1  0
 21 20  1  0
 22 21  1  0
 23 22  1  0
 24 23  1  0
 25 24  1  0
 26 25  1  0
 27 26  1  0
 27 22  1  0
 28 25  1  0
 29 28  1  0
 30 29  2  0
 31 30  1  0
 32 31  2  0
 33 32  1  0
 34 33  2  0
 34 29  1  0
  3 35  1  0
  5 36  1  0
  9 37  1  0
 13 38  1  0
 15 39  1  0
 15 40  1  0
 15 41  1  0
 18 42  1  0
 18 43  1  0
 18 44  1  0
 19 45  1  0
 19 46  1  0
 20 47  1  0
 20 48  1  0
 21 49  1  0
 21 50  1  0
 22 51  1  0
 23 52  1  0
 23 53  1  0
 24 54  1  0
 24 55  1  0
 25 56  1  0
 26 57  1  0
 26 58  1  0
 27 59  1  0
 27 60  1  0
 28 61  1  0
 28 62  1  0
 30 63  1  0
 31 64  1  0
 32 65  1  0
 33 66  1  0
 34 67  1  0
M  CHG  1  25   1
M  END
>  <score>  (8) 
-8.724

$$$$
=
     RDKit          3D

 67 70  0  0  0  0  0  0  0  0999 V2000
    2.1630   63.4740   70.2080 C   0  0  0  0  0  0  0  0  0  0  0  0
    2.9400   63.8220   69.3240 O   0  0  0  0  0  0  0  0  0  0  0  0
    1.1560   64.2750   70.6940 N   0  0  0  0  0  0  0  0  0  0  0  0
    0.3620   59.0680   74.0360 C   0  0  0  0  0  0  0  0  0  0  0  0
    0.3720   60.3150   73.4000 C   0  0  0  0  0  0  0  0  0  0  0  0
    1.3180   60.5840   72.4100 C   0  0  0  0  0  0  0  0  0  0  0  0
    1.2740   61.8250   71.8220 O   0  0  0  0  0  0  0  0  0  0  0  0
    2.2110   62.1190   70.8430 C   0  0  0  0  0  0  0  0  0  0  0  0
    3.1590   61.2720   70.4180 C   0  0  0  0  0  0  0  0  0  0  0  0
    3.2320   59.9290   71.0070 C   0  0  0  0  0  0  0  0  0  0  0  0
    4.0720   59.1240   70.6290 O   0  0  0  0  0  0  0  0  0  0  0  0
    2.2510   59.6140   72.0550 C   0  0  0  0  0  0  0  0  0  0  0  0
    2.2530   58.3650   72.6800 C   0  0  0  0  0  0  0  0  0  0  0  0
    1.3100   58.0840   73.6720 C   0  0  0  0  0  0  0  0  0  0  0  0
   -1.9140   58.7480   74.7100 C   0  0  0  0  0  0  0  0  0  0  0  0
   -0.5280   58.7080   75.0160 O   0  0  0  0  0  0  0  0  0  0  0  0
    1.2240   56.8920   74.3460 O   0  0  0  0  0  0  0  0  0  0  0  0
    2.3540   56.4730   75.1010 C   0  0  0  0  0  0  0  0  0  0  0  0
    0.9610   65.6410   70.2580 C   0  0  0  0  0  0  0  0  0  0  0  0
   -0.0700   65.7730   69.1320 C   0  0  0  0  0  0  0  0  0  0  0  0
   -0.5020   67.2010   68.7740 C   0  0  0  0  0  0  0  0  0  0  0  0
    0.4750   68.0240   67.9050 C   0  0  0  0  0  0  0  0  0  0  0  0
    0.8760   67.1880   66.6680 C   0  0  0  0  0  0  0  0  0  0  0  0
    2.2770   67.4740   66.1410 C   0  0  0  0  0  0  0  0  0  0  0  0
    2.5680   68.9380   66.3000 N   0  0  0  0  0  4  0  0  0  0  0  0
    2.6610   69.3410   67.7480 C   0  0  0  0  0  0  0  0  0  0  0  0
    1.7210   68.5270   68.6350 C   0  0  0  0  0  0  0  0  0  0  0  0
    3.7810   69.3980   65.5190 C   0  0  0  0  0  0  0  0  0  0  0  0
    3.6810   69.0950   64.0480 C   0  0  0  0  0  0  0  0  0  0  0  0
    2.4250   69.0200   63.4220 C   0  0  0  0  0  0  0  0  0  0  0  0
    2.3330   68.7150   62.0630 C   0  0  0  0  0  0  0  0  0  0  0  0
    3.4870   68.4850   61.3180 C   0  0  0  0  0  0  0  0  0  0  0  0
    4.7380   68.5620   61.9280 C   0  0  0  0  0  0  0  0  0  0  0  0
    4.8360   68.8680   63.2860 C   0  0  0  0  0  0  0  0  0  0  0  0
    0.5132   63.8859   71.3985 H   0  0  0  0  0  0  0  0  0  0  0  0
   -0.3650   61.0820   73.6803 H   0  0  0  0  0  0  0  0  0  0  0  0
    3.8723   61.5788   69.6388 H   0  0  0  0  0  0  0  0  0  0  0  0
    2.9944   57.6051   72.3923 H   0  0  0  0  0  0  0  0  0  0  0  0
   -2.4953   58.7648   75.6437 H   0  0  0  0  0  0  0  0  0  0  0  0
   -2.1343   59.6529   74.1246 H   0  0  0  0  0  0  0  0  0  0  0  0
   -2.1861   57.8573   74.1246 H   0  0  0  0  0  0  0  0  0  0  0  0
    2.1291   56.5564   76.1745 H   0  0  0  0  0  0  0  0  0  0  0  0
    2.5912   55.4271   74.8562 H   0  0  0  0  0  0  0  0  0  0  0  0
    3.2157   57.1114   74.8562 H   0  0  0  0  0  0  0  0  0  0  0  0
    0.6190   66.2369   71.1170 H   0  0  0  0  0  0  0  0  0  0  0  0
    1.9235   65.9994   69.8641 H   0  0  0  0  0  0  0  0  0  0  0  0
    0.3593   65.3156   68.2284 H   0  0  0  0  0  0  0  0  0  0  0  0
   -0.9777   65.2750   69.5037 H   0  0  0  0  0  0  0  0  0  0  0  0
   -1.4562   67.1343   68.2308 H   0  0  0  0  0  0  0  0  0  0  0  0
   -0.5562   67.7359   69.7337 H   0  0  0  0  0  0  0  0  0  0  0  0
   -0.0660   68.9357   67.6115 H   0  0  0  0  0  0  0  0  0  0  0  0
    0.8216   66.1236   66.9400 H   0  0  0  0  0  0  0  0  0  0  0  0
    0.1767   67.4620   65.8643 H   0  0  0  0  0  0  0  0  0  0  0  0
    3.0126   66.8875   66.7110 H   0  0  0  0  0  0  0  0  0  0  0  0
    2.3392   67.1954   65.0787 H   0  0  0  0  0  0  0  0  0  0  0  0
    1.7594   69.4262   65.8892 H   0  0  0  0  0  0  0  0  0  0  0  0
    3.6943   69.1879   68.0926 H   0  0  0  0  0  0  0  0  0  0  0  0
    2.3660   70.3980   67.8239 H   0  0  0  0  0  0  0  0  0  0  0  0
    2.2730   67.6574   69.0211 H   0  0  0  0  0  0  0  0  0  0  0  0
    1.3771   69.1941   69.4392 H   0  0  0  0  0  0  0  0  0  0  0  0
    3.8889   70.4852   65.6467 H   0  0  0  0  0  0  0  0  0  0  0  0
    4.6517   68.8511   65.9099 H   0  0  0  0  0  0  0  0  0  0  0  0
    1.5105   69.2024   64.0055 H   0  0  0  0  0  0  0  0  0  0  0  0
    1.3468   68.6562   61.5793 H   0  0  0  0  0  0  0  0  0  0  0  0
    3.4112   68.2425   60.2477 H   0  0  0  0  0  0  0  0  0  0  0  0
    5.6489   68.3814   61.3383 H   0  0  0  0  0  0  0  0  0  0  0  0
    5.8258   68.9315   63.7618 H   0  0  0  0  0  0  0  0  0  0  0  0
  2  1  2  0
  3  1  1  0
  5  4  2  0
  6  5  1  0
  7  6  1  0
  8  7  1  0
  8  1  1  0
  9  8  2  0
 10  9  1  0
 11 10  2  0
 12 10  1  0
 12  6  2  0
 13 12  1  0
 14 13  2  0
 14  4  1  0
 16 15  1  0
 16  4  1  0
 17 14  1  0
 18 17  1  0
 19  3  1  0
 20 19  1  0
 21 20  1  0
 22 21  1  0
 23 22  1  0
 24 23  1  0
 25 24  1  0
 26 25  1  0
 27 26  1  0
 27 22  1  0
 28 25  1  0
 29 28  1  0
 30 29  2  0
 31 30  1  0
 32 31  2  0
 33 32  1  0
 34 33  2  0
 34 29  1  0
  3 35  1  0
  5 36  1  0
  9 37  1  0
 13 38  1  0
 15 39  1  0
 15 40  1  0
 15 41  1  0
 18 42  1  0
 18 43  1  0
 18 44  1  0
 19 45  1  0
 19 46  1  0
 20 47  1  0
 20 48  1  0
 21 49  1  0
 21 50  1  0
 22 51  1  0
 23 52  1  0
 23 53  1  0
 24 54  1  0
 24 55  1  0
 25 56  1  0
 26 57  1  0
 26 58  1  0
 27 59  1  0
 27 60  1  0
 28 61  1  0
 28 62  1  0
 30 63  1  0
 31 64  1  0
 32 65  1  0
 33 66  1  0
 34 67  1  0
M  CHG  1  25   1
M  END
>  <score>  (9) 
-8.709

$$$$
