=
     RDKit          3D

 26 27  0  0  0  0  0  0  0  0999 V2000
    3.1710   68.8870   66.0620 C   0  0  0  0  0  0  0  0  0  0  0  0
    2.8780   69.4390   67.3140 C   0  0  0  0  0  0  0  0  0  0  0  0
    3.8390   70.2060   67.9770 C   0  0  0  0  0  0  0  0  0  0  0  0
    5.1070   70.4230   67.4120 C   0  0  0  0  0  0  0  0  0  0  0  0
    5.3940   69.8330   66.1700 C   0  0  0  0  0  0  0  0  0  0  0  0
    4.4380   69.0640   65.5000 C   0  0  0  0  0  0  0  0  0  0  0  0
    6.1400   71.2740   68.1290 C   0  0  0  0  0  0  0  0  0  0  0  0
    6.0230   72.5350   68.0200 O   0  0  0  0  0  0  0  0  0  0  0  0
    7.0460   70.6620   68.7760 O   0  0  0  0  0  1  0  0  0  0  0  0
    1.7950   67.0040   65.7580 O   0  0  0  0  0  0  0  0  0  0  0  0
    2.1650   68.0890   65.3160 C   0  0  0  0  0  0  0  0  0  0  0  0
    1.5990   68.5750   64.0290 C   0  0  0  0  0  0  0  0  0  0  0  0
    0.2480   68.9370   63.9890 C   0  0  0  0  0  0  0  0  0  0  0  0
   -0.3230   69.3850   62.7960 C   0  0  0  0  0  0  0  0  0  0  0  0
    0.4510   69.4630   61.6400 C   0  0  0  0  0  0  0  0  0  0  0  0
    1.7940   69.0840   61.6700 C   0  0  0  0  0  0  0  0  0  0  0  0
    2.3690   68.6340   62.8610 C   0  0  0  0  0  0  0  0  0  0  0  0
    1.8937   69.2694   67.7748 H   0  0  0  0  0  0  0  0  0  0  0  0
    3.5995   70.6467   68.9560 H   0  0  0  0  0  0  0  0  0  0  0  0
    6.3861   69.9783   65.7177 H   0  0  0  0  0  0  0  0  0  0  0  0
    4.6824   68.5996   64.5333 H   0  0  0  0  0  0  0  0  0  0  0  0
   -0.3657   68.8685   64.8993 H   0  0  0  0  0  0  0  0  0  0  0  0
   -1.3834   69.6762   62.7689 H   0  0  0  0  0  0  0  0  0  0  0  0
    0.0030   69.8238   60.7024 H   0  0  0  0  0  0  0  0  0  0  0  0
    2.4008   69.1397   60.7542 H   0  0  0  0  0  0  0  0  0  0  0  0
    3.4250   68.3265   62.8812 H   0  0  0  0  0  0  0  0  0  0  0  0
  2  1  2  0
  3  2  1  0
  4  3  2  0
  5  4  1  0
  6  5  2  0
  6  1  1  0
  7  4  1  0
  8  7  2  0
  9  7  1  0
 11 10  2  0
 11  1  1  0
 12 11  1  0
 13 12  2  0
 14 13  1  0
 15 14  2  0
 16 15  1  0
 17 16  2  0
 17 12  1  0
  2 18  1  0
  3 19  1  0
  5 20  1  0
  6 21  1  0
 13 22  1  0
 14 23  1  0
 15 24  1  0
 16 25  1  0
 17 26  1  0
M  CHG  1   9  -1
M  END
>  <score>  (1) 
-9.584

$$$$
=
     RDKit          3D

 26 27  0  0  0  0  0  0  0  0999 V2000
    2.8600   68.9500   66.3220 C   0  0  0  0  0  0  0  0  0  0  0  0
    2.6100   69.4630   67.5990 C   0  0  0  0  0  0  0  0  0  0  0  0
    3.5990   70.1990   68.2570 C   0  0  0  0  0  0  0  0  0  0  0  0
    4.8510   70.4240   67.6610 C   0  0  0  0  0  0  0  0  0  0  0  0
    5.0950   69.8730   66.3920 C   0  0  0  0  0  0  0  0  0  0  0  0
    4.1110   69.1350   65.7270 C   0  0  0  0  0  0  0  0  0  0  0  0
    5.9140   71.2410   68.3740 C   0  0  0  0  0  0  0  0  0  0  0  0
    5.9660   72.4820   68.0990 O   0  0  0  0  0  0  0  0  0  0  0  0
    6.6730   70.6240   69.1830 O   0  0  0  0  0  1  0  0  0  0  0  0
    2.1020   67.6660   64.5030 O   0  0  0  0  0  0  0  0  0  0  0  0
    1.8250   68.1870   65.5810 C   0  0  0  0  0  0  0  0  0  0  0  0
    0.4430   68.0460   66.1150 C   0  0  0  0  0  0  0  0  0  0  0  0
   -0.5740   68.8210   65.5470 C   0  0  0  0  0  0  0  0  0  0  0  0
   -1.8810   68.7260   66.0300 C   0  0  0  0  0  0  0  0  0  0  0  0
   -2.1710   67.8660   67.0880 C   0  0  0  0  0  0  0  0  0  0  0  0
   -1.1560   67.1070   67.6720 C   0  0  0  0  0  0  0  0  0  0  0  0
    0.1520   67.1990   67.1920 C   0  0  0  0  0  0  0  0  0  0  0  0
    1.6382   69.2877   68.0837 H   0  0  0  0  0  0  0  0  0  0  0  0
    3.3940   70.6085   69.2571 H   0  0  0  0  0  0  0  0  0  0  0  0
    6.0744   70.0243   65.9146 H   0  0  0  0  0  0  0  0  0  0  0  0
    4.3210   68.7012   64.7382 H   0  0  0  0  0  0  0  0  0  0  0  0
   -0.3437   69.5066   64.7182 H   0  0  0  0  0  0  0  0  0  0  0  0
   -2.6809   69.3293   65.5759 H   0  0  0  0  0  0  0  0  0  0  0  0
   -3.2019   67.7855   67.4633 H   0  0  0  0  0  0  0  0  0  0  0  0
   -1.3867   66.4351   68.5119 H   0  0  0  0  0  0  0  0  0  0  0  0
    0.9529   66.6071   67.6591 H   0  0  0  0  0  0  0  0  0  0  0  0
  2  1  2  0
  3  2  1  0
  4  3  2  0
  5  4  1  0
  6  5  2  0
  6  1  1  0
  7  4  1  0
  8  7  2  0
  9  7  1  0
 11 10  2  0
 11  1  1  0
 12 11  1  0
 13 12  2  0
 14 13  1  0
 15 14  2  0
 16 15  1  0
 17 16  2  0
 17 12  1  0
  2 18  1  0
  3 19  1  0
  5 20  1  0
  6 21  1  0
 13 22  1  0
 14 23  1  0
 15 24  1  0
 16 25  1  0
 17 26  1  0
M  CHG  1   9  -1
M  END
>  <score>  (2) 
-9.45

$$$$
=
     RDKit          3D

 26 27  0  0  0  0  0  0  0  0999 V2000
    4.1460   69.5570   66.4800 C   0  0  0  0  0  0  0  0  0  0  0  0
    5.4770   69.7320   66.0840 C   0  0  0  0  0  0  0  0  0  0  0  0
    6.4190   70.2000   67.0030 C   0  0  0  0  0  0  0  0  0  0  0  0
    6.0490   70.5140   68.3220 C   0  0  0  0  0  0  0  0  0  0  0  0
    4.7020   70.3640   68.6910 C   0  0  0  0  0  0  0  0  0  0  0  0
    3.7530   69.8960   67.7780 C   0  0  0  0  0  0  0  0  0  0  0  0
    7.0820   71.0050   69.3210 C   0  0  0  0  0  0  0  0  0  0  0  0
    7.0600   70.4770   70.4770 O   0  0  0  0  0  0  0  0  0  0  0  0
    7.8830   71.9090   68.9280 O   0  0  0  0  0  1  0  0  0  0  0  0
    1.9300   69.1710   65.7960 O   0  0  0  0  0  0  0  0  0  0  0  0
    3.1240   69.0350   65.5390 C   0  0  0  0  0  0  0  0  0  0  0  0
    3.5170   68.3360   64.2860 C   0  0  0  0  0  0  0  0  0  0  0  0
    3.9090   66.9950   64.3650 C   0  0  0  0  0  0  0  0  0  0  0  0
    4.2970   66.3080   63.2130 C   0  0  0  0  0  0  0  0  0  0  0  0
    4.3050   66.9630   61.9820 C   0  0  0  0  0  0  0  0  0  0  0  0
    3.9350   68.3060   61.9010 C   0  0  0  0  0  0  0  0  0  0  0  0
    3.5460   68.9960   63.0510 C   0  0  0  0  0  0  0  0  0  0  0  0
    5.7803   69.5016   65.0520 H   0  0  0  0  0  0  0  0  0  0  0  0
    7.4661   70.3247   66.6897 H   0  0  0  0  0  0  0  0  0  0  0  0
    4.3893   70.6188   69.7144 H   0  0  0  0  0  0  0  0  0  0  0  0
    2.7001   69.7947   68.0798 H   0  0  0  0  0  0  0  0  0  0  0  0
    3.9115   66.4807   65.3373 H   0  0  0  0  0  0  0  0  0  0  0  0
    4.5960   65.2513   63.2764 H   0  0  0  0  0  0  0  0  0  0  0  0
    4.6035   66.4200   61.0731 H   0  0  0  0  0  0  0  0  0  0  0  0
    3.9498   68.8220   60.9297 H   0  0  0  0  0  0  0  0  0  0  0  0
    3.2626   70.0569   62.9870 H   0  0  0  0  0  0  0  0  0  0  0  0
  2  1  2  0
  3  2  1  0
  4  3  2  0
  5  4  1  0
  6  5  2  0
  6  1  1  0
  7  4  1  0
  8  7  2  0
  9  7  1  0
 11 10  2  0
 11  1  1  0
 12 11  1  0
 13 12  2  0
 14 13  1  0
 15 14  2  0
 16 15  1  0
 17 16  2  0
 17 12  1  0
  2 18  1  0
  3 19  1  0
  5 20  1  0
  6 21  1  0
 13 22  1  0
 14 23  1  0
 15 24  1  0
 16 25  1  0
 17 26  1  0
M  CHG  1   9  -1
M  END
>  <score>  (3) 
-9.265

$$$$
=
     RDKit          3D

 26 27  0  0  0  0  0  0  0  0999 V2000
    3.4640   69.4190   65.8270 C   0  0  0  0  0  0  0  0  0  0  0  0
    4.6150   69.4340   65.0320 C   0  0  0  0  0  0  0  0  0  0  0  0
    4.5320   69.0810   63.6830 C   0  0  0  0  0  0  0  0  0  0  0  0
    3.3080   68.6970   63.1100 C   0  0  0  0  0  0  0  0  0  0  0  0
    2.1700   68.6560   63.9310 C   0  0  0  0  0  0  0  0  0  0  0  0
    2.2450   69.0070   65.2820 C   0  0  0  0  0  0  0  0  0  0  0  0
    3.2220   68.3330   61.6380 C   0  0  0  0  0  0  0  0  0  0  0  0
    2.5330   69.1020   60.8950 O   0  0  0  0  0  0  0  0  0  0  0  0
    3.8360   67.2870   61.2630 O   0  0  0  0  0  1  0  0  0  0  0  0
    2.4730   69.8380   67.9180 O   0  0  0  0  0  0  0  0  0  0  0  0
    3.5090   69.8140   67.2570 C   0  0  0  0  0  0  0  0  0  0  0  0
    4.7900   70.1940   67.9100 C   0  0  0  0  0  0  0  0  0  0  0  0
    4.7650   70.5830   69.2540 C   0  0  0  0  0  0  0  0  0  0  0  0
    5.9450   70.9590   69.8990 C   0  0  0  0  0  0  0  0  0  0  0  0
    7.1510   70.9590   69.1990 C   0  0  0  0  0  0  0  0  0  0  0  0
    7.1780   70.5920   67.8520 C   0  0  0  0  0  0  0  0  0  0  0  0
    6.0000   70.2160   67.2040 C   0  0  0  0  0  0  0  0  0  0  0  0
    5.5827   69.7230   65.4680 H   0  0  0  0  0  0  0  0  0  0  0  0
    5.4384   69.1040   63.0601 H   0  0  0  0  0  0  0  0  0  0  0  0
    1.2053   68.3431   63.5050 H   0  0  0  0  0  0  0  0  0  0  0  0
    1.3465   68.9590   65.9147 H   0  0  0  0  0  0  0  0  0  0  0  0
    3.8125   70.5926   69.8042 H   0  0  0  0  0  0  0  0  0  0  0  0
    5.9232   71.2549   70.9582 H   0  0  0  0  0  0  0  0  0  0  0  0
    8.0820   71.2484   69.7084 H   0  0  0  0  0  0  0  0  0  0  0  0
    8.1296   70.5992   67.3002 H   0  0  0  0  0  0  0  0  0  0  0  0
    6.0218   69.9373   66.1401 H   0  0  0  0  0  0  0  0  0  0  0  0
  2  1  2  0
  3  2  1  0
  4  3  2  0
  5  4  1  0
  6  5  2  0
  6  1  1  0
  7  4  1  0
  8  7  2  0
  9  7  1  0
 11 10  2  0
 11  1  1  0
 12 11  1  0
 13 12  2  0
 14 13  1  0
 15 14  2  0
 16 15  1  0
 17 16  2  0
 17 12  1  0
  2 18  1  0
  3 19  1  0
  5 20  1  0
  6 21  1  0
 13 22  1  0
 14 23  1  0
 15 24  1  0
 16 25  1  0
 17 26  1  0
M  CHG  1   9  -1
M  END
>  <score>  (4) 
-8.973

$$$$
=
     RDKit          3D

 26 27  0  0  0  0  0  0  0  0999 V2000
    2.6230   69.0870   66.1690 C   0  0  0  0  0  0  0  0  0  0  0  0
    3.9680   69.4700   66.2190 C   0  0  0  0  0  0  0  0  0  0  0  0
    4.7890   69.2710   65.1060 C   0  0  0  0  0  0  0  0  0  0  0  0
    4.2880   68.6780   63.9350 C   0  0  0  0  0  0  0  0  0  0  0  0
    2.9440   68.2690   63.9150 C   0  0  0  0  0  0  0  0  0  0  0  0
    2.1170   68.4640   65.0250 C   0  0  0  0  0  0  0  0  0  0  0  0
    5.1800   68.4820   62.7220 C   0  0  0  0  0  0  0  0  0  0  0  0
    5.6290   69.5320   62.1620 O   0  0  0  0  0  0  0  0  0  0  0  0
    5.4040   67.2870   62.3540 O   0  0  0  0  0  1  0  0  0  0  0  0
    2.0310   70.1000   68.2060 O   0  0  0  0  0  0  0  0  0  0  0  0
    1.7150   69.3080   67.3220 C   0  0  0  0  0  0  0  0  0  0  0  0
    0.4250   68.5760   67.4370 C   0  0  0  0  0  0  0  0  0  0  0  0
    0.3820   67.4180   68.2210 C   0  0  0  0  0  0  0  0  0  0  0  0
   -0.8080   66.6970   68.3430 C   0  0  0  0  0  0  0  0  0  0  0  0
   -1.9520   67.1250   67.6720 C   0  0  0  0  0  0  0  0  0  0  0  0
   -1.9090   68.2670   66.8720 C   0  0  0  0  0  0  0  0  0  0  0  0
   -0.7210   68.9910   66.7470 C   0  0  0  0  0  0  0  0  0  0  0  0
    4.3778   69.9265   67.1320 H   0  0  0  0  0  0  0  0  0  0  0  0
    5.8430   69.5832   65.1472 H   0  0  0  0  0  0  0  0  0  0  0  0
    2.5368   67.7886   63.0131 H   0  0  0  0  0  0  0  0  0  0  0  0
    1.0700   68.1277   64.9980 H   0  0  0  0  0  0  0  0  0  0  0  0
    1.2876   67.0746   68.7426 H   0  0  0  0  0  0  0  0  0  0  0  0
   -0.8422   65.7924   68.9680 H   0  0  0  0  0  0  0  0  0  0  0  0
   -2.8910   66.5611   67.7734 H   0  0  0  0  0  0  0  0  0  0  0  0
   -2.8123   68.5980   66.3386 H   0  0  0  0  0  0  0  0  0  0  0  0
   -0.6856   69.8855   66.1078 H   0  0  0  0  0  0  0  0  0  0  0  0
  2  1  2  0
  3  2  1  0
  4  3  2  0
  5  4  1  0
  6  5  2  0
  6  1  1  0
  7  4  1  0
  8  7  2  0
  9  7  1  0
 11 10  2  0
 11  1  1  0
 12 11  1  0
 13 12  2  0
 14 13  1  0
 15 14  2  0
 16 15  1  0
 17 16  2  0
 17 12  1  0
  2 18  1  0
  3 19  1  0
  5 20  1  0
  6 21  1  0
 13 22  1  0
 14 23  1  0
 15 24  1  0
 16 25  1  0
 17 26  1  0
M  CHG  1   9  -1
M  END
>  <score>  (5) 
-8.653

$$$$
=
     RDKit          3D

 26 27  0  0  0  0  0  0  0  0999 V2000
    3.5680   69.7650   67.5950 C   0  0  0  0  0  0  0  0  0  0  0  0
    4.7750   69.8590   66.8940 C   0  0  0  0  0  0  0  0  0  0  0  0
    5.9340   70.2680   67.5590 C   0  0  0  0  0  0  0  0  0  0  0  0
    5.9060   70.6010   68.9230 C   0  0  0  0  0  0  0  0  0  0  0  0
    4.6780   70.5320   69.6030 C   0  0  0  0  0  0  0  0  0  0  0  0
    3.5140   70.1250   68.9450 C   0  0  0  0  0  0  0  0  0  0  0  0
    7.1730   71.0260   69.6440 C   0  0  0  0  0  0  0  0  0  0  0  0
    7.9250   71.8560   69.0430 O   0  0  0  0  0  0  0  0  0  0  0  0
    7.3880   70.5150   70.7870 O   0  0  0  0  0  1  0  0  0  0  0  0
    1.2300   69.6610   67.3670 O   0  0  0  0  0  0  0  0  0  0  0  0
    2.3230   69.3080   66.9290 C   0  0  0  0  0  0  0  0  0  0  0  0
    2.3690   68.4160   65.7400 C   0  0  0  0  0  0  0  0  0  0  0  0
    2.3430   68.9980   64.4670 C   0  0  0  0  0  0  0  0  0  0  0  0
    2.3720   68.1930   63.3270 C   0  0  0  0  0  0  0  0  0  0  0  0
    2.4160   66.8050   63.4550 C   0  0  0  0  0  0  0  0  0  0  0  0
    2.4220   66.2190   64.7220 C   0  0  0  0  0  0  0  0  0  0  0  0
    2.3920   67.0210   65.8650 C   0  0  0  0  0  0  0  0  0  0  0  0
    4.8116   69.6118   65.8228 H   0  0  0  0  0  0  0  0  0  0  0  0
    6.8827   70.3301   67.0057 H   0  0  0  0  0  0  0  0  0  0  0  0
    4.6323   70.8022   70.6683 H   0  0  0  0  0  0  0  0  0  0  0  0
    2.5580   70.0880   69.4878 H   0  0  0  0  0  0  0  0  0  0  0  0
    2.2996   70.0924   64.3649 H   0  0  0  0  0  0  0  0  0  0  0  0
    2.3602   68.6533   62.3280 H   0  0  0  0  0  0  0  0  0  0  0  0
    2.4460   66.1712   62.5565 H   0  0  0  0  0  0  0  0  0  0  0  0
    2.4504   65.1238   64.8203 H   0  0  0  0  0  0  0  0  0  0  0  0
    2.3864   66.5576   66.8626 H   0  0  0  0  0  0  0  0  0  0  0  0
  2  1  2  0
  3  2  1  0
  4  3  2  0
  5  4  1  0
  6  5  2  0
  6  1  1  0
  7  4  1  0
  8  7  2  0
  9  7  1  0
 11 10  2  0
 11  1  1  0
 12 11  1  0
 13 12  2  0
 14 13  1  0
 15 14  2  0
 16 15  1  0
 17 16  2  0
 17 12  1  0
  2 18  1  0
  3 19  1  0
  5 20  1  0
  6 21  1  0
 13 22  1  0
 14 23  1  0
 15 24  1  0
 16 25  1  0
 17 26  1  0
M  CHG  1   9  -1
M  END
>  <score>  (6) 
-8.416

$$$$
=
     RDKit          3D

 26 27  0  0  0  0  0  0  0  0999 V2000
    3.2260   67.2910   64.8050 C   0  0  0  0  0  0  0  0  0  0  0  0
    2.6950   66.0780   65.2560 C   0  0  0  0  0  0  0  0  0  0  0  0
    3.2560   64.8720   64.8290 C   0  0  0  0  0  0  0  0  0  0  0  0
    4.3430   64.8560   63.9380 C   0  0  0  0  0  0  0  0  0  0  0  0
    4.8400   66.0830   63.4690 C   0  0  0  0  0  0  0  0  0  0  0  0
    4.2840   67.2940   63.8920 C   0  0  0  0  0  0  0  0  0  0  0  0
    4.9600   63.5420   63.4920 C   0  0  0  0  0  0  0  0  0  0  0  0
    4.1590   62.6030   63.1890 O   0  0  0  0  0  0  0  0  0  0  0  0
    6.2280   63.4790   63.4620 O   0  0  0  0  0  1  0  0  0  0  0  0
    1.7460   69.1110   64.6420 O   0  0  0  0  0  0  0  0  0  0  0  0
    2.6730   68.5910   65.2590 C   0  0  0  0  0  0  0  0  0  0  0  0
    3.2280   69.2890   66.4500 C   0  0  0  0  0  0  0  0  0  0  0  0
    4.5750   69.6670   66.4340 C   0  0  0  0  0  0  0  0  0  0  0  0
    5.1360   70.3130   67.5380 C   0  0  0  0  0  0  0  0  0  0  0  0
    4.3550   70.5720   68.6640 C   0  0  0  0  0  0  0  0  0  0  0  0
    3.0160   70.1790   68.6920 C   0  0  0  0  0  0  0  0  0  0  0  0
    2.4520   69.5320   67.5910 C   0  0  0  0  0  0  0  0  0  0  0  0
    1.8377   66.0738   65.9452 H   0  0  0  0  0  0  0  0  0  0  0  0
    2.8412   63.9213   65.1953 H   0  0  0  0  0  0  0  0  0  0  0  0
    5.6794   66.0913   62.7581 H   0  0  0  0  0  0  0  0  0  0  0  0
    4.6781   68.2462   63.5074 H   0  0  0  0  0  0  0  0  0  0  0  0
    5.1938   69.4549   65.5497 H   0  0  0  0  0  0  0  0  0  0  0  0
    6.1929   70.6172   67.5193 H   0  0  0  0  0  0  0  0  0  0  0  0
    4.7948   71.0866   69.5311 H   0  0  0  0  0  0  0  0  0  0  0  0
    2.4038   70.3795   69.5836 H   0  0  0  0  0  0  0  0  0  0  0  0
    1.3995   69.2133   67.6192 H   0  0  0  0  0  0  0  0  0  0  0  0
  2  1  2  0
  3  2  1  0
  4  3  2  0
  5  4  1  0
  6  5  2  0
  6  1  1  0
  7  4  1  0
  8  7  2  0
  9  7  1  0
 11 10  2  0
 11  1  1  0
 12 11  1  0
 13 12  2  0
 14 13  1  0
 15 14  2  0
 16 15  1  0
 17 16  2  0
 17 12  1  0
  2 18  1  0
  3 19  1  0
  5 20  1  0
  6 21  1  0
 13 22  1  0
 14 23  1  0
 15 24  1  0
 16 25  1  0
 17 26  1  0
M  CHG  1   9  -1
M  END
>  <score>  (7) 
-7.933

$$$$
=
     RDKit          3D

 26 27  0  0  0  0  0  0  0  0999 V2000
    1.5750   63.9410   70.8050 C   0  0  0  0  0  0  0  0  0  0  0  0
    2.7980   64.0900   70.1420 C   0  0  0  0  0  0  0  0  0  0  0  0
    3.6490   62.9910   70.0010 C   0  0  0  0  0  0  0  0  0  0  0  0
    3.3030   61.7350   70.5280 C   0  0  0  0  0  0  0  0  0  0  0  0
    2.0860   61.6140   71.2190 C   0  0  0  0  0  0  0  0  0  0  0  0
    1.2290   62.7080   71.3650 C   0  0  0  0  0  0  0  0  0  0  0  0
    4.2240   60.5410   70.3540 C   0  0  0  0  0  0  0  0  0  0  0  0
    5.2520   60.4940   71.1010 O   0  0  0  0  0  0  0  0  0  0  0  0
    3.9020   59.6840   69.4740 O   0  0  0  0  0  1  0  0  0  0  0  0
   -0.0440   65.1870   71.9700 O   0  0  0  0  0  0  0  0  0  0  0  0
    0.6330   65.0790   70.9500 C   0  0  0  0  0  0  0  0  0  0  0  0
    0.4820   66.0940   69.8730 C   0  0  0  0  0  0  0  0  0  0  0  0
   -0.6710   66.0600   69.0800 C   0  0  0  0  0  0  0  0  0  0  0  0
   -0.8430   66.9890   68.0520 C   0  0  0  0  0  0  0  0  0  0  0  0
    0.1410   67.9450   67.8060 C   0  0  0  0  0  0  0  0  0  0  0  0
    1.3020   67.9700   68.5800 C   0  0  0  0  0  0  0  0  0  0  0  0
    1.4780   67.0430   69.6090 C   0  0  0  0  0  0  0  0  0  0  0  0
    3.0885   65.0690   69.7332 H   0  0  0  0  0  0  0  0  0  0  0  0
    4.6045   63.1106   69.4693 H   0  0  0  0  0  0  0  0  0  0  0  0
    1.8033   60.6431   71.6519 H   0  0  0  0  0  0  0  0  0  0  0  0
    0.2849   62.5992   71.9190 H   0  0  0  0  0  0  0  0  0  0  0  0
   -1.4434   65.2995   69.2672 H   0  0  0  0  0  0  0  0  0  0  0  0
   -1.7545   66.9664   67.4366 H   0  0  0  0  0  0  0  0  0  0  0  0
    0.0022   68.6810   67.0004 H   0  0  0  0  0  0  0  0  0  0  0  0
    2.0798   68.7214   68.3790 H   0  0  0  0  0  0  0  0  0  0  0  0
    2.3979   67.0578   70.2119 H   0  0  0  0  0  0  0  0  0  0  0  0
  2  1  2  0
  3  2  1  0
  4  3  2  0
  5  4  1  0
  6  5  2  0
  6  1  1  0
  7  4  1  0
  8  7  2  0
  9  7  1  0
 11 10  2  0
 11  1  1  0
 12 11  1  0
 13 12  2  0
 14 13  1  0
 15 14  2  0
 16 15  1  0
 17 16  2  0
 17 12  1  0
  2 18  1  0
  3 19  1  0
  5 20  1  0
  6 21  1  0
 13 22  1  0
 14 23  1  0
 15 24  1  0
 16 25  1  0
 17 26  1  0
M  CHG  1   9  -1
M  END
>  <score>  (8) 
-7.712

$$$$
=
     RDKit          3D

 26 27  0  0  0  0  0  0  0  0999 V2000
    0.1210   66.4310   69.4950 C   0  0  0  0  0  0  0  0  0  0  0  0
    1.1720   67.1940   68.9750 C   0  0  0  0  0  0  0  0  0  0  0  0
    1.0040   67.8760   67.7680 C   0  0  0  0  0  0  0  0  0  0  0  0
   -0.2040   67.7990   67.0550 C   0  0  0  0  0  0  0  0  0  0  0  0
   -1.2370   67.0010   67.5760 C   0  0  0  0  0  0  0  0  0  0  0  0
   -1.0760   66.3150   68.7830 C   0  0  0  0  0  0  0  0  0  0  0  0
   -0.3870   68.5580   65.7530 C   0  0  0  0  0  0  0  0  0  0  0  0
   -1.5370   69.0540   65.5320 O   0  0  0  0  0  0  0  0  0  0  0  0
    0.6190   68.6350   64.9810 O   0  0  0  0  0  1  0  0  0  0  0  0
   -0.3000   66.1580   71.7920 O   0  0  0  0  0  0  0  0  0  0  0  0
    0.2540   65.7150   70.7880 C   0  0  0  0  0  0  0  0  0  0  0  0
    1.0580   64.4680   70.8990 C   0  0  0  0  0  0  0  0  0  0  0  0
    0.4550   63.3320   71.4500 C   0  0  0  0  0  0  0  0  0  0  0  0
    1.1810   62.1470   71.5820 C   0  0  0  0  0  0  0  0  0  0  0  0
    2.5130   62.0970   71.1750 C   0  0  0  0  0  0  0  0  0  0  0  0
    3.1250   63.2340   70.6430 C   0  0  0  0  0  0  0  0  0  0  0  0
    2.4030   64.4210   70.5100 C   0  0  0  0  0  0  0  0  0  0  0  0
    2.1281   67.2566   69.5154 H   0  0  0  0  0  0  0  0  0  0  0  0
    1.8303   68.4829   67.3694 H   0  0  0  0  0  0  0  0  0  0  0  0
   -2.1857   66.9151   67.0260 H   0  0  0  0  0  0  0  0  0  0  0  0
   -1.8897   65.6851   69.1717 H   0  0  0  0  0  0  0  0  0  0  0  0
   -0.5936   63.3728   71.7799 H   0  0  0  0  0  0  0  0  0  0  0  0
    0.7018   61.2528   72.0072 H   0  0  0  0  0  0  0  0  0  0  0  0
    3.0828   61.1612   71.2729 H   0  0  0  0  0  0  0  0  0  0  0  0
    4.1782   63.1940   70.3282 H   0  0  0  0  0  0  0  0  0  0  0  0
    2.8894   65.3185   70.1003 H   0  0  0  0  0  0  0  0  0  0  0  0
  2  1  2  0
  3  2  1  0
  4  3  2  0
  5  4  1  0
  6  5  2  0
  6  1  1  0
  7  4  1  0
  8  7  2  0
  9  7  1  0
 11 10  2  0
 11  1  1  0
 12 11  1  0
 13 12  2  0
 14 13  1  0
 15 14  2  0
 16 15  1  0
 17 16  2  0
 17 12  1  0
  2 18  1  0
  3 19  1  0
  5 20  1  0
  6 21  1  0
 13 22  1  0
 14 23  1  0
 15 24  1  0
 16 25  1  0
 17 26  1  0
M  CHG  1   9  -1
M  END
>  <score>  (9) 
-7.698

$$$$
