=
     RDKit          3D

 29 29  0  0  0  0  0  0  0  0999 V2000
    3.9330   68.1590   64.0820 C   0  0  0  0  0  0  0  0  0  0  0  0
    3.0120   67.8790   65.3100 C   0  0  0  0  0  0  0  0  0  0  0  0
    2.7330   69.1170   66.1580 C   0  0  0  0  0  0  0  0  0  0  0  0
    4.0190   69.7180   66.7220 C   0  0  0  0  0  0  0  0  0  0  0  0
    5.2210   69.5760   65.7880 C   0  0  0  0  0  0  0  0  0  0  0  0
    4.7950   69.4330   64.3290 C   0  0  0  0  0  0  0  0  0  0  0  0
    3.1170   68.3150   62.7650 C   0  0  0  0  0  0  0  0  0  0  0  0
    3.9780   68.4110   61.5600 N   0  0  0  0  0  4  0  0  0  0  0  0
    4.8550   66.9110   63.9180 C   0  0  0  0  0  0  0  0  0  0  0  0
    4.0530   65.6460   63.6170 C   0  0  0  0  0  0  0  0  0  0  0  0
    4.1090   65.2920   62.4050 O   0  0  0  0  0  0  0  0  0  0  0  0
    3.5490   65.0730   64.6130 O   0  0  0  0  0  1  0  0  0  0  0  0
    2.0527   67.4853   64.9429 H   0  0  0  0  0  0  0  0  0  0  0  0
    3.5404   67.1595   65.9527 H   0  0  0  0  0  0  0  0  0  0  0  0
    2.2313   69.8709   65.5336 H   0  0  0  0  0  0  0  0  0  0  0  0
    2.0958   68.8170   67.0029 H   0  0  0  0  0  0  0  0  0  0  0  0
    3.8494   70.7884   66.9104 H   0  0  0  0  0  0  0  0  0  0  0  0
    4.2578   69.1644   67.6420 H   0  0  0  0  0  0  0  0  0  0  0  0
    5.8558   70.4689   65.8872 H   0  0  0  0  0  0  0  0  0  0  0  0
    5.7689   68.6660   66.0737 H   0  0  0  0  0  0  0  0  0  0  0  0
    5.6970   69.3758   63.7020 H   0  0  0  0  0  0  0  0  0  0  0  0
    4.1797   70.3081   64.0729 H   0  0  0  0  0  0  0  0  0  0  0  0
    2.4566   67.4421   62.6558 H   0  0  0  0  0  0  0  0  0  0  0  0
    2.5470   69.2529   62.8390 H   0  0  0  0  0  0  0  0  0  0  0  0
    4.9608   68.5206   61.8481 H   0  0  0  0  0  0  0  0  0  0  0  0
    3.8786   67.5537   60.9978 H   0  0  0  0  0  0  0  0  0  0  0  0
    3.6922   69.2253   60.9978 H   0  0  0  0  0  0  0  0  0  0  0  0
    5.5560   67.0931   63.0901 H   0  0  0  0  0  0  0  0  0  0  0  0
    5.3920   66.7569   64.8656 H   0  0  0  0  0  0  0  0  0  0  0  0
  2  1  1  0
  3  2  1  0
  4  3  1  0
  5  4  1  0
  6  1  1  0
  6  5  1  0
  7  1  1  0
  8  7  1  0
  9  1  1  0
 10  9  1  0
 11 10  2  0
 12 10  1  0
  2 13  1  0
  2 14  1  0
  3 15  1  0
  3 16  1  0
  4 17  1  0
  4 18  1  0
  5 19  1  0
  5 20  1  0
  6 21  1  0
  6 22  1  0
  7 23  1  0
  7 24  1  0
  8 25  1  0
  8 26  1  0
  8 27  1  0
  9 28  1  0
  9 29  1  0
M  CHG  2   8   1  12  -1
M  END
>  <score>  (1) 
-6.367

$$$$
=
     RDKit          3D

 29 29  0  0  0  0  0  0  0  0999 V2000
    2.7090   68.2830   64.6470 C   0  0  0  0  0  0  0  0  0  0  0  0
    3.9650   68.9910   64.0500 C   0  0  0  0  0  0  0  0  0  0  0  0
    5.1470   69.0490   65.0140 C   0  0  0  0  0  0  0  0  0  0  0  0
    4.8000   69.8100   66.2910 C   0  0  0  0  0  0  0  0  0  0  0  0
    3.3470   69.6320   66.7320 C   0  0  0  0  0  0  0  0  0  0  0  0
    2.7460   68.3320   66.2040 C   0  0  0  0  0  0  0  0  0  0  0  0
    2.5870   66.8080   64.1630 C   0  0  0  0  0  0  0  0  0  0  0  0
    1.5150   66.0570   64.8650 N   0  0  0  0  0  4  0  0  0  0  0  0
    1.4620   69.0570   64.1160 C   0  0  0  0  0  0  0  0  0  0  0  0
    1.0500   68.5830   62.7220 C   0  0  0  0  0  0  0  0  0  0  0  0
   -0.0370   67.9370   62.7130 O   0  0  0  0  0  0  0  0  0  0  0  0
    1.7680   68.9880   61.7770 O   0  0  0  0  0  1  0  0  0  0  0  0
    4.2775   68.4437   63.1484 H   0  0  0  0  0  0  0  0  0  0  0  0
    3.6766   70.0292   63.8288 H   0  0  0  0  0  0  0  0  0  0  0  0
    5.4405   68.0227   65.2797 H   0  0  0  0  0  0  0  0  0  0  0  0
    5.9709   69.5787   64.5134 H   0  0  0  0  0  0  0  0  0  0  0  0
    5.4552   69.4517   67.0986 H   0  0  0  0  0  0  0  0  0  0  0  0
    4.9449   70.8797   66.0794 H   0  0  0  0  0  0  0  0  0  0  0  0
    3.3080   69.6209   67.8313 H   0  0  0  0  0  0  0  0  0  0  0  0
    2.7620   70.4686   66.3223 H   0  0  0  0  0  0  0  0  0  0  0  0
    1.7183   68.2379   66.5848 H   0  0  0  0  0  0  0  0  0  0  0  0
    3.3820   67.5040   66.5502 H   0  0  0  0  0  0  0  0  0  0  0  0
    2.3669   66.8092   63.0852 H   0  0  0  0  0  0  0  0  0  0  0  0
    3.5410   66.3074   64.3850 H   0  0  0  0  0  0  0  0  0  0  0  0
    1.6431   66.1468   65.8831 H   0  0  0  0  0  0  0  0  0  0  0  0
    0.5967   66.4405   64.5994 H   0  0  0  0  0  0  0  0  0  0  0  0
    1.5618   65.0629   64.5994 H   0  0  0  0  0  0  0  0  0  0  0  0
    0.6225   68.8975   64.8087 H   0  0  0  0  0  0  0  0  0  0  0  0
    1.7240   70.1233   64.0507 H   0  0  0  0  0  0  0  0  0  0  0  0
  2  1  1  0
  3  2  1  0
  4  3  1  0
  5  4  1  0
  6  1  1  0
  6  5  1  0
  7  1  1  0
  8  7  1  0
  9  1  1  0
 10  9  1  0
 11 10  2  0
 12 10  1  0
  2 13  1  0
  2 14  1  0
  3 15  1  0
  3 16  1  0
  4 17  1  0
  4 18  1  0
  5 19  1  0
  5 20  1  0
  6 21  1  0
  6 22  1  0
  7 23  1  0
  7 24  1  0
  8 25  1  0
  8 26  1  0
  8 27  1  0
  9 28  1  0
  9 29  1  0
M  CHG  2   8   1  12  -1
M  END
>  <score>  (2) 
-6.358

$$$$
=
     RDKit          3D

 29 29  0  0  0  0  0  0  0  0999 V2000
    3.9210   61.3050   71.6230 C   0  0  0  0  0  0  0  0  0  0  0  0
    5.0130   62.3350   71.1980 C   0  0  0  0  0  0  0  0  0  0  0  0
    4.4730   63.4740   70.3380 C   0  0  0  0  0  0  0  0  0  0  0  0
    3.8500   62.9590   69.0410 C   0  0  0  0  0  0  0  0  0  0  0  0
    3.1610   61.6030   69.1920 C   0  0  0  0  0  0  0  0  0  0  0  0
    2.7210   61.3440   70.6310 C   0  0  0  0  0  0  0  0  0  0  0  0
    3.4200   61.5530   73.0760 C   0  0  0  0  0  0  0  0  0  0  0  0
    1.9630   61.3160   73.2330 N   0  0  0  0  0  4  0  0  0  0  0  0
    4.5960   59.8980   71.5930 C   0  0  0  0  0  0  0  0  0  0  0  0
    3.6030   58.7990   71.2140 C   0  0  0  0  0  0  0  0  0  0  0  0
    3.8430   58.2700   70.0910 O   0  0  0  0  0  0  0  0  0  0  0  0
    2.7670   58.4950   72.0980 O   0  0  0  0  0  1  0  0  0  0  0  0
    5.4580   62.7658   72.1071 H   0  0  0  0  0  0  0  0  0  0  0  0
    5.7511   61.7918   70.5896 H   0  0  0  0  0  0  0  0  0  0  0  0
    3.7071   64.0192   70.9091 H   0  0  0  0  0  0  0  0  0  0  0  0
    5.3138   64.1329   70.0756 H   0  0  0  0  0  0  0  0  0  0  0  0
    3.1049   63.6918   68.6976 H   0  0  0  0  0  0  0  0  0  0  0  0
    4.6691   62.8271   68.3187 H   0  0  0  0  0  0  0  0  0  0  0  0
    2.2755   61.5797   68.5399 H   0  0  0  0  0  0  0  0  0  0  0  0
    3.8821   60.8214   68.9105 H   0  0  0  0  0  0  0  0  0  0  0  0
    2.1981   60.3771   70.6715 H   0  0  0  0  0  0  0  0  0  0  0  0
    2.0633   62.1721   70.9339 H   0  0  0  0  0  0  0  0  0  0  0  0
    3.9607   60.8763   73.7540 H   0  0  0  0  0  0  0  0  0  0  0  0
    3.6102   62.6098   73.3149 H   0  0  0  0  0  0  0  0  0  0  0  0
    1.7274   61.2777   74.2350 H   0  0  0  0  0  0  0  0  0  0  0  0
    1.4403   62.0830   72.7865 H   0  0  0  0  0  0  0  0  0  0  0  0
    1.7104   60.4229   72.7865 H   0  0  0  0  0  0  0  0  0  0  0  0
    5.4119   59.9103   70.8553 H   0  0  0  0  0  0  0  0  0  0  0  0
    4.9776   59.6806   72.6015 H   0  0  0  0  0  0  0  0  0  0  0  0
  2  1  1  0
  3  2  1  0
  4  3  1  0
  5  4  1  0
  6  1  1  0
  6  5  1  0
  7  1  1  0
  8  7  1  0
  9  1  1  0
 10  9  1  0
 11 10  2  0
 12 10  1  0
  2 13  1  0
  2 14  1  0
  3 15  1  0
  3 16  1  0
  4 17  1  0
  4 18  1  0
  5 19  1  0
  5 20  1  0
  6 21  1  0
  6 22  1  0
  7 23  1  0
  7 24  1  0
  8 25  1  0
  8 26  1  0
  8 27  1  0
  9 28  1  0
  9 29  1  0
M  CHG  2   8   1  12  -1
M  END
>  <score>  (3) 
-5.907

$$$$
=
     RDKit          3D

 29 29  0  0  0  0  0  0  0  0999 V2000
    3.3950   62.3560   70.5350 C   0  0  0  0  0  0  0  0  0  0  0  0
    4.9350   62.4510   70.7650 C   0  0  0  0  0  0  0  0  0  0  0  0
    5.5360   61.1980   71.3970 C   0  0  0  0  0  0  0  0  0  0  0  0
    4.9220   60.9030   72.7640 C   0  0  0  0  0  0  0  0  0  0  0  0
    3.4460   61.2870   72.8660 C   0  0  0  0  0  0  0  0  0  0  0  0
    2.7660   61.3060   71.5000 C   0  0  0  0  0  0  0  0  0  0  0  0
    3.0460   62.0010   69.0600 C   0  0  0  0  0  0  0  0  0  0  0  0
    3.3720   63.0950   68.1100 N   0  0  0  0  0  4  0  0  0  0  0  0
    2.8080   63.7720   70.8290 C   0  0  0  0  0  0  0  0  0  0  0  0
    1.2900   63.7350   70.9980 C   0  0  0  0  0  0  0  0  0  0  0  0
    0.9130   63.9100   72.1930 O   0  0  0  0  0  0  0  0  0  0  0  0
    0.6280   63.6520   69.9370 O   0  0  0  0  0  1  0  0  0  0  0  0
    5.4223   62.6185   69.7931 H   0  0  0  0  0  0  0  0  0  0  0  0
    5.1062   63.2806   71.4667 H   0  0  0  0  0  0  0  0  0  0  0  0
    5.3534   60.3410   70.7320 H   0  0  0  0  0  0  0  0  0  0  0  0
    6.6140   61.3678   71.5354 H   0  0  0  0  0  0  0  0  0  0  0  0
    5.0157   59.8251   72.9623 H   0  0  0  0  0  0  0  0  0  0  0  0
    5.4661   61.5120   73.5009 H   0  0  0  0  0  0  0  0  0  0  0  0
    2.9324   60.5567   73.5086 H   0  0  0  0  0  0  0  0  0  0  0  0
    3.3864   62.3002   73.2900 H   0  0  0  0  0  0  0  0  0  0  0  0
    1.7019   61.5475   71.6390 H   0  0  0  0  0  0  0  0  0  0  0  0
    2.8993   60.3128   71.0463 H   0  0  0  0  0  0  0  0  0  0  0  0
    3.6137   61.1043   68.7710 H   0  0  0  0  0  0  0  0  0  0  0  0
    1.9603   61.8319   69.0090 H   0  0  0  0  0  0  0  0  0  0  0  0
    3.6248   63.9432   68.6368 H   0  0  0  0  0  0  0  0  0  0  0  0
    4.1646   62.8101   67.5172 H   0  0  0  0  0  0  0  0  0  0  0  0
    2.5527   63.2904   67.5172 H   0  0  0  0  0  0  0  0  0  0  0  0
    3.2596   64.1592   71.7543 H   0  0  0  0  0  0  0  0  0  0  0  0
    3.0402   64.4221   69.9726 H   0  0  0  0  0  0  0  0  0  0  0  0
  2  1  1  0
  3  2  1  0
  4  3  1  0
  5  4  1  0
  6  1  1  0
  6  5  1  0
  7  1  1  0
  8  7  1  0
  9  1  1  0
 10  9  1  0
 11 10  2  0
 12 10  1  0
  2 13  1  0
  2 14  1  0
  3 15  1  0
  3 16  1  0
  4 17  1  0
  4 18  1  0
  5 19  1  0
  5 20  1  0
  6 21  1  0
  6 22  1  0
  7 23  1  0
  7 24  1  0
  8 25  1  0
  8 26  1  0
  8 27  1  0
  9 28  1  0
  9 29  1  0
M  CHG  2   8   1  12  -1
M  END
>  <score>  (4) 
-5.844

$$$$
=
     RDKit          3D

 29 29  0  0  0  0  0  0  0  0999 V2000
    2.2710   68.1040   64.2770 C   0  0  0  0  0  0  0  0  0  0  0  0
    3.0690   68.8850   65.3660 C   0  0  0  0  0  0  0  0  0  0  0  0
    4.3870   69.4650   64.8570 C   0  0  0  0  0  0  0  0  0  0  0  0
    5.3260   68.3740   64.3460 C   0  0  0  0  0  0  0  0  0  0  0  0
    4.5980   67.2020   63.6870 C   0  0  0  0  0  0  0  0  0  0  0  0
    3.2280   67.6090   63.1510 C   0  0  0  0  0  0  0  0  0  0  0  0
    1.1270   68.9640   63.6640 C   0  0  0  0  0  0  0  0  0  0  0  0
    0.1790   68.1660   62.8450 N   0  0  0  0  0  4  0  0  0  0  0  0
    1.6100   66.8840   64.9920 C   0  0  0  0  0  0  0  0  0  0  0  0
    0.7880   67.3140   66.2060 C   0  0  0  0  0  0  0  0  0  0  0  0
   -0.3640   67.7410   65.9070 O   0  0  0  0  0  0  0  0  0  0  0  0
    1.3090   67.0840   67.3230 O   0  0  0  0  0  1  0  0  0  0  0  0
    2.4423   69.7123   65.7306 H   0  0  0  0  0  0  0  0  0  0  0  0
    3.3173   68.1675   66.1619 H   0  0  0  0  0  0  0  0  0  0  0  0
    4.1745   70.1654   64.0359 H   0  0  0  0  0  0  0  0  0  0  0  0
    4.8818   69.9776   65.6951 H   0  0  0  0  0  0  0  0  0  0  0  0
    6.0083   68.8198   63.6072 H   0  0  0  0  0  0  0  0  0  0  0  0
    5.8611   67.9726   65.2193 H   0  0  0  0  0  0  0  0  0  0  0  0
    5.2093   66.8282   62.8524 H   0  0  0  0  0  0  0  0  0  0  0  0
    4.4472   66.4235   64.4493 H   0  0  0  0  0  0  0  0  0  0  0  0
    2.7704   66.7400   62.6555 H   0  0  0  0  0  0  0  0  0  0  0  0
    3.3774   68.4421   62.4484 H   0  0  0  0  0  0  0  0  0  0  0  0
    0.5683   69.4401   64.4833 H   0  0  0  0  0  0  0  0  0  0  0  0
    1.5924   69.7071   62.9997 H   0  0  0  0  0  0  0  0  0  0  0  0
   -0.4498   67.6367   63.4658 H   0  0  0  0  0  0  0  0  0  0  0  0
   -0.3769   68.7973   62.2506 H   0  0  0  0  0  0  0  0  0  0  0  0
    0.7063   67.5106   62.2506 H   0  0  0  0  0  0  0  0  0  0  0  0
    0.9493   66.3688   64.2792 H   0  0  0  0  0  0  0  0  0  0  0  0
    2.4120   66.2171   65.3413 H   0  0  0  0  0  0  0  0  0  0  0  0
  2  1  1  0
  3  2  1  0
  4  3  1  0
  5  4  1  0
  6  1  1  0
  6  5  1  0
  7  1  1  0
  8  7  1  0
  9  1  1  0
 10  9  1  0
 11 10  2  0
 12 10  1  0
  2 13  1  0
  2 14  1  0
  3 15  1  0
  3 16  1  0
  4 17  1  0
  4 18  1  0
  5 19  1  0
  5 20  1  0
  6 21  1  0
  6 22  1  0
  7 23  1  0
  7 24  1  0
  8 25  1  0
  8 26  1  0
  8 27  1  0
  9 28  1  0
  9 29  1  0
M  CHG  2   8   1  12  -1
M  END
>  <score>  (5) 
-5.763

$$$$
=
     RDKit          3D

 29 29  0  0  0  0  0  0  0  0999 V2000
    3.4780   60.6440   70.4280 C   0  0  0  0  0  0  0  0  0  0  0  0
    2.7530   61.7870   69.6530 C   0  0  0  0  0  0  0  0  0  0  0  0
    3.7100   62.7660   68.9760 C   0  0  0  0  0  0  0  0  0  0  0  0
    4.6240   63.4550   69.9880 C   0  0  0  0  0  0  0  0  0  0  0  0
    5.0090   62.5630   71.1690 C   0  0  0  0  0  0  0  0  0  0  0  0
    4.9220   61.0800   70.8160 C   0  0  0  0  0  0  0  0  0  0  0  0
    3.5240   59.3210   69.6080 C   0  0  0  0  0  0  0  0  0  0  0  0
    3.3830   58.1100   70.4550 N   0  0  0  0  0  4  0  0  0  0  0  0
    2.6380   60.3700   71.7140 C   0  0  0  0  0  0  0  0  0  0  0  0
    3.5220   60.2380   72.9540 C   0  0  0  0  0  0  0  0  0  0  0  0
    3.4050   61.2060   73.7590 O   0  0  0  0  0  0  0  0  0  0  0  0
    4.1470   59.1570   73.0620 O   0  0  0  0  0  1  0  0  0  0  0  0
    2.1147   61.3335   68.8804 H   0  0  0  0  0  0  0  0  0  0  0  0
    2.1719   62.3601   70.3905 H   0  0  0  0  0  0  0  0  0  0  0  0
    4.3299   62.2158   68.2527 H   0  0  0  0  0  0  0  0  0  0  0  0
    3.1103   63.5394   68.4738 H   0  0  0  0  0  0  0  0  0  0  0  0
    5.5443   63.7650   69.4713 H   0  0  0  0  0  0  0  0  0  0  0  0
    4.0667   64.3106   70.3971 H   0  0  0  0  0  0  0  0  0  0  0  0
    6.0410   62.7969   71.4694 H   0  0  0  0  0  0  0  0  0  0  0  0
    4.3024   62.7598   71.9888 H   0  0  0  0  0  0  0  0  0  0  0  0
    5.2469   60.4905   71.6860 H   0  0  0  0  0  0  0  0  0  0  0  0
    5.5700   60.9048   69.9446 H   0  0  0  0  0  0  0  0  0  0  0  0
    2.7039   59.3339   68.8751 H   0  0  0  0  0  0  0  0  0  0  0  0
    4.5087   59.2694   69.1204 H   0  0  0  0  0  0  0  0  0  0  0  0
    3.4145   58.3803   71.4484 H   0  0  0  0  0  0  0  0  0  0  0  0
    2.4830   57.6520   70.2521 H   0  0  0  0  0  0  0  0  0  0  0  0
    4.1537   57.4575   70.2521 H   0  0  0  0  0  0  0  0  0  0  0  0
    1.9360   61.2034   71.8646 H   0  0  0  0  0  0  0  0  0  0  0  0
    2.1012   59.4200   71.5749 H   0  0  0  0  0  0  0  0  0  0  0  0
  2  1  1  0
  3  2  1  0
  4  3  1  0
  5  4  1  0
  6  1  1  0
  6  5  1  0
  7  1  1  0
  8  7  1  0
  9  1  1  0
 10  9  1  0
 11 10  2  0
 12 10  1  0
  2 13  1  0
  2 14  1  0
  3 15  1  0
  3 16  1  0
  4 17  1  0
  4 18  1  0
  5 19  1  0
  5 20  1  0
  6 21  1  0
  6 22  1  0
  7 23  1  0
  7 24  1  0
  8 25  1  0
  8 26  1  0
  8 27  1  0
  9 28  1  0
  9 29  1  0
M  CHG  2   8   1  12  -1
M  END
>  <score>  (6) 
-5.722

$$$$
=
     RDKit          3D

 29 29  0  0  0  0  0  0  0  0999 V2000
    1.1430   68.5000   66.8990 C   0  0  0  0  0  0  0  0  0  0  0  0
    2.0370   69.0770   65.7580 C   0  0  0  0  0  0  0  0  0  0  0  0
    3.5280   69.0590   66.0840 C   0  0  0  0  0  0  0  0  0  0  0  0
    3.8450   69.8860   67.3280 C   0  0  0  0  0  0  0  0  0  0  0  0
    2.7400   69.8480   68.3840 C   0  0  0  0  0  0  0  0  0  0  0  0
    1.8820   68.5910   68.2670 C   0  0  0  0  0  0  0  0  0  0  0  0
    0.7190   67.0280   66.6190 C   0  0  0  0  0  0  0  0  0  0  0  0
    1.1460   66.5490   65.2800 N   0  0  0  0  0  4  0  0  0  0  0  0
   -0.1560   69.3640   66.9340 C   0  0  0  0  0  0  0  0  0  0  0  0
   -1.3070   68.6910   66.1860 C   0  0  0  0  0  0  0  0  0  0  0  0
   -2.2480   68.3170   66.9450 O   0  0  0  0  0  0  0  0  0  0  0  0
   -1.2220   68.7000   64.9360 O   0  0  0  0  0  1  0  0  0  0  0  0
    1.8720   68.4784   64.8500 H   0  0  0  0  0  0  0  0  0  0  0  0
    1.7484   70.1297   65.6221 H   0  0  0  0  0  0  0  0  0  0  0  0
    3.8422   68.0193   66.2577 H   0  0  0  0  0  0  0  0  0  0  0  0
    4.0699   69.4982   65.2334 H   0  0  0  0  0  0  0  0  0  0  0  0
    4.7702   69.4970   67.7782 H   0  0  0  0  0  0  0  0  0  0  0  0
    3.9464   70.9322   67.0036 H   0  0  0  0  0  0  0  0  0  0  0  0
    3.2015   69.8716   69.3822 H   0  0  0  0  0  0  0  0  0  0  0  0
    2.0888   70.7204   68.2267 H   0  0  0  0  0  0  0  0  0  0  0  0
    1.1333   68.5984   69.0728 H   0  0  0  0  0  0  0  0  0  0  0  0
    2.5505   67.7209   68.3449 H   0  0  0  0  0  0  0  0  0  0  0  0
    1.1719   66.3806   67.3843 H   0  0  0  0  0  0  0  0  0  0  0  0
   -0.3799   66.9894   66.6487 H   0  0  0  0  0  0  0  0  0  0  0  0
    1.8275   65.7845   65.3901 H   0  0  0  0  0  0  0  0  0  0  0  0
    0.3256   66.2055   64.7605 H   0  0  0  0  0  0  0  0  0  0  0  0
    1.5811   67.3247   64.7605 H   0  0  0  0  0  0  0  0  0  0  0  0
   -0.4536   69.5168   67.9819 H   0  0  0  0  0  0  0  0  0  0  0  0
    0.0583   70.3229   66.4395 H   0  0  0  0  0  0  0  0  0  0  0  0
  2  1  1  0
  3  2  1  0
  4  3  1  0
  5  4  1  0
  6  1  1  0
  6  5  1  0
  7  1  1  0
  8  7  1  0
  9  1  1  0
 10  9  1  0
 11 10  2  0
 12 10  1  0
  2 13  1  0
  2 14  1  0
  3 15  1  0
  3 16  1  0
  4 17  1  0
  4 18  1  0
  5 19  1  0
  5 20  1  0
  6 21  1  0
  6 22  1  0
  7 23  1  0
  7 24  1  0
  8 25  1  0
  8 26  1  0
  8 27  1  0
  9 28  1  0
  9 29  1  0
M  CHG  2   8   1  12  -1
M  END
>  <score>  (7) 
-5.688

$$$$
=
     RDKit          3D

 29 29  0  0  0  0  0  0  0  0999 V2000
    3.7940   68.4420   64.2260 C   0  0  0  0  0  0  0  0  0  0  0  0
    2.5510   68.0640   63.3610 C   0  0  0  0  0  0  0  0  0  0  0  0
    1.2970   68.8590   63.7170 C   0  0  0  0  0  0  0  0  0  0  0  0
    0.8820   68.6420   65.1700 C   0  0  0  0  0  0  0  0  0  0  0  0
    2.0640   68.4430   66.1190 C   0  0  0  0  0  0  0  0  0  0  0  0
    3.3440   69.0740   65.5770 C   0  0  0  0  0  0  0  0  0  0  0  0
    4.7520   69.4130   63.4760 C   0  0  0  0  0  0  0  0  0  0  0  0
    6.0380   68.7750   63.0950 N   0  0  0  0  0  4  0  0  0  0  0  0
    4.5780   67.1180   64.4890 C   0  0  0  0  0  0  0  0  0  0  0  0
    4.0750   65.9750   63.6080 C   0  0  0  0  0  0  0  0  0  0  0  0
    4.5690   65.9830   62.4440 O   0  0  0  0  0  0  0  0  0  0  0  0
    3.3440   65.1310   64.1790 O   0  0  0  0  0  1  0  0  0  0  0  0
    2.7927   68.2498   62.3041 H   0  0  0  0  0  0  0  0  0  0  0  0
    2.3295   67.0047   63.5582 H   0  0  0  0  0  0  0  0  0  0  0  0
    1.4972   69.9291   63.5599 H   0  0  0  0  0  0  0  0  0  0  0  0
    0.4769   68.5114   63.0715 H   0  0  0  0  0  0  0  0  0  0  0  0
    0.3115   69.5212   65.5041 H   0  0  0  0  0  0  0  0  0  0  0  0
    0.2835   67.7196   65.2011 H   0  0  0  0  0  0  0  0  0  0  0  0
    1.8232   68.9044   67.0881 H   0  0  0  0  0  0  0  0  0  0  0  0
    2.2364   67.3618   66.2254 H   0  0  0  0  0  0  0  0  0  0  0  0
    4.1465   68.9349   66.3163 H   0  0  0  0  0  0  0  0  0  0  0  0
    3.1412   70.1400   65.3966 H   0  0  0  0  0  0  0  0  0  0  0  0
    4.2505   69.7652   62.5625 H   0  0  0  0  0  0  0  0  0  0  0  0
    4.9844   70.2422   64.1604 H   0  0  0  0  0  0  0  0  0  0  0  0
    6.5584   68.5168   63.9455 H   0  0  0  0  0  0  0  0  0  0  0  0
    5.8499   67.9295   62.5376 H   0  0  0  0  0  0  0  0  0  0  0  0
    6.5975   69.4362   62.5376 H   0  0  0  0  0  0  0  0  0  0  0  0
    5.6441   67.2877   64.2776 H   0  0  0  0  0  0  0  0  0  0  0  0
    4.4235   66.8326   65.5400 H   0  0  0  0  0  0  0  0  0  0  0  0
  2  1  1  0
  3  2  1  0
  4  3  1  0
  5  4  1  0
  6  1  1  0
  6  5  1  0
  7  1  1  0
  8  7  1  0
  9  1  1  0
 10  9  1  0
 11 10  2  0
 12 10  1  0
  2 13  1  0
  2 14  1  0
  3 15  1  0
  3 16  1  0
  4 17  1  0
  4 18  1  0
  5 19  1  0
  5 20  1  0
  6 21  1  0
  6 22  1  0
  7 23  1  0
  7 24  1  0
  8 25  1  0
  8 26  1  0
  8 27  1  0
  9 28  1  0
  9 29  1  0
M  CHG  2   8   1  12  -1
M  END
>  <score>  (8) 
-5.677

$$$$
=
     RDKit          3D

 29 29  0  0  0  0  0  0  0  0999 V2000
    1.2190   68.1760   66.9480 C   0  0  0  0  0  0  0  0  0  0  0  0
    1.1600   67.0300   65.8910 C   0  0  0  0  0  0  0  0  0  0  0  0
    2.5330   66.6040   65.3770 C   0  0  0  0  0  0  0  0  0  0  0  0
    3.2690   67.7610   64.7040 C   0  0  0  0  0  0  0  0  0  0  0  0
    2.9800   69.1200   65.3410 C   0  0  0  0  0  0  0  0  0  0  0  0
    2.5410   68.9870   66.7970 C   0  0  0  0  0  0  0  0  0  0  0  0
    1.0900   67.6350   68.4020 C   0  0  0  0  0  0  0  0  0  0  0  0
    0.0440   66.5890   68.5380 N   0  0  0  0  0  4  0  0  0  0  0  0
   -0.0100   69.0990   66.6790 C   0  0  0  0  0  0  0  0  0  0  0  0
   -1.0490   68.4190   65.7880 C   0  0  0  0  0  0  0  0  0  0  0  0
   -1.8920   67.7330   66.4350 O   0  0  0  0  0  0  0  0  0  0  0  0
   -0.9980   68.7160   64.5710 O   0  0  0  0  0  1  0  0  0  0  0  0
    0.6742   66.1568   66.3510 H   0  0  0  0  0  0  0  0  0  0  0  0
    0.5966   67.4146   65.0280 H   0  0  0  0  0  0  0  0  0  0  0  0
    3.1347   66.2437   66.2244 H   0  0  0  0  0  0  0  0  0  0  0  0
    2.3879   65.8096   64.6301 H   0  0  0  0  0  0  0  0  0  0  0  0
    4.3504   67.5697   64.7673 H   0  0  0  0  0  0  0  0  0  0  0  0
    2.9141   67.8090   63.6639 H   0  0  0  0  0  0  0  0  0  0  0  0
    3.8925   69.7329   65.2997 H   0  0  0  0  0  0  0  0  0  0  0  0
    2.1591   69.5906   64.7801 H   0  0  0  0  0  0  0  0  0  0  0  0
    2.3871   69.9937   67.2128 H   0  0  0  0  0  0  0  0  0  0  0  0
    3.3307   68.4439   67.3368 H   0  0  0  0  0  0  0  0  0  0  0  0
    2.0568   67.2061   68.7042 H   0  0  0  0  0  0  0  0  0  0  0  0
    0.7986   68.4793   69.0441 H   0  0  0  0  0  0  0  0  0  0  0  0
   -0.1349   66.4101   69.5364 H   0  0  0  0  0  0  0  0  0  0  0  0
   -0.8239   66.9105   68.0859 H   0  0  0  0  0  0  0  0  0  0  0  0
    0.3655   65.7211   68.0859 H   0  0  0  0  0  0  0  0  0  0  0  0
   -0.4792   69.3557   67.6402 H   0  0  0  0  0  0  0  0  0  0  0  0
    0.3476   70.0001   66.1592 H   0  0  0  0  0  0  0  0  0  0  0  0
  2  1  1  0
  3  2  1  0
  4  3  1  0
  5  4  1  0
  6  1  1  0
  6  5  1  0
  7  1  1  0
  8  7  1  0
  9  1  1  0
 10  9  1  0
 11 10  2  0
 12 10  1  0
  2 13  1  0
  2 14  1  0
  3 15  1  0
  3 16  1  0
  4 17  1  0
  4 18  1  0
  5 19  1  0
  5 20  1  0
  6 21  1  0
  6 22  1  0
  7 23  1  0
  7 24  1  0
  8 25  1  0
  8 26  1  0
  8 27  1  0
  9 28  1  0
  9 29  1  0
M  CHG  2   8   1  12  -1
M  END
>  <score>  (9) 
-5.642

$$$$
