=
     RDKit          3D

 46 48  0  0  0  0  0  0  0  0999 V2000
    1.7630   68.5830   65.6580 C   0  0  0  0  0  0  0  0  0  0  0  0
    4.4360   70.4680   68.5040 C   0  0  0  0  0  0  0  0  0  0  0  0
    4.9260   70.0430   67.2720 C   0  0  0  0  0  0  0  0  0  0  0  0
    4.0550   69.4460   66.3570 C   0  0  0  0  0  0  0  0  0  0  0  0
    2.6980   69.2500   66.6740 C   0  0  0  0  0  0  0  0  0  0  0  0
    2.2350   69.6720   67.9330 C   0  0  0  0  0  0  0  0  0  0  0  0
    3.1020   70.2730   68.8480 C   0  0  0  0  0  0  0  0  0  0  0  0
    5.2690   71.0260   69.4860 O   0  0  0  0  0  0  0  0  0  0  0  0
    7.5180   70.5840   69.9950 C   0  0  0  0  0  0  0  0  0  0  0  0
    6.5720   71.3530   69.1220 C   0  0  0  0  0  0  0  0  0  0  0  0
    6.9240   72.1340   68.2480 O   0  0  0  0  0  0  0  0  0  0  0  0
    0.3670   68.2500   66.2100 C   0  0  0  0  0  0  0  0  0  0  0  0
   -0.7510   68.8970   65.6770 C   0  0  0  0  0  0  0  0  0  0  0  0
   -2.0180   68.5750   66.1580 C   0  0  0  0  0  0  0  0  0  0  0  0
   -2.1460   67.6140   67.1510 C   0  0  0  0  0  0  0  0  0  0  0  0
   -0.9950   67.0050   67.6190 C   0  0  0  0  0  0  0  0  0  0  0  0
    0.2450   67.2900   67.1660 N   0  0  0  0  0  0  0  0  0  0  0  0
    2.4370   67.4320   64.9000 C   0  0  0  0  0  0  0  0  0  0  0  0
    2.3160   66.0920   65.3050 C   0  0  0  0  0  0  0  0  0  0  0  0
    2.9500   65.0700   64.5940 C   0  0  0  0  0  0  0  0  0  0  0  0
    3.7050   65.3870   63.4690 C   0  0  0  0  0  0  0  0  0  0  0  0
    3.8750   66.7080   63.0660 C   0  0  0  0  0  0  0  0  0  0  0  0
    3.2370   67.7260   63.7780 C   0  0  0  0  0  0  0  0  0  0  0  0
    4.3670   64.3420   62.8150 O   0  0  0  0  0  0  0  0  0  0  0  0
    4.9290   63.3840   63.6510 C   0  0  0  0  0  0  0  0  0  0  0  0
    4.8510   63.3270   64.8710 O   0  0  0  0  0  0  0  0  0  0  0  0
    5.6810   62.3970   62.8090 C   0  0  0  0  0  0  0  0  0  0  0  0
    1.5592   69.3505   64.8968 H   0  0  0  0  0  0  0  0  0  0  0  0
    5.9888   70.1760   67.0214 H   0  0  0  0  0  0  0  0  0  0  0  0
    4.4350   69.1250   65.3759 H   0  0  0  0  0  0  0  0  0  0  0  0
    1.1778   69.5270   68.2001 H   0  0  0  0  0  0  0  0  0  0  0  0
    2.7327   70.5902   69.8344 H   0  0  0  0  0  0  0  0  0  0  0  0
    7.2808   70.7768   71.0517 H   0  0  0  0  0  0  0  0  0  0  0  0
    7.4171   69.5086   69.7869 H   0  0  0  0  0  0  0  0  0  0  0  0
    8.5501   70.9025   69.7869 H   0  0  0  0  0  0  0  0  0  0  0  0
   -0.6319   69.6523   64.8862 H   0  0  0  0  0  0  0  0  0  0  0  0
   -2.9091   69.0780   65.7544 H   0  0  0  0  0  0  0  0  0  0  0  0
   -3.1333   67.3444   67.5541 H   0  0  0  0  0  0  0  0  0  0  0  0
   -1.0959   66.2437   68.4066 H   0  0  0  0  0  0  0  0  0  0  0  0
    1.7149   65.8447   66.1924 H   0  0  0  0  0  0  0  0  0  0  0  0
    2.8532   64.0241   64.9206 H   0  0  0  0  0  0  0  0  0  0  0  0
    4.5047   66.9477   62.1965 H   0  0  0  0  0  0  0  0  0  0  0  0
    3.3607   68.7713   63.4586 H   0  0  0  0  0  0  0  0  0  0  0  0
    6.2178   61.6925   63.4613 H   0  0  0  0  0  0  0  0  0  0  0  0
    4.9740   61.8429   62.1740 H   0  0  0  0  0  0  0  0  0  0  0  0
    6.4028   62.9316   62.1740 H   0  0  0  0  0  0  0  0  0  0  0  0
  3  2  2  0
  4  3  1  0
  5  4  2  0
  5  1  1  0
  6  5  1  0
  7  6  2  0
  7  2  1  0
  8  2  1  0
 10  8  1  0
 10  9  1  0
 11 10  2  0
 12  1  1  0
 13 12  2  0
 14 13  1  0
 15 14  2  0
 16 15  1  0
 17 16  2  0
 17 12  1  0
 18  1  1  0
 19 18  2  0
 20 19  1  0
 21 20  2  0
 22 21  1  0
 23 22  2  0
 23 18  1  0
 24 21  1  0
 25 24  1  0
 26 25  2  0
 27 25  1  0
  1 28  1  0
  3 29  1  0
  4 30  1  0
  6 31  1  0
  7 32  1  0
  9 33  1  0
  9 34  1  0
  9 35  1  0
 13 36  1  0
 14 37  1  0
 15 38  1  0
 16 39  1  0
 19 40  1  0
 20 41  1  0
 22 42  1  0
 23 43  1  0
 27 44  1  0
 27 45  1  0
 27 46  1  0
M  END
>  <score>  (1) 
-10.467

$$$$
=
     RDKit          3D

 46 48  0  0  0  0  0  0  0  0999 V2000
    1.6690   69.0080   67.0590 C   0  0  0  0  0  0  0  0  0  0  0  0
    0.0810   66.0510   69.8050 C   0  0  0  0  0  0  0  0  0  0  0  0
   -0.6920   66.4820   68.7300 C   0  0  0  0  0  0  0  0  0  0  0  0
   -0.1680   67.4280   67.8450 C   0  0  0  0  0  0  0  0  0  0  0  0
    1.1190   67.9640   68.0380 C   0  0  0  0  0  0  0  0  0  0  0  0
    1.8700   67.5230   69.1420 C   0  0  0  0  0  0  0  0  0  0  0  0
    1.3510   66.5750   70.0270 C   0  0  0  0  0  0  0  0  0  0  0  0
   -0.4060   65.1440   70.7580 O   0  0  0  0  0  0  0  0  0  0  0  0
    0.4000   63.6500   72.3810 C   0  0  0  0  0  0  0  0  0  0  0  0
    0.2740   63.9390   70.9140 C   0  0  0  0  0  0  0  0  0  0  0  0
    0.7140   63.2160   70.0310 O   0  0  0  0  0  0  0  0  0  0  0  0
    1.7950   68.5100   65.6100 C   0  0  0  0  0  0  0  0  0  0  0  0
    2.6160   67.4140   65.3340 C   0  0  0  0  0  0  0  0  0  0  0  0
    2.7100   66.9460   64.0250 C   0  0  0  0  0  0  0  0  0  0  0  0
    1.9810   67.5730   63.0240 C   0  0  0  0  0  0  0  0  0  0  0  0
    1.1780   68.6420   63.3760 C   0  0  0  0  0  0  0  0  0  0  0  0
    1.0600   69.1120   64.6370 N   0  0  0  0  0  0  0  0  0  0  0  0
    2.9170   69.7220   67.5960 C   0  0  0  0  0  0  0  0  0  0  0  0
    2.8830   70.5370   68.7400 C   0  0  0  0  0  0  0  0  0  0  0  0
    4.0380   71.1780   69.1960 C   0  0  0  0  0  0  0  0  0  0  0  0
    5.2340   71.0000   68.5090 C   0  0  0  0  0  0  0  0  0  0  0  0
    5.2900   70.2300   67.3510 C   0  0  0  0  0  0  0  0  0  0  0  0
    4.1350   69.5890   66.9000 C   0  0  0  0  0  0  0  0  0  0  0  0
    6.3570   71.7000   68.9660 O   0  0  0  0  0  0  0  0  0  0  0  0
    7.3980   70.9050   69.4320 C   0  0  0  0  0  0  0  0  0  0  0  0
    8.4510   70.6540   68.8620 O   0  0  0  0  0  0  0  0  0  0  0  0
    7.0250   70.3750   70.7850 C   0  0  0  0  0  0  0  0  0  0  0  0
    0.8950   69.7868   66.9928 H   0  0  0  0  0  0  0  0  0  0  0  0
   -1.7054   66.0817   68.5789 H   0  0  0  0  0  0  0  0  0  0  0  0
   -0.7698   67.7584   66.9855 H   0  0  0  0  0  0  0  0  0  0  0  0
    2.8782   67.9294   69.3107 H   0  0  0  0  0  0  0  0  0  0  0  0
    1.9423   66.2448   70.8938 H   0  0  0  0  0  0  0  0  0  0  0  0
    0.0256   64.5088   72.9574 H   0  0  0  0  0  0  0  0  0  0  0  0
   -0.1899   62.7557   72.6305 H   0  0  0  0  0  0  0  0  0  0  0  0
    1.4567   63.4736   72.6305 H   0  0  0  0  0  0  0  0  0  0  0  0
    3.1820   66.9259   66.1411 H   0  0  0  0  0  0  0  0  0  0  0  0
    3.3558   66.0878   63.7871 H   0  0  0  0  0  0  0  0  0  0  0  0
    2.0404   67.2293   61.9808 H   0  0  0  0  0  0  0  0  0  0  0  0
    0.6011   69.1392   62.5823 H   0  0  0  0  0  0  0  0  0  0  0  0
    1.9360   70.6721   69.2831 H   0  0  0  0  0  0  0  0  0  0  0  0
    4.0015   71.8176   70.0902 H   0  0  0  0  0  0  0  0  0  0  0  0
    6.2347   70.1276   66.7969 H   0  0  0  0  0  0  0  0  0  0  0  0
    4.1761   68.9724   65.9900 H   0  0  0  0  0  0  0  0  0  0  0  0
    7.4721   71.0104   71.5637 H   0  0  0  0  0  0  0  0  0  0  0  0
    5.9302   70.3799   70.8917 H   0  0  0  0  0  0  0  0  0  0  0  0
    7.3992   69.3461   70.8917 H   0  0  0  0  0  0  0  0  0  0  0  0
  3  2  2  0
  4  3  1  0
  5  4  2  0
  5  1  1  0
  6  5  1  0
  7  6  2  0
  7  2  1  0
  8  2  1  0
 10  8  1  0
 10  9  1  0
 11 10  2  0
 12  1  1  0
 13 12  2  0
 14 13  1  0
 15 14  2  0
 16 15  1  0
 17 16  2  0
 17 12  1  0
 18  1  1  0
 19 18  2  0
 20 19  1  0
 21 20  2  0
 22 21  1  0
 23 22  2  0
 23 18  1  0
 24 21  1  0
 25 24  1  0
 26 25  2  0
 27 25  1  0
  1 28  1  0
  3 29  1  0
  4 30  1  0
  6 31  1  0
  7 32  1  0
  9 33  1  0
  9 34  1  0
  9 35  1  0
 13 36  1  0
 14 37  1  0
 15 38  1  0
 16 39  1  0
 19 40  1  0
 20 41  1  0
 22 42  1  0
 23 43  1  0
 27 44  1  0
 27 45  1  0
 27 46  1  0
M  END
>  <score>  (2) 
-9.802

$$$$
=
     RDKit          3D

 46 48  0  0  0  0  0  0  0  0999 V2000
    3.1920   67.9340   63.9900 C   0  0  0  0  0  0  0  0  0  0  0  0
   -0.9590   68.7790   64.9180 C   0  0  0  0  0  0  0  0  0  0  0  0
   -0.5110   68.8730   63.6020 C   0  0  0  0  0  0  0  0  0  0  0  0
    0.8250   68.5890   63.3110 C   0  0  0  0  0  0  0  0  0  0  0  0
    1.7270   68.2320   64.3320 C   0  0  0  0  0  0  0  0  0  0  0  0
    1.2510   68.1640   65.6530 C   0  0  0  0  0  0  0  0  0  0  0  0
   -0.0850   68.4430   65.9480 C   0  0  0  0  0  0  0  0  0  0  0  0
   -2.2750   69.1020   65.2830 O   0  0  0  0  0  0  0  0  0  0  0  0
   -4.3810   68.5870   66.1840 C   0  0  0  0  0  0  0  0  0  0  0  0
   -2.9140   68.2750   66.2020 C   0  0  0  0  0  0  0  0  0  0  0  0
   -2.4000   67.4310   66.9230 O   0  0  0  0  0  0  0  0  0  0  0  0
    3.5500   66.4390   63.9980 C   0  0  0  0  0  0  0  0  0  0  0  0
    3.0030   65.6100   64.9800 C   0  0  0  0  0  0  0  0  0  0  0  0
    3.3070   64.2500   64.9710 C   0  0  0  0  0  0  0  0  0  0  0  0
    4.1410   63.7460   63.9830 C   0  0  0  0  0  0  0  0  0  0  0  0
    4.6330   64.6250   63.0350 C   0  0  0  0  0  0  0  0  0  0  0  0
    4.3490   65.9450   63.0140 N   0  0  0  0  0  0  0  0  0  0  0  0
    4.1720   68.8260   64.7640 C   0  0  0  0  0  0  0  0  0  0  0  0
    5.2880   69.4240   64.1530 C   0  0  0  0  0  0  0  0  0  0  0  0
    6.1640   70.2240   64.8900 C   0  0  0  0  0  0  0  0  0  0  0  0
    5.9230   70.4330   66.2440 C   0  0  0  0  0  0  0  0  0  0  0  0
    4.8490   69.8230   66.8850 C   0  0  0  0  0  0  0  0  0  0  0  0
    3.9740   69.0260   66.1440 C   0  0  0  0  0  0  0  0  0  0  0  0
    6.8510   71.1970   66.9590 O   0  0  0  0  0  0  0  0  0  0  0  0
    6.4220   71.6290   68.2090 C   0  0  0  0  0  0  0  0  0  0  0  0
    5.5150   72.4150   68.4510 O   0  0  0  0  0  0  0  0  0  0  0  0
    7.2690   70.9730   69.2590 C   0  0  0  0  0  0  0  0  0  0  0  0
    3.3128   68.2179   62.9341 H   0  0  0  0  0  0  0  0  0  0  0  0
   -1.2032   69.1682   62.7997 H   0  0  0  0  0  0  0  0  0  0  0  0
    1.1775   68.6449   62.2705 H   0  0  0  0  0  0  0  0  0  0  0  0
    1.9399   67.8874   66.4647 H   0  0  0  0  0  0  0  0  0  0  0  0
   -0.4442   68.3976   66.9867 H   0  0  0  0  0  0  0  0  0  0  0  0
   -4.7518   68.6659   67.2166 H   0  0  0  0  0  0  0  0  0  0  0  0
   -4.5467   69.5405   65.6611 H   0  0  0  0  0  0  0  0  0  0  0  0
   -4.9204   67.7835   65.6611 H   0  0  0  0  0  0  0  0  0  0  0  0
    2.3393   66.0261   65.7522 H   0  0  0  0  0  0  0  0  0  0  0  0
    2.8900   63.5826   65.7395 H   0  0  0  0  0  0  0  0  0  0  0  0
    4.4033   62.6781   63.9545 H   0  0  0  0  0  0  0  0  0  0  0  0
    5.2944   64.2253   62.2523 H   0  0  0  0  0  0  0  0  0  0  0  0
    5.4735   69.2598   63.0813 H   0  0  0  0  0  0  0  0  0  0  0  0
    7.0367   70.6847   64.4041 H   0  0  0  0  0  0  0  0  0  0  0  0
    4.6910   69.9671   67.9640 H   0  0  0  0  0  0  0  0  0  0  0  0
    3.1190   68.5482   66.6446 H   0  0  0  0  0  0  0  0  0  0  0  0
    6.9021   71.2572   70.2563 H   0  0  0  0  0  0  0  0  0  0  0  0
    7.2130   69.8803   69.1453 H   0  0  0  0  0  0  0  0  0  0  0  0
    8.3130   71.3005   69.1453 H   0  0  0  0  0  0  0  0  0  0  0  0
  3  2  2  0
  4  3  1  0
  5  4  2  0
  5  1  1  0
  6  5  1  0
  7  6  2  0
  7  2  1  0
  8  2  1  0
 10  8  1  0
 10  9  1  0
 11 10  2  0
 12  1  1  0
 13 12  2  0
 14 13  1  0
 15 14  2  0
 16 15  1  0
 17 16  2  0
 17 12  1  0
 18  1  1  0
 19 18  2  0
 20 19  1  0
 21 20  2  0
 22 21  1  0
 23 22  2  0
 23 18  1  0
 24 21  1  0
 25 24  1  0
 26 25  2  0
 27 25  1  0
  1 28  1  0
  3 29  1  0
  4 30  1  0
  6 31  1  0
  7 32  1  0
  9 33  1  0
  9 34  1  0
  9 35  1  0
 13 36  1  0
 14 37  1  0
 15 38  1  0
 16 39  1  0
 19 40  1  0
 20 41  1  0
 22 42  1  0
 23 43  1  0
 27 44  1  0
 27 45  1  0
 27 46  1  0
M  END
>  <score>  (3) 
-9.753

$$$$
=
     RDKit          3D

 46 48  0  0  0  0  0  0  0  0999 V2000
    3.3040   68.2410   65.7540 C   0  0  0  0  0  0  0  0  0  0  0  0
    5.8560   70.9740   67.9500 C   0  0  0  0  0  0  0  0  0  0  0  0
    4.5580   70.7340   68.3920 C   0  0  0  0  0  0  0  0  0  0  0  0
    3.7460   69.8440   67.6840 C   0  0  0  0  0  0  0  0  0  0  0  0
    4.2170   69.2060   66.5210 C   0  0  0  0  0  0  0  0  0  0  0  0
    5.5250   69.4830   66.0870 C   0  0  0  0  0  0  0  0  0  0  0  0
    6.3410   70.3680   66.7940 C   0  0  0  0  0  0  0  0  0  0  0  0
    6.7030   71.8960   68.5850 O   0  0  0  0  0  0  0  0  0  0  0  0
    6.9930   70.4110   70.3810 C   0  0  0  0  0  0  0  0  0  0  0  0
    7.6570   71.3980   69.4670 C   0  0  0  0  0  0  0  0  0  0  0  0
    8.8430   71.6950   69.5210 O   0  0  0  0  0  0  0  0  0  0  0  0
    3.7140   68.0150   64.2900 C   0  0  0  0  0  0  0  0  0  0  0  0
    4.1700   66.7540   63.8950 C   0  0  0  0  0  0  0  0  0  0  0  0
    4.5160   66.5410   62.5630 C   0  0  0  0  0  0  0  0  0  0  0  0
    4.3940   67.5830   61.6530 C   0  0  0  0  0  0  0  0  0  0  0  0
    3.9210   68.7980   62.1140 C   0  0  0  0  0  0  0  0  0  0  0  0
    3.5700   69.0310   63.3970 N   0  0  0  0  0  0  0  0  0  0  0  0
    1.8150   68.5490   65.9560 C   0  0  0  0  0  0  0  0  0  0  0  0
    0.8840   68.4800   64.9050 C   0  0  0  0  0  0  0  0  0  0  0  0
   -0.4650   68.7740   65.1240 C   0  0  0  0  0  0  0  0  0  0  0  0
   -0.8870   69.1340   66.4000 C   0  0  0  0  0  0  0  0  0  0  0  0
    0.0180   69.2480   67.4510 C   0  0  0  0  0  0  0  0  0  0  0  0
    1.3630   68.9510   67.2290 C   0  0  0  0  0  0  0  0  0  0  0  0
   -2.2340   69.4720   66.5670 O   0  0  0  0  0  0  0  0  0  0  0  0
   -3.1330   68.4320   66.3590 C   0  0  0  0  0  0  0  0  0  0  0  0
   -4.0920   68.4220   65.5980 O   0  0  0  0  0  0  0  0  0  0  0  0
   -2.7470   67.2820   67.2400 C   0  0  0  0  0  0  0  0  0  0  0  0
    3.4610   67.2556   66.2169 H   0  0  0  0  0  0  0  0  0  0  0  0
    4.1750   71.2403   69.2903 H   0  0  0  0  0  0  0  0  0  0  0  0
    2.7256   69.6393   68.0401 H   0  0  0  0  0  0  0  0  0  0  0  0
    5.9104   68.9963   65.1789 H   0  0  0  0  0  0  0  0  0  0  0  0
    7.3598   70.5850   66.4404 H   0  0  0  0  0  0  0  0  0  0  0  0
    7.1834   70.6940   71.4268 H   0  0  0  0  0  0  0  0  0  0  0  0
    5.9091   70.4090   70.1932 H   0  0  0  0  0  0  0  0  0  0  0  0
    7.3996   69.4063   70.1932 H   0  0  0  0  0  0  0  0  0  0  0  0
    4.2546   65.9386   64.6285 H   0  0  0  0  0  0  0  0  0  0  0  0
    4.8823   65.5571   62.2348 H   0  0  0  0  0  0  0  0  0  0  0  0
    4.6658   67.4458   60.5960 H   0  0  0  0  0  0  0  0  0  0  0  0
    3.8250   69.6233   61.3931 H   0  0  0  0  0  0  0  0  0  0  0  0
    1.2209   68.1913   63.8985 H   0  0  0  0  0  0  0  0  0  0  0  0
   -1.1862   68.7212   64.2951 H   0  0  0  0  0  0  0  0  0  0  0  0
   -0.3235   69.5689   68.4462 H   0  0  0  0  0  0  0  0  0  0  0  0
    2.0805   69.0317   68.0589 H   0  0  0  0  0  0  0  0  0  0  0  0
   -2.8465   67.5785   68.2946 H   0  0  0  0  0  0  0  0  0  0  0  0
   -3.4071   66.4261   67.0359 H   0  0  0  0  0  0  0  0  0  0  0  0
   -1.7042   66.9977   67.0359 H   0  0  0  0  0  0  0  0  0  0  0  0
  3  2  2  0
  4  3  1  0
  5  4  2  0
  5  1  1  0
  6  5  1  0
  7  6  2  0
  7  2  1  0
  8  2  1  0
 10  8  1  0
 10  9  1  0
 11 10  2  0
 12  1  1  0
 13 12  2  0
 14 13  1  0
 15 14  2  0
 16 15  1  0
 17 16  2  0
 17 12  1  0
 18  1  1  0
 19 18  2  0
 20 19  1  0
 21 20  2  0
 22 21  1  0
 23 22  2  0
 23 18  1  0
 24 21  1  0
 25 24  1  0
 26 25  2  0
 27 25  1  0
  1 28  1  0
  3 29  1  0
  4 30  1  0
  6 31  1  0
  7 32  1  0
  9 33  1  0
  9 34  1  0
  9 35  1  0
 13 36  1  0
 14 37  1  0
 15 38  1  0
 16 39  1  0
 19 40  1  0
 20 41  1  0
 22 42  1  0
 23 43  1  0
 27 44  1  0
 27 45  1  0
 27 46  1  0
M  END
>  <score>  (4) 
-9.368

$$$$
=
     RDKit          3D

 46 48  0  0  0  0  0  0  0  0999 V2000
    1.8700   63.4540   71.7300 C   0  0  0  0  0  0  0  0  0  0  0  0
    0.2120   66.5930   69.2410 C   0  0  0  0  0  0  0  0  0  0  0  0
   -0.6020   65.5470   69.6690 C   0  0  0  0  0  0  0  0  0  0  0  0
   -0.0620   64.5450   70.4790 C   0  0  0  0  0  0  0  0  0  0  0  0
    1.2960   64.5700   70.8490 C   0  0  0  0  0  0  0  0  0  0  0  0
    2.0980   65.6280   70.3870 C   0  0  0  0  0  0  0  0  0  0  0  0
    1.5610   66.6330   69.5800 C   0  0  0  0  0  0  0  0  0  0  0  0
   -0.2570   67.6000   68.3840 O   0  0  0  0  0  0  0  0  0  0  0  0
   -2.2460   67.3690   67.1580 C   0  0  0  0  0  0  0  0  0  0  0  0
   -0.7540   67.2160   67.1420 C   0  0  0  0  0  0  0  0  0  0  0  0
   -0.1150   66.8140   66.1800 O   0  0  0  0  0  0  0  0  0  0  0  0
    2.6810   62.3970   70.9620 C   0  0  0  0  0  0  0  0  0  0  0  0
    2.4960   62.2630   69.5840 C   0  0  0  0  0  0  0  0  0  0  0  0
    3.2490   61.3230   68.8830 C   0  0  0  0  0  0  0  0  0  0  0  0
    4.1720   60.5440   69.5670 C   0  0  0  0  0  0  0  0  0  0  0  0
    4.3110   60.7440   70.9290 C   0  0  0  0  0  0  0  0  0  0  0  0
    3.6010   61.6520   71.6320 N   0  0  0  0  0  0  0  0  0  0  0  0
    0.8340   62.8760   72.7030 C   0  0  0  0  0  0  0  0  0  0  0  0
    0.5990   63.4340   73.9710 C   0  0  0  0  0  0  0  0  0  0  0  0
   -0.3480   62.8760   74.8340 C   0  0  0  0  0  0  0  0  0  0  0  0
   -1.0690   61.7580   74.4260 C   0  0  0  0  0  0  0  0  0  0  0  0
   -0.8320   61.1610   73.1920 C   0  0  0  0  0  0  0  0  0  0  0  0
    0.1140   61.7230   72.3320 C   0  0  0  0  0  0  0  0  0  0  0  0
   -1.9700   61.1980   75.3380 O   0  0  0  0  0  0  0  0  0  0  0  0
   -3.2950   61.5850   75.1720 C   0  0  0  0  0  0  0  0  0  0  0  0
   -3.7820   62.6820   75.4130 O   0  0  0  0  0  0  0  0  0  0  0  0
   -4.0710   60.4170   74.6400 C   0  0  0  0  0  0  0  0  0  0  0  0
    2.6248   63.9400   72.3657 H   0  0  0  0  0  0  0  0  0  0  0  0
   -1.6605   65.5102   69.3719 H   0  0  0  0  0  0  0  0  0  0  0  0
   -0.7061   63.7262   70.8321 H   0  0  0  0  0  0  0  0  0  0  0  0
    3.1618   65.6646   70.6647 H   0  0  0  0  0  0  0  0  0  0  0  0
    2.1999   67.4506   69.2148 H   0  0  0  0  0  0  0  0  0  0  0  0
   -2.5997   67.4053   68.1989 H   0  0  0  0  0  0  0  0  0  0  0  0
   -2.5246   68.3004   66.6434 H   0  0  0  0  0  0  0  0  0  0  0  0
   -2.7079   66.5135   66.6434 H   0  0  0  0  0  0  0  0  0  0  0  0
    1.7637   62.8928   69.0577 H   0  0  0  0  0  0  0  0  0  0  0  0
    3.1133   61.1996   67.7984 H   0  0  0  0  0  0  0  0  0  0  0  0
    4.7756   59.7894   69.0414 H   0  0  0  0  0  0  0  0  0  0  0  0
    5.0429   60.1270   71.4708 H   0  0  0  0  0  0  0  0  0  0  0  0
    1.1673   64.3208   74.2882 H   0  0  0  0  0  0  0  0  0  0  0  0
   -0.5219   63.3166   75.8268 H   0  0  0  0  0  0  0  0  0  0  0  0
   -1.3837   60.2562   72.8969 H   0  0  0  0  0  0  0  0  0  0  0  0
    0.2995   61.2594   71.3519 H   0  0  0  0  0  0  0  0  0  0  0  0
   -4.4643   59.8250   75.4796 H   0  0  0  0  0  0  0  0  0  0  0  0
   -4.9070   60.7817   74.0251 H   0  0  0  0  0  0  0  0  0  0  0  0
   -3.4108   59.7876   74.0251 H   0  0  0  0  0  0  0  0  0  0  0  0
  3  2  2  0
  4  3  1  0
  5  4  2  0
  5  1  1  0
  6  5  1  0
  7  6  2  0
  7  2  1  0
  8  2  1  0
 10  8  1  0
 10  9  1  0
 11 10  2  0
 12  1  1  0
 13 12  2  0
 14 13  1  0
 15 14  2  0
 16 15  1  0
 17 16  2  0
 17 12  1  0
 18  1  1  0
 19 18  2  0
 20 19  1  0
 21 20  2  0
 22 21  1  0
 23 22  2  0
 23 18  1  0
 24 21  1  0
 25 24  1  0
 26 25  2  0
 27 25  1  0
  1 28  1  0
  3 29  1  0
  4 30  1  0
  6 31  1  0
  7 32  1  0
  9 33  1  0
  9 34  1  0
  9 35  1  0
 13 36  1  0
 14 37  1  0
 15 38  1  0
 16 39  1  0
 19 40  1  0
 20 41  1  0
 22 42  1  0
 23 43  1  0
 27 44  1  0
 27 45  1  0
 27 46  1  0
M  END
>  <score>  (5) 
-9.168

$$$$
=
     RDKit          3D

 46 48  0  0  0  0  0  0  0  0999 V2000
    1.2360   62.3510   71.3220 C   0  0  0  0  0  0  0  0  0  0  0  0
   -0.9110   62.0250   75.0750 C   0  0  0  0  0  0  0  0  0  0  0  0
   -1.1030   61.0660   74.0830 C   0  0  0  0  0  0  0  0  0  0  0  0
   -0.3990   61.1740   72.8810 C   0  0  0  0  0  0  0  0  0  0  0  0
    0.4820   62.2480   72.6530 C   0  0  0  0  0  0  0  0  0  0  0  0
    0.6410   63.2110   73.6650 C   0  0  0  0  0  0  0  0  0  0  0  0
   -0.0570   63.1050   74.8690 C   0  0  0  0  0  0  0  0  0  0  0  0
   -1.6260   62.0030   76.2820 O   0  0  0  0  0  0  0  0  0  0  0  0
   -2.2800   63.6990   77.7680 C   0  0  0  0  0  0  0  0  0  0  0  0
   -2.5890   62.9870   76.4840 C   0  0  0  0  0  0  0  0  0  0  0  0
   -3.5410   63.2520   75.7630 O   0  0  0  0  0  0  0  0  0  0  0  0
    2.6570   61.7640   71.3550 C   0  0  0  0  0  0  0  0  0  0  0  0
    3.1780   61.1710   70.2010 C   0  0  0  0  0  0  0  0  0  0  0  0
    4.4750   60.6630   70.2230 C   0  0  0  0  0  0  0  0  0  0  0  0
    5.2260   60.7620   71.3860 C   0  0  0  0  0  0  0  0  0  0  0  0
    4.6490   61.3760   72.4830 C   0  0  0  0  0  0  0  0  0  0  0  0
    3.3980   61.8850   72.4890 N   0  0  0  0  0  0  0  0  0  0  0  0
    1.1410   63.7480   70.6950 C   0  0  0  0  0  0  0  0  0  0  0  0
    2.2630   64.5800   70.5380 C   0  0  0  0  0  0  0  0  0  0  0  0
    2.1380   65.8500   69.9680 C   0  0  0  0  0  0  0  0  0  0  0  0
    0.8870   66.2900   69.5490 C   0  0  0  0  0  0  0  0  0  0  0  0
   -0.2480   65.5040   69.7260 C   0  0  0  0  0  0  0  0  0  0  0  0
   -0.1190   64.2350   70.2930 C   0  0  0  0  0  0  0  0  0  0  0  0
    0.7940   67.5870   69.0320 O   0  0  0  0  0  0  0  0  0  0  0  0
    1.2470   67.7360   67.7270 C   0  0  0  0  0  0  0  0  0  0  0  0
    1.0770   66.9660   66.7900 O   0  0  0  0  0  0  0  0  0  0  0  0
    2.0110   69.0230   67.6300 C   0  0  0  0  0  0  0  0  0  0  0  0
    0.7018   61.6851   70.6283 H   0  0  0  0  0  0  0  0  0  0  0  0
   -1.8019   60.2320   74.2444 H   0  0  0  0  0  0  0  0  0  0  0  0
   -0.5350   60.4093   72.1021 H   0  0  0  0  0  0  0  0  0  0  0  0
    1.3240   64.0585   73.5059 H   0  0  0  0  0  0  0  0  0  0  0  0
    0.0668   63.8697   75.6499 H   0  0  0  0  0  0  0  0  0  0  0  0
   -2.5578   63.0588   78.6183 H   0  0  0  0  0  0  0  0  0  0  0  0
   -1.2039   63.9225   77.8135 H   0  0  0  0  0  0  0  0  0  0  0  0
   -2.8517   64.6377   77.8135 H   0  0  0  0  0  0  0  0  0  0  0  0
    2.5707   61.1063   69.2861 H   0  0  0  0  0  0  0  0  0  0  0  0
    4.9001   60.1877   69.3267 H   0  0  0  0  0  0  0  0  0  0  0  0
    6.2503   60.3638   71.4340 H   0  0  0  0  0  0  0  0  0  0  0  0
    5.2441   61.4543   73.4048 H   0  0  0  0  0  0  0  0  0  0  0  0
    3.2514   64.2273   70.8677 H   0  0  0  0  0  0  0  0  0  0  0  0
    3.0210   66.4956   69.8519 H   0  0  0  0  0  0  0  0  0  0  0  0
   -1.2365   65.8790   69.4222 H   0  0  0  0  0  0  0  0  0  0  0  0
   -1.0121   63.6071   70.4278 H   0  0  0  0  0  0  0  0  0  0  0  0
    2.2320   69.3953   68.6412 H   0  0  0  0  0  0  0  0  0  0  0  0
    2.9530   68.8503   67.0888 H   0  0  0  0  0  0  0  0  0  0  0  0
    1.4083   69.7673   67.0888 H   0  0  0  0  0  0  0  0  0  0  0  0
  3  2  2  0
  4  3  1  0
  5  4  2  0
  5  1  1  0
  6  5  1  0
  7  6  2  0
  7  2  1  0
  8  2  1  0
 10  8  1  0
 10  9  1  0
 11 10  2  0
 12  1  1  0
 13 12  2  0
 14 13  1  0
 15 14  2  0
 16 15  1  0
 17 16  2  0
 17 12  1  0
 18  1  1  0
 19 18  2  0
 20 19  1  0
 21 20  2  0
 22 21  1  0
 23 22  2  0
 23 18  1  0
 24 21  1  0
 25 24  1  0
 26 25  2  0
 27 25  1  0
  1 28  1  0
  3 29  1  0
  4 30  1  0
  6 31  1  0
  7 32  1  0
  9 33  1  0
  9 34  1  0
  9 35  1  0
 13 36  1  0
 14 37  1  0
 15 38  1  0
 16 39  1  0
 19 40  1  0
 20 41  1  0
 22 42  1  0
 23 43  1  0
 27 44  1  0
 27 45  1  0
 27 46  1  0
M  END
>  <score>  (6) 
-8.842

$$$$
=
     RDKit          3D

 46 48  0  0  0  0  0  0  0  0999 V2000
    1.1960   59.2090   74.3660 C   0  0  0  0  0  0  0  0  0  0  0  0
    0.8540   54.8970   74.0660 C   0  0  0  0  0  0  0  0  0  0  0  0
   -0.1690   55.7080   73.5800 C   0  0  0  0  0  0  0  0  0  0  0  0
   -0.0450   57.0960   73.6720 C   0  0  0  0  0  0  0  0  0  0  0  0
    1.0870   57.6830   74.2670 C   0  0  0  0  0  0  0  0  0  0  0  0
    2.0950   56.8400   74.7660 C   0  0  0  0  0  0  0  0  0  0  0  0
    1.9780   55.4520   74.6720 C   0  0  0  0  0  0  0  0  0  0  0  0
    0.7680   53.4970   74.0510 O   0  0  0  0  0  0  0  0  0  0  0  0
   -0.9340   51.8790   74.0270 C   0  0  0  0  0  0  0  0  0  0  0  0
   -0.2030   52.8980   74.8490 C   0  0  0  0  0  0  0  0  0  0  0  0
   -0.4490   53.1400   76.0230 O   0  0  0  0  0  0  0  0  0  0  0  0
   -0.1570   59.9360   74.4250 C   0  0  0  0  0  0  0  0  0  0  0  0
   -0.6300   60.5940   73.2860 C   0  0  0  0  0  0  0  0  0  0  0  0
   -1.8680   61.2310   73.3320 C   0  0  0  0  0  0  0  0  0  0  0  0
   -2.6110   61.1920   74.5040 C   0  0  0  0  0  0  0  0  0  0  0  0
   -2.0850   60.5090   75.5850 C   0  0  0  0  0  0  0  0  0  0  0  0
   -0.8920   59.8760   75.5680 N   0  0  0  0  0  0  0  0  0  0  0  0
    2.1890   59.7980   73.3550 C   0  0  0  0  0  0  0  0  0  0  0  0
    2.4240   59.2090   72.1000 C   0  0  0  0  0  0  0  0  0  0  0  0
    3.3410   59.7690   71.2070 C   0  0  0  0  0  0  0  0  0  0  0  0
    4.0240   60.9270   71.5660 C   0  0  0  0  0  0  0  0  0  0  0  0
    3.8410   61.5110   72.8160 C   0  0  0  0  0  0  0  0  0  0  0  0
    2.9220   60.9500   73.7040 C   0  0  0  0  0  0  0  0  0  0  0  0
    4.9710   61.4270   70.6670 O   0  0  0  0  0  0  0  0  0  0  0  0
    4.7360   62.7230   70.2220 C   0  0  0  0  0  0  0  0  0  0  0  0
    5.2510   63.7540   70.6340 O   0  0  0  0  0  0  0  0  0  0  0  0
    3.7150   62.6730   69.1240 C   0  0  0  0  0  0  0  0  0  0  0  0
    1.6351   59.4090   75.3545 H   0  0  0  0  0  0  0  0  0  0  0  0
   -1.0660   55.2594   73.1281 H   0  0  0  0  0  0  0  0  0  0  0  0
   -0.8434   57.7394   73.2738 H   0  0  0  0  0  0  0  0  0  0  0  0
    2.9870   57.2793   75.2364 H   0  0  0  0  0  0  0  0  0  0  0  0
    2.7685   54.8012   75.0740 H   0  0  0  0  0  0  0  0  0  0  0  0
   -1.4441   51.1679   74.6934 H   0  0  0  0  0  0  0  0  0  0  0  0
   -1.6768   52.3843   73.3923 H   0  0  0  0  0  0  0  0  0  0  0  0
   -0.2173   51.3373   73.3923 H   0  0  0  0  0  0  0  0  0  0  0  0
   -0.0311   60.6086   72.3634 H   0  0  0  0  0  0  0  0  0  0  0  0
   -2.2533   61.7600   72.4478 H   0  0  0  0  0  0  0  0  0  0  0  0
   -3.5896   61.6899   74.5707 H   0  0  0  0  0  0  0  0  0  0  0  0
   -2.6731   60.4794   76.5141 H   0  0  0  0  0  0  0  0  0  0  0  0
    1.8791   58.2960   71.8178 H   0  0  0  0  0  0  0  0  0  0  0  0
    3.5214   59.2988   70.2291 H   0  0  0  0  0  0  0  0  0  0  0  0
    4.4146   62.4053   73.1010 H   0  0  0  0  0  0  0  0  0  0  0  0
    2.7677   61.4133   74.6897 H   0  0  0  0  0  0  0  0  0  0  0  0
    2.7073   62.6237   69.5623 H   0  0  0  0  0  0  0  0  0  0  0  0
    3.8006   63.5764   68.5023 H   0  0  0  0  0  0  0  0  0  0  0  0
    3.8885   61.7823   68.5023 H   0  0  0  0  0  0  0  0  0  0  0  0
  3  2  2  0
  4  3  1  0
  5  4  2  0
  5  1  1  0
  6  5  1  0
  7  6  2  0
  7  2  1  0
  8  2  1  0
 10  8  1  0
 10  9  1  0
 11 10  2  0
 12  1  1  0
 13 12  2  0
 14 13  1  0
 15 14  2  0
 16 15  1  0
 17 16  2  0
 17 12  1  0
 18  1  1  0
 19 18  2  0
 20 19  1  0
 21 20  2  0
 22 21  1  0
 23 22  2  0
 23 18  1  0
 24 21  1  0
 25 24  1  0
 26 25  2  0
 27 25  1  0
  1 28  1  0
  3 29  1  0
  4 30  1  0
  6 31  1  0
  7 32  1  0
  9 33  1  0
  9 34  1  0
  9 35  1  0
 13 36  1  0
 14 37  1  0
 15 38  1  0
 16 39  1  0
 19 40  1  0
 20 41  1  0
 22 42  1  0
 23 43  1  0
 27 44  1  0
 27 45  1  0
 27 46  1  0
M  END
>  <score>  (7) 
-8.504

$$$$
=
     RDKit          3D

 46 48  0  0  0  0  0  0  0  0999 V2000
   -0.6610   60.5000   73.2180 C   0  0  0  0  0  0  0  0  0  0  0  0
    2.1260   63.3000   71.4300 C   0  0  0  0  0  0  0  0  0  0  0  0
    0.7750   63.3620   71.0980 C   0  0  0  0  0  0  0  0  0  0  0  0
   -0.1170   62.4620   71.6870 C   0  0  0  0  0  0  0  0  0  0  0  0
    0.3350   61.4840   72.5920 C   0  0  0  0  0  0  0  0  0  0  0  0
    1.7080   61.4330   72.8940 C   0  0  0  0  0  0  0  0  0  0  0  0
    2.6020   62.3330   72.3110 C   0  0  0  0  0  0  0  0  0  0  0  0
    3.0800   64.1400   70.8350 O   0  0  0  0  0  0  0  0  0  0  0  0
    3.7290   62.9240   68.9340 C   0  0  0  0  0  0  0  0  0  0  0  0
    4.1790   63.5430   70.2240 C   0  0  0  0  0  0  0  0  0  0  0  0
    5.3290   63.5060   70.6410 O   0  0  0  0  0  0  0  0  0  0  0  0
   -1.6110   61.1340   74.2470 C   0  0  0  0  0  0  0  0  0  0  0  0
   -2.9810   60.8700   74.1650 C   0  0  0  0  0  0  0  0  0  0  0  0
   -3.8400   61.4230   75.1120 C   0  0  0  0  0  0  0  0  0  0  0  0
   -3.3170   62.2180   76.1230 C   0  0  0  0  0  0  0  0  0  0  0  0
   -1.9490   62.4230   76.1480 C   0  0  0  0  0  0  0  0  0  0  0  0
   -1.0920   61.8940   75.2490 N   0  0  0  0  0  0  0  0  0  0  0  0
    0.0070   59.2010   73.6870 C   0  0  0  0  0  0  0  0  0  0  0  0
   -0.2840   58.6120   74.9300 C   0  0  0  0  0  0  0  0  0  0  0  0
    0.3480   57.4320   75.3280 C   0  0  0  0  0  0  0  0  0  0  0  0
    1.2730   56.8330   74.4790 C   0  0  0  0  0  0  0  0  0  0  0  0
    1.6100   57.4120   73.2590 C   0  0  0  0  0  0  0  0  0  0  0  0
    0.9740   58.5900   72.8640 C   0  0  0  0  0  0  0  0  0  0  0  0
    1.9240   55.6810   74.9350 O   0  0  0  0  0  0  0  0  0  0  0  0
    1.8380   54.5810   74.0890 C   0  0  0  0  0  0  0  0  0  0  0  0
    2.6930   54.1760   73.3120 O   0  0  0  0  0  0  0  0  0  0  0  0
    0.4940   53.9420   74.2700 C   0  0  0  0  0  0  0  0  0  0  0  0
   -1.3340   60.2012   72.4008 H   0  0  0  0  0  0  0  0  0  0  0  0
    0.4136   64.1121   70.3792 H   0  0  0  0  0  0  0  0  0  0  0  0
   -1.1873   62.5189   71.4397 H   0  0  0  0  0  0  0  0  0  0  0  0
    2.0817   60.6749   73.5980 H   0  0  0  0  0  0  0  0  0  0  0  0
    3.6752   62.2784   72.5462 H   0  0  0  0  0  0  0  0  0  0  0  0
    3.0945   62.0512   69.1478 H   0  0  0  0  0  0  0  0  0  0  0  0
    3.1548   63.6615   68.3541 H   0  0  0  0  0  0  0  0  0  0  0  0
    4.6077   62.6053   68.3541 H   0  0  0  0  0  0  0  0  0  0  0  0
   -3.3769   60.2321   73.3610 H   0  0  0  0  0  0  0  0  0  0  0  0
   -4.9220   61.2317   75.0593 H   0  0  0  0  0  0  0  0  0  0  0  0
   -3.9713   62.6717   76.8820 H   0  0  0  0  0  0  0  0  0  0  0  0
   -1.5350   63.0545   76.9479 H   0  0  0  0  0  0  0  0  0  0  0  0
   -1.0186   59.0865   75.5973 H   0  0  0  0  0  0  0  0  0  0  0  0
    0.1165   56.9803   76.3039 H   0  0  0  0  0  0  0  0  0  0  0  0
    2.3691   56.9464   72.6133 H   0  0  0  0  0  0  0  0  0  0  0  0
    1.2311   59.0476   71.8973 H   0  0  0  0  0  0  0  0  0  0  0  0
    0.2784   53.8395   75.3438 H   0  0  0  0  0  0  0  0  0  0  0  0
   -0.2769   54.5700   73.7995 H   0  0  0  0  0  0  0  0  0  0  0  0
    0.4944   52.9477   73.7995 H   0  0  0  0  0  0  0  0  0  0  0  0
  3  2  2  0
  4  3  1  0
  5  4  2  0
  5  1  1  0
  6  5  1  0
  7  6  2  0
  7  2  1  0
  8  2  1  0
 10  8  1  0
 10  9  1  0
 11 10  2  0
 12  1  1  0
 13 12  2  0
 14 13  1  0
 15 14  2  0
 16 15  1  0
 17 16  2  0
 17 12  1  0
 18  1  1  0
 19 18  2  0
 20 19  1  0
 21 20  2  0
 22 21  1  0
 23 22  2  0
 23 18  1  0
 24 21  1  0
 25 24  1  0
 26 25  2  0
 27 25  1  0
  1 28  1  0
  3 29  1  0
  4 30  1  0
  6 31  1  0
  7 32  1  0
  9 33  1  0
  9 34  1  0
  9 35  1  0
 13 36  1  0
 14 37  1  0
 15 38  1  0
 16 39  1  0
 19 40  1  0
 20 41  1  0
 22 42  1  0
 23 43  1  0
 27 44  1  0
 27 45  1  0
 27 46  1  0
M  END
>  <score>  (8) 
-8.272

$$$$
=
     RDKit          3D

 46 48  0  0  0  0  0  0  0  0999 V2000
    1.2420   59.1200   74.4480 C   0  0  0  0  0  0  0  0  0  0  0  0
    3.9480   60.8220   71.5180 C   0  0  0  0  0  0  0  0  0  0  0  0
    3.2200   59.6770   71.2040 C   0  0  0  0  0  0  0  0  0  0  0  0
    2.3430   59.1420   72.1510 C   0  0  0  0  0  0  0  0  0  0  0  0
    2.2030   59.7310   73.4210 C   0  0  0  0  0  0  0  0  0  0  0  0
    2.9650   60.8750   73.7170 C   0  0  0  0  0  0  0  0  0  0  0  0
    3.8400   61.4160   72.7730 C   0  0  0  0  0  0  0  0  0  0  0  0
    4.8830   61.3770   70.6320 O   0  0  0  0  0  0  0  0  0  0  0  0
    3.6590   62.5920   69.0380 C   0  0  0  0  0  0  0  0  0  0  0  0
    4.6470   62.6670   70.1650 C   0  0  0  0  0  0  0  0  0  0  0  0
    5.1450   63.7070   70.5740 O   0  0  0  0  0  0  0  0  0  0  0  0
    1.0850   57.5950   74.3360 C   0  0  0  0  0  0  0  0  0  0  0  0
   -0.0990   57.0660   73.8160 C   0  0  0  0  0  0  0  0  0  0  0  0
   -0.2310   55.6850   73.6900 C   0  0  0  0  0  0  0  0  0  0  0  0
    0.8180   54.8630   74.0760 C   0  0  0  0  0  0  0  0  0  0  0  0
    1.9650   55.4590   74.5670 C   0  0  0  0  0  0  0  0  0  0  0  0
    2.1250   56.7940   74.6930 N   0  0  0  0  0  0  0  0  0  0  0  0
   -0.0820   59.8890   74.5490 C   0  0  0  0  0  0  0  0  0  0  0  0
   -0.7360   60.4130   73.4200 C   0  0  0  0  0  0  0  0  0  0  0  0
   -1.9370   61.1140   73.5500 C   0  0  0  0  0  0  0  0  0  0  0  0
   -2.4930   61.2880   74.8140 C   0  0  0  0  0  0  0  0  0  0  0  0
   -1.8500   60.8140   75.9530 C   0  0  0  0  0  0  0  0  0  0  0  0
   -0.6510   60.1120   75.8190 C   0  0  0  0  0  0  0  0  0  0  0  0
   -3.6690   62.0400   74.9080 O   0  0  0  0  0  0  0  0  0  0  0  0
   -4.8300   61.2980   75.0910 C   0  0  0  0  0  0  0  0  0  0  0  0
   -5.3460   60.5210   74.2990 O   0  0  0  0  0  0  0  0  0  0  0  0
   -5.3840   61.6050   76.4510 C   0  0  0  0  0  0  0  0  0  0  0  0
    1.7302   59.2535   75.4246 H   0  0  0  0  0  0  0  0  0  0  0  0
    3.3343   59.1986   70.2201 H   0  0  0  0  0  0  0  0  0  0  0  0
    1.7537   58.2477   71.9001 H   0  0  0  0  0  0  0  0  0  0  0  0
    2.8706   61.3498   74.7048 H   0  0  0  0  0  0  0  0  0  0  0  0
    4.4396   62.3048   73.0187 H   0  0  0  0  0  0  0  0  0  0  0  0
    2.6410   62.5147   69.4474 H   0  0  0  0  0  0  0  0  0  0  0  0
    3.7379   63.4987   68.4202 H   0  0  0  0  0  0  0  0  0  0  0  0
    3.8739   61.7076   68.4202 H   0  0  0  0  0  0  0  0  0  0  0  0
   -0.9182   57.7330   73.5094 H   0  0  0  0  0  0  0  0  0  0  0  0
   -1.1582   55.2503   73.2883 H   0  0  0  0  0  0  0  0  0  0  0  0
    0.7395   53.7689   73.9938 H   0  0  0  0  0  0  0  0  0  0  0  0
    2.7964   54.8071   74.8731 H   0  0  0  0  0  0  0  0  0  0  0  0
   -0.2963   60.2691   72.4220 H   0  0  0  0  0  0  0  0  0  0  0  0
   -2.4389   61.5248   72.6615 H   0  0  0  0  0  0  0  0  0  0  0  0
   -2.2821   60.9906   76.9490 H   0  0  0  0  0  0  0  0  0  0  0  0
   -0.1436   59.7279   76.7162 H   0  0  0  0  0  0  0  0  0  0  0  0
   -4.6971   61.2243   77.2212 H   0  0  0  0  0  0  0  0  0  0  0  0
   -5.4952   62.6935   76.5645 H   0  0  0  0  0  0  0  0  0  0  0  0
   -6.3659   61.1223   76.5645 H   0  0  0  0  0  0  0  0  0  0  0  0
  3  2  2  0
  4  3  1  0
  5  4  2  0
  5  1  1  0
  6  5  1  0
  7  6  2  0
  7  2  1  0
  8  2  1  0
 10  8  1  0
 10  9  1  0
 11 10  2  0
 12  1  1  0
 13 12  2  0
 14 13  1  0
 15 14  2  0
 16 15  1  0
 17 16  2  0
 17 12  1  0
 18  1  1  0
 19 18  2  0
 20 19  1  0
 21 20  2  0
 22 21  1  0
 23 22  2  0
 23 18  1  0
 24 21  1  0
 25 24  1  0
 26 25  2  0
 27 25  1  0
  1 28  1  0
  3 29  1  0
  4 30  1  0
  6 31  1  0
  7 32  1  0
  9 33  1  0
  9 34  1  0
  9 35  1  0
 13 36  1  0
 14 37  1  0
 15 38  1  0
 16 39  1  0
 19 40  1  0
 20 41  1  0
 22 42  1  0
 23 43  1  0
 27 44  1  0
 27 45  1  0
 27 46  1  0
M  END
>  <score>  (9) 
-8.247

$$$$
