=
     RDKit          3D

 12 12  0  0  0  0  0  0  0  0999 V2000
    4.8420   69.4790   63.8000 Cl  0  0  0  0  0  0  0  0  0  0  0  0
    3.2320   69.0330   64.3170 C   0  0  0  0  0  0  0  0  0  0  0  0
    2.3170   68.6800   63.3990 C   0  0  0  0  0  0  0  0  0  0  0  0
    2.6210   68.6320   61.6960 Cl  0  0  0  0  0  0  0  0  0  0  0  0
    0.9470   68.3000   63.8220 C   0  0  0  0  0  0  0  0  0  0  0  0
    0.0770   67.9700   63.0280 O   0  0  0  0  0  0  0  0  0  0  0  0
    0.6350   68.3270   65.3060 C   0  0  0  0  0  0  0  0  0  0  0  0
   -0.4840   68.0190   65.6920 O   0  0  0  0  0  0  0  0  0  0  0  0
    1.7200   68.7320   66.2310 C   0  0  0  0  0  0  0  0  0  0  0  0
    2.9310   69.0590   65.7480 C   0  0  0  0  0  0  0  0  0  0  0  0
    4.2000   69.5350   66.8550 Cl  0  0  0  0  0  0  0  0  0  0  0  0
    1.3130   68.7470   67.9140 Cl  0  0  0  0  0  0  0  0  0  0  0  0
  2  1  1  0
  3  2  2  0
  4  3  1  0
  5  3  1  0
  6  5  2  0
  7  5  1  0
  8  7  2  0
  9  7  1  0
 10  2  1  0
 10  9  2  0
 11 10  1  0
 12  9  1  0
M  END
>  <score>  (1) 
-6.714

$$$$
=
     RDKit          3D

 12 12  0  0  0  0  0  0  0  0999 V2000
    4.5080   69.4810   66.5310 Cl  0  0  0  0  0  0  0  0  0  0  0  0
    3.2330   69.0500   65.4140 C   0  0  0  0  0  0  0  0  0  0  0  0
    2.0120   68.7490   65.8890 C   0  0  0  0  0  0  0  0  0  0  0  0
    1.5970   68.7570   67.5690 Cl  0  0  0  0  0  0  0  0  0  0  0  0
    0.9210   68.3810   64.9550 C   0  0  0  0  0  0  0  0  0  0  0  0
   -0.2080   68.0990   65.3340 O   0  0  0  0  0  0  0  0  0  0  0  0
    1.2390   68.3600   63.4720 C   0  0  0  0  0  0  0  0  0  0  0  0
    0.3640   68.0610   62.6720 O   0  0  0  0  0  0  0  0  0  0  0  0
    2.6190   68.7090   63.0590 C   0  0  0  0  0  0  0  0  0  0  0  0
    3.5400   69.0300   63.9850 C   0  0  0  0  0  0  0  0  0  0  0  0
    5.1640   69.4380   63.4790 Cl  0  0  0  0  0  0  0  0  0  0  0  0
    2.9320   68.6700   61.3570 Cl  0  0  0  0  0  0  0  0  0  0  0  0
  2  1  1  0
  3  2  2  0
  4  3  1  0
  5  3  1  0
  6  5  2  0
  7  5  1  0
  8  7  2  0
  9  7  1  0
 10  2  1  0
 10  9  2  0
 11 10  1  0
 12  9  1  0
M  END
>  <score>  (2) 
-6.706

$$$$
=
     RDKit          3D

 12 12  0  0  0  0  0  0  0  0999 V2000
    2.9860   69.7850   68.6980 Cl  0  0  0  0  0  0  0  0  0  0  0  0
    2.7700   69.3560   67.0160 C   0  0  0  0  0  0  0  0  0  0  0  0
    1.5720   68.9150   66.5950 C   0  0  0  0  0  0  0  0  0  0  0  0
    0.1900   68.7350   67.6210 Cl  0  0  0  0  0  0  0  0  0  0  0  0
    1.3740   68.5460   65.1720 C   0  0  0  0  0  0  0  0  0  0  0  0
    0.3060   68.1400   64.7360 O   0  0  0  0  0  0  0  0  0  0  0  0
    2.5590   68.6880   64.2360 C   0  0  0  0  0  0  0  0  0  0  0  0
    2.4330   68.3930   63.0550 O   0  0  0  0  0  0  0  0  0  0  0  0
    3.8330   69.1840   64.8070 C   0  0  0  0  0  0  0  0  0  0  0  0
    3.9120   69.4920   66.1140 C   0  0  0  0  0  0  0  0  0  0  0  0
    5.4250   70.0760   66.7710 Cl  0  0  0  0  0  0  0  0  0  0  0  0
    5.1550   69.3280   63.6980 Cl  0  0  0  0  0  0  0  0  0  0  0  0
  2  1  1  0
  3  2  2  0
  4  3  1  0
  5  3  1  0
  6  5  2  0
  7  5  1  0
  8  7  2  0
  9  7  1  0
 10  2  1  0
 10  9  2  0
 11 10  1  0
 12  9  1  0
M  END
>  <score>  (3) 
-6.638

$$$$
=
     RDKit          3D

 12 12  0  0  0  0  0  0  0  0999 V2000
    5.6360   69.2410   63.0500 Cl  0  0  0  0  0  0  0  0  0  0  0  0
    4.0860   69.0610   63.8410 C   0  0  0  0  0  0  0  0  0  0  0  0
    4.0110   69.1640   65.1790 C   0  0  0  0  0  0  0  0  0  0  0  0
    5.3700   69.4700   66.2050 Cl  0  0  0  0  0  0  0  0  0  0  0  0
    2.7040   69.0120   65.8640 C   0  0  0  0  0  0  0  0  0  0  0  0
    2.5790   69.0970   67.0770 O   0  0  0  0  0  0  0  0  0  0  0  0
    1.4840   68.7420   65.0030 C   0  0  0  0  0  0  0  0  0  0  0  0
    0.3900   68.6120   65.5330 O   0  0  0  0  0  0  0  0  0  0  0  0
    1.6830   68.6480   63.5370 C   0  0  0  0  0  0  0  0  0  0  0  0
    2.9110   68.8000   63.0120 C   0  0  0  0  0  0  0  0  0  0  0  0
    3.1260   68.6860   61.2790 Cl  0  0  0  0  0  0  0  0  0  0  0  0
    0.2600   68.3380   62.6000 Cl  0  0  0  0  0  0  0  0  0  0  0  0
  2  1  1  0
  3  2  2  0
  4  3  1  0
  5  3  1  0
  6  5  2  0
  7  5  1  0
  8  7  2  0
  9  7  1  0
 10  2  1  0
 10  9  2  0
 11 10  1  0
 12  9  1  0
M  END
>  <score>  (4) 
-6.33

$$$$
=
     RDKit          3D

 12 12  0  0  0  0  0  0  0  0999 V2000
    6.4120   70.3240   65.8620 Cl  0  0  0  0  0  0  0  0  0  0  0  0
    4.8270   69.9470   66.4980 C   0  0  0  0  0  0  0  0  0  0  0  0
    4.5600   70.1900   67.7930 C   0  0  0  0  0  0  0  0  0  0  0  0
    5.6980   70.8650   68.9070 Cl  0  0  0  0  0  0  0  0  0  0  0  0
    3.2210   69.8750   68.3470 C   0  0  0  0  0  0  0  0  0  0  0  0
    2.9250   70.0750   69.5170 O   0  0  0  0  0  0  0  0  0  0  0  0
    2.1900   69.2800   67.4060 C   0  0  0  0  0  0  0  0  0  0  0  0
    1.0750   69.0080   67.8280 O   0  0  0  0  0  0  0  0  0  0  0  0
    2.5930   69.0550   65.9980 C   0  0  0  0  0  0  0  0  0  0  0  0
    3.8340   69.3740   65.5910 C   0  0  0  0  0  0  0  0  0  0  0  0
    4.2910   69.1010   63.9250 Cl  0  0  0  0  0  0  0  0  0  0  0  0
    1.3820   68.3740   64.9640 Cl  0  0  0  0  0  0  0  0  0  0  0  0
  2  1  1  0
  3  2  2  0
  4  3  1  0
  5  3  1  0
  6  5  2  0
  7  5  1  0
  8  7  2  0
  9  7  1  0
 10  2  1  0
 10  9  2  0
 11 10  1  0
 12  9  1  0
M  END
>  <score>  (5) 
-6.315

$$$$
=
     RDKit          3D

 12 12  0  0  0  0  0  0  0  0999 V2000
    1.4900   68.6710   67.4880 Cl  0  0  0  0  0  0  0  0  0  0  0  0
    1.3600   68.7190   65.7440 C   0  0  0  0  0  0  0  0  0  0  0  0
    0.1460   68.6640   65.1700 C   0  0  0  0  0  0  0  0  0  0  0  0
   -1.3390   68.5480   66.0520 Cl  0  0  0  0  0  0  0  0  0  0  0  0
    0.0190   68.7030   63.6930 C   0  0  0  0  0  0  0  0  0  0  0  0
   -1.0610   68.6570   63.1200 O   0  0  0  0  0  0  0  0  0  0  0  0
    1.2940   68.8050   62.8780 C   0  0  0  0  0  0  0  0  0  0  0  0
    1.2290   68.8400   61.6580 O   0  0  0  0  0  0  0  0  0  0  0  0
    2.5790   68.8590   63.6150 C   0  0  0  0  0  0  0  0  0  0  0  0
    2.5890   68.8170   64.9590 C   0  0  0  0  0  0  0  0  0  0  0  0
    4.1160   68.8800   65.8110 Cl  0  0  0  0  0  0  0  0  0  0  0  0
    4.0060   68.9740   62.6400 Cl  0  0  0  0  0  0  0  0  0  0  0  0
  2  1  1  0
  3  2  2  0
  4  3  1  0
  5  3  1  0
  6  5  2  0
  7  5  1  0
  8  7  2  0
  9  7  1  0
 10  2  1  0
 10  9  2  0
 11 10  1  0
 12  9  1  0
M  END
>  <score>  (6) 
-6.106

$$$$
=
     RDKit          3D

 12 12  0  0  0  0  0  0  0  0999 V2000
    0.3270   68.3310   62.6710 Cl  0  0  0  0  0  0  0  0  0  0  0  0
    1.7470   68.6830   63.6310 C   0  0  0  0  0  0  0  0  0  0  0  0
    2.9340   68.8420   63.0210 C   0  0  0  0  0  0  0  0  0  0  0  0
    3.1690   68.7210   61.3110 Cl  0  0  0  0  0  0  0  0  0  0  0  0
    4.1460   69.1400   63.8210 C   0  0  0  0  0  0  0  0  0  0  0  0
    5.2500   69.2940   63.3180 O   0  0  0  0  0  0  0  0  0  0  0  0
    3.9880   69.2550   65.3260 C   0  0  0  0  0  0  0  0  0  0  0  0
    4.9660   69.5010   66.0180 O   0  0  0  0  0  0  0  0  0  0  0  0
    2.6320   69.0620   65.8920 C   0  0  0  0  0  0  0  0  0  0  0  0
    1.5940   68.7940   65.0800 C   0  0  0  0  0  0  0  0  0  0  0  0
    0.0010   68.5670   65.7670 Cl  0  0  0  0  0  0  0  0  0  0  0  0
    2.5040   69.2020   67.6130 Cl  0  0  0  0  0  0  0  0  0  0  0  0
  2  1  1  0
  3  2  2  0
  4  3  1  0
  5  3  1  0
  6  5  2  0
  7  5  1  0
  8  7  2  0
  9  7  1  0
 10  2  1  0
 10  9  2  0
 11 10  1  0
 12  9  1  0
M  END
>  <score>  (7) 
-6.066

$$$$
=
     RDKit          3D

 12 12  0  0  0  0  0  0  0  0999 V2000
    0.1130   62.1400   72.1230 Cl  0  0  0  0  0  0  0  0  0  0  0  0
    1.7690   61.6610   71.8240 C   0  0  0  0  0  0  0  0  0  0  0  0
    2.1690   60.4230   72.1590 C   0  0  0  0  0  0  0  0  0  0  0  0
    1.1410   59.2350   72.8840 Cl  0  0  0  0  0  0  0  0  0  0  0  0
    3.5700   60.0030   71.9130 C   0  0  0  0  0  0  0  0  0  0  0  0
    3.9870   58.8890   72.1990 O   0  0  0  0  0  0  0  0  0  0  0  0
    4.5080   61.0120   71.2800 C   0  0  0  0  0  0  0  0  0  0  0  0
    5.6700   60.7010   71.0610 O   0  0  0  0  0  0  0  0  0  0  0  0
    3.9600   62.3500   70.9500 C   0  0  0  0  0  0  0  0  0  0  0  0
    2.6730   62.6350   71.2140 C   0  0  0  0  0  0  0  0  0  0  0  0
    2.0440   64.2190   70.8180 Cl  0  0  0  0  0  0  0  0  0  0  0  0
    5.0710   63.4660   70.2290 Cl  0  0  0  0  0  0  0  0  0  0  0  0
  2  1  1  0
  3  2  2  0
  4  3  1  0
  5  3  1  0
  6  5  2  0
  7  5  1  0
  8  7  2  0
  9  7  1  0
 10  2  1  0
 10  9  2  0
 11 10  1  0
 12  9  1  0
M  END
>  <score>  (8) 
-5.815

$$$$
=
     RDKit          3D

 12 12  0  0  0  0  0  0  0  0999 V2000
    2.0320   64.2120   70.8720 Cl  0  0  0  0  0  0  0  0  0  0  0  0
    2.6690   62.6290   71.2550 C   0  0  0  0  0  0  0  0  0  0  0  0
    3.9600   62.3550   70.9980 C   0  0  0  0  0  0  0  0  0  0  0  0
    5.0680   63.4840   70.2970 Cl  0  0  0  0  0  0  0  0  0  0  0  0
    4.5140   61.0180   71.3160 C   0  0  0  0  0  0  0  0  0  0  0  0
    5.6800   60.7160   71.1030 O   0  0  0  0  0  0  0  0  0  0  0  0
    3.5780   59.9950   71.9330 C   0  0  0  0  0  0  0  0  0  0  0  0
    4.0000   58.8810   72.2090 O   0  0  0  0  0  0  0  0  0  0  0  0
    2.1740   60.4040   72.1740 C   0  0  0  0  0  0  0  0  0  0  0  0
    1.7670   61.6440   71.8490 C   0  0  0  0  0  0  0  0  0  0  0  0
    0.1060   62.1080   72.1410 Cl  0  0  0  0  0  0  0  0  0  0  0  0
    1.1470   59.2020   72.8790 Cl  0  0  0  0  0  0  0  0  0  0  0  0
  2  1  1  0
  3  2  2  0
  4  3  1  0
  5  3  1  0
  6  5  2  0
  7  5  1  0
  8  7  2  0
  9  7  1  0
 10  2  1  0
 10  9  2  0
 11 10  1  0
 12  9  1  0
M  END
>  <score>  (9) 
-5.804

$$$$
