=
     RDKit          3D

 58 61  0  0  0  0  0  0  0  0999 V2000
    1.5870   69.2260   66.8960 N   0  0  0  0  0  4  0  0  0  0  0  0
    1.8650   68.6270   68.2840 C   0  0  0  0  0  0  0  0  0  0  0  0
    1.5910   67.1070   68.3360 C   0  0  0  0  0  0  0  0  0  0  0  0
    0.1480   66.7690   67.9680 N   0  0  0  0  0  4  0  0  0  0  0  0
   -0.5030   67.7640   67.0070 C   0  0  0  0  0  0  0  0  0  0  0  0
    0.5410   68.4380   66.0890 C   0  0  0  0  0  0  0  0  0  0  0  0
    2.8730   69.5130   66.0710 C   0  0  0  0  0  0  0  0  0  0  0  0
    7.3340   70.9920   69.2340 F   0  0  0  0  0  0  0  0  0  0  0  0
    6.2790   70.6320   68.4970 C   0  0  0  0  0  0  0  0  0  0  0  0
    5.0050   70.7060   69.0440 C   0  0  0  0  0  0  0  0  0  0  0  0
    3.8960   70.3380   68.2760 C   0  0  0  0  0  0  0  0  0  0  0  0
    4.0590   69.8980   66.9480 C   0  0  0  0  0  0  0  0  0  0  0  0
    5.3640   69.8200   66.4220 C   0  0  0  0  0  0  0  0  0  0  0  0
    6.4680   70.1900   67.1960 C   0  0  0  0  0  0  0  0  0  0  0  0
    3.2260   68.4070   65.0810 C   0  0  0  0  0  0  0  0  0  0  0  0
    3.1150   67.0380   65.3950 C   0  0  0  0  0  0  0  0  0  0  0  0
    3.4450   66.0620   64.4500 C   0  0  0  0  0  0  0  0  0  0  0  0
    3.8940   66.4430   63.1920 C   0  0  0  0  0  0  0  0  0  0  0  0
    4.0290   67.7820   62.8620 C   0  0  0  0  0  0  0  0  0  0  0  0
    3.7030   68.7620   63.8020 C   0  0  0  0  0  0  0  0  0  0  0  0
    4.2010   65.5040   62.2900 F   0  0  0  0  0  0  0  0  0  0  0  0
   -0.7190   66.4750   69.1850 C   0  0  0  0  0  0  0  0  0  0  0  0
    0.0510   65.7860   70.2600 C   0  0  0  0  0  0  0  0  0  0  0  0
    0.2150   64.4540   70.3230 C   0  0  0  0  0  0  0  0  0  0  0  0
    1.0130   63.7720   71.3540 C   0  0  0  0  0  0  0  0  0  0  0  0
    0.6390   63.7420   72.7040 C   0  0  0  0  0  0  0  0  0  0  0  0
    1.4130   63.0520   73.6420 C   0  0  0  0  0  0  0  0  0  0  0  0
    2.5630   62.3770   73.2380 C   0  0  0  0  0  0  0  0  0  0  0  0
    2.9360   62.3860   71.8980 C   0  0  0  0  0  0  0  0  0  0  0  0
    2.1640   63.0750   70.9590 C   0  0  0  0  0  0  0  0  0  0  0  0
    1.1663   70.1457   67.0912 H   0  0  0  0  0  0  0  0  0  0  0  0
    2.9198   68.8047   68.5405 H   0  0  0  0  0  0  0  0  0  0  0  0
    1.1879   69.1143   69.0010 H   0  0  0  0  0  0  0  0  0  0  0  0
    2.2649   66.6010   67.6290 H   0  0  0  0  0  0  0  0  0  0  0  0
    1.7653   66.7671   69.3676 H   0  0  0  0  0  0  0  0  0  0  0  0
    0.2129   65.8899   67.4353 H   0  0  0  0  0  0  0  0  0  0  0  0
   -1.2348   67.2302   66.3829 H   0  0  0  0  0  0  0  0  0  0  0  0
   -0.9917   68.5480   67.6041 H   0  0  0  0  0  0  0  0  0  0  0  0
    1.0544   67.6612   65.5033 H   0  0  0  0  0  0  0  0  0  0  0  0
    0.0130   69.1445   65.4317 H   0  0  0  0  0  0  0  0  0  0  0  0
    2.6289   70.3934   65.4584 H   0  0  0  0  0  0  0  0  0  0  0  0
    4.8685   71.0532   70.0788 H   0  0  0  0  0  0  0  0  0  0  0  0
    2.8878   70.3926   68.7126 H   0  0  0  0  0  0  0  0  0  0  0  0
    5.5156   69.4645   65.3921 H   0  0  0  0  0  0  0  0  0  0  0  0
    7.4824   70.1308   66.7748 H   0  0  0  0  0  0  0  0  0  0  0  0
    2.7655   66.7343   66.3928 H   0  0  0  0  0  0  0  0  0  0  0  0
    3.3494   64.9955   64.7020 H   0  0  0  0  0  0  0  0  0  0  0  0
    4.3912   68.0716   61.8645 H   0  0  0  0  0  0  0  0  0  0  0  0
    3.8197   69.8243   63.5416 H   0  0  0  0  0  0  0  0  0  0  0  0
   -1.1114   67.4236   69.5802 H   0  0  0  0  0  0  0  0  0  0  0  0
   -1.5364   65.8097   68.8698 H   0  0  0  0  0  0  0  0  0  0  0  0
    0.5108   66.4032   71.0459 H   0  0  0  0  0  0  0  0  0  0  0  0
   -0.2771   63.8360   69.5575 H   0  0  0  0  0  0  0  0  0  0  0  0
   -0.2719   64.2661   73.0289 H   0  0  0  0  0  0  0  0  0  0  0  0
    1.1136   63.0421   74.7004 H   0  0  0  0  0  0  0  0  0  0  0  0
    3.1744   61.8383   73.9769 H   0  0  0  0  0  0  0  0  0  0  0  0
    3.8409   61.8494   71.5767 H   0  0  0  0  0  0  0  0  0  0  0  0
    2.4619   63.0706   69.9001 H   0  0  0  0  0  0  0  0  0  0  0  0
  2  1  1  0
  3  2  1  0
  4  3  1  0
  5  4  1  0
  6  5  1  0
  6  1  1  0
  7  1  1  0
  9  8  1  0
 10  9  2  0
 11 10  1  0
 12 11  2  0
 12  7  1  0
 13 12  1  0
 14 13  2  0
 14  9  1  0
 15  7  1  0
 16 15  2  0
 17 16  1  0
 18 17  2  0
 19 18  1  0
 20 19  2  0
 20 15  1  0
 21 18  1  0
 22  4  1  0
 23 22  1  0
 24 23  2  0
 25 24  1  0
 26 25  2  0
 27 26  1  0
 28 27  2  0
 29 28  1  0
 30 29  2  0
 30 25  1  0
  1 31  1  0
  2 32  1  0
  2 33  1  0
  3 34  1  0
  3 35  1  0
  4 36  1  0
  5 37  1  0
  5 38  1  0
  6 39  1  0
  6 40  1  0
  7 41  1  0
 10 42  1  0
 11 43  1  0
 13 44  1  0
 14 45  1  0
 16 46  1  0
 17 47  1  0
 19 48  1  0
 20 49  1  0
 22 50  1  0
 22 51  1  0
 23 52  1  0
 24 53  1  0
 26 54  1  0
 27 55  1  0
 28 56  1  0
 29 57  1  0
 30 58  1  0
M  CHG  2   1   1   4   1
M  END
>  <score>  (1) 
-11.214

$$$$
=
     RDKit          3D

 58 61  0  0  0  0  0  0  0  0999 V2000
    0.3480   63.5190   71.7390 N   0  0  0  0  0  4  0  0  0  0  0  0
    0.9630   63.6860   70.3410 C   0  0  0  0  0  0  0  0  0  0  0  0
    1.7410   65.0120   70.1930 C   0  0  0  0  0  0  0  0  0  0  0  0
    0.8570   66.2300   70.4560 N   0  0  0  0  0  4  0  0  0  0  0  0
   -0.2950   65.9710   71.4270 C   0  0  0  0  0  0  0  0  0  0  0  0
    0.0530   64.8560   72.4400 C   0  0  0  0  0  0  0  0  0  0  0  0
    1.1310   62.5350   72.6530 C   0  0  0  0  0  0  0  0  0  0  0  0
   -2.2540   58.4920   74.7260 F   0  0  0  0  0  0  0  0  0  0  0  0
   -1.4500   59.4490   74.2500 C   0  0  0  0  0  0  0  0  0  0  0  0
   -0.0730   59.3020   74.3580 C   0  0  0  0  0  0  0  0  0  0  0  0
    0.7730   60.2960   73.8560 C   0  0  0  0  0  0  0  0  0  0  0  0
    0.2410   61.4430   73.2350 C   0  0  0  0  0  0  0  0  0  0  0  0
   -1.1600   61.5730   73.1520 C   0  0  0  0  0  0  0  0  0  0  0  0
   -1.9990   60.5750   73.6560 C   0  0  0  0  0  0  0  0  0  0  0  0
    2.3900   61.9680   72.0060 C   0  0  0  0  0  0  0  0  0  0  0  0
    2.3540   60.9660   71.0150 C   0  0  0  0  0  0  0  0  0  0  0  0
    3.5370   60.4830   70.4480 C   0  0  0  0  0  0  0  0  0  0  0  0
    4.7610   60.9870   70.8690 C   0  0  0  0  0  0  0  0  0  0  0  0
    4.8270   61.9590   71.8550 C   0  0  0  0  0  0  0  0  0  0  0  0
    3.6490   62.4460   72.4270 C   0  0  0  0  0  0  0  0  0  0  0  0
    5.8880   60.5250   70.3180 F   0  0  0  0  0  0  0  0  0  0  0  0
    0.4030   66.9180   69.1750 C   0  0  0  0  0  0  0  0  0  0  0  0
    1.5580   67.3790   68.3540 C   0  0  0  0  0  0  0  0  0  0  0  0
    1.7590   68.6610   68.0040 C   0  0  0  0  0  0  0  0  0  0  0  0
    2.9220   69.1300   67.2340 C   0  0  0  0  0  0  0  0  0  0  0  0
    3.9990   69.8040   67.8250 C   0  0  0  0  0  0  0  0  0  0  0  0
    5.0970   70.2020   67.0570 C   0  0  0  0  0  0  0  0  0  0  0  0
    5.1330   69.9220   65.6920 C   0  0  0  0  0  0  0  0  0  0  0  0
    4.0770   69.2400   65.0970 C   0  0  0  0  0  0  0  0  0  0  0  0
    2.9780   68.8420   65.8630 C   0  0  0  0  0  0  0  0  0  0  0  0
   -0.5660   63.0763   71.5673 H   0  0  0  0  0  0  0  0  0  0  0  0
    1.6530   62.8494   70.1567 H   0  0  0  0  0  0  0  0  0  0  0  0
    0.1392   63.6981   69.6121 H   0  0  0  0  0  0  0  0  0  0  0  0
    2.5739   65.0166   70.9115 H   0  0  0  0  0  0  0  0  0  0  0  0
    2.1065   65.0763   69.1575 H   0  0  0  0  0  0  0  0  0  0  0  0
    1.4699   66.8974   70.9457 H   0  0  0  0  0  0  0  0  0  0  0  0
   -0.5128   66.8980   71.9776 H   0  0  0  0  0  0  0  0  0  0  0  0
   -1.1691   65.6451   70.8441 H   0  0  0  0  0  0  0  0  0  0  0  0
    0.9407   65.1606   73.0138 H   0  0  0  0  0  0  0  0  0  0  0  0
   -0.8145   64.7115   73.1007 H   0  0  0  0  0  0  0  0  0  0  0  0
    1.4821   63.1454   73.4981 H   0  0  0  0  0  0  0  0  0  0  0  0
    0.3506   58.4068   74.8367 H   0  0  0  0  0  0  0  0  0  0  0  0
    1.8632   60.1812   73.9469 H   0  0  0  0  0  0  0  0  0  0  0  0
   -1.5973   62.4684   72.6862 H   0  0  0  0  0  0  0  0  0  0  0  0
   -3.0912   60.6827   73.5816 H   0  0  0  0  0  0  0  0  0  0  0  0
    1.3862   60.5605   70.6849 H   0  0  0  0  0  0  0  0  0  0  0  0
    3.4987   59.7058   69.6705 H   0  0  0  0  0  0  0  0  0  0  0  0
    5.8025   62.3452   72.1856 H   0  0  0  0  0  0  0  0  0  0  0  0
    3.7037   63.2114   73.2152 H   0  0  0  0  0  0  0  0  0  0  0  0
   -0.1942   66.2091   68.5827 H   0  0  0  0  0  0  0  0  0  0  0  0
   -0.1917   67.8004   69.4536 H   0  0  0  0  0  0  0  0  0  0  0  0
    2.2869   66.6280   68.0154 H   0  0  0  0  0  0  0  0  0  0  0  0
    1.0089   69.4045   68.3117 H   0  0  0  0  0  0  0  0  0  0  0  0
    3.9802   70.0219   68.9030 H   0  0  0  0  0  0  0  0  0  0  0  0
    5.9336   70.7368   67.5304 H   0  0  0  0  0  0  0  0  0  0  0  0
    5.9948   70.2398   65.0867 H   0  0  0  0  0  0  0  0  0  0  0  0
    4.1069   69.0134   64.0210 H   0  0  0  0  0  0  0  0  0  0  0  0
    2.1495   68.2979   65.3860 H   0  0  0  0  0  0  0  0  0  0  0  0
  2  1  1  0
  3  2  1  0
  4  3  1  0
  5  4  1  0
  6  5  1  0
  6  1  1  0
  7  1  1  0
  9  8  1  0
 10  9  2  0
 11 10  1  0
 12 11  2  0
 12  7  1  0
 13 12  1  0
 14 13  2  0
 14  9  1  0
 15  7  1  0
 16 15  2  0
 17 16  1  0
 18 17  2  0
 19 18  1  0
 20 19  2  0
 20 15  1  0
 21 18  1  0
 22  4  1  0
 23 22  1  0
 24 23  2  0
 25 24  1  0
 26 25  2  0
 27 26  1  0
 28 27  2  0
 29 28  1  0
 30 29  2  0
 30 25  1  0
  1 31  1  0
  2 32  1  0
  2 33  1  0
  3 34  1  0
  3 35  1  0
  4 36  1  0
  5 37  1  0
  5 38  1  0
  6 39  1  0
  6 40  1  0
  7 41  1  0
 10 42  1  0
 11 43  1  0
 13 44  1  0
 14 45  1  0
 16 46  1  0
 17 47  1  0
 19 48  1  0
 20 49  1  0
 22 50  1  0
 22 51  1  0
 23 52  1  0
 24 53  1  0
 26 54  1  0
 27 55  1  0
 28 56  1  0
 29 57  1  0
 30 58  1  0
M  CHG  2   1   1   4   1
M  END
>  <score>  (2) 
-10.811

$$$$
=
     RDKit          3D

 58 61  0  0  0  0  0  0  0  0999 V2000
    0.9130   68.2660   66.3490 N   0  0  0  0  0  4  0  0  0  0  0  0
    1.5000   68.3020   67.7680 C   0  0  0  0  0  0  0  0  0  0  0  0
    1.4270   66.9290   68.4720 C   0  0  0  0  0  0  0  0  0  0  0  0
   -0.0070   66.4130   68.5790 N   0  0  0  0  0  4  0  0  0  0  0  0
   -0.9330   66.8980   67.4620 C   0  0  0  0  0  0  0  0  0  0  0  0
   -0.1550   67.1750   66.1570 C   0  0  0  0  0  0  0  0  0  0  0  0
    1.9900   68.2390   65.2270 C   0  0  0  0  0  0  0  0  0  0  0  0
    0.0370   69.9200   60.1820 F   0  0  0  0  0  0  0  0  0  0  0  0
    0.4970   69.5380   61.3780 C   0  0  0  0  0  0  0  0  0  0  0  0
   -0.3020   69.6990   62.5020 C   0  0  0  0  0  0  0  0  0  0  0  0
    0.1710   69.2940   63.7540 C   0  0  0  0  0  0  0  0  0  0  0  0
    1.4490   68.7170   63.8840 C   0  0  0  0  0  0  0  0  0  0  0  0
    2.2440   68.5770   62.7290 C   0  0  0  0  0  0  0  0  0  0  0  0
    1.7650   68.9840   61.4810 C   0  0  0  0  0  0  0  0  0  0  0  0
    3.2890   68.9430   65.6080 C   0  0  0  0  0  0  0  0  0  0  0  0
    3.5060   69.5060   66.8820 C   0  0  0  0  0  0  0  0  0  0  0  0
    4.7180   70.1350   67.1830 C   0  0  0  0  0  0  0  0  0  0  0  0
    5.7130   70.2160   66.2190 C   0  0  0  0  0  0  0  0  0  0  0  0
    5.5190   69.6870   64.9520 C   0  0  0  0  0  0  0  0  0  0  0  0
    4.3110   69.0580   64.6430 C   0  0  0  0  0  0  0  0  0  0  0  0
    6.8720   70.8140   66.5170 F   0  0  0  0  0  0  0  0  0  0  0  0
   -0.6050   66.6110   69.9660 C   0  0  0  0  0  0  0  0  0  0  0  0
    0.0960   65.7890   70.9930 C   0  0  0  0  0  0  0  0  0  0  0  0
    0.4190   64.4960   70.8200 C   0  0  0  0  0  0  0  0  0  0  0  0
    1.1520   63.6920   71.8100 C   0  0  0  0  0  0  0  0  0  0  0  0
    0.7080   63.5270   73.1290 C   0  0  0  0  0  0  0  0  0  0  0  0
    1.4220   62.7260   74.0250 C   0  0  0  0  0  0  0  0  0  0  0  0
    2.5800   62.0730   73.6090 C   0  0  0  0  0  0  0  0  0  0  0  0
    3.0220   62.2160   72.2970 C   0  0  0  0  0  0  0  0  0  0  0  0
    2.3100   63.0170   71.4010 C   0  0  0  0  0  0  0  0  0  0  0  0
    0.4250   69.1676   66.2493 H   0  0  0  0  0  0  0  0  0  0  0  0
    2.5538   68.6115   67.7063 H   0  0  0  0  0  0  0  0  0  0  0  0
    0.9042   69.0133   68.3588 H   0  0  0  0  0  0  0  0  0  0  0  0
    2.0228   66.2041   67.8980 H   0  0  0  0  0  0  0  0  0  0  0  0
    1.8201   67.0503   69.4922 H   0  0  0  0  0  0  0  0  0  0  0  0
    0.0698   65.3959   68.4360 H   0  0  0  0  0  0  0  0  0  0  0  0
   -1.6923   66.1261   67.2677 H   0  0  0  0  0  0  0  0  0  0  0  0
   -1.4020   67.8379   67.7884 H   0  0  0  0  0  0  0  0  0  0  0  0
    0.3384   66.2469   65.8328 H   0  0  0  0  0  0  0  0  0  0  0  0
   -0.8713   67.5272   65.4001 H   0  0  0  0  0  0  0  0  0  0  0  0
    2.2524   67.1776   65.1061 H   0  0  0  0  0  0  0  0  0  0  0  0
   -1.3037   70.1436   62.4079 H   0  0  0  0  0  0  0  0  0  0  0  0
   -0.4605   69.4272   64.6448 H   0  0  0  0  0  0  0  0  0  0  0  0
    3.2515   68.1431   62.8106 H   0  0  0  0  0  0  0  0  0  0  0  0
    2.3905   68.8657   60.5839 H   0  0  0  0  0  0  0  0  0  0  0  0
    2.7158   69.4501   67.6452 H   0  0  0  0  0  0  0  0  0  0  0  0
    4.8825   70.5648   68.1821 H   0  0  0  0  0  0  0  0  0  0  0  0
    6.3126   69.7624   64.1941 H   0  0  0  0  0  0  0  0  0  0  0  0
    4.1547   68.6472   63.6346 H   0  0  0  0  0  0  0  0  0  0  0  0
   -0.5213   67.6726   70.2417 H   0  0  0  0  0  0  0  0  0  0  0  0
   -1.6575   66.2930   69.9334 H   0  0  0  0  0  0  0  0  0  0  0  0
    0.3641   66.2678   71.9464 H   0  0  0  0  0  0  0  0  0  0  0  0
    0.1169   64.0093   69.8809 H   0  0  0  0  0  0  0  0  0  0  0  0
   -0.2105   64.0323   73.4622 H   0  0  0  0  0  0  0  0  0  0  0  0
    1.0688   62.6112   75.0604 H   0  0  0  0  0  0  0  0  0  0  0  0
    3.1436   61.4460   74.3155 H   0  0  0  0  0  0  0  0  0  0  0  0
    3.9335   61.6974   71.9651 H   0  0  0  0  0  0  0  0  0  0  0  0
    2.6619   63.1190   70.3638 H   0  0  0  0  0  0  0  0  0  0  0  0
  2  1  1  0
  3  2  1  0
  4  3  1  0
  5  4  1  0
  6  5  1  0
  6  1  1  0
  7  1  1  0
  9  8  1  0
 10  9  2  0
 11 10  1  0
 12 11  2  0
 12  7  1  0
 13 12  1  0
 14 13  2  0
 14  9  1  0
 15  7  1  0
 16 15  2  0
 17 16  1  0
 18 17  2  0
 19 18  1  0
 20 19  2  0
 20 15  1  0
 21 18  1  0
 22  4  1  0
 23 22  1  0
 24 23  2  0
 25 24  1  0
 26 25  2  0
 27 26  1  0
 28 27  2  0
 29 28  1  0
 30 29  2  0
 30 25  1  0
  1 31  1  0
  2 32  1  0
  2 33  1  0
  3 34  1  0
  3 35  1  0
  4 36  1  0
  5 37  1  0
  5 38  1  0
  6 39  1  0
  6 40  1  0
  7 41  1  0
 10 42  1  0
 11 43  1  0
 13 44  1  0
 14 45  1  0
 16 46  1  0
 17 47  1  0
 19 48  1  0
 20 49  1  0
 22 50  1  0
 22 51  1  0
 23 52  1  0
 24 53  1  0
 26 54  1  0
 27 55  1  0
 28 56  1  0
 29 57  1  0
 30 58  1  0
M  CHG  2   1   1   4   1
M  END
>  <score>  (3) 
-10.397

$$$$
=
     RDKit          3D

 58 61  0  0  0  0  0  0  0  0999 V2000
    1.5040   67.2710   68.0000 N   0  0  0  0  0  4  0  0  0  0  0  0
    0.2170   66.4540   67.8020 C   0  0  0  0  0  0  0  0  0  0  0  0
   -0.6360   66.3770   69.0880 C   0  0  0  0  0  0  0  0  0  0  0  0
    0.1310   65.7530   70.2510 N   0  0  0  0  0  4  0  0  0  0  0  0
    1.6440   65.9690   70.1920 C   0  0  0  0  0  0  0  0  0  0  0  0
    2.0050   67.2780   69.4550 C   0  0  0  0  0  0  0  0  0  0  0  0
    1.4360   68.7010   67.3940 C   0  0  0  0  0  0  0  0  0  0  0  0
    6.0270   71.7640   68.6730 F   0  0  0  0  0  0  0  0  0  0  0  0
    4.9420   71.0490   68.3590 C   0  0  0  0  0  0  0  0  0  0  0  0
    4.9710   70.2150   67.2480 C   0  0  0  0  0  0  0  0  0  0  0  0
    3.8420   69.4590   66.9180 C   0  0  0  0  0  0  0  0  0  0  0  0
    2.6770   69.5290   67.7070 C   0  0  0  0  0  0  0  0  0  0  0  0
    2.6710   70.3930   68.8200 C   0  0  0  0  0  0  0  0  0  0  0  0
    3.8030   71.1460   69.1440 C   0  0  0  0  0  0  0  0  0  0  0  0
    1.0900   68.7210   65.9090 C   0  0  0  0  0  0  0  0  0  0  0  0
    2.0450   68.4860   64.8990 C   0  0  0  0  0  0  0  0  0  0  0  0
    1.6750   68.5090   63.5510 C   0  0  0  0  0  0  0  0  0  0  0  0
    0.3590   68.7750   63.2000 C   0  0  0  0  0  0  0  0  0  0  0  0
   -0.5980   69.0280   64.1710 C   0  0  0  0  0  0  0  0  0  0  0  0
   -0.2350   69.0070   65.5200 C   0  0  0  0  0  0  0  0  0  0  0  0
    0.0110   68.7890   61.9090 F   0  0  0  0  0  0  0  0  0  0  0  0
   -0.2460   64.2980   70.4960 C   0  0  0  0  0  0  0  0  0  0  0  0
    0.9150   63.4990   70.9830 C   0  0  0  0  0  0  0  0  0  0  0  0
    1.6620   62.7120   70.1910 C   0  0  0  0  0  0  0  0  0  0  0  0
    2.8380   61.9580   70.6540 C   0  0  0  0  0  0  0  0  0  0  0  0
    2.8140   60.5720   70.8620 C   0  0  0  0  0  0  0  0  0  0  0  0
    3.9660   59.8950   71.2710 C   0  0  0  0  0  0  0  0  0  0  0  0
    5.1560   60.5940   71.4670 C   0  0  0  0  0  0  0  0  0  0  0  0
    5.1960   61.9670   71.2480 C   0  0  0  0  0  0  0  0  0  0  0  0
    4.0450   62.6460   70.8390 C   0  0  0  0  0  0  0  0  0  0  0  0
    2.2162   66.7671   67.4526 H   0  0  0  0  0  0  0  0  0  0  0  0
   -0.3819   66.9251   67.0086 H   0  0  0  0  0  0  0  0  0  0  0  0
    0.5092   65.4285   67.5317 H   0  0  0  0  0  0  0  0  0  0  0  0
   -0.9429   67.3946   69.3712 H   0  0  0  0  0  0  0  0  0  0  0  0
   -1.5080   65.7403   68.8777 H   0  0  0  0  0  0  0  0  0  0  0  0
   -0.1793   66.2788   71.0805 H   0  0  0  0  0  0  0  0  0  0  0  0
    2.0377   66.0171   71.2180 H   0  0  0  0  0  0  0  0  0  0  0  0
    2.0894   65.1293   69.6384 H   0  0  0  0  0  0  0  0  0  0  0  0
    1.5448   68.1243   69.9861 H   0  0  0  0  0  0  0  0  0  0  0  0
    3.1010   67.3705   69.4390 H   0  0  0  0  0  0  0  0  0  0  0  0
    0.5904   69.1882   67.9015 H   0  0  0  0  0  0  0  0  0  0  0  0
    5.8789   70.1497   66.6303 H   0  0  0  0  0  0  0  0  0  0  0  0
    3.8637   68.8039   66.0346 H   0  0  0  0  0  0  0  0  0  0  0  0
    1.7663   70.4757   69.4402 H   0  0  0  0  0  0  0  0  0  0  0  0
    3.7905   71.8131   70.0185 H   0  0  0  0  0  0  0  0  0  0  0  0
    3.0905   68.2827   65.1740 H   0  0  0  0  0  0  0  0  0  0  0  0
    2.4255   68.3166   62.7702 H   0  0  0  0  0  0  0  0  0  0  0  0
   -1.6368   69.2440   63.8809 H   0  0  0  0  0  0  0  0  0  0  0  0
   -0.9930   69.2164   66.2891 H   0  0  0  0  0  0  0  0  0  0  0  0
   -1.0459   64.2597   71.2501 H   0  0  0  0  0  0  0  0  0  0  0  0
   -0.5813   63.8665   69.5413 H   0  0  0  0  0  0  0  0  0  0  0  0
    1.1743   63.5573   72.0504 H   0  0  0  0  0  0  0  0  0  0  0  0
    1.3774   62.6259   69.1320 H   0  0  0  0  0  0  0  0  0  0  0  0
    1.8805   60.0126   70.7019 H   0  0  0  0  0  0  0  0  0  0  0  0
    3.9337   58.8083   71.4386 H   0  0  0  0  0  0  0  0  0  0  0  0
    6.0611   60.0612   71.7940 H   0  0  0  0  0  0  0  0  0  0  0  0
    6.1354   62.5195   71.3970 H   0  0  0  0  0  0  0  0  0  0  0  0
    4.0867   63.7306   70.6606 H   0  0  0  0  0  0  0  0  0  0  0  0
  2  1  1  0
  3  2  1  0
  4  3  1  0
  5  4  1  0
  6  5  1  0
  6  1  1  0
  7  1  1  0
  9  8  1  0
 10  9  2  0
 11 10  1  0
 12 11  2  0
 12  7  1  0
 13 12  1  0
 14 13  2  0
 14  9  1  0
 15  7  1  0
 16 15  2  0
 17 16  1  0
 18 17  2  0
 19 18  1  0
 20 19  2  0
 20 15  1  0
 21 18  1  0
 22  4  1  0
 23 22  1  0
 24 23  2  0
 25 24  1  0
 26 25  2  0
 27 26  1  0
 28 27  2  0
 29 28  1  0
 30 29  2  0
 30 25  1  0
  1 31  1  0
  2 32  1  0
  2 33  1  0
  3 34  1  0
  3 35  1  0
  4 36  1  0
  5 37  1  0
  5 38  1  0
  6 39  1  0
  6 40  1  0
  7 41  1  0
 10 42  1  0
 11 43  1  0
 13 44  1  0
 14 45  1  0
 16 46  1  0
 17 47  1  0
 19 48  1  0
 20 49  1  0
 22 50  1  0
 22 51  1  0
 23 52  1  0
 24 53  1  0
 26 54  1  0
 27 55  1  0
 28 56  1  0
 29 57  1  0
 30 58  1  0
M  CHG  2   1   1   4   1
M  END
>  <score>  (4) 
-10.26

$$$$
=
     RDKit          3D

 58 61  0  0  0  0  0  0  0  0999 V2000
    3.3440   66.7300   63.2910 N   0  0  0  0  0  4  0  0  0  0  0  0
    2.3610   66.1290   64.3080 C   0  0  0  0  0  0  0  0  0  0  0  0
    3.0650   65.6450   65.5950 C   0  0  0  0  0  0  0  0  0  0  0  0
    4.1310   64.5900   65.3050 N   0  0  0  0  0  4  0  0  0  0  0  0
    4.7750   64.7120   63.9230 C   0  0  0  0  0  0  0  0  0  0  0  0
    4.7720   66.1730   63.4200 C   0  0  0  0  0  0  0  0  0  0  0  0
    3.3210   68.2840   63.2430 C   0  0  0  0  0  0  0  0  0  0  0  0
   -1.7140   70.2900   61.5930 F   0  0  0  0  0  0  0  0  0  0  0  0
   -0.5250   69.8280   61.9930 C   0  0  0  0  0  0  0  0  0  0  0  0
   -0.3650   69.3900   63.3000 C   0  0  0  0  0  0  0  0  0  0  0  0
    0.8750   68.8980   63.7210 C   0  0  0  0  0  0  0  0  0  0  0  0
    1.9620   68.8370   62.8280 C   0  0  0  0  0  0  0  0  0  0  0  0
    1.7760   69.3010   61.5100 C   0  0  0  0  0  0  0  0  0  0  0  0
    0.5340   69.7910   61.0970 C   0  0  0  0  0  0  0  0  0  0  0  0
    3.8480   68.9450   64.5120 C   0  0  0  0  0  0  0  0  0  0  0  0
    3.0750   69.0730   65.6840 C   0  0  0  0  0  0  0  0  0  0  0  0
    3.6070   69.6820   66.8240 C   0  0  0  0  0  0  0  0  0  0  0  0
    4.9050   70.1730   66.8030 C   0  0  0  0  0  0  0  0  0  0  0  0
    5.6820   70.0770   65.6580 C   0  0  0  0  0  0  0  0  0  0  0  0
    5.1570   69.4700   64.5150 C   0  0  0  0  0  0  0  0  0  0  0  0
    5.4100   70.7490   67.8990 F   0  0  0  0  0  0  0  0  0  0  0  0
    3.6610   63.1740   65.6120 C   0  0  0  0  0  0  0  0  0  0  0  0
    4.1400   62.7080   66.9440 C   0  0  0  0  0  0  0  0  0  0  0  0
    3.4370   62.8500   68.0810 C   0  0  0  0  0  0  0  0  0  0  0  0
    3.8820   62.3500   69.3910 C   0  0  0  0  0  0  0  0  0  0  0  0
    3.6370   61.0400   69.8240 C   0  0  0  0  0  0  0  0  0  0  0  0
    4.1080   60.6010   71.0650 C   0  0  0  0  0  0  0  0  0  0  0  0
    4.8380   61.4640   71.8800 C   0  0  0  0  0  0  0  0  0  0  0  0
    5.1010   62.7620   71.4540 C   0  0  0  0  0  0  0  0  0  0  0  0
    4.6310   63.2030   70.2150 C   0  0  0  0  0  0  0  0  0  0  0  0
    2.9931   66.4146   62.3754 H   0  0  0  0  0  0  0  0  0  0  0  0
    1.6199   66.8957   64.5781 H   0  0  0  0  0  0  0  0  0  0  0  0
    1.8856   65.2555   63.8379 H   0  0  0  0  0  0  0  0  0  0  0  0
    3.5428   66.5070   66.0835 H   0  0  0  0  0  0  0  0  0  0  0  0
    2.3047   65.1883   66.2456 H   0  0  0  0  0  0  0  0  0  0  0  0
    4.8904   64.7966   65.9694 H   0  0  0  0  0  0  0  0  0  0  0  0
    5.8144   64.3568   63.9811 H   0  0  0  0  0  0  0  0  0  0  0  0
    4.1905   64.1042   63.2166 H   0  0  0  0  0  0  0  0  0  0  0  0
    5.3341   66.7957   64.1316 H   0  0  0  0  0  0  0  0  0  0  0  0
    5.2378   66.1925   62.4237 H   0  0  0  0  0  0  0  0  0  0  0  0
    4.0332   68.5566   62.4502 H   0  0  0  0  0  0  0  0  0  0  0  0
   -1.2104   69.4296   64.0026 H   0  0  0  0  0  0  0  0  0  0  0  0
    1.0020   68.5558   64.7587 H   0  0  0  0  0  0  0  0  0  0  0  0
    2.6160   69.2772   60.8002 H   0  0  0  0  0  0  0  0  0  0  0  0
    0.3964   70.1462   60.0651 H   0  0  0  0  0  0  0  0  0  0  0  0
    2.0439   68.6901   65.7014 H   0  0  0  0  0  0  0  0  0  0  0  0
    2.9983   69.7720   67.7358 H   0  0  0  0  0  0  0  0  0  0  0  0
    6.7067   70.4770   65.6503 H   0  0  0  0  0  0  0  0  0  0  0  0
    5.7721   69.4005   63.6057 H   0  0  0  0  0  0  0  0  0  0  0  0
    2.5612   63.1540   65.6022 H   0  0  0  0  0  0  0  0  0  0  0  0
    4.0757   62.5026   64.8457 H   0  0  0  0  0  0  0  0  0  0  0  0
    5.1244   62.2203   67.0000 H   0  0  0  0  0  0  0  0  0  0  0  0
    2.4701   63.3719   68.0286 H   0  0  0  0  0  0  0  0  0  0  0  0
    3.0690   60.3509   69.1817 H   0  0  0  0  0  0  0  0  0  0  0  0
    3.9021   59.5732   71.3985 H   0  0  0  0  0  0  0  0  0  0  0  0
    5.2055   61.1197   72.8580 H   0  0  0  0  0  0  0  0  0  0  0  0
    5.6807   63.4428   72.0947 H   0  0  0  0  0  0  0  0  0  0  0  0
    4.8501   64.2283   69.8824 H   0  0  0  0  0  0  0  0  0  0  0  0
  2  1  1  0
  3  2  1  0
  4  3  1  0
  5  4  1  0
  6  5  1  0
  6  1  1  0
  7  1  1  0
  9  8  1  0
 10  9  2  0
 11 10  1  0
 12 11  2  0
 12  7  1  0
 13 12  1  0
 14 13  2  0
 14  9  1  0
 15  7  1  0
 16 15  2  0
 17 16  1  0
 18 17  2  0
 19 18  1  0
 20 19  2  0
 20 15  1  0
 21 18  1  0
 22  4  1  0
 23 22  1  0
 24 23  2  0
 25 24  1  0
 26 25  2  0
 27 26  1  0
 28 27  2  0
 29 28  1  0
 30 29  2  0
 30 25  1  0
  1 31  1  0
  2 32  1  0
  2 33  1  0
  3 34  1  0
  3 35  1  0
  4 36  1  0
  5 37  1  0
  5 38  1  0
  6 39  1  0
  6 40  1  0
  7 41  1  0
 10 42  1  0
 11 43  1  0
 13 44  1  0
 14 45  1  0
 16 46  1  0
 17 47  1  0
 19 48  1  0
 20 49  1  0
 22 50  1  0
 22 51  1  0
 23 52  1  0
 24 53  1  0
 26 54  1  0
 27 55  1  0
 28 56  1  0
 29 57  1  0
 30 58  1  0
M  CHG  2   1   1   4   1
M  END
>  <score>  (5) 
-9.712

$$$$
=
     RDKit          3D

 58 61  0  0  0  0  0  0  0  0999 V2000
    2.1200   60.2450   72.7740 N   0  0  0  0  0  4  0  0  0  0  0  0
    0.6090   60.1750   73.0450 C   0  0  0  0  0  0  0  0  0  0  0  0
    0.2890   59.8110   74.5120 C   0  0  0  0  0  0  0  0  0  0  0  0
    0.8930   58.4670   74.9160 N   0  0  0  0  0  4  0  0  0  0  0  0
    2.1710   58.1020   74.1610 C   0  0  0  0  0  0  0  0  0  0  0  0
    2.9520   59.3600   73.7180 C   0  0  0  0  0  0  0  0  0  0  0  0
    2.6730   61.6950   72.6880 C   0  0  0  0  0  0  0  0  0  0  0  0
    4.0920   63.1170   67.3910 F   0  0  0  0  0  0  0  0  0  0  0  0
    3.7710   62.7770   68.6430 C   0  0  0  0  0  0  0  0  0  0  0  0
    4.4120   63.3970   69.7070 C   0  0  0  0  0  0  0  0  0  0  0  0
    4.0760   63.0510   71.0190 C   0  0  0  0  0  0  0  0  0  0  0  0
    3.0860   62.0820   71.2720 C   0  0  0  0  0  0  0  0  0  0  0  0
    2.4610   61.4570   70.1740 C   0  0  0  0  0  0  0  0  0  0  0  0
    2.8030   61.8090   68.8650 C   0  0  0  0  0  0  0  0  0  0  0  0
    1.7610   62.7380   73.3260 C   0  0  0  0  0  0  0  0  0  0  0  0
    0.8430   63.5060   72.5820 C   0  0  0  0  0  0  0  0  0  0  0  0
    0.0240   64.4460   73.2150 C   0  0  0  0  0  0  0  0  0  0  0  0
    0.1200   64.6320   74.5880 C   0  0  0  0  0  0  0  0  0  0  0  0
    1.0270   63.9040   75.3420 C   0  0  0  0  0  0  0  0  0  0  0  0
    1.8490   62.9640   74.7150 C   0  0  0  0  0  0  0  0  0  0  0  0
   -0.6710   65.5280   75.1880 F   0  0  0  0  0  0  0  0  0  0  0  0
   -0.1290   57.3380   74.9240 C   0  0  0  0  0  0  0  0  0  0  0  0
   -1.5050   57.8340   74.6350 C   0  0  0  0  0  0  0  0  0  0  0  0
   -2.4710   57.9350   75.5630 C   0  0  0  0  0  0  0  0  0  0  0  0
   -3.8160   58.4680   75.2960 C   0  0  0  0  0  0  0  0  0  0  0  0
   -4.9830   57.7290   75.5330 C   0  0  0  0  0  0  0  0  0  0  0  0
   -6.2410   58.2900   75.2940 C   0  0  0  0  0  0  0  0  0  0  0  0
   -6.3450   59.5990   74.8260 C   0  0  0  0  0  0  0  0  0  0  0  0
   -5.1940   60.3470   74.6030 C   0  0  0  0  0  0  0  0  0  0  0  0
   -3.9360   59.7880   74.8400 C   0  0  0  0  0  0  0  0  0  0  0  0
    2.2312   59.8446   71.8315 H   0  0  0  0  0  0  0  0  0  0  0  0
    0.1640   61.1553   72.8193 H   0  0  0  0  0  0  0  0  0  0  0  0
    0.1901   59.3847   72.4048 H   0  0  0  0  0  0  0  0  0  0  0  0
    0.6957   60.5943   75.1685 H   0  0  0  0  0  0  0  0  0  0  0  0
   -0.8038   59.7346   74.6112 H   0  0  0  0  0  0  0  0  0  0  0  0
    1.1918   58.5974   75.8930 H   0  0  0  0  0  0  0  0  0  0  0  0
    2.8129   57.4969   74.8182 H   0  0  0  0  0  0  0  0  0  0  0  0
    1.8879   57.5389   73.2595 H   0  0  0  0  0  0  0  0  0  0  0  0
    3.2207   59.9449   74.6100 H   0  0  0  0  0  0  0  0  0  0  0  0
    3.8508   59.0315   73.1756 H   0  0  0  0  0  0  0  0  0  0  0  0
    3.5884   61.6888   73.2979 H   0  0  0  0  0  0  0  0  0  0  0  0
    5.1826   64.1589   69.5180 H   0  0  0  0  0  0  0  0  0  0  0  0
    4.5890   63.5395   71.8605 H   0  0  0  0  0  0  0  0  0  0  0  0
    1.6970   60.6851   70.3487 H   0  0  0  0  0  0  0  0  0  0  0  0
    2.3061   61.3199   68.0142 H   0  0  0  0  0  0  0  0  0  0  0  0
    0.7701   63.3647   71.4936 H   0  0  0  0  0  0  0  0  0  0  0  0
   -0.6943   65.0365   72.6273 H   0  0  0  0  0  0  0  0  0  0  0  0
    1.0993   64.0653   76.4277 H   0  0  0  0  0  0  0  0  0  0  0  0
    2.5744   62.3927   75.3129 H   0  0  0  0  0  0  0  0  0  0  0  0
    0.1510   56.5990   74.1589 H   0  0  0  0  0  0  0  0  0  0  0  0
   -0.1321   56.8870   75.9273 H   0  0  0  0  0  0  0  0  0  0  0  0
   -1.7426   58.1342   73.6038 H   0  0  0  0  0  0  0  0  0  0  0  0
   -2.2424   57.5986   76.5850 H   0  0  0  0  0  0  0  0  0  0  0  0
   -4.9085   56.6985   75.9104 H   0  0  0  0  0  0  0  0  0  0  0  0
   -7.1500   57.6977   75.4755 H   0  0  0  0  0  0  0  0  0  0  0  0
   -7.3346   60.0390   74.6336 H   0  0  0  0  0  0  0  0  0  0  0  0
   -5.2745   61.3819   74.2389 H   0  0  0  0  0  0  0  0  0  0  0  0
   -3.0312   60.3892   74.6672 H   0  0  0  0  0  0  0  0  0  0  0  0
  2  1  1  0
  3  2  1  0
  4  3  1  0
  5  4  1  0
  6  5  1  0
  6  1  1  0
  7  1  1  0
  9  8  1  0
 10  9  2  0
 11 10  1  0
 12 11  2  0
 12  7  1  0
 13 12  1  0
 14 13  2  0
 14  9  1  0
 15  7  1  0
 16 15  2  0
 17 16  1  0
 18 17  2  0
 19 18  1  0
 20 19  2  0
 20 15  1  0
 21 18  1  0
 22  4  1  0
 23 22  1  0
 24 23  2  0
 25 24  1  0
 26 25  2  0
 27 26  1  0
 28 27  2  0
 29 28  1  0
 30 29  2  0
 30 25  1  0
  1 31  1  0
  2 32  1  0
  2 33  1  0
  3 34  1  0
  3 35  1  0
  4 36  1  0
  5 37  1  0
  5 38  1  0
  6 39  1  0
  6 40  1  0
  7 41  1  0
 10 42  1  0
 11 43  1  0
 13 44  1  0
 14 45  1  0
 16 46  1  0
 17 47  1  0
 19 48  1  0
 20 49  1  0
 22 50  1  0
 22 51  1  0
 23 52  1  0
 24 53  1  0
 26 54  1  0
 27 55  1  0
 28 56  1  0
 29 57  1  0
 30 58  1  0
M  CHG  2   1   1   4   1
M  END
>  <score>  (6) 
-9.378

$$$$
=
     RDKit          3D

 58 61  0  0  0  0  0  0  0  0999 V2000
    0.4690   61.3780   73.1490 N   0  0  0  0  0  4  0  0  0  0  0  0
   -0.4120   62.0610   72.0910 C   0  0  0  0  0  0  0  0  0  0  0  0
    0.2900   63.2690   71.4300 C   0  0  0  0  0  0  0  0  0  0  0  0
    0.6920   64.3300   72.4520 N   0  0  0  0  0  4  0  0  0  0  0  0
    0.9840   63.7780   73.8480 C   0  0  0  0  0  0  0  0  0  0  0  0
    1.5000   62.3230   73.7890 C   0  0  0  0  0  0  0  0  0  0  0  0
    1.1120   60.0480   72.6620 C   0  0  0  0  0  0  0  0  0  0  0  0
    6.4780   60.7760   70.9970 F   0  0  0  0  0  0  0  0  0  0  0  0
    5.2150   60.5900   71.3950 C   0  0  0  0  0  0  0  0  0  0  0  0
    4.9460   60.3640   72.7380 C   0  0  0  0  0  0  0  0  0  0  0  0
    3.6270   60.1770   73.1610 C   0  0  0  0  0  0  0  0  0  0  0  0
    2.5660   60.2220   72.2360 C   0  0  0  0  0  0  0  0  0  0  0  0
    2.8680   60.4400   70.8770 C   0  0  0  0  0  0  0  0  0  0  0  0
    4.1890   60.6260   70.4620 C   0  0  0  0  0  0  0  0  0  0  0  0
    0.9330   58.8880   73.6360 C   0  0  0  0  0  0  0  0  0  0  0  0
    1.1170   57.5420   73.2600 C   0  0  0  0  0  0  0  0  0  0  0  0
    0.9470   56.5140   74.1930 C   0  0  0  0  0  0  0  0  0  0  0  0
    0.5840   56.8180   75.4980 C   0  0  0  0  0  0  0  0  0  0  0  0
    0.3780   58.1320   75.8900 C   0  0  0  0  0  0  0  0  0  0  0  0
    0.5460   59.1640   74.9630 C   0  0  0  0  0  0  0  0  0  0  0  0
    0.4290   55.8300   76.3860 F   0  0  0  0  0  0  0  0  0  0  0  0
   -0.2610   65.5180   72.4770 C   0  0  0  0  0  0  0  0  0  0  0  0
   -0.4370   66.1160   71.1230 C   0  0  0  0  0  0  0  0  0  0  0  0
    0.5840   66.4440   70.3140 C   0  0  0  0  0  0  0  0  0  0  0  0
    0.4170   66.9900   68.9580 C   0  0  0  0  0  0  0  0  0  0  0  0
   -0.7670   66.8440   68.2240 C   0  0  0  0  0  0  0  0  0  0  0  0
   -0.8900   67.4090   66.9510 C   0  0  0  0  0  0  0  0  0  0  0  0
    0.1670   68.1340   66.4040 C   0  0  0  0  0  0  0  0  0  0  0  0
    1.3420   68.3000   67.1300 C   0  0  0  0  0  0  0  0  0  0  0  0
    1.4660   67.7360   68.4020 C   0  0  0  0  0  0  0  0  0  0  0  0
   -0.1858   61.1166   73.8999 H   0  0  0  0  0  0  0  0  0  0  0  0
   -0.6605   61.3265   71.3107 H   0  0  0  0  0  0  0  0  0  0  0  0
   -1.3152   62.4335   72.5965 H   0  0  0  0  0  0  0  0  0  0  0  0
    1.1937   62.9145   70.9127 H   0  0  0  0  0  0  0  0  0  0  0  0
   -0.4189   63.7287   70.7256 H   0  0  0  0  0  0  0  0  0  0  0  0
    1.5971   64.6877   72.1149 H   0  0  0  0  0  0  0  0  0  0  0  0
    1.7472   64.4080   74.3283 H   0  0  0  0  0  0  0  0  0  0  0  0
    0.0469   63.7871   74.4240 H   0  0  0  0  0  0  0  0  0  0  0  0
    2.4248   62.2968   73.1940 H   0  0  0  0  0  0  0  0  0  0  0  0
    1.6834   61.9827   74.8189 H   0  0  0  0  0  0  0  0  0  0  0  0
    0.5458   59.7686   71.7613 H   0  0  0  0  0  0  0  0  0  0  0  0
    5.7688   60.3322   73.4674 H   0  0  0  0  0  0  0  0  0  0  0  0
    3.4160   59.9932   74.2248 H   0  0  0  0  0  0  0  0  0  0  0  0
    2.0557   60.4640   70.1356 H   0  0  0  0  0  0  0  0  0  0  0  0
    4.4147   60.8003   69.3996 H   0  0  0  0  0  0  0  0  0  0  0  0
    1.3965   57.2982   72.2244 H   0  0  0  0  0  0  0  0  0  0  0  0
    1.1006   55.4668   73.8934 H   0  0  0  0  0  0  0  0  0  0  0  0
    0.0840   58.3607   76.9250 H   0  0  0  0  0  0  0  0  0  0  0  0
    0.3740   60.2053   75.2729 H   0  0  0  0  0  0  0  0  0  0  0  0
   -1.2404   65.1809   72.8472 H   0  0  0  0  0  0  0  0  0  0  0  0
    0.1683   66.2865   73.1366 H   0  0  0  0  0  0  0  0  0  0  0  0
   -1.4612   66.2991   70.7660 H   0  0  0  0  0  0  0  0  0  0  0  0
    1.6076   66.2953   70.6883 H   0  0  0  0  0  0  0  0  0  0  0  0
   -1.6080   66.2795   68.6531 H   0  0  0  0  0  0  0  0  0  0  0  0
   -1.8219   67.2811   66.3807 H   0  0  0  0  0  0  0  0  0  0  0  0
    0.0724   68.5741   65.4003 H   0  0  0  0  0  0  0  0  0  0  0  0
    2.1751   68.8765   66.7016 H   0  0  0  0  0  0  0  0  0  0  0  0
    2.3954   67.8785   68.9729 H   0  0  0  0  0  0  0  0  0  0  0  0
  2  1  1  0
  3  2  1  0
  4  3  1  0
  5  4  1  0
  6  5  1  0
  6  1  1  0
  7  1  1  0
  9  8  1  0
 10  9  2  0
 11 10  1  0
 12 11  2  0
 12  7  1  0
 13 12  1  0
 14 13  2  0
 14  9  1  0
 15  7  1  0
 16 15  2  0
 17 16  1  0
 18 17  2  0
 19 18  1  0
 20 19  2  0
 20 15  1  0
 21 18  1  0
 22  4  1  0
 23 22  1  0
 24 23  2  0
 25 24  1  0
 26 25  2  0
 27 26  1  0
 28 27  2  0
 29 28  1  0
 30 29  2  0
 30 25  1  0
  1 31  1  0
  2 32  1  0
  2 33  1  0
  3 34  1  0
  3 35  1  0
  4 36  1  0
  5 37  1  0
  5 38  1  0
  6 39  1  0
  6 40  1  0
  7 41  1  0
 10 42  1  0
 11 43  1  0
 13 44  1  0
 14 45  1  0
 16 46  1  0
 17 47  1  0
 19 48  1  0
 20 49  1  0
 22 50  1  0
 22 51  1  0
 23 52  1  0
 24 53  1  0
 26 54  1  0
 27 55  1  0
 28 56  1  0
 29 57  1  0
 30 58  1  0
M  CHG  2   1   1   4   1
M  END
>  <score>  (7) 
-9.37

$$$$
=
     RDKit          3D

 58 61  0  0  0  0  0  0  0  0999 V2000
    0.9290   66.9030   69.4140 N   0  0  0  0  0  4  0  0  0  0  0  0
    2.0660   65.9770   69.8730 C   0  0  0  0  0  0  0  0  0  0  0  0
    1.5870   64.5290   70.1150 C   0  0  0  0  0  0  0  0  0  0  0  0
    0.4810   64.4570   71.1660 N   0  0  0  0  0  4  0  0  0  0  0  0
   -0.3860   65.7130   71.2510 C   0  0  0  0  0  0  0  0  0  0  0  0
   -0.4600   66.4480   69.8930 C   0  0  0  0  0  0  0  0  0  0  0  0
    0.9530   67.2150   67.8910 C   0  0  0  0  0  0  0  0  0  0  0  0
   -4.0250   68.9890   65.8500 F   0  0  0  0  0  0  0  0  0  0  0  0
   -2.8560   68.5690   66.3460 C   0  0  0  0  0  0  0  0  0  0  0  0
   -2.7670   67.3040   66.9120 C   0  0  0  0  0  0  0  0  0  0  0  0
   -1.5460   66.8570   67.4250 C   0  0  0  0  0  0  0  0  0  0  0  0
   -0.4020   67.6760   67.3660 C   0  0  0  0  0  0  0  0  0  0  0  0
   -0.5230   68.9610   66.7980 C   0  0  0  0  0  0  0  0  0  0  0  0
   -1.7480   69.4010   66.2870 C   0  0  0  0  0  0  0  0  0  0  0  0
    2.0810   68.1540   67.4750 C   0  0  0  0  0  0  0  0  0  0  0  0
    2.5830   69.1640   68.3200 C   0  0  0  0  0  0  0  0  0  0  0  0
    3.6240   69.9950   67.8940 C   0  0  0  0  0  0  0  0  0  0  0  0
    4.1630   69.8320   66.6250 C   0  0  0  0  0  0  0  0  0  0  0  0
    3.6770   68.8580   65.7670 C   0  0  0  0  0  0  0  0  0  0  0  0
    2.6360   68.0250   66.1850 C   0  0  0  0  0  0  0  0  0  0  0  0
    5.1630   70.6270   66.2270 F   0  0  0  0  0  0  0  0  0  0  0  0
    0.9880   63.9990   72.5270 C   0  0  0  0  0  0  0  0  0  0  0  0
    0.8510   62.5250   72.7030 C   0  0  0  0  0  0  0  0  0  0  0  0
    1.8030   61.6420   72.3580 C   0  0  0  0  0  0  0  0  0  0  0  0
    1.6950   60.1910   72.5720 C   0  0  0  0  0  0  0  0  0  0  0  0
    0.7000   59.6160   73.3750 C   0  0  0  0  0  0  0  0  0  0  0  0
    0.6180   58.2280   73.5210 C   0  0  0  0  0  0  0  0  0  0  0  0
    1.5230   57.4010   72.8580 C   0  0  0  0  0  0  0  0  0  0  0  0
    2.5050   57.9590   72.0460 C   0  0  0  0  0  0  0  0  0  0  0  0
    2.5890   59.3450   71.8990 C   0  0  0  0  0  0  0  0  0  0  0  0
    1.1183   67.7978   69.8877 H   0  0  0  0  0  0  0  0  0  0  0  0
    2.8466   65.9657   69.0980 H   0  0  0  0  0  0  0  0  0  0  0  0
    2.4500   66.3663   70.8274 H   0  0  0  0  0  0  0  0  0  0  0  0
    1.2040   64.1194   69.1687 H   0  0  0  0  0  0  0  0  0  0  0  0
    2.4437   63.9465   70.4848 H   0  0  0  0  0  0  0  0  0  0  0  0
   -0.1542   63.7203   70.8272 H   0  0  0  0  0  0  0  0  0  0  0  0
   -1.4026   65.4247   71.5565 H   0  0  0  0  0  0  0  0  0  0  0  0
    0.0674   66.3943   71.9860 H   0  0  0  0  0  0  0  0  0  0  0  0
   -0.8903   65.7681   69.1430 H   0  0  0  0  0  0  0  0  0  0  0  0
   -1.0875   67.3423   70.0217 H   0  0  0  0  0  0  0  0  0  0  0  0
    1.1740   66.2533   67.4050 H   0  0  0  0  0  0  0  0  0  0  0  0
   -3.6546   66.6558   66.9565 H   0  0  0  0  0  0  0  0  0  0  0  0
   -1.4782   65.8572   67.8786 H   0  0  0  0  0  0  0  0  0  0  0  0
    0.3543   69.6233   66.7565 H   0  0  0  0  0  0  0  0  0  0  0  0
   -1.8324   70.4026   65.8402 H   0  0  0  0  0  0  0  0  0  0  0  0
    2.1524   69.2998   69.3231 H   0  0  0  0  0  0  0  0  0  0  0  0
    4.0149   70.7760   68.5628 H   0  0  0  0  0  0  0  0  0  0  0  0
    4.1087   68.7414   64.7620 H   0  0  0  0  0  0  0  0  0  0  0  0
    2.2445   67.2591   65.4994 H   0  0  0  0  0  0  0  0  0  0  0  0
    2.0495   64.2714   72.6214 H   0  0  0  0  0  0  0  0  0  0  0  0
    0.3820   64.4929   73.3008 H   0  0  0  0  0  0  0  0  0  0  0  0
   -0.0817   62.1387   73.1398 H   0  0  0  0  0  0  0  0  0  0  0  0
    2.7190   62.0278   71.8868 H   0  0  0  0  0  0  0  0  0  0  0  0
   -0.0224   60.2625   73.8947 H   0  0  0  0  0  0  0  0  0  0  0  0
   -0.1618   57.7880   74.1600 H   0  0  0  0  0  0  0  0  0  0  0  0
    1.4609   56.3092   72.9766 H   0  0  0  0  0  0  0  0  0  0  0  0
    3.2169   57.3070   71.5186 H   0  0  0  0  0  0  0  0  0  0  0  0
    3.3638   59.7778   71.2491 H   0  0  0  0  0  0  0  0  0  0  0  0
  2  1  1  0
  3  2  1  0
  4  3  1  0
  5  4  1  0
  6  5  1  0
  6  1  1  0
  7  1  1  0
  9  8  1  0
 10  9  2  0
 11 10  1  0
 12 11  2  0
 12  7  1  0
 13 12  1  0
 14 13  2  0
 14  9  1  0
 15  7  1  0
 16 15  2  0
 17 16  1  0
 18 17  2  0
 19 18  1  0
 20 19  2  0
 20 15  1  0
 21 18  1  0
 22  4  1  0
 23 22  1  0
 24 23  2  0
 25 24  1  0
 26 25  2  0
 27 26  1  0
 28 27  2  0
 29 28  1  0
 30 29  2  0
 30 25  1  0
  1 31  1  0
  2 32  1  0
  2 33  1  0
  3 34  1  0
  3 35  1  0
  4 36  1  0
  5 37  1  0
  5 38  1  0
  6 39  1  0
  6 40  1  0
  7 41  1  0
 10 42  1  0
 11 43  1  0
 13 44  1  0
 14 45  1  0
 16 46  1  0
 17 47  1  0
 19 48  1  0
 20 49  1  0
 22 50  1  0
 22 51  1  0
 23 52  1  0
 24 53  1  0
 26 54  1  0
 27 55  1  0
 28 56  1  0
 29 57  1  0
 30 58  1  0
M  CHG  2   1   1   4   1
M  END
>  <score>  (8) 
-9.277

$$$$
=
     RDKit          3D

 58 61  0  0  0  0  0  0  0  0999 V2000
    0.0580   63.9870   72.1560 N   0  0  0  0  0  4  0  0  0  0  0  0
    0.0580   64.2760   73.6660 C   0  0  0  0  0  0  0  0  0  0  0  0
    0.5120   63.0570   74.4990 C   0  0  0  0  0  0  0  0  0  0  0  0
   -0.3750   61.8360   74.2640 N   0  0  0  0  0  4  0  0  0  0  0  0
   -1.0140   61.7840   72.8760 C   0  0  0  0  0  0  0  0  0  0  0  0
   -0.1420   62.5000   71.8190 C   0  0  0  0  0  0  0  0  0  0  0  0
    1.2690   64.6040   71.4010 C   0  0  0  0  0  0  0  0  0  0  0  0
    4.8420   60.6090   69.5680 F   0  0  0  0  0  0  0  0  0  0  0  0
    4.0060   61.5620   69.9920 C   0  0  0  0  0  0  0  0  0  0  0  0
    3.1980   62.2220   69.0760 C   0  0  0  0  0  0  0  0  0  0  0  0
    2.3160   63.2140   69.5150 C   0  0  0  0  0  0  0  0  0  0  0  0
    2.2350   63.5460   70.8810 C   0  0  0  0  0  0  0  0  0  0  0  0
    3.0770   62.8710   71.7880 C   0  0  0  0  0  0  0  0  0  0  0  0
    3.9560   61.8800   71.3410 C   0  0  0  0  0  0  0  0  0  0  0  0
    0.8720   65.6030   70.3190 C   0  0  0  0  0  0  0  0  0  0  0  0
    1.7220   66.6440   69.8930 C   0  0  0  0  0  0  0  0  0  0  0  0
    1.3130   67.5310   68.8920 C   0  0  0  0  0  0  0  0  0  0  0  0
    0.0570   67.3930   68.3180 C   0  0  0  0  0  0  0  0  0  0  0  0
   -0.8070   66.3900   68.7300 C   0  0  0  0  0  0  0  0  0  0  0  0
   -0.4050   65.5010   69.7300 C   0  0  0  0  0  0  0  0  0  0  0  0
   -0.3250   68.2410   67.3560 F   0  0  0  0  0  0  0  0  0  0  0  0
   -1.3820   61.6130   75.3840 C   0  0  0  0  0  0  0  0  0  0  0  0
   -2.7650   61.4290   74.8570 C   0  0  0  0  0  0  0  0  0  0  0  0
   -3.8740   61.7010   75.5640 C   0  0  0  0  0  0  0  0  0  0  0  0
   -5.2400   61.5670   75.0340 C   0  0  0  0  0  0  0  0  0  0  0  0
   -5.6500   60.4700   74.2650 C   0  0  0  0  0  0  0  0  0  0  0  0
   -6.9680   60.3710   73.8110 C   0  0  0  0  0  0  0  0  0  0  0  0
   -7.8930   61.3630   74.1320 C   0  0  0  0  0  0  0  0  0  0  0  0
   -7.5030   62.4480   74.9090 C   0  0  0  0  0  0  0  0  0  0  0  0
   -6.1860   62.5490   75.3620 C   0  0  0  0  0  0  0  0  0  0  0  0
   -0.7748   64.4775   71.7999 H   0  0  0  0  0  0  0  0  0  0  0  0
    0.7417   65.1144   73.8652 H   0  0  0  0  0  0  0  0  0  0  0  0
   -0.9736   64.5183   73.9610 H   0  0  0  0  0  0  0  0  0  0  0  0
    1.5456   62.8030   74.2211 H   0  0  0  0  0  0  0  0  0  0  0  0
    0.4390   63.3282   75.5625 H   0  0  0  0  0  0  0  0  0  0  0  0
    0.2710   61.0341   74.2878 H   0  0  0  0  0  0  0  0  0  0  0  0
   -1.1404   60.7319   72.5807 H   0  0  0  0  0  0  0  0  0  0  0  0
   -1.9850   62.2984   72.9256 H   0  0  0  0  0  0  0  0  0  0  0  0
    0.8415   62.0090   71.7770 H   0  0  0  0  0  0  0  0  0  0  0  0
   -0.6579   62.4355   70.8496 H   0  0  0  0  0  0  0  0  0  0  0  0
    1.8123   65.1884   72.1582 H   0  0  0  0  0  0  0  0  0  0  0  0
    3.2516   61.9651   68.0078 H   0  0  0  0  0  0  0  0  0  0  0  0
    1.6801   63.7394   68.7873 H   0  0  0  0  0  0  0  0  0  0  0  0
    3.0421   63.1264   72.8574 H   0  0  0  0  0  0  0  0  0  0  0  0
    4.6055   61.3545   72.0565 H   0  0  0  0  0  0  0  0  0  0  0  0
    2.7151   66.7595   70.3517 H   0  0  0  0  0  0  0  0  0  0  0  0
    1.9852   68.3361   68.5605 H   0  0  0  0  0  0  0  0  0  0  0  0
   -1.8028   66.2948   68.2724 H   0  0  0  0  0  0  0  0  0  0  0  0
   -1.0942   64.7107   70.0624 H   0  0  0  0  0  0  0  0  0  0  0  0
   -1.0935   60.7140   75.9484 H   0  0  0  0  0  0  0  0  0  0  0  0
   -1.3779   62.5035   76.0297 H   0  0  0  0  0  0  0  0  0  0  0  0
   -2.8834   61.0491   73.8315 H   0  0  0  0  0  0  0  0  0  0  0  0
   -3.7538   62.0447   76.6020 H   0  0  0  0  0  0  0  0  0  0  0  0
   -4.9274   59.6789   74.0161 H   0  0  0  0  0  0  0  0  0  0  0  0
   -7.2756   59.5096   73.1999 H   0  0  0  0  0  0  0  0  0  0  0  0
   -8.9295   61.2876   73.7713 H   0  0  0  0  0  0  0  0  0  0  0  0
   -8.2336   63.2287   75.1675 H   0  0  0  0  0  0  0  0  0  0  0  0
   -5.8876   63.4071   75.9821 H   0  0  0  0  0  0  0  0  0  0  0  0
  2  1  1  0
  3  2  1  0
  4  3  1  0
  5  4  1  0
  6  5  1  0
  6  1  1  0
  7  1  1  0
  9  8  1  0
 10  9  2  0
 11 10  1  0
 12 11  2  0
 12  7  1  0
 13 12  1  0
 14 13  2  0
 14  9  1  0
 15  7  1  0
 16 15  2  0
 17 16  1  0
 18 17  2  0
 19 18  1  0
 20 19  2  0
 20 15  1  0
 21 18  1  0
 22  4  1  0
 23 22  1  0
 24 23  2  0
 25 24  1  0
 26 25  2  0
 27 26  1  0
 28 27  2  0
 29 28  1  0
 30 29  2  0
 30 25  1  0
  1 31  1  0
  2 32  1  0
  2 33  1  0
  3 34  1  0
  3 35  1  0
  4 36  1  0
  5 37  1  0
  5 38  1  0
  6 39  1  0
  6 40  1  0
  7 41  1  0
 10 42  1  0
 11 43  1  0
 13 44  1  0
 14 45  1  0
 16 46  1  0
 17 47  1  0
 19 48  1  0
 20 49  1  0
 22 50  1  0
 22 51  1  0
 23 52  1  0
 24 53  1  0
 26 54  1  0
 27 55  1  0
 28 56  1  0
 29 57  1  0
 30 58  1  0
M  CHG  2   1   1   4   1
M  END
>  <score>  (9) 
-9.21

$$$$
