=
     RDKit          3D

 55 57  0  0  0  0  0  0  0  0999 V2000
   -0.0600   66.0870   70.4470 C   0  0  0  0  0  0  0  0  0  0  0  0
    0.7480   65.1100   70.8820 C   0  0  0  0  0  0  0  0  0  0  0  0
    1.9200   64.4300   70.2200 C   0  0  0  0  0  0  0  0  0  0  0  0
    2.3410   63.3990   71.2250 C   0  0  0  0  0  0  0  0  0  0  0  0
    1.5480   63.4360   72.3690 C   0  0  0  0  0  0  0  0  0  0  0  0
    0.5340   64.4830   72.2230 C   0  0  0  0  0  0  0  0  0  0  0  0
   -0.3150   64.7800   73.0380 O   0  0  0  0  0  0  0  0  0  0  0  0
    1.7360   62.5880   73.4450 C   0  0  0  0  0  0  0  0  0  0  0  0
    2.7750   61.6570   73.3620 C   0  0  0  0  0  0  0  0  0  0  0  0
    3.5980   61.6020   72.2010 C   0  0  0  0  0  0  0  0  0  0  0  0
    3.3760   62.4810   71.1280 C   0  0  0  0  0  0  0  0  0  0  0  0
    0.2390   68.0350   66.6510 C   0  0  0  0  0  0  0  0  0  0  0  0
   -0.8900   67.2720   66.9820 C   0  0  0  0  0  0  0  0  0  0  0  0
   -0.9750   66.6340   68.2210 C   0  0  0  0  0  0  0  0  0  0  0  0
    0.0680   66.7370   69.1450 C   0  0  0  0  0  0  0  0  0  0  0  0
    1.1990   67.4890   68.8170 C   0  0  0  0  0  0  0  0  0  0  0  0
    1.2880   68.1320   67.5790 C   0  0  0  0  0  0  0  0  0  0  0  0
    0.3130   68.7660   65.3360 C   0  0  0  0  0  0  0  0  0  0  0  0
    0.7230   67.8760   64.1760 N   0  0  0  0  0  4  0  0  0  0  0  0
    2.3840   66.0300   64.6620 C   0  0  0  0  0  0  0  0  0  0  0  0
    2.1830   67.4590   64.1920 C   0  0  0  0  0  0  0  0  0  0  0  0
    0.2820   68.4130   62.8310 C   0  0  0  0  0  0  0  0  0  0  0  0
    1.4590   69.0050   62.0780 C   0  0  0  0  0  0  0  0  0  0  0  0
    4.5900   60.6510   72.2230 O   0  0  0  0  0  0  0  0  0  0  0  0
    5.7280   60.8550   71.3990 C   0  0  0  0  0  0  0  0  0  0  0  0
    3.0800   60.7540   74.3510 O   0  0  0  0  0  0  0  0  0  0  0  0
    2.1580   59.6990   74.5890 C   0  0  0  0  0  0  0  0  0  0  0  0
   -0.8703   66.4202   71.1121 H   0  0  0  0  0  0  0  0  0  0  0  0
    1.6170   63.9565   69.2745 H   0  0  0  0  0  0  0  0  0  0  0  0
    2.7286   65.1285   69.9588 H   0  0  0  0  0  0  0  0  0  0  0  0
    1.0910   62.6442   74.3343 H   0  0  0  0  0  0  0  0  0  0  0  0
    4.0097   62.4420   70.2297 H   0  0  0  0  0  0  0  0  0  0  0  0
   -1.7146   67.1754   66.2603 H   0  0  0  0  0  0  0  0  0  0  0  0
   -1.8700   66.0457   68.4716 H   0  0  0  0  0  0  0  0  0  0  0  0
    2.0252   67.5757   69.5381 H   0  0  0  0  0  0  0  0  0  0  0  0
    2.1854   68.7175   67.3304 H   0  0  0  0  0  0  0  0  0  0  0  0
   -0.6775   69.1911   65.1167 H   0  0  0  0  0  0  0  0  0  0  0  0
    1.0844   69.5434   65.4385 H   0  0  0  0  0  0  0  0  0  0  0  0
    0.1982   67.0024   64.3255 H   0  0  0  0  0  0  0  0  0  0  0  0
    2.3878   66.0028   65.7617 H   0  0  0  0  0  0  0  0  0  0  0  0
    1.5655   65.4006   64.2825 H   0  0  0  0  0  0  0  0  0  0  0  0
    3.3443   65.6508   64.2825 H   0  0  0  0  0  0  0  0  0  0  0  0
    2.7326   68.1312   64.8673 H   0  0  0  0  0  0  0  0  0  0  0  0
    2.5557   67.5222   63.1590 H   0  0  0  0  0  0  0  0  0  0  0  0
   -0.1500   67.5929   62.2387 H   0  0  0  0  0  0  0  0  0  0  0  0
   -0.4670   69.2020   62.9934 H   0  0  0  0  0  0  0  0  0  0  0  0
    2.2031   69.3793   62.7965 H   0  0  0  0  0  0  0  0  0  0  0  0
    1.9171   68.2301   61.4459 H   0  0  0  0  0  0  0  0  0  0  0  0
    1.1100   69.8348   61.4459 H   0  0  0  0  0  0  0  0  0  0  0  0
    6.6144   61.0139   72.0307 H   0  0  0  0  0  0  0  0  0  0  0  0
    5.8841   59.9705   70.7639 H   0  0  0  0  0  0  0  0  0  0  0  0
    5.5672   61.7386   70.7639 H   0  0  0  0  0  0  0  0  0  0  0  0
    2.0344   59.5576   75.6728 H   0  0  0  0  0  0  0  0  0  0  0  0
    1.1867   59.9524   74.1392 H   0  0  0  0  0  0  0  0  0  0  0  0
    2.5393   58.7704   74.1392 H   0  0  0  0  0  0  0  0  0  0  0  0
  2  1  2  0
  3  2  1  0
  4  3  1  0
  5  4  2  0
  6  5  1  0
  6  2  1  0
  7  6  2  0
  8  5  1  0
  9  8  2  0
 10  9  1  0
 11 10  2  0
 11  4  1  0
 13 12  2  0
 14 13  1  0
 15 14  2  0
 15  1  1  0
 16 15  1  0
 17 16  2  0
 17 12  1  0
 18 12  1  0
 19 18  1  0
 21 20  1  0
 21 19  1  0
 22 19  1  0
 23 22  1  0
 24 10  1  0
 25 24  1  0
 26  9  1  0
 27 26  1  0
  1 28  1  0
  3 29  1  0
  3 30  1  0
  8 31  1  0
 11 32  1  0
 13 33  1  0
 14 34  1  0
 16 35  1  0
 17 36  1  0
 18 37  1  0
 18 38  1  0
 19 39  1  0
 20 40  1  0
 20 41  1  0
 20 42  1  0
 21 43  1  0
 21 44  1  0
 22 45  1  0
 22 46  1  0
 23 47  1  0
 23 48  1  0
 23 49  1  0
 25 50  1  0
 25 51  1  0
 25 52  1  0
 27 53  1  0
 27 54  1  0
 27 55  1  0
M  CHG  1  19   1
M  END
>  <score>  (1) 
-9.263

$$$$
=
     RDKit          3D

 55 57  0  0  0  0  0  0  0  0999 V2000
    0.0930   65.5930   71.0090 C   0  0  0  0  0  0  0  0  0  0  0  0
    0.7310   64.4430   71.2640 C   0  0  0  0  0  0  0  0  0  0  0  0
    1.7520   63.6800   70.4570 C   0  0  0  0  0  0  0  0  0  0  0  0
    2.0140   62.4580   71.2880 C   0  0  0  0  0  0  0  0  0  0  0  0
    1.2680   62.4620   72.4630 C   0  0  0  0  0  0  0  0  0  0  0  0
    0.4470   63.6730   72.5140 C   0  0  0  0  0  0  0  0  0  0  0  0
   -0.3190   63.9860   73.4030 O   0  0  0  0  0  0  0  0  0  0  0  0
    1.3340   61.4480   73.4010 C   0  0  0  0  0  0  0  0  0  0  0  0
    2.1960   60.3780   73.1390 C   0  0  0  0  0  0  0  0  0  0  0  0
    2.9670   60.3560   71.9410 C   0  0  0  0  0  0  0  0  0  0  0  0
    2.8720   61.4050   71.0130 C   0  0  0  0  0  0  0  0  0  0  0  0
    0.7700   67.8970   67.4690 C   0  0  0  0  0  0  0  0  0  0  0  0
    1.7060   67.8900   68.5130 C   0  0  0  0  0  0  0  0  0  0  0  0
    1.4730   67.1400   69.6680 C   0  0  0  0  0  0  0  0  0  0  0  0
    0.2980   66.3950   69.8040 C   0  0  0  0  0  0  0  0  0  0  0  0
   -0.6420   66.4060   68.7710 C   0  0  0  0  0  0  0  0  0  0  0  0
   -0.4110   67.1530   67.6120 C   0  0  0  0  0  0  0  0  0  0  0  0
    1.0410   68.6640   66.2010 C   0  0  0  0  0  0  0  0  0  0  0  0
    2.2700   68.1770   65.4550 N   0  0  0  0  0  4  0  0  0  0  0  0
    4.3450   69.5650   65.8660 C   0  0  0  0  0  0  0  0  0  0  0  0
    3.1730   69.2860   64.9440 C   0  0  0  0  0  0  0  0  0  0  0  0
    1.9510   67.1450   64.3930 C   0  0  0  0  0  0  0  0  0  0  0  0
    2.6290   65.8240   64.7090 C   0  0  0  0  0  0  0  0  0  0  0  0
    3.7800   59.2590   71.7830 O   0  0  0  0  0  0  0  0  0  0  0  0
    3.4050   58.2840   70.8210 C   0  0  0  0  0  0  0  0  0  0  0  0
    2.3650   59.3030   73.9770 O   0  0  0  0  0  0  0  0  0  0  0  0
    1.2870   58.3860   74.1010 C   0  0  0  0  0  0  0  0  0  0  0  0
   -0.6308   65.9568   71.7532 H   0  0  0  0  0  0  0  0  0  0  0  0
    1.3486   63.4058   69.4710 H   0  0  0  0  0  0  0  0  0  0  0  0
    2.6621   64.2641   70.2556 H   0  0  0  0  0  0  0  0  0  0  0  0
    0.7304   61.4817   74.3200 H   0  0  0  0  0  0  0  0  0  0  0  0
    3.4659   61.3915   70.0872 H   0  0  0  0  0  0  0  0  0  0  0  0
    2.6303   68.4793   68.4217 H   0  0  0  0  0  0  0  0  0  0  0  0
    2.2192   67.1355   70.4762 H   0  0  0  0  0  0  0  0  0  0  0  0
   -1.5698   65.8234   68.8699 H   0  0  0  0  0  0  0  0  0  0  0  0
   -1.1603   67.1575   66.8067 H   0  0  0  0  0  0  0  0  0  0  0  0
    0.1683   68.5635   65.5390 H   0  0  0  0  0  0  0  0  0  0  0  0
    1.2268   69.7099   66.4866 H   0  0  0  0  0  0  0  0  0  0  0  0
    2.8285   67.6918   66.1716 H   0  0  0  0  0  0  0  0  0  0  0  0
    4.0151   69.4865   66.9124 H   0  0  0  0  0  0  0  0  0  0  0  0
    5.1428   68.8317   65.6771 H   0  0  0  0  0  0  0  0  0  0  0  0
    4.7268   70.5791   65.6771 H   0  0  0  0  0  0  0  0  0  0  0  0
    2.5777   70.2057   64.8449 H   0  0  0  0  0  0  0  0  0  0  0  0
    3.5839   68.9582   63.9777 H   0  0  0  0  0  0  0  0  0  0  0  0
    0.8624   66.9920   64.3534 H   0  0  0  0  0  0  0  0  0  0  0  0
    2.3203   67.5094   63.4230 H   0  0  0  0  0  0  0  0  0  0  0  0
    2.6942   65.6970   65.7997 H   0  0  0  0  0  0  0  0  0  0  0  0
    2.0430   64.9988   64.2781 H   0  0  0  0  0  0  0  0  0  0  0  0
    3.6411   65.8190   64.2781 H   0  0  0  0  0  0  0  0  0  0  0  0
    3.0560   57.3765   71.3355 H   0  0  0  0  0  0  0  0  0  0  0  0
    2.5960   58.6825   70.1912 H   0  0  0  0  0  0  0  0  0  0  0  0
    4.2726   58.0377   70.1912 H   0  0  0  0  0  0  0  0  0  0  0  0
    1.0777   58.2080   75.1661 H   0  0  0  0  0  0  0  0  0  0  0  0
    0.3924   58.8041   73.6164 H   0  0  0  0  0  0  0  0  0  0  0  0
    1.5562   57.4359   73.6164 H   0  0  0  0  0  0  0  0  0  0  0  0
  2  1  2  0
  3  2  1  0
  4  3  1  0
  5  4  2  0
  6  5  1  0
  6  2  1  0
  7  6  2  0
  8  5  1  0
  9  8  2  0
 10  9  1  0
 11 10  2  0
 11  4  1  0
 13 12  2  0
 14 13  1  0
 15 14  2  0
 15  1  1  0
 16 15  1  0
 17 16  2  0
 17 12  1  0
 18 12  1  0
 19 18  1  0
 21 20  1  0
 21 19  1  0
 22 19  1  0
 23 22  1  0
 24 10  1  0
 25 24  1  0
 26  9  1  0
 27 26  1  0
  1 28  1  0
  3 29  1  0
  3 30  1  0
  8 31  1  0
 11 32  1  0
 13 33  1  0
 14 34  1  0
 16 35  1  0
 17 36  1  0
 18 37  1  0
 18 38  1  0
 19 39  1  0
 20 40  1  0
 20 41  1  0
 20 42  1  0
 21 43  1  0
 21 44  1  0
 22 45  1  0
 22 46  1  0
 23 47  1  0
 23 48  1  0
 23 49  1  0
 25 50  1  0
 25 51  1  0
 25 52  1  0
 27 53  1  0
 27 54  1  0
 27 55  1  0
M  CHG  1  19   1
M  END
>  <score>  (2) 
-8.961

$$$$
=
     RDKit          3D

 55 57  0  0  0  0  0  0  0  0999 V2000
    0.3970   66.7870   69.7240 C   0  0  0  0  0  0  0  0  0  0  0  0
    0.9900   65.7120   70.2600 C   0  0  0  0  0  0  0  0  0  0  0  0
    2.1300   64.8590   69.7610 C   0  0  0  0  0  0  0  0  0  0  0  0
    2.2580   63.7940   70.8100 C   0  0  0  0  0  0  0  0  0  0  0  0
    1.3320   63.9630   71.8360 C   0  0  0  0  0  0  0  0  0  0  0  0
    0.5090   65.1430   71.5580 C   0  0  0  0  0  0  0  0  0  0  0  0
   -0.3910   65.5720   72.2510 O   0  0  0  0  0  0  0  0  0  0  0  0
    1.2480   63.1150   72.9240 C   0  0  0  0  0  0  0  0  0  0  0  0
    2.1430   62.0420   72.9790 C   0  0  0  0  0  0  0  0  0  0  0  0
    3.0980   61.8510   71.9390 C   0  0  0  0  0  0  0  0  0  0  0  0
    3.1520   62.7350   70.8500 C   0  0  0  0  0  0  0  0  0  0  0  0
    1.6390   68.5390   66.0250 C   0  0  0  0  0  0  0  0  0  0  0  0
    2.1340   69.0140   67.2480 C   0  0  0  0  0  0  0  0  0  0  0  0
    1.7170   68.4390   68.4510 C   0  0  0  0  0  0  0  0  0  0  0  0
    0.7920   67.3920   68.4540 C   0  0  0  0  0  0  0  0  0  0  0  0
    0.2890   66.9210   67.2380 C   0  0  0  0  0  0  0  0  0  0  0  0
    0.7050   67.4910   66.0310 C   0  0  0  0  0  0  0  0  0  0  0  0
    2.1230   69.1210   64.7230 C   0  0  0  0  0  0  0  0  0  0  0  0
    3.3990   68.4750   64.2140 N   0  0  0  0  0  4  0  0  0  0  0  0
    4.4220   66.6270   62.8200 C   0  0  0  0  0  0  0  0  0  0  0  0
    3.1990   67.1100   63.5770 C   0  0  0  0  0  0  0  0  0  0  0  0
    4.5190   68.4860   65.2330 C   0  0  0  0  0  0  0  0  0  0  0  0
    5.3050   69.7820   65.1500 C   0  0  0  0  0  0  0  0  0  0  0  0
    3.9290   60.7680   72.0920 O   0  0  0  0  0  0  0  0  0  0  0  0
    5.3310   60.9980   72.1010 C   0  0  0  0  0  0  0  0  0  0  0  0
    2.1780   61.1200   73.9970 O   0  0  0  0  0  0  0  0  0  0  0  0
    0.9380   60.6410   74.4970 C   0  0  0  0  0  0  0  0  0  0  0  0
   -0.4394   67.2426   70.2743 H   0  0  0  0  0  0  0  0  0  0  0  0
    1.8919   64.4190   68.7814 H   0  0  0  0  0  0  0  0  0  0  0  0
    3.0591   65.4295   69.6150 H   0  0  0  0  0  0  0  0  0  0  0  0
    0.5042   63.2782   73.7178 H   0  0  0  0  0  0  0  0  0  0  0  0
    3.8880   62.5906   70.0454 H   0  0  0  0  0  0  0  0  0  0  0  0
    2.8551   69.8445   67.2602 H   0  0  0  0  0  0  0  0  0  0  0  0
    2.1202   68.8136   69.4034 H   0  0  0  0  0  0  0  0  0  0  0  0
   -0.4390   66.0964   67.2306 H   0  0  0  0  0  0  0  0  0  0  0  0
    0.2980   67.1160   65.0804 H   0  0  0  0  0  0  0  0  0  0  0  0
    1.3367   68.9848   63.9659 H   0  0  0  0  0  0  0  0  0  0  0  0
    2.3451   70.1831   64.9035 H   0  0  0  0  0  0  0  0  0  0  0  0
    3.7037   69.0850   63.4421 H   0  0  0  0  0  0  0  0  0  0  0  0
    5.1988   66.3202   63.5359 H   0  0  0  0  0  0  0  0  0  0  0  0
    4.1470   65.7699   62.1877 H   0  0  0  0  0  0  0  0  0  0  0  0
    4.8068   67.4407   62.1877 H   0  0  0  0  0  0  0  0  0  0  0  0
    2.3534   67.1703   62.8760 H   0  0  0  0  0  0  0  0  0  0  0  0
    3.0078   66.3919   64.3881 H   0  0  0  0  0  0  0  0  0  0  0  0
    4.0910   68.3868   66.2415 H   0  0  0  0  0  0  0  0  0  0  0  0
    5.1975   67.6460   65.0229 H   0  0  0  0  0  0  0  0  0  0  0  0
    5.5243   70.1435   66.1655 H   0  0  0  0  0  0  0  0  0  0  0  0
    6.2481   69.6051   64.6122 H   0  0  0  0  0  0  0  0  0  0  0  0
    4.7122   70.5366   64.6122 H   0  0  0  0  0  0  0  0  0  0  0  0
    5.6863   61.0563   73.1404 H   0  0  0  0  0  0  0  0  0  0  0  0
    5.8415   60.1716   71.5848 H   0  0  0  0  0  0  0  0  0  0  0  0
    5.5507   61.9442   71.5848 H   0  0  0  0  0  0  0  0  0  0  0  0
    0.9585   60.6489   75.5968 H   0  0  0  0  0  0  0  0  0  0  0  0
    0.1239   61.2894   74.1407 H   0  0  0  0  0  0  0  0  0  0  0  0
    0.7712   59.6137   74.1407 H   0  0  0  0  0  0  0  0  0  0  0  0
  2  1  2  0
  3  2  1  0
  4  3  1  0
  5  4  2  0
  6  5  1  0
  6  2  1  0
  7  6  2  0
  8  5  1  0
  9  8  2  0
 10  9  1  0
 11 10  2  0
 11  4  1  0
 13 12  2  0
 14 13  1  0
 15 14  2  0
 15  1  1  0
 16 15  1  0
 17 16  2  0
 17 12  1  0
 18 12  1  0
 19 18  1  0
 21 20  1  0
 21 19  1  0
 22 19  1  0
 23 22  1  0
 24 10  1  0
 25 24  1  0
 26  9  1  0
 27 26  1  0
  1 28  1  0
  3 29  1  0
  3 30  1  0
  8 31  1  0
 11 32  1  0
 13 33  1  0
 14 34  1  0
 16 35  1  0
 17 36  1  0
 18 37  1  0
 18 38  1  0
 19 39  1  0
 20 40  1  0
 20 41  1  0
 20 42  1  0
 21 43  1  0
 21 44  1  0
 22 45  1  0
 22 46  1  0
 23 47  1  0
 23 48  1  0
 23 49  1  0
 25 50  1  0
 25 51  1  0
 25 52  1  0
 27 53  1  0
 27 54  1  0
 27 55  1  0
M  CHG  1  19   1
M  END
>  <score>  (3) 
-7.927

$$$$
=
     RDKit          3D

 55 57  0  0  0  0  0  0  0  0999 V2000
    1.4060   61.6640   72.0470 C   0  0  0  0  0  0  0  0  0  0  0  0
    0.3830   61.0770   72.6830 C   0  0  0  0  0  0  0  0  0  0  0  0
   -1.0090   61.5740   72.9840 C   0  0  0  0  0  0  0  0  0  0  0  0
   -1.6230   60.4490   73.7640 C   0  0  0  0  0  0  0  0  0  0  0  0
   -0.7400   59.3840   73.9190 C   0  0  0  0  0  0  0  0  0  0  0  0
    0.5310   59.7080   73.2660 C   0  0  0  0  0  0  0  0  0  0  0  0
    1.5140   58.9980   73.2140 O   0  0  0  0  0  0  0  0  0  0  0  0
   -1.0680   58.2240   74.5960 C   0  0  0  0  0  0  0  0  0  0  0  0
   -2.3510   58.1350   75.1440 C   0  0  0  0  0  0  0  0  0  0  0  0
   -3.2700   59.2140   74.9970 C   0  0  0  0  0  0  0  0  0  0  0  0
   -2.8990   60.3760   74.3010 C   0  0  0  0  0  0  0  0  0  0  0  0
    1.2400   65.5500   70.2670 C   0  0  0  0  0  0  0  0  0  0  0  0
    2.2760   64.6590   69.9540 C   0  0  0  0  0  0  0  0  0  0  0  0
    2.3250   63.3940   70.5460 C   0  0  0  0  0  0  0  0  0  0  0  0
    1.3490   63.0040   71.4670 C   0  0  0  0  0  0  0  0  0  0  0  0
    0.3200   63.8920   71.7900 C   0  0  0  0  0  0  0  0  0  0  0  0
    0.2650   65.1570   71.1970 C   0  0  0  0  0  0  0  0  0  0  0  0
    1.1550   66.8950   69.5940 C   0  0  0  0  0  0  0  0  0  0  0  0
    0.5460   66.8340   68.2050 N   0  0  0  0  0  4  0  0  0  0  0  0
    1.8610   68.9750   67.9090 C   0  0  0  0  0  0  0  0  0  0  0  0
    1.1210   67.8410   67.2240 C   0  0  0  0  0  0  0  0  0  0  0  0
   -0.9680   66.8290   68.2190 C   0  0  0  0  0  0  0  0  0  0  0  0
   -1.5180   67.5840   67.0230 C   0  0  0  0  0  0  0  0  0  0  0  0
   -4.5030   59.0230   75.5730 O   0  0  0  0  0  0  0  0  0  0  0  0
   -5.6330   58.9410   74.7180 C   0  0  0  0  0  0  0  0  0  0  0  0
   -2.8170   57.0470   75.8410 O   0  0  0  0  0  0  0  0  0  0  0  0
   -2.5000   55.7560   75.3400 C   0  0  0  0  0  0  0  0  0  0  0  0
    2.3473   61.1022   71.9558 H   0  0  0  0  0  0  0  0  0  0  0  0
   -0.9761   62.4957   73.5835 H   0  0  0  0  0  0  0  0  0  0  0  0
   -1.5784   61.8269   72.0775 H   0  0  0  0  0  0  0  0  0  0  0  0
   -0.3456   57.4010   74.6997 H   0  0  0  0  0  0  0  0  0  0  0  0
   -3.6060   61.2106   74.1844 H   0  0  0  0  0  0  0  0  0  0  0  0
    3.0556   64.9575   69.2376 H   0  0  0  0  0  0  0  0  0  0  0  0
    3.1378   62.7002   70.2851 H   0  0  0  0  0  0  0  0  0  0  0  0
   -0.4516   63.5942   72.5152 H   0  0  0  0  0  0  0  0  0  0  0  0
   -0.5481   65.8491   71.4612 H   0  0  0  0  0  0  0  0  0  0  0  0
    0.5376   67.5588   70.2171 H   0  0  0  0  0  0  0  0  0  0  0  0
    2.1834   67.2691   69.4827 H   0  0  0  0  0  0  0  0  0  0  0  0
    0.8350   65.9154   67.8395 H   0  0  0  0  0  0  0  0  0  0  0  0
    1.7840   68.8569   68.9999 H   0  0  0  0  0  0  0  0  0  0  0  0
    2.9199   68.9542   67.6118 H   0  0  0  0  0  0  0  0  0  0  0  0
    1.4156   69.9359   67.6118 H   0  0  0  0  0  0  0  0  0  0  0  0
    0.2962   68.2661   66.6333 H   0  0  0  0  0  0  0  0  0  0  0  0
    1.8456   67.3086   66.5904 H   0  0  0  0  0  0  0  0  0  0  0  0
   -1.3260   65.7894   68.1855 H   0  0  0  0  0  0  0  0  0  0  0  0
   -1.3148   67.3226   69.1388 H   0  0  0  0  0  0  0  0  0  0  0  0
   -2.1321   68.4271   67.3724 H   0  0  0  0  0  0  0  0  0  0  0  0
   -0.6843   67.9649   66.4148 H   0  0  0  0  0  0  0  0  0  0  0  0
   -2.1362   66.9073   66.4148 H   0  0  0  0  0  0  0  0  0  0  0  0
   -6.5480   58.8746   75.3250 H   0  0  0  0  0  0  0  0  0  0  0  0
   -5.6784   59.8382   74.0832 H   0  0  0  0  0  0  0  0  0  0  0  0
   -5.5484   58.0466   74.0832 H   0  0  0  0  0  0  0  0  0  0  0  0
   -2.3310   55.0676   76.1812 H   0  0  0  0  0  0  0  0  0  0  0  0
   -3.3340   55.3862   74.7255 H   0  0  0  0  0  0  0  0  0  0  0  0
   -1.5896   55.8146   74.7255 H   0  0  0  0  0  0  0  0  0  0  0  0
  2  1  2  0
  3  2  1  0
  4  3  1  0
  5  4  2  0
  6  5  1  0
  6  2  1  0
  7  6  2  0
  8  5  1  0
  9  8  2  0
 10  9  1  0
 11 10  2  0
 11  4  1  0
 13 12  2  0
 14 13  1  0
 15 14  2  0
 15  1  1  0
 16 15  1  0
 17 16  2  0
 17 12  1  0
 18 12  1  0
 19 18  1  0
 21 20  1  0
 21 19  1  0
 22 19  1  0
 23 22  1  0
 24 10  1  0
 25 24  1  0
 26  9  1  0
 27 26  1  0
  1 28  1  0
  3 29  1  0
  3 30  1  0
  8 31  1  0
 11 32  1  0
 13 33  1  0
 14 34  1  0
 16 35  1  0
 17 36  1  0
 18 37  1  0
 18 38  1  0
 19 39  1  0
 20 40  1  0
 20 41  1  0
 20 42  1  0
 21 43  1  0
 21 44  1  0
 22 45  1  0
 22 46  1  0
 23 47  1  0
 23 48  1  0
 23 49  1  0
 25 50  1  0
 25 51  1  0
 25 52  1  0
 27 53  1  0
 27 54  1  0
 27 55  1  0
M  CHG  1  19   1
M  END
>  <score>  (4) 
-7.92

$$$$
=
     RDKit          3D

 55 57  0  0  0  0  0  0  0  0999 V2000
    2.6880   61.2970   71.0910 C   0  0  0  0  0  0  0  0  0  0  0  0
    2.0610   60.3880   71.8510 C   0  0  0  0  0  0  0  0  0  0  0  0
    0.7580   60.4620   72.6070 C   0  0  0  0  0  0  0  0  0  0  0  0
    0.6700   59.1270   73.2870 C   0  0  0  0  0  0  0  0  0  0  0  0
    1.7650   58.3200   72.9870 C   0  0  0  0  0  0  0  0  0  0  0  0
    2.6720   59.0450   72.0940 C   0  0  0  0  0  0  0  0  0  0  0  0
    3.7190   58.6290   71.6420 O   0  0  0  0  0  0  0  0  0  0  0  0
    1.9180   57.0410   73.4880 C   0  0  0  0  0  0  0  0  0  0  0  0
    0.9170   56.5510   74.3320 C   0  0  0  0  0  0  0  0  0  0  0  0
   -0.2110   57.3610   74.6510 C   0  0  0  0  0  0  0  0  0  0  0  0
   -0.3300   58.6560   74.1230 C   0  0  0  0  0  0  0  0  0  0  0  0
    1.2140   65.2170   70.2220 C   0  0  0  0  0  0  0  0  0  0  0  0
    2.5910   64.9580   70.2580 C   0  0  0  0  0  0  0  0  0  0  0  0
    3.0630   63.6750   70.5490 C   0  0  0  0  0  0  0  0  0  0  0  0
    2.1690   62.6360   70.8210 C   0  0  0  0  0  0  0  0  0  0  0  0
    0.7960   62.8920   70.7960 C   0  0  0  0  0  0  0  0  0  0  0  0
    0.3190   64.1720   70.5020 C   0  0  0  0  0  0  0  0  0  0  0  0
    0.7000   66.5860   69.8590 C   0  0  0  0  0  0  0  0  0  0  0  0
    0.2180   66.6840   68.4230 N   0  0  0  0  0  4  0  0  0  0  0  0
    1.8010   68.6580   68.4390 C   0  0  0  0  0  0  0  0  0  0  0  0
    0.9120   67.7580   67.6020 C   0  0  0  0  0  0  0  0  0  0  0  0
   -1.2910   66.7410   68.3050 C   0  0  0  0  0  0  0  0  0  0  0  0
   -1.7030   67.4500   67.0280 C   0  0  0  0  0  0  0  0  0  0  0  0
   -1.1350   56.7830   75.4890 O   0  0  0  0  0  0  0  0  0  0  0  0
   -2.4410   57.3390   75.5250 C   0  0  0  0  0  0  0  0  0  0  0  0
    0.9340   55.3010   74.9020 O   0  0  0  0  0  0  0  0  0  0  0  0
    1.6660   54.2820   74.2370 C   0  0  0  0  0  0  0  0  0  0  0  0
    3.6529   61.0176   70.6429 H   0  0  0  0  0  0  0  0  0  0  0  0
    0.7772   61.2781   73.3443 H   0  0  0  0  0  0  0  0  0  0  0  0
   -0.1039   60.6680   71.9553 H   0  0  0  0  0  0  0  0  0  0  0  0
    2.7963   56.4303   73.2317 H   0  0  0  0  0  0  0  0  0  0  0  0
   -1.1992   59.2842   74.3677 H   0  0  0  0  0  0  0  0  0  0  0  0
    3.3050   65.7700   70.0559 H   0  0  0  0  0  0  0  0  0  0  0  0
    4.1458   63.4818   70.5640 H   0  0  0  0  0  0  0  0  0  0  0  0
    0.0852   62.0801   71.0093 H   0  0  0  0  0  0  0  0  0  0  0  0
   -0.7644   64.3622   70.4898 H   0  0  0  0  0  0  0  0  0  0  0  0
   -0.1388   66.8326   70.5266 H   0  0  0  0  0  0  0  0  0  0  0  0
    1.5384   67.2894   69.9704 H   0  0  0  0  0  0  0  0  0  0  0  0
    0.5086   65.7940   67.9938 H   0  0  0  0  0  0  0  0  0  0  0  0
    1.6137   68.4684   69.5062 H   0  0  0  0  0  0  0  0  0  0  0  0
    2.8560   68.4480   68.2089 H   0  0  0  0  0  0  0  0  0  0  0  0
    1.5780   69.7103   68.2089 H   0  0  0  0  0  0  0  0  0  0  0  0
    0.1450   68.3775   67.1143 H   0  0  0  0  0  0  0  0  0  0  0  0
    1.5544   67.2492   66.8682 H   0  0  0  0  0  0  0  0  0  0  0  0
   -1.6913   65.7165   68.2944 H   0  0  0  0  0  0  0  0  0  0  0  0
   -1.6920   67.2987   69.1642 H   0  0  0  0  0  0  0  0  0  0  0  0
   -2.2410   68.3758   67.2798 H   0  0  0  0  0  0  0  0  0  0  0  0
   -0.8068   67.6953   66.4393 H   0  0  0  0  0  0  0  0  0  0  0  0
   -2.3599   66.7928   66.4393 H   0  0  0  0  0  0  0  0  0  0  0  0
   -2.7541   57.4723   76.5711 H   0  0  0  0  0  0  0  0  0  0  0  0
   -2.4385   58.3141   75.0159 H   0  0  0  0  0  0  0  0  0  0  0  0
   -3.1422   56.6614   75.0159 H   0  0  0  0  0  0  0  0  0  0  0  0
    2.1384   53.6244   74.9816 H   0  0  0  0  0  0  0  0  0  0  0  0
    0.9839   53.6921   73.6071 H   0  0  0  0  0  0  0  0  0  0  0  0
    2.4428   54.7401   73.6071 H   0  0  0  0  0  0  0  0  0  0  0  0
  2  1  2  0
  3  2  1  0
  4  3  1  0
  5  4  2  0
  6  5  1  0
  6  2  1  0
  7  6  2  0
  8  5  1  0
  9  8  2  0
 10  9  1  0
 11 10  2  0
 11  4  1  0
 13 12  2  0
 14 13  1  0
 15 14  2  0
 15  1  1  0
 16 15  1  0
 17 16  2  0
 17 12  1  0
 18 12  1  0
 19 18  1  0
 21 20  1  0
 21 19  1  0
 22 19  1  0
 23 22  1  0
 24 10  1  0
 25 24  1  0
 26  9  1  0
 27 26  1  0
  1 28  1  0
  3 29  1  0
  3 30  1  0
  8 31  1  0
 11 32  1  0
 13 33  1  0
 14 34  1  0
 16 35  1  0
 17 36  1  0
 18 37  1  0
 18 38  1  0
 19 39  1  0
 20 40  1  0
 20 41  1  0
 20 42  1  0
 21 43  1  0
 21 44  1  0
 22 45  1  0
 22 46  1  0
 23 47  1  0
 23 48  1  0
 23 49  1  0
 25 50  1  0
 25 51  1  0
 25 52  1  0
 27 53  1  0
 27 54  1  0
 27 55  1  0
M  CHG  1  19   1
M  END
>  <score>  (5) 
-7.868

$$$$
=
     RDKit          3D

 55 57  0  0  0  0  0  0  0  0999 V2000
   -0.7340   59.0410   74.0100 C   0  0  0  0  0  0  0  0  0  0  0  0
   -0.0710   59.9230   73.2500 C   0  0  0  0  0  0  0  0  0  0  0  0
    1.3240   59.8820   72.6780 C   0  0  0  0  0  0  0  0  0  0  0  0
    1.4550   61.2010   71.9740 C   0  0  0  0  0  0  0  0  0  0  0  0
    0.2930   61.9610   72.0800 C   0  0  0  0  0  0  0  0  0  0  0  0
   -0.7010   61.2230   72.8630 C   0  0  0  0  0  0  0  0  0  0  0  0
   -1.8210   61.6000   73.1410 O   0  0  0  0  0  0  0  0  0  0  0  0
    0.1580   63.2160   71.5140 C   0  0  0  0  0  0  0  0  0  0  0  0
    1.2500   63.7270   70.8060 C   0  0  0  0  0  0  0  0  0  0  0  0
    2.4480   62.9650   70.6860 C   0  0  0  0  0  0  0  0  0  0  0  0
    2.5460   61.6950   71.2750 C   0  0  0  0  0  0  0  0  0  0  0  0
    0.9310   55.2920   75.2220 C   0  0  0  0  0  0  0  0  0  0  0  0
    0.3390   55.4430   73.9600 C   0  0  0  0  0  0  0  0  0  0  0  0
   -0.2080   56.6690   73.5760 C   0  0  0  0  0  0  0  0  0  0  0  0
   -0.1840   57.7600   74.4480 C   0  0  0  0  0  0  0  0  0  0  0  0
    0.3960   57.6130   75.7110 C   0  0  0  0  0  0  0  0  0  0  0  0
    0.9480   56.3890   76.0980 C   0  0  0  0  0  0  0  0  0  0  0  0
    1.5670   53.9860   75.6210 C   0  0  0  0  0  0  0  0  0  0  0  0
    0.5590   52.9300   76.0390 N   0  0  0  0  0  4  0  0  0  0  0  0
    0.4690   53.4150   78.5200 C   0  0  0  0  0  0  0  0  0  0  0  0
    0.7650   52.3890   77.4430 C   0  0  0  0  0  0  0  0  0  0  0  0
    0.3850   51.8350   75.0080 C   0  0  0  0  0  0  0  0  0  0  0  0
   -0.9740   51.9380   74.3400 C   0  0  0  0  0  0  0  0  0  0  0  0
    3.4580   63.5600   69.9690 O   0  0  0  0  0  0  0  0  0  0  0  0
    4.7940   63.3620   70.4080 C   0  0  0  0  0  0  0  0  0  0  0  0
    1.2610   64.9550   70.1910 O   0  0  0  0  0  0  0  0  0  0  0  0
    0.2990   65.9130   70.6090 C   0  0  0  0  0  0  0  0  0  0  0  0
   -1.7566   59.2973   74.3240 H   0  0  0  0  0  0  0  0  0  0  0  0
    2.0737   59.7872   73.4773 H   0  0  0  0  0  0  0  0  0  0  0  0
    1.4875   59.0230   72.0107 H   0  0  0  0  0  0  0  0  0  0  0  0
   -0.7742   63.7908   71.6172 H   0  0  0  0  0  0  0  0  0  0  0  0
    3.4691   61.1037   71.1841 H   0  0  0  0  0  0  0  0  0  0  0  0
    0.3052   54.5892   73.2672 H   0  0  0  0  0  0  0  0  0  0  0  0
   -0.6612   56.7765   72.5795 H   0  0  0  0  0  0  0  0  0  0  0  0
    0.4181   58.4663   76.4049 H   0  0  0  0  0  0  0  0  0  0  0  0
    1.3989   56.2843   77.0958 H   0  0  0  0  0  0  0  0  0  0  0  0
    2.1410   53.6013   74.7651 H   0  0  0  0  0  0  0  0  0  0  0  0
    2.2073   54.1882   76.4923 H   0  0  0  0  0  0  0  0  0  0  0  0
   -0.3385   53.4336   76.0806 H   0  0  0  0  0  0  0  0  0  0  0  0
    0.6016   52.9554   79.5106 H   0  0  0  0  0  0  0  0  0  0  0  0
    1.1583   54.2658   78.4153 H   0  0  0  0  0  0  0  0  0  0  0  0
   -0.5676   53.7679   78.4153 H   0  0  0  0  0  0  0  0  0  0  0  0
    1.8114   52.0655   77.5445 H   0  0  0  0  0  0  0  0  0  0  0  0
    0.0631   51.5534   77.5811 H   0  0  0  0  0  0  0  0  0  0  0  0
    1.1709   51.9300   74.2442 H   0  0  0  0  0  0  0  0  0  0  0  0
    0.4583   50.8600   75.5119 H   0  0  0  0  0  0  0  0  0  0  0  0
   -1.7574   51.9974   75.1099 H   0  0  0  0  0  0  0  0  0  0  0  0
   -1.0069   52.8412   73.7130 H   0  0  0  0  0  0  0  0  0  0  0  0
   -1.1426   51.0501   73.7130 H   0  0  0  0  0  0  0  0  0  0  0  0
    4.8218   63.3579   71.5076 H   0  0  0  0  0  0  0  0  0  0  0  0
    5.1658   62.3989   70.0282 H   0  0  0  0  0  0  0  0  0  0  0  0
    5.4292   64.1758   70.0282 H   0  0  0  0  0  0  0  0  0  0  0  0
    0.2669   65.9449   71.7081 H   0  0  0  0  0  0  0  0  0  0  0  0
    0.5763   66.9044   70.2213 H   0  0  0  0  0  0  0  0  0  0  0  0
   -0.6912   65.6315   70.2213 H   0  0  0  0  0  0  0  0  0  0  0  0
  2  1  2  0
  3  2  1  0
  4  3  1  0
  5  4  2  0
  6  5  1  0
  6  2  1  0
  7  6  2  0
  8  5  1  0
  9  8  2  0
 10  9  1  0
 11 10  2  0
 11  4  1  0
 13 12  2  0
 14 13  1  0
 15 14  2  0
 15  1  1  0
 16 15  1  0
 17 16  2  0
 17 12  1  0
 18 12  1  0
 19 18  1  0
 21 20  1  0
 21 19  1  0
 22 19  1  0
 23 22  1  0
 24 10  1  0
 25 24  1  0
 26  9  1  0
 27 26  1  0
  1 28  1  0
  3 29  1  0
  3 30  1  0
  8 31  1  0
 11 32  1  0
 13 33  1  0
 14 34  1  0
 16 35  1  0
 17 36  1  0
 18 37  1  0
 18 38  1  0
 19 39  1  0
 20 40  1  0
 20 41  1  0
 20 42  1  0
 21 43  1  0
 21 44  1  0
 22 45  1  0
 22 46  1  0
 23 47  1  0
 23 48  1  0
 23 49  1  0
 25 50  1  0
 25 51  1  0
 25 52  1  0
 27 53  1  0
 27 54  1  0
 27 55  1  0
M  CHG  1  19   1
M  END
>  <score>  (6) 
-7.443

$$$$
=
     RDKit          3D

 55 57  0  0  0  0  0  0  0  0999 V2000
   -3.4840   59.7040   74.8120 C   0  0  0  0  0  0  0  0  0  0  0  0
   -2.3090   59.9810   74.2310 C   0  0  0  0  0  0  0  0  0  0  0  0
   -1.8430   61.2030   73.4780 C   0  0  0  0  0  0  0  0  0  0  0  0
   -0.4500   60.8420   73.0510 C   0  0  0  0  0  0  0  0  0  0  0  0
   -0.0870   59.5710   73.4880 C   0  0  0  0  0  0  0  0  0  0  0  0
   -1.2000   58.9770   74.2340 C   0  0  0  0  0  0  0  0  0  0  0  0
   -1.2130   57.8790   74.7510 O   0  0  0  0  0  0  0  0  0  0  0  0
    1.1480   59.0080   73.2270 C   0  0  0  0  0  0  0  0  0  0  0  0
    2.0620   59.7660   72.4880 C   0  0  0  0  0  0  0  0  0  0  0  0
    1.7090   61.0680   72.0300 C   0  0  0  0  0  0  0  0  0  0  0  0
    0.4440   61.6050   72.3160 C   0  0  0  0  0  0  0  0  0  0  0  0
   -6.7640   62.4480   74.8510 C   0  0  0  0  0  0  0  0  0  0  0  0
   -5.5730   62.7400   75.5310 C   0  0  0  0  0  0  0  0  0  0  0  0
   -4.5100   61.8350   75.5180 C   0  0  0  0  0  0  0  0  0  0  0  0
   -4.6220   60.6190   74.8370 C   0  0  0  0  0  0  0  0  0  0  0  0
   -5.8100   60.3190   74.1650 C   0  0  0  0  0  0  0  0  0  0  0  0
   -6.8750   61.2240   74.1730 C   0  0  0  0  0  0  0  0  0  0  0  0
   -7.8940   63.4430   74.8200 C   0  0  0  0  0  0  0  0  0  0  0  0
   -7.8650   64.3480   73.6010 N   0  0  0  0  0  4  0  0  0  0  0  0
   -7.7320   66.1080   75.4140 C   0  0  0  0  0  0  0  0  0  0  0  0
   -7.7860   65.8300   73.9230 C   0  0  0  0  0  0  0  0  0  0  0  0
   -8.9490   64.0240   72.5940 C   0  0  0  0  0  0  0  0  0  0  0  0
   -8.8800   64.9710   71.4100 C   0  0  0  0  0  0  0  0  0  0  0  0
    2.6800   61.7250   71.3130 O   0  0  0  0  0  0  0  0  0  0  0  0
    2.4910   61.8720   69.9140 C   0  0  0  0  0  0  0  0  0  0  0  0
    3.3240   59.3380   72.1530 O   0  0  0  0  0  0  0  0  0  0  0  0
    3.4360   58.3090   71.1790 C   0  0  0  0  0  0  0  0  0  0  0  0
   -3.5989   58.7255   75.3012 H   0  0  0  0  0  0  0  0  0  0  0  0
   -2.4843   61.3952   72.6052 H   0  0  0  0  0  0  0  0  0  0  0  0
   -1.8809   62.1200   74.0844 H   0  0  0  0  0  0  0  0  0  0  0  0
    1.4028   58.0004   73.5874 H   0  0  0  0  0  0  0  0  0  0  0  0
    0.1679   62.6100   71.9643 H   0  0  0  0  0  0  0  0  0  0  0  0
   -5.4755   63.6890   76.0787 H   0  0  0  0  0  0  0  0  0  0  0  0
   -3.5775   62.0804   76.0474 H   0  0  0  0  0  0  0  0  0  0  0  0
   -5.9075   59.3648   73.6265 H   0  0  0  0  0  0  0  0  0  0  0  0
   -7.8069   60.9753   73.6442 H   0  0  0  0  0  0  0  0  0  0  0  0
   -8.8454   62.8909   74.8222 H   0  0  0  0  0  0  0  0  0  0  0  0
   -7.7857   64.0863   75.7057 H   0  0  0  0  0  0  0  0  0  0  0  0
   -6.9691   64.1302   73.1418 H   0  0  0  0  0  0  0  0  0  0  0  0
   -7.9132   65.1750   75.9677 H   0  0  0  0  0  0  0  0  0  0  0  0
   -6.7401   66.5040   75.6775 H   0  0  0  0  0  0  0  0  0  0  0  0
   -8.5035   66.8465   75.6775 H   0  0  0  0  0  0  0  0  0  0  0  0
   -8.6734   66.3279   73.5050 H   0  0  0  0  0  0  0  0  0  0  0  0
   -6.8549   66.2147   73.4814 H   0  0  0  0  0  0  0  0  0  0  0  0
   -8.8155   62.9914   72.2391 H   0  0  0  0  0  0  0  0  0  0  0  0
   -9.9292   64.1360   73.0804 H   0  0  0  0  0  0  0  0  0  0  0  0
   -8.8045   66.0067   71.7728 H   0  0  0  0  0  0  0  0  0  0  0  0
   -7.9970   64.7311   70.7995 H   0  0  0  0  0  0  0  0  0  0  0  0
   -9.7885   64.8616   70.7995 H   0  0  0  0  0  0  0  0  0  0  0  0
    1.6353   62.5376   69.7275 H   0  0  0  0  0  0  0  0  0  0  0  0
    3.3970   62.3051   69.4651 H   0  0  0  0  0  0  0  0  0  0  0  0
    2.2942   60.8872   69.4651 H   0  0  0  0  0  0  0  0  0  0  0  0
    3.5418   57.3370   71.6830 H   0  0  0  0  0  0  0  0  0  0  0  0
    2.5336   58.2996   70.5501 H   0  0  0  0  0  0  0  0  0  0  0  0
    4.3193   58.4940   70.5501 H   0  0  0  0  0  0  0  0  0  0  0  0
  2  1  2  0
  3  2  1  0
  4  3  1  0
  5  4  2  0
  6  5  1  0
  6  2  1  0
  7  6  2  0
  8  5  1  0
  9  8  2  0
 10  9  1  0
 11 10  2  0
 11  4  1  0
 13 12  2  0
 14 13  1  0
 15 14  2  0
 15  1  1  0
 16 15  1  0
 17 16  2  0
 17 12  1  0
 18 12  1  0
 19 18  1  0
 21 20  1  0
 21 19  1  0
 22 19  1  0
 23 22  1  0
 24 10  1  0
 25 24  1  0
 26  9  1  0
 27 26  1  0
  1 28  1  0
  3 29  1  0
  3 30  1  0
  8 31  1  0
 11 32  1  0
 13 33  1  0
 14 34  1  0
 16 35  1  0
 17 36  1  0
 18 37  1  0
 18 38  1  0
 19 39  1  0
 20 40  1  0
 20 41  1  0
 20 42  1  0
 21 43  1  0
 21 44  1  0
 22 45  1  0
 22 46  1  0
 23 47  1  0
 23 48  1  0
 23 49  1  0
 25 50  1  0
 25 51  1  0
 25 52  1  0
 27 53  1  0
 27 54  1  0
 27 55  1  0
M  CHG  1  19   1
M  END
>  <score>  (7) 
-7.159

$$$$
=
     RDKit          3D

 55 57  0  0  0  0  0  0  0  0999 V2000
   -2.0310   59.6740   74.5020 C   0  0  0  0  0  0  0  0  0  0  0  0
   -1.1520   60.3150   73.7200 C   0  0  0  0  0  0  0  0  0  0  0  0
   -1.2670   61.6160   72.9640 C   0  0  0  0  0  0  0  0  0  0  0  0
    0.0500   61.7260   72.2530 C   0  0  0  0  0  0  0  0  0  0  0  0
    0.8830   60.6460   72.5350 C   0  0  0  0  0  0  0  0  0  0  0  0
    0.1960   59.7280   73.4470 C   0  0  0  0  0  0  0  0  0  0  0  0
    0.6410   58.6900   73.8910 O   0  0  0  0  0  0  0  0  0  0  0  0
    2.1530   60.5150   72.0050 C   0  0  0  0  0  0  0  0  0  0  0  0
    2.6040   61.5230   71.1470 C   0  0  0  0  0  0  0  0  0  0  0  0
    1.7670   62.6350   70.8450 C   0  0  0  0  0  0  0  0  0  0  0  0
    0.4830   62.7330   71.4040 C   0  0  0  0  0  0  0  0  0  0  0  0
   -5.9660   61.0600   75.4460 C   0  0  0  0  0  0  0  0  0  0  0  0
   -5.7450   59.7300   75.0600 C   0  0  0  0  0  0  0  0  0  0  0  0
   -4.4570   59.2890   74.7470 C   0  0  0  0  0  0  0  0  0  0  0  0
   -3.3730   60.1690   74.8030 C   0  0  0  0  0  0  0  0  0  0  0  0
   -3.5890   61.4980   75.1790 C   0  0  0  0  0  0  0  0  0  0  0  0
   -4.8760   61.9430   75.4960 C   0  0  0  0  0  0  0  0  0  0  0  0
   -7.3450   61.5270   75.8330 C   0  0  0  0  0  0  0  0  0  0  0  0
   -8.4450   60.9330   74.9710 N   0  0  0  0  0  4  0  0  0  0  0  0
   -8.1670   63.0650   73.6360 C   0  0  0  0  0  0  0  0  0  0  0  0
   -8.6250   61.6180   73.6270 C   0  0  0  0  0  0  0  0  0  0  0  0
   -9.7510   60.7520   75.7150 C   0  0  0  0  0  0  0  0  0  0  0  0
  -10.0830   61.9930   76.5240 C   0  0  0  0  0  0  0  0  0  0  0  0
    2.3080   63.5680   69.9930 O   0  0  0  0  0  0  0  0  0  0  0  0
    2.0570   64.9400   70.2590 C   0  0  0  0  0  0  0  0  0  0  0  0
    3.8400   61.5270   70.5480 O   0  0  0  0  0  0  0  0  0  0  0  0
    4.9750   61.7490   71.3740 C   0  0  0  0  0  0  0  0  0  0  0  0
   -1.7236   58.7153   74.9452 H   0  0  0  0  0  0  0  0  0  0  0  0
   -2.0997   61.5812   72.2460 H   0  0  0  0  0  0  0  0  0  0  0  0
   -1.4731   62.4753   73.6191 H   0  0  0  0  0  0  0  0  0  0  0  0
    2.7860   59.6492   72.2493 H   0  0  0  0  0  0  0  0  0  0  0  0
   -0.1659   63.5907   71.1733 H   0  0  0  0  0  0  0  0  0  0  0  0
   -6.5913   59.0296   75.0033 H   0  0  0  0  0  0  0  0  0  0  0  0
   -4.2949   58.2411   74.4543 H   0  0  0  0  0  0  0  0  0  0  0  0
   -2.7415   62.1977   75.2257 H   0  0  0  0  0  0  0  0  0  0  0  0
   -5.0354   62.9919   75.7865 H   0  0  0  0  0  0  0  0  0  0  0  0
   -7.5292   61.2419   76.8793 H   0  0  0  0  0  0  0  0  0  0  0  0
   -7.3717   62.6172   75.6892 H   0  0  0  0  0  0  0  0  0  0  0  0
   -8.1087   59.9866   74.7425 H   0  0  0  0  0  0  0  0  0  0  0  0
   -8.0582   63.4087   74.6752 H   0  0  0  0  0  0  0  0  0  0  0  0
   -7.1992   63.1465   73.1196 H   0  0  0  0  0  0  0  0  0  0  0  0
   -8.9117   63.6885   73.1196 H   0  0  0  0  0  0  0  0  0  0  0  0
   -9.6912   61.5889   73.3582 H   0  0  0  0  0  0  0  0  0  0  0  0
   -8.0039   61.0795   72.8960 H   0  0  0  0  0  0  0  0  0  0  0  0
  -10.5572   60.5670   74.9899 H   0  0  0  0  0  0  0  0  0  0  0  0
   -9.6522   59.8980   76.4012 H   0  0  0  0  0  0  0  0  0  0  0  0
  -10.0204   61.7588   77.5970 H   0  0  0  0  0  0  0  0  0  0  0  0
   -9.3670   62.7918   76.2806 H   0  0  0  0  0  0  0  0  0  0  0  0
  -11.1022   62.3276   76.2806 H   0  0  0  0  0  0  0  0  0  0  0  0
    2.0271   65.1032   71.3464 H   0  0  0  0  0  0  0  0  0  0  0  0
    2.8582   65.5515   69.8183 H   0  0  0  0  0  0  0  0  0  0  0  0
    1.0912   65.2282   69.8183 H   0  0  0  0  0  0  0  0  0  0  0  0
    4.6763   61.6906   72.4310 H   0  0  0  0  0  0  0  0  0  0  0  0
    5.7360   60.9827   71.1651 H   0  0  0  0  0  0  0  0  0  0  0  0
    5.3912   62.7456   71.1651 H   0  0  0  0  0  0  0  0  0  0  0  0
  2  1  2  0
  3  2  1  0
  4  3  1  0
  5  4  2  0
  6  5  1  0
  6  2  1  0
  7  6  2  0
  8  5  1  0
  9  8  2  0
 10  9  1  0
 11 10  2  0
 11  4  1  0
 13 12  2  0
 14 13  1  0
 15 14  2  0
 15  1  1  0
 16 15  1  0
 17 16  2  0
 17 12  1  0
 18 12  1  0
 19 18  1  0
 21 20  1  0
 21 19  1  0
 22 19  1  0
 23 22  1  0
 24 10  1  0
 25 24  1  0
 26  9  1  0
 27 26  1  0
  1 28  1  0
  3 29  1  0
  3 30  1  0
  8 31  1  0
 11 32  1  0
 13 33  1  0
 14 34  1  0
 16 35  1  0
 17 36  1  0
 18 37  1  0
 18 38  1  0
 19 39  1  0
 20 40  1  0
 20 41  1  0
 20 42  1  0
 21 43  1  0
 21 44  1  0
 22 45  1  0
 22 46  1  0
 23 47  1  0
 23 48  1  0
 23 49  1  0
 25 50  1  0
 25 51  1  0
 25 52  1  0
 27 53  1  0
 27 54  1  0
 27 55  1  0
M  CHG  1  19   1
M  END
>  <score>  (8) 
-6.87

$$$$
=
     RDKit          3D

 55 57  0  0  0  0  0  0  0  0999 V2000
   -1.3590   59.1500   74.4370 C   0  0  0  0  0  0  0  0  0  0  0  0
   -2.6670   59.3630   74.6340 C   0  0  0  0  0  0  0  0  0  0  0  0
   -3.5790   60.4500   74.1210 C   0  0  0  0  0  0  0  0  0  0  0  0
   -4.9000   60.1290   74.7580 C   0  0  0  0  0  0  0  0  0  0  0  0
   -4.8280   58.9880   75.5520 C   0  0  0  0  0  0  0  0  0  0  0  0
   -3.4630   58.4570   75.5180 C   0  0  0  0  0  0  0  0  0  0  0  0
   -3.0610   57.4700   76.1000 O   0  0  0  0  0  0  0  0  0  0  0  0
   -5.9130   58.4810   76.2430 C   0  0  0  0  0  0  0  0  0  0  0  0
   -7.1290   59.1600   76.1280 C   0  0  0  0  0  0  0  0  0  0  0  0
   -7.2230   60.3300   75.3210 C   0  0  0  0  0  0  0  0  0  0  0  0
   -6.0990   60.8140   74.6340 C   0  0  0  0  0  0  0  0  0  0  0  0
    1.1280   61.6960   72.0640 C   0  0  0  0  0  0  0  0  0  0  0  0
   -0.1660   62.0920   72.4300 C   0  0  0  0  0  0  0  0  0  0  0  0
   -0.9730   61.2510   73.1990 C   0  0  0  0  0  0  0  0  0  0  0  0
   -0.5070   59.9980   73.6050 C   0  0  0  0  0  0  0  0  0  0  0  0
    0.7790   59.5940   73.2360 C   0  0  0  0  0  0  0  0  0  0  0  0
    1.5920   60.4350   72.4690 C   0  0  0  0  0  0  0  0  0  0  0  0
    2.0200   62.6210   71.2780 C   0  0  0  0  0  0  0  0  0  0  0  0
    3.1500   61.9010   70.5630 N   0  0  0  0  0  4  0  0  0  0  0  0
    5.4560   61.2360   71.3650 C   0  0  0  0  0  0  0  0  0  0  0  0
    4.5400   62.3740   70.9530 C   0  0  0  0  0  0  0  0  0  0  0  0
    2.9550   61.8320   69.0630 C   0  0  0  0  0  0  0  0  0  0  0  0
    3.7480   62.9240   68.3690 C   0  0  0  0  0  0  0  0  0  0  0  0
   -8.4640   60.9200   75.2770 O   0  0  0  0  0  0  0  0  0  0  0  0
   -8.5660   62.2890   75.6410 C   0  0  0  0  0  0  0  0  0  0  0  0
   -8.2890   58.7740   76.7550 O   0  0  0  0  0  0  0  0  0  0  0  0
   -8.4600   57.3920   77.0360 C   0  0  0  0  0  0  0  0  0  0  0  0
   -0.8974   58.2830   74.9322 H   0  0  0  0  0  0  0  0  0  0  0  0
   -3.2225   61.4425   74.4339 H   0  0  0  0  0  0  0  0  0  0  0  0
   -3.6299   60.4835   73.0227 H   0  0  0  0  0  0  0  0  0  0  0  0
   -5.8223   57.5756   76.8611 H   0  0  0  0  0  0  0  0  0  0  0  0
   -6.1678   61.7176   74.0104 H   0  0  0  0  0  0  0  0  0  0  0  0
   -0.5484   63.0722   72.1091 H   0  0  0  0  0  0  0  0  0  0  0  0
   -1.9831   61.5774   73.4873 H   0  0  0  0  0  0  0  0  0  0  0  0
    1.1540   58.6089   73.5506 H   0  0  0  0  0  0  0  0  0  0  0  0
    2.6015   60.1059   72.1815 H   0  0  0  0  0  0  0  0  0  0  0  0
    1.4078   63.1423   70.5274 H   0  0  0  0  0  0  0  0  0  0  0  0
    2.4792   63.3180   71.9945 H   0  0  0  0  0  0  0  0  0  0  0  0
    3.0948   60.9319   70.9076 H   0  0  0  0  0  0  0  0  0  0  0  0
    5.5008   61.1804   72.4627 H   0  0  0  0  0  0  0  0  0  0  0  0
    5.0659   60.2883   70.9655 H   0  0  0  0  0  0  0  0  0  0  0  0
    6.4652   61.4146   70.9655 H   0  0  0  0  0  0  0  0  0  0  0  0
    4.4489   63.0744   71.7963 H   0  0  0  0  0  0  0  0  0  0  0  0
    4.9859   62.8539   70.0694 H   0  0  0  0  0  0  0  0  0  0  0  0
    3.2956   60.8514   68.6992 H   0  0  0  0  0  0  0  0  0  0  0  0
    1.8874   61.9723   68.8380 H   0  0  0  0  0  0  0  0  0  0  0  0
    4.2183   63.5716   69.1236 H   0  0  0  0  0  0  0  0  0  0  0  0
    4.5270   62.4682   67.7402 H   0  0  0  0  0  0  0  0  0  0  0  0
    3.0735   63.5237   67.7402 H   0  0  0  0  0  0  0  0  0  0  0  0
   -8.5726   62.3774   76.7374 H   0  0  0  0  0  0  0  0  0  0  0  0
   -7.7065   62.8417   75.2338 H   0  0  0  0  0  0  0  0  0  0  0  0
   -9.4979   62.7082   75.2338 H   0  0  0  0  0  0  0  0  0  0  0  0
   -8.4789   57.2389   78.1251 H   0  0  0  0  0  0  0  0  0  0  0  0
   -9.4081   57.0438   76.6002 H   0  0  0  0  0  0  0  0  0  0  0  0
   -7.6254   56.8232   76.6002 H   0  0  0  0  0  0  0  0  0  0  0  0
  2  1  2  0
  3  2  1  0
  4  3  1  0
  5  4  2  0
  6  5  1  0
  6  2  1  0
  7  6  2  0
  8  5  1  0
  9  8  2  0
 10  9  1  0
 11 10  2  0
 11  4  1  0
 13 12  2  0
 14 13  1  0
 15 14  2  0
 15  1  1  0
 16 15  1  0
 17 16  2  0
 17 12  1  0
 18 12  1  0
 19 18  1  0
 21 20  1  0
 21 19  1  0
 22 19  1  0
 23 22  1  0
 24 10  1  0
 25 24  1  0
 26  9  1  0
 27 26  1  0
  1 28  1  0
  3 29  1  0
  3 30  1  0
  8 31  1  0
 11 32  1  0
 13 33  1  0
 14 34  1  0
 16 35  1  0
 17 36  1  0
 18 37  1  0
 18 38  1  0
 19 39  1  0
 20 40  1  0
 20 41  1  0
 20 42  1  0
 21 43  1  0
 21 44  1  0
 22 45  1  0
 22 46  1  0
 23 47  1  0
 23 48  1  0
 23 49  1  0
 25 50  1  0
 25 51  1  0
 25 52  1  0
 27 53  1  0
 27 54  1  0
 27 55  1  0
M  CHG  1  19   1
M  END
>  <score>  (9) 
-6.752

$$$$
