=
     RDKit          3D

 37 39  0  0  0  0  0  0  0  0999 V2000
    0.2390   56.4240   74.1460 C   0  0  0  0  0  0  0  0  0  0  0  0
   -0.3750   57.6360   74.4680 C   0  0  0  0  0  0  0  0  0  0  0  0
    0.0770   58.8290   73.8940 C   0  0  0  0  0  0  0  0  0  0  0  0
    1.1460   58.8100   72.9940 C   0  0  0  0  0  0  0  0  0  0  0  0
    1.7580   57.6060   72.6670 C   0  0  0  0  0  0  0  0  0  0  0  0
    1.3050   56.4170   73.2390 C   0  0  0  0  0  0  0  0  0  0  0  0
    2.8080   57.5220   71.7890 O   0  0  0  0  0  0  0  0  0  0  0  0
    3.2610   58.6900   71.2240 C   0  0  0  0  0  0  0  0  0  0  0  0
    2.7890   59.9280   71.4420 C   0  0  0  0  0  0  0  0  0  0  0  0
    1.6380   60.0570   72.3800 C   0  0  0  0  0  0  0  0  0  0  0  0
    1.1090   61.1300   72.6450 O   0  0  0  0  0  0  0  0  0  0  0  0
    3.3790   61.0880   70.7460 C   0  0  0  0  0  0  0  0  0  0  0  0
    4.3350   61.8910   71.3840 C   0  0  0  0  0  0  0  0  0  0  0  0
    4.8900   62.9950   70.7330 C   0  0  0  0  0  0  0  0  0  0  0  0
    4.4980   63.3090   69.4330 C   0  0  0  0  0  0  0  0  0  0  0  0
    3.5560   62.5170   68.7830 C   0  0  0  0  0  0  0  0  0  0  0  0
    3.0000   61.4120   69.4330 C   0  0  0  0  0  0  0  0  0  0  0  0
   -0.0990   55.1890   74.6230 O   0  0  0  0  0  0  0  0  0  0  0  0
    1.5230   53.8280   75.7980 C   0  0  0  0  0  0  0  0  0  0  0  0
    0.8200   54.1020   74.4720 C   0  0  0  0  0  0  0  0  0  0  0  0
   -0.0050   52.8860   74.0580 C   0  0  0  0  0  0  0  0  0  0  0  0
   -1.2171   57.6528   75.1755 H   0  0  0  0  0  0  0  0  0  0  0  0
   -0.4089   59.7818   74.1510 H   0  0  0  0  0  0  0  0  0  0  0  0
    1.7898   55.4656   72.9749 H   0  0  0  0  0  0  0  0  0  0  0  0
    4.0997   58.6012   70.5178 H   0  0  0  0  0  0  0  0  0  0  0  0
    4.6516   61.6487   72.4092 H   0  0  0  0  0  0  0  0  0  0  0  0
    5.6374   63.6174   71.2469 H   0  0  0  0  0  0  0  0  0  0  0  0
    4.9321   64.1809   68.9218 H   0  0  0  0  0  0  0  0  0  0  0  0
    3.2485   62.7614   67.7555 H   0  0  0  0  0  0  0  0  0  0  0  0
    2.2581   60.7897   68.9111 H   0  0  0  0  0  0  0  0  0  0  0  0
    0.8521   54.0895   76.6296 H   0  0  0  0  0  0  0  0  0  0  0  0
    1.7857   52.7616   75.8602 H   0  0  0  0  0  0  0  0  0  0  0  0
    2.4380   54.4353   75.8602 H   0  0  0  0  0  0  0  0  0  0  0  0
    1.5901   54.3333   73.7213 H   0  0  0  0  0  0  0  0  0  0  0  0
   -0.3610   52.3612   74.9568 H   0  0  0  0  0  0  0  0  0  0  0  0
   -0.8674   53.2146   73.4595 H   0  0  0  0  0  0  0  0  0  0  0  0
    0.6190   52.2061   73.4595 H   0  0  0  0  0  0  0  0  0  0  0  0
  2  1  2  0
  3  2  1  0
  4  3  2  0
  5  4  1  0
  6  5  2  0
  6  1  1  0
  7  5  1  0
  8  7  1  0
  9  8  2  0
 10  9  1  0
 10  4  1  0
 11 10  2  0
 12  9  1  0
 13 12  2  0
 14 13  1  0
 15 14  2  0
 16 15  1  0
 17 16  2  0
 17 12  1  0
 18  1  1  0
 20 19  1  0
 20 18  1  0
 21 20  1  0
  2 22  1  0
  3 23  1  0
  6 24  1  0
  8 25  1  0
 13 26  1  0
 14 27  1  0
 15 28  1  0
 16 29  1  0
 17 30  1  0
 19 31  1  0
 19 32  1  0
 19 33  1  0
 20 34  1  0
 21 35  1  0
 21 36  1  0
 21 37  1  0
M  END
>  <score>  (1) 
-7.908

$$$$
=
     RDKit          3D

 37 39  0  0  0  0  0  0  0  0999 V2000
   -2.5380   59.7390   74.6680 C   0  0  0  0  0  0  0  0  0  0  0  0
   -1.5320   58.7730   74.6000 C   0  0  0  0  0  0  0  0  0  0  0  0
   -0.3650   59.0220   73.8690 C   0  0  0  0  0  0  0  0  0  0  0  0
   -0.2050   60.2410   73.2050 C   0  0  0  0  0  0  0  0  0  0  0  0
   -1.2020   61.2070   73.2730 C   0  0  0  0  0  0  0  0  0  0  0  0
   -2.3630   60.9580   74.0040 C   0  0  0  0  0  0  0  0  0  0  0  0
   -1.1010   62.4230   72.6470 O   0  0  0  0  0  0  0  0  0  0  0  0
    0.0390   62.6740   71.9220 C   0  0  0  0  0  0  0  0  0  0  0  0
    1.0840   61.8480   71.7490 C   0  0  0  0  0  0  0  0  0  0  0  0
    1.0170   60.5230   72.4280 C   0  0  0  0  0  0  0  0  0  0  0  0
    1.9140   59.6910   72.3600 O   0  0  0  0  0  0  0  0  0  0  0  0
    2.2490   62.2700   70.9470 C   0  0  0  0  0  0  0  0  0  0  0  0
    2.2540   62.1010   69.5560 C   0  0  0  0  0  0  0  0  0  0  0  0
    3.3570   62.4920   68.7930 C   0  0  0  0  0  0  0  0  0  0  0  0
    4.4690   63.0590   69.4120 C   0  0  0  0  0  0  0  0  0  0  0  0
    4.4760   63.2420   70.7920 C   0  0  0  0  0  0  0  0  0  0  0  0
    3.3730   62.8520   71.5560 C   0  0  0  0  0  0  0  0  0  0  0  0
   -3.7200   59.6340   75.3450 O   0  0  0  0  0  0  0  0  0  0  0  0
   -5.4270   57.9280   75.5580 C   0  0  0  0  0  0  0  0  0  0  0  0
   -4.8530   59.0480   74.6950 C   0  0  0  0  0  0  0  0  0  0  0  0
   -5.8860   60.1600   74.5300 C   0  0  0  0  0  0  0  0  0  0  0  0
   -1.6572   57.8133   75.1227 H   0  0  0  0  0  0  0  0  0  0  0  0
    0.4256   58.2589   73.8172 H   0  0  0  0  0  0  0  0  0  0  0  0
   -3.1480   61.7266   74.0591 H   0  0  0  0  0  0  0  0  0  0  0  0
    0.1026   63.6562   71.4309 H   0  0  0  0  0  0  0  0  0  0  0  0
    1.3796   61.6554   69.0592 H   0  0  0  0  0  0  0  0  0  0  0  0
    3.3475   62.3520   67.7020 H   0  0  0  0  0  0  0  0  0  0  0  0
    5.3396   63.3614   68.8115 H   0  0  0  0  0  0  0  0  0  0  0  0
    5.3511   63.6942   71.2817 H   0  0  0  0  0  0  0  0  0  0  0  0
    3.3850   63.0023   72.6456 H   0  0  0  0  0  0  0  0  0  0  0  0
   -5.2974   58.1808   76.6207 H   0  0  0  0  0  0  0  0  0  0  0  0
   -6.4980   57.8075   75.3377 H   0  0  0  0  0  0  0  0  0  0  0  0
   -4.8994   56.9883   75.3377 H   0  0  0  0  0  0  0  0  0  0  0  0
   -4.5740   58.6171   73.7221 H   0  0  0  0  0  0  0  0  0  0  0  0
   -6.2104   60.5092   75.5214 H   0  0  0  0  0  0  0  0  0  0  0  0
   -5.4379   60.9973   73.9749 H   0  0  0  0  0  0  0  0  0  0  0  0
   -6.7540   59.7747   73.9749 H   0  0  0  0  0  0  0  0  0  0  0  0
  2  1  2  0
  3  2  1  0
  4  3  2  0
  5  4  1  0
  6  5  2  0
  6  1  1  0
  7  5  1  0
  8  7  1  0
  9  8  2  0
 10  9  1  0
 10  4  1  0
 11 10  2  0
 12  9  1  0
 13 12  2  0
 14 13  1  0
 15 14  2  0
 16 15  1  0
 17 16  2  0
 17 12  1  0
 18  1  1  0
 20 19  1  0
 20 18  1  0
 21 20  1  0
  2 22  1  0
  3 23  1  0
  6 24  1  0
  8 25  1  0
 13 26  1  0
 14 27  1  0
 15 28  1  0
 16 29  1  0
 17 30  1  0
 19 31  1  0
 19 32  1  0
 19 33  1  0
 20 34  1  0
 21 35  1  0
 21 36  1  0
 21 37  1  0
M  END
>  <score>  (2) 
-7.69

$$$$
=
     RDKit          3D

 37 39  0  0  0  0  0  0  0  0999 V2000
    2.7720   61.3880   73.5510 C   0  0  0  0  0  0  0  0  0  0  0  0
    3.5660   61.3520   72.4030 C   0  0  0  0  0  0  0  0  0  0  0  0
    3.3370   62.2550   71.3600 C   0  0  0  0  0  0  0  0  0  0  0  0
    2.3100   63.1980   71.4650 C   0  0  0  0  0  0  0  0  0  0  0  0
    1.5200   63.2400   72.6070 C   0  0  0  0  0  0  0  0  0  0  0  0
    1.7510   62.3400   73.6480 C   0  0  0  0  0  0  0  0  0  0  0  0
    0.5010   64.1430   72.7720 O   0  0  0  0  0  0  0  0  0  0  0  0
    0.2650   65.0310   71.7500 C   0  0  0  0  0  0  0  0  0  0  0  0
    0.9270   65.1140   70.5840 C   0  0  0  0  0  0  0  0  0  0  0  0
    2.0510   64.1580   70.3760 C   0  0  0  0  0  0  0  0  0  0  0  0
    2.7400   64.1470   69.3630 O   0  0  0  0  0  0  0  0  0  0  0  0
    0.5600   66.1370   69.5850 C   0  0  0  0  0  0  0  0  0  0  0  0
    1.4580   67.1590   69.2500 C   0  0  0  0  0  0  0  0  0  0  0  0
    1.1130   68.1340   68.3120 C   0  0  0  0  0  0  0  0  0  0  0  0
   -0.1350   68.0980   67.6940 C   0  0  0  0  0  0  0  0  0  0  0  0
   -1.0360   67.0840   68.0090 C   0  0  0  0  0  0  0  0  0  0  0  0
   -0.6910   66.1080   68.9480 C   0  0  0  0  0  0  0  0  0  0  0  0
    2.8860   60.5750   74.6430 O   0  0  0  0  0  0  0  0  0  0  0  0
    3.7050   58.5880   75.7610 C   0  0  0  0  0  0  0  0  0  0  0  0
    3.1810   59.1870   74.4580 C   0  0  0  0  0  0  0  0  0  0  0  0
    1.8710   58.5100   74.0620 C   0  0  0  0  0  0  0  0  0  0  0  0
    4.3744   60.6108   72.3187 H   0  0  0  0  0  0  0  0  0  0  0  0
    3.9647   62.2234   70.4572 H   0  0  0  0  0  0  0  0  0  0  0  0
    1.1256   62.3792   74.5520 H   0  0  0  0  0  0  0  0  0  0  0  0
   -0.5530   65.7503   71.9030 H   0  0  0  0  0  0  0  0  0  0  0  0
    2.4464   67.1936   69.7316 H   0  0  0  0  0  0  0  0  0  0  0  0
    1.8276   68.9316   68.0607 H   0  0  0  0  0  0  0  0  0  0  0  0
   -0.4082   68.8691   66.9586 H   0  0  0  0  0  0  0  0  0  0  0  0
   -2.0200   67.0512   67.5184 H   0  0  0  0  0  0  0  0  0  0  0  0
   -1.4069   65.3088   69.1905 H   0  0  0  0  0  0  0  0  0  0  0  0
    3.2481   59.1103   76.6145 H   0  0  0  0  0  0  0  0  0  0  0  0
    3.4462   57.5197   75.8036 H   0  0  0  0  0  0  0  0  0  0  0  0
    4.7982   58.7024   75.8036 H   0  0  0  0  0  0  0  0  0  0  0  0
    3.9509   59.0437   73.6855 H   0  0  0  0  0  0  0  0  0  0  0  0
    1.3175   58.2239   74.9685 H   0  0  0  0  0  0  0  0  0  0  0  0
    1.2635   59.2071   73.4661 H   0  0  0  0  0  0  0  0  0  0  0  0
    2.0882   57.6113   73.4661 H   0  0  0  0  0  0  0  0  0  0  0  0
  2  1  2  0
  3  2  1  0
  4  3  2  0
  5  4  1  0
  6  5  2  0
  6  1  1  0
  7  5  1  0
  8  7  1  0
  9  8  2  0
 10  9  1  0
 10  4  1  0
 11 10  2  0
 12  9  1  0
 13 12  2  0
 14 13  1  0
 15 14  2  0
 16 15  1  0
 17 16  2  0
 17 12  1  0
 18  1  1  0
 20 19  1  0
 20 18  1  0
 21 20  1  0
  2 22  1  0
  3 23  1  0
  6 24  1  0
  8 25  1  0
 13 26  1  0
 14 27  1  0
 15 28  1  0
 16 29  1  0
 17 30  1  0
 19 31  1  0
 19 32  1  0
 19 33  1  0
 20 34  1  0
 21 35  1  0
 21 36  1  0
 21 37  1  0
M  END
>  <score>  (3) 
-7.406

$$$$
=
     RDKit          3D

 37 39  0  0  0  0  0  0  0  0999 V2000
   -0.2360   56.6600   74.4770 C   0  0  0  0  0  0  0  0  0  0  0  0
    0.8890   56.0430   73.9270 C   0  0  0  0  0  0  0  0  0  0  0  0
    1.7840   56.7790   73.1430 C   0  0  0  0  0  0  0  0  0  0  0  0
    1.5530   58.1370   72.9090 C   0  0  0  0  0  0  0  0  0  0  0  0
    0.4370   58.7570   73.4570 C   0  0  0  0  0  0  0  0  0  0  0  0
   -0.4530   58.0220   74.2410 C   0  0  0  0  0  0  0  0  0  0  0  0
    0.1580   60.0860   73.2670 O   0  0  0  0  0  0  0  0  0  0  0  0
    1.0280   60.8160   72.4940 C   0  0  0  0  0  0  0  0  0  0  0  0
    2.1400   60.3670   71.8870 C   0  0  0  0  0  0  0  0  0  0  0  0
    2.4830   58.9300   72.0840 C   0  0  0  0  0  0  0  0  0  0  0  0
    3.4790   58.4090   71.5970 O   0  0  0  0  0  0  0  0  0  0  0  0
    2.9830   61.2840   71.0960 C   0  0  0  0  0  0  0  0  0  0  0  0
    4.1100   61.8880   71.6690 C   0  0  0  0  0  0  0  0  0  0  0  0
    4.9070   62.7630   70.9270 C   0  0  0  0  0  0  0  0  0  0  0  0
    4.5890   63.0420   69.6000 C   0  0  0  0  0  0  0  0  0  0  0  0
    3.4780   62.4430   69.0130 C   0  0  0  0  0  0  0  0  0  0  0  0
    2.6800   61.5680   69.7540 C   0  0  0  0  0  0  0  0  0  0  0  0
   -1.1850   56.0690   75.2620 O   0  0  0  0  0  0  0  0  0  0  0  0
   -0.4370   54.3130   76.7540 C   0  0  0  0  0  0  0  0  0  0  0  0
   -1.1560   54.6500   75.4500 C   0  0  0  0  0  0  0  0  0  0  0  0
   -2.6100   54.1890   75.5220 C   0  0  0  0  0  0  0  0  0  0  0  0
    1.0725   54.9741   74.1107 H   0  0  0  0  0  0  0  0  0  0  0  0
    2.6690   56.2889   72.7111 H   0  0  0  0  0  0  0  0  0  0  0  0
   -1.3328   58.5176   74.6773 H   0  0  0  0  0  0  0  0  0  0  0  0
    0.7892   61.8810   72.3573 H   0  0  0  0  0  0  0  0  0  0  0  0
    4.3702   61.6706   72.7154 H   0  0  0  0  0  0  0  0  0  0  0  0
    5.7869   63.2323   71.3913 H   0  0  0  0  0  0  0  0  0  0  0  0
    5.2144   63.7342   69.0171 H   0  0  0  0  0  0  0  0  0  0  0  0
    3.2280   62.6590   67.9638 H   0  0  0  0  0  0  0  0  0  0  0  0
    1.8055   61.0966   69.2818 H   0  0  0  0  0  0  0  0  0  0  0  0
   -1.0664   54.6080   77.6066 H   0  0  0  0  0  0  0  0  0  0  0  0
   -0.2445   53.2309   76.7975 H   0  0  0  0  0  0  0  0  0  0  0  0
    0.5179   54.8573   76.7975 H   0  0  0  0  0  0  0  0  0  0  0  0
   -0.6212   54.1503   74.6289 H   0  0  0  0  0  0  0  0  0  0  0  0
   -2.9125   54.0931   76.5752 H   0  0  0  0  0  0  0  0  0  0  0  0
   -3.2539   54.9271   75.0213 H   0  0  0  0  0  0  0  0  0  0  0  0
   -2.7110   53.2148   75.0213 H   0  0  0  0  0  0  0  0  0  0  0  0
  2  1  2  0
  3  2  1  0
  4  3  2  0
  5  4  1  0
  6  5  2  0
  6  1  1  0
  7  5  1  0
  8  7  1  0
  9  8  2  0
 10  9  1  0
 10  4  1  0
 11 10  2  0
 12  9  1  0
 13 12  2  0
 14 13  1  0
 15 14  2  0
 16 15  1  0
 17 16  2  0
 17 12  1  0
 18  1  1  0
 20 19  1  0
 20 18  1  0
 21 20  1  0
  2 22  1  0
  3 23  1  0
  6 24  1  0
  8 25  1  0
 13 26  1  0
 14 27  1  0
 15 28  1  0
 16 29  1  0
 17 30  1  0
 19 31  1  0
 19 32  1  0
 19 33  1  0
 20 34  1  0
 21 35  1  0
 21 36  1  0
 21 37  1  0
M  END
>  <score>  (4) 
-7.359

$$$$
=
     RDKit          3D

 37 39  0  0  0  0  0  0  0  0999 V2000
    2.1430   61.8150   71.3710 C   0  0  0  0  0  0  0  0  0  0  0  0
    1.1470   61.9670   72.3380 C   0  0  0  0  0  0  0  0  0  0  0  0
    0.7000   60.8600   73.0670 C   0  0  0  0  0  0  0  0  0  0  0  0
    1.2510   59.5980   72.8310 C   0  0  0  0  0  0  0  0  0  0  0  0
    2.2460   59.4430   71.8730 C   0  0  0  0  0  0  0  0  0  0  0  0
    2.6920   60.5480   71.1480 C   0  0  0  0  0  0  0  0  0  0  0  0
    2.8290   58.2320   71.5980 O   0  0  0  0  0  0  0  0  0  0  0  0
    2.3920   57.1390   72.3070 C   0  0  0  0  0  0  0  0  0  0  0  0
    1.4380   57.1190   73.2520 C   0  0  0  0  0  0  0  0  0  0  0  0
    0.7930   58.4200   73.5890 C   0  0  0  0  0  0  0  0  0  0  0  0
   -0.0770   58.5320   74.4450 O   0  0  0  0  0  0  0  0  0  0  0  0
    1.0870   55.8590   73.9360 C   0  0  0  0  0  0  0  0  0  0  0  0
    2.0250   55.2030   74.7450 C   0  0  0  0  0  0  0  0  0  0  0  0
    1.7020   54.0060   75.3880 C   0  0  0  0  0  0  0  0  0  0  0  0
    0.4330   53.4500   75.2320 C   0  0  0  0  0  0  0  0  0  0  0  0
   -0.5120   54.0940   74.4390 C   0  0  0  0  0  0  0  0  0  0  0  0
   -0.1900   55.2910   73.7960 C   0  0  0  0  0  0  0  0  0  0  0  0
    2.6770   62.8030   70.5920 O   0  0  0  0  0  0  0  0  0  0  0  0
    3.7120   62.8900   68.4040 C   0  0  0  0  0  0  0  0  0  0  0  0
    3.8950   62.5560   69.8820 C   0  0  0  0  0  0  0  0  0  0  0  0
    4.9530   63.4690   70.4960 C   0  0  0  0  0  0  0  0  0  0  0  0
    0.7128   62.9599   72.5269 H   0  0  0  0  0  0  0  0  0  0  0  0
   -0.0859   60.9832   73.8267 H   0  0  0  0  0  0  0  0  0  0  0  0
    3.4828   60.4218   70.3939 H   0  0  0  0  0  0  0  0  0  0  0  0
    2.8750   56.1781   72.0759 H   0  0  0  0  0  0  0  0  0  0  0  0
    3.0277   55.6362   74.8750 H   0  0  0  0  0  0  0  0  0  0  0  0
    2.4494   53.5015   76.0180 H   0  0  0  0  0  0  0  0  0  0  0  0
    0.1794   52.5048   75.7344 H   0  0  0  0  0  0  0  0  0  0  0  0
   -1.5151   53.6590   74.3184 H   0  0  0  0  0  0  0  0  0  0  0  0
   -0.9443   55.7944   73.1733 H   0  0  0  0  0  0  0  0  0  0  0  0
    3.1855   63.8510   68.3077 H   0  0  0  0  0  0  0  0  0  0  0  0
    4.6970   62.9614   67.9195 H   0  0  0  0  0  0  0  0  0  0  0  0
    3.1217   62.0983   67.9195 H   0  0  0  0  0  0  0  0  0  0  0  0
    4.1916   61.4994   69.9568 H   0  0  0  0  0  0  0  0  0  0  0  0
    4.8913   63.4158   71.5930 H   0  0  0  0  0  0  0  0  0  0  0  0
    5.9518   63.1446   70.1687 H   0  0  0  0  0  0  0  0  0  0  0  0
    4.7783   64.5046   70.1687 H   0  0  0  0  0  0  0  0  0  0  0  0
  2  1  2  0
  3  2  1  0
  4  3  2  0
  5  4  1  0
  6  5  2  0
  6  1  1  0
  7  5  1  0
  8  7  1  0
  9  8  2  0
 10  9  1  0
 10  4  1  0
 11 10  2  0
 12  9  1  0
 13 12  2  0
 14 13  1  0
 15 14  2  0
 16 15  1  0
 17 16  2  0
 17 12  1  0
 18  1  1  0
 20 19  1  0
 20 18  1  0
 21 20  1  0
  2 22  1  0
  3 23  1  0
  6 24  1  0
  8 25  1  0
 13 26  1  0
 14 27  1  0
 15 28  1  0
 16 29  1  0
 17 30  1  0
 19 31  1  0
 19 32  1  0
 19 33  1  0
 20 34  1  0
 21 35  1  0
 21 36  1  0
 21 37  1  0
M  END
>  <score>  (5) 
-7.308

$$$$
=
     RDKit          3D

 37 39  0  0  0  0  0  0  0  0999 V2000
   -0.8400   57.3780   74.6170 C   0  0  0  0  0  0  0  0  0  0  0  0
   -1.4530   58.6310   74.5720 C   0  0  0  0  0  0  0  0  0  0  0  0
   -0.8490   59.6850   73.8780 C   0  0  0  0  0  0  0  0  0  0  0  0
    0.3710   59.4850   73.2280 C   0  0  0  0  0  0  0  0  0  0  0  0
    0.9830   58.2380   73.2670 C   0  0  0  0  0  0  0  0  0  0  0  0
    0.3780   57.1870   73.9570 C   0  0  0  0  0  0  0  0  0  0  0  0
    2.1770   57.9780   72.6450 O   0  0  0  0  0  0  0  0  0  0  0  0
    2.7800   59.0090   71.9660 C   0  0  0  0  0  0  0  0  0  0  0  0
    2.3280   60.2680   71.8430 C   0  0  0  0  0  0  0  0  0  0  0  0
    1.0240   60.5830   72.4920 C   0  0  0  0  0  0  0  0  0  0  0  0
    0.5010   61.6900   72.4350 O   0  0  0  0  0  0  0  0  0  0  0  0
    3.0890   61.2650   71.0650 C   0  0  0  0  0  0  0  0  0  0  0  0
    2.7510   61.5370   69.7330 C   0  0  0  0  0  0  0  0  0  0  0  0
    3.4730   62.4740   68.9890 C   0  0  0  0  0  0  0  0  0  0  0  0
    4.5420   63.1530   69.5710 C   0  0  0  0  0  0  0  0  0  0  0  0
    4.8860   62.8990   70.8960 C   0  0  0  0  0  0  0  0  0  0  0  0
    4.1640   61.9630   71.6400 C   0  0  0  0  0  0  0  0  0  0  0  0
   -1.3160   56.2630   75.2490 O   0  0  0  0  0  0  0  0  0  0  0  0
   -2.0940   56.3940   77.5390 C   0  0  0  0  0  0  0  0  0  0  0  0
   -0.9450   56.0140   76.6090 C   0  0  0  0  0  0  0  0  0  0  0  0
   -0.6590   54.5180   76.7170 C   0  0  0  0  0  0  0  0  0  0  0  0
   -2.4137   58.7903   75.0836 H   0  0  0  0  0  0  0  0  0  0  0  0
   -1.3349   60.6713   73.8442 H   0  0  0  0  0  0  0  0  0  0  0  0
    0.8631   56.2001   73.9820 H   0  0  0  0  0  0  0  0  0  0  0  0
    3.7346   58.7790   71.4703 H   0  0  0  0  0  0  0  0  0  0  0  0
    1.9073   61.0067   69.2672 H   0  0  0  0  0  0  0  0  0  0  0  0
    3.1975   62.6758   67.9434 H   0  0  0  0  0  0  0  0  0  0  0  0
    5.1128   63.8881   68.9847 H   0  0  0  0  0  0  0  0  0  0  0  0
    5.7276   63.4362   71.3576 H   0  0  0  0  0  0  0  0  0  0  0  0
    4.4401   61.7704   72.6872 H   0  0  0  0  0  0  0  0  0  0  0  0
   -1.7701   56.2869   78.5847 H   0  0  0  0  0  0  0  0  0  0  0  0
   -2.3880   57.4372   77.3513 H   0  0  0  0  0  0  0  0  0  0  0  0
   -2.9520   55.7318   77.3513 H   0  0  0  0  0  0  0  0  0  0  0  0
   -0.0652   56.6081   76.8970 H   0  0  0  0  0  0  0  0  0  0  0  0
   -0.6041   54.2308   77.7774 H   0  0  0  0  0  0  0  0  0  0  0  0
   -1.4656   53.9541   76.2257 H   0  0  0  0  0  0  0  0  0  0  0  0
    0.2987   54.2914   76.2257 H   0  0  0  0  0  0  0  0  0  0  0  0
  2  1  2  0
  3  2  1  0
  4  3  2  0
  5  4  1  0
  6  5  2  0
  6  1  1  0
  7  5  1  0
  8  7  1  0
  9  8  2  0
 10  9  1  0
 10  4  1  0
 11 10  2  0
 12  9  1  0
 13 12  2  0
 14 13  1  0
 15 14  2  0
 16 15  1  0
 17 16  2  0
 17 12  1  0
 18  1  1  0
 20 19  1  0
 20 18  1  0
 21 20  1  0
  2 22  1  0
  3 23  1  0
  6 24  1  0
  8 25  1  0
 13 26  1  0
 14 27  1  0
 15 28  1  0
 16 29  1  0
 17 30  1  0
 19 31  1  0
 19 32  1  0
 19 33  1  0
 20 34  1  0
 21 35  1  0
 21 36  1  0
 21 37  1  0
M  END
>  <score>  (6) 
-7.132

$$$$
=
     RDKit          3D

 37 39  0  0  0  0  0  0  0  0999 V2000
   -2.9120   59.6880   74.8630 C   0  0  0  0  0  0  0  0  0  0  0  0
   -2.9510   60.8690   74.1190 C   0  0  0  0  0  0  0  0  0  0  0  0
   -1.8280   61.2820   73.3940 C   0  0  0  0  0  0  0  0  0  0  0  0
   -0.6630   60.5100   73.4130 C   0  0  0  0  0  0  0  0  0  0  0  0
   -0.6210   59.3320   74.1480 C   0  0  0  0  0  0  0  0  0  0  0  0
   -1.7420   58.9210   74.8690 C   0  0  0  0  0  0  0  0  0  0  0  0
    0.4910   58.5310   74.2030 O   0  0  0  0  0  0  0  0  0  0  0  0
    1.6000   58.9320   73.4980 C   0  0  0  0  0  0  0  0  0  0  0  0
    1.7250   60.0410   72.7510 C   0  0  0  0  0  0  0  0  0  0  0  0
    0.5310   60.9290   72.6560 C   0  0  0  0  0  0  0  0  0  0  0  0
    0.5170   61.9590   71.9930 O   0  0  0  0  0  0  0  0  0  0  0  0
    2.9860   60.3280   72.0400 C   0  0  0  0  0  0  0  0  0  0  0  0
    4.1280   60.7240   72.7480 C   0  0  0  0  0  0  0  0  0  0  0  0
    5.3220   61.0050   72.0790 C   0  0  0  0  0  0  0  0  0  0  0  0
    5.3890   60.8910   70.6920 C   0  0  0  0  0  0  0  0  0  0  0  0
    4.2650   60.4900   69.9750 C   0  0  0  0  0  0  0  0  0  0  0  0
    3.0710   60.2090   70.6430 C   0  0  0  0  0  0  0  0  0  0  0  0
   -3.9300   59.1640   75.6100 O   0  0  0  0  0  0  0  0  0  0  0  0
   -4.4950   57.0300   76.6060 C   0  0  0  0  0  0  0  0  0  0  0  0
   -4.4070   57.8470   75.3190 C   0  0  0  0  0  0  0  0  0  0  0  0
   -5.7970   58.0100   74.7090 C   0  0  0  0  0  0  0  0  0  0  0  0
   -3.8678   61.4767   74.1029 H   0  0  0  0  0  0  0  0  0  0  0  0
   -1.8619   62.2133   72.8096 H   0  0  0  0  0  0  0  0  0  0  0  0
   -1.7058   57.9859   75.4472 H   0  0  0  0  0  0  0  0  0  0  0  0
    2.4799   58.2741   73.5511 H   0  0  0  0  0  0  0  0  0  0  0  0
    4.0842   60.8148   73.8434 H   0  0  0  0  0  0  0  0  0  0  0  0
    6.2103   61.3166   72.6481 H   0  0  0  0  0  0  0  0  0  0  0  0
    6.3276   61.1172   70.1648 H   0  0  0  0  0  0  0  0  0  0  0  0
    4.3174   60.3943   68.8804 H   0  0  0  0  0  0  0  0  0  0  0  0
    2.1880   59.8912   70.0691 H   0  0  0  0  0  0  0  0  0  0  0  0
   -4.4225   57.7029   77.4731 H   0  0  0  0  0  0  0  0  0  0  0  0
   -5.4559   56.4955   76.6360 H   0  0  0  0  0  0  0  0  0  0  0  0
   -3.6700   56.3031   76.6360 H   0  0  0  0  0  0  0  0  0  0  0  0
   -3.7300   57.3219   74.6292 H   0  0  0  0  0  0  0  0  0  0  0  0
   -6.5424   58.0974   75.5132 H   0  0  0  0  0  0  0  0  0  0  0  0
   -5.8205   58.9170   74.0871 H   0  0  0  0  0  0  0  0  0  0  0  0
   -6.0297   57.1330   74.0871 H   0  0  0  0  0  0  0  0  0  0  0  0
  2  1  2  0
  3  2  1  0
  4  3  2  0
  5  4  1  0
  6  5  2  0
  6  1  1  0
  7  5  1  0
  8  7  1  0
  9  8  2  0
 10  9  1  0
 10  4  1  0
 11 10  2  0
 12  9  1  0
 13 12  2  0
 14 13  1  0
 15 14  2  0
 16 15  1  0
 17 16  2  0
 17 12  1  0
 18  1  1  0
 20 19  1  0
 20 18  1  0
 21 20  1  0
  2 22  1  0
  3 23  1  0
  6 24  1  0
  8 25  1  0
 13 26  1  0
 14 27  1  0
 15 28  1  0
 16 29  1  0
 17 30  1  0
 19 31  1  0
 19 32  1  0
 19 33  1  0
 20 34  1  0
 21 35  1  0
 21 36  1  0
 21 37  1  0
M  END
>  <score>  (7) 
-6.99

$$$$
=
     RDKit          3D

 37 39  0  0  0  0  0  0  0  0999 V2000
    3.3470   61.0310   71.0780 C   0  0  0  0  0  0  0  0  0  0  0  0
    3.7530   59.9520   70.2920 C   0  0  0  0  0  0  0  0  0  0  0  0
    3.4290   58.6440   70.6690 C   0  0  0  0  0  0  0  0  0  0  0  0
    2.6940   58.4160   71.8360 C   0  0  0  0  0  0  0  0  0  0  0  0
    2.2840   59.4870   72.6200 C   0  0  0  0  0  0  0  0  0  0  0  0
    2.6070   60.7910   72.2410 C   0  0  0  0  0  0  0  0  0  0  0  0
    1.5590   59.3280   73.7720 O   0  0  0  0  0  0  0  0  0  0  0  0
    1.2400   58.0470   74.1530 C   0  0  0  0  0  0  0  0  0  0  0  0
    1.5670   56.9100   73.5160 C   0  0  0  0  0  0  0  0  0  0  0  0
    2.3430   57.0450   72.2510 C   0  0  0  0  0  0  0  0  0  0  0  0
    2.6860   56.0840   71.5720 O   0  0  0  0  0  0  0  0  0  0  0  0
    1.1380   55.6030   74.0480 C   0  0  0  0  0  0  0  0  0  0  0  0
   -0.1970   55.1910   73.9310 C   0  0  0  0  0  0  0  0  0  0  0  0
   -0.6110   53.9570   74.4400 C   0  0  0  0  0  0  0  0  0  0  0  0
    0.3050   53.1180   75.0700 C   0  0  0  0  0  0  0  0  0  0  0  0
    1.6370   53.5090   75.1870 C   0  0  0  0  0  0  0  0  0  0  0  0
    2.0520   54.7420   74.6780 C   0  0  0  0  0  0  0  0  0  0  0  0
    3.5870   62.3530   70.8300 O   0  0  0  0  0  0  0  0  0  0  0  0
    2.4560   64.4320   70.3140 C   0  0  0  0  0  0  0  0  0  0  0  0
    2.8190   63.0310   69.8300 C   0  0  0  0  0  0  0  0  0  0  0  0
    3.7010   63.1200   68.5870 C   0  0  0  0  0  0  0  0  0  0  0  0
    4.3299   60.1303   69.3726 H   0  0  0  0  0  0  0  0  0  0  0  0
    3.7524   57.7959   70.0476 H   0  0  0  0  0  0  0  0  0  0  0  0
    2.2770   61.6370   72.8618 H   0  0  0  0  0  0  0  0  0  0  0  0
    0.6545   57.9410   75.0782 H   0  0  0  0  0  0  0  0  0  0  0  0
   -0.9267   55.8463   73.4330 H   0  0  0  0  0  0  0  0  0  0  0  0
   -1.6622   53.6478   74.3429 H   0  0  0  0  0  0  0  0  0  0  0  0
   -0.0226   52.1488   75.4743 H   0  0  0  0  0  0  0  0  0  0  0  0
    2.3628   52.8461   75.6807 H   0  0  0  0  0  0  0  0  0  0  0  0
    3.1061   55.0420   74.7715 H   0  0  0  0  0  0  0  0  0  0  0  0
    2.4513   64.4502   71.4138 H   0  0  0  0  0  0  0  0  0  0  0  0
    3.1970   65.1531   69.9385 H   0  0  0  0  0  0  0  0  0  0  0  0
    1.4581   64.7026   69.9385 H   0  0  0  0  0  0  0  0  0  0  0  0
    1.8833   62.4942   69.6148 H   0  0  0  0  0  0  0  0  0  0  0  0
    4.7529   63.2261   68.8907 H   0  0  0  0  0  0  0  0  0  0  0  0
    3.5830   62.2054   67.9874 H   0  0  0  0  0  0  0  0  0  0  0  0
    3.4026   63.9926   67.9874 H   0  0  0  0  0  0  0  0  0  0  0  0
  2  1  2  0
  3  2  1  0
  4  3  2  0
  5  4  1  0
  6  5  2  0
  6  1  1  0
  7  5  1  0
  8  7  1  0
  9  8  2  0
 10  9  1  0
 10  4  1  0
 11 10  2  0
 12  9  1  0
 13 12  2  0
 14 13  1  0
 15 14  2  0
 16 15  1  0
 17 16  2  0
 17 12  1  0
 18  1  1  0
 20 19  1  0
 20 18  1  0
 21 20  1  0
  2 22  1  0
  3 23  1  0
  6 24  1  0
  8 25  1  0
 13 26  1  0
 14 27  1  0
 15 28  1  0
 16 29  1  0
 17 30  1  0
 19 31  1  0
 19 32  1  0
 19 33  1  0
 20 34  1  0
 21 35  1  0
 21 36  1  0
 21 37  1  0
M  END
>  <score>  (8) 
-6.847

$$$$
=
     RDKit          3D

 37 39  0  0  0  0  0  0  0  0999 V2000
    2.7140   60.8710   71.2580 C   0  0  0  0  0  0  0  0  0  0  0  0
    3.3630   59.6810   70.9270 C   0  0  0  0  0  0  0  0  0  0  0  0
    3.0010   58.4830   71.5530 C   0  0  0  0  0  0  0  0  0  0  0  0
    1.9840   58.4760   72.5120 C   0  0  0  0  0  0  0  0  0  0  0  0
    1.3310   59.6580   72.8410 C   0  0  0  0  0  0  0  0  0  0  0  0
    1.6930   60.8510   72.2150 C   0  0  0  0  0  0  0  0  0  0  0  0
    0.3240   59.7150   73.7700 O   0  0  0  0  0  0  0  0  0  0  0  0
   -0.0350   58.5440   74.3930 C   0  0  0  0  0  0  0  0  0  0  0  0
    0.5000   57.3280   74.1970 C   0  0  0  0  0  0  0  0  0  0  0  0
    1.5870   57.2240   73.1830 C   0  0  0  0  0  0  0  0  0  0  0  0
    2.1410   56.1680   72.9030 O   0  0  0  0  0  0  0  0  0  0  0  0
   -0.0070   56.1570   74.9390 C   0  0  0  0  0  0  0  0  0  0  0  0
   -1.2240   55.5610   74.5840 C   0  0  0  0  0  0  0  0  0  0  0  0
   -1.7120   54.4580   75.2880 C   0  0  0  0  0  0  0  0  0  0  0  0
   -0.9870   53.9350   76.3570 C   0  0  0  0  0  0  0  0  0  0  0  0
    0.2280   54.5100   76.7170 C   0  0  0  0  0  0  0  0  0  0  0  0
    0.7180   55.6130   76.0130 C   0  0  0  0  0  0  0  0  0  0  0  0
    2.9590   62.1060   70.7270 O   0  0  0  0  0  0  0  0  0  0  0  0
    3.6480   62.7030   68.4830 C   0  0  0  0  0  0  0  0  0  0  0  0
    4.0990   62.2930   69.8810 C   0  0  0  0  0  0  0  0  0  0  0  0
    4.9320   63.4080   70.5090 C   0  0  0  0  0  0  0  0  0  0  0  0
    4.1622   59.6846   70.1712 H   0  0  0  0  0  0  0  0  0  0  0  0
    3.5164   57.5473   71.2906 H   0  0  0  0  0  0  0  0  0  0  0  0
    1.1716   61.7838   72.4758 H   0  0  0  0  0  0  0  0  0  0  0  0
   -0.8477   58.6097   75.1314 H   0  0  0  0  0  0  0  0  0  0  0  0
   -1.8022   55.9666   73.7407 H   0  0  0  0  0  0  0  0  0  0  0  0
   -2.6699   54.0015   74.9983 H   0  0  0  0  0  0  0  0  0  0  0  0
   -1.3742   53.0697   76.9149 H   0  0  0  0  0  0  0  0  0  0  0  0
    0.8038   54.0953   77.5575 H   0  0  0  0  0  0  0  0  0  0  0  0
    1.6806   56.0599   76.3022 H   0  0  0  0  0  0  0  0  0  0  0  0
    2.8361   63.4411   68.5614 H   0  0  0  0  0  0  0  0  0  0  0  0
    4.4954   63.1464   67.9396 H   0  0  0  0  0  0  0  0  0  0  0  0
    3.2871   61.8173   67.9396 H   0  0  0  0  0  0  0  0  0  0  0  0
    4.6827   61.3651   69.7897 H   0  0  0  0  0  0  0  0  0  0  0  0
    4.8767   63.3340   71.6051 H   0  0  0  0  0  0  0  0  0  0  0  0
    5.9792   63.3091   70.1871 H   0  0  0  0  0  0  0  0  0  0  0  0
    4.5402   64.3841   70.1871 H   0  0  0  0  0  0  0  0  0  0  0  0
  2  1  2  0
  3  2  1  0
  4  3  2  0
  5  4  1  0
  6  5  2  0
  6  1  1  0
  7  5  1  0
  8  7  1  0
  9  8  2  0
 10  9  1  0
 10  4  1  0
 11 10  2  0
 12  9  1  0
 13 12  2  0
 14 13  1  0
 15 14  2  0
 16 15  1  0
 17 16  2  0
 17 12  1  0
 18  1  1  0
 20 19  1  0
 20 18  1  0
 21 20  1  0
  2 22  1  0
  3 23  1  0
  6 24  1  0
  8 25  1  0
 13 26  1  0
 14 27  1  0
 15 28  1  0
 16 29  1  0
 17 30  1  0
 19 31  1  0
 19 32  1  0
 19 33  1  0
 20 34  1  0
 21 35  1  0
 21 36  1  0
 21 37  1  0
M  END
>  <score>  (9) 
-6.845

$$$$
