=
     RDKit          3D

 58 61  0  0  0  0  0  0  0  0999 V2000
    0.9000   67.2320   67.8190 C   0  0  0  0  0  0  0  0  0  0  0  0
    0.5840   68.5960   67.1560 C   0  0  1  0  0  0  0  0  0  0  0  0
   -0.8990   68.6220   66.7460 C   0  0  0  0  0  0  0  0  0  0  0  0
    0.8520   69.8020   68.0610 C   0  0  0  0  0  0  0  0  0  0  0  0
    2.3290   69.8890   68.4020 C   0  0  0  0  0  0  0  0  0  0  0  0
    3.1900   69.6780   67.1820 C   0  0  0  0  0  0  0  0  0  0  0  0
    2.6420   69.1080   66.0200 C   0  0  0  0  0  0  0  0  0  0  0  0
    1.3290   68.7120   65.9310 O   0  0  0  0  0  0  0  0  0  0  0  0
    3.4150   68.9370   64.8520 C   0  0  0  0  0  0  0  0  0  0  0  0
    2.7820   68.3400   63.6160 C   0  0  0  0  0  0  0  0  0  0  0  0
    4.7580   69.3760   64.8370 C   0  0  0  0  0  0  0  0  0  0  0  0
    5.3160   69.8690   66.0310 C   0  0  0  0  0  0  0  0  0  0  0  0
    4.5590   70.0190   67.2040 C   0  0  0  0  0  0  0  0  0  0  0  0
    5.1960   70.5970   68.4440 C   0  0  0  0  0  0  0  0  0  0  0  0
    5.5820   69.2940   63.5760 C   0  0  0  0  0  0  0  0  0  0  0  0
    6.6380   70.2300   66.0930 O   0  0  0  0  0  0  0  0  0  0  0  0
    0.4000   67.2110   69.1580 O   0  0  0  0  0  0  0  0  0  0  0  0
    1.6190   63.8660   71.3480 C   0  0  0  0  0  0  0  0  0  0  0  0
    0.4140   64.4920   71.6870 C   0  0  0  0  0  0  0  0  0  0  0  0
   -0.0330   65.6140   70.9810 C   0  0  0  0  0  0  0  0  0  0  0  0
    0.7190   66.1260   69.9260 C   0  0  0  0  0  0  0  0  0  0  0  0
    1.9220   65.5060   69.5850 C   0  0  0  0  0  0  0  0  0  0  0  0
    2.3730   64.3860   70.2880 C   0  0  0  0  0  0  0  0  0  0  0  0
    2.1170   62.6640   72.1190 C   0  0  0  0  0  0  0  0  0  0  0  0
    3.9800   58.6760   69.9240 O   0  0  0  0  0  0  0  0  0  0  0  0
    3.9170   59.7250   70.5390 C   0  0  0  0  0  0  0  0  0  0  0  0
    4.4710   59.9620   71.7500 N   0  0  0  0  0  0  0  0  0  0  0  0
    4.0690   61.0730   72.4270 C   0  0  0  0  0  0  0  0  0  0  0  0
    4.2480   61.2070   73.6310 O   0  0  0  0  0  0  0  0  0  0  0  0
    3.3930   62.0790   71.5110 C   0  0  1  0  0  0  0  0  0  0  0  0
    3.0230   61.1200   69.9960 S   0  0  0  0  0  0  0  0  0  0  0  0
    0.4243   66.4268   67.2400 H   0  0  0  0  0  0  0  0  0  0  0  0
    1.9899   67.0842   67.8385 H   0  0  0  0  0  0  0  0  0  0  0  0
   -1.5286   68.6330   67.6479 H   0  0  0  0  0  0  0  0  0  0  0  0
   -1.0985   69.5238   66.1485 H   0  0  0  0  0  0  0  0  0  0  0  0
   -1.1300   67.7278   66.1485 H   0  0  0  0  0  0  0  0  0  0  0  0
    0.5453   70.7212   67.5405 H   0  0  0  0  0  0  0  0  0  0  0  0
    0.2769   69.6851   68.9914 H   0  0  0  0  0  0  0  0  0  0  0  0
    2.5412   70.8833   68.8219 H   0  0  0  0  0  0  0  0  0  0  0  0
    2.5626   69.0989   69.1308 H   0  0  0  0  0  0  0  0  0  0  0  0
    2.0115   67.6133   63.9132 H   0  0  0  0  0  0  0  0  0  0  0  0
    2.3207   69.1395   63.0177 H   0  0  0  0  0  0  0  0  0  0  0  0
    3.5531   67.8327   63.0177 H   0  0  0  0  0  0  0  0  0  0  0  0
    4.7197   70.1648   69.3364 H   0  0  0  0  0  0  0  0  0  0  0  0
    6.2698   70.3586   68.4497 H   0  0  0  0  0  0  0  0  0  0  0  0
    5.0628   71.6889   68.4497 H   0  0  0  0  0  0  0  0  0  0  0  0
    6.6449   69.1882   63.8388 H   0  0  0  0  0  0  0  0  0  0  0  0
    5.2620   68.4233   62.9849 H   0  0  0  0  0  0  0  0  0  0  0  0
    5.4399   70.2107   62.9849 H   0  0  0  0  0  0  0  0  0  0  0  0
    7.0176   70.5754   66.9396 H   0  0  0  0  0  0  0  0  0  0  0  0
   -0.1886   64.0972   72.5182 H   0  0  0  0  0  0  0  0  0  0  0  0
   -0.9825   66.0941   71.2602 H   0  0  0  0  0  0  0  0  0  0  0  0
    2.5220   65.9037   68.7532 H   0  0  0  0  0  0  0  0  0  0  0  0
    3.3245   63.9103   70.0079 H   0  0  0  0  0  0  0  0  0  0  0  0
    2.3251   62.9686   73.1553 H   0  0  0  0  0  0  0  0  0  0  0  0
    1.3370   61.8894   72.0799 H   0  0  0  0  0  0  0  0  0  0  0  0
    5.1742   59.3228   72.1472 H   0  0  0  0  0  0  0  0  0  0  0  0
    4.0354   62.9520   71.3232 H   0  0  0  0  0  0  0  0  0  0  0  0
  2  1  1  1
  3  2  1  0
  4  2  1  0
  5  4  1  0
  6  5  1  0
  7  6  2  0
  8  7  1  0
  8  2  1  0
  9  7  1  0
 10  9  1  0
 11  9  2  0
 12 11  1  0
 13 12  2  0
 13  6  1  0
 14 13  1  0
 15 11  1  0
 16 12  1  0
 17  1  1  0
 19 18  2  0
 20 19  1  0
 21 17  1  0
 21 20  2  0
 22 21  1  0
 23 18  1  0
 23 22  2  0
 24 18  1  0
 26 25  2  0
 27 26  1  0
 28 27  1  0
 29 28  2  0
 30 28  1  0
 30 24  1  0
 31 26  1  0
 31 30  1  0
  1 32  1  0
  1 33  1  0
  3 34  1  0
  3 35  1  0
  3 36  1  0
  4 37  1  0
  4 38  1  0
  5 39  1  0
  5 40  1  0
 10 41  1  0
 10 42  1  0
 10 43  1  0
 14 44  1  0
 14 45  1  0
 14 46  1  0
 15 47  1  0
 15 48  1  0
 15 49  1  0
 16 50  1  0
 19 51  1  0
 20 52  1  0
 22 53  1  0
 23 54  1  0
 24 55  1  0
 24 56  1  0
 27 57  1  0
 30 58  1  6
M  END
>  <score>  (1) 
-12.184

$$$$
=
     RDKit          3D

 58 61  0  0  0  0  0  0  0  0999 V2000
    1.1950   67.3860   67.9820 C   0  0  0  0  0  0  0  0  0  0  0  0
    0.8480   68.7930   67.4350 C   0  0  1  0  0  0  0  0  0  0  0  0
   -0.6410   69.0800   67.6980 C   0  0  0  0  0  0  0  0  0  0  0  0
    1.6710   69.9230   68.0620 C   0  0  0  0  0  0  0  0  0  0  0  0
    3.1430   69.7500   67.7320 C   0  0  0  0  0  0  0  0  0  0  0  0
    3.3460   69.4110   66.2770 C   0  0  0  0  0  0  0  0  0  0  0  0
    2.2660   68.9600   65.4990 C   0  0  0  0  0  0  0  0  0  0  0  0
    0.9990   68.7970   66.0050 O   0  0  0  0  0  0  0  0  0  0  0  0
    2.4200   68.6750   64.1250 C   0  0  0  0  0  0  0  0  0  0  0  0
    1.2290   68.2140   63.3190 C   0  0  0  0  0  0  0  0  0  0  0  0
    3.6760   68.8770   63.5110 C   0  0  0  0  0  0  0  0  0  0  0  0
    4.7670   69.2500   64.3180 C   0  0  0  0  0  0  0  0  0  0  0  0
    4.6260   69.5110   65.6910 C   0  0  0  0  0  0  0  0  0  0  0  0
    5.8190   69.9540   66.5010 C   0  0  0  0  0  0  0  0  0  0  0  0
    3.8510   68.6730   62.0260 C   0  0  0  0  0  0  0  0  0  0  0  0
    6.0250   69.3780   63.7870 O   0  0  0  0  0  0  0  0  0  0  0  0
    0.9720   67.3410   69.3930 O   0  0  0  0  0  0  0  0  0  0  0  0
    1.1310   63.6730   71.3900 C   0  0  0  0  0  0  0  0  0  0  0  0
    2.2100   64.0480   70.5820 C   0  0  0  0  0  0  0  0  0  0  0  0
    2.2000   65.2670   69.8950 C   0  0  0  0  0  0  0  0  0  0  0  0
    1.1110   66.1280   70.0080 C   0  0  0  0  0  0  0  0  0  0  0  0
    0.0310   65.7570   70.8120 C   0  0  0  0  0  0  0  0  0  0  0  0
    0.0370   64.5400   71.4980 C   0  0  0  0  0  0  0  0  0  0  0  0
    1.1280   62.3480   72.1200 C   0  0  0  0  0  0  0  0  0  0  0  0
    4.0070   58.9150   74.1520 O   0  0  0  0  0  0  0  0  0  0  0  0
    3.4890   59.9950   73.9260 C   0  0  0  0  0  0  0  0  0  0  0  0
    2.8960   60.7900   74.8450 N   0  0  0  0  0  0  0  0  0  0  0  0
    2.1170   61.8120   74.3950 C   0  0  0  0  0  0  0  0  0  0  0  0
    1.2940   62.3710   75.1080 O   0  0  0  0  0  0  0  0  0  0  0  0
    2.4040   62.1410   72.9390 C   0  0  1  0  0  0  0  0  0  0  0  0
    3.3490   60.6940   72.3360 S   0  0  0  0  0  0  0  0  0  0  0  0
    0.5589   66.6364   67.4887 H   0  0  0  0  0  0  0  0  0  0  0  0
    2.2539   67.1701   67.7769 H   0  0  0  0  0  0  0  0  0  0  0  0
   -0.8217   69.1148   68.7825 H   0  0  0  0  0  0  0  0  0  0  0  0
   -0.9128   70.0471   67.2497 H   0  0  0  0  0  0  0  0  0  0  0  0
   -1.2527   68.2832   67.2497 H   0  0  0  0  0  0  0  0  0  0  0  0
    1.3218   70.8883   67.6669 H   0  0  0  0  0  0  0  0  0  0  0  0
    1.5438   69.8941   69.1542 H   0  0  0  0  0  0  0  0  0  0  0  0
    3.6727   70.6872   67.9581 H   0  0  0  0  0  0  0  0  0  0  0  0
    3.5379   68.9214   68.3382 H   0  0  0  0  0  0  0  0  0  0  0  0
    0.4236   67.9023   64.0003 H   0  0  0  0  0  0  0  0  0  0  0  0
    0.8737   69.0396   62.6848 H   0  0  0  0  0  0  0  0  0  0  0  0
    1.5221   67.3644   62.6848 H   0  0  0  0  0  0  0  0  0  0  0  0
    5.5869   69.8678   67.5728 H   0  0  0  0  0  0  0  0  0  0  0  0
    6.6827   69.3166   66.2604 H   0  0  0  0  0  0  0  0  0  0  0  0
    6.0573   71.0006   66.2604 H   0  0  0  0  0  0  0  0  0  0  0  0
    4.5580   67.8489   61.8499 H   0  0  0  0  0  0  0  0  0  0  0  0
    2.8796   68.4259   61.5728 H   0  0  0  0  0  0  0  0  0  0  0  0
    4.2430   69.5955   61.5728 H   0  0  0  0  0  0  0  0  0  0  0  0
    6.7828   69.6411   64.3672 H   0  0  0  0  0  0  0  0  0  0  0  0
    3.0761   63.3768   70.4857 H   0  0  0  0  0  0  0  0  0  0  0  0
    3.0558   65.5465   69.2630 H   0  0  0  0  0  0  0  0  0  0  0  0
   -0.8337   66.4303   70.9061 H   0  0  0  0  0  0  0  0  0  0  0  0
   -0.8220   64.2616   72.1261 H   0  0  0  0  0  0  0  0  0  0  0  0
    0.2623   62.3182   72.7980 H   0  0  0  0  0  0  0  0  0  0  0  0
    1.0732   61.5466   71.3685 H   0  0  0  0  0  0  0  0  0  0  0  0
    3.0293   60.6276   75.8533 H   0  0  0  0  0  0  0  0  0  0  0  0
    2.9542   63.0881   72.8377 H   0  0  0  0  0  0  0  0  0  0  0  0
  2  1  1  1
  3  2  1  0
  4  2  1  0
  5  4  1  0
  6  5  1  0
  7  6  2  0
  8  7  1  0
  8  2  1  0
  9  7  1  0
 10  9  1  0
 11  9  2  0
 12 11  1  0
 13 12  2  0
 13  6  1  0
 14 13  1  0
 15 11  1  0
 16 12  1  0
 17  1  1  0
 19 18  2  0
 20 19  1  0
 21 17  1  0
 21 20  2  0
 22 21  1  0
 23 18  1  0
 23 22  2  0
 24 18  1  0
 26 25  2  0
 27 26  1  0
 28 27  1  0
 29 28  2  0
 30 28  1  0
 30 24  1  0
 31 26  1  0
 31 30  1  0
  1 32  1  0
  1 33  1  0
  3 34  1  0
  3 35  1  0
  3 36  1  0
  4 37  1  0
  4 38  1  0
  5 39  1  0
  5 40  1  0
 10 41  1  0
 10 42  1  0
 10 43  1  0
 14 44  1  0
 14 45  1  0
 14 46  1  0
 15 47  1  0
 15 48  1  0
 15 49  1  0
 16 50  1  0
 19 51  1  0
 20 52  1  0
 22 53  1  0
 23 54  1  0
 24 55  1  0
 24 56  1  0
 27 57  1  0
 30 58  1  1
M  END
>  <score>  (2) 
-11.597

$$$$
=
     RDKit          3D

 58 61  0  0  0  0  0  0  0  0999 V2000
    0.5680   67.0790   67.6340 C   0  0  0  0  0  0  0  0  0  0  0  0
    0.2780   68.4050   66.8880 C   0  0  1  0  0  0  0  0  0  0  0  0
   -1.1900   68.4070   66.4250 C   0  0  0  0  0  0  0  0  0  0  0  0
    0.5140   69.6590   67.7350 C   0  0  0  0  0  0  0  0  0  0  0  0
    1.9780   69.7660   68.1230 C   0  0  0  0  0  0  0  0  0  0  0  0
    2.8810   69.4900   66.9480 C   0  0  0  0  0  0  0  0  0  0  0  0
    2.3740   68.8580   65.7990 C   0  0  0  0  0  0  0  0  0  0  0  0
    1.0650   68.4560   65.6860 O   0  0  0  0  0  0  0  0  0  0  0  0
    3.1890   68.6250   64.6700 C   0  0  0  0  0  0  0  0  0  0  0  0
    2.5990   67.9620   63.4480 C   0  0  0  0  0  0  0  0  0  0  0  0
    4.5310   69.0640   64.6800 C   0  0  0  0  0  0  0  0  0  0  0  0
    5.0480   69.6210   65.8640 C   0  0  0  0  0  0  0  0  0  0  0  0
    4.2490   69.8330   67.0010 C   0  0  0  0  0  0  0  0  0  0  0  0
    4.8420   70.4780   68.2290 C   0  0  0  0  0  0  0  0  0  0  0  0
    5.4000   68.9150   63.4560 C   0  0  0  0  0  0  0  0  0  0  0  0
    6.3660   69.9870   65.9540 O   0  0  0  0  0  0  0  0  0  0  0  0
    1.1320   67.3540   68.9190 O   0  0  0  0  0  0  0  0  0  0  0  0
    1.2770   64.1960   71.6540 C   0  0  0  0  0  0  0  0  0  0  0  0
    0.1540   65.0310   71.6470 C   0  0  0  0  0  0  0  0  0  0  0  0
    0.0620   66.1000   70.7480 C   0  0  0  0  0  0  0  0  0  0  0  0
    1.0930   66.3480   69.8450 C   0  0  0  0  0  0  0  0  0  0  0  0
    2.2160   65.5190   69.8490 C   0  0  0  0  0  0  0  0  0  0  0  0
    2.3120   64.4510   70.7460 C   0  0  0  0  0  0  0  0  0  0  0  0
    1.3900   63.0510   72.6350 C   0  0  0  0  0  0  0  0  0  0  0  0
   -1.1750   59.1080   74.0760 O   0  0  0  0  0  0  0  0  0  0  0  0
   -0.4810   59.8420   73.3940 C   0  0  0  0  0  0  0  0  0  0  0  0
    0.7200   59.5190   72.8640 N   0  0  0  0  0  0  0  0  0  0  0  0
    1.4960   60.5290   72.3810 C   0  0  0  0  0  0  0  0  0  0  0  0
    2.6970   60.3970   72.1890 O   0  0  0  0  0  0  0  0  0  0  0  0
    0.6870   61.7900   72.1290 C   0  0  1  0  0  0  0  0  0  0  0  0
   -0.8800   61.4990   73.0310 S   0  0  0  0  0  0  0  0  0  0  0  0
   -0.3705   66.5193   67.7603 H   0  0  0  0  0  0  0  0  0  0  0  0
    1.2817   66.4828   67.0465 H   0  0  0  0  0  0  0  0  0  0  0  0
   -1.8516   68.4079   67.3038 H   0  0  0  0  0  0  0  0  0  0  0  0
   -1.3825   69.3054   65.8202 H   0  0  0  0  0  0  0  0  0  0  0  0
   -1.3849   67.5091   65.8202 H   0  0  0  0  0  0  0  0  0  0  0  0
    0.2267   70.5481   67.1546 H   0  0  0  0  0  0  0  0  0  0  0  0
   -0.0941   69.5925   68.6492 H   0  0  0  0  0  0  0  0  0  0  0  0
    2.1760   70.7819   68.4954 H   0  0  0  0  0  0  0  0  0  0  0  0
    2.1850   69.0170   68.9016 H   0  0  0  0  0  0  0  0  0  0  0  0
    1.8979   67.1742   63.7608 H   0  0  0  0  0  0  0  0  0  0  0  0
    2.0637   68.7115   62.8466 H   0  0  0  0  0  0  0  0  0  0  0  0
    3.4056   67.5174   62.8466 H   0  0  0  0  0  0  0  0  0  0  0  0
    4.4148   70.0133   69.1298 H   0  0  0  0  0  0  0  0  0  0  0  0
    5.9330   70.3376   68.2263 H   0  0  0  0  0  0  0  0  0  0  0  0
    4.6107   71.5534   68.2263 H   0  0  0  0  0  0  0  0  0  0  0  0
    6.4406   68.7366   63.7646 H   0  0  0  0  0  0  0  0  0  0  0  0
    5.0447   68.0647   62.8554 H   0  0  0  0  0  0  0  0  0  0  0  0
    5.3483   69.8351   62.8554 H   0  0  0  0  0  0  0  0  0  0  0  0
    6.7150   70.3777   66.7940 H   0  0  0  0  0  0  0  0  0  0  0  0
   -0.6660   64.8451   72.3562 H   0  0  0  0  0  0  0  0  0  0  0  0
   -0.8279   66.7466   70.7547 H   0  0  0  0  0  0  0  0  0  0  0  0
    3.0343   65.7081   69.1387 H   0  0  0  0  0  0  0  0  0  0  0  0
    3.2046   63.8081   70.7385 H   0  0  0  0  0  0  0  0  0  0  0  0
    2.4544   62.8241   72.7947 H   0  0  0  0  0  0  0  0  0  0  0  0
    0.9031   63.3580   73.5724 H   0  0  0  0  0  0  0  0  0  0  0  0
    1.0382   58.5401   72.8266 H   0  0  0  0  0  0  0  0  0  0  0  0
    0.5388   61.9690   71.0538 H   0  0  0  0  0  0  0  0  0  0  0  0
  2  1  1  1
  3  2  1  0
  4  2  1  0
  5  4  1  0
  6  5  1  0
  7  6  2  0
  8  7  1  0
  8  2  1  0
  9  7  1  0
 10  9  1  0
 11  9  2  0
 12 11  1  0
 13 12  2  0
 13  6  1  0
 14 13  1  0
 15 11  1  0
 16 12  1  0
 17  1  1  0
 19 18  2  0
 20 19  1  0
 21 17  1  0
 21 20  2  0
 22 21  1  0
 23 18  1  0
 23 22  2  0
 24 18  1  0
 26 25  2  0
 27 26  1  0
 28 27  1  0
 29 28  2  0
 30 28  1  0
 30 24  1  0
 31 26  1  0
 31 30  1  0
  1 32  1  0
  1 33  1  0
  3 34  1  0
  3 35  1  0
  3 36  1  0
  4 37  1  0
  4 38  1  0
  5 39  1  0
  5 40  1  0
 10 41  1  0
 10 42  1  0
 10 43  1  0
 14 44  1  0
 14 45  1  0
 14 46  1  0
 15 47  1  0
 15 48  1  0
 15 49  1  0
 16 50  1  0
 19 51  1  0
 20 52  1  0
 22 53  1  0
 23 54  1  0
 24 55  1  0
 24 56  1  0
 27 57  1  0
 30 58  1  6
M  END
>  <score>  (3) 
-10.853

$$$$
=
     RDKit          3D

 58 61  0  0  0  0  0  0  0  0999 V2000
    3.4560   60.7300   70.0900 C   0  0  0  0  0  0  0  0  0  0  0  0
    4.2910   61.7480   70.9070 C   0  0  1  0  0  0  0  0  0  0  0  0
    5.6580   61.1240   71.2360 C   0  0  0  0  0  0  0  0  0  0  0  0
    4.5330   63.0750   70.1810 C   0  0  0  0  0  0  0  0  0  0  0  0
    3.2160   63.7900   69.9340 C   0  0  0  0  0  0  0  0  0  0  0  0
    2.3390   63.7700   71.1610 C   0  0  0  0  0  0  0  0  0  0  0  0
    2.6090   62.8720   72.2090 C   0  0  0  0  0  0  0  0  0  0  0  0
    3.6520   61.9780   72.1740 O   0  0  0  0  0  0  0  0  0  0  0  0
    1.8290   62.8620   73.3850 C   0  0  0  0  0  0  0  0  0  0  0  0
    2.1660   61.8950   74.4960 C   0  0  0  0  0  0  0  0  0  0  0  0
    0.7760   63.7920   73.5280 C   0  0  0  0  0  0  0  0  0  0  0  0
    0.4660   64.6280   72.4400 C   0  0  0  0  0  0  0  0  0  0  0  0
    1.2230   64.6280   71.2570 C   0  0  0  0  0  0  0  0  0  0  0  0
    0.8750   65.5790   70.1390 C   0  0  0  0  0  0  0  0  0  0  0  0
   -0.0150   63.8690   74.8100 C   0  0  0  0  0  0  0  0  0  0  0  0
   -0.5990   65.4910   72.4960 O   0  0  0  0  0  0  0  0  0  0  0  0
    3.9380   59.4050   70.3200 O   0  0  0  0  0  0  0  0  0  0  0  0
    1.4660   57.1320   72.8080 C   0  0  0  0  0  0  0  0  0  0  0  0
    2.2600   56.4730   71.8620 C   0  0  0  0  0  0  0  0  0  0  0  0
    3.1020   57.1930   71.0080 C   0  0  0  0  0  0  0  0  0  0  0  0
    3.1630   58.5830   71.0900 C   0  0  0  0  0  0  0  0  0  0  0  0
    2.3730   59.2440   72.0310 C   0  0  0  0  0  0  0  0  0  0  0  0
    1.5290   58.5280   72.8850 C   0  0  0  0  0  0  0  0  0  0  0  0
    0.5400   56.3590   73.7210 C   0  0  0  0  0  0  0  0  0  0  0  0
    4.4310   57.3800   76.5510 O   0  0  0  0  0  0  0  0  0  0  0  0
    3.4550   56.8050   76.1030 C   0  0  0  0  0  0  0  0  0  0  0  0
    3.4120   55.5090   75.7220 N   0  0  0  0  0  0  0  0  0  0  0  0
    2.3480   55.0980   74.9780 C   0  0  0  0  0  0  0  0  0  0  0  0
    2.3680   54.0670   74.3200 O   0  0  0  0  0  0  0  0  0  0  0  0
    1.1820   56.0680   75.0780 C   0  0  1  0  0  0  0  0  0  0  0  0
    1.9250   57.5810   75.7960 S   0  0  0  0  0  0  0  0  0  0  0  0
    2.4020   60.7927   70.3985 H   0  0  0  0  0  0  0  0  0  0  0  0
    3.5465   60.9660   69.0194 H   0  0  0  0  0  0  0  0  0  0  0  0
    5.7821   61.0674   72.3275 H   0  0  0  0  0  0  0  0  0  0  0  0
    5.7118   60.1122   70.8079 H   0  0  0  0  0  0  0  0  0  0  0  0
    6.4577   61.7463   70.8079 H   0  0  0  0  0  0  0  0  0  0  0  0
    5.1819   63.7133   70.7987 H   0  0  0  0  0  0  0  0  0  0  0  0
    5.0153   62.8703   69.2138 H   0  0  0  0  0  0  0  0  0  0  0  0
    3.4224   64.8348   69.6589 H   0  0  0  0  0  0  0  0  0  0  0  0
    2.6868   63.2692   69.1224 H   0  0  0  0  0  0  0  0  0  0  0  0
    1.9968   62.3804   75.4685 H   0  0  0  0  0  0  0  0  0  0  0  0
    1.5251   61.0047   74.4142 H   0  0  0  0  0  0  0  0  0  0  0  0
    3.2214   61.5959   74.4142 H   0  0  0  0  0  0  0  0  0  0  0  0
    0.5263   66.5320   70.5635 H   0  0  0  0  0  0  0  0  0  0  0  0
    1.7659   65.7579   69.5191 H   0  0  0  0  0  0  0  0  0  0  0  0
    0.0790   65.1406   69.5191 H   0  0  0  0  0  0  0  0  0  0  0  0
    0.6700   63.8023   75.6681 H   0  0  0  0  0  0  0  0  0  0  0  0
   -0.5589   64.8243   74.8484 H   0  0  0  0  0  0  0  0  0  0  0  0
   -0.7330   63.0365   74.8484 H   0  0  0  0  0  0  0  0  0  0  0  0
   -0.8053   66.0735   71.7225 H   0  0  0  0  0  0  0  0  0  0  0  0
    2.2213   55.3761   71.7894 H   0  0  0  0  0  0  0  0  0  0  0  0
    3.7183   56.6601   70.2689 H   0  0  0  0  0  0  0  0  0  0  0  0
    2.4147   60.3409   72.1017 H   0  0  0  0  0  0  0  0  0  0  0  0
    0.9117   59.0642   73.6208 H   0  0  0  0  0  0  0  0  0  0  0  0
   -0.3747   56.9488   73.8804 H   0  0  0  0  0  0  0  0  0  0  0  0
    0.3148   55.3962   73.2391 H   0  0  0  0  0  0  0  0  0  0  0  0
    4.1606   54.8527   75.9861 H   0  0  0  0  0  0  0  0  0  0  0  0
    0.3639   55.6573   75.6880 H   0  0  0  0  0  0  0  0  0  0  0  0
  2  1  1  6
  3  2  1  0
  4  2  1  0
  5  4  1  0
  6  5  1  0
  7  6  2  0
  8  7  1  0
  8  2  1  0
  9  7  1  0
 10  9  1  0
 11  9  2  0
 12 11  1  0
 13 12  2  0
 13  6  1  0
 14 13  1  0
 15 11  1  0
 16 12  1  0
 17  1  1  0
 19 18  2  0
 20 19  1  0
 21 17  1  0
 21 20  2  0
 22 21  1  0
 23 18  1  0
 23 22  2  0
 24 18  1  0
 26 25  2  0
 27 26  1  0
 28 27  1  0
 29 28  2  0
 30 28  1  0
 30 24  1  0
 31 26  1  0
 31 30  1  0
  1 32  1  0
  1 33  1  0
  3 34  1  0
  3 35  1  0
  3 36  1  0
  4 37  1  0
  4 38  1  0
  5 39  1  0
  5 40  1  0
 10 41  1  0
 10 42  1  0
 10 43  1  0
 14 44  1  0
 14 45  1  0
 14 46  1  0
 15 47  1  0
 15 48  1  0
 15 49  1  0
 16 50  1  0
 19 51  1  0
 20 52  1  0
 22 53  1  0
 23 54  1  0
 24 55  1  0
 24 56  1  0
 27 57  1  0
 30 58  1  1
M  END
>  <score>  (4) 
-9.757

$$$$
=
     RDKit          3D

 58 61  0  0  0  0  0  0  0  0999 V2000
    3.4580   60.7390   70.0470 C   0  0  0  0  0  0  0  0  0  0  0  0
    4.2970   61.7560   70.8600 C   0  0  1  0  0  0  0  0  0  0  0  0
    5.6630   61.1280   71.1890 C   0  0  0  0  0  0  0  0  0  0  0  0
    4.5430   63.0800   70.1300 C   0  0  0  0  0  0  0  0  0  0  0  0
    3.2290   63.7990   69.8830 C   0  0  0  0  0  0  0  0  0  0  0  0
    2.3530   63.7860   71.1110 C   0  0  0  0  0  0  0  0  0  0  0  0
    2.6220   62.8900   72.1610 C   0  0  0  0  0  0  0  0  0  0  0  0
    3.6610   61.9920   72.1270 O   0  0  0  0  0  0  0  0  0  0  0  0
    1.8430   62.8850   73.3380 C   0  0  0  0  0  0  0  0  0  0  0  0
    2.1780   61.9210   74.4520 C   0  0  0  0  0  0  0  0  0  0  0  0
    0.7930   63.8200   73.4800 C   0  0  0  0  0  0  0  0  0  0  0  0
    0.4840   64.6540   72.3900 C   0  0  0  0  0  0  0  0  0  0  0  0
    1.2390   64.6470   71.2060 C   0  0  0  0  0  0  0  0  0  0  0  0
    0.8940   65.5970   70.0850 C   0  0  0  0  0  0  0  0  0  0  0  0
    0.0040   63.9030   74.7630 C   0  0  0  0  0  0  0  0  0  0  0  0
   -0.5780   65.5210   72.4450 O   0  0  0  0  0  0  0  0  0  0  0  0
    3.8650   59.4050   70.3610 O   0  0  0  0  0  0  0  0  0  0  0  0
    1.5120   56.9860   72.8270 C   0  0  0  0  0  0  0  0  0  0  0  0
    1.5140   58.3690   73.0420 C   0  0  0  0  0  0  0  0  0  0  0  0
    2.2860   59.2180   72.2410 C   0  0  0  0  0  0  0  0  0  0  0  0
    3.0670   58.6930   71.2130 C   0  0  0  0  0  0  0  0  0  0  0  0
    3.0700   57.3150   70.9960 C   0  0  0  0  0  0  0  0  0  0  0  0
    2.3020   56.4640   71.7950 C   0  0  0  0  0  0  0  0  0  0  0  0
    0.6940   56.0630   73.7020 C   0  0  0  0  0  0  0  0  0  0  0  0
    0.5400   52.0350   76.5220 O   0  0  0  0  0  0  0  0  0  0  0  0
    0.9760   52.9390   75.8310 C   0  0  0  0  0  0  0  0  0  0  0  0
    1.9750   53.7810   76.1770 N   0  0  0  0  0  0  0  0  0  0  0  0
    2.1480   54.9060   75.4300 C   0  0  0  0  0  0  0  0  0  0  0  0
    2.7830   55.8710   75.8350 O   0  0  0  0  0  0  0  0  0  0  0  0
    1.4640   54.7950   74.0780 C   0  0  1  0  0  0  0  0  0  0  0  0
    0.3330   53.3680   74.2690 S   0  0  0  0  0  0  0  0  0  0  0  0
    2.3939   60.8631   70.2965 H   0  0  0  0  0  0  0  0  0  0  0  0
    3.6139   60.9200   68.9732 H   0  0  0  0  0  0  0  0  0  0  0  0
    5.7870   61.0710   72.2805 H   0  0  0  0  0  0  0  0  0  0  0  0
    5.7140   60.1160   70.7608 H   0  0  0  0  0  0  0  0  0  0  0  0
    6.4643   61.7481   70.7608 H   0  0  0  0  0  0  0  0  0  0  0  0
    5.1952   63.7175   70.7450 H   0  0  0  0  0  0  0  0  0  0  0  0
    5.0231   62.8708   69.1627 H   0  0  0  0  0  0  0  0  0  0  0  0
    3.4391   64.8423   69.6047 H   0  0  0  0  0  0  0  0  0  0  0  0
    2.6969   63.2777   69.0736 H   0  0  0  0  0  0  0  0  0  0  0  0
    2.0083   62.4094   75.4229 H   0  0  0  0  0  0  0  0  0  0  0  0
    1.5364   61.0311   74.3721 H   0  0  0  0  0  0  0  0  0  0  0  0
    3.2332   61.6207   74.3721 H   0  0  0  0  0  0  0  0  0  0  0  0
    0.5473   66.5518   70.5071 H   0  0  0  0  0  0  0  0  0  0  0  0
    1.7858   65.7724   69.4654 H   0  0  0  0  0  0  0  0  0  0  0  0
    0.0974   65.1592   69.4654 H   0  0  0  0  0  0  0  0  0  0  0  0
    0.6895   63.8309   75.6203 H   0  0  0  0  0  0  0  0  0  0  0  0
   -0.5324   64.8625   74.8021 H   0  0  0  0  0  0  0  0  0  0  0  0
   -0.7204   63.0761   74.8021 H   0  0  0  0  0  0  0  0  0  0  0  0
   -0.7834   66.1019   71.6701 H   0  0  0  0  0  0  0  0  0  0  0  0
    0.9011   58.7939   73.8506 H   0  0  0  0  0  0  0  0  0  0  0  0
    2.2764   60.3028   72.4233 H   0  0  0  0  0  0  0  0  0  0  0  0
    3.6841   56.8935   70.1865 H   0  0  0  0  0  0  0  0  0  0  0  0
    2.3179   55.3793   71.6127 H   0  0  0  0  0  0  0  0  0  0  0  0
    0.4199   56.5980   74.6232 H   0  0  0  0  0  0  0  0  0  0  0  0
   -0.1992   55.7617   73.1351 H   0  0  0  0  0  0  0  0  0  0  0  0
    2.5863   53.5779   76.9807 H   0  0  0  0  0  0  0  0  0  0  0  0
    2.1927   54.6622   73.2647 H   0  0  0  0  0  0  0  0  0  0  0  0
  2  1  1  6
  3  2  1  0
  4  2  1  0
  5  4  1  0
  6  5  1  0
  7  6  2  0
  8  7  1  0
  8  2  1  0
  9  7  1  0
 10  9  1  0
 11  9  2  0
 12 11  1  0
 13 12  2  0
 13  6  1  0
 14 13  1  0
 15 11  1  0
 16 12  1  0
 17  1  1  0
 19 18  2  0
 20 19  1  0
 21 17  1  0
 21 20  2  0
 22 21  1  0
 23 18  1  0
 23 22  2  0
 24 18  1  0
 26 25  2  0
 27 26  1  0
 28 27  1  0
 29 28  2  0
 30 28  1  0
 30 24  1  0
 31 26  1  0
 31 30  1  0
  1 32  1  0
  1 33  1  0
  3 34  1  0
  3 35  1  0
  3 36  1  0
  4 37  1  0
  4 38  1  0
  5 39  1  0
  5 40  1  0
 10 41  1  0
 10 42  1  0
 10 43  1  0
 14 44  1  0
 14 45  1  0
 14 46  1  0
 15 47  1  0
 15 48  1  0
 15 49  1  0
 16 50  1  0
 19 51  1  0
 20 52  1  0
 22 53  1  0
 23 54  1  0
 24 55  1  0
 24 56  1  0
 27 57  1  0
 30 58  1  6
M  END
>  <score>  (5) 
-9.697

$$$$
=
     RDKit          3D

 58 61  0  0  0  0  0  0  0  0999 V2000
   -0.0960   62.0210   73.7650 C   0  0  0  0  0  0  0  0  0  0  0  0
    1.3320   61.9290   74.3560 C   0  0  1  0  0  0  0  0  0  0  0  0
    1.5220   63.0570   75.3860 C   0  0  0  0  0  0  0  0  0  0  0  0
    1.6340   60.5950   75.0470 C   0  0  0  0  0  0  0  0  0  0  0  0
    1.5740   59.4560   74.0450 C   0  0  0  0  0  0  0  0  0  0  0  0
    2.2980   59.8050   72.7690 C   0  0  0  0  0  0  0  0  0  0  0  0
    2.6200   61.1430   72.4820 C   0  0  0  0  0  0  0  0  0  0  0  0
    2.2930   62.1840   73.3180 O   0  0  0  0  0  0  0  0  0  0  0  0
    3.3330   61.4920   71.3160 C   0  0  0  0  0  0  0  0  0  0  0  0
    3.6770   62.9400   71.0550 C   0  0  0  0  0  0  0  0  0  0  0  0
    3.7620   60.4750   70.4340 C   0  0  0  0  0  0  0  0  0  0  0  0
    3.3630   59.1510   70.6910 C   0  0  0  0  0  0  0  0  0  0  0  0
    2.6320   58.7990   71.8370 C   0  0  0  0  0  0  0  0  0  0  0  0
    2.2710   57.3560   72.0890 C   0  0  0  0  0  0  0  0  0  0  0  0
    4.6060   60.8060   69.2280 C   0  0  0  0  0  0  0  0  0  0  0  0
    3.6820   58.1380   69.8220 O   0  0  0  0  0  0  0  0  0  0  0  0
   -0.4690   63.3900   73.5960 O   0  0  0  0  0  0  0  0  0  0  0  0
    0.4430   65.4370   70.0680 C   0  0  0  0  0  0  0  0  0  0  0  0
    0.3460   64.0410   70.0320 C   0  0  0  0  0  0  0  0  0  0  0  0
    0.0420   63.3140   71.1890 C   0  0  0  0  0  0  0  0  0  0  0  0
   -0.1690   63.9750   72.3970 C   0  0  0  0  0  0  0  0  0  0  0  0
   -0.0710   65.3670   72.4380 C   0  0  0  0  0  0  0  0  0  0  0  0
    0.2340   66.0950   71.2850 C   0  0  0  0  0  0  0  0  0  0  0  0
    0.7900   66.2250   68.8250 C   0  0  0  0  0  0  0  0  0  0  0  0
   -2.0550   68.4930   65.5140 O   0  0  0  0  0  0  0  0  0  0  0  0
   -1.3740   68.3020   66.5060 C   0  0  0  0  0  0  0  0  0  0  0  0
   -0.3210   69.0560   66.8930 N   0  0  0  0  0  0  0  0  0  0  0  0
    0.5070   68.5500   67.8490 C   0  0  0  0  0  0  0  0  0  0  0  0
    1.6380   68.9830   68.0320 O   0  0  0  0  0  0  0  0  0  0  0  0
   -0.1480   67.4160   68.6200 C   0  0  1  0  0  0  0  0  0  0  0  0
   -1.5890   66.9540   67.5900 S   0  0  0  0  0  0  0  0  0  0  0  0
   -0.1194   61.5142   72.7890 H   0  0  0  0  0  0  0  0  0  0  0  0
   -0.8034   61.5370   74.4545 H   0  0  0  0  0  0  0  0  0  0  0  0
    1.4520   62.6414   76.4020 H   0  0  0  0  0  0  0  0  0  0  0  0
    2.5106   63.5187   75.2460 H   0  0  0  0  0  0  0  0  0  0  0  0
    0.7392   63.8170   75.2460 H   0  0  0  0  0  0  0  0  0  0  0  0
    2.6400   60.6356   75.4901 H   0  0  0  0  0  0  0  0  0  0  0  0
    0.8829   60.4208   75.8315 H   0  0  0  0  0  0  0  0  0  0  0  0
    2.0410   58.5644   74.4887 H   0  0  0  0  0  0  0  0  0  0  0  0
    0.5183   59.2647   73.8021 H   0  0  0  0  0  0  0  0  0  0  0  0
    3.8019   63.4657   72.0132 H   0  0  0  0  0  0  0  0  0  0  0  0
    4.6136   62.9966   70.4809 H   0  0  0  0  0  0  0  0  0  0  0  0
    2.8659   63.4118   70.4809 H   0  0  0  0  0  0  0  0  0  0  0  0
    2.2253   57.1733   73.1728 H   0  0  0  0  0  0  0  0  0  0  0  0
    1.2909   57.1392   71.6390 H   0  0  0  0  0  0  0  0  0  0  0  0
    3.0335   56.7033   71.6390 H   0  0  0  0  0  0  0  0  0  0  0  0
    5.5829   61.1891   69.5581 H   0  0  0  0  0  0  0  0  0  0  0  0
    4.7532   59.8990   68.6233 H   0  0  0  0  0  0  0  0  0  0  0  0
    4.0973   61.5713   68.6233 H   0  0  0  0  0  0  0  0  0  0  0  0
    3.3945   57.2107   70.0158 H   0  0  0  0  0  0  0  0  0  0  0  0
    0.5106   63.5090   69.0834 H   0  0  0  0  0  0  0  0  0  0  0  0
   -0.0305   62.2173   71.1442 H   0  0  0  0  0  0  0  0  0  0  0  0
   -0.2356   65.8963   73.3881 H   0  0  0  0  0  0  0  0  0  0  0  0
    0.3102   67.1912   71.3343 H   0  0  0  0  0  0  0  0  0  0  0  0
    1.8211   66.5969   68.9168 H   0  0  0  0  0  0  0  0  0  0  0  0
    0.6835   65.5560   67.9583 H   0  0  0  0  0  0  0  0  0  0  0  0
   -0.1502   69.9833   66.4784 H   0  0  0  0  0  0  0  0  0  0  0  0
   -0.4274   67.7256   69.6379 H   0  0  0  0  0  0  0  0  0  0  0  0
  2  1  1  6
  3  2  1  0
  4  2  1  0
  5  4  1  0
  6  5  1  0
  7  6  2  0
  8  7  1  0
  8  2  1  0
  9  7  1  0
 10  9  1  0
 11  9  2  0
 12 11  1  0
 13 12  2  0
 13  6  1  0
 14 13  1  0
 15 11  1  0
 16 12  1  0
 17  1  1  0
 19 18  2  0
 20 19  1  0
 21 17  1  0
 21 20  2  0
 22 21  1  0
 23 18  1  0
 23 22  2  0
 24 18  1  0
 26 25  2  0
 27 26  1  0
 28 27  1  0
 29 28  2  0
 30 28  1  0
 30 24  1  0
 31 26  1  0
 31 30  1  0
  1 32  1  0
  1 33  1  0
  3 34  1  0
  3 35  1  0
  3 36  1  0
  4 37  1  0
  4 38  1  0
  5 39  1  0
  5 40  1  0
 10 41  1  0
 10 42  1  0
 10 43  1  0
 14 44  1  0
 14 45  1  0
 14 46  1  0
 15 47  1  0
 15 48  1  0
 15 49  1  0
 16 50  1  0
 19 51  1  0
 20 52  1  0
 22 53  1  0
 23 54  1  0
 24 55  1  0
 24 56  1  0
 27 57  1  0
 30 58  1  1
M  END
>  <score>  (6) 
-9.409

$$$$
=
     RDKit          3D

 58 61  0  0  0  0  0  0  0  0999 V2000
    1.5260   58.8020   73.6440 C   0  0  0  0  0  0  0  0  0  0  0  0
    2.6840   59.7290   74.0890 C   0  0  1  0  0  0  0  0  0  0  0  0
    2.8170   59.6640   75.6210 C   0  0  0  0  0  0  0  0  0  0  0  0
    4.0400   59.3670   73.4750 C   0  0  0  0  0  0  0  0  0  0  0  0
    3.9960   59.5280   71.9660 C   0  0  0  0  0  0  0  0  0  0  0  0
    3.3290   60.8210   71.5690 C   0  0  0  0  0  0  0  0  0  0  0  0
    2.5480   61.5290   72.4990 C   0  0  0  0  0  0  0  0  0  0  0  0
    2.3440   61.0930   73.7860 O   0  0  0  0  0  0  0  0  0  0  0  0
    1.9470   62.7610   72.1650 C   0  0  0  0  0  0  0  0  0  0  0  0
    1.1330   63.5010   73.2010 C   0  0  0  0  0  0  0  0  0  0  0  0
    2.1590   63.3120   70.8820 C   0  0  0  0  0  0  0  0  0  0  0  0
    2.8730   62.5550   69.9350 C   0  0  0  0  0  0  0  0  0  0  0  0
    3.4540   61.3160   70.2530 C   0  0  0  0  0  0  0  0  0  0  0  0
    4.2500   60.5680   69.2130 C   0  0  0  0  0  0  0  0  0  0  0  0
    1.6080   64.6710   70.5250 C   0  0  0  0  0  0  0  0  0  0  0  0
    3.0360   63.0060   68.6500 O   0  0  0  0  0  0  0  0  0  0  0  0
    0.5000   59.5690   73.0110 O   0  0  0  0  0  0  0  0  0  0  0  0
   -3.2170   60.0820   74.8530 C   0  0  0  0  0  0  0  0  0  0  0  0
   -2.5170   58.8880   75.0660 C   0  0  0  0  0  0  0  0  0  0  0  0
   -1.2690   58.6730   74.4700 C   0  0  0  0  0  0  0  0  0  0  0  0
   -0.7050   59.6500   73.6520 C   0  0  0  0  0  0  0  0  0  0  0  0
   -1.4000   60.8410   73.4360 C   0  0  0  0  0  0  0  0  0  0  0  0
   -2.6460   61.0590   74.0290 C   0  0  0  0  0  0  0  0  0  0  0  0
   -4.5740   60.3110   75.4810 C   0  0  0  0  0  0  0  0  0  0  0  0
   -9.1850   61.9590   75.0160 O   0  0  0  0  0  0  0  0  0  0  0  0
   -8.0920   61.5040   74.7270 C   0  0  0  0  0  0  0  0  0  0  0  0
   -7.8730   60.3640   74.0350 N   0  0  0  0  0  0  0  0  0  0  0  0
   -6.6140   59.8440   74.0470 C   0  0  0  0  0  0  0  0  0  0  0  0
   -6.3830   58.6810   73.7430 O   0  0  0  0  0  0  0  0  0  0  0  0
   -5.5830   60.8730   74.4780 C   0  0  1  0  0  0  0  0  0  0  0  0
   -6.5800   62.2140   75.2250 S   0  0  0  0  0  0  0  0  0  0  0  0
    1.9106   58.0536   72.9355 H   0  0  0  0  0  0  0  0  0  0  0  0
    1.1068   58.2991   74.5279 H   0  0  0  0  0  0  0  0  0  0  0  0
    1.9212   60.1018   76.0857 H   0  0  0  0  0  0  0  0  0  0  0  0
    2.9180   58.6150   75.9361 H   0  0  0  0  0  0  0  0  0  0  0  0
    3.7068   60.2288   75.9361 H   0  0  0  0  0  0  0  0  0  0  0  0
    4.8140   60.0305   73.8881 H   0  0  0  0  0  0  0  0  0  0  0  0
    4.2733   58.3194   73.7160 H   0  0  0  0  0  0  0  0  0  0  0  0
    5.0243   59.5213   71.5754 H   0  0  0  0  0  0  0  0  0  0  0  0
    3.4130   58.6950   71.5462 H   0  0  0  0  0  0  0  0  0  0  0  0
    1.4616   63.2023   74.2074 H   0  0  0  0  0  0  0  0  0  0  0  0
    1.2766   64.5843   73.0749 H   0  0  0  0  0  0  0  0  0  0  0  0
    0.0683   63.2551   73.0749 H   0  0  0  0  0  0  0  0  0  0  0  0
    4.9647   59.8964   69.7113 H   0  0  0  0  0  0  0  0  0  0  0  0
    3.5679   59.9765   68.5846 H   0  0  0  0  0  0  0  0  0  0  0  0
    4.7980   61.2855   68.5846 H   0  0  0  0  0  0  0  0  0  0  0  0
    1.3820   65.2285   71.4459 H   0  0  0  0  0  0  0  0  0  0  0  0
    2.3526   65.2250   69.9344 H   0  0  0  0  0  0  0  0  0  0  0  0
    0.6879   64.5500   69.9344 H   0  0  0  0  0  0  0  0  0  0  0  0
    3.5410   62.4621   67.9948 H   0  0  0  0  0  0  0  0  0  0  0  0
   -2.9532   58.1097   75.7094 H   0  0  0  0  0  0  0  0  0  0  0  0
   -0.7317   57.7298   74.6479 H   0  0  0  0  0  0  0  0  0  0  0  0
   -0.9615   61.6170   72.7914 H   0  0  0  0  0  0  0  0  0  0  0  0
   -3.1809   62.0029   73.8476 H   0  0  0  0  0  0  0  0  0  0  0  0
   -4.9529   59.3531   75.8668 H   0  0  0  0  0  0  0  0  0  0  0  0
   -4.4539   61.0466   76.2900 H   0  0  0  0  0  0  0  0  0  0  0  0
   -8.6335   59.9032   73.5153 H   0  0  0  0  0  0  0  0  0  0  0  0
   -4.9701   61.2124   73.6300 H   0  0  0  0  0  0  0  0  0  0  0  0
  2  1  1  6
  3  2  1  0
  4  2  1  0
  5  4  1  0
  6  5  1  0
  7  6  2  0
  8  7  1  0
  8  2  1  0
  9  7  1  0
 10  9  1  0
 11  9  2  0
 12 11  1  0
 13 12  2  0
 13  6  1  0
 14 13  1  0
 15 11  1  0
 16 12  1  0
 17  1  1  0
 19 18  2  0
 20 19  1  0
 21 17  1  0
 21 20  2  0
 22 21  1  0
 23 18  1  0
 23 22  2  0
 24 18  1  0
 26 25  2  0
 27 26  1  0
 28 27  1  0
 29 28  2  0
 30 28  1  0
 30 24  1  0
 31 26  1  0
 31 30  1  0
  1 32  1  0
  1 33  1  0
  3 34  1  0
  3 35  1  0
  3 36  1  0
  4 37  1  0
  4 38  1  0
  5 39  1  0
  5 40  1  0
 10 41  1  0
 10 42  1  0
 10 43  1  0
 14 44  1  0
 14 45  1  0
 14 46  1  0
 15 47  1  0
 15 48  1  0
 15 49  1  0
 16 50  1  0
 19 51  1  0
 20 52  1  0
 22 53  1  0
 23 54  1  0
 24 55  1  0
 24 56  1  0
 27 57  1  0
 30 58  1  6
M  END
>  <score>  (7) 
-9.194

$$$$
