=
     RDKit          3D

 94100  0  0  0  0  0  0  0  0999 V2000
    0.7320   63.3540   70.0800 O   0  0  0  0  0  0  0  0  0  0  0  0
    1.7180   64.0320   70.3700 C   0  0  0  0  0  0  0  0  0  0  0  0
    1.7430   65.4000   70.4290 N   0  0  0  0  0  0  0  0  0  0  0  0
    3.0350   63.3090   70.7000 C   0  0  2  0  0  0  0  0  0  0  0  0
    3.8540   63.0020   69.4460 C   0  0  0  0  0  0  0  0  0  0  0  0
    3.5960   61.5310   69.1520 C   0  0  0  0  0  0  0  0  0  0  0  0
    3.5070   60.9080   70.5310 C   0  0  0  0  0  0  0  0  0  0  0  0
    2.7140   61.9250   71.2910 N   0  0  1  0  0  4  0  0  0  0  0  0
    2.6180   61.8060   72.7880 C   0  0  0  0  0  0  0  0  0  0  0  0
    1.1930   61.7100   73.3740 C   0  0  0  0  0  0  0  0  0  0  0  0
    0.3320   60.8010   72.5960 N   0  0  0  0  0  0  0  0  0  0  0  0
   -0.2050   59.7830   73.4580 C   0  0  0  0  0  0  0  0  0  0  0  0
    0.5020   58.5920   73.6970 C   0  0  0  0  0  0  0  0  0  0  0  0
    1.9100   58.2990   73.2460 C   0  0  0  0  0  0  0  0  0  0  0  0
    2.0460   56.8690   72.7110 C   0  0  0  0  0  0  0  0  0  0  0  0
    1.3270   55.8010   73.5450 C   0  0  0  0  0  0  0  0  0  0  0  0
    0.6360   56.3480   74.7910 C   0  0  0  0  0  0  0  0  0  0  0  0
   -0.1260   57.6070   74.4640 C   0  0  0  0  0  0  0  0  0  0  0  0
   -1.3760   57.7210   74.9550 N   0  0  0  0  0  0  0  0  0  0  0  0
   -2.0570   58.8490   74.7210 C   0  0  0  0  0  0  0  0  0  0  0  0
   -1.5210   59.9240   73.9820 C   0  0  0  0  0  0  0  0  0  0  0  0
   -2.3070   61.0900   73.8220 C   0  0  0  0  0  0  0  0  0  0  0  0
   -3.5930   61.1810   74.3520 C   0  0  0  0  0  0  0  0  0  0  0  0
   -4.1140   60.1070   75.0580 C   0  0  0  0  0  0  0  0  0  0  0  0
   -3.3410   58.9590   75.2370 C   0  0  0  0  0  0  0  0  0  0  0  0
    0.5790   66.2200   70.1290 C   0  0  0  0  0  0  0  0  0  0  0  0
    0.7280   66.9610   68.8010 C   0  0  0  0  0  0  0  0  0  0  0  0
   -0.5880   67.2760   68.0810 C   0  0  0  0  0  0  0  0  0  0  0  0
   -0.4160   67.4220   66.5640 C   0  0  0  0  0  0  0  0  0  0  0  0
    1.0500   67.5570   66.1450 C   0  0  0  0  0  0  0  0  0  0  0  0
    1.3830   68.9300   65.7250 N   0  0  0  0  0  0  0  0  0  0  0  0
    2.7900   69.1560   65.6280 C   0  0  0  0  0  0  0  0  0  0  0  0
    3.4850   68.9540   64.4240 C   0  0  0  0  0  0  0  0  0  0  0  0
    2.8830   68.4240   63.1490 C   0  0  0  0  0  0  0  0  0  0  0  0
    3.8050   67.4020   62.4750 C   0  0  0  0  0  0  0  0  0  0  0  0
    5.2870   67.7980   62.4480 C   0  0  0  0  0  0  0  0  0  0  0  0
    5.5820   69.1550   63.0840 C   0  0  0  0  0  0  0  0  0  0  0  0
    4.8360   69.3070   64.3840 C   0  0  0  0  0  0  0  0  0  0  0  0
    5.5150   69.8120   65.4340 N   0  0  0  0  0  0  0  0  0  0  0  0
    4.8680   69.9570   66.5980 C   0  0  0  0  0  0  0  0  0  0  0  0
    3.5030   69.6390   66.7610 C   0  0  0  0  0  0  0  0  0  0  0  0
    2.9200   69.7980   68.0410 C   0  0  0  0  0  0  0  0  0  0  0  0
    3.6570   70.2820   69.1210 C   0  0  0  0  0  0  0  0  0  0  0  0
    4.9920   70.6100   68.9420 C   0  0  0  0  0  0  0  0  0  0  0  0
    5.5810   70.4420   67.6870 C   0  0  0  0  0  0  0  0  0  0  0  0
    2.6211   65.8672   70.6965 H   0  0  0  0  0  0  0  0  0  0  0  0
    3.5898   63.9698   71.3823 H   0  0  0  0  0  0  0  0  0  0  0  0
    3.5210   63.6278   68.6049 H   0  0  0  0  0  0  0  0  0  0  0  0
    4.9241   63.2109   69.5921 H   0  0  0  0  0  0  0  0  0  0  0  0
    2.6543   61.3993   68.5990 H   0  0  0  0  0  0  0  0  0  0  0  0
    4.3757   61.0752   68.5241 H   0  0  0  0  0  0  0  0  0  0  0  0
    2.9855   59.9401   70.4978 H   0  0  0  0  0  0  0  0  0  0  0  0
    4.4875   60.6897   70.9794 H   0  0  0  0  0  0  0  0  0  0  0  0
    1.7169   61.7167   71.1387 H   0  0  0  0  0  0  0  0  0  0  0  0
    3.1662   60.9009   73.0886 H   0  0  0  0  0  0  0  0  0  0  0  0
    3.0373   62.7422   73.1853 H   0  0  0  0  0  0  0  0  0  0  0  0
    1.2589   61.3380   74.4071 H   0  0  0  0  0  0  0  0  0  0  0  0
    0.7444   62.7137   73.3382 H   0  0  0  0  0  0  0  0  0  0  0  0
    0.1434   60.8827   71.5867 H   0  0  0  0  0  0  0  0  0  0  0  0
    2.1837   59.0058   72.4488 H   0  0  0  0  0  0  0  0  0  0  0  0
    2.5781   58.4065   74.1133 H   0  0  0  0  0  0  0  0  0  0  0  0
    1.6324   56.8437   71.6920 H   0  0  0  0  0  0  0  0  0  0  0  0
    3.1176   56.6237   72.7496 H   0  0  0  0  0  0  0  0  0  0  0  0
    0.5674   55.3204   72.9110 H   0  0  0  0  0  0  0  0  0  0  0  0
    2.0970   55.0960   73.8916 H   0  0  0  0  0  0  0  0  0  0  0  0
   -0.0632   55.5922   75.1781 H   0  0  0  0  0  0  0  0  0  0  0  0
    1.3999   56.5815   75.5472 H   0  0  0  0  0  0  0  0  0  0  0  0
   -1.8934   61.9445   73.2664 H   0  0  0  0  0  0  0  0  0  0  0  0
   -4.1884   62.0952   74.2117 H   0  0  0  0  0  0  0  0  0  0  0  0
   -5.1307   60.1597   75.4745 H   0  0  0  0  0  0  0  0  0  0  0  0
   -3.7619   58.1157   75.8042 H   0  0  0  0  0  0  0  0  0  0  0  0
   -0.3081   65.5717   70.0764 H   0  0  0  0  0  0  0  0  0  0  0  0
    0.4768   66.9701   70.9271 H   0  0  0  0  0  0  0  0  0  0  0  0
    1.2450   67.9118   68.9975 H   0  0  0  0  0  0  0  0  0  0  0  0
    1.2877   66.2874   68.1354 H   0  0  0  0  0  0  0  0  0  0  0  0
   -1.2997   66.4605   68.2770 H   0  0  0  0  0  0  0  0  0  0  0  0
   -0.9540   68.2389   68.4667 H   0  0  0  0  0  0  0  0  0  0  0  0
   -0.8413   66.5333   66.0747 H   0  0  0  0  0  0  0  0  0  0  0  0
   -0.9346   68.3427   66.2583 H   0  0  0  0  0  0  0  0  0  0  0  0
    1.6891   67.2820   66.9970 H   0  0  0  0  0  0  0  0  0  0  0  0
    1.2196   66.8900   65.2869 H   0  0  0  0  0  0  0  0  0  0  0  0
    0.6755   69.6507   65.5227 H   0  0  0  0  0  0  0  0  0  0  0  0
    1.9226   67.9405   63.3811 H   0  0  0  0  0  0  0  0  0  0  0  0
    2.7396   69.2679   62.4581 H   0  0  0  0  0  0  0  0  0  0  0  0
    3.7145   66.4489   63.0166 H   0  0  0  0  0  0  0  0  0  0  0  0
    3.4814   67.3349   61.4258 H   0  0  0  0  0  0  0  0  0  0  0  0
    5.8594   67.0308   62.9900 H   0  0  0  0  0  0  0  0  0  0  0  0
    5.5754   67.8747   61.3893 H   0  0  0  0  0  0  0  0  0  0  0  0
    6.6621   69.2368   63.2757 H   0  0  0  0  0  0  0  0  0  0  0  0
    5.2558   69.9474   62.3942 H   0  0  0  0  0  0  0  0  0  0  0  0
    1.8622   69.5339   68.1868 H   0  0  0  0  0  0  0  0  0  0  0  0
    3.1834   70.4025   70.1065 H   0  0  0  0  0  0  0  0  0  0  0  0
    5.5836   71.0002   69.7833 H   0  0  0  0  0  0  0  0  0  0  0  0
    6.6420   70.7017   67.5568 H   0  0  0  0  0  0  0  0  0  0  0  0
  2  1  2  0
  3  2  1  0
  4  2  1  0
  5  4  1  0
  6  5  1  0
  7  6  1  0
  8  7  1  0
  8  4  1  0
  9  8  1  0
 10  9  1  0
 11 10  1  0
 12 11  1  0
 13 12  1  0
 14 13  1  0
 15 14  1  0
 16 15  1  0
 17 16  1  0
 18 17  1  0
 18 13  2  0
 19 18  1  0
 20 19  2  0
 21 20  1  0
 21 12  2  0
 22 21  1  0
 23 22  2  0
 24 23  1  0
 25 20  1  0
 25 24  2  0
 26  3  1  0
 27 26  1  0
 28 27  1  0
 29 28  1  0
 30 29  1  0
 31 30  1  0
 32 31  1  0
 33 32  1  0
 34 33  1  0
 35 34  1  0
 36 35  1  0
 37 36  1  0
 38 33  2  0
 38 37  1  0
 39 38  1  0
 40 39  2  0
 41 40  1  0
 41 32  2  0
 42 41  1  0
 43 42  2  0
 44 43  1  0
 45 44  2  0
 45 40  1  0
  3 46  1  0
  4 47  1  1
  5 48  1  0
  5 49  1  0
  6 50  1  0
  6 51  1  0
  7 52  1  0
  7 53  1  0
  8 54  1  6
  9 55  1  0
  9 56  1  0
 10 57  1  0
 10 58  1  0
 11 59  1  0
 14 60  1  0
 14 61  1  0
 15 62  1  0
 15 63  1  0
 16 64  1  0
 16 65  1  0
 17 66  1  0
 17 67  1  0
 22 68  1  0
 23 69  1  0
 24 70  1  0
 25 71  1  0
 26 72  1  0
 26 73  1  0
 27 74  1  0
 27 75  1  0
 28 76  1  0
 28 77  1  0
 29 78  1  0
 29 79  1  0
 30 80  1  0
 30 81  1  0
 31 82  1  0
 34 83  1  0
 34 84  1  0
 35 85  1  0
 35 86  1  0
 36 87  1  0
 36 88  1  0
 37 89  1  0
 37 90  1  0
 42 91  1  0
 43 92  1  0
 44 93  1  0
 45 94  1  0
M  CHG  1   8   1
M  END
>  <score>  (1) 
-12.446

$$$$
=
     RDKit          3D

 94100  0  0  0  0  0  0  0  0999 V2000
    2.4250   62.6220   69.6710 O   0  0  0  0  0  0  0  0  0  0  0  0
    2.5050   63.1320   70.7900 C   0  0  0  0  0  0  0  0  0  0  0  0
    1.6240   64.0460   71.3030 N   0  0  0  0  0  0  0  0  0  0  0  0
    3.6730   62.7210   71.7020 C   0  0  2  0  0  0  0  0  0  0  0  0
    4.9590   62.4710   70.9150 C   0  0  0  0  0  0  0  0  0  0  0  0
    5.0620   60.9570   70.7890 C   0  0  0  0  0  0  0  0  0  0  0  0
    4.5250   60.4570   72.1160 C   0  0  0  0  0  0  0  0  0  0  0  0
    3.3530   61.3600   72.3470 N   0  0  1  0  0  4  0  0  0  0  0  0
    2.6880   61.3620   73.6970 C   0  0  0  0  0  0  0  0  0  0  0  0
    1.1490   61.4810   73.6980 C   0  0  0  0  0  0  0  0  0  0  0  0
    0.5120   60.4650   72.8400 N   0  0  0  0  0  0  0  0  0  0  0  0
   -0.1720   59.4980   73.6560 C   0  0  0  0  0  0  0  0  0  0  0  0
    0.4150   58.2550   73.9480 C   0  0  0  0  0  0  0  0  0  0  0  0
    1.8250   57.8460   73.6090 C   0  0  0  0  0  0  0  0  0  0  0  0
    1.8860   56.4070   73.0840 C   0  0  0  0  0  0  0  0  0  0  0  0
    1.0190   55.4060   73.8580 C   0  0  0  0  0  0  0  0  0  0  0  0
    0.2790   56.0140   75.0460 C   0  0  0  0  0  0  0  0  0  0  0  0
   -0.3500   57.3290   74.6620 C   0  0  0  0  0  0  0  0  0  0  0  0
   -1.6210   57.5470   75.0530 N   0  0  0  0  0  0  0  0  0  0  0  0
   -2.1880   58.7250   74.7680 C   0  0  0  0  0  0  0  0  0  0  0  0
   -1.5090   59.7490   74.0740 C   0  0  0  0  0  0  0  0  0  0  0  0
   -2.1830   60.9750   73.8550 C   0  0  0  0  0  0  0  0  0  0  0  0
   -3.4950   61.1730   74.2820 C   0  0  0  0  0  0  0  0  0  0  0  0
   -4.1550   60.1480   74.9440 C   0  0  0  0  0  0  0  0  0  0  0  0
   -3.4950   58.9420   75.1820 C   0  0  0  0  0  0  0  0  0  0  0  0
    0.4790   64.5400   70.5520 C   0  0  0  0  0  0  0  0  0  0  0  0
    0.3790   66.0630   70.6000 C   0  0  0  0  0  0  0  0  0  0  0  0
    1.2040   66.8030   69.5410 C   0  0  0  0  0  0  0  0  0  0  0  0
    0.3590   67.2850   68.3560 C   0  0  0  0  0  0  0  0  0  0  0  0
    1.1750   67.4360   67.0700 C   0  0  0  0  0  0  0  0  0  0  0  0
    1.3060   68.8440   66.6580 N   0  0  0  0  0  0  0  0  0  0  0  0
    2.6280   69.1790   66.2330 C   0  0  0  0  0  0  0  0  0  0  0  0
    3.6000   69.6280   67.1430 C   0  0  0  0  0  0  0  0  0  0  0  0
    3.3710   69.8750   68.6120 C   0  0  0  0  0  0  0  0  0  0  0  0
    4.0470   71.1710   69.0740 C   0  0  0  0  0  0  0  0  0  0  0  0
    5.4680   71.3800   68.5340 C   0  0  0  0  0  0  0  0  0  0  0  0
    5.9680   70.2470   67.6400 C   0  0  0  0  0  0  0  0  0  0  0  0
    4.8980   69.8260   66.6660 C   0  0  0  0  0  0  0  0  0  0  0  0
    5.2680   69.6290   65.3840 N   0  0  0  0  0  0  0  0  0  0  0  0
    4.3320   69.2520   64.5030 C   0  0  0  0  0  0  0  0  0  0  0  0
    2.9890   69.0170   64.8660 C   0  0  0  0  0  0  0  0  0  0  0  0
    2.0700   68.6530   63.8540 C   0  0  0  0  0  0  0  0  0  0  0  0
    2.4700   68.4990   62.5280 C   0  0  0  0  0  0  0  0  0  0  0  0
    3.7980   68.7120   62.1890 C   0  0  0  0  0  0  0  0  0  0  0  0
    4.7100   69.0870   63.1770 C   0  0  0  0  0  0  0  0  0  0  0  0
    1.7776   64.3982   72.2587 H   0  0  0  0  0  0  0  0  0  0  0  0
    3.8051   63.5395   72.4249 H   0  0  0  0  0  0  0  0  0  0  0  0
    4.8996   62.9377   69.9207 H   0  0  0  0  0  0  0  0  0  0  0  0
    5.8381   62.9026   71.4159 H   0  0  0  0  0  0  0  0  0  0  0  0
    4.4496   60.5890   69.9526 H   0  0  0  0  0  0  0  0  0  0  0  0
    6.0858   60.6118   70.5823 H   0  0  0  0  0  0  0  0  0  0  0  0
    4.2101   59.4053   72.0474 H   0  0  0  0  0  0  0  0  0  0  0  0
    5.2664   60.4812   72.9283 H   0  0  0  0  0  0  0  0  0  0  0  0
    2.5421   60.9428   71.8682 H   0  0  0  0  0  0  0  0  0  0  0  0
    2.9523   60.4216   74.2028 H   0  0  0  0  0  0  0  0  0  0  0  0
    3.0537   62.2670   74.2042 H   0  0  0  0  0  0  0  0  0  0  0  0
    0.7844   61.3541   74.7280 H   0  0  0  0  0  0  0  0  0  0  0  0
    0.8863   62.4723   73.3001 H   0  0  0  0  0  0  0  0  0  0  0  0
    0.5510   60.4500   71.8108 H   0  0  0  0  0  0  0  0  0  0  0  0
    2.2173   58.5243   72.8370 H   0  0  0  0  0  0  0  0  0  0  0  0
    2.4290   57.9027   74.5266 H   0  0  0  0  0  0  0  0  0  0  0  0
    1.5529   56.4102   72.0356 H   0  0  0  0  0  0  0  0  0  0  0  0
    2.9278   56.0754   73.2056 H   0  0  0  0  0  0  0  0  0  0  0  0
    0.2750   54.9852   73.1657 H   0  0  0  0  0  0  0  0  0  0  0  0
    1.6995   54.6429   74.2638 H   0  0  0  0  0  0  0  0  0  0  0  0
   -0.5077   55.3195   75.3759 H   0  0  0  0  0  0  0  0  0  0  0  0
    0.9978   56.1888   75.8601 H   0  0  0  0  0  0  0  0  0  0  0  0
   -1.6586   61.7906   73.3355 H   0  0  0  0  0  0  0  0  0  0  0  0
   -4.0015   62.1316   74.0961 H   0  0  0  0  0  0  0  0  0  0  0  0
   -5.1935   60.2854   75.2796 H   0  0  0  0  0  0  0  0  0  0  0  0
   -4.0264   58.1390   75.7137 H   0  0  0  0  0  0  0  0  0  0  0  0
    0.5784   64.2233   69.5033 H   0  0  0  0  0  0  0  0  0  0  0  0
   -0.4319   64.1246   71.0078 H   0  0  0  0  0  0  0  0  0  0  0  0
   -0.6769   66.3395   70.4637 H   0  0  0  0  0  0  0  0  0  0  0  0
    0.7893   66.3661   71.5746 H   0  0  0  0  0  0  0  0  0  0  0  0
    1.6779   67.6766   70.0125 H   0  0  0  0  0  0  0  0  0  0  0  0
    1.9490   66.0951   69.1489 H   0  0  0  0  0  0  0  0  0  0  0  0
   -0.4457   66.5564   68.1784 H   0  0  0  0  0  0  0  0  0  0  0  0
   -0.0396   68.2771   68.6145 H   0  0  0  0  0  0  0  0  0  0  0  0
    2.1797   67.0205   67.2368 H   0  0  0  0  0  0  0  0  0  0  0  0
    0.6475   66.8969   66.2693 H   0  0  0  0  0  0  0  0  0  0  0  0
    0.5261   69.5166   66.6746 H   0  0  0  0  0  0  0  0  0  0  0  0
    2.2894   69.9497   68.7979 H   0  0  0  0  0  0  0  0  0  0  0  0
    3.8073   69.0373   69.1758 H   0  0  0  0  0  0  0  0  0  0  0  0
    3.4269   72.0175   68.7439 H   0  0  0  0  0  0  0  0  0  0  0  0
    4.1372   71.1017   70.1681 H   0  0  0  0  0  0  0  0  0  0  0  0
    5.4822   72.3124   67.9506 H   0  0  0  0  0  0  0  0  0  0  0  0
    6.1371   71.4147   69.4064 H   0  0  0  0  0  0  0  0  0  0  0  0
    6.8505   70.5909   67.0806 H   0  0  0  0  0  0  0  0  0  0  0  0
    6.2292   69.3859   68.2727 H   0  0  0  0  0  0  0  0  0  0  0  0
    1.0155   68.4877   64.1199 H   0  0  0  0  0  0  0  0  0  0  0  0
    1.7395   68.2113   61.7575 H   0  0  0  0  0  0  0  0  0  0  0  0
    4.1304   68.5862   61.1480 H   0  0  0  0  0  0  0  0  0  0  0  0
    5.7600   69.2570   62.8967 H   0  0  0  0  0  0  0  0  0  0  0  0
  2  1  2  0
  3  2  1  0
  4  2  1  0
  5  4  1  0
  6  5  1  0
  7  6  1  0
  8  7  1  0
  8  4  1  0
  9  8  1  0
 10  9  1  0
 11 10  1  0
 12 11  1  0
 13 12  1  0
 14 13  1  0
 15 14  1  0
 16 15  1  0
 17 16  1  0
 18 17  1  0
 18 13  2  0
 19 18  1  0
 20 19  2  0
 21 20  1  0
 21 12  2  0
 22 21  1  0
 23 22  2  0
 24 23  1  0
 25 20  1  0
 25 24  2  0
 26  3  1  0
 27 26  1  0
 28 27  1  0
 29 28  1  0
 30 29  1  0
 31 30  1  0
 32 31  1  0
 33 32  1  0
 34 33  1  0
 35 34  1  0
 36 35  1  0
 37 36  1  0
 38 33  2  0
 38 37  1  0
 39 38  1  0
 40 39  2  0
 41 40  1  0
 41 32  2  0
 42 41  1  0
 43 42  2  0
 44 43  1  0
 45 44  2  0
 45 40  1  0
  3 46  1  0
  4 47  1  1
  5 48  1  0
  5 49  1  0
  6 50  1  0
  6 51  1  0
  7 52  1  0
  7 53  1  0
  8 54  1  6
  9 55  1  0
  9 56  1  0
 10 57  1  0
 10 58  1  0
 11 59  1  0
 14 60  1  0
 14 61  1  0
 15 62  1  0
 15 63  1  0
 16 64  1  0
 16 65  1  0
 17 66  1  0
 17 67  1  0
 22 68  1  0
 23 69  1  0
 24 70  1  0
 25 71  1  0
 26 72  1  0
 26 73  1  0
 27 74  1  0
 27 75  1  0
 28 76  1  0
 28 77  1  0
 29 78  1  0
 29 79  1  0
 30 80  1  0
 30 81  1  0
 31 82  1  0
 34 83  1  0
 34 84  1  0
 35 85  1  0
 35 86  1  0
 36 87  1  0
 36 88  1  0
 37 89  1  0
 37 90  1  0
 42 91  1  0
 43 92  1  0
 44 93  1  0
 45 94  1  0
M  CHG  1   8   1
M  END
>  <score>  (2) 
-12.281

$$$$
=
     RDKit          3D

 94100  0  0  0  0  0  0  0  0999 V2000
    2.1770   62.7120   69.2100 O   0  0  0  0  0  0  0  0  0  0  0  0
    2.3640   63.1090   70.3620 C   0  0  0  0  0  0  0  0  0  0  0  0
    1.5490   63.9800   71.0350 N   0  0  0  0  0  0  0  0  0  0  0  0
    3.5970   62.5970   71.1240 C   0  0  2  0  0  0  0  0  0  0  0  0
    4.6380   61.9800   70.1890 C   0  0  0  0  0  0  0  0  0  0  0  0
    4.4440   60.4750   70.3140 C   0  0  0  0  0  0  0  0  0  0  0  0
    4.0990   60.2850   71.7780 C   0  0  0  0  0  0  0  0  0  0  0  0
    3.1750   61.4340   72.0400 N   0  0  1  0  0  4  0  0  0  0  0  0
    2.8000   61.7600   73.4610 C   0  0  0  0  0  0  0  0  0  0  0  0
    1.4340   61.2300   73.9440 C   0  0  0  0  0  0  0  0  0  0  0  0
    0.7190   60.4890   72.8870 N   0  0  0  0  0  0  0  0  0  0  0  0
   -0.1670   59.5260   73.4820 C   0  0  0  0  0  0  0  0  0  0  0  0
   -1.4060   59.9190   74.0170 C   0  0  0  0  0  0  0  0  0  0  0  0
   -2.0200   61.2910   73.9010 C   0  0  0  0  0  0  0  0  0  0  0  0
   -2.6580   61.7380   75.2210 C   0  0  0  0  0  0  0  0  0  0  0  0
   -3.4670   60.6530   75.9420 C   0  0  0  0  0  0  0  0  0  0  0  0
   -3.5310   59.3250   75.1920 C   0  0  0  0  0  0  0  0  0  0  0  0
   -2.1690   58.9470   74.6690 C   0  0  0  0  0  0  0  0  0  0  0  0
   -1.7700   57.6710   74.8430 N   0  0  0  0  0  0  0  0  0  0  0  0
   -0.5860   57.2950   74.3450 C   0  0  0  0  0  0  0  0  0  0  0  0
    0.2620   58.1790   73.6460 C   0  0  0  0  0  0  0  0  0  0  0  0
    1.4780   57.6750   73.1240 C   0  0  0  0  0  0  0  0  0  0  0  0
    1.8560   56.3460   73.3110 C   0  0  0  0  0  0  0  0  0  0  0  0
    1.0210   55.4960   74.0190 C   0  0  0  0  0  0  0  0  0  0  0  0
   -0.1890   55.9770   74.5230 C   0  0  0  0  0  0  0  0  0  0  0  0
    0.3550   64.5590   70.4390 C   0  0  0  0  0  0  0  0  0  0  0  0
    0.3290   66.0800   70.5740 C   0  0  0  0  0  0  0  0  0  0  0  0
    1.2020   66.8370   69.5660 C   0  0  0  0  0  0  0  0  0  0  0  0
    0.4100   67.3410   68.3530 C   0  0  0  0  0  0  0  0  0  0  0  0
    1.2680   67.4520   67.0910 C   0  0  0  0  0  0  0  0  0  0  0  0
    1.3810   68.8420   66.6160 N   0  0  0  0  0  0  0  0  0  0  0  0
    2.7110   69.1940   66.2320 C   0  0  0  0  0  0  0  0  0  0  0  0
    3.6520   69.6430   67.1730 C   0  0  0  0  0  0  0  0  0  0  0  0
    3.3790   69.8760   68.6370 C   0  0  0  0  0  0  0  0  0  0  0  0
    4.0290   71.1730   69.1300 C   0  0  0  0  0  0  0  0  0  0  0  0
    5.4620   71.4000   68.6320 C   0  0  0  0  0  0  0  0  0  0  0  0
    5.9990   70.2810   67.7430 C   0  0  0  0  0  0  0  0  0  0  0  0
    4.9610   69.8580   66.7350 C   0  0  0  0  0  0  0  0  0  0  0  0
    5.3700   69.6760   65.4630 N   0  0  0  0  0  0  0  0  0  0  0  0
    4.4630   69.2970   64.5520 C   0  0  0  0  0  0  0  0  0  0  0  0
    3.1120   69.0470   64.8750 C   0  0  0  0  0  0  0  0  0  0  0  0
    2.2260   68.6830   63.8330 C   0  0  0  0  0  0  0  0  0  0  0  0
    2.6650   68.5440   62.5180 C   0  0  0  0  0  0  0  0  0  0  0  0
    4.0000   68.7740   62.2180 C   0  0  0  0  0  0  0  0  0  0  0  0
    4.8800   69.1490   63.2360 C   0  0  0  0  0  0  0  0  0  0  0  0
    1.7915   64.2356   72.0029 H   0  0  0  0  0  0  0  0  0  0  0  0
    4.0117   63.4629   71.6609 H   0  0  0  0  0  0  0  0  0  0  0  0
    4.4672   62.3063   69.1525 H   0  0  0  0  0  0  0  0  0  0  0  0
    5.6610   62.2862   70.4532 H   0  0  0  0  0  0  0  0  0  0  0  0
    3.6235   60.1290   69.6682 H   0  0  0  0  0  0  0  0  0  0  0  0
    5.3295   59.9009   70.0037 H   0  0  0  0  0  0  0  0  0  0  0  0
    3.5949   59.3220   71.9467 H   0  0  0  0  0  0  0  0  0  0  0  0
    4.9781   60.2673   72.4389 H   0  0  0  0  0  0  0  0  0  0  0  0
    2.2249   61.1309   71.7826 H   0  0  0  0  0  0  0  0  0  0  0  0
    3.5749   61.3380   74.1178 H   0  0  0  0  0  0  0  0  0  0  0  0
    2.7208   62.8564   73.5003 H   0  0  0  0  0  0  0  0  0  0  0  0
    1.5970   60.5581   74.7995 H   0  0  0  0  0  0  0  0  0  0  0  0
    0.8166   62.0953   74.2269 H   0  0  0  0  0  0  0  0  0  0  0  0
    0.8370   60.6392   71.8749 H   0  0  0  0  0  0  0  0  0  0  0  0
   -1.2360   62.0104   73.6220 H   0  0  0  0  0  0  0  0  0  0  0  0
   -2.8080   61.2512   73.1345 H   0  0  0  0  0  0  0  0  0  0  0  0
   -1.8544   62.0705   75.8945 H   0  0  0  0  0  0  0  0  0  0  0  0
   -3.3689   62.5380   74.9670 H   0  0  0  0  0  0  0  0  0  0  0  0
   -3.0062   60.4735   76.9246 H   0  0  0  0  0  0  0  0  0  0  0  0
   -4.4994   61.0246   76.0199 H   0  0  0  0  0  0  0  0  0  0  0  0
   -3.8867   58.5401   75.8757 H   0  0  0  0  0  0  0  0  0  0  0  0
   -4.2215   59.4297   74.3422 H   0  0  0  0  0  0  0  0  0  0  0  0
    2.1395   58.3473   72.5580 H   0  0  0  0  0  0  0  0  0  0  0  0
    2.8072   55.9759   72.9008 H   0  0  0  0  0  0  0  0  0  0  0  0
    1.3102   54.4475   74.1831 H   0  0  0  0  0  0  0  0  0  0  0  0
   -0.8468   55.2914   75.0773 H   0  0  0  0  0  0  0  0  0  0  0  0
    0.3280   64.2966   69.3711 H   0  0  0  0  0  0  0  0  0  0  0  0
   -0.5199   64.1555   70.9698 H   0  0  0  0  0  0  0  0  0  0  0  0
   -0.7104   66.4160   70.4446 H   0  0  0  0  0  0  0  0  0  0  0  0
    0.7418   66.3066   71.5681 H   0  0  0  0  0  0  0  0  0  0  0  0
    1.6553   67.7014   70.0734 H   0  0  0  0  0  0  0  0  0  0  0  0
    1.9636   66.1352   69.1954 H   0  0  0  0  0  0  0  0  0  0  0  0
   -0.4156   66.6412   68.1566 H   0  0  0  0  0  0  0  0  0  0  0  0
    0.0411   68.3491   68.5932 H   0  0  0  0  0  0  0  0  0  0  0  0
    2.2755   67.0703   67.3128 H   0  0  0  0  0  0  0  0  0  0  0  0
    0.7823   66.8627   66.2992 H   0  0  0  0  0  0  0  0  0  0  0  0
    0.5838   69.4923   66.5660 H   0  0  0  0  0  0  0  0  0  0  0  0
    2.2919   69.9396   68.7922 H   0  0  0  0  0  0  0  0  0  0  0  0
    3.8074   69.0375   69.2057 H   0  0  0  0  0  0  0  0  0  0  0  0
    3.4104   72.0170   68.7908 H   0  0  0  0  0  0  0  0  0  0  0  0
    4.0891   71.0941   70.2255 H   0  0  0  0  0  0  0  0  0  0  0  0
    5.4832   72.3377   68.0573 H   0  0  0  0  0  0  0  0  0  0  0  0
    6.1056   71.4325   69.5235 H   0  0  0  0  0  0  0  0  0  0  0  0
    6.8933   70.6391   67.2120 H   0  0  0  0  0  0  0  0  0  0  0  0
    6.2515   69.4169   68.3751 H   0  0  0  0  0  0  0  0  0  0  0  0
    1.1659   68.5057   64.0669 H   0  0  0  0  0  0  0  0  0  0  0  0
    1.9597   68.2546   61.7250 H   0  0  0  0  0  0  0  0  0  0  0  0
    4.3629   68.6618   61.1857 H   0  0  0  0  0  0  0  0  0  0  0  0
    5.9357   69.3327   62.9874 H   0  0  0  0  0  0  0  0  0  0  0  0
  2  1  2  0
  3  2  1  0
  4  2  1  0
  5  4  1  0
  6  5  1  0
  7  6  1  0
  8  7  1  0
  8  4  1  0
  9  8  1  0
 10  9  1  0
 11 10  1  0
 12 11  1  0
 13 12  1  0
 14 13  1  0
 15 14  1  0
 16 15  1  0
 17 16  1  0
 18 17  1  0
 18 13  2  0
 19 18  1  0
 20 19  2  0
 21 20  1  0
 21 12  2  0
 22 21  1  0
 23 22  2  0
 24 23  1  0
 25 20  1  0
 25 24  2  0
 26  3  1  0
 27 26  1  0
 28 27  1  0
 29 28  1  0
 30 29  1  0
 31 30  1  0
 32 31  1  0
 33 32  1  0
 34 33  1  0
 35 34  1  0
 36 35  1  0
 37 36  1  0
 38 33  2  0
 38 37  1  0
 39 38  1  0
 40 39  2  0
 41 40  1  0
 41 32  2  0
 42 41  1  0
 43 42  2  0
 44 43  1  0
 45 44  2  0
 45 40  1  0
  3 46  1  0
  4 47  1  1
  5 48  1  0
  5 49  1  0
  6 50  1  0
  6 51  1  0
  7 52  1  0
  7 53  1  0
  8 54  1  6
  9 55  1  0
  9 56  1  0
 10 57  1  0
 10 58  1  0
 11 59  1  0
 14 60  1  0
 14 61  1  0
 15 62  1  0
 15 63  1  0
 16 64  1  0
 16 65  1  0
 17 66  1  0
 17 67  1  0
 22 68  1  0
 23 69  1  0
 24 70  1  0
 25 71  1  0
 26 72  1  0
 26 73  1  0
 27 74  1  0
 27 75  1  0
 28 76  1  0
 28 77  1  0
 29 78  1  0
 29 79  1  0
 30 80  1  0
 30 81  1  0
 31 82  1  0
 34 83  1  0
 34 84  1  0
 35 85  1  0
 35 86  1  0
 36 87  1  0
 36 88  1  0
 37 89  1  0
 37 90  1  0
 42 91  1  0
 43 92  1  0
 44 93  1  0
 45 94  1  0
M  CHG  1   8   1
M  END
>  <score>  (3) 
-12.263

$$$$
=
     RDKit          3D

 94100  0  0  0  0  0  0  0  0999 V2000
    1.1950   62.4570   70.8240 O   0  0  0  0  0  0  0  0  0  0  0  0
    2.0740   63.3210   70.8290 C   0  0  0  0  0  0  0  0  0  0  0  0
    1.8640   64.6570   70.6140 N   0  0  0  0  0  0  0  0  0  0  0  0
    3.5250   62.8910   71.1000 C   0  0  2  0  0  0  0  0  0  0  0  0
    4.3450   62.7850   69.8140 C   0  0  0  0  0  0  0  0  0  0  0  0
    4.3960   61.2970   69.4960 C   0  0  0  0  0  0  0  0  0  0  0  0
    4.4910   60.6480   70.8620 C   0  0  0  0  0  0  0  0  0  0  0  0
    3.5280   61.4610   71.6700 N   0  0  1  0  0  4  0  0  0  0  0  0
    3.5130   61.3020   73.1670 C   0  0  0  0  0  0  0  0  0  0  0  0
    2.3860   60.4230   73.7480 C   0  0  0  0  0  0  0  0  0  0  0  0
    1.4880   59.9050   72.6980 N   0  0  0  0  0  0  0  0  0  0  0  0
    0.3500   59.2670   73.3040 C   0  0  0  0  0  0  0  0  0  0  0  0
   -0.7630   60.0180   73.7190 C   0  0  0  0  0  0  0  0  0  0  0  0
   -0.9830   61.4850   73.4550 C   0  0  0  0  0  0  0  0  0  0  0  0
   -1.5400   62.2040   74.6890 C   0  0  0  0  0  0  0  0  0  0  0  0
   -2.6420   61.4390   75.4340 C   0  0  0  0  0  0  0  0  0  0  0  0
   -3.0220   60.1110   74.7870 C   0  0  0  0  0  0  0  0  0  0  0  0
   -1.7860   59.3430   74.3890 C   0  0  0  0  0  0  0  0  0  0  0  0
   -1.7500   58.0290   74.6890 N   0  0  0  0  0  0  0  0  0  0  0  0
   -0.6870   57.3130   74.3050 C   0  0  0  0  0  0  0  0  0  0  0  0
    0.3970   57.8750   73.6000 C   0  0  0  0  0  0  0  0  0  0  0  0
    1.4580   57.0250   73.2040 C   0  0  0  0  0  0  0  0  0  0  0  0
    1.4600   55.6680   73.5190 C   0  0  0  0  0  0  0  0  0  0  0  0
    0.3970   55.1340   74.2320 C   0  0  0  0  0  0  0  0  0  0  0  0
   -0.6630   55.9590   74.6120 C   0  0  0  0  0  0  0  0  0  0  0  0
    0.5480   65.2100   70.3310 C   0  0  0  0  0  0  0  0  0  0  0  0
    0.6360   66.5380   69.5800 C   0  0  0  0  0  0  0  0  0  0  0  0
   -0.5230   66.8170   68.6160 C   0  0  0  0  0  0  0  0  0  0  0  0
   -0.0750   67.5410   67.3400 C   0  0  0  0  0  0  0  0  0  0  0  0
    1.4180   67.8760   67.3440 C   0  0  0  0  0  0  0  0  0  0  0  0
    1.6950   69.1870   66.7320 N   0  0  0  0  0  0  0  0  0  0  0  0
    3.0600   69.3420   66.3400 C   0  0  0  0  0  0  0  0  0  0  0  0
    3.4810   69.0780   65.0260 C   0  0  0  0  0  0  0  0  0  0  0  0
    2.6050   68.5490   63.9200 C   0  0  0  0  0  0  0  0  0  0  0  0
    3.3220   67.4680   63.1040 C   0  0  0  0  0  0  0  0  0  0  0  0
    4.7820   67.7900   62.7600 C   0  0  0  0  0  0  0  0  0  0  0  0
    5.2610   69.1440   63.2760 C   0  0  0  0  0  0  0  0  0  0  0  0
    4.8080   69.3630   64.6970 C   0  0  0  0  0  0  0  0  0  0  0  0
    5.7110   69.8580   65.5680 N   0  0  0  0  0  0  0  0  0  0  0  0
    5.3270   70.0620   66.8350 C   0  0  0  0  0  0  0  0  0  0  0  0
    4.0120   69.8150   67.2850 C   0  0  0  0  0  0  0  0  0  0  0  0
    3.7150   70.0320   68.6520 C   0  0  0  0  0  0  0  0  0  0  0  0
    4.6800   70.5030   69.5410 C   0  0  0  0  0  0  0  0  0  0  0  0
    5.9620   70.7610   69.0800 C   0  0  0  0  0  0  0  0  0  0  0  0
    6.2700   70.5350   67.7370 C   0  0  0  0  0  0  0  0  0  0  0  0
    2.6704   65.2966   70.6542 H   0  0  0  0  0  0  0  0  0  0  0  0
    3.9504   63.6448   71.7789 H   0  0  0  0  0  0  0  0  0  0  0  0
    3.8563   63.3375   68.9980 H   0  0  0  0  0  0  0  0  0  0  0  0
    5.3505   63.2157   69.9303 H   0  0  0  0  0  0  0  0  0  0  0  0
    3.4848   60.9756   68.9702 H   0  0  0  0  0  0  0  0  0  0  0  0
    5.2324   61.0281   68.8341 H   0  0  0  0  0  0  0  0  0  0  0  0
    4.1859   59.5919   70.8232 H   0  0  0  0  0  0  0  0  0  0  0  0
    5.5109   60.6363   71.2738 H   0  0  0  0  0  0  0  0  0  0  0  0
    2.5935   61.0462   71.5451 H   0  0  0  0  0  0  0  0  0  0  0  0
    4.4735   60.8575   73.4668 H   0  0  0  0  0  0  0  0  0  0  0  0
    3.3356   62.3108   73.5681 H   0  0  0  0  0  0  0  0  0  0  0  0
    2.8379   59.5725   74.2794 H   0  0  0  0  0  0  0  0  0  0  0  0
    1.7871   61.0464   74.4282 H   0  0  0  0  0  0  0  0  0  0  0  0
    1.6513   59.9877   71.6844 H   0  0  0  0  0  0  0  0  0  0  0  0
   -0.0235   61.9453   73.1767 H   0  0  0  0  0  0  0  0  0  0  0  0
   -1.7163   61.5815   72.6408 H   0  0  0  0  0  0  0  0  0  0  0  0
   -0.7093   62.3764   75.3891 H   0  0  0  0  0  0  0  0  0  0  0  0
   -1.9996   63.1348   74.3251 H   0  0  0  0  0  0  0  0  0  0  0  0
   -2.2920   61.2375   76.4572 H   0  0  0  0  0  0  0  0  0  0  0  0
   -3.5407   62.0729   75.4106 H   0  0  0  0  0  0  0  0  0  0  0  0
   -3.6044   59.5131   75.5034 H   0  0  0  0  0  0  0  0  0  0  0  0
   -3.6201   60.3130   73.8862 H   0  0  0  0  0  0  0  0  0  0  0  0
    2.2999   57.4458   72.6346 H   0  0  0  0  0  0  0  0  0  0  0  0
    2.2965   55.0263   73.2053 H   0  0  0  0  0  0  0  0  0  0  0  0
    0.3892   54.0663   74.4966 H   0  0  0  0  0  0  0  0  0  0  0  0
   -1.5042   55.5236   75.1712 H   0  0  0  0  0  0  0  0  0  0  0  0
   -0.0150   64.4913   69.7174 H   0  0  0  0  0  0  0  0  0  0  0  0
    0.0428   65.3945   71.2906 H   0  0  0  0  0  0  0  0  0  0  0  0
    0.6641   67.3486   70.3230 H   0  0  0  0  0  0  0  0  0  0  0  0
    1.5432   66.4805   68.9605 H   0  0  0  0  0  0  0  0  0  0  0  0
   -0.9830   65.8587   68.3330 H   0  0  0  0  0  0  0  0  0  0  0  0
   -1.2352   67.4742   69.1365 H   0  0  0  0  0  0  0  0  0  0  0  0
   -0.2883   66.8950   66.4756 H   0  0  0  0  0  0  0  0  0  0  0  0
   -0.6282   68.4902   67.2851 H   0  0  0  0  0  0  0  0  0  0  0  0
    1.7758   67.8878   68.3841 H   0  0  0  0  0  0  0  0  0  0  0  0
    1.9380   67.1094   66.7508 H   0  0  0  0  0  0  0  0  0  0  0  0
    0.9792   69.9159   66.6004 H   0  0  0  0  0  0  0  0  0  0  0  0
    1.6937   68.1186   64.3607 H   0  0  0  0  0  0  0  0  0  0  0  0
    2.3581   69.3829   63.2465 H   0  0  0  0  0  0  0  0  0  0  0  0
    3.3042   66.5329   63.6830 H   0  0  0  0  0  0  0  0  0  0  0  0
    2.7855   67.3932   62.1466 H   0  0  0  0  0  0  0  0  0  0  0  0
    5.4203   67.0083   63.1977 H   0  0  0  0  0  0  0  0  0  0  0  0
    4.8478   67.8280   61.6626 H   0  0  0  0  0  0  0  0  0  0  0  0
    6.3599   69.1767   63.2382 H   0  0  0  0  0  0  0  0  0  0  0  0
    4.8337   69.9353   62.6425 H   0  0  0  0  0  0  0  0  0  0  0  0
    2.6998   69.8243   69.0211 H   0  0  0  0  0  0  0  0  0  0  0  0
    4.4267   70.6685   70.5986 H   0  0  0  0  0  0  0  0  0  0  0  0
    6.7315   71.1413   69.7679 H   0  0  0  0  0  0  0  0  0  0  0  0
    7.2915   70.7381   67.3829 H   0  0  0  0  0  0  0  0  0  0  0  0
  2  1  2  0
  3  2  1  0
  4  2  1  0
  5  4  1  0
  6  5  1  0
  7  6  1  0
  8  7  1  0
  8  4  1  0
  9  8  1  0
 10  9  1  0
 11 10  1  0
 12 11  1  0
 13 12  1  0
 14 13  1  0
 15 14  1  0
 16 15  1  0
 17 16  1  0
 18 17  1  0
 18 13  2  0
 19 18  1  0
 20 19  2  0
 21 20  1  0
 21 12  2  0
 22 21  1  0
 23 22  2  0
 24 23  1  0
 25 20  1  0
 25 24  2  0
 26  3  1  0
 27 26  1  0
 28 27  1  0
 29 28  1  0
 30 29  1  0
 31 30  1  0
 32 31  1  0
 33 32  1  0
 34 33  1  0
 35 34  1  0
 36 35  1  0
 37 36  1  0
 38 33  2  0
 38 37  1  0
 39 38  1  0
 40 39  2  0
 41 40  1  0
 41 32  2  0
 42 41  1  0
 43 42  2  0
 44 43  1  0
 45 44  2  0
 45 40  1  0
  3 46  1  0
  4 47  1  1
  5 48  1  0
  5 49  1  0
  6 50  1  0
  6 51  1  0
  7 52  1  0
  7 53  1  0
  8 54  1  6
  9 55  1  0
  9 56  1  0
 10 57  1  0
 10 58  1  0
 11 59  1  0
 14 60  1  0
 14 61  1  0
 15 62  1  0
 15 63  1  0
 16 64  1  0
 16 65  1  0
 17 66  1  0
 17 67  1  0
 22 68  1  0
 23 69  1  0
 24 70  1  0
 25 71  1  0
 26 72  1  0
 26 73  1  0
 27 74  1  0
 27 75  1  0
 28 76  1  0
 28 77  1  0
 29 78  1  0
 29 79  1  0
 30 80  1  0
 30 81  1  0
 31 82  1  0
 34 83  1  0
 34 84  1  0
 35 85  1  0
 35 86  1  0
 36 87  1  0
 36 88  1  0
 37 89  1  0
 37 90  1  0
 42 91  1  0
 43 92  1  0
 44 93  1  0
 45 94  1  0
M  CHG  1   8   1
M  END
>  <score>  (4) 
-12.086

$$$$
=
     RDKit          3D

 94100  0  0  0  0  0  0  0  0999 V2000
    0.8110   66.6240   67.7740 O   0  0  0  0  0  0  0  0  0  0  0  0
   -0.0050   66.9020   68.6540 C   0  0  0  0  0  0  0  0  0  0  0  0
   -0.0190   66.3630   69.9140 N   0  0  0  0  0  0  0  0  0  0  0  0
   -1.1010   67.9340   68.3400 C   0  0  2  0  0  0  0  0  0  0  0  0
   -2.3280   67.2940   67.6900 C   0  0  0  0  0  0  0  0  0  0  0  0
   -2.1920   67.5930   66.2030 C   0  0  0  0  0  0  0  0  0  0  0  0
   -1.5920   68.9840   66.1780 C   0  0  0  0  0  0  0  0  0  0  0  0
   -0.5770   68.9160   67.2770 N   0  0  1  0  0  4  0  0  0  0  0  0
    0.0710   70.1870   67.7530 C   0  0  0  0  0  0  0  0  0  0  0  0
    1.6070   70.1570   67.8980 C   0  0  0  0  0  0  0  0  0  0  0  0
    2.2090   69.0090   67.1930 N   0  0  0  0  0  0  0  0  0  0  0  0
    3.4460   69.4100   66.5790 C   0  0  0  0  0  0  0  0  0  0  0  0
    3.6780   69.1870   65.2110 C   0  0  0  0  0  0  0  0  0  0  0  0
    2.6650   68.6780   64.2170 C   0  0  0  0  0  0  0  0  0  0  0  0
    3.2760   67.6400   63.2690 C   0  0  0  0  0  0  0  0  0  0  0  0
    4.6740   67.9940   62.7450 C   0  0  0  0  0  0  0  0  0  0  0  0
    5.1950   69.3440   63.2290 C   0  0  0  0  0  0  0  0  0  0  0  0
    4.9400   69.5110   64.7060 C   0  0  0  0  0  0  0  0  0  0  0  0
    5.9500   69.9910   65.4590 N   0  0  0  0  0  0  0  0  0  0  0  0
    5.7370   70.1950   66.7640 C   0  0  0  0  0  0  0  0  0  0  0  0
    4.4980   69.9300   67.3850 C   0  0  0  0  0  0  0  0  0  0  0  0
    4.3610   70.2150   68.7640 C   0  0  0  0  0  0  0  0  0  0  0  0
    5.4220   70.7220   69.5130 C   0  0  0  0  0  0  0  0  0  0  0  0
    6.6400   70.9580   68.8930 C   0  0  0  0  0  0  0  0  0  0  0  0
    6.7810   70.6960   67.5290 C   0  0  0  0  0  0  0  0  0  0  0  0
    0.9450   65.3650   70.3510 C   0  0  0  0  0  0  0  0  0  0  0  0
    0.4650   64.6110   71.5900 C   0  0  0  0  0  0  0  0  0  0  0  0
   -0.0310   63.1840   71.3310 C   0  0  0  0  0  0  0  0  0  0  0  0
    0.3040   62.2210   72.4760 C   0  0  0  0  0  0  0  0  0  0  0  0
    1.2340   62.8440   73.5200 C   0  0  0  0  0  0  0  0  0  0  0  0
    2.4840   62.0800   73.6780 N   0  0  0  0  0  0  0  0  0  0  0  0
    2.6910   61.1290   72.6320 C   0  0  0  0  0  0  0  0  0  0  0  0
    3.3140   61.4880   71.4250 C   0  0  0  0  0  0  0  0  0  0  0  0
    3.7620   62.8790   71.0560 C   0  0  0  0  0  0  0  0  0  0  0  0
    3.4140   63.2120   69.6010 C   0  0  0  0  0  0  0  0  0  0  0  0
    3.7020   62.0860   68.6000 C   0  0  0  0  0  0  0  0  0  0  0  0
    4.3030   60.8310   69.2280 C   0  0  0  0  0  0  0  0  0  0  0  0
    3.5800   60.4750   70.5020 C   0  0  0  0  0  0  0  0  0  0  0  0
    3.2600   59.1780   70.6920 N   0  0  0  0  0  0  0  0  0  0  0  0
    2.6190   58.8410   71.8190 C   0  0  0  0  0  0  0  0  0  0  0  0
    2.2990   59.7750   72.8270 C   0  0  0  0  0  0  0  0  0  0  0  0
    1.5910   59.3230   73.9660 C   0  0  0  0  0  0  0  0  0  0  0  0
    1.2330   57.9850   74.1180 C   0  0  0  0  0  0  0  0  0  0  0  0
    1.5720   57.0740   73.1290 C   0  0  0  0  0  0  0  0  0  0  0  0
    2.2560   57.5120   71.9930 C   0  0  0  0  0  0  0  0  0  0  0  0
   -0.7409   66.6771   70.5781 H   0  0  0  0  0  0  0  0  0  0  0  0
   -1.3641   68.4082   69.2970 H   0  0  0  0  0  0  0  0  0  0  0  0
   -2.3360   66.2082   67.8662 H   0  0  0  0  0  0  0  0  0  0  0  0
   -3.2669   67.6890   68.1052 H   0  0  0  0  0  0  0  0  0  0  0  0
   -1.5244   66.8675   65.7151 H   0  0  0  0  0  0  0  0  0  0  0  0
   -3.1479   67.5279   65.6627 H   0  0  0  0  0  0  0  0  0  0  0  0
   -1.1159   69.1947   65.2090 H   0  0  0  0  0  0  0  0  0  0  0  0
   -2.3336   69.7851   66.3135 H   0  0  0  0  0  0  0  0  0  0  0  0
    0.2931   68.5420   66.8722 H   0  0  0  0  0  0  0  0  0  0  0  0
   -0.1828   70.9817   67.0361 H   0  0  0  0  0  0  0  0  0  0  0  0
   -0.3170   70.3521   68.7690 H   0  0  0  0  0  0  0  0  0  0  0  0
    2.0209   71.0865   67.4801 H   0  0  0  0  0  0  0  0  0  0  0  0
    1.8443   70.0598   68.9677 H   0  0  0  0  0  0  0  0  0  0  0  0
    1.8042   68.0630   67.1475 H   0  0  0  0  0  0  0  0  0  0  0  0
    1.8304   68.2146   64.7635 H   0  0  0  0  0  0  0  0  0  0  0  0
    2.3159   69.5299   63.6150 H   0  0  0  0  0  0  0  0  0  0  0  0
    3.3440   66.6829   63.8069 H   0  0  0  0  0  0  0  0  0  0  0  0
    2.6166   67.5966   62.3896 H   0  0  0  0  0  0  0  0  0  0  0  0
    5.3752   67.2138   63.0760 H   0  0  0  0  0  0  0  0  0  0  0  0
    4.5966   68.0570   61.6495 H   0  0  0  0  0  0  0  0  0  0  0  0
    6.2770   69.4033   63.0397 H   0  0  0  0  0  0  0  0  0  0  0  0
    4.6700   70.1432   62.6852 H   0  0  0  0  0  0  0  0  0  0  0  0
    3.3947   70.0323   69.2568 H   0  0  0  0  0  0  0  0  0  0  0  0
    5.2944   70.9328   70.5851 H   0  0  0  0  0  0  0  0  0  0  0  0
    7.4894   71.3491   69.4723 H   0  0  0  0  0  0  0  0  0  0  0  0
    7.7494   70.8927   67.0457 H   0  0  0  0  0  0  0  0  0  0  0  0
    1.1042   64.6439   69.5357 H   0  0  0  0  0  0  0  0  0  0  0  0
    1.8792   65.8849   70.6098 H   0  0  0  0  0  0  0  0  0  0  0  0
    1.3021   64.5569   72.3016 H   0  0  0  0  0  0  0  0  0  0  0  0
   -0.4004   65.1713   71.9735 H   0  0  0  0  0  0  0  0  0  0  0  0
   -1.1231   63.2097   71.2016 H   0  0  0  0  0  0  0  0  0  0  0  0
    0.4785   62.8152   70.4286 H   0  0  0  0  0  0  0  0  0  0  0  0
   -0.6323   61.9243   72.9714 H   0  0  0  0  0  0  0  0  0  0  0  0
    0.8260   61.3563   72.0404 H   0  0  0  0  0  0  0  0  0  0  0  0
    1.4823   63.8688   73.2067 H   0  0  0  0  0  0  0  0  0  0  0  0
    0.7093   62.8371   74.4868 H   0  0  0  0  0  0  0  0  0  0  0  0
    3.1397   62.2171   74.4604 H   0  0  0  0  0  0  0  0  0  0  0  0
    3.2635   63.6027   71.7177 H   0  0  0  0  0  0  0  0  0  0  0  0
    4.8547   62.9323   71.1711 H   0  0  0  0  0  0  0  0  0  0  0  0
    2.3410   63.4491   69.5508 H   0  0  0  0  0  0  0  0  0  0  0  0
    4.0574   64.0564   69.3128 H   0  0  0  0  0  0  0  0  0  0  0  0
    2.7565   61.8085   68.1110 H   0  0  0  0  0  0  0  0  0  0  0  0
    4.4489   62.4748   67.8922 H   0  0  0  0  0  0  0  0  0  0  0  0
    4.2169   59.9951   68.5181 H   0  0  0  0  0  0  0  0  0  0  0  0
    5.3601   61.0242   69.4630 H   0  0  0  0  0  0  0  0  0  0  0  0
    1.3169   60.0448   74.7495 H   0  0  0  0  0  0  0  0  0  0  0  0
    0.6868   57.6546   75.0138 H   0  0  0  0  0  0  0  0  0  0  0  0
    1.3038   56.0129   73.2386 H   0  0  0  0  0  0  0  0  0  0  0  0
    2.5152   56.7819   71.2121 H   0  0  0  0  0  0  0  0  0  0  0  0
  2  1  2  0
  3  2  1  0
  4  2  1  0
  5  4  1  0
  6  5  1  0
  7  6  1  0
  8  7  1  0
  8  4  1  0
  9  8  1  0
 10  9  1  0
 11 10  1  0
 12 11  1  0
 13 12  1  0
 14 13  1  0
 15 14  1  0
 16 15  1  0
 17 16  1  0
 18 17  1  0
 18 13  2  0
 19 18  1  0
 20 19  2  0
 21 20  1  0
 21 12  2  0
 22 21  1  0
 23 22  2  0
 24 23  1  0
 25 20  1  0
 25 24  2  0
 26  3  1  0
 27 26  1  0
 28 27  1  0
 29 28  1  0
 30 29  1  0
 31 30  1  0
 32 31  1  0
 33 32  1  0
 34 33  1  0
 35 34  1  0
 36 35  1  0
 37 36  1  0
 38 33  2  0
 38 37  1  0
 39 38  1  0
 40 39  2  0
 41 40  1  0
 41 32  2  0
 42 41  1  0
 43 42  2  0
 44 43  1  0
 45 44  2  0
 45 40  1  0
  3 46  1  0
  4 47  1  1
  5 48  1  0
  5 49  1  0
  6 50  1  0
  6 51  1  0
  7 52  1  0
  7 53  1  0
  8 54  1  6
  9 55  1  0
  9 56  1  0
 10 57  1  0
 10 58  1  0
 11 59  1  0
 14 60  1  0
 14 61  1  0
 15 62  1  0
 15 63  1  0
 16 64  1  0
 16 65  1  0
 17 66  1  0
 17 67  1  0
 22 68  1  0
 23 69  1  0
 24 70  1  0
 25 71  1  0
 26 72  1  0
 26 73  1  0
 27 74  1  0
 27 75  1  0
 28 76  1  0
 28 77  1  0
 29 78  1  0
 29 79  1  0
 30 80  1  0
 30 81  1  0
 31 82  1  0
 34 83  1  0
 34 84  1  0
 35 85  1  0
 35 86  1  0
 36 87  1  0
 36 88  1  0
 37 89  1  0
 37 90  1  0
 42 91  1  0
 43 92  1  0
 44 93  1  0
 45 94  1  0
M  CHG  1   8   1
M  END
>  <score>  (5) 
-11.965

$$$$
=
     RDKit          3D

 94100  0  0  0  0  0  0  0  0999 V2000
    3.0330   63.7000   68.7770 O   0  0  0  0  0  0  0  0  0  0  0  0
    3.0480   63.7030   70.0090 C   0  0  0  0  0  0  0  0  0  0  0  0
    3.8330   62.8940   70.7880 N   0  0  0  0  0  0  0  0  0  0  0  0
    2.1280   64.6850   70.7520 C   0  0  2  0  0  0  0  0  0  0  0  0
    1.0520   63.9640   71.5660 C   0  0  0  0  0  0  0  0  0  0  0  0
   -0.2130   64.0550   70.7220 C   0  0  0  0  0  0  0  0  0  0  0  0
   -0.1150   65.4280   70.0890 C   0  0  0  0  0  0  0  0  0  0  0  0
    1.3350   65.5090   69.7220 N   0  0  1  0  0  4  0  0  0  0  0  0
    1.9070   66.8330   69.2930 C   0  0  0  0  0  0  0  0  0  0  0  0
    1.0880   67.6230   68.2490 C   0  0  0  0  0  0  0  0  0  0  0  0
    1.4130   69.0620   68.2610 N   0  0  0  0  0  0  0  0  0  0  0  0
    2.5170   69.3180   67.3750 C   0  0  0  0  0  0  0  0  0  0  0  0
    2.4520   68.9570   66.0180 C   0  0  0  0  0  0  0  0  0  0  0  0
    1.2330   68.4350   65.3030 C   0  0  0  0  0  0  0  0  0  0  0  0
    1.5820   67.2760   64.3630 C   0  0  0  0  0  0  0  0  0  0  0  0
    2.8600   67.4820   63.5380 C   0  0  0  0  0  0  0  0  0  0  0  0
    3.5370   68.8300   63.7690 C   0  0  0  0  0  0  0  0  0  0  0  0
    3.5990   69.1460   65.2420 C   0  0  0  0  0  0  0  0  0  0  0  0
    4.7650   69.6180   65.7270 N   0  0  0  0  0  0  0  0  0  0  0  0
    4.8340   69.9520   67.0210 C   0  0  0  0  0  0  0  0  0  0  0  0
    3.7360   69.8310   67.8990 C   0  0  0  0  0  0  0  0  0  0  0  0
    3.8990   70.2480   69.2420 C   0  0  0  0  0  0  0  0  0  0  0  0
    5.1150   70.7440   69.7090 C   0  0  0  0  0  0  0  0  0  0  0  0
    6.1910   70.8360   68.8390 C   0  0  0  0  0  0  0  0  0  0  0  0
    6.0370   70.4440   67.5080 C   0  0  0  0  0  0  0  0  0  0  0  0
    4.7430   61.9070   70.2280 C   0  0  0  0  0  0  0  0  0  0  0  0
    5.2550   60.9350   71.2890 C   0  0  0  0  0  0  0  0  0  0  0  0
    4.1890   60.0160   71.8980 C   0  0  0  0  0  0  0  0  0  0  0  0
    3.6360   58.9980   70.8930 C   0  0  0  0  0  0  0  0  0  0  0  0
    2.8670   57.8600   71.5680 C   0  0  0  0  0  0  0  0  0  0  0  0
    2.7660   58.0460   73.0260 N   0  0  0  0  0  0  0  0  0  0  0  0
    1.4560   57.7780   73.5310 C   0  0  0  0  0  0  0  0  0  0  0  0
    1.1250   56.5330   74.0900 C   0  0  0  0  0  0  0  0  0  0  0  0
    2.0420   55.3390   74.1630 C   0  0  0  0  0  0  0  0  0  0  0  0
    1.3050   54.0430   73.8080 C   0  0  0  0  0  0  0  0  0  0  0  0
   -0.0890   53.9060   74.4360 C   0  0  0  0  0  0  0  0  0  0  0  0
   -0.4910   55.0820   75.3230 C   0  0  0  0  0  0  0  0  0  0  0  0
   -0.1400   56.3910   74.6640 C   0  0  0  0  0  0  0  0  0  0  0  0
   -1.0670   57.3700   74.6970 N   0  0  0  0  0  0  0  0  0  0  0  0
   -0.7740   58.5430   74.1180 C   0  0  0  0  0  0  0  0  0  0  0  0
    0.4730   58.8060   73.5100 C   0  0  0  0  0  0  0  0  0  0  0  0
    0.6720   60.0660   72.8980 C   0  0  0  0  0  0  0  0  0  0  0  0
   -0.3190   61.0460   72.9080 C   0  0  0  0  0  0  0  0  0  0  0  0
   -1.5320   60.7810   73.5270 C   0  0  0  0  0  0  0  0  0  0  0  0
   -1.7450   59.5350   74.1200 C   0  0  0  0  0  0  0  0  0  0  0  0
    3.7764   62.9886   71.8121 H   0  0  0  0  0  0  0  0  0  0  0  0
    2.7784   65.2879   71.4028 H   0  0  0  0  0  0  0  0  0  0  0  0
    1.3317   62.9129   71.7302 H   0  0  0  0  0  0  0  0  0  0  0  0
    0.9169   64.4146   72.5604 H   0  0  0  0  0  0  0  0  0  0  0  0
   -0.2311   63.2678   69.9538 H   0  0  0  0  0  0  0  0  0  0  0  0
   -1.1324   63.9180   71.3102 H   0  0  0  0  0  0  0  0  0  0  0  0
   -0.7559   65.5024   69.1981 H   0  0  0  0  0  0  0  0  0  0  0  0
   -0.4477   66.2419   70.7499 H   0  0  0  0  0  0  0  0  0  0  0  0
    1.4424   65.0797   68.7919 H   0  0  0  0  0  0  0  0  0  0  0  0
    2.0046   67.4628   70.1895 H   0  0  0  0  0  0  0  0  0  0  0  0
    2.8615   66.5958   68.8004 H   0  0  0  0  0  0  0  0  0  0  0  0
    1.3044   67.2190   67.2490 H   0  0  0  0  0  0  0  0  0  0  0  0
    0.0230   67.5145   68.5018 H   0  0  0  0  0  0  0  0  0  0  0  0
    0.9233   69.7756   68.8195 H   0  0  0  0  0  0  0  0  0  0  0  0
    0.5054   68.0826   66.0490 H   0  0  0  0  0  0  0  0  0  0  0  0
    0.8126   69.2526   64.6990 H   0  0  0  0  0  0  0  0  0  0  0  0
    1.7092   66.3681   64.9709 H   0  0  0  0  0  0  0  0  0  0  0  0
    0.7550   67.2013   63.6415 H   0  0  0  0  0  0  0  0  0  0  0  0
    3.5734   66.6870   63.8009 H   0  0  0  0  0  0  0  0  0  0  0  0
    2.5637   67.4518   62.4791 H   0  0  0  0  0  0  0  0  0  0  0  0
    4.5588   68.7959   63.3631 H   0  0  0  0  0  0  0  0  0  0  0  0
    2.9528   69.6122   63.2623 H   0  0  0  0  0  0  0  0  0  0  0  0
    3.0460   70.1790   69.9332 H   0  0  0  0  0  0  0  0  0  0  0  0
    5.2202   71.0594   70.7575 H   0  0  0  0  0  0  0  0  0  0  0  0
    7.1599   71.2155   69.1955 H   0  0  0  0  0  0  0  0  0  0  0  0
    6.8949   70.5276   66.8246 H   0  0  0  0  0  0  0  0  0  0  0  0
    4.2140   61.3372   69.4498 H   0  0  0  0  0  0  0  0  0  0  0  0
    5.6089   62.4413   69.8100 H   0  0  0  0  0  0  0  0  0  0  0  0
    6.0270   60.3020   70.8271 H   0  0  0  0  0  0  0  0  0  0  0  0
    5.6333   61.5549   72.1152 H   0  0  0  0  0  0  0  0  0  0  0  0
    4.6365   59.4696   72.7413 H   0  0  0  0  0  0  0  0  0  0  0  0
    3.3507   60.6507   72.2211 H   0  0  0  0  0  0  0  0  0  0  0  0
    2.9580   59.5191   70.2011 H   0  0  0  0  0  0  0  0  0  0  0  0
    4.4924   58.5531   70.3652 H   0  0  0  0  0  0  0  0  0  0  0  0
    1.8525   57.8180   71.1449 H   0  0  0  0  0  0  0  0  0  0  0  0
    3.4161   56.9249   71.3837 H   0  0  0  0  0  0  0  0  0  0  0  0
    3.5560   58.3383   73.6188 H   0  0  0  0  0  0  0  0  0  0  0  0
    2.8730   55.4827   73.4568 H   0  0  0  0  0  0  0  0  0  0  0  0
    2.4153   55.2527   75.1941 H   0  0  0  0  0  0  0  0  0  0  0  0
    1.1940   54.0003   72.7144 H   0  0  0  0  0  0  0  0  0  0  0  0
    1.9111   53.2195   74.2136 H   0  0  0  0  0  0  0  0  0  0  0  0
   -0.8263   53.8174   73.6245 H   0  0  0  0  0  0  0  0  0  0  0  0
   -0.0599   53.0164   75.0823 H   0  0  0  0  0  0  0  0  0  0  0  0
   -1.5761   55.0464   75.4999 H   0  0  0  0  0  0  0  0  0  0  0  0
    0.0538   55.0086   76.2758 H   0  0  0  0  0  0  0  0  0  0  0  0
    1.6312   60.2771   72.4027 H   0  0  0  0  0  0  0  0  0  0  0  0
   -0.1410   62.0204   72.4296 H   0  0  0  0  0  0  0  0  0  0  0  0
   -2.3207   61.5474   73.5505 H   0  0  0  0  0  0  0  0  0  0  0  0
   -2.7121   59.3332   74.6037 H   0  0  0  0  0  0  0  0  0  0  0  0
  2  1  2  0
  3  2  1  0
  4  2  1  0
  5  4  1  0
  6  5  1  0
  7  6  1  0
  8  7  1  0
  8  4  1  0
  9  8  1  0
 10  9  1  0
 11 10  1  0
 12 11  1  0
 13 12  1  0
 14 13  1  0
 15 14  1  0
 16 15  1  0
 17 16  1  0
 18 17  1  0
 18 13  2  0
 19 18  1  0
 20 19  2  0
 21 20  1  0
 21 12  2  0
 22 21  1  0
 23 22  2  0
 24 23  1  0
 25 20  1  0
 25 24  2  0
 26  3  1  0
 27 26  1  0
 28 27  1  0
 29 28  1  0
 30 29  1  0
 31 30  1  0
 32 31  1  0
 33 32  1  0
 34 33  1  0
 35 34  1  0
 36 35  1  0
 37 36  1  0
 38 33  2  0
 38 37  1  0
 39 38  1  0
 40 39  2  0
 41 40  1  0
 41 32  2  0
 42 41  1  0
 43 42  2  0
 44 43  1  0
 45 44  2  0
 45 40  1  0
  3 46  1  0
  4 47  1  1
  5 48  1  0
  5 49  1  0
  6 50  1  0
  6 51  1  0
  7 52  1  0
  7 53  1  0
  8 54  1  6
  9 55  1  0
  9 56  1  0
 10 57  1  0
 10 58  1  0
 11 59  1  0
 14 60  1  0
 14 61  1  0
 15 62  1  0
 15 63  1  0
 16 64  1  0
 16 65  1  0
 17 66  1  0
 17 67  1  0
 22 68  1  0
 23 69  1  0
 24 70  1  0
 25 71  1  0
 26 72  1  0
 26 73  1  0
 27 74  1  0
 27 75  1  0
 28 76  1  0
 28 77  1  0
 29 78  1  0
 29 79  1  0
 30 80  1  0
 30 81  1  0
 31 82  1  0
 34 83  1  0
 34 84  1  0
 35 85  1  0
 35 86  1  0
 36 87  1  0
 36 88  1  0
 37 89  1  0
 37 90  1  0
 42 91  1  0
 43 92  1  0
 44 93  1  0
 45 94  1  0
M  CHG  1   8   1
M  END
>  <score>  (6) 
-11.853

$$$$
=
     RDKit          3D

 94100  0  0  0  0  0  0  0  0999 V2000
    1.1030   66.6730   67.6980 O   0  0  0  0  0  0  0  0  0  0  0  0
    0.3220   66.9000   68.6230 C   0  0  0  0  0  0  0  0  0  0  0  0
    0.4190   66.3710   69.8820 N   0  0  0  0  0  0  0  0  0  0  0  0
   -0.8590   67.8510   68.3700 C   0  0  2  0  0  0  0  0  0  0  0  0
   -2.0050   67.1630   67.6270 C   0  0  0  0  0  0  0  0  0  0  0  0
   -1.8650   67.6100   66.1780 C   0  0  0  0  0  0  0  0  0  0  0  0
   -1.4000   69.0480   66.2970 C   0  0  0  0  0  0  0  0  0  0  0  0
   -0.4070   68.9710   67.4160 N   0  0  1  0  0  4  0  0  0  0  0  0
    0.1060   70.2480   68.0250 C   0  0  0  0  0  0  0  0  0  0  0  0
    1.6310   70.3300   68.2500 C   0  0  0  0  0  0  0  0  0  0  0  0
    2.3250   69.1060   67.8070 N   0  0  0  0  0  0  0  0  0  0  0  0
    3.4170   69.4540   66.9390 C   0  0  0  0  0  0  0  0  0  0  0  0
    3.3630   69.1740   65.5630 C   0  0  0  0  0  0  0  0  0  0  0  0
    2.1610   68.6530   64.8170 C   0  0  0  0  0  0  0  0  0  0  0  0
    2.5490   67.5660   63.8080 C   0  0  0  0  0  0  0  0  0  0  0  0
    3.8160   67.8660   62.9980 C   0  0  0  0  0  0  0  0  0  0  0  0
    4.4470   69.2200   63.3100 C   0  0  0  0  0  0  0  0  0  0  0  0
    4.5010   69.4480   64.8000 C   0  0  0  0  0  0  0  0  0  0  0  0
    5.6510   69.9310   65.3120 N   0  0  0  0  0  0  0  0  0  0  0  0
    5.7100   70.1890   66.6240 C   0  0  0  0  0  0  0  0  0  0  0  0
    4.6200   69.9770   67.4930 C   0  0  0  0  0  0  0  0  0  0  0  0
    4.7700   70.3170   68.8580 C   0  0  0  0  0  0  0  0  0  0  0  0
    5.9700   70.8260   69.3550 C   0  0  0  0  0  0  0  0  0  0  0  0
    7.0400   71.0080   68.4910 C   0  0  0  0  0  0  0  0  0  0  0  0
    6.8970   70.6920   67.1390 C   0  0  0  0  0  0  0  0  0  0  0  0
    1.4750   65.4460   70.2660 C   0  0  0  0  0  0  0  0  0  0  0  0
    0.9230   64.0670   70.6270 C   0  0  0  0  0  0  0  0  0  0  0  0
    0.0660   64.0230   71.8970 C   0  0  0  0  0  0  0  0  0  0  0  0
    0.9020   63.8890   73.1750 C   0  0  0  0  0  0  0  0  0  0  0  0
    0.8140   62.4930   73.7960 C   0  0  0  0  0  0  0  0  0  0  0  0
    2.1430   61.8900   73.9980 N   0  0  0  0  0  0  0  0  0  0  0  0
    2.3770   60.7620   73.1520 C   0  0  0  0  0  0  0  0  0  0  0  0
    1.9300   59.4770   73.5020 C   0  0  0  0  0  0  0  0  0  0  0  0
    1.2380   59.1160   74.7910 C   0  0  0  0  0  0  0  0  0  0  0  0
    1.7680   57.7950   75.3610 C   0  0  0  0  0  0  0  0  0  0  0  0
    1.9600   56.6820   74.3230 C   0  0  0  0  0  0  0  0  0  0  0  0
    1.5710   57.0800   72.9010 C   0  0  0  0  0  0  0  0  0  0  0  0
    2.1000   58.4520   72.5690 C   0  0  0  0  0  0  0  0  0  0  0  0
    2.6820   58.6180   71.3640 N   0  0  0  0  0  0  0  0  0  0  0  0
    3.1560   59.8310   71.0490 C   0  0  0  0  0  0  0  0  0  0  0  0
    3.0400   60.9450   71.9070 C   0  0  0  0  0  0  0  0  0  0  0  0
    3.6030   62.1760   71.4940 C   0  0  0  0  0  0  0  0  0  0  0  0
    4.2380   62.3090   70.2610 C   0  0  0  0  0  0  0  0  0  0  0  0
    4.3270   61.2110   69.4190 C   0  0  0  0  0  0  0  0  0  0  0  0
    3.7880   59.9880   69.8220 C   0  0  0  0  0  0  0  0  0  0  0  0
   -0.2838   66.6385   70.5859 H   0  0  0  0  0  0  0  0  0  0  0  0
   -1.1869   68.2085   69.3573 H   0  0  0  0  0  0  0  0  0  0  0  0
   -1.9136   66.0695   67.7041 H   0  0  0  0  0  0  0  0  0  0  0  0
   -2.9863   67.4291   68.0469 H   0  0  0  0  0  0  0  0  0  0  0  0
   -1.1204   66.9982   65.6476 H   0  0  0  0  0  0  0  0  0  0  0  0
   -2.7981   67.5066   65.6047 H   0  0  0  0  0  0  0  0  0  0  0  0
   -0.9252   69.3915   65.3661 H   0  0  0  0  0  0  0  0  0  0  0  0
   -2.2169   69.7612   66.4814 H   0  0  0  0  0  0  0  0  0  0  0  0
    0.5029   68.7164   67.0058 H   0  0  0  0  0  0  0  0  0  0  0  0
   -0.1803   71.0760   67.3598 H   0  0  0  0  0  0  0  0  0  0  0  0
   -0.3431   70.2976   69.0279 H   0  0  0  0  0  0  0  0  0  0  0  0
    2.0272   71.1864   67.6847 H   0  0  0  0  0  0  0  0  0  0  0  0
    1.8078   70.4473   69.3293 H   0  0  0  0  0  0  0  0  0  0  0  0
    2.0663   68.1467   68.0786 H   0  0  0  0  0  0  0  0  0  0  0  0
    1.4480   68.2304   65.5401 H   0  0  0  0  0  0  0  0  0  0  0  0
    1.7106   69.4903   64.2637 H   0  0  0  0  0  0  0  0  0  0  0  0
    2.7092   66.6279   64.3597 H   0  0  0  0  0  0  0  0  0  0  0  0
    1.7238   67.5064   63.0831 H   0  0  0  0  0  0  0  0  0  0  0  0
    4.5570   67.0817   63.2120 H   0  0  0  0  0  0  0  0  0  0  0  0
    3.5182   67.8904   61.9394 H   0  0  0  0  0  0  0  0  0  0  0  0
    5.4685   69.2455   62.9028 H   0  0  0  0  0  0  0  0  0  0  0  0
    3.8356   70.0111   62.8514 H   0  0  0  0  0  0  0  0  0  0  0  0
    3.9210   70.1768   69.5432 H   0  0  0  0  0  0  0  0  0  0  0  0
    6.0668   71.0804   70.4208 H   0  0  0  0  0  0  0  0  0  0  0  0
    7.9959   71.3992   68.8694 H   0  0  0  0  0  0  0  0  0  0  0  0
    7.7499   70.8461   66.4617 H   0  0  0  0  0  0  0  0  0  0  0  0
    2.1767   65.3391   69.4257 H   0  0  0  0  0  0  0  0  0  0  0  0
    1.9787   65.8543   71.1546 H   0  0  0  0  0  0  0  0  0  0  0  0
    0.3058   63.7162   69.7868 H   0  0  0  0  0  0  0  0  0  0  0  0
    1.7969   63.4287   70.8243 H   0  0  0  0  0  0  0  0  0  0  0  0
   -0.5209   64.9514   71.9570 H   0  0  0  0  0  0  0  0  0  0  0  0
   -0.5796   63.1349   71.8296 H   0  0  0  0  0  0  0  0  0  0  0  0
    1.9537   64.0997   72.9310 H   0  0  0  0  0  0  0  0  0  0  0  0
    0.5029   64.6044   73.9091 H   0  0  0  0  0  0  0  0  0  0  0  0
    0.3078   62.5695   74.7696 H   0  0  0  0  0  0  0  0  0  0  0  0
    0.2525   61.8494   73.1028 H   0  0  0  0  0  0  0  0  0  0  0  0
    2.8312   62.2442   74.6776 H   0  0  0  0  0  0  0  0  0  0  0  0
    1.4094   59.9168   75.5254 H   0  0  0  0  0  0  0  0  0  0  0  0
    0.1639   58.9975   74.5853 H   0  0  0  0  0  0  0  0  0  0  0  0
    2.7402   57.9921   75.8363 H   0  0  0  0  0  0  0  0  0  0  0  0
    1.0070   57.4334   76.0681 H   0  0  0  0  0  0  0  0  0  0  0  0
    3.0206   56.3902   74.3219 H   0  0  0  0  0  0  0  0  0  0  0  0
    1.2923   55.8581   74.6151 H   0  0  0  0  0  0  0  0  0  0  0  0
    1.9913   56.3499   72.1937 H   0  0  0  0  0  0  0  0  0  0  0  0
    0.4737   57.0958   72.8254 H   0  0  0  0  0  0  0  0  0  0  0  0
    3.5378   63.0477   72.1617 H   0  0  0  0  0  0  0  0  0  0  0  0
    4.6649   63.2765   69.9582 H   0  0  0  0  0  0  0  0  0  0  0  0
    4.8192   61.3031   68.4396 H   0  0  0  0  0  0  0  0  0  0  0  0
    3.8661   59.1225   69.1476 H   0  0  0  0  0  0  0  0  0  0  0  0
  2  1  2  0
  3  2  1  0
  4  2  1  0
  5  4  1  0
  6  5  1  0
  7  6  1  0
  8  7  1  0
  8  4  1  0
  9  8  1  0
 10  9  1  0
 11 10  1  0
 12 11  1  0
 13 12  1  0
 14 13  1  0
 15 14  1  0
 16 15  1  0
 17 16  1  0
 18 17  1  0
 18 13  2  0
 19 18  1  0
 20 19  2  0
 21 20  1  0
 21 12  2  0
 22 21  1  0
 23 22  2  0
 24 23  1  0
 25 20  1  0
 25 24  2  0
 26  3  1  0
 27 26  1  0
 28 27  1  0
 29 28  1  0
 30 29  1  0
 31 30  1  0
 32 31  1  0
 33 32  1  0
 34 33  1  0
 35 34  1  0
 36 35  1  0
 37 36  1  0
 38 33  2  0
 38 37  1  0
 39 38  1  0
 40 39  2  0
 41 40  1  0
 41 32  2  0
 42 41  1  0
 43 42  2  0
 44 43  1  0
 45 44  2  0
 45 40  1  0
  3 46  1  0
  4 47  1  1
  5 48  1  0
  5 49  1  0
  6 50  1  0
  6 51  1  0
  7 52  1  0
  7 53  1  0
  8 54  1  6
  9 55  1  0
  9 56  1  0
 10 57  1  0
 10 58  1  0
 11 59  1  0
 14 60  1  0
 14 61  1  0
 15 62  1  0
 15 63  1  0
 16 64  1  0
 16 65  1  0
 17 66  1  0
 17 67  1  0
 22 68  1  0
 23 69  1  0
 24 70  1  0
 25 71  1  0
 26 72  1  0
 26 73  1  0
 27 74  1  0
 27 75  1  0
 28 76  1  0
 28 77  1  0
 29 78  1  0
 29 79  1  0
 30 80  1  0
 30 81  1  0
 31 82  1  0
 34 83  1  0
 34 84  1  0
 35 85  1  0
 35 86  1  0
 36 87  1  0
 36 88  1  0
 37 89  1  0
 37 90  1  0
 42 91  1  0
 43 92  1  0
 44 93  1  0
 45 94  1  0
M  CHG  1   8   1
M  END
>  <score>  (7) 
-11.583

$$$$
=
     RDKit          3D

 94100  0  0  0  0  0  0  0  0999 V2000
    2.0700   63.1190   72.7890 O   0  0  0  0  0  0  0  0  0  0  0  0
    0.9020   63.4360   73.0190 C   0  0  0  0  0  0  0  0  0  0  0  0
    0.0620   64.0450   72.1250 N   0  0  0  0  0  0  0  0  0  0  0  0
    0.3180   63.1290   74.4080 C   0  0  2  0  0  0  0  0  0  0  0  0
   -0.0170   64.4020   75.1860 C   0  0  0  0  0  0  0  0  0  0  0  0
    1.1360   64.5870   76.1630 C   0  0  0  0  0  0  0  0  0  0  0  0
    1.4860   63.1690   76.5650 C   0  0  0  0  0  0  0  0  0  0  0  0
    1.3920   62.4340   75.2630 N   0  0  1  0  0  4  0  0  0  0  0  0
    1.4190   60.9300   75.2700 C   0  0  0  0  0  0  0  0  0  0  0  0
    2.3400   60.2690   76.3170 C   0  0  0  0  0  0  0  0  0  0  0  0
    3.4000   59.4550   75.6920 N   0  0  0  0  0  0  0  0  0  0  0  0
    2.9120   58.8800   74.4680 C   0  0  0  0  0  0  0  0  0  0  0  0
    2.0110   57.8020   74.4850 C   0  0  0  0  0  0  0  0  0  0  0  0
    1.3380   57.2370   75.7100 C   0  0  0  0  0  0  0  0  0  0  0  0
    1.3160   55.7050   75.6870 C   0  0  0  0  0  0  0  0  0  0  0  0
    0.9580   55.0890   74.3280 C   0  0  0  0  0  0  0  0  0  0  0  0
    0.6440   56.1160   73.2440 C   0  0  0  0  0  0  0  0  0  0  0  0
    1.6600   57.2300   73.2600 C   0  0  0  0  0  0  0  0  0  0  0  0
    2.1600   57.6290   72.0740 N   0  0  0  0  0  0  0  0  0  0  0  0
    3.0270   58.6490   72.0530 C   0  0  0  0  0  0  0  0  0  0  0  0
    3.4390   59.3220   73.2220 C   0  0  0  0  0  0  0  0  0  0  0  0
    4.3310   60.4140   73.0910 C   0  0  0  0  0  0  0  0  0  0  0  0
    4.8220   60.8100   71.8480 C   0  0  0  0  0  0  0  0  0  0  0  0
    4.4240   60.1230   70.7110 C   0  0  0  0  0  0  0  0  0  0  0  0
    3.5310   59.0560   70.8260 C   0  0  0  0  0  0  0  0  0  0  0  0
    0.4780   64.4080   70.7790 C   0  0  0  0  0  0  0  0  0  0  0  0
    0.5900   65.9220   70.6040 C   0  0  0  0  0  0  0  0  0  0  0  0
    0.2810   66.4390   69.1950 C   0  0  0  0  0  0  0  0  0  0  0  0
    1.1740   67.6150   68.7830 C   0  0  0  0  0  0  0  0  0  0  0  0
    1.3900   67.6920   67.2700 C   0  0  0  0  0  0  0  0  0  0  0  0
    1.5720   69.0770   66.8040 N   0  0  0  0  0  0  0  0  0  0  0  0
    2.8660   69.3110   66.2430 C   0  0  0  0  0  0  0  0  0  0  0  0
    3.9470   69.7240   67.0390 C   0  0  0  0  0  0  0  0  0  0  0  0
    3.8770   70.0340   68.5120 C   0  0  0  0  0  0  0  0  0  0  0  0
    4.6740   71.2960   68.8590 C   0  0  0  0  0  0  0  0  0  0  0  0
    6.0460   71.3940   68.1780 C   0  0  0  0  0  0  0  0  0  0  0  0
    6.3860   70.2020   67.2860 C   0  0  0  0  0  0  0  0  0  0  0  0
    5.2020   69.8210   66.4350 C   0  0  0  0  0  0  0  0  0  0  0  0
    5.4330   69.5590   65.1320 N   0  0  0  0  0  0  0  0  0  0  0  0
    4.3950   69.2150   64.3580 C   0  0  0  0  0  0  0  0  0  0  0  0
    3.0810   69.0810   64.8560 C   0  0  0  0  0  0  0  0  0  0  0  0
    2.0470   68.7450   63.9500 C   0  0  0  0  0  0  0  0  0  0  0  0
    2.3060   68.5230   62.5980 C   0  0  0  0  0  0  0  0  0  0  0  0
    3.6050   68.6370   62.1270 C   0  0  0  0  0  0  0  0  0  0  0  0
    4.6310   68.9840   63.0100 C   0  0  0  0  0  0  0  0  0  0  0  0
   -0.9032   64.2545   72.4174 H   0  0  0  0  0  0  0  0  0  0  0  0
   -0.5825   62.5203   74.2390 H   0  0  0  0  0  0  0  0  0  0  0  0
   -0.0877   65.2630   74.5051 H   0  0  0  0  0  0  0  0  0  0  0  0
   -0.9854   64.3259   75.7021 H   0  0  0  0  0  0  0  0  0  0  0  0
    1.9899   65.0801   75.6754 H   0  0  0  0  0  0  0  0  0  0  0  0
    0.8744   65.2245   77.0205 H   0  0  0  0  0  0  0  0  0  0  0  0
    2.5026   63.1127   76.9815 H   0  0  0  0  0  0  0  0  0  0  0  0
    0.8320   62.7600   77.3492 H   0  0  0  0  0  0  0  0  0  0  0  0
    2.3045   62.5190   74.7928 H   0  0  0  0  0  0  0  0  0  0  0  0
    0.3937   60.5770   75.4547 H   0  0  0  0  0  0  0  0  0  0  0  0
    1.8295   60.6388   74.2919 H   0  0  0  0  0  0  0  0  0  0  0  0
    2.8099   61.0573   76.9235 H   0  0  0  0  0  0  0  0  0  0  0  0
    1.7227   59.6017   76.9365 H   0  0  0  0  0  0  0  0  0  0  0  0
    4.3466   59.3192   76.0747 H   0  0  0  0  0  0  0  0  0  0  0  0
    1.8842   57.5726   76.6039 H   0  0  0  0  0  0  0  0  0  0  0  0
    0.2981   57.5953   75.7267 H   0  0  0  0  0  0  0  0  0  0  0  0
    2.3144   55.3437   75.9746 H   0  0  0  0  0  0  0  0  0  0  0  0
    0.5255   55.3952   76.3863 H   0  0  0  0  0  0  0  0  0  0  0  0
    1.8085   54.4786   73.9902 H   0  0  0  0  0  0  0  0  0  0  0  0
    0.0440   54.4958   74.4785 H   0  0  0  0  0  0  0  0  0  0  0  0
    0.6639   55.6223   72.2612 H   0  0  0  0  0  0  0  0  0  0  0  0
   -0.3523   56.5411   73.4354 H   0  0  0  0  0  0  0  0  0  0  0  0
    4.6438   60.9628   73.9915 H   0  0  0  0  0  0  0  0  0  0  0  0
    5.5178   61.6584   71.7698 H   0  0  0  0  0  0  0  0  0  0  0  0
    4.8098   60.4172   69.7238 H   0  0  0  0  0  0  0  0  0  0  0  0
    3.2176   58.5221   69.9168 H   0  0  0  0  0  0  0  0  0  0  0  0
    1.4587   63.9533   70.5755 H   0  0  0  0  0  0  0  0  0  0  0  0
   -0.2843   64.0399   70.0765 H   0  0  0  0  0  0  0  0  0  0  0  0
   -0.1126   66.3986   71.3034 H   0  0  0  0  0  0  0  0  0  0  0  0
    1.6425   66.1755   70.7989 H   0  0  0  0  0  0  0  0  0  0  0  0
    0.4298   65.6173   68.4790 H   0  0  0  0  0  0  0  0  0  0  0  0
   -0.7588   66.7978   69.1952 H   0  0  0  0  0  0  0  0  0  0  0  0
    0.7016   68.5499   69.1189 H   0  0  0  0  0  0  0  0  0  0  0  0
    2.1578   67.4646   69.2514 H   0  0  0  0  0  0  0  0  0  0  0  0
    2.2865   67.1101   67.0101 H   0  0  0  0  0  0  0  0  0  0  0  0
    0.4930   67.2858   66.7797 H   0  0  0  0  0  0  0  0  0  0  0  0
    0.8432   69.8014   66.8748 H   0  0  0  0  0  0  0  0  0  0  0  0
    2.8252   70.1863   68.7956 H   0  0  0  0  0  0  0  0  0  0  0  0
    4.3129   69.1881   69.0637 H   0  0  0  0  0  0  0  0  0  0  0  0
    4.0788   72.1709   68.5585 H   0  0  0  0  0  0  0  0  0  0  0  0
    4.8660   71.2551   69.9413 H   0  0  0  0  0  0  0  0  0  0  0  0
    6.0605   72.3035   67.5595 H   0  0  0  0  0  0  0  0  0  0  0  0
    6.7978   71.4141   68.9807 H   0  0  0  0  0  0  0  0  0  0  0  0
    7.2299   70.4686   66.6327 H   0  0  0  0  0  0  0  0  0  0  0  0
    6.6538   69.3469   67.9240 H   0  0  0  0  0  0  0  0  0  0  0  0
    1.0152   68.6569   64.3209 H   0  0  0  0  0  0  0  0  0  0  0  0
    1.4876   68.2600   61.9117 H   0  0  0  0  0  0  0  0  0  0  0  0
    3.8266   68.4554   61.0650 H   0  0  0  0  0  0  0  0  0  0  0  0
    5.6572   69.0769   62.6248 H   0  0  0  0  0  0  0  0  0  0  0  0
  2  1  2  0
  3  2  1  0
  4  2  1  0
  5  4  1  0
  6  5  1  0
  7  6  1  0
  8  7  1  0
  8  4  1  0
  9  8  1  0
 10  9  1  0
 11 10  1  0
 12 11  1  0
 13 12  1  0
 14 13  1  0
 15 14  1  0
 16 15  1  0
 17 16  1  0
 18 17  1  0
 18 13  2  0
 19 18  1  0
 20 19  2  0
 21 20  1  0
 21 12  2  0
 22 21  1  0
 23 22  2  0
 24 23  1  0
 25 20  1  0
 25 24  2  0
 26  3  1  0
 27 26  1  0
 28 27  1  0
 29 28  1  0
 30 29  1  0
 31 30  1  0
 32 31  1  0
 33 32  1  0
 34 33  1  0
 35 34  1  0
 36 35  1  0
 37 36  1  0
 38 33  2  0
 38 37  1  0
 39 38  1  0
 40 39  2  0
 41 40  1  0
 41 32  2  0
 42 41  1  0
 43 42  2  0
 44 43  1  0
 45 44  2  0
 45 40  1  0
  3 46  1  0
  4 47  1  6
  5 48  1  0
  5 49  1  0
  6 50  1  0
  6 51  1  0
  7 52  1  0
  7 53  1  0
  8 54  1  6
  9 55  1  0
  9 56  1  0
 10 57  1  0
 10 58  1  0
 11 59  1  0
 14 60  1  0
 14 61  1  0
 15 62  1  0
 15 63  1  0
 16 64  1  0
 16 65  1  0
 17 66  1  0
 17 67  1  0
 22 68  1  0
 23 69  1  0
 24 70  1  0
 25 71  1  0
 26 72  1  0
 26 73  1  0
 27 74  1  0
 27 75  1  0
 28 76  1  0
 28 77  1  0
 29 78  1  0
 29 79  1  0
 30 80  1  0
 30 81  1  0
 31 82  1  0
 34 83  1  0
 34 84  1  0
 35 85  1  0
 35 86  1  0
 36 87  1  0
 36 88  1  0
 37 89  1  0
 37 90  1  0
 42 91  1  0
 43 92  1  0
 44 93  1  0
 45 94  1  0
M  CHG  1   8   1
M  END
>  <score>  (8) 
-11.489

$$$$
=
     RDKit          3D

 94100  0  0  0  0  0  0  0  0999 V2000
    2.0190   63.1050   72.6690 O   0  0  0  0  0  0  0  0  0  0  0  0
    0.8630   63.4520   72.9200 C   0  0  0  0  0  0  0  0  0  0  0  0
    0.0240   64.0860   72.0420 N   0  0  0  0  0  0  0  0  0  0  0  0
    0.2940   63.1560   74.3170 C   0  0  2  0  0  0  0  0  0  0  0  0
    0.0070   64.4340   75.1060 C   0  0  0  0  0  0  0  0  0  0  0  0
    1.1810   64.5830   76.0640 C   0  0  0  0  0  0  0  0  0  0  0  0
    1.4990   63.1540   76.4540 C   0  0  0  0  0  0  0  0  0  0  0  0
    1.3630   62.4280   75.1520 N   0  0  1  0  0  4  0  0  0  0  0  0
    1.3490   60.9230   75.1520 C   0  0  0  0  0  0  0  0  0  0  0  0
    2.3190   60.2330   76.1340 C   0  0  0  0  0  0  0  0  0  0  0  0
    3.4570   59.6000   75.4390 N   0  0  0  0  0  0  0  0  0  0  0  0
    2.9890   58.9120   74.2670 C   0  0  0  0  0  0  0  0  0  0  0  0
    2.1940   57.7570   74.3760 C   0  0  0  0  0  0  0  0  0  0  0  0
    1.6150   57.2050   75.6530 C   0  0  0  0  0  0  0  0  0  0  0  0
    1.7380   55.6790   75.7160 C   0  0  0  0  0  0  0  0  0  0  0  0
    1.3990   54.9540   74.4060 C   0  0  0  0  0  0  0  0  0  0  0  0
    0.9550   55.8830   73.2800 C   0  0  0  0  0  0  0  0  0  0  0  0
    1.8620   57.0850   73.1980 C   0  0  0  0  0  0  0  0  0  0  0  0
    2.2860   57.4590   71.9740 N   0  0  0  0  0  0  0  0  0  0  0  0
    3.0520   58.5520   71.8660 C   0  0  0  0  0  0  0  0  0  0  0  0
    3.4330   59.3280   72.9800 C   0  0  0  0  0  0  0  0  0  0  0  0
    4.2140   60.4880   72.7580 C   0  0  0  0  0  0  0  0  0  0  0  0
    4.6270   60.8540   71.4780 C   0  0  0  0  0  0  0  0  0  0  0  0
    4.2610   60.0680   70.3950 C   0  0  0  0  0  0  0  0  0  0  0  0
    3.4770   58.9320   70.6010 C   0  0  0  0  0  0  0  0  0  0  0  0
    0.4270   64.4430   70.6900 C   0  0  0  0  0  0  0  0  0  0  0  0
    0.5700   65.9550   70.5170 C   0  0  0  0  0  0  0  0  0  0  0  0
    0.2780   66.4780   69.1060 C   0  0  0  0  0  0  0  0  0  0  0  0
    1.1590   67.6720   68.7200 C   0  0  0  0  0  0  0  0  0  0  0  0
    1.4230   67.7500   67.2150 C   0  0  0  0  0  0  0  0  0  0  0  0
    1.6910   69.1280   66.7680 N   0  0  0  0  0  0  0  0  0  0  0  0
    3.0490   69.3300   66.3710 C   0  0  0  0  0  0  0  0  0  0  0  0
    3.4780   69.0660   65.0600 C   0  0  0  0  0  0  0  0  0  0  0  0
    2.6210   68.4890   63.9620 C   0  0  0  0  0  0  0  0  0  0  0  0
    3.3790   67.4250   63.1600 C   0  0  0  0  0  0  0  0  0  0  0  0
    4.8250   67.7990   62.8080 C   0  0  0  0  0  0  0  0  0  0  0  0
    5.2520   69.1780   63.3060 C   0  0  0  0  0  0  0  0  0  0  0  0
    4.7920   69.3970   64.7240 C   0  0  0  0  0  0  0  0  0  0  0  0
    5.6770   69.9380   65.5870 N   0  0  0  0  0  0  0  0  0  0  0  0
    5.2860   70.1440   66.8520 C   0  0  0  0  0  0  0  0  0  0  0  0
    3.9830   69.8520   67.3080 C   0  0  0  0  0  0  0  0  0  0  0  0
    3.6800   70.0760   68.6720 C   0  0  0  0  0  0  0  0  0  0  0  0
    4.6270   70.5950   69.5530 C   0  0  0  0  0  0  0  0  0  0  0  0
    5.8980   70.8960   69.0870 C   0  0  0  0  0  0  0  0  0  0  0  0
    6.2120   70.6650   67.7460 C   0  0  0  0  0  0  0  0  0  0  0  0
   -0.9304   64.3194   72.3512 H   0  0  0  0  0  0  0  0  0  0  0  0
   -0.6257   62.5734   74.1601 H   0  0  0  0  0  0  0  0  0  0  0  0
   -0.0517   65.2998   74.4300 H   0  0  0  0  0  0  0  0  0  0  0  0
   -0.9542   64.3818   75.6382 H   0  0  0  0  0  0  0  0  0  0  0  0
    2.0396   65.0550   75.5640 H   0  0  0  0  0  0  0  0  0  0  0  0
    0.9514   65.2233   76.9285 H   0  0  0  0  0  0  0  0  0  0  0  0
    2.5206   63.0682   76.8527 H   0  0  0  0  0  0  0  0  0  0  0  0
    0.8474   62.7594   77.2475 H   0  0  0  0  0  0  0  0  0  0  0  0
    2.2698   62.4903   74.6676 H   0  0  0  0  0  0  0  0  0  0  0  0
    0.3289   60.5968   75.4029 H   0  0  0  0  0  0  0  0  0  0  0  0
    1.6853   60.6253   74.1478 H   0  0  0  0  0  0  0  0  0  0  0  0
    2.7067   60.9853   76.8367 H   0  0  0  0  0  0  0  0  0  0  0  0
    1.7626   59.4436   76.6606 H   0  0  0  0  0  0  0  0  0  0  0  0
    4.4387   59.6446   75.7475 H   0  0  0  0  0  0  0  0  0  0  0  0
    2.1534   57.6419   76.5070 H   0  0  0  0  0  0  0  0  0  0  0  0
    0.5468   57.4653   75.6866 H   0  0  0  0  0  0  0  0  0  0  0  0
    2.7744   55.4296   75.9875 H   0  0  0  0  0  0  0  0  0  0  0  0
    1.0023   55.3382   76.4593 H   0  0  0  0  0  0  0  0  0  0  0  0
    2.2932   54.4077   74.0715 H   0  0  0  0  0  0  0  0  0  0  0  0
    0.5513   54.2869   74.6214 H   0  0  0  0  0  0  0  0  0  0  0  0
    0.9901   55.3373   72.3255 H   0  0  0  0  0  0  0  0  0  0  0  0
   -0.0705   56.2246   73.4843 H   0  0  0  0  0  0  0  0  0  0  0  0
    4.5014   61.1146   73.6152 H   0  0  0  0  0  0  0  0  0  0  0  0
    5.2370   61.7570   71.3281 H   0  0  0  0  0  0  0  0  0  0  0  0
    4.5869   60.3386   69.3798 H   0  0  0  0  0  0  0  0  0  0  0  0
    3.1873   58.3194   69.7345 H   0  0  0  0  0  0  0  0  0  0  0  0
    1.3940   63.9671   70.4701 H   0  0  0  0  0  0  0  0  0  0  0  0
   -0.3540   64.0937   69.9986 H   0  0  0  0  0  0  0  0  0  0  0  0
   -0.1265   66.4451   71.2131 H   0  0  0  0  0  0  0  0  0  0  0  0
    1.6261   66.1880   70.7179 H   0  0  0  0  0  0  0  0  0  0  0  0
    0.4536   65.6647   68.3865 H   0  0  0  0  0  0  0  0  0  0  0  0
   -0.7676   66.8193   69.0894 H   0  0  0  0  0  0  0  0  0  0  0  0
    0.6560   68.5974   69.0373 H   0  0  0  0  0  0  0  0  0  0  0  0
    2.1298   67.5438   69.2210 H   0  0  0  0  0  0  0  0  0  0  0  0
    2.2951   67.1239   66.9753 H   0  0  0  0  0  0  0  0  0  0  0  0
    0.5208   67.3956   66.6949 H   0  0  0  0  0  0  0  0  0  0  0  0
    0.9750   69.8680   66.7441 H   0  0  0  0  0  0  0  0  0  0  0  0
    1.7271   68.0301   64.4097 H   0  0  0  0  0  0  0  0  0  0  0  0
    2.3412   69.3035   63.2777 H   0  0  0  0  0  0  0  0  0  0  0  0
    3.3990   66.4985   63.7526 H   0  0  0  0  0  0  0  0  0  0  0  0
    2.8444   67.3154   62.2049 H   0  0  0  0  0  0  0  0  0  0  0  0
    5.4941   67.0484   63.2539 H   0  0  0  0  0  0  0  0  0  0  0  0
    4.8872   67.8254   61.7101 H   0  0  0  0  0  0  0  0  0  0  0  0
    6.3487   69.2528   63.2663 H   0  0  0  0  0  0  0  0  0  0  0  0
    4.7942   69.9441   62.6629 H   0  0  0  0  0  0  0  0  0  0  0  0
    2.6738   69.8349   69.0455 H   0  0  0  0  0  0  0  0  0  0  0  0
    4.3686   70.7644   70.6087 H   0  0  0  0  0  0  0  0  0  0  0  0
    6.6534   71.3137   69.7688 H   0  0  0  0  0  0  0  0  0  0  0  0
    7.2241   70.9031   67.3869 H   0  0  0  0  0  0  0  0  0  0  0  0
  2  1  2  0
  3  2  1  0
  4  2  1  0
  5  4  1  0
  6  5  1  0
  7  6  1  0
  8  7  1  0
  8  4  1  0
  9  8  1  0
 10  9  1  0
 11 10  1  0
 12 11  1  0
 13 12  1  0
 14 13  1  0
 15 14  1  0
 16 15  1  0
 17 16  1  0
 18 17  1  0
 18 13  2  0
 19 18  1  0
 20 19  2  0
 21 20  1  0
 21 12  2  0
 22 21  1  0
 23 22  2  0
 24 23  1  0
 25 20  1  0
 25 24  2  0
 26  3  1  0
 27 26  1  0
 28 27  1  0
 29 28  1  0
 30 29  1  0
 31 30  1  0
 32 31  1  0
 33 32  1  0
 34 33  1  0
 35 34  1  0
 36 35  1  0
 37 36  1  0
 38 33  2  0
 38 37  1  0
 39 38  1  0
 40 39  2  0
 41 40  1  0
 41 32  2  0
 42 41  1  0
 43 42  2  0
 44 43  1  0
 45 44  2  0
 45 40  1  0
  3 46  1  0
  4 47  1  6
  5 48  1  0
  5 49  1  0
  6 50  1  0
  6 51  1  0
  7 52  1  0
  7 53  1  0
  8 54  1  6
  9 55  1  0
  9 56  1  0
 10 57  1  0
 10 58  1  0
 11 59  1  0
 14 60  1  0
 14 61  1  0
 15 62  1  0
 15 63  1  0
 16 64  1  0
 16 65  1  0
 17 66  1  0
 17 67  1  0
 22 68  1  0
 23 69  1  0
 24 70  1  0
 25 71  1  0
 26 72  1  0
 26 73  1  0
 27 74  1  0
 27 75  1  0
 28 76  1  0
 28 77  1  0
 29 78  1  0
 29 79  1  0
 30 80  1  0
 30 81  1  0
 31 82  1  0
 34 83  1  0
 34 84  1  0
 35 85  1  0
 35 86  1  0
 36 87  1  0
 36 88  1  0
 37 89  1  0
 37 90  1  0
 42 91  1  0
 43 92  1  0
 44 93  1  0
 45 94  1  0
M  CHG  1   8   1
M  END
>  <score>  (9) 
-11.293

$$$$
