=
     RDKit          3D

 30 30  0  0  0  0  0  0  0  0999 V2000
    2.2470   69.4890   67.5550 C   0  0  0  0  0  0  0  0  0  0  0  0
    2.4030   70.1840   68.7560 C   0  0  0  0  0  0  0  0  0  0  0  0
    3.6290   70.7710   69.0850 C   0  0  0  0  0  0  0  0  0  0  0  0
    4.7090   70.6580   68.2020 C   0  0  0  0  0  0  0  0  0  0  0  0
    4.5970   69.9500   66.9970 C   0  0  0  0  0  0  0  0  0  0  0  0
    3.3460   69.3780   66.6880 C   0  0  0  0  0  0  0  0  0  0  0  0
    1.0950   66.8680   68.3310 O   0  0  0  0  0  0  0  0  0  0  0  0
    0.5580   67.6340   67.5390 C   0  0  0  0  0  0  0  0  0  0  0  0
    1.0460   68.8730   67.1490 N   0  0  0  0  0  0  0  0  0  0  0  0
   -0.7740   67.2940   66.8610 C   0  0  0  0  0  0  0  0  0  0  0  0
   -1.8110   66.8680   67.8980 C   0  0  0  0  0  0  0  0  0  0  0  0
   -1.2980   68.4790   66.0500 C   0  0  0  0  0  0  0  0  0  0  0  0
    5.7520   69.7850   66.0460 C   0  0  0  0  0  0  0  0  0  0  0  0
    6.8440   69.2170   66.6230 F   0  0  0  0  0  0  0  0  0  0  0  0
    5.4410   68.9720   64.9940 F   0  0  0  0  0  0  0  0  0  0  0  0
    6.1540   70.9560   65.4910 F   0  0  0  0  0  0  0  0  0  0  0  0
    5.9530   71.3190   68.5740 N   0  0  0  0  0  4  0  0  0  0  0  0
    6.1320   72.4650   68.1460 O   0  0  0  0  0  0  0  0  0  0  0  0
    6.7440   70.6740   69.2710 O   0  0  0  0  0  1  0  0  0  0  0  0
    1.5538   70.2706   69.4497 H   0  0  0  0  0  0  0  0  0  0  0  0
    3.7438   71.3183   70.0322 H   0  0  0  0  0  0  0  0  0  0  0  0
    3.2276   68.8297   65.7418 H   0  0  0  0  0  0  0  0  0  0  0  0
    0.4632   69.4040   66.4862 H   0  0  0  0  0  0  0  0  0  0  0  0
   -0.5956   66.4558   66.1714 H   0  0  0  0  0  0  0  0  0  0  0  0
   -1.4086   67.0333   68.9083 H   0  0  0  0  0  0  0  0  0  0  0  0
   -2.7270   67.4627   67.7663 H   0  0  0  0  0  0  0  0  0  0  0  0
   -2.0444   65.8011   67.7663 H   0  0  0  0  0  0  0  0  0  0  0  0
   -1.6462   69.2665   66.7345 H   0  0  0  0  0  0  0  0  0  0  0  0
   -0.4910   68.8749   65.4159 H   0  0  0  0  0  0  0  0  0  0  0  0
   -2.1339   68.1484   65.4159 H   0  0  0  0  0  0  0  0  0  0  0  0
  2  1  2  0
  3  2  1  0
  4  3  2  0
  5  4  1  0
  6  5  2  0
  6  1  1  0
  8  7  2  0
  9  8  1  0
  9  1  1  0
 10  8  1  0
 11 10  1  0
 12 10  1  0
 13  5  1  0
 14 13  1  0
 15 13  1  0
 16 13  1  0
 17  4  1  0
 18 17  2  0
 19 17  1  0
  2 20  1  0
  3 21  1  0
  6 22  1  0
  9 23  1  0
 10 24  1  0
 11 25  1  0
 11 26  1  0
 11 27  1  0
 12 28  1  0
 12 29  1  0
 12 30  1  0
M  CHG  2  17   1  19  -1
M  END
>  <score>  (1) 
-9.213

$$$$
=
     RDKit          3D

 30 30  0  0  0  0  0  0  0  0999 V2000
    3.2610   69.6070   67.2630 C   0  0  0  0  0  0  0  0  0  0  0  0
    2.1070   69.8340   68.0160 C   0  0  0  0  0  0  0  0  0  0  0  0
    0.8830   69.2800   67.6270 C   0  0  0  0  0  0  0  0  0  0  0  0
    0.8150   68.4950   66.4700 C   0  0  0  0  0  0  0  0  0  0  0  0
    1.9470   68.2640   65.6770 C   0  0  0  0  0  0  0  0  0  0  0  0
    3.1700   68.8250   66.1000 C   0  0  0  0  0  0  0  0  0  0  0  0
    4.3040   70.5940   69.8580 O   0  0  0  0  0  0  0  0  0  0  0  0
    4.9640   70.5830   68.8250 C   0  0  0  0  0  0  0  0  0  0  0  0
    4.5310   70.1250   67.5900 N   0  0  0  0  0  0  0  0  0  0  0  0
    6.4080   71.0960   68.7820 C   0  0  0  0  0  0  0  0  0  0  0  0
    7.1800   70.6330   70.0150 C   0  0  0  0  0  0  0  0  0  0  0  0
    7.1190   70.6340   67.5100 C   0  0  0  0  0  0  0  0  0  0  0  0
    1.8950   67.4520   64.4100 C   0  0  0  0  0  0  0  0  0  0  0  0
    1.0150   67.9400   63.4970 F   0  0  0  0  0  0  0  0  0  0  0  0
    3.0990   67.4240   63.7660 F   0  0  0  0  0  0  0  0  0  0  0  0
    1.5720   66.1520   64.6270 F   0  0  0  0  0  0  0  0  0  0  0  0
   -0.4760   67.9120   66.1270 N   0  0  0  0  0  4  0  0  0  0  0  0
   -0.7160   66.7810   66.5650 O   0  0  0  0  0  0  0  0  0  0  0  0
   -1.2220   68.5850   65.4080 O   0  0  0  0  0  1  0  0  0  0  0  0
    2.1611   70.4540   68.9230 H   0  0  0  0  0  0  0  0  0  0  0  0
   -0.0212   69.4602   68.2270 H   0  0  0  0  0  0  0  0  0  0  0  0
    4.0764   68.6453   65.5033 H   0  0  0  0  0  0  0  0  0  0  0  0
    5.2165   70.1682   66.8225 H   0  0  0  0  0  0  0  0  0  0  0  0
    6.3743   72.1955   68.7778 H   0  0  0  0  0  0  0  0  0  0  0  0
    6.6471   70.9526   70.9227 H   0  0  0  0  0  0  0  0  0  0  0  0
    7.2626   69.5362   70.0054 H   0  0  0  0  0  0  0  0  0  0  0  0
    8.1865   71.0766   70.0054 H   0  0  0  0  0  0  0  0  0  0  0  0
    8.0131   70.0530   67.7801 H   0  0  0  0  0  0  0  0  0  0  0  0
    6.4384   70.0052   66.9173 H   0  0  0  0  0  0  0  0  0  0  0  0
    7.4171   71.5114   66.9173 H   0  0  0  0  0  0  0  0  0  0  0  0
  2  1  2  0
  3  2  1  0
  4  3  2  0
  5  4  1  0
  6  5  2  0
  6  1  1  0
  8  7  2  0
  9  8  1  0
  9  1  1  0
 10  8  1  0
 11 10  1  0
 12 10  1  0
 13  5  1  0
 14 13  1  0
 15 13  1  0
 16 13  1  0
 17  4  1  0
 18 17  2  0
 19 17  1  0
  2 20  1  0
  3 21  1  0
  6 22  1  0
  9 23  1  0
 10 24  1  0
 11 25  1  0
 11 26  1  0
 11 27  1  0
 12 28  1  0
 12 29  1  0
 12 30  1  0
M  CHG  2  17   1  19  -1
M  END
>  <score>  (2) 
-8.706

$$$$
=
     RDKit          3D

 30 30  0  0  0  0  0  0  0  0999 V2000
    4.6540   69.5330   65.7880 C   0  0  0  0  0  0  0  0  0  0  0  0
    5.6300   69.3170   64.8120 C   0  0  0  0  0  0  0  0  0  0  0  0
    5.2720   68.8850   63.5310 C   0  0  0  0  0  0  0  0  0  0  0  0
    3.9250   68.6650   63.2270 C   0  0  0  0  0  0  0  0  0  0  0  0
    2.9190   68.8500   64.1850 C   0  0  0  0  0  0  0  0  0  0  0  0
    3.3080   69.2970   65.4650 C   0  0  0  0  0  0  0  0  0  0  0  0
    6.4270   71.7160   66.7290 O   0  0  0  0  0  0  0  0  0  0  0  0
    5.7820   70.9980   67.4840 C   0  0  0  0  0  0  0  0  0  0  0  0
    4.9320   69.9720   67.0990 N   0  0  0  0  0  0  0  0  0  0  0  0
    5.8430   71.1610   69.0070 C   0  0  0  0  0  0  0  0  0  0  0  0
    4.6550   70.4680   69.6690 C   0  0  0  0  0  0  0  0  0  0  0  0
    7.1550   70.6110   69.5670 C   0  0  0  0  0  0  0  0  0  0  0  0
    1.4650   68.5890   63.8940 C   0  0  0  0  0  0  0  0  0  0  0  0
    1.2300   67.3360   63.4240 F   0  0  0  0  0  0  0  0  0  0  0  0
    0.6870   68.7040   65.0100 F   0  0  0  0  0  0  0  0  0  0  0  0
    0.9400   69.4600   62.9960 F   0  0  0  0  0  0  0  0  0  0  0  0
    3.6010   68.2500   61.8680 N   0  0  0  0  0  4  0  0  0  0  0  0
    3.8000   67.0640   61.5790 O   0  0  0  0  0  0  0  0  0  0  0  0
    3.1720   69.1210   61.1020 O   0  0  0  0  0  1  0  0  0  0  0  0
    6.6895   69.4882   65.0533 H   0  0  0  0  0  0  0  0  0  0  0  0
    6.0457   68.7192   62.7669 H   0  0  0  0  0  0  0  0  0  0  0  0
    2.5363   69.4652   66.2307 H   0  0  0  0  0  0  0  0  0  0  0  0
    4.4476   69.4728   67.8586 H   0  0  0  0  0  0  0  0  0  0  0  0
    5.7962   72.2365   69.2332 H   0  0  0  0  0  0  0  0  0  0  0  0
    4.7581   70.5282   70.7625 H   0  0  0  0  0  0  0  0  0  0  0  0
    3.7228   70.9640   69.3608 H   0  0  0  0  0  0  0  0  0  0  0  0
    4.6279   69.4124   69.3608 H   0  0  0  0  0  0  0  0  0  0  0  0
    7.1193   70.6260   70.6663 H   0  0  0  0  0  0  0  0  0  0  0  0
    7.2976   69.5774   69.2188 H   0  0  0  0  0  0  0  0  0  0  0  0
    7.9921   71.2340   69.2188 H   0  0  0  0  0  0  0  0  0  0  0  0
  2  1  2  0
  3  2  1  0
  4  3  2  0
  5  4  1  0
  6  5  2  0
  6  1  1  0
  8  7  2  0
  9  8  1  0
  9  1  1  0
 10  8  1  0
 11 10  1  0
 12 10  1  0
 13  5  1  0
 14 13  1  0
 15 13  1  0
 16 13  1  0
 17  4  1  0
 18 17  2  0
 19 17  1  0
  2 20  1  0
  3 21  1  0
  6 22  1  0
  9 23  1  0
 10 24  1  0
 11 25  1  0
 11 26  1  0
 11 27  1  0
 12 28  1  0
 12 29  1  0
 12 30  1  0
M  CHG  2  17   1  19  -1
M  END
>  <score>  (3) 
-8.65

$$$$
=
     RDKit          3D

 30 30  0  0  0  0  0  0  0  0999 V2000
    1.3690   68.6980   64.5500 C   0  0  0  0  0  0  0  0  0  0  0  0
    1.3880   68.3730   63.1920 C   0  0  0  0  0  0  0  0  0  0  0  0
    2.5980   68.3120   62.4930 C   0  0  0  0  0  0  0  0  0  0  0  0
    3.7980   68.5820   63.1610 C   0  0  0  0  0  0  0  0  0  0  0  0
    3.8160   68.9320   64.5180 C   0  0  0  0  0  0  0  0  0  0  0  0
    2.5820   68.9760   65.2000 C   0  0  0  0  0  0  0  0  0  0  0  0
    0.2130   66.7430   66.4570 O   0  0  0  0  0  0  0  0  0  0  0  0
   -0.3070   67.8230   66.2000 C   0  0  0  0  0  0  0  0  0  0  0  0
    0.1940   68.7770   65.3260 N   0  0  0  0  0  0  0  0  0  0  0  0
   -1.6270   68.2600   66.8440 C   0  0  0  0  0  0  0  0  0  0  0  0
   -2.5930   68.7860   65.7840 C   0  0  0  0  0  0  0  0  0  0  0  0
   -2.2700   67.1090   67.6180 C   0  0  0  0  0  0  0  0  0  0  0  0
    5.0890   69.2610   65.2520 C   0  0  0  0  0  0  0  0  0  0  0  0
    5.6110   70.4660   64.9060 F   0  0  0  0  0  0  0  0  0  0  0  0
    4.9020   69.3270   66.6030 F   0  0  0  0  0  0  0  0  0  0  0  0
    6.0610   68.3330   65.0680 F   0  0  0  0  0  0  0  0  0  0  0  0
    5.0330   68.4690   62.3970 N   0  0  0  0  0  4  0  0  0  0  0  0
    5.5020   69.5130   61.9270 O   0  0  0  0  0  0  0  0  0  0  0  0
    5.5070   67.3360   62.2590 O   0  0  0  0  0  1  0  0  0  0  0  0
    0.4439   68.1633   62.6679 H   0  0  0  0  0  0  0  0  0  0  0  0
    2.6065   68.0532   61.4239 H   0  0  0  0  0  0  0  0  0  0  0  0
    2.5698   69.2349   66.2690 H   0  0  0  0  0  0  0  0  0  0  0  0
   -0.3558   69.6430   65.2332 H   0  0  0  0  0  0  0  0  0  0  0  0
   -1.4033   69.0700   67.5538 H   0  0  0  0  0  0  0  0  0  0  0  0
   -3.4569   69.2564   66.2763 H   0  0  0  0  0  0  0  0  0  0  0  0
   -2.0794   69.5290   65.1562 H   0  0  0  0  0  0  0  0  0  0  0  0
   -2.9384   67.9514   65.1562 H   0  0  0  0  0  0  0  0  0  0  0  0
   -2.1681   67.2913   68.6980 H   0  0  0  0  0  0  0  0  0  0  0  0
   -3.3363   67.0418   67.3565 H   0  0  0  0  0  0  0  0  0  0  0  0
   -1.7682   66.1657   67.3565 H   0  0  0  0  0  0  0  0  0  0  0  0
  2  1  2  0
  3  2  1  0
  4  3  2  0
  5  4  1  0
  6  5  2  0
  6  1  1  0
  8  7  2  0
  9  8  1  0
  9  1  1  0
 10  8  1  0
 11 10  1  0
 12 10  1  0
 13  5  1  0
 14 13  1  0
 15 13  1  0
 16 13  1  0
 17  4  1  0
 18 17  2  0
 19 17  1  0
  2 20  1  0
  3 21  1  0
  6 22  1  0
  9 23  1  0
 10 24  1  0
 11 25  1  0
 11 26  1  0
 11 27  1  0
 12 28  1  0
 12 29  1  0
 12 30  1  0
M  CHG  2  17   1  19  -1
M  END
>  <score>  (4) 
-8.509

$$$$
=
     RDKit          3D

 30 30  0  0  0  0  0  0  0  0999 V2000
    2.0250   69.0940   66.8100 C   0  0  0  0  0  0  0  0  0  0  0  0
    2.6130   69.6630   67.9420 C   0  0  0  0  0  0  0  0  0  0  0  0
    3.9510   70.0700   67.9190 C   0  0  0  0  0  0  0  0  0  0  0  0
    4.7050   69.9030   66.7530 C   0  0  0  0  0  0  0  0  0  0  0  0
    4.1560   69.3170   65.6040 C   0  0  0  0  0  0  0  0  0  0  0  0
    2.8010   68.9260   65.6520 C   0  0  0  0  0  0  0  0  0  0  0  0
   -0.4270   70.3380   67.9230 O   0  0  0  0  0  0  0  0  0  0  0  0
   -0.4290   69.2830   67.3000 C   0  0  0  0  0  0  0  0  0  0  0  0
    0.6840   68.6630   66.7500 N   0  0  0  0  0  0  0  0  0  0  0  0
   -1.7190   68.4950   67.0460 C   0  0  0  0  0  0  0  0  0  0  0  0
   -2.2130   68.7190   65.6190 C   0  0  0  0  0  0  0  0  0  0  0  0
   -1.5120   67.0020   67.3040 C   0  0  0  0  0  0  0  0  0  0  0  0
    4.9540   69.0950   64.3470 C   0  0  0  0  0  0  0  0  0  0  0  0
    5.8080   68.0420   64.4340 F   0  0  0  0  0  0  0  0  0  0  0  0
    4.1580   68.8220   63.2720 F   0  0  0  0  0  0  0  0  0  0  0  0
    5.6880   70.1790   63.9870 F   0  0  0  0  0  0  0  0  0  0  0  0
    6.0840   70.3770   66.7690 N   0  0  0  0  0  4  0  0  0  0  0  0
    6.9690   69.5270   66.9220 O   0  0  0  0  0  0  0  0  0  0  0  0
    6.2600   71.5940   66.6500 O   0  0  0  0  0  1  0  0  0  0  0  0
    2.0191   69.7921   68.8589 H   0  0  0  0  0  0  0  0  0  0  0  0
    4.4078   70.5190   68.8133 H   0  0  0  0  0  0  0  0  0  0  0  0
    2.3407   68.4780   64.7590 H   0  0  0  0  0  0  0  0  0  0  0  0
    0.5102   67.7860   66.2385 H   0  0  0  0  0  0  0  0  0  0  0  0
   -2.4822   68.8635   67.7472 H   0  0  0  0  0  0  0  0  0  0  0  0
   -3.2145   69.1731   65.6447 H   0  0  0  0  0  0  0  0  0  0  0  0
   -1.5193   69.3906   65.0920 H   0  0  0  0  0  0  0  0  0  0  0  0
   -2.2611   67.7546   65.0920 H   0  0  0  0  0  0  0  0  0  0  0  0
   -1.4864   66.8173   68.3881 H   0  0  0  0  0  0  0  0  0  0  0  0
   -2.3400   66.4340   66.8548 H   0  0  0  0  0  0  0  0  0  0  0  0
   -0.5607   66.6807   66.8548 H   0  0  0  0  0  0  0  0  0  0  0  0
  2  1  2  0
  3  2  1  0
  4  3  2  0
  5  4  1  0
  6  5  2  0
  6  1  1  0
  8  7  2  0
  9  8  1  0
  9  1  1  0
 10  8  1  0
 11 10  1  0
 12 10  1  0
 13  5  1  0
 14 13  1  0
 15 13  1  0
 16 13  1  0
 17  4  1  0
 18 17  2  0
 19 17  1  0
  2 20  1  0
  3 21  1  0
  6 22  1  0
  9 23  1  0
 10 24  1  0
 11 25  1  0
 11 26  1  0
 11 27  1  0
 12 28  1  0
 12 29  1  0
 12 30  1  0
M  CHG  2  17   1  19  -1
M  END
>  <score>  (5) 
-8.091

$$$$
=
     RDKit          3D

 30 30  0  0  0  0  0  0  0  0999 V2000
    1.1730   65.8190   70.2640 C   0  0  0  0  0  0  0  0  0  0  0  0
    0.2230   65.4290   71.2100 C   0  0  0  0  0  0  0  0  0  0  0  0
    0.3800   64.2380   71.9270 C   0  0  0  0  0  0  0  0  0  0  0  0
    1.4980   63.4310   71.6900 C   0  0  0  0  0  0  0  0  0  0  0  0
    2.4620   63.7780   70.7330 C   0  0  0  0  0  0  0  0  0  0  0  0
    2.2830   64.9890   70.0330 C   0  0  0  0  0  0  0  0  0  0  0  0
   -0.6410   66.5220   68.0250 O   0  0  0  0  0  0  0  0  0  0  0  0
    0.2240   67.2770   68.4560 C   0  0  0  0  0  0  0  0  0  0  0  0
    1.0900   67.0040   69.5040 N   0  0  0  0  0  0  0  0  0  0  0  0
    0.4540   68.6690   67.8580 C   0  0  0  0  0  0  0  0  0  0  0  0
    1.7680   68.7100   67.0830 C   0  0  0  0  0  0  0  0  0  0  0  0
   -0.7070   69.0770   66.9500 C   0  0  0  0  0  0  0  0  0  0  0  0
    3.6550   62.9110   70.4350 C   0  0  0  0  0  0  0  0  0  0  0  0
    3.3200   61.6890   69.9430 F   0  0  0  0  0  0  0  0  0  0  0  0
    4.4720   63.4640   69.4910 F   0  0  0  0  0  0  0  0  0  0  0  0
    4.4450   62.7050   71.5190 F   0  0  0  0  0  0  0  0  0  0  0  0
    1.6340   62.2190   72.4880 N   0  0  0  0  0  4  0  0  0  0  0  0
    1.1120   61.1900   72.0430 O   0  0  0  0  0  0  0  0  0  0  0  0
    2.2420   62.3180   73.5600 O   0  0  0  0  0  1  0  0  0  0  0  0
   -0.6565   66.0637   71.3931 H   0  0  0  0  0  0  0  0  0  0  0  0
   -0.3710   63.9379   72.6726 H   0  0  0  0  0  0  0  0  0  0  0  0
    3.0320   65.2918   69.2865 H   0  0  0  0  0  0  0  0  0  0  0  0
    1.7493   67.7539   69.7567 H   0  0  0  0  0  0  0  0  0  0  0  0
    0.5103   69.3873   68.6892 H   0  0  0  0  0  0  0  0  0  0  0  0
    2.6101   68.7363   67.7902 H   0  0  0  0  0  0  0  0  0  0  0  0
    1.8485   67.8139   66.4501 H   0  0  0  0  0  0  0  0  0  0  0  0
    1.7925   69.6093   66.4501 H   0  0  0  0  0  0  0  0  0  0  0  0
   -1.5663   69.3790   67.5668 H   0  0  0  0  0  0  0  0  0  0  0  0
   -0.3971   69.9201   66.3150 H   0  0  0  0  0  0  0  0  0  0  0  0
   -0.9927   68.2254   66.3150 H   0  0  0  0  0  0  0  0  0  0  0  0
  2  1  2  0
  3  2  1  0
  4  3  2  0
  5  4  1  0
  6  5  2  0
  6  1  1  0
  8  7  2  0
  9  8  1  0
  9  1  1  0
 10  8  1  0
 11 10  1  0
 12 10  1  0
 13  5  1  0
 14 13  1  0
 15 13  1  0
 16 13  1  0
 17  4  1  0
 18 17  2  0
 19 17  1  0
  2 20  1  0
  3 21  1  0
  6 22  1  0
  9 23  1  0
 10 24  1  0
 11 25  1  0
 11 26  1  0
 11 27  1  0
 12 28  1  0
 12 29  1  0
 12 30  1  0
M  CHG  2  17   1  19  -1
M  END
>  <score>  (6) 
-7.382

$$$$
=
     RDKit          3D

 30 30  0  0  0  0  0  0  0  0999 V2000
    2.6150   63.8790   70.0630 C   0  0  0  0  0  0  0  0  0  0  0  0
    3.4190   63.2760   69.0940 C   0  0  0  0  0  0  0  0  0  0  0  0
    4.1310   62.1080   69.3860 C   0  0  0  0  0  0  0  0  0  0  0  0
    4.0380   61.5420   70.6620 C   0  0  0  0  0  0  0  0  0  0  0  0
    3.2570   62.1300   71.6680 C   0  0  0  0  0  0  0  0  0  0  0  0
    2.5420   63.3010   71.3410 C   0  0  0  0  0  0  0  0  0  0  0  0
   -0.3210   64.2500   69.8630 O   0  0  0  0  0  0  0  0  0  0  0  0
    0.4840   65.1670   69.7520 C   0  0  0  0  0  0  0  0  0  0  0  0
    1.8630   65.0520   69.8470 N   0  0  0  0  0  0  0  0  0  0  0  0
    0.0380   66.6090   69.4860 C   0  0  0  0  0  0  0  0  0  0  0  0
    1.2220   67.4640   69.0400 C   0  0  0  0  0  0  0  0  0  0  0  0
   -1.0720   66.6570   68.4350 C   0  0  0  0  0  0  0  0  0  0  0  0
    3.1660   61.5610   73.0580 C   0  0  0  0  0  0  0  0  0  0  0  0
    2.4710   60.3950   73.1150 F   0  0  0  0  0  0  0  0  0  0  0  0
    4.3950   61.2700   73.5780 F   0  0  0  0  0  0  0  0  0  0  0  0
    2.5930   62.4150   73.9430 F   0  0  0  0  0  0  0  0  0  0  0  0
    4.7700   60.3060   70.9050 N   0  0  0  0  0  4  0  0  0  0  0  0
    5.9690   60.4090   71.1900 O   0  0  0  0  0  0  0  0  0  0  0  0
    4.1410   59.2490   70.7880 O   0  0  0  0  0  1  0  0  0  0  0  0
    3.4932   63.7234   68.0919 H   0  0  0  0  0  0  0  0  0  0  0  0
    4.7606   61.6371   68.6166 H   0  0  0  0  0  0  0  0  0  0  0  0
    1.9104   63.7742   72.1073 H   0  0  0  0  0  0  0  0  0  0  0  0
    2.4003   65.9252   69.7483 H   0  0  0  0  0  0  0  0  0  0  0  0
   -0.3597   67.0172   70.4269 H   0  0  0  0  0  0  0  0  0  0  0  0
    1.7519   67.8466   69.9248 H   0  0  0  0  0  0  0  0  0  0  0  0
    1.9093   66.8525   68.4370 H   0  0  0  0  0  0  0  0  0  0  0  0
    0.8577   68.3088   68.4370 H   0  0  0  0  0  0  0  0  0  0  0  0
   -2.0501   66.6993   68.9364 H   0  0  0  0  0  0  0  0  0  0  0  0
   -0.9433   67.5504   67.8063 H   0  0  0  0  0  0  0  0  0  0  0  0
   -1.0209   65.7558   67.8063 H   0  0  0  0  0  0  0  0  0  0  0  0
  2  1  2  0
  3  2  1  0
  4  3  2  0
  5  4  1  0
  6  5  2  0
  6  1  1  0
  8  7  2  0
  9  8  1  0
  9  1  1  0
 10  8  1  0
 11 10  1  0
 12 10  1  0
 13  5  1  0
 14 13  1  0
 15 13  1  0
 16 13  1  0
 17  4  1  0
 18 17  2  0
 19 17  1  0
  2 20  1  0
  3 21  1  0
  6 22  1  0
  9 23  1  0
 10 24  1  0
 11 25  1  0
 11 26  1  0
 11 27  1  0
 12 28  1  0
 12 29  1  0
 12 30  1  0
M  CHG  2  17   1  19  -1
M  END
>  <score>  (7) 
-6.906

$$$$
=
     RDKit          3D

 30 30  0  0  0  0  0  0  0  0999 V2000
    2.3000   62.5370   73.4330 C   0  0  0  0  0  0  0  0  0  0  0  0
    2.8660   61.3080   73.7780 C   0  0  0  0  0  0  0  0  0  0  0  0
    3.5940   60.5710   72.8370 C   0  0  0  0  0  0  0  0  0  0  0  0
    3.7520   61.0700   71.5400 C   0  0  0  0  0  0  0  0  0  0  0  0
    3.1800   62.2890   71.1500 C   0  0  0  0  0  0  0  0  0  0  0  0
    2.4620   63.0160   72.1230 C   0  0  0  0  0  0  0  0  0  0  0  0
   -0.6350   62.7690   73.7920 O   0  0  0  0  0  0  0  0  0  0  0  0
    0.1780   63.4170   74.4410 C   0  0  0  0  0  0  0  0  0  0  0  0
    1.5580   63.3410   74.3220 N   0  0  0  0  0  0  0  0  0  0  0  0
   -0.2590   64.4290   75.5060 C   0  0  0  0  0  0  0  0  0  0  0  0
   -0.6020   65.7710   74.8630 C   0  0  0  0  0  0  0  0  0  0  0  0
   -1.4540   63.9070   76.3040 C   0  0  0  0  0  0  0  0  0  0  0  0
    3.3070   62.8330   69.7520 C   0  0  0  0  0  0  0  0  0  0  0  0
    2.7540   62.0230   68.8110 F   0  0  0  0  0  0  0  0  0  0  0  0
    2.6730   64.0330   69.6070 F   0  0  0  0  0  0  0  0  0  0  0  0
    4.5930   63.0570   69.3850 F   0  0  0  0  0  0  0  0  0  0  0  0
    4.5490   60.2820   70.6080 N   0  0  0  0  0  4  0  0  0  0  0  0
    3.9490   59.4450   69.9230 O   0  0  0  0  0  0  0  0  0  0  0  0
    5.7660   60.4960   70.5900 O   0  0  0  0  0  1  0  0  0  0  0  0
    2.7386   60.9159   74.7978 H   0  0  0  0  0  0  0  0  0  0  0  0
    4.0394   59.6047   73.1159 H   0  0  0  0  0  0  0  0  0  0  0  0
    2.0173   63.9838   71.8480 H   0  0  0  0  0  0  0  0  0  0  0  0
    2.1036   63.9414   74.9566 H   0  0  0  0  0  0  0  0  0  0  0  0
    0.5829   64.5725   76.1993 H   0  0  0  0  0  0  0  0  0  0  0  0
   -0.7925   66.5163   75.6493 H   0  0  0  0  0  0  0  0  0  0  0  0
    0.2399   66.1041   74.2383 H   0  0  0  0  0  0  0  0  0  0  0  0
   -1.5005   65.6593   74.2383 H   0  0  0  0  0  0  0  0  0  0  0  0
   -1.2445   63.9985   77.3800 H   0  0  0  0  0  0  0  0  0  0  0  0
   -2.3482   64.4965   76.0531 H   0  0  0  0  0  0  0  0  0  0  0  0
   -1.6291   62.8504   76.0531 H   0  0  0  0  0  0  0  0  0  0  0  0
  2  1  2  0
  3  2  1  0
  4  3  2  0
  5  4  1  0
  6  5  2  0
  6  1  1  0
  8  7  2  0
  9  8  1  0
  9  1  1  0
 10  8  1  0
 11 10  1  0
 12 10  1  0
 13  5  1  0
 14 13  1  0
 15 13  1  0
 16 13  1  0
 17  4  1  0
 18 17  2  0
 19 17  1  0
  2 20  1  0
  3 21  1  0
  6 22  1  0
  9 23  1  0
 10 24  1  0
 11 25  1  0
 11 26  1  0
 11 27  1  0
 12 28  1  0
 12 29  1  0
 12 30  1  0
M  CHG  2  17   1  19  -1
M  END
>  <score>  (8) 
-6.73

$$$$
=
     RDKit          3D

 30 30  0  0  0  0  0  0  0  0999 V2000
    1.1130   61.4210   72.4210 C   0  0  0  0  0  0  0  0  0  0  0  0
    1.0540   62.7670   72.0520 C   0  0  0  0  0  0  0  0  0  0  0  0
    1.9710   63.2950   71.1380 C   0  0  0  0  0  0  0  0  0  0  0  0
    2.9580   62.4680   70.5920 C   0  0  0  0  0  0  0  0  0  0  0  0
    3.0630   61.1170   70.9540 C   0  0  0  0  0  0  0  0  0  0  0  0
    2.1180   60.6100   71.8700 C   0  0  0  0  0  0  0  0  0  0  0  0
   -1.8370   61.6350   72.6340 O   0  0  0  0  0  0  0  0  0  0  0  0
   -1.1530   60.9550   73.3910 C   0  0  0  0  0  0  0  0  0  0  0  0
    0.2250   60.8120   73.3310 N   0  0  0  0  0  0  0  0  0  0  0  0
   -1.7720   60.1520   74.5400 C   0  0  0  0  0  0  0  0  0  0  0  0
   -3.2920   60.3020   74.5420 C   0  0  0  0  0  0  0  0  0  0  0  0
   -1.3890   58.6750   74.4480 C   0  0  0  0  0  0  0  0  0  0  0  0
    4.1360   60.2140   70.4070 C   0  0  0  0  0  0  0  0  0  0  0  0
    5.3930   60.6470   70.6840 F   0  0  0  0  0  0  0  0  0  0  0  0
    4.0680   58.9560   70.9340 F   0  0  0  0  0  0  0  0  0  0  0  0
    4.0540   60.0470   69.0630 F   0  0  0  0  0  0  0  0  0  0  0  0
    3.8670   63.0570   69.6170 N   0  0  0  0  0  4  0  0  0  0  0  0
    3.5170   63.0270   68.4310 O   0  0  0  0  0  0  0  0  0  0  0  0
    4.9270   63.5240   70.0480 O   0  0  0  0  0  1  0  0  0  0  0  0
    0.2793   63.4173   72.4843 H   0  0  0  0  0  0  0  0  0  0  0  0
    1.9164   64.3552   70.8499 H   0  0  0  0  0  0  0  0  0  0  0  0
    2.1697   59.5504   72.1607 H   0  0  0  0  0  0  0  0  0  0  0  0
    0.6490   60.1885   74.0327 H   0  0  0  0  0  0  0  0  0  0  0  0
   -1.3744   60.5535   75.4838 H   0  0  0  0  0  0  0  0  0  0  0  0
   -3.6555   60.3379   75.5796 H   0  0  0  0  0  0  0  0  0  0  0  0
   -3.5694   61.2319   74.0239 H   0  0  0  0  0  0  0  0  0  0  0  0
   -3.7458   59.4443   74.0239 H   0  0  0  0  0  0  0  0  0  0  0  0
   -1.2815   58.2603   75.4611 H   0  0  0  0  0  0  0  0  0  0  0  0
   -2.1744   58.1255   73.9083 H   0  0  0  0  0  0  0  0  0  0  0  0
   -0.4356   58.5764   73.9083 H   0  0  0  0  0  0  0  0  0  0  0  0
  2  1  2  0
  3  2  1  0
  4  3  2  0
  5  4  1  0
  6  5  2  0
  6  1  1  0
  8  7  2  0
  9  8  1  0
  9  1  1  0
 10  8  1  0
 11 10  1  0
 12 10  1  0
 13  5  1  0
 14 13  1  0
 15 13  1  0
 16 13  1  0
 17  4  1  0
 18 17  2  0
 19 17  1  0
  2 20  1  0
  3 21  1  0
  6 22  1  0
  9 23  1  0
 10 24  1  0
 11 25  1  0
 11 26  1  0
 11 27  1  0
 12 28  1  0
 12 29  1  0
 12 30  1  0
M  CHG  2  17   1  19  -1
M  END
>  <score>  (9) 
-6.711

$$$$
