=
     RDKit          3D

 32 34  0  0  0  0  0  0  0  0999 V2000
   -0.0490   66.9310   68.4610 O   0  0  0  0  0  0  0  0  0  0  0  0
    0.6580   67.5630   67.6760 C   0  0  0  0  0  0  0  0  0  0  0  0
    0.6680   69.0800   67.6190 C   0  0  0  0  0  0  0  0  0  0  0  0
    1.9900   69.5990   67.9390 N   0  0  0  0  0  0  0  0  0  0  0  0
    2.9710   69.3950   67.1280 C   0  0  0  0  0  0  0  0  0  0  0  0
    2.8740   68.6510   65.8350 C   0  0  0  0  0  0  0  0  0  0  0  0
    2.1980   67.4230   65.7320 C   0  0  0  0  0  0  0  0  0  0  0  0
    1.3840   66.8790   66.7350 N   0  0  0  0  0  0  0  0  0  0  0  0
    2.3320   66.6600   64.5620 C   0  0  0  0  0  0  0  0  0  0  0  0
    3.0550   67.1450   63.4690 C   0  0  0  0  0  0  0  0  0  0  0  0
    3.6620   68.4020   63.5500 C   0  0  0  0  0  0  0  0  0  0  0  0
    3.5810   69.1550   64.7270 C   0  0  0  0  0  0  0  0  0  0  0  0
    4.3050   69.9420   67.5360 C   0  0  0  0  0  0  0  0  0  0  0  0
    4.4410   70.5190   68.8040 C   0  0  0  0  0  0  0  0  0  0  0  0
    5.6730   71.0380   69.2050 C   0  0  0  0  0  0  0  0  0  0  0  0
    6.7700   70.9710   68.3480 C   0  0  0  0  0  0  0  0  0  0  0  0
    6.6430   70.3770   67.0910 C   0  0  0  0  0  0  0  0  0  0  0  0
    5.4130   69.8570   66.6860 C   0  0  0  0  0  0  0  0  0  0  0  0
    4.4120   68.9240   62.4000 N   0  0  0  0  0  4  0  0  0  0  0  0
    3.7890   69.1120   61.3460 O   0  0  0  0  0  0  0  0  0  0  0  0
    5.6210   69.1460   62.5540 O   0  0  0  0  0  1  0  0  0  0  0  0
    0.3881   69.4050   66.6061 H   0  0  0  0  0  0  0  0  0  0  0  0
   -0.0511   69.4660   68.3564 H   0  0  0  0  0  0  0  0  0  0  0  0
    1.3245   65.8513   66.7690 H   0  0  0  0  0  0  0  0  0  0  0  0
    1.8618   65.6672   64.5045 H   0  0  0  0  0  0  0  0  0  0  0  0
    3.1458   66.5431   62.5528 H   0  0  0  0  0  0  0  0  0  0  0  0
    4.0690   70.1390   64.7861 H   0  0  0  0  0  0  0  0  0  0  0  0
    3.5775   70.5634   69.4840 H   0  0  0  0  0  0  0  0  0  0  0  0
    5.7782   71.5000   70.1977 H   0  0  0  0  0  0  0  0  0  0  0  0
    7.7383   71.3872   68.6628 H   0  0  0  0  0  0  0  0  0  0  0  0
    7.5125   70.3189   66.4198 H   0  0  0  0  0  0  0  0  0  0  0  0
    5.3147   69.3807   65.6994 H   0  0  0  0  0  0  0  0  0  0  0  0
  2  1  2  0
  3  2  1  0
  4  3  1  0
  5  4  2  0
  6  5  1  0
  7  6  2  0
  8  7  1  0
  8  2  1  0
  9  7  1  0
 10  9  2  0
 11 10  1  0
 12 11  2  0
 12  6  1  0
 13  5  1  0
 14 13  2  0
 15 14  1  0
 16 15  2  0
 17 16  1  0
 18 13  1  0
 18 17  2  0
 19 11  1  0
 20 19  2  0
 21 19  1  0
  3 22  1  0
  3 23  1  0
  8 24  1  0
  9 25  1  0
 10 26  1  0
 12 27  1  0
 14 28  1  0
 15 29  1  0
 16 30  1  0
 17 31  1  0
 18 32  1  0
M  CHG  2  19   1  21  -1
M  END
>  <score>  (1) 
-11.284

$$$$
=
     RDKit          3D

 32 34  0  0  0  0  0  0  0  0999 V2000
    3.3830   69.0230   60.1830 O   0  0  0  0  0  0  0  0  0  0  0  0
    3.0420   68.7100   61.3240 C   0  0  0  0  0  0  0  0  0  0  0  0
    3.7820   67.6690   62.1450 C   0  0  0  0  0  0  0  0  0  0  0  0
    4.3270   68.2610   63.3580 N   0  0  0  0  0  0  0  0  0  0  0  0
    3.5300   68.6700   64.2840 C   0  0  0  0  0  0  0  0  0  0  0  0
    2.0380   68.5840   64.2320 C   0  0  0  0  0  0  0  0  0  0  0  0
    1.3110   68.9550   63.0880 C   0  0  0  0  0  0  0  0  0  0  0  0
    1.8840   69.2320   61.8390 N   0  0  0  0  0  0  0  0  0  0  0  0
   -0.0850   69.0740   63.1690 C   0  0  0  0  0  0  0  0  0  0  0  0
   -0.7650   68.7430   64.3440 C   0  0  0  0  0  0  0  0  0  0  0  0
   -0.0420   68.3010   65.4560 C   0  0  0  0  0  0  0  0  0  0  0  0
    1.3550   68.2250   65.4090 C   0  0  0  0  0  0  0  0  0  0  0  0
    4.1650   69.2870   65.4930 C   0  0  0  0  0  0  0  0  0  0  0  0
    5.4940   69.7190   65.4140 C   0  0  0  0  0  0  0  0  0  0  0  0
    6.1080   70.2940   66.5270 C   0  0  0  0  0  0  0  0  0  0  0  0
    5.3940   70.4490   67.7150 C   0  0  0  0  0  0  0  0  0  0  0  0
    4.0620   70.0390   67.7910 C   0  0  0  0  0  0  0  0  0  0  0  0
    3.4440   69.4630   66.6800 C   0  0  0  0  0  0  0  0  0  0  0  0
   -0.7520   67.9390   66.6900 N   0  0  0  0  0  4  0  0  0  0  0  0
   -0.4910   66.8410   67.2010 O   0  0  0  0  0  0  0  0  0  0  0  0
   -1.5690   68.7520   67.1430 O   0  0  0  0  0  1  0  0  0  0  0  0
    3.0852   66.8630   62.4184 H   0  0  0  0  0  0  0  0  0  0  0  0
    4.6117   67.2693   61.5435 H   0  0  0  0  0  0  0  0  0  0  0  0
    1.3787   69.9022   61.2420 H   0  0  0  0  0  0  0  0  0  0  0  0
   -0.6510   69.4324   62.2965 H   0  0  0  0  0  0  0  0  0  0  0  0
   -1.8605   68.8295   64.3937 H   0  0  0  0  0  0  0  0  0  0  0  0
    1.9181   67.8852   66.2907 H   0  0  0  0  0  0  0  0  0  0  0  0
    6.0544   69.6051   64.4743 H   0  0  0  0  0  0  0  0  0  0  0  0
    7.1553   70.6251   66.4676 H   0  0  0  0  0  0  0  0  0  0  0  0
    5.8817   70.8954   68.5941 H   0  0  0  0  0  0  0  0  0  0  0  0
    3.4990   70.1699   68.7269 H   0  0  0  0  0  0  0  0  0  0  0  0
    2.3917   69.1477   66.7370 H   0  0  0  0  0  0  0  0  0  0  0  0
  2  1  2  0
  3  2  1  0
  4  3  1  0
  5  4  2  0
  6  5  1  0
  7  6  2  0
  8  7  1  0
  8  2  1  0
  9  7  1  0
 10  9  2  0
 11 10  1  0
 12 11  2  0
 12  6  1  0
 13  5  1  0
 14 13  2  0
 15 14  1  0
 16 15  2  0
 17 16  1  0
 18 13  1  0
 18 17  2  0
 19 11  1  0
 20 19  2  0
 21 19  1  0
  3 22  1  0
  3 23  1  0
  8 24  1  0
  9 25  1  0
 10 26  1  0
 12 27  1  0
 14 28  1  0
 15 29  1  0
 16 30  1  0
 17 31  1  0
 18 32  1  0
M  CHG  2  19   1  21  -1
M  END
>  <score>  (2) 
-11.071

$$$$
=
     RDKit          3D

 32 34  0  0  0  0  0  0  0  0999 V2000
    3.5070   69.9600   69.6150 O   0  0  0  0  0  0  0  0  0  0  0  0
    3.0400   69.7850   68.4880 C   0  0  0  0  0  0  0  0  0  0  0  0
    3.7660   70.2110   67.2250 C   0  0  0  0  0  0  0  0  0  0  0  0
    4.0560   69.0580   66.3840 N   0  0  0  0  0  0  0  0  0  0  0  0
    3.0900   68.4220   65.8160 C   0  0  0  0  0  0  0  0  0  0  0  0
    1.6410   68.7720   65.9390 C   0  0  0  0  0  0  0  0  0  0  0  0
    1.0520   69.0780   67.1780 C   0  0  0  0  0  0  0  0  0  0  0  0
    1.7670   69.2920   68.3650 N   0  0  0  0  0  0  0  0  0  0  0  0
   -0.3450   69.1730   67.2700 C   0  0  0  0  0  0  0  0  0  0  0  0
   -1.1470   69.0560   66.1330 C   0  0  0  0  0  0  0  0  0  0  0  0
   -0.5490   68.8280   64.8900 C   0  0  0  0  0  0  0  0  0  0  0  0
    0.8390   68.6800   64.7870 C   0  0  0  0  0  0  0  0  0  0  0  0
    3.4660   67.2340   64.9840 C   0  0  0  0  0  0  0  0  0  0  0  0
    2.9470   65.9790   65.3200 C   0  0  0  0  0  0  0  0  0  0  0  0
    3.2850   64.8580   64.5620 C   0  0  0  0  0  0  0  0  0  0  0  0
    4.1310   64.9900   63.4610 C   0  0  0  0  0  0  0  0  0  0  0  0
    4.6340   66.2430   63.1090 C   0  0  0  0  0  0  0  0  0  0  0  0
    4.2980   67.3680   63.8650 C   0  0  0  0  0  0  0  0  0  0  0  0
   -1.3870   68.7180   63.6880 N   0  0  0  0  0  4  0  0  0  0  0  0
   -2.6160   68.7480   63.8390 O   0  0  0  0  0  0  0  0  0  0  0  0
   -0.8130   68.6020   62.5960 O   0  0  0  0  0  1  0  0  0  0  0  0
    3.1337   70.9161   66.6655 H   0  0  0  0  0  0  0  0  0  0  0  0
    4.7150   70.6904   67.5073 H   0  0  0  0  0  0  0  0  0  0  0  0
    1.2820   69.0522   69.2415 H   0  0  0  0  0  0  0  0  0  0  0  0
   -0.8143   69.3418   68.2504 H   0  0  0  0  0  0  0  0  0  0  0  0
   -2.2406   69.1425   66.2146 H   0  0  0  0  0  0  0  0  0  0  0  0
    1.3019   68.4921   63.8070 H   0  0  0  0  0  0  0  0  0  0  0  0
    2.2720   65.8763   66.1824 H   0  0  0  0  0  0  0  0  0  0  0  0
    2.8844   63.8699   64.8325 H   0  0  0  0  0  0  0  0  0  0  0  0
    4.4024   64.1038   62.8685 H   0  0  0  0  0  0  0  0  0  0  0  0
    5.2953   66.3446   62.2359 H   0  0  0  0  0  0  0  0  0  0  0  0
    4.6860   68.3577   63.5823 H   0  0  0  0  0  0  0  0  0  0  0  0
  2  1  2  0
  3  2  1  0
  4  3  1  0
  5  4  2  0
  6  5  1  0
  7  6  2  0
  8  7  1  0
  8  2  1  0
  9  7  1  0
 10  9  2  0
 11 10  1  0
 12 11  2  0
 12  6  1  0
 13  5  1  0
 14 13  2  0
 15 14  1  0
 16 15  2  0
 17 16  1  0
 18 13  1  0
 18 17  2  0
 19 11  1  0
 20 19  2  0
 21 19  1  0
  3 22  1  0
  3 23  1  0
  8 24  1  0
  9 25  1  0
 10 26  1  0
 12 27  1  0
 14 28  1  0
 15 29  1  0
 16 30  1  0
 17 31  1  0
 18 32  1  0
M  CHG  2  19   1  21  -1
M  END
>  <score>  (3) 
-9.248

$$$$
=
     RDKit          3D

 32 34  0  0  0  0  0  0  0  0999 V2000
    3.3960   70.7970   69.4860 O   0  0  0  0  0  0  0  0  0  0  0  0
    3.2340   70.0060   68.5560 C   0  0  0  0  0  0  0  0  0  0  0  0
    2.3630   68.7680   68.6740 C   0  0  0  0  0  0  0  0  0  0  0  0
    1.2570   68.8250   67.7290 N   0  0  0  0  0  0  0  0  0  0  0  0
    1.4920   68.7450   66.4640 C   0  0  0  0  0  0  0  0  0  0  0  0
    2.8460   68.5860   65.8510 C   0  0  0  0  0  0  0  0  0  0  0  0
    3.9460   69.3580   66.2670 C   0  0  0  0  0  0  0  0  0  0  0  0
    3.9550   70.1790   67.4030 N   0  0  0  0  0  0  0  0  0  0  0  0
    5.1270   69.3340   65.5100 C   0  0  0  0  0  0  0  0  0  0  0  0
    5.2530   68.4900   64.4040 C   0  0  0  0  0  0  0  0  0  0  0  0
    4.1820   67.6680   64.0410 C   0  0  0  0  0  0  0  0  0  0  0  0
    2.9780   67.7150   64.7540 C   0  0  0  0  0  0  0  0  0  0  0  0
    0.3050   68.8320   65.5540 C   0  0  0  0  0  0  0  0  0  0  0  0
   -0.9790   68.7840   66.1080 C   0  0  0  0  0  0  0  0  0  0  0  0
   -2.1000   68.8600   65.2810 C   0  0  0  0  0  0  0  0  0  0  0  0
   -1.9400   68.9960   63.9020 C   0  0  0  0  0  0  0  0  0  0  0  0
   -0.6610   69.0660   63.3470 C   0  0  0  0  0  0  0  0  0  0  0  0
    0.4620   68.9900   64.1720 C   0  0  0  0  0  0  0  0  0  0  0  0
    4.3130   66.7680   62.8880 N   0  0  0  0  0  4  0  0  0  0  0  0
    3.8680   67.1590   61.8000 O   0  0  0  0  0  0  0  0  0  0  0  0
    4.8590   65.6720   63.0730 O   0  0  0  0  0  1  0  0  0  0  0  0
    2.9721   67.8765   68.4636 H   0  0  0  0  0  0  0  0  0  0  0  0
    1.9544   68.7190   69.6941 H   0  0  0  0  0  0  0  0  0  0  0  0
    4.5715   71.0034   67.3675 H   0  0  0  0  0  0  0  0  0  0  0  0
    5.9651   69.9886   65.7912 H   0  0  0  0  0  0  0  0  0  0  0  0
    6.1872   68.4723   63.8235 H   0  0  0  0  0  0  0  0  0  0  0  0
    2.1365   67.0719   64.4569 H   0  0  0  0  0  0  0  0  0  0  0  0
   -1.1046   68.6863   67.1964 H   0  0  0  0  0  0  0  0  0  0  0  0
   -3.1092   68.8127   65.7160 H   0  0  0  0  0  0  0  0  0  0  0  0
   -2.8243   69.0482   63.2499 H   0  0  0  0  0  0  0  0  0  0  0  0
   -0.5384   69.1810   62.2599 H   0  0  0  0  0  0  0  0  0  0  0  0
    1.4701   69.0542   63.7365 H   0  0  0  0  0  0  0  0  0  0  0  0
  2  1  2  0
  3  2  1  0
  4  3  1  0
  5  4  2  0
  6  5  1  0
  7  6  2  0
  8  7  1  0
  8  2  1  0
  9  7  1  0
 10  9  2  0
 11 10  1  0
 12 11  2  0
 12  6  1  0
 13  5  1  0
 14 13  2  0
 15 14  1  0
 16 15  2  0
 17 16  1  0
 18 13  1  0
 18 17  2  0
 19 11  1  0
 20 19  2  0
 21 19  1  0
  3 22  1  0
  3 23  1  0
  8 24  1  0
  9 25  1  0
 10 26  1  0
 12 27  1  0
 14 28  1  0
 15 29  1  0
 16 30  1  0
 17 31  1  0
 18 32  1  0
M  CHG  2  19   1  21  -1
M  END
>  <score>  (4) 
-9.21

$$$$
=
     RDKit          3D

 32 34  0  0  0  0  0  0  0  0999 V2000
    6.4620   70.6550   67.0570 O   0  0  0  0  0  0  0  0  0  0  0  0
    5.4490   70.1700   66.5510 C   0  0  0  0  0  0  0  0  0  0  0  0
    5.2640   70.0400   65.0500 C   0  0  0  0  0  0  0  0  0  0  0  0
    5.1240   68.6430   64.6670 N   0  0  0  0  0  0  0  0  0  0  0  0
    4.0750   67.9840   65.0230 C   0  0  0  0  0  0  0  0  0  0  0  0
    2.9390   68.5430   65.8190 C   0  0  0  0  0  0  0  0  0  0  0  0
    3.1500   69.3270   66.9660 C   0  0  0  0  0  0  0  0  0  0  0  0
    4.3940   69.8370   67.3620 N   0  0  0  0  0  0  0  0  0  0  0  0
    2.0630   69.6320   67.8000 C   0  0  0  0  0  0  0  0  0  0  0  0
    0.7660   69.2410   67.4570 C   0  0  0  0  0  0  0  0  0  0  0  0
    0.5530   68.5260   66.2750 C   0  0  0  0  0  0  0  0  0  0  0  0
    1.6310   68.1700   65.4570 C   0  0  0  0  0  0  0  0  0  0  0  0
    4.0130   66.5450   64.6100 C   0  0  0  0  0  0  0  0  0  0  0  0
    4.5820   66.1660   63.3880 C   0  0  0  0  0  0  0  0  0  0  0  0
    4.5340   64.8330   62.9800 C   0  0  0  0  0  0  0  0  0  0  0  0
    3.9300   63.8760   63.7950 C   0  0  0  0  0  0  0  0  0  0  0  0
    3.3810   64.2460   65.0230 C   0  0  0  0  0  0  0  0  0  0  0  0
    3.4270   65.5790   65.4360 C   0  0  0  0  0  0  0  0  0  0  0  0
   -0.8100   68.1250   65.9020 N   0  0  0  0  0  4  0  0  0  0  0  0
   -1.3380   68.7070   64.9440 O   0  0  0  0  0  0  0  0  0  0  0  0
   -1.3480   67.2290   66.5660 O   0  0  0  0  0  1  0  0  0  0  0  0
    4.3597   70.5891   64.7489 H   0  0  0  0  0  0  0  0  0  0  0  0
    6.1493   70.4569   64.5476 H   0  0  0  0  0  0  0  0  0  0  0  0
    4.5311   69.9772   68.3732 H   0  0  0  0  0  0  0  0  0  0  0  0
    2.2342   70.1856   68.7350 H   0  0  0  0  0  0  0  0  0  0  0  0
   -0.0807   69.4939   68.1121 H   0  0  0  0  0  0  0  0  0  0  0  0
    1.4565   67.5997   64.5327 H   0  0  0  0  0  0  0  0  0  0  0  0
    5.0668   66.9194   62.7498 H   0  0  0  0  0  0  0  0  0  0  0  0
    4.9724   64.5367   62.0156 H   0  0  0  0  0  0  0  0  0  0  0  0
    3.8863   62.8264   63.4687 H   0  0  0  0  0  0  0  0  0  0  0  0
    2.9116   63.4871   65.6663 H   0  0  0  0  0  0  0  0  0  0  0  0
    3.0035   65.8694   66.4088 H   0  0  0  0  0  0  0  0  0  0  0  0
  2  1  2  0
  3  2  1  0
  4  3  1  0
  5  4  2  0
  6  5  1  0
  7  6  2  0
  8  7  1  0
  8  2  1  0
  9  7  1  0
 10  9  2  0
 11 10  1  0
 12 11  2  0
 12  6  1  0
 13  5  1  0
 14 13  2  0
 15 14  1  0
 16 15  2  0
 17 16  1  0
 18 13  1  0
 18 17  2  0
 19 11  1  0
 20 19  2  0
 21 19  1  0
  3 22  1  0
  3 23  1  0
  8 24  1  0
  9 25  1  0
 10 26  1  0
 12 27  1  0
 14 28  1  0
 15 29  1  0
 16 30  1  0
 17 31  1  0
 18 32  1  0
M  CHG  2  19   1  21  -1
M  END
>  <score>  (5) 
-8.693

$$$$
=
     RDKit          3D

 32 34  0  0  0  0  0  0  0  0999 V2000
    1.8070   56.7170   73.0660 O   0  0  0  0  0  0  0  0  0  0  0  0
    1.8890   57.9380   73.2010 C   0  0  0  0  0  0  0  0  0  0  0  0
    3.1850   58.6370   73.5710 C   0  0  0  0  0  0  0  0  0  0  0  0
    3.5940   59.5550   72.5170 N   0  0  0  0  0  0  0  0  0  0  0  0
    2.8950   60.6120   72.2820 C   0  0  0  0  0  0  0  0  0  0  0  0
    1.6570   61.0040   73.0240 C   0  0  0  0  0  0  0  0  0  0  0  0
    0.6360   60.0800   73.3080 C   0  0  0  0  0  0  0  0  0  0  0  0
    0.7470   58.6940   73.1290 N   0  0  0  0  0  0  0  0  0  0  0  0
   -0.5950   60.5440   73.7970 C   0  0  0  0  0  0  0  0  0  0  0  0
   -0.7860   61.8970   74.0880 C   0  0  0  0  0  0  0  0  0  0  0  0
    0.2590   62.8000   73.8740 C   0  0  0  0  0  0  0  0  0  0  0  0
    1.4770   62.3640   73.3390 C   0  0  0  0  0  0  0  0  0  0  0  0
    3.3670   61.4970   71.1690 C   0  0  0  0  0  0  0  0  0  0  0  0
    2.6820   61.4740   69.9490 C   0  0  0  0  0  0  0  0  0  0  0  0
    3.1050   62.2870   68.8970 C   0  0  0  0  0  0  0  0  0  0  0  0
    4.2030   63.1310   69.0650 C   0  0  0  0  0  0  0  0  0  0  0  0
    4.8750   63.1720   70.2870 C   0  0  0  0  0  0  0  0  0  0  0  0
    4.4550   62.3610   71.3430 C   0  0  0  0  0  0  0  0  0  0  0  0
    0.0700   64.2220   74.1910 N   0  0  0  0  0  4  0  0  0  0  0  0
   -0.3090   64.9680   73.2780 O   0  0  0  0  0  0  0  0  0  0  0  0
    0.3000   64.5890   75.3510 O   0  0  0  0  0  1  0  0  0  0  0  0
    3.0375   59.2010   74.5038 H   0  0  0  0  0  0  0  0  0  0  0  0
    3.9705   57.8784   73.7037 H   0  0  0  0  0  0  0  0  0  0  0  0
   -0.1253   58.1876   72.9204 H   0  0  0  0  0  0  0  0  0  0  0  0
   -1.4199   59.8333   73.9531 H   0  0  0  0  0  0  0  0  0  0  0  0
   -1.7508   62.2486   74.4823 H   0  0  0  0  0  0  0  0  0  0  0  0
    2.2915   63.0826   73.1652 H   0  0  0  0  0  0  0  0  0  0  0  0
    1.8106   60.8153   69.8195 H   0  0  0  0  0  0  0  0  0  0  0  0
    2.5725   62.2625   67.9348 H   0  0  0  0  0  0  0  0  0  0  0  0
    4.5397   63.7657   68.2321 H   0  0  0  0  0  0  0  0  0  0  0  0
    5.7362   63.8436   70.4185 H   0  0  0  0  0  0  0  0  0  0  0  0
    4.9779   62.4007   72.3100 H   0  0  0  0  0  0  0  0  0  0  0  0
  2  1  2  0
  3  2  1  0
  4  3  1  0
  5  4  2  0
  6  5  1  0
  7  6  2  0
  8  7  1  0
  8  2  1  0
  9  7  1  0
 10  9  2  0
 11 10  1  0
 12 11  2  0
 12  6  1  0
 13  5  1  0
 14 13  2  0
 15 14  1  0
 16 15  2  0
 17 16  1  0
 18 13  1  0
 18 17  2  0
 19 11  1  0
 20 19  2  0
 21 19  1  0
  3 22  1  0
  3 23  1  0
  8 24  1  0
  9 25  1  0
 10 26  1  0
 12 27  1  0
 14 28  1  0
 15 29  1  0
 16 30  1  0
 17 31  1  0
 18 32  1  0
M  CHG  2  19   1  21  -1
M  END
>  <score>  (6) 
-8.401

$$$$
=
     RDKit          3D

 32 34  0  0  0  0  0  0  0  0999 V2000
    5.6600   71.9770   68.3230 O   0  0  0  0  0  0  0  0  0  0  0  0
    5.2370   70.9860   67.7270 C   0  0  0  0  0  0  0  0  0  0  0  0
    4.6060   69.8050   68.4440 C   0  0  0  0  0  0  0  0  0  0  0  0
    3.2230   69.6270   68.0240 N   0  0  0  0  0  0  0  0  0  0  0  0
    2.9630   69.2500   66.8200 C   0  0  0  0  0  0  0  0  0  0  0  0
    3.9900   68.9600   65.7710 C   0  0  0  0  0  0  0  0  0  0  0  0
    5.0810   69.8160   65.5410 C   0  0  0  0  0  0  0  0  0  0  0  0
    5.4410   70.8840   66.3750 N   0  0  0  0  0  0  0  0  0  0  0  0
    5.8790   69.6230   64.4040 C   0  0  0  0  0  0  0  0  0  0  0  0
    5.6570   68.5400   63.5490 C   0  0  0  0  0  0  0  0  0  0  0  0
    4.6170   67.6480   63.8250 C   0  0  0  0  0  0  0  0  0  0  0  0
    3.7790   67.8540   64.9270 C   0  0  0  0  0  0  0  0  0  0  0  0
    1.5170   69.1080   66.4570 C   0  0  0  0  0  0  0  0  0  0  0  0
    1.1700   68.9150   65.1150 C   0  0  0  0  0  0  0  0  0  0  0  0
   -0.1700   68.7840   64.7520 C   0  0  0  0  0  0  0  0  0  0  0  0
   -1.1650   68.8330   65.7290 C   0  0  0  0  0  0  0  0  0  0  0  0
   -0.8220   69.0050   67.0710 C   0  0  0  0  0  0  0  0  0  0  0  0
    0.5180   69.1360   67.4380 C   0  0  0  0  0  0  0  0  0  0  0  0
    4.3870   66.4990   62.9380 N   0  0  0  0  0  4  0  0  0  0  0  0
    4.6330   65.3710   63.3850 O   0  0  0  0  0  0  0  0  0  0  0  0
    3.9620   66.7300   61.7980 O   0  0  0  0  0  1  0  0  0  0  0  0
    5.1751   68.8936   68.2085 H   0  0  0  0  0  0  0  0  0  0  0  0
    4.6248   69.9975   69.5269 H   0  0  0  0  0  0  0  0  0  0  0  0
    5.9110   71.6805   65.9216 H   0  0  0  0  0  0  0  0  0  0  0  0
    6.6896   70.3328   64.1824 H   0  0  0  0  0  0  0  0  0  0  0  0
    6.2957   68.3908   62.6659 H   0  0  0  0  0  0  0  0  0  0  0  0
    2.9570   67.1526   65.1329 H   0  0  0  0  0  0  0  0  0  0  0  0
    1.9550   68.8666   64.3459 H   0  0  0  0  0  0  0  0  0  0  0  0
   -0.4425   68.6421   63.6958 H   0  0  0  0  0  0  0  0  0  0  0  0
   -2.2222   68.7359   65.4409 H   0  0  0  0  0  0  0  0  0  0  0  0
   -1.6082   69.0373   67.8396 H   0  0  0  0  0  0  0  0  0  0  0  0
    0.7892   69.2611   68.4967 H   0  0  0  0  0  0  0  0  0  0  0  0
  2  1  2  0
  3  2  1  0
  4  3  1  0
  5  4  2  0
  6  5  1  0
  7  6  2  0
  8  7  1  0
  8  2  1  0
  9  7  1  0
 10  9  2  0
 11 10  1  0
 12 11  2  0
 12  6  1  0
 13  5  1  0
 14 13  2  0
 15 14  1  0
 16 15  2  0
 17 16  1  0
 18 13  1  0
 18 17  2  0
 19 11  1  0
 20 19  2  0
 21 19  1  0
  3 22  1  0
  3 23  1  0
  8 24  1  0
  9 25  1  0
 10 26  1  0
 12 27  1  0
 14 28  1  0
 15 29  1  0
 16 30  1  0
 17 31  1  0
 18 32  1  0
M  CHG  2  19   1  21  -1
M  END
>  <score>  (7) 
-8.307

$$$$
