=
     RDKit          3D

 26 26  0  0  0  0  0  0  0  0999 V2000
    4.2660   68.7700   63.9040 C   0  0  2  0  0  0  0  0  0  0  0  0
    4.2460   69.2150   65.3660 C   0  0  0  0  0  0  0  0  0  0  0  0
    3.0950   69.1480   66.1660 C   0  0  0  0  0  0  0  0  0  0  0  0
    3.1170   69.6010   67.4890 C   0  0  0  0  0  0  0  0  0  0  0  0
    4.2870   70.1290   68.0240 C   0  0  0  0  0  0  0  0  0  0  0  0
    5.4400   70.2060   67.2490 C   0  0  0  0  0  0  0  0  0  0  0  0
    5.4190   69.7520   65.9290 C   0  0  0  0  0  0  0  0  0  0  0  0
    4.3080   70.6900   69.6510 Cl  0  0  0  0  0  0  0  0  0  0  0  0
    5.4170   69.4880   63.1460 C   0  0  0  0  0  0  0  0  0  0  0  0
    6.3320   68.5490   62.4580 N   0  0  0  0  0  4  0  0  0  0  0  0
    2.8710   68.8040   63.2450 C   0  0  0  0  0  0  0  0  0  0  0  0
    3.0420   68.2990   61.8260 C   0  0  0  0  0  0  0  0  0  0  0  0
    2.6370   69.1450   60.9640 O   0  0  0  0  0  0  0  0  0  0  0  0
    3.7150   67.2570   61.6800 O   0  0  0  0  0  1  0  0  0  0  0  0
    4.5097   67.6989   63.8463 H   0  0  0  0  0  0  0  0  0  0  0  0
    2.1653   68.7347   65.7479 H   0  0  0  0  0  0  0  0  0  0  0  0
    2.2087   69.5396   68.1065 H   0  0  0  0  0  0  0  0  0  0  0  0
    6.3646   70.6230   67.6748 H   0  0  0  0  0  0  0  0  0  0  0  0
    6.3328   69.8149   65.3198 H   0  0  0  0  0  0  0  0  0  0  0  0
    4.9762   70.1607   62.3956 H   0  0  0  0  0  0  0  0  0  0  0  0
    6.0098   70.0369   63.8925 H   0  0  0  0  0  0  0  0  0  0  0  0
    6.8591   68.0081   63.1584 H   0  0  0  0  0  0  0  0  0  0  0  0
    5.7844   67.9059   61.8685 H   0  0  0  0  0  0  0  0  0  0  0  0
    6.9890   69.0798   61.8685 H   0  0  0  0  0  0  0  0  0  0  0  0
    2.1761   68.1539   63.7967 H   0  0  0  0  0  0  0  0  0  0  0  0
    2.4564   69.8229   63.2531 H   0  0  0  0  0  0  0  0  0  0  0  0
  2  1  1  0
  3  2  2  0
  4  3  1  0
  5  4  2  0
  6  5  1  0
  7  2  1  0
  7  6  2  0
  8  5  1  0
  9  1  1  0
 10  9  1  0
 11  1  1  0
 12 11  1  0
 13 12  2  0
 14 12  1  0
  1 15  1  1
  3 16  1  0
  4 17  1  0
  6 18  1  0
  7 19  1  0
  9 20  1  0
  9 21  1  0
 10 22  1  0
 10 23  1  0
 10 24  1  0
 11 25  1  0
 11 26  1  0
M  CHG  2  10   1  14  -1
M  END
>  <score>  (1) 
-7.854

$$$$
=
     RDKit          3D

 26 26  0  0  0  0  0  0  0  0999 V2000
    1.6320   68.4710   64.8990 C   0  0  2  0  0  0  0  0  0  0  0  0
    2.9410   69.0200   65.4660 C   0  0  0  0  0  0  0  0  0  0  0  0
    4.1030   69.1680   64.6920 C   0  0  0  0  0  0  0  0  0  0  0  0
    5.2870   69.6410   65.2650 C   0  0  0  0  0  0  0  0  0  0  0  0
    5.3250   69.9680   66.6160 C   0  0  0  0  0  0  0  0  0  0  0  0
    4.1860   69.8290   67.4030 C   0  0  0  0  0  0  0  0  0  0  0  0
    3.0020   69.3580   66.8310 C   0  0  0  0  0  0  0  0  0  0  0  0
    6.7860   70.5450   67.3180 Cl  0  0  0  0  0  0  0  0  0  0  0  0
    1.3910   67.0280   65.4230 C   0  0  0  0  0  0  0  0  0  0  0  0
    0.1150   66.8850   66.1600 N   0  0  0  0  0  4  0  0  0  0  0  0
    1.4950   68.6920   63.3780 C   0  0  0  0  0  0  0  0  0  0  0  0
    0.0840   69.1870   63.1300 C   0  0  0  0  0  0  0  0  0  0  0  0
   -0.0050   69.8610   62.0530 O   0  0  0  0  0  0  0  0  0  0  0  0
   -0.8100   68.7200   63.8660 O   0  0  0  0  0  1  0  0  0  0  0  0
    0.7857   69.0598   65.2825 H   0  0  0  0  0  0  0  0  0  0  0  0
    4.0814   68.9089   63.6232 H   0  0  0  0  0  0  0  0  0  0  0  0
    6.1896   69.7547   64.6466 H   0  0  0  0  0  0  0  0  0  0  0  0
    4.2179   70.0890   68.4714 H   0  0  0  0  0  0  0  0  0  0  0  0
    2.1038   69.2496   67.4566 H   0  0  0  0  0  0  0  0  0  0  0  0
    1.3785   66.3409   64.5641 H   0  0  0  0  0  0  0  0  0  0  0  0
    2.2044   66.7932   66.1254 H   0  0  0  0  0  0  0  0  0  0  0  0
    0.2995   66.9057   67.1731 H   0  0  0  0  0  0  0  0  0  0  0  0
   -0.5148   67.6607   65.9098 H   0  0  0  0  0  0  0  0  0  0  0  0
   -0.3275   65.9892   65.9098 H   0  0  0  0  0  0  0  0  0  0  0  0
    2.2242   69.4419   63.0376 H   0  0  0  0  0  0  0  0  0  0  0  0
    1.6880   67.7603   62.8259 H   0  0  0  0  0  0  0  0  0  0  0  0
  2  1  1  0
  3  2  2  0
  4  3  1  0
  5  4  2  0
  6  5  1  0
  7  2  1  0
  7  6  2  0
  8  5  1  0
  9  1  1  0
 10  9  1  0
 11  1  1  0
 12 11  1  0
 13 12  2  0
 14 12  1  0
  1 15  1  1
  3 16  1  0
  4 17  1  0
  6 18  1  0
  7 19  1  0
  9 20  1  0
  9 21  1  0
 10 22  1  0
 10 23  1  0
 10 24  1  0
 11 25  1  0
 11 26  1  0
M  CHG  2  10   1  14  -1
M  END
>  <score>  (2) 
-7.701

$$$$
=
     RDKit          3D

 26 26  0  0  0  0  0  0  0  0999 V2000
    1.7200   68.4830   66.0540 C   0  0  2  0  0  0  0  0  0  0  0  0
    2.9870   69.1630   66.5730 C   0  0  0  0  0  0  0  0  0  0  0  0
    4.1650   69.2570   65.8150 C   0  0  0  0  0  0  0  0  0  0  0  0
    5.3100   69.8570   66.3470 C   0  0  0  0  0  0  0  0  0  0  0  0
    5.2920   70.3650   67.6420 C   0  0  0  0  0  0  0  0  0  0  0  0
    4.1360   70.2820   68.4110 C   0  0  0  0  0  0  0  0  0  0  0  0
    2.9910   69.6840   67.8800 C   0  0  0  0  0  0  0  0  0  0  0  0
    6.7060   71.0980   68.2940 Cl  0  0  0  0  0  0  0  0  0  0  0  0
    1.5510   68.7640   64.5350 C   0  0  0  0  0  0  0  0  0  0  0  0
    0.2080   68.4080   64.0250 N   0  0  0  0  0  4  0  0  0  0  0  0
    0.4900   68.7360   66.9500 C   0  0  0  0  0  0  0  0  0  0  0  0
   -0.0050   67.3800   67.4120 C   0  0  0  0  0  0  0  0  0  0  0  0
   -0.7890   66.8420   66.5640 O   0  0  0  0  0  0  0  0  0  0  0  0
    0.5530   66.8930   68.4170 O   0  0  0  0  0  1  0  0  0  0  0  0
    1.8269   67.3911   66.1330 H   0  0  0  0  0  0  0  0  0  0  0  0
    4.1872   68.8542   64.7916 H   0  0  0  0  0  0  0  0  0  0  0  0
    6.2256   69.9275   65.7415 H   0  0  0  0  0  0  0  0  0  0  0  0
    4.1236   70.6860   69.4340 H   0  0  0  0  0  0  0  0  0  0  0  0
    2.0794   69.6194   68.4922 H   0  0  0  0  0  0  0  0  0  0  0  0
    1.7206   69.8360   64.3562 H   0  0  0  0  0  0  0  0  0  0  0  0
    2.2812   68.1372   64.0021 H   0  0  0  0  0  0  0  0  0  0  0  0
   -0.4270   68.2397   64.8183 H   0  0  0  0  0  0  0  0  0  0  0  0
   -0.1573   69.1812   63.4509 H   0  0  0  0  0  0  0  0  0  0  0  0
    0.2737   67.5554   63.4509 H   0  0  0  0  0  0  0  0  0  0  0  0
    0.7737   69.3506   67.8171 H   0  0  0  0  0  0  0  0  0  0  0  0
   -0.2947   69.2744   66.3984 H   0  0  0  0  0  0  0  0  0  0  0  0
  2  1  1  0
  3  2  2  0
  4  3  1  0
  5  4  2  0
  6  5  1  0
  7  2  1  0
  7  6  2  0
  8  5  1  0
  9  1  1  0
 10  9  1  0
 11  1  1  0
 12 11  1  0
 13 12  2  0
 14 12  1  0
  1 15  1  6
  3 16  1  0
  4 17  1  0
  6 18  1  0
  7 19  1  0
  9 20  1  0
  9 21  1  0
 10 22  1  0
 10 23  1  0
 10 24  1  0
 11 25  1  0
 11 26  1  0
M  CHG  2  10   1  14  -1
M  END
>  <score>  (3) 
-7.699

$$$$
=
     RDKit          3D

 26 26  0  0  0  0  0  0  0  0999 V2000
    3.4060   67.9870   63.9490 C   0  0  2  0  0  0  0  0  0  0  0  0
    3.8930   68.7260   65.1950 C   0  0  0  0  0  0  0  0  0  0  0  0
    3.0570   69.0110   66.2870 C   0  0  0  0  0  0  0  0  0  0  0  0
    3.5400   69.7210   67.3900 C   0  0  0  0  0  0  0  0  0  0  0  0
    4.8610   70.1570   67.4130 C   0  0  0  0  0  0  0  0  0  0  0  0
    5.7080   69.8860   66.3430 C   0  0  0  0  0  0  0  0  0  0  0  0
    5.2260   69.1750   65.2410 C   0  0  0  0  0  0  0  0  0  0  0  0
    5.4500   71.0350   68.7710 Cl  0  0  0  0  0  0  0  0  0  0  0  0
    2.1070   68.6510   63.4130 C   0  0  0  0  0  0  0  0  0  0  0  0
    1.9890   68.5870   61.9390 N   0  0  0  0  0  4  0  0  0  0  0  0
    3.3820   66.4550   64.1280 C   0  0  0  0  0  0  0  0  0  0  0  0
    4.2610   65.8710   63.0390 C   0  0  0  0  0  0  0  0  0  0  0  0
    4.2610   64.5970   63.0540 O   0  0  0  0  0  0  0  0  0  0  0  0
    4.6870   66.6680   62.1770 O   0  0  0  0  0  1  0  0  0  0  0  0
    4.1417   68.1007   63.1391 H   0  0  0  0  0  0  0  0  0  0  0  0
    2.0107   68.6718   66.2741 H   0  0  0  0  0  0  0  0  0  0  0  0
    2.8755   69.9351   68.2400 H   0  0  0  0  0  0  0  0  0  0  0  0
    6.7526   70.2300   66.3645 H   0  0  0  0  0  0  0  0  0  0  0  0
    5.8985   68.9630   64.3967 H   0  0  0  0  0  0  0  0  0  0  0  0
    1.2419   68.1362   63.8563 H   0  0  0  0  0  0  0  0  0  0  0  0
    2.1415   69.7140   63.6939 H   0  0  0  0  0  0  0  0  0  0  0  0
    1.1115   68.1111   61.6852 H   0  0  0  0  0  0  0  0  0  0  0  0
    1.9857   69.5419   61.5530 H   0  0  0  0  0  0  0  0  0  0  0  0
    2.7876   68.0634   61.5530 H   0  0  0  0  0  0  0  0  0  0  0  0
    3.7760   66.1836   65.1185 H   0  0  0  0  0  0  0  0  0  0  0  0
    2.3555   66.0661   64.0566 H   0  0  0  0  0  0  0  0  0  0  0  0
  2  1  1  0
  3  2  2  0
  4  3  1  0
  5  4  2  0
  6  5  1  0
  7  2  1  0
  7  6  2  0
  8  5  1  0
  9  1  1  0
 10  9  1  0
 11  1  1  0
 12 11  1  0
 13 12  2  0
 14 12  1  0
  1 15  1  6
  3 16  1  0
  4 17  1  0
  6 18  1  0
  7 19  1  0
  9 20  1  0
  9 21  1  0
 10 22  1  0
 10 23  1  0
 10 24  1  0
 11 25  1  0
 11 26  1  0
M  CHG  2  10   1  14  -1
M  END
>  <score>  (4) 
-7.665

$$$$
=
     RDKit          3D

 26 26  0  0  0  0  0  0  0  0999 V2000
    2.8870   68.2970   64.3820 C   0  0  2  0  0  0  0  0  0  0  0  0
    3.6510   68.9670   65.5240 C   0  0  0  0  0  0  0  0  0  0  0  0
    3.0560   69.2790   66.7570 C   0  0  0  0  0  0  0  0  0  0  0  0
    3.7860   69.9250   67.7590 C   0  0  0  0  0  0  0  0  0  0  0  0
    5.1160   70.2690   67.5390 C   0  0  0  0  0  0  0  0  0  0  0  0
    5.7260   69.9700   66.3260 C   0  0  0  0  0  0  0  0  0  0  0  0
    4.9970   69.3230   65.3250 C   0  0  0  0  0  0  0  0  0  0  0  0
    6.0090   71.0690   68.7740 Cl  0  0  0  0  0  0  0  0  0  0  0  0
    2.6060   66.8090   64.7330 C   0  0  0  0  0  0  0  0  0  0  0  0
    1.1800   66.5420   65.0240 N   0  0  0  0  0  4  0  0  0  0  0  0
    3.5050   68.5810   62.9970 C   0  0  0  0  0  0  0  0  0  0  0  0
    2.3530   68.7010   62.0180 C   0  0  0  0  0  0  0  0  0  0  0  0
    1.2210   68.6120   62.5960 O   0  0  0  0  0  0  0  0  0  0  0  0
    2.6400   69.0620   60.8580 O   0  0  0  0  0  1  0  0  0  0  0  0
    1.8942   68.7591   64.2782 H   0  0  0  0  0  0  0  0  0  0  0  0
    2.0040   69.0122   66.9364 H   0  0  0  0  0  0  0  0  0  0  0  0
    3.3088   70.1614   68.7215 H   0  0  0  0  0  0  0  0  0  0  0  0
    6.7781   70.2417   66.1551 H   0  0  0  0  0  0  0  0  0  0  0  0
    5.4832   69.0885   64.3666 H   0  0  0  0  0  0  0  0  0  0  0  0
    2.9127   66.1842   63.8812 H   0  0  0  0  0  0  0  0  0  0  0  0
    3.1770   66.5725   65.6430 H   0  0  0  0  0  0  0  0  0  0  0  0
    1.0368   66.5152   66.0437 H   0  0  0  0  0  0  0  0  0  0  0  0
    0.6005   67.2891   64.6155 H   0  0  0  0  0  0  0  0  0  0  0  0
    0.9100   65.6358   64.6155 H   0  0  0  0  0  0  0  0  0  0  0  0
    4.0783   69.5194   63.0236 H   0  0  0  0  0  0  0  0  0  0  0  0
    4.1928   67.7757   62.6996 H   0  0  0  0  0  0  0  0  0  0  0  0
  2  1  1  0
  3  2  2  0
  4  3  1  0
  5  4  2  0
  6  5  1  0
  7  2  1  0
  7  6  2  0
  8  5  1  0
  9  1  1  0
 10  9  1  0
 11  1  1  0
 12 11  1  0
 13 12  2  0
 14 12  1  0
  1 15  1  6
  3 16  1  0
  4 17  1  0
  6 18  1  0
  7 19  1  0
  9 20  1  0
  9 21  1  0
 10 22  1  0
 10 23  1  0
 10 24  1  0
 11 25  1  0
 11 26  1  0
M  CHG  2  10   1  14  -1
M  END
>  <score>  (5) 
-7.646

$$$$
=
     RDKit          3D

 26 26  0  0  0  0  0  0  0  0999 V2000
    3.8600   68.8340   62.8080 C   0  0  2  0  0  0  0  0  0  0  0  0
    3.0610   68.7820   64.1100 C   0  0  0  0  0  0  0  0  0  0  0  0
    1.7090   68.4090   64.1580 C   0  0  0  0  0  0  0  0  0  0  0  0
    1.0100   68.4110   65.3690 C   0  0  0  0  0  0  0  0  0  0  0  0
    1.6530   68.7900   66.5430 C   0  0  0  0  0  0  0  0  0  0  0  0
    2.9930   69.1640   66.5190 C   0  0  0  0  0  0  0  0  0  0  0  0
    3.6920   69.1600   65.3100 C   0  0  0  0  0  0  0  0  0  0  0  0
    0.7880   68.7960   68.0310 Cl  0  0  0  0  0  0  0  0  0  0  0  0
    2.8980   68.7400   61.5910 C   0  0  0  0  0  0  0  0  0  0  0  0
    3.5530   69.0770   60.3070 N   0  0  0  0  0  4  0  0  0  0  0  0
    5.0760   67.8850   62.8090 C   0  0  0  0  0  0  0  0  0  0  0  0
    4.5410   66.4840   63.0310 C   0  0  0  0  0  0  0  0  0  0  0  0
    4.1770   65.9320   61.9420 O   0  0  0  0  0  0  0  0  0  0  0  0
    4.7100   65.9940   64.1670 O   0  0  0  0  0  1  0  0  0  0  0  0
    4.3484   69.8149   62.7121 H   0  0  0  0  0  0  0  0  0  0  0  0
    1.1935   68.1118   63.2328 H   0  0  0  0  0  0  0  0  0  0  0  0
   -0.0485   68.1128   65.3934 H   0  0  0  0  0  0  0  0  0  0  0  0
    3.4998   69.4617   67.4488 H   0  0  0  0  0  0  0  0  0  0  0  0
    4.7512   69.4566   65.2953 H   0  0  0  0  0  0  0  0  0  0  0  0
    2.5121   67.7118   61.5281 H   0  0  0  0  0  0  0  0  0  0  0  0
    2.0930   69.4724   61.7513 H   0  0  0  0  0  0  0  0  0  0  0  0
    4.4539   69.5405   60.4924 H   0  0  0  0  0  0  0  0  0  0  0  0
    3.7152   68.2147   59.7676 H   0  0  0  0  0  0  0  0  0  0  0  0
    2.9457   69.7103   59.7676 H   0  0  0  0  0  0  0  0  0  0  0  0
    5.6004   67.9411   61.8437 H   0  0  0  0  0  0  0  0  0  0  0  0
    5.7915   68.1627   63.5970 H   0  0  0  0  0  0  0  0  0  0  0  0
  2  1  1  0
  3  2  2  0
  4  3  1  0
  5  4  2  0
  6  5  1  0
  7  2  1  0
  7  6  2  0
  8  5  1  0
  9  1  1  0
 10  9  1  0
 11  1  1  0
 12 11  1  0
 13 12  2  0
 14 12  1  0
  1 15  1  6
  3 16  1  0
  4 17  1  0
  6 18  1  0
  7 19  1  0
  9 20  1  0
  9 21  1  0
 10 22  1  0
 10 23  1  0
 10 24  1  0
 11 25  1  0
 11 26  1  0
M  CHG  2  10   1  14  -1
M  END
>  <score>  (6) 
-6.563

$$$$
=
     RDKit          3D

 26 26  0  0  0  0  0  0  0  0999 V2000
    3.1530   68.8080   63.7140 C   0  0  2  0  0  0  0  0  0  0  0  0
    1.7480   68.7990   64.3170 C   0  0  0  0  0  0  0  0  0  0  0  0
    1.5090   68.5820   65.6830 C   0  0  0  0  0  0  0  0  0  0  0  0
    0.2030   68.5480   66.1830 C   0  0  0  0  0  0  0  0  0  0  0  0
   -0.8760   68.7260   65.3230 C   0  0  0  0  0  0  0  0  0  0  0  0
   -0.6620   68.9430   63.9660 C   0  0  0  0  0  0  0  0  0  0  0  0
    0.6420   68.9780   63.4670 C   0  0  0  0  0  0  0  0  0  0  0  0
   -2.4810   68.6780   65.9410 Cl  0  0  0  0  0  0  0  0  0  0  0  0
    3.1470   68.0730   62.3450 C   0  0  0  0  0  0  0  0  0  0  0  0
    4.0140   68.7210   61.3360 N   0  0  0  0  0  4  0  0  0  0  0  0
    4.2440   68.3920   64.7230 C   0  0  0  0  0  0  0  0  0  0  0  0
    5.1920   69.5680   64.8550 C   0  0  0  0  0  0  0  0  0  0  0  0
    5.7600   69.8520   63.7510 O   0  0  0  0  0  0  0  0  0  0  0  0
    5.1430   70.2090   65.9260 O   0  0  0  0  0  1  0  0  0  0  0  0
    3.4510   69.8414   63.4832 H   0  0  0  0  0  0  0  0  0  0  0  0
    2.3577   68.4371   66.3676 H   0  0  0  0  0  0  0  0  0  0  0  0
    0.0291   68.3805   67.2562 H   0  0  0  0  0  0  0  0  0  0  0  0
   -1.5165   69.0865   63.2883 H   0  0  0  0  0  0  0  0  0  0  0  0
    0.8064   69.1482   62.3928 H   0  0  0  0  0  0  0  0  0  0  0  0
    3.4989   67.0423   62.4992 H   0  0  0  0  0  0  0  0  0  0  0  0
    2.1168   68.1026   61.9607 H   0  0  0  0  0  0  0  0  0  0  0  0
    4.7455   69.2678   61.8122 H   0  0  0  0  0  0  0  0  0  0  0  0
    4.4534   67.9995   60.7467 H   0  0  0  0  0  0  0  0  0  0  0  0
    3.4465   69.3468   60.7467 H   0  0  0  0  0  0  0  0  0  0  0  0
    3.7897   68.1609   65.6978 H   0  0  0  0  0  0  0  0  0  0  0  0
    4.7766   67.4931   64.3792 H   0  0  0  0  0  0  0  0  0  0  0  0
  2  1  1  0
  3  2  2  0
  4  3  1  0
  5  4  2  0
  6  5  1  0
  7  2  1  0
  7  6  2  0
  8  5  1  0
  9  1  1  0
 10  9  1  0
 11  1  1  0
 12 11  1  0
 13 12  2  0
 14 12  1  0
  1 15  1  6
  3 16  1  0
  4 17  1  0
  6 18  1  0
  7 19  1  0
  9 20  1  0
  9 21  1  0
 10 22  1  0
 10 23  1  0
 10 24  1  0
 11 25  1  0
 11 26  1  0
M  CHG  2  10   1  14  -1
M  END
>  <score>  (7) 
-6.371

$$$$
=
     RDKit          3D

 26 26  0  0  0  0  0  0  0  0999 V2000
    3.5830   61.3040   71.1670 C   0  0  2  0  0  0  0  0  0  0  0  0
    2.6830   62.5230   70.9680 C   0  0  0  0  0  0  0  0  0  0  0  0
    3.1590   63.7440   70.4640 C   0  0  0  0  0  0  0  0  0  0  0  0
    2.3040   64.8440   70.3330 C   0  0  0  0  0  0  0  0  0  0  0  0
    0.9680   64.7360   70.7070 C   0  0  0  0  0  0  0  0  0  0  0  0
    0.4760   63.5350   71.2080 C   0  0  0  0  0  0  0  0  0  0  0  0
    1.3290   62.4370   71.3380 C   0  0  0  0  0  0  0  0  0  0  0  0
   -0.0780   66.0930   70.5480 Cl  0  0  0  0  0  0  0  0  0  0  0  0
    5.0710   61.7460   71.2280 C   0  0  0  0  0  0  0  0  0  0  0  0
    5.7720   61.2570   72.4360 N   0  0  0  0  0  4  0  0  0  0  0  0
    3.2410   60.1400   70.2130 C   0  0  0  0  0  0  0  0  0  0  0  0
    3.5390   58.8550   70.9600 C   0  0  0  0  0  0  0  0  0  0  0  0
    3.9550   57.9350   70.1840 O   0  0  0  0  0  0  0  0  0  0  0  0
    3.5390   58.9210   72.2070 O   0  0  0  0  0  1  0  0  0  0  0  0
    3.3791   60.8502   72.1481 H   0  0  0  0  0  0  0  0  0  0  0  0
    4.2147   63.8368   70.1691 H   0  0  0  0  0  0  0  0  0  0  0  0
    2.6882   65.7945   69.9342 H   0  0  0  0  0  0  0  0  0  0  0  0
   -0.5810   63.4506   71.5006 H   0  0  0  0  0  0  0  0  0  0  0  0
    0.9356   61.4900   71.7361 H   0  0  0  0  0  0  0  0  0  0  0  0
    5.5892   61.3550   70.3400 H   0  0  0  0  0  0  0  0  0  0  0  0
    5.0858   62.8454   71.2622 H   0  0  0  0  0  0  0  0  0  0  0  0
    5.2845   61.5971   73.2772 H   0  0  0  0  0  0  0  0  0  0  0  0
    5.7786   60.2270   72.4358 H   0  0  0  0  0  0  0  0  0  0  0  0
    6.7409   61.6065   72.4358 H   0  0  0  0  0  0  0  0  0  0  0  0
    2.1771   60.1783   69.9360 H   0  0  0  0  0  0  0  0  0  0  0  0
    3.8323   60.2032   69.2876 H   0  0  0  0  0  0  0  0  0  0  0  0
  2  1  1  0
  3  2  2  0
  4  3  1  0
  5  4  2  0
  6  5  1  0
  7  2  1  0
  7  6  2  0
  8  5  1  0
  9  1  1  0
 10  9  1  0
 11  1  1  0
 12 11  1  0
 13 12  2  0
 14 12  1  0
  1 15  1  1
  3 16  1  0
  4 17  1  0
  6 18  1  0
  7 19  1  0
  9 20  1  0
  9 21  1  0
 10 22  1  0
 10 23  1  0
 10 24  1  0
 11 25  1  0
 11 26  1  0
M  CHG  2  10   1  14  -1
M  END
>  <score>  (8) 
-6.221

$$$$
=
     RDKit          3D

 26 26  0  0  0  0  0  0  0  0999 V2000
    3.2660   61.7700   71.2930 C   0  0  2  0  0  0  0  0  0  0  0  0
    1.8420   61.6130   71.8260 C   0  0  0  0  0  0  0  0  0  0  0  0
    0.8650   62.6130   71.6920 C   0  0  0  0  0  0  0  0  0  0  0  0
   -0.4140   62.4370   72.2280 C   0  0  0  0  0  0  0  0  0  0  0  0
   -0.7300   61.2640   72.9050 C   0  0  0  0  0  0  0  0  0  0  0  0
    0.2220   60.2600   73.0500 C   0  0  0  0  0  0  0  0  0  0  0  0
    1.5000   60.4340   72.5140 C   0  0  0  0  0  0  0  0  0  0  0  0
   -2.3050   61.0540   73.5670 Cl  0  0  0  0  0  0  0  0  0  0  0  0
    4.2830   61.6910   72.4650 C   0  0  0  0  0  0  0  0  0  0  0  0
    5.6070   61.1780   72.0500 N   0  0  0  0  0  4  0  0  0  0  0  0
    3.4170   62.9570   70.3190 C   0  0  0  0  0  0  0  0  0  0  0  0
    3.7870   62.3750   68.9690 C   0  0  0  0  0  0  0  0  0  0  0  0
    4.1390   61.1540   69.0540 O   0  0  0  0  0  0  0  0  0  0  0  0
    3.5150   63.0680   67.9670 O   0  0  0  0  0  1  0  0  0  0  0  0
    3.5136   60.9192   70.6412 H   0  0  0  0  0  0  0  0  0  0  0  0
    1.1087   63.5443   71.1598 H   0  0  0  0  0  0  0  0  0  0  0  0
   -1.1711   63.2269   72.1142 H   0  0  0  0  0  0  0  0  0  0  0  0
   -0.0308   59.3326   73.5848 H   0  0  0  0  0  0  0  0  0  0  0  0
    2.2500   59.6379   72.6314 H   0  0  0  0  0  0  0  0  0  0  0  0
    4.4138   62.6997   72.8838 H   0  0  0  0  0  0  0  0  0  0  0  0
    3.8759   60.9874   73.2061 H   0  0  0  0  0  0  0  0  0  0  0  0
    6.1683   60.9605   72.8858 H   0  0  0  0  0  0  0  0  0  0  0  0
    5.4834   60.3240   71.4876 H   0  0  0  0  0  0  0  0  0  0  0  0
    6.0911   61.8923   71.4876 H   0  0  0  0  0  0  0  0  0  0  0  0
    2.4684   63.5091   70.2457 H   0  0  0  0  0  0  0  0  0  0  0  0
    4.1882   63.6584   70.6699 H   0  0  0  0  0  0  0  0  0  0  0  0
  2  1  1  0
  3  2  2  0
  4  3  1  0
  5  4  2  0
  6  5  1  0
  7  2  1  0
  7  6  2  0
  8  5  1  0
  9  1  1  0
 10  9  1  0
 11  1  1  0
 12 11  1  0
 13 12  2  0
 14 12  1  0
  1 15  1  6
  3 16  1  0
  4 17  1  0
  6 18  1  0
  7 19  1  0
  9 20  1  0
  9 21  1  0
 10 22  1  0
 10 23  1  0
 10 24  1  0
 11 25  1  0
 11 26  1  0
M  CHG  2  10   1  14  -1
M  END
>  <score>  (9) 
-6.1

$$$$
