=
     RDKit          3D

 37 40  0  0  0  0  0  0  0  0999 V2000
    0.0320   69.8360   61.4890 C   0  0  0  0  0  0  0  0  0  0  0  0
    1.1870   69.2490   62.2390 C   0  0  0  0  0  0  0  0  0  0  0  0
    2.3530   68.8750   61.6410 C   0  0  0  0  0  0  0  0  0  0  0  0
    3.3960   68.3800   62.5950 C   0  0  2  0  0  0  0  0  0  0  0  0
    2.6980   67.3060   63.4510 C   0  0  0  0  0  0  0  0  0  0  0  0
    2.0590   68.1600   64.5290 C   0  0  2  0  0  0  0  0  0  0  0  0
    1.0100   69.0940   63.7920 C   0  0  0  0  0  0  0  0  0  0  0  0
    3.2340   68.8400   65.2830 C   0  0  0  0  0  0  0  0  0  0  0  0
    4.5360   68.9460   64.6980 C   0  0  0  0  0  0  0  0  0  0  0  0
    4.7870   68.5490   63.2140 C   0  0  0  0  0  0  0  0  0  0  0  0
    5.5980   69.4600   65.3510 N   0  0  0  0  0  0  0  0  0  0  0  0
    5.4240   69.8960   66.6050 C   0  0  0  0  0  0  0  0  0  0  0  0
    4.1760   69.8730   67.2760 C   0  0  0  0  0  0  0  0  0  0  0  0
    3.0500   69.3760   66.5650 C   0  0  0  0  0  0  0  0  0  0  0  0
    4.1230   70.3410   68.6120 C   0  0  0  0  0  0  0  0  0  0  0  0
    5.2610   70.8270   69.2560 C   0  0  0  0  0  0  0  0  0  0  0  0
    6.4670   70.8500   68.5730 C   0  0  0  0  0  0  0  0  0  0  0  0
    6.5420   70.3880   67.2630 C   0  0  0  0  0  0  0  0  0  0  0  0
    7.8780   71.4480   69.3540 Cl  0  0  0  0  0  0  0  0  0  0  0  0
    1.7900   69.2020   67.1930 N   0  0  0  0  0  0  0  0  0  0  0  0
   -0.7141   70.2152   62.2029 H   0  0  0  0  0  0  0  0  0  0  0  0
    0.3876   70.6627   60.8565 H   0  0  0  0  0  0  0  0  0  0  0  0
   -0.4262   69.0614   60.8565 H   0  0  0  0  0  0  0  0  0  0  0  0
    2.5138   68.9316   60.5543 H   0  0  0  0  0  0  0  0  0  0  0  0
    3.6934   67.6085   61.8695 H   0  0  0  0  0  0  0  0  0  0  0  0
    1.9421   66.7564   62.8709 H   0  0  0  0  0  0  0  0  0  0  0  0
    3.3714   66.5247   63.8333 H   0  0  0  0  0  0  0  0  0  0  0  0
    1.4783   67.6390   65.3045 H   0  0  0  0  0  0  0  0  0  0  0  0
    0.0069   68.6814   63.9755 H   0  0  0  0  0  0  0  0  0  0  0  0
    1.1702   70.0999   64.2073 H   0  0  0  0  0  0  0  0  0  0  0  0
    5.3459   69.3406   62.6935 H   0  0  0  0  0  0  0  0  0  0  0  0
    5.3844   67.6289   63.1330 H   0  0  0  0  0  0  0  0  0  0  0  0
    3.1652   70.3208   69.1525 H   0  0  0  0  0  0  0  0  0  0  0  0
    5.2020   71.1877   70.2935 H   0  0  0  0  0  0  0  0  0  0  0  0
    7.5081   70.4133   66.7377 H   0  0  0  0  0  0  0  0  0  0  0  0
    1.6267   69.5854   68.1350 H   0  0  0  0  0  0  0  0  0  0  0  0
    1.0384   68.6923   66.7070 H   0  0  0  0  0  0  0  0  0  0  0  0
  2  1  1  0
  3  2  2  0
  4  3  1  0
  5  4  1  0
  6  5  1  0
  7  6  1  0
  7  2  1  0
  8  6  1  0
  9  8  2  0
 10  9  1  0
 10  4  1  0
 11  9  1  0
 12 11  2  0
 13 12  1  0
 14  8  1  0
 14 13  2  0
 15 13  1  0
 16 15  2  0
 17 16  1  0
 18 12  1  0
 18 17  2  0
 19 17  1  0
 20 14  1  0
  1 21  1  0
  1 22  1  0
  1 23  1  0
  3 24  1  0
  4 25  1  6
  5 26  1  0
  5 27  1  0
  6 28  1  1
  7 29  1  0
  7 30  1  0
 10 31  1  0
 10 32  1  0
 15 33  1  0
 16 34  1  0
 18 35  1  0
 20 36  1  0
 20 37  1  0
M  END
>  <score>  (1) 
-11.877

$$$$
