=
     RDKit          3D

 55 57  0  0  0  0  0  0  0  0999 V2000
   -0.2250   65.0230   69.5140 O   0  0  0  0  0  0  0  0  0  0  0  0
   -0.2620   66.4440   69.4440 C   0  0  1  0  0  0  0  0  0  0  0  0
    1.1820   66.9470   69.1880 C   0  0  0  0  0  0  0  0  0  0  0  0
    1.1490   67.5160   67.8040 C   0  0  0  0  0  0  0  0  0  0  0  0
   -0.1320   67.5550   67.2760 C   0  0  0  0  0  0  0  0  0  0  0  0
   -1.0510   66.9680   68.2410 C   0  0  0  0  0  0  0  0  0  0  0  0
   -2.2570   66.9030   68.0650 O   0  0  0  0  0  0  0  0  0  0  0  0
   -0.4200   68.0710   66.0260 C   0  0  0  0  0  0  0  0  0  0  0  0
    0.6450   68.5730   65.2700 C   0  0  0  0  0  0  0  0  0  0  0  0
    1.9680   68.5410   65.7920 C   0  0  0  0  0  0  0  0  0  0  0  0
    2.2150   68.0120   67.0690 C   0  0  0  0  0  0  0  0  0  0  0  0
    2.9410   69.0560   64.9710 O   0  0  0  0  0  0  0  0  0  0  0  0
    4.2000   69.3720   65.5480 C   0  0  0  0  0  0  0  0  0  0  0  0
    0.5110   69.1100   64.0140 O   0  0  0  0  0  0  0  0  0  0  0  0
   -0.7410   68.9620   63.3600 C   0  0  0  0  0  0  0  0  0  0  0  0
    1.9920   63.0290   72.4400 C   0  0  0  0  0  0  0  0  0  0  0  0
    2.3310   62.9880   71.0820 C   0  0  0  0  0  0  0  0  0  0  0  0
    1.5650   63.6850   70.1450 C   0  0  0  0  0  0  0  0  0  0  0  0
    0.4520   64.4290   70.5400 C   0  0  0  0  0  0  0  0  0  0  0  0
    0.1330   64.5030   71.8940 C   0  0  0  0  0  0  0  0  0  0  0  0
    0.8950   63.8070   72.8390 C   0  0  0  0  0  0  0  0  0  0  0  0
    2.7570   62.2180   73.4500 C   0  0  0  0  0  0  0  0  0  0  0  0
    3.2690   60.9010   72.8900 N   0  0  0  0  0  4  0  0  0  0  0  0
    1.3730   59.2820   72.8700 C   0  0  0  0  0  0  0  0  0  0  0  0
    2.6600   59.6910   73.5630 C   0  0  0  0  0  0  0  0  0  0  0  0
    4.7810   60.8160   72.7760 C   0  0  0  0  0  0  0  0  0  0  0  0
    5.2740   60.9970   71.3520 C   0  0  0  0  0  0  0  0  0  0  0  0
   -0.7218   66.7891   70.3818 H   0  0  0  0  0  0  0  0  0  0  0  0
    1.4578   67.7214   69.9189 H   0  0  0  0  0  0  0  0  0  0  0  0
    1.9258   66.1428   69.2887 H   0  0  0  0  0  0  0  0  0  0  0  0
   -1.4498   68.0863   65.6396 H   0  0  0  0  0  0  0  0  0  0  0  0
    3.2356   67.9914   67.4788 H   0  0  0  0  0  0  0  0  0  0  0  0
    4.1164   69.3510   66.6446 H   0  0  0  0  0  0  0  0  0  0  0  0
    4.9479   68.6337   65.2231 H   0  0  0  0  0  0  0  0  0  0  0  0
    4.5106   70.3760   65.2231 H   0  0  0  0  0  0  0  0  0  0  0  0
   -1.5385   68.8677   64.1118 H   0  0  0  0  0  0  0  0  0  0  0  0
   -0.9325   69.8438   62.7309 H   0  0  0  0  0  0  0  0  0  0  0  0
   -0.7217   68.0599   62.7309 H   0  0  0  0  0  0  0  0  0  0  0  0
    3.2035   62.4049   70.7521 H   0  0  0  0  0  0  0  0  0  0  0  0
    1.8426   63.6471   69.0813 H   0  0  0  0  0  0  0  0  0  0  0  0
   -0.7224   65.1118   72.2220 H   0  0  0  0  0  0  0  0  0  0  0  0
    0.6313   63.8705   73.9050 H   0  0  0  0  0  0  0  0  0  0  0  0
    3.6173   62.8099   73.7956 H   0  0  0  0  0  0  0  0  0  0  0  0
    2.0657   61.9793   74.2717 H   0  0  0  0  0  0  0  0  0  0  0  0
    2.9314   60.8871   71.9170 H   0  0  0  0  0  0  0  0  0  0  0  0
    0.6108   59.0398   73.6253 H   0  0  0  0  0  0  0  0  0  0  0  0
    1.0157   60.1109   72.2412 H   0  0  0  0  0  0  0  0  0  0  0  0
    1.5597   58.3989   72.2412 H   0  0  0  0  0  0  0  0  0  0  0  0
    2.4429   59.9334   74.6138 H   0  0  0  0  0  0  0  0  0  0  0  0
    3.3742   58.8565   73.5033 H   0  0  0  0  0  0  0  0  0  0  0  0
    5.2257   61.6017   73.4045 H   0  0  0  0  0  0  0  0  0  0  0  0
    5.0822   59.8108   73.1058 H   0  0  0  0  0  0  0  0  0  0  0  0
    6.3065   61.3761   71.3668 H   0  0  0  0  0  0  0  0  0  0  0  0
    5.2459   60.0299   70.8286 H   0  0  0  0  0  0  0  0  0  0  0  0
    4.6269   61.7162   70.8286 H   0  0  0  0  0  0  0  0  0  0  0  0
  2  1  1  0
  3  2  1  0
  4  3  1  0
  5  4  2  0
  6  5  1  0
  6  2  1  0
  7  6  2  0
  8  5  1  0
  9  8  2  0
 10  9  1  0
 11 10  2  0
 11  4  1  0
 12 10  1  0
 13 12  1  0
 14  9  1  0
 15 14  1  0
 17 16  2  0
 18 17  1  0
 19 18  2  0
 19  1  1  0
 20 19  1  0
 21 20  2  0
 21 16  1  0
 22 16  1  0
 23 22  1  0
 25 24  1  0
 25 23  1  0
 26 23  1  0
 27 26  1  0
  2 28  1  1
  3 29  1  0
  3 30  1  0
  8 31  1  0
 11 32  1  0
 13 33  1  0
 13 34  1  0
 13 35  1  0
 15 36  1  0
 15 37  1  0
 15 38  1  0
 17 39  1  0
 18 40  1  0
 20 41  1  0
 21 42  1  0
 22 43  1  0
 22 44  1  0
 23 45  1  0
 24 46  1  0
 24 47  1  0
 24 48  1  0
 25 49  1  0
 25 50  1  0
 26 51  1  0
 26 52  1  0
 27 53  1  0
 27 54  1  0
 27 55  1  0
M  CHG  1  23   1
M  END
>  <score>  (1) 
-8.341

$$$$
=
     RDKit          3D

 55 57  0  0  0  0  0  0  0  0999 V2000
    0.4550   65.8830   71.0100 O   0  0  0  0  0  0  0  0  0  0  0  0
    0.0290   64.5320   71.1430 C   0  0  1  0  0  0  0  0  0  0  0  0
    0.9430   63.6540   70.2500 C   0  0  0  0  0  0  0  0  0  0  0  0
    1.7380   62.8280   71.2130 C   0  0  0  0  0  0  0  0  0  0  0  0
    1.3160   62.9860   72.5230 C   0  0  0  0  0  0  0  0  0  0  0  0
    0.2420   63.9690   72.5510 C   0  0  0  0  0  0  0  0  0  0  0  0
   -0.3540   64.2830   73.5690 O   0  0  0  0  0  0  0  0  0  0  0  0
    1.8740   62.2990   73.5860 C   0  0  0  0  0  0  0  0  0  0  0  0
    2.9140   61.4070   73.3080 C   0  0  0  0  0  0  0  0  0  0  0  0
    3.3650   61.2310   71.9700 C   0  0  0  0  0  0  0  0  0  0  0  0
    2.7660   61.9440   70.9200 C   0  0  0  0  0  0  0  0  0  0  0  0
    4.3910   60.3340   71.8040 O   0  0  0  0  0  0  0  0  0  0  0  0
    5.6510   60.8340   71.3800 C   0  0  0  0  0  0  0  0  0  0  0  0
    3.5650   60.6620   74.2600 O   0  0  0  0  0  0  0  0  0  0  0  0
    2.7770   59.8520   75.1200 C   0  0  0  0  0  0  0  0  0  0  0  0
    0.4120   67.9100   67.3570 C   0  0  0  0  0  0  0  0  0  0  0  0
    1.5200   67.9270   68.2130 C   0  0  0  0  0  0  0  0  0  0  0  0
    1.4890   67.2200   69.4170 C   0  0  0  0  0  0  0  0  0  0  0  0
    0.3590   66.4890   69.7910 C   0  0  0  0  0  0  0  0  0  0  0  0
   -0.7310   66.4400   68.9250 C   0  0  0  0  0  0  0  0  0  0  0  0
   -0.7080   67.1460   67.7170 C   0  0  0  0  0  0  0  0  0  0  0  0
    0.3980   68.7330   66.0980 C   0  0  0  0  0  0  0  0  0  0  0  0
    0.7650   67.9310   64.8610 N   0  0  0  0  0  4  0  0  0  0  0  0
    2.4200   66.0660   64.8380 C   0  0  0  0  0  0  0  0  0  0  0  0
    2.2330   67.5720   64.7980 C   0  0  0  0  0  0  0  0  0  0  0  0
    0.2440   68.5140   63.5590 C   0  0  0  0  0  0  0  0  0  0  0  0
    1.3360   68.7080   62.5230 C   0  0  0  0  0  0  0  0  0  0  0  0
   -1.0397   64.5158   70.8831 H   0  0  0  0  0  0  0  0  0  0  0  0
    0.3400   63.0101   69.5929 H   0  0  0  0  0  0  0  0  0  0  0  0
    1.5851   64.2580   69.5920 H   0  0  0  0  0  0  0  0  0  0  0  0
    1.5122   62.4492   74.6139 H   0  0  0  0  0  0  0  0  0  0  0  0
    3.1057   61.8043   69.8831 H   0  0  0  0  0  0  0  0  0  0  0  0
    6.2640   61.0773   72.2603 H   0  0  0  0  0  0  0  0  0  0  0  0
    6.1637   60.0712   70.7756 H   0  0  0  0  0  0  0  0  0  0  0  0
    5.5011   61.7408   70.7756 H   0  0  0  0  0  0  0  0  0  0  0  0
    3.0115   60.0930   76.1673 H   0  0  0  0  0  0  0  0  0  0  0  0
    1.7108   60.0441   74.9294 H   0  0  0  0  0  0  0  0  0  0  0  0
    2.9983   58.7915   74.9294 H   0  0  0  0  0  0  0  0  0  0  0  0
    2.4178   68.4991   67.9362 H   0  0  0  0  0  0  0  0  0  0  0  0
    2.3666   67.2391   70.0799 H   0  0  0  0  0  0  0  0  0  0  0  0
   -1.6152   65.8427   69.1923 H   0  0  0  0  0  0  0  0  0  0  0  0
   -1.5764   67.1014   67.0433 H   0  0  0  0  0  0  0  0  0  0  0  0
   -0.6120   69.1467   65.9608 H   0  0  0  0  0  0  0  0  0  0  0  0
    1.1534   69.5242   66.2135 H   0  0  0  0  0  0  0  0  0  0  0  0
    0.2565   67.0423   64.9726 H   0  0  0  0  0  0  0  0  0  0  0  0
    2.4618   65.7294   65.8844 H   0  0  0  0  0  0  0  0  0  0  0  0
    1.5756   65.5780   64.3293 H   0  0  0  0  0  0  0  0  0  0  0  0
    3.3582   65.7994   64.3293 H   0  0  0  0  0  0  0  0  0  0  0  0
    2.7521   68.0231   65.6565 H   0  0  0  0  0  0  0  0  0  0  0  0
    2.6503   67.9550   63.8550 H   0  0  0  0  0  0  0  0  0  0  0  0
   -0.5142   67.8318   63.1470 H   0  0  0  0  0  0  0  0  0  0  0  0
   -0.1779   69.5044   63.7850 H   0  0  0  0  0  0  0  0  0  0  0  0
    2.2968   68.8787   63.0306 H   0  0  0  0  0  0  0  0  0  0  0  0
    1.4084   67.8087   61.8938 H   0  0  0  0  0  0  0  0  0  0  0  0
    1.0942   69.5773   61.8938 H   0  0  0  0  0  0  0  0  0  0  0  0
  2  1  1  0
  3  2  1  0
  4  3  1  0
  5  4  2  0
  6  5  1  0
  6  2  1  0
  7  6  2  0
  8  5  1  0
  9  8  2  0
 10  9  1  0
 11 10  2  0
 11  4  1  0
 12 10  1  0
 13 12  1  0
 14  9  1  0
 15 14  1  0
 17 16  2  0
 18 17  1  0
 19 18  2  0
 19  1  1  0
 20 19  1  0
 21 20  2  0
 21 16  1  0
 22 16  1  0
 23 22  1  0
 25 24  1  0
 25 23  1  0
 26 23  1  0
 27 26  1  0
  2 28  1  6
  3 29  1  0
  3 30  1  0
  8 31  1  0
 11 32  1  0
 13 33  1  0
 13 34  1  0
 13 35  1  0
 15 36  1  0
 15 37  1  0
 15 38  1  0
 17 39  1  0
 18 40  1  0
 20 41  1  0
 21 42  1  0
 22 43  1  0
 22 44  1  0
 23 45  1  0
 24 46  1  0
 24 47  1  0
 24 48  1  0
 25 49  1  0
 25 50  1  0
 26 51  1  0
 26 52  1  0
 27 53  1  0
 27 54  1  0
 27 55  1  0
M  CHG  1  23   1
M  END
>  <score>  (2) 
-8.023

$$$$
=
     RDKit          3D

 55 57  0  0  0  0  0  0  0  0999 V2000
   -0.1700   65.2330   70.1340 O   0  0  0  0  0  0  0  0  0  0  0  0
    0.8940   64.9440   71.0330 C   0  0  1  0  0  0  0  0  0  0  0  0
    0.2790   64.3410   72.3220 C   0  0  0  0  0  0  0  0  0  0  0  0
    0.7350   62.9150   72.3320 C   0  0  0  0  0  0  0  0  0  0  0  0
    1.6450   62.6410   71.3230 C   0  0  0  0  0  0  0  0  0  0  0  0
    1.8310   63.8450   70.5250 C   0  0  0  0  0  0  0  0  0  0  0  0
    2.6100   63.9140   69.5870 O   0  0  0  0  0  0  0  0  0  0  0  0
    2.2350   61.4020   71.1520 C   0  0  0  0  0  0  0  0  0  0  0  0
    1.8840   60.3870   72.0480 C   0  0  0  0  0  0  0  0  0  0  0  0
    0.9500   60.6450   73.0890 C   0  0  0  0  0  0  0  0  0  0  0  0
    0.3790   61.9200   73.2300 C   0  0  0  0  0  0  0  0  0  0  0  0
    0.6730   59.5830   73.9140 O   0  0  0  0  0  0  0  0  0  0  0  0
   -0.6520   59.0710   73.9170 C   0  0  0  0  0  0  0  0  0  0  0  0
    2.3840   59.1090   71.9980 O   0  0  0  0  0  0  0  0  0  0  0  0
    3.4010   58.8330   71.0450 C   0  0  0  0  0  0  0  0  0  0  0  0
    0.1170   68.1000   67.1090 C   0  0  0  0  0  0  0  0  0  0  0  0
   -1.0320   67.3240   67.3020 C   0  0  0  0  0  0  0  0  0  0  0  0
   -1.0830   66.3890   68.3380 C   0  0  0  0  0  0  0  0  0  0  0  0
    0.0050   66.2080   69.1950 C   0  0  0  0  0  0  0  0  0  0  0  0
    1.1360   67.0040   69.0290 C   0  0  0  0  0  0  0  0  0  0  0  0
    1.1950   67.9430   67.9930 C   0  0  0  0  0  0  0  0  0  0  0  0
    0.2180   69.0510   65.9480 C   0  0  0  0  0  0  0  0  0  0  0  0
    0.3390   68.3430   64.6080 N   0  0  0  0  0  4  0  0  0  0  0  0
    2.7360   68.9800   64.8580 C   0  0  0  0  0  0  0  0  0  0  0  0
    1.7640   67.9850   64.2500 C   0  0  0  0  0  0  0  0  0  0  0  0
   -0.4020   69.0250   63.4710 C   0  0  0  0  0  0  0  0  0  0  0  0
    0.4150   69.0920   62.1940 C   0  0  0  0  0  0  0  0  0  0  0  0
    1.4481   65.8842   71.1706 H   0  0  0  0  0  0  0  0  0  0  0  0
    0.6473   64.8719   73.2122 H   0  0  0  0  0  0  0  0  0  0  0  0
   -0.8175   64.4266   72.3384 H   0  0  0  0  0  0  0  0  0  0  0  0
    2.9548   61.2212   70.3401 H   0  0  0  0  0  0  0  0  0  0  0  0
   -0.3380   62.1260   74.0384 H   0  0  0  0  0  0  0  0  0  0  0  0
   -0.9920   58.9396   74.9549 H   0  0  0  0  0  0  0  0  0  0  0  0
   -1.3188   59.7762   73.3992 H   0  0  0  0  0  0  0  0  0  0  0  0
   -0.6713   58.1007   73.3992 H   0  0  0  0  0  0  0  0  0  0  0  0
    4.3348   58.5796   71.5683 H   0  0  0  0  0  0  0  0  0  0  0  0
    3.0926   57.9861   70.4145 H   0  0  0  0  0  0  0  0  0  0  0  0
    3.5630   59.7197   70.4145 H   0  0  0  0  0  0  0  0  0  0  0  0
   -1.8977   67.4512   66.6353 H   0  0  0  0  0  0  0  0  0  0  0  0
   -1.9924   65.7869   68.4811 H   0  0  0  0  0  0  0  0  0  0  0  0
    1.9878   66.8939   69.7163 H   0  0  0  0  0  0  0  0  0  0  0  0
    2.0949   68.5637   67.8707 H   0  0  0  0  0  0  0  0  0  0  0  0
   -0.6838   69.6807   65.9314 H   0  0  0  0  0  0  0  0  0  0  0  0
    1.1323   69.6461   66.0891 H   0  0  0  0  0  0  0  0  0  0  0  0
   -0.1550   67.4496   64.7450 H   0  0  0  0  0  0  0  0  0  0  0  0
    2.6805   68.9232   65.9551 H   0  0  0  0  0  0  0  0  0  0  0  0
    3.7584   68.7413   64.5297 H   0  0  0  0  0  0  0  0  0  0  0  0
    2.4734   69.9965   64.5297 H   0  0  0  0  0  0  0  0  0  0  0  0
    1.8747   67.9946   63.1556 H   0  0  0  0  0  0  0  0  0  0  0  0
    1.9877   66.9840   64.6474 H   0  0  0  0  0  0  0  0  0  0  0  0
   -1.3266   68.4647   63.2679 H   0  0  0  0  0  0  0  0  0  0  0  0
   -0.6119   70.0582   63.7848 H   0  0  0  0  0  0  0  0  0  0  0  0
    1.4822   69.1795   62.4457 H   0  0  0  0  0  0  0  0  0  0  0  0
    0.2509   68.1774   61.6053 H   0  0  0  0  0  0  0  0  0  0  0  0
    0.1041   69.9677   61.6053 H   0  0  0  0  0  0  0  0  0  0  0  0
  2  1  1  0
  3  2  1  0
  4  3  1  0
  5  4  2  0
  6  5  1  0
  6  2  1  0
  7  6  2  0
  8  5  1  0
  9  8  2  0
 10  9  1  0
 11 10  2  0
 11  4  1  0
 12 10  1  0
 13 12  1  0
 14  9  1  0
 15 14  1  0
 17 16  2  0
 18 17  1  0
 19 18  2  0
 19  1  1  0
 20 19  1  0
 21 20  2  0
 21 16  1  0
 22 16  1  0
 23 22  1  0
 25 24  1  0
 25 23  1  0
 26 23  1  0
 27 26  1  0
  2 28  1  1
  3 29  1  0
  3 30  1  0
  8 31  1  0
 11 32  1  0
 13 33  1  0
 13 34  1  0
 13 35  1  0
 15 36  1  0
 15 37  1  0
 15 38  1  0
 17 39  1  0
 18 40  1  0
 20 41  1  0
 21 42  1  0
 22 43  1  0
 22 44  1  0
 23 45  1  0
 24 46  1  0
 24 47  1  0
 24 48  1  0
 25 49  1  0
 25 50  1  0
 26 51  1  0
 26 52  1  0
 27 53  1  0
 27 54  1  0
 27 55  1  0
M  CHG  1  23   1
M  END
>  <score>  (3) 
-7.802

$$$$
=
     RDKit          3D

 55 57  0  0  0  0  0  0  0  0999 V2000
   -0.0690   65.2560   69.3710 O   0  0  0  0  0  0  0  0  0  0  0  0
   -0.1530   66.6710   69.2450 C   0  0  1  0  0  0  0  0  0  0  0  0
    1.2830   67.2190   69.0480 C   0  0  0  0  0  0  0  0  0  0  0  0
    1.3060   67.7360   67.6440 C   0  0  0  0  0  0  0  0  0  0  0  0
    0.0560   67.7060   67.0460 C   0  0  0  0  0  0  0  0  0  0  0  0
   -0.8940   67.1200   67.9820 C   0  0  0  0  0  0  0  0  0  0  0  0
   -2.0850   67.0030   67.7430 O   0  0  0  0  0  0  0  0  0  0  0  0
   -0.1810   68.1660   65.7630 C   0  0  0  0  0  0  0  0  0  0  0  0
    0.9040   68.6810   65.0480 C   0  0  0  0  0  0  0  0  0  0  0  0
    2.1970   68.7180   65.6400 C   0  0  0  0  0  0  0  0  0  0  0  0
    2.3920   68.2460   66.9480 C   0  0  0  0  0  0  0  0  0  0  0  0
    3.1950   69.2400   64.8540 O   0  0  0  0  0  0  0  0  0  0  0  0
    4.4310   69.5630   65.4740 C   0  0  0  0  0  0  0  0  0  0  0  0
    0.8220   69.1660   63.7660 O   0  0  0  0  0  0  0  0  0  0  0  0
    0.1220   68.3860   62.8060 C   0  0  0  0  0  0  0  0  0  0  0  0
    1.3900   63.3940   72.8140 C   0  0  0  0  0  0  0  0  0  0  0  0
    1.8690   63.0890   71.5350 C   0  0  0  0  0  0  0  0  0  0  0  0
    1.3590   63.7510   70.4170 C   0  0  0  0  0  0  0  0  0  0  0  0
    0.3640   64.7220   70.5510 C   0  0  0  0  0  0  0  0  0  0  0  0
   -0.0890   65.0550   71.8250 C   0  0  0  0  0  0  0  0  0  0  0  0
    0.4170   64.3950   72.9500 C   0  0  0  0  0  0  0  0  0  0  0  0
    1.8700   62.6310   74.0190 C   0  0  0  0  0  0  0  0  0  0  0  0
    0.7410   61.9790   74.7990 N   0  0  0  0  0  4  0  0  0  0  0  0
    1.0370   63.7960   76.4810 C   0  0  0  0  0  0  0  0  0  0  0  0
    0.7620   62.3180   76.2730 C   0  0  0  0  0  0  0  0  0  0  0  0
    0.5760   60.4920   74.5370 C   0  0  0  0  0  0  0  0  0  0  0  0
   -0.4190   60.1980   73.4290 C   0  0  0  0  0  0  0  0  0  0  0  0
   -0.6752   67.0326   70.1431 H   0  0  0  0  0  0  0  0  0  0  0  0
    1.4899   68.0292   69.7626 H   0  0  0  0  0  0  0  0  0  0  0  0
    2.0486   66.4479   69.2189 H   0  0  0  0  0  0  0  0  0  0  0  0
   -1.1877   68.1278   65.3212 H   0  0  0  0  0  0  0  0  0  0  0  0
    3.3885   68.2801   67.4125 H   0  0  0  0  0  0  0  0  0  0  0  0
    4.3120   69.5319   66.5671 H   0  0  0  0  0  0  0  0  0  0  0  0
    5.1963   68.8347   65.1676 H   0  0  0  0  0  0  0  0  0  0  0  0
    4.7421   70.5726   65.1676 H   0  0  0  0  0  0  0  0  0  0  0  0
   -0.5265   67.6634   63.3231 H   0  0  0  0  0  0  0  0  0  0  0  0
   -0.4931   69.0453   62.1760 H   0  0  0  0  0  0  0  0  0  0  0  0
    0.8438   67.8456   62.1760 H   0  0  0  0  0  0  0  0  0  0  0  0
    2.6503   62.3248   71.4103 H   0  0  0  0  0  0  0  0  0  0  0  0
    1.7458   63.5047   69.4171 H   0  0  0  0  0  0  0  0  0  0  0  0
   -0.8487   65.8411   71.9475 H   0  0  0  0  0  0  0  0  0  0  0  0
    0.0482   64.6637   73.9509 H   0  0  0  0  0  0  0  0  0  0  0  0
    2.5629   61.8455   73.6830 H   0  0  0  0  0  0  0  0  0  0  0  0
    2.3596   63.3517   74.6905 H   0  0  0  0  0  0  0  0  0  0  0  0
   -0.1142   62.4087   74.4184 H   0  0  0  0  0  0  0  0  0  0  0  0
    1.0774   64.0133   77.5586 H   0  0  0  0  0  0  0  0  0  0  0  0
    1.9994   64.0587   76.0176 H   0  0  0  0  0  0  0  0  0  0  0  0
    0.2334   64.3872   76.0176 H   0  0  0  0  0  0  0  0  0  0  0  0
    1.5504   61.7312   76.7670 H   0  0  0  0  0  0  0  0  0  0  0  0
   -0.2208   62.0775   76.7047 H   0  0  0  0  0  0  0  0  0  0  0  0
    1.5530   60.0746   74.2522 H   0  0  0  0  0  0  0  0  0  0  0  0
    0.1903   60.0334   75.4595 H   0  0  0  0  0  0  0  0  0  0  0  0
   -1.3853   59.9125   73.8702 H   0  0  0  0  0  0  0  0  0  0  0  0
   -0.5509   61.0956   72.8069 H   0  0  0  0  0  0  0  0  0  0  0  0
   -0.0419   59.3729   72.8069 H   0  0  0  0  0  0  0  0  0  0  0  0
  2  1  1  0
  3  2  1  0
  4  3  1  0
  5  4  2  0
  6  5  1  0
  6  2  1  0
  7  6  2  0
  8  5  1  0
  9  8  2  0
 10  9  1  0
 11 10  2  0
 11  4  1  0
 12 10  1  0
 13 12  1  0
 14  9  1  0
 15 14  1  0
 17 16  2  0
 18 17  1  0
 19 18  2  0
 19  1  1  0
 20 19  1  0
 21 20  2  0
 21 16  1  0
 22 16  1  0
 23 22  1  0
 25 24  1  0
 25 23  1  0
 26 23  1  0
 27 26  1  0
  2 28  1  1
  3 29  1  0
  3 30  1  0
  8 31  1  0
 11 32  1  0
 13 33  1  0
 13 34  1  0
 13 35  1  0
 15 36  1  0
 15 37  1  0
 15 38  1  0
 17 39  1  0
 18 40  1  0
 20 41  1  0
 21 42  1  0
 22 43  1  0
 22 44  1  0
 23 45  1  0
 24 46  1  0
 24 47  1  0
 24 48  1  0
 25 49  1  0
 25 50  1  0
 26 51  1  0
 26 52  1  0
 27 53  1  0
 27 54  1  0
 27 55  1  0
M  CHG  1  23   1
M  END
>  <score>  (4) 
-7.679

$$$$
=
     RDKit          3D

 55 57  0  0  0  0  0  0  0  0999 V2000
    1.8890   61.1400   71.0650 O   0  0  0  0  0  0  0  0  0  0  0  0
    2.1840   60.6920   72.3830 C   0  0  1  0  0  0  0  0  0  0  0  0
    0.8450   60.5720   73.1570 C   0  0  0  0  0  0  0  0  0  0  0  0
    0.6670   59.1040   73.3860 C   0  0  0  0  0  0  0  0  0  0  0  0
    1.7730   58.3660   72.9940 C   0  0  0  0  0  0  0  0  0  0  0  0
    2.7590   59.2740   72.4240 C   0  0  0  0  0  0  0  0  0  0  0  0
    3.8560   58.9100   72.0290 O   0  0  0  0  0  0  0  0  0  0  0  0
    1.8580   56.9930   73.1400 C   0  0  0  0  0  0  0  0  0  0  0  0
    0.7660   56.3330   73.7110 C   0  0  0  0  0  0  0  0  0  0  0  0
   -0.3810   57.0700   74.1170 C   0  0  0  0  0  0  0  0  0  0  0  0
   -0.4230   58.4640   73.9560 C   0  0  0  0  0  0  0  0  0  0  0  0
   -1.3990   56.3270   74.6640 O   0  0  0  0  0  0  0  0  0  0  0  0
   -1.6390   56.4510   76.0590 C   0  0  0  0  0  0  0  0  0  0  0  0
    0.7060   54.9760   73.9130 O   0  0  0  0  0  0  0  0  0  0  0  0
    1.8940   54.3150   74.3280 C   0  0  0  0  0  0  0  0  0  0  0  0
    1.3490   65.2070   70.2780 C   0  0  0  0  0  0  0  0  0  0  0  0
    0.2800   64.3470   70.5570 C   0  0  0  0  0  0  0  0  0  0  0  0
    0.5160   62.9970   70.8290 C   0  0  0  0  0  0  0  0  0  0  0  0
    1.8130   62.4810   70.8240 C   0  0  0  0  0  0  0  0  0  0  0  0
    2.8820   63.3410   70.5840 C   0  0  0  0  0  0  0  0  0  0  0  0
    2.6540   64.6940   70.3110 C   0  0  0  0  0  0  0  0  0  0  0  0
    1.1050   66.6430   69.9030 C   0  0  0  0  0  0  0  0  0  0  0  0
    0.5250   66.8020   68.5070 N   0  0  0  0  0  4  0  0  0  0  0  0
    1.8780   67.5210   66.5400 C   0  0  0  0  0  0  0  0  0  0  0  0
    1.0960   67.9840   67.7560 C   0  0  0  0  0  0  0  0  0  0  0  0
   -0.9920   66.7420   68.4490 C   0  0  0  0  0  0  0  0  0  0  0  0
   -1.5470   67.2110   67.1160 C   0  0  0  0  0  0  0  0  0  0  0  0
    2.9069   61.4088   72.7997 H   0  0  0  0  0  0  0  0  0  0  0  0
    0.9015   61.1097   74.1150 H   0  0  0  0  0  0  0  0  0  0  0  0
    0.0032   61.0110   72.6015 H   0  0  0  0  0  0  0  0  0  0  0  0
    2.7530   56.4403   72.8182 H   0  0  0  0  0  0  0  0  0  0  0  0
   -1.3048   59.0382   74.2763 H   0  0  0  0  0  0  0  0  0  0  0  0
   -0.7964   56.0156   76.6161 H   0  0  0  0  0  0  0  0  0  0  0  0
   -1.7410   57.5146   76.3204 H   0  0  0  0  0  0  0  0  0  0  0  0
   -2.5655   55.9187   76.3204 H   0  0  0  0  0  0  0  0  0  0  0  0
    1.9359   54.2917   75.4270 H   0  0  0  0  0  0  0  0  0  0  0  0
    1.8961   53.2860   73.9391 H   0  0  0  0  0  0  0  0  0  0  0  0
    2.7694   54.8557   73.9391 H   0  0  0  0  0  0  0  0  0  0  0  0
   -0.7491   64.7355   70.5621 H   0  0  0  0  0  0  0  0  0  0  0  0
   -0.3317   62.3318   71.0501 H   0  0  0  0  0  0  0  0  0  0  0  0
    3.9114   62.9541   70.6093 H   0  0  0  0  0  0  0  0  0  0  0  0
    3.5067   65.3622   70.1203 H   0  0  0  0  0  0  0  0  0  0  0  0
    0.4011   67.0796   70.6268 H   0  0  0  0  0  0  0  0  0  0  0  0
    2.0779   67.1562   69.9155 H   0  0  0  0  0  0  0  0  0  0  0  0
    0.8404   65.9619   68.0014 H   0  0  0  0  0  0  0  0  0  0  0  0
    2.7817   66.9859   66.8671 H   0  0  0  0  0  0  0  0  0  0  0  0
    1.2519   66.8479   65.9359 H   0  0  0  0  0  0  0  0  0  0  0  0
    2.1670   68.3936   65.9359 H   0  0  0  0  0  0  0  0  0  0  0  0
    1.7658   68.5463   68.4233 H   0  0  0  0  0  0  0  0  0  0  0  0
    0.2664   68.6235   67.4202 H   0  0  0  0  0  0  0  0  0  0  0  0
   -1.3096   65.7022   68.6160 H   0  0  0  0  0  0  0  0  0  0  0  0
   -1.3809   67.4163   69.2262 H   0  0  0  0  0  0  0  0  0  0  0  0
   -2.3766   67.9120   67.2904 H   0  0  0  0  0  0  0  0  0  0  0  0
   -0.7536   67.7164   66.5459 H   0  0  0  0  0  0  0  0  0  0  0  0
   -1.9130   66.3444   66.5459 H   0  0  0  0  0  0  0  0  0  0  0  0
  2  1  1  0
  3  2  1  0
  4  3  1  0
  5  4  2  0
  6  5  1  0
  6  2  1  0
  7  6  2  0
  8  5  1  0
  9  8  2  0
 10  9  1  0
 11 10  2  0
 11  4  1  0
 12 10  1  0
 13 12  1  0
 14  9  1  0
 15 14  1  0
 17 16  2  0
 18 17  1  0
 19 18  2  0
 19  1  1  0
 20 19  1  0
 21 20  2  0
 21 16  1  0
 22 16  1  0
 23 22  1  0
 25 24  1  0
 25 23  1  0
 26 23  1  0
 27 26  1  0
  2 28  1  1
  3 29  1  0
  3 30  1  0
  8 31  1  0
 11 32  1  0
 13 33  1  0
 13 34  1  0
 13 35  1  0
 15 36  1  0
 15 37  1  0
 15 38  1  0
 17 39  1  0
 18 40  1  0
 20 41  1  0
 21 42  1  0
 22 43  1  0
 22 44  1  0
 23 45  1  0
 24 46  1  0
 24 47  1  0
 24 48  1  0
 25 49  1  0
 25 50  1  0
 26 51  1  0
 26 52  1  0
 27 53  1  0
 27 54  1  0
 27 55  1  0
M  CHG  1  23   1
M  END
>  <score>  (5) 
-7.464

$$$$
=
     RDKit          3D

 55 57  0  0  0  0  0  0  0  0999 V2000
    3.6690   68.8170   62.3760 O   0  0  0  0  0  0  0  0  0  0  0  0
    2.5360   67.9570   62.3780 C   0  0  1  0  0  0  0  0  0  0  0  0
    2.5800   67.1130   63.6780 C   0  0  0  0  0  0  0  0  0  0  0  0
    1.4160   67.5950   64.4860 C   0  0  0  0  0  0  0  0  0  0  0  0
    0.6160   68.4860   63.7870 C   0  0  0  0  0  0  0  0  0  0  0  0
    1.2070   68.7110   62.4750 C   0  0  0  0  0  0  0  0  0  0  0  0
    0.6970   69.4210   61.6230 O   0  0  0  0  0  0  0  0  0  0  0  0
   -0.5370   69.0400   64.3120 C   0  0  0  0  0  0  0  0  0  0  0  0
   -0.8990   68.6750   65.6120 C   0  0  0  0  0  0  0  0  0  0  0  0
   -0.0910   67.7650   66.3490 C   0  0  0  0  0  0  0  0  0  0  0  0
    1.0700   67.2220   65.7760 C   0  0  0  0  0  0  0  0  0  0  0  0
   -0.5320   67.4740   67.6170 O   0  0  0  0  0  0  0  0  0  0  0  0
    0.4420   67.2140   68.6170 C   0  0  0  0  0  0  0  0  0  0  0  0
   -2.0110   69.1480   66.2630 O   0  0  0  0  0  0  0  0  0  0  0  0
   -3.2840   68.7290   65.7900 C   0  0  0  0  0  0  0  0  0  0  0  0
    5.6980   69.4170   65.9780 C   0  0  0  0  0  0  0  0  0  0  0  0
    4.3620   69.7940   65.7960 C   0  0  0  0  0  0  0  0  0  0  0  0
    3.7250   69.5580   64.5760 C   0  0  0  0  0  0  0  0  0  0  0  0
    4.4030   68.9470   63.5190 C   0  0  0  0  0  0  0  0  0  0  0  0
    5.7200   68.5360   63.7090 C   0  0  0  0  0  0  0  0  0  0  0  0
    6.3660   68.7700   64.9280 C   0  0  0  0  0  0  0  0  0  0  0  0
    6.4220   69.7390   67.2570 C   0  0  0  0  0  0  0  0  0  0  0  0
    5.7380   70.8270   68.0690 N   0  0  0  0  0  4  0  0  0  0  0  0
    7.8210   71.2800   69.3630 C   0  0  0  0  0  0  0  0  0  0  0  0
    6.6930   71.8960   68.5550 C   0  0  0  0  0  0  0  0  0  0  0  0
    4.8240   70.3090   69.1650 C   0  0  0  0  0  0  0  0  0  0  0  0
    3.4400   70.9300   69.1180 C   0  0  0  0  0  0  0  0  0  0  0  0
    2.5809   67.3820   61.4413 H   0  0  0  0  0  0  0  0  0  0  0  0
    2.4757   66.0423   63.4486 H   0  0  0  0  0  0  0  0  0  0  0  0
    3.5335   67.2263   64.2147 H   0  0  0  0  0  0  0  0  0  0  0  0
   -1.1480   69.7433   63.7272 H   0  0  0  0  0  0  0  0  0  0  0  0
    1.6940   66.5133   66.3403 H   0  0  0  0  0  0  0  0  0  0  0  0
   -0.0122   67.3352   69.6115 H   0  0  0  0  0  0  0  0  0  0  0  0
    0.8147   66.1849   68.5071 H   0  0  0  0  0  0  0  0  0  0  0  0
    1.2780   67.9204   68.5071 H   0  0  0  0  0  0  0  0  0  0  0  0
   -3.9403   68.5130   66.6459 H   0  0  0  0  0  0  0  0  0  0  0  0
   -3.7293   69.5280   65.1790 H   0  0  0  0  0  0  0  0  0  0  0  0
   -3.1677   67.8217   65.1790 H   0  0  0  0  0  0  0  0  0  0  0  0
    3.8123   70.2777   66.6168 H   0  0  0  0  0  0  0  0  0  0  0  0
    2.6746   69.8575   64.4457 H   0  0  0  0  0  0  0  0  0  0  0  0
    6.2557   68.0243   62.8958 H   0  0  0  0  0  0  0  0  0  0  0  0
    7.4076   68.4435   65.0641 H   0  0  0  0  0  0  0  0  0  0  0  0
    6.4756   68.8264   67.8688 H   0  0  0  0  0  0  0  0  0  0  0  0
    7.4211   70.1103   66.9850 H   0  0  0  0  0  0  0  0  0  0  0  0
    5.1071   71.2890   67.3986 H   0  0  0  0  0  0  0  0  0  0  0  0
    7.6090   71.3958   70.4361 H   0  0  0  0  0  0  0  0  0  0  0  0
    7.9052   70.2107   69.1192 H   0  0  0  0  0  0  0  0  0  0  0  0
    8.7661   71.7872   69.1192 H   0  0  0  0  0  0  0  0  0  0  0  0
    6.1445   72.6102   69.1867 H   0  0  0  0  0  0  0  0  0  0  0  0
    7.1225   72.4101   67.6825 H   0  0  0  0  0  0  0  0  0  0  0  0
    4.7243   69.2192   69.0538 H   0  0  0  0  0  0  0  0  0  0  0  0
    5.2766   70.5806   70.1301 H   0  0  0  0  0  0  0  0  0  0  0  0
    3.0763   71.0932   70.1432 H   0  0  0  0  0  0  0  0  0  0  0  0
    3.4880   71.8929   68.5883 H   0  0  0  0  0  0  0  0  0  0  0  0
    2.7526   70.2540   68.5883 H   0  0  0  0  0  0  0  0  0  0  0  0
  2  1  1  0
  3  2  1  0
  4  3  1  0
  5  4  2  0
  6  5  1  0
  6  2  1  0
  7  6  2  0
  8  5  1  0
  9  8  2  0
 10  9  1  0
 11 10  2  0
 11  4  1  0
 12 10  1  0
 13 12  1  0
 14  9  1  0
 15 14  1  0
 17 16  2  0
 18 17  1  0
 19 18  2  0
 19  1  1  0
 20 19  1  0
 21 20  2  0
 21 16  1  0
 22 16  1  0
 23 22  1  0
 25 24  1  0
 25 23  1  0
 26 23  1  0
 27 26  1  0
  2 28  1  6
  3 29  1  0
  3 30  1  0
  8 31  1  0
 11 32  1  0
 13 33  1  0
 13 34  1  0
 13 35  1  0
 15 36  1  0
 15 37  1  0
 15 38  1  0
 17 39  1  0
 18 40  1  0
 20 41  1  0
 21 42  1  0
 22 43  1  0
 22 44  1  0
 23 45  1  0
 24 46  1  0
 24 47  1  0
 24 48  1  0
 25 49  1  0
 25 50  1  0
 26 51  1  0
 26 52  1  0
 27 53  1  0
 27 54  1  0
 27 55  1  0
M  CHG  1  23   1
M  END
>  <score>  (6) 
-7.298

$$$$
=
     RDKit          3D

 55 57  0  0  0  0  0  0  0  0999 V2000
    0.0820   64.5530   70.4830 O   0  0  0  0  0  0  0  0  0  0  0  0
    1.1300   64.2310   71.3900 C   0  0  1  0  0  0  0  0  0  0  0  0
    0.4920   63.5890   72.6480 C   0  0  0  0  0  0  0  0  0  0  0  0
    0.9440   62.1620   72.6190 C   0  0  0  0  0  0  0  0  0  0  0  0
    1.8700   61.9180   71.6170 C   0  0  0  0  0  0  0  0  0  0  0  0
    2.0730   63.1460   70.8610 C   0  0  0  0  0  0  0  0  0  0  0  0
    2.8670   63.2430   69.9400 O   0  0  0  0  0  0  0  0  0  0  0  0
    2.4590   60.6830   71.4150 C   0  0  0  0  0  0  0  0  0  0  0  0
    2.0920   59.6410   72.2720 C   0  0  0  0  0  0  0  0  0  0  0  0
    1.1410   59.8680   73.3060 C   0  0  0  0  0  0  0  0  0  0  0  0
    0.5710   61.1400   73.4790 C   0  0  0  0  0  0  0  0  0  0  0  0
    0.8470   58.7800   74.0900 O   0  0  0  0  0  0  0  0  0  0  0  0
   -0.4520   58.2150   73.9870 C   0  0  0  0  0  0  0  0  0  0  0  0
    2.5890   58.3630   72.1880 O   0  0  0  0  0  0  0  0  0  0  0  0
    3.3170   58.0110   71.0200 C   0  0  0  0  0  0  0  0  0  0  0  0
    0.6770   68.0580   68.2880 C   0  0  0  0  0  0  0  0  0  0  0  0
    1.6160   67.5790   69.2100 C   0  0  0  0  0  0  0  0  0  0  0  0
    1.3760   66.3940   69.9070 C   0  0  0  0  0  0  0  0  0  0  0  0
    0.2010   65.6670   69.7040 C   0  0  0  0  0  0  0  0  0  0  0  0
   -0.7190   66.1190   68.7610 C   0  0  0  0  0  0  0  0  0  0  0  0
   -0.4850   67.3070   68.0580 C   0  0  0  0  0  0  0  0  0  0  0  0
    0.8830   69.3750   67.5900 C   0  0  0  0  0  0  0  0  0  0  0  0
    2.1860   69.4360   66.8110 N   0  0  0  0  0  4  0  0  0  0  0  0
    2.1150   68.5630   64.4760 C   0  0  0  0  0  0  0  0  0  0  0  0
    2.4090   68.2280   65.9280 C   0  0  0  0  0  0  0  0  0  0  0  0
    3.4020   69.7860   67.6510 C   0  0  0  0  0  0  0  0  0  0  0  0
    4.6910   69.7800   66.8490 C   0  0  0  0  0  0  0  0  0  0  0  0
    1.6845   65.1642   71.5681 H   0  0  0  0  0  0  0  0  0  0  0  0
    0.8468   64.0896   73.5610 H   0  0  0  0  0  0  0  0  0  0  0  0
   -0.6044   63.6777   72.6492 H   0  0  0  0  0  0  0  0  0  0  0  0
    3.1904   60.5261   70.6085 H   0  0  0  0  0  0  0  0  0  0  0  0
   -0.1582   61.3223   74.2822 H   0  0  0  0  0  0  0  0  0  0  0  0
   -0.8563   58.0391   74.9948 H   0  0  0  0  0  0  0  0  0  0  0  0
   -1.1111   58.9077   73.4432 H   0  0  0  0  0  0  0  0  0  0  0  0
   -0.3946   57.2605   73.4432 H   0  0  0  0  0  0  0  0  0  0  0  0
    4.2726   57.5490   71.3089 H   0  0  0  0  0  0  0  0  0  0  0  0
    2.7301   57.2971   70.4234 H   0  0  0  0  0  0  0  0  0  0  0  0
    3.5120   58.9143   70.4234 H   0  0  0  0  0  0  0  0  0  0  0  0
    2.5464   68.1390   69.3855 H   0  0  0  0  0  0  0  0  0  0  0  0
    2.1229   66.0274   70.6265 H   0  0  0  0  0  0  0  0  0  0  0  0
   -1.6339   65.5398   68.5676 H   0  0  0  0  0  0  0  0  0  0  0  0
   -1.2202   67.6550   67.3175 H   0  0  0  0  0  0  0  0  0  0  0  0
    0.0488   69.5357   66.8912 H   0  0  0  0  0  0  0  0  0  0  0  0
    0.9256   70.1550   68.3645 H   0  0  0  0  0  0  0  0  0  0  0  0
    2.0668   70.2377   66.1755 H   0  0  0  0  0  0  0  0  0  0  0  0
    1.3901   69.3890   64.4298 H   0  0  0  0  0  0  0  0  0  0  0  0
    3.0461   68.8637   63.9733 H   0  0  0  0  0  0  0  0  0  0  0  0
    1.6960   67.6789   63.9733 H   0  0  0  0  0  0  0  0  0  0  0  0
    1.7430   67.4152   66.2531 H   0  0  0  0  0  0  0  0  0  0  0  0
    3.4606   67.9168   66.0133 H   0  0  0  0  0  0  0  0  0  0  0  0
    3.2578   70.7897   68.0774 H   0  0  0  0  0  0  0  0  0  0  0  0
    3.4954   69.0199   68.4348 H   0  0  0  0  0  0  0  0  0  0  0  0
    5.5502   69.7760   67.5359 H   0  0  0  0  0  0  0  0  0  0  0  0
    4.7242   68.8817   66.2150 H   0  0  0  0  0  0  0  0  0  0  0  0
    4.7326   70.6780   66.2150 H   0  0  0  0  0  0  0  0  0  0  0  0
  2  1  1  0
  3  2  1  0
  4  3  1  0
  5  4  2  0
  6  5  1  0
  6  2  1  0
  7  6  2  0
  8  5  1  0
  9  8  2  0
 10  9  1  0
 11 10  2  0
 11  4  1  0
 12 10  1  0
 13 12  1  0
 14  9  1  0
 15 14  1  0
 17 16  2  0
 18 17  1  0
 19 18  2  0
 19  1  1  0
 20 19  1  0
 21 20  2  0
 21 16  1  0
 22 16  1  0
 23 22  1  0
 25 24  1  0
 25 23  1  0
 26 23  1  0
 27 26  1  0
  2 28  1  1
  3 29  1  0
  3 30  1  0
  8 31  1  0
 11 32  1  0
 13 33  1  0
 13 34  1  0
 13 35  1  0
 15 36  1  0
 15 37  1  0
 15 38  1  0
 17 39  1  0
 18 40  1  0
 20 41  1  0
 21 42  1  0
 22 43  1  0
 22 44  1  0
 23 45  1  0
 24 46  1  0
 24 47  1  0
 24 48  1  0
 25 49  1  0
 25 50  1  0
 26 51  1  0
 26 52  1  0
 27 53  1  0
 27 54  1  0
 27 55  1  0
M  CHG  1  23   1
M  END
>  <score>  (7) 
-7.275

$$$$
=
     RDKit          3D

 55 57  0  0  0  0  0  0  0  0999 V2000
    1.2240   62.7600   72.4640 O   0  0  0  0  0  0  0  0  0  0  0  0
    0.6280   61.5580   71.9930 C   0  0  1  0  0  0  0  0  0  0  0  0
    1.6810   60.4250   72.1070 C   0  0  0  0  0  0  0  0  0  0  0  0
    1.1510   59.5170   73.1720 C   0  0  0  0  0  0  0  0  0  0  0  0
   -0.1240   59.8710   73.5860 C   0  0  0  0  0  0  0  0  0  0  0  0
   -0.5290   61.0730   72.8720 C   0  0  0  0  0  0  0  0  0  0  0  0
   -1.6250   61.5950   73.0030 O   0  0  0  0  0  0  0  0  0  0  0  0
   -0.8360   59.1600   74.5360 C   0  0  0  0  0  0  0  0  0  0  0  0
   -0.2250   58.0330   75.0950 C   0  0  0  0  0  0  0  0  0  0  0  0
    1.0840   57.6530   74.6860 C   0  0  0  0  0  0  0  0  0  0  0  0
    1.7690   58.4010   73.7150 C   0  0  0  0  0  0  0  0  0  0  0  0
    1.5940   56.5340   75.2970 O   0  0  0  0  0  0  0  0  0  0  0  0
    1.7660   55.3650   74.5080 C   0  0  0  0  0  0  0  0  0  0  0  0
   -0.8070   57.2360   76.0490 O   0  0  0  0  0  0  0  0  0  0  0  0
   -0.9630   57.7730   77.3550 C   0  0  0  0  0  0  0  0  0  0  0  0
    1.0580   66.1330   70.0040 C   0  0  0  0  0  0  0  0  0  0  0  0
    0.0900   65.8650   70.9800 C   0  0  0  0  0  0  0  0  0  0  0  0
    0.2000   64.7310   71.7870 C   0  0  0  0  0  0  0  0  0  0  0  0
    1.2680   63.8450   71.6370 C   0  0  0  0  0  0  0  0  0  0  0  0
    2.2530   64.1270   70.6940 C   0  0  0  0  0  0  0  0  0  0  0  0
    2.1500   65.2610   69.8810 C   0  0  0  0  0  0  0  0  0  0  0  0
    0.9100   67.3050   69.0730 C   0  0  0  0  0  0  0  0  0  0  0  0
    0.2870   66.9280   67.7390 N   0  0  0  0  0  4  0  0  0  0  0  0
    1.9200   68.6810   67.0490 C   0  0  0  0  0  0  0  0  0  0  0  0
    0.8510   67.7130   66.5750 C   0  0  0  0  0  0  0  0  0  0  0  0
   -1.2320   66.8920   67.7460 C   0  0  0  0  0  0  0  0  0  0  0  0
   -1.8510   68.1010   67.0690 C   0  0  0  0  0  0  0  0  0  0  0  0
    0.2710   61.7681   70.9740 H   0  0  0  0  0  0  0  0  0  0  0  0
    1.7771   59.8876   71.1520 H   0  0  0  0  0  0  0  0  0  0  0  0
    2.6819   60.8110   72.3504 H   0  0  0  0  0  0  0  0  0  0  0  0
   -1.8465   59.4702   74.8406 H   0  0  0  0  0  0  0  0  0  0  0  0
    2.7781   58.1068   73.3909 H   0  0  0  0  0  0  0  0  0  0  0  0
    1.8942   54.4935   75.1669 H   0  0  0  0  0  0  0  0  0  0  0  0
    0.8799   55.2175   73.8731 H   0  0  0  0  0  0  0  0  0  0  0  0
    2.6570   55.4789   73.8731 H   0  0  0  0  0  0  0  0  0  0  0  0
   -0.7373   56.9961   78.1003 H   0  0  0  0  0  0  0  0  0  0  0  0
   -0.2738   58.6199   77.4880 H   0  0  0  0  0  0  0  0  0  0  0  0
   -1.9987   58.1188   77.4880 H   0  0  0  0  0  0  0  0  0  0  0  0
   -0.7602   66.5505   71.1113 H   0  0  0  0  0  0  0  0  0  0  0  0
   -0.5656   64.5331   72.5516 H   0  0  0  0  0  0  0  0  0  0  0  0
    3.1169   63.4544   70.5877 H   0  0  0  0  0  0  0  0  0  0  0  0
    2.9333   65.4710   69.1378 H   0  0  0  0  0  0  0  0  0  0  0  0
    0.2722   68.0591   69.5572 H   0  0  0  0  0  0  0  0  0  0  0  0
    1.9190   67.6918   68.8676 H   0  0  0  0  0  0  0  0  0  0  0  0
    0.5727   65.9497   67.5902 H   0  0  0  0  0  0  0  0  0  0  0  0
    1.9382   68.6974   68.1487 H   0  0  0  0  0  0  0  0  0  0  0  0
    2.9011   68.3577   66.6709 H   0  0  0  0  0  0  0  0  0  0  0  0
    1.6954   69.6892   66.6709 H   0  0  0  0  0  0  0  0  0  0  0  0
    0.0395   68.2785   66.0937 H   0  0  0  0  0  0  0  0  0  0  0  0
    1.3024   67.0099   65.8596 H   0  0  0  0  0  0  0  0  0  0  0  0
   -1.5647   65.9854   67.2194 H   0  0  0  0  0  0  0  0  0  0  0  0
   -1.5590   66.8964   68.7963 H   0  0  0  0  0  0  0  0  0  0  0  0
   -2.2114   68.8049   67.8336 H   0  0  0  0  0  0  0  0  0  0  0  0
   -1.0957   68.5965   66.4413 H   0  0  0  0  0  0  0  0  0  0  0  0
   -2.6946   67.7779   66.4413 H   0  0  0  0  0  0  0  0  0  0  0  0
  2  1  1  0
  3  2  1  0
  4  3  1  0
  5  4  2  0
  6  5  1  0
  6  2  1  0
  7  6  2  0
  8  5  1  0
  9  8  2  0
 10  9  1  0
 11 10  2  0
 11  4  1  0
 12 10  1  0
 13 12  1  0
 14  9  1  0
 15 14  1  0
 17 16  2  0
 18 17  1  0
 19 18  2  0
 19  1  1  0
 20 19  1  0
 21 20  2  0
 21 16  1  0
 22 16  1  0
 23 22  1  0
 25 24  1  0
 25 23  1  0
 26 23  1  0
 27 26  1  0
  2 28  1  6
  3 29  1  0
  3 30  1  0
  8 31  1  0
 11 32  1  0
 13 33  1  0
 13 34  1  0
 13 35  1  0
 15 36  1  0
 15 37  1  0
 15 38  1  0
 17 39  1  0
 18 40  1  0
 20 41  1  0
 21 42  1  0
 22 43  1  0
 22 44  1  0
 23 45  1  0
 24 46  1  0
 24 47  1  0
 24 48  1  0
 25 49  1  0
 25 50  1  0
 26 51  1  0
 26 52  1  0
 27 53  1  0
 27 54  1  0
 27 55  1  0
M  CHG  1  23   1
M  END
>  <score>  (8) 
-7.239

$$$$
=
     RDKit          3D

 55 57  0  0  0  0  0  0  0  0999 V2000
   -0.7990   63.3900   74.6370 O   0  0  0  0  0  0  0  0  0  0  0  0
    0.4260   63.9570   74.1870 C   0  0  1  0  0  0  0  0  0  0  0  0
    1.5210   62.8640   74.2800 C   0  0  0  0  0  0  0  0  0  0  0  0
    1.8800   62.5600   72.8590 C   0  0  0  0  0  0  0  0  0  0  0  0
    1.2660   63.4200   71.9610 C   0  0  0  0  0  0  0  0  0  0  0  0
    0.4080   64.3330   72.7030 C   0  0  0  0  0  0  0  0  0  0  0  0
   -0.2300   65.2310   72.1770 O   0  0  0  0  0  0  0  0  0  0  0  0
    1.4720   63.3600   70.5950 C   0  0  0  0  0  0  0  0  0  0  0  0
    2.3430   62.3780   70.1120 C   0  0  0  0  0  0  0  0  0  0  0  0
    2.9810   61.4840   71.0160 C   0  0  0  0  0  0  0  0  0  0  0  0
    2.7480   61.5830   72.3970 C   0  0  0  0  0  0  0  0  0  0  0  0
    3.8150   60.5560   70.4410 O   0  0  0  0  0  0  0  0  0  0  0  0
    3.3720   59.2080   70.3830 C   0  0  0  0  0  0  0  0  0  0  0  0
    2.6390   62.1970   68.7840 O   0  0  0  0  0  0  0  0  0  0  0  0
    3.7230   62.9360   68.2400 C   0  0  0  0  0  0  0  0  0  0  0  0
   -1.0660   59.2290   74.9000 C   0  0  0  0  0  0  0  0  0  0  0  0
   -0.7060   60.0300   75.9910 C   0  0  0  0  0  0  0  0  0  0  0  0
   -0.6460   61.4180   75.8540 C   0  0  0  0  0  0  0  0  0  0  0  0
   -0.9390   62.0320   74.6350 C   0  0  0  0  0  0  0  0  0  0  0  0
   -1.3340   61.2430   73.5580 C   0  0  0  0  0  0  0  0  0  0  0  0
   -1.3960   59.8500   73.6870 C   0  0  0  0  0  0  0  0  0  0  0  0
   -1.0550   57.7290   75.0090 C   0  0  0  0  0  0  0  0  0  0  0  0
   -0.0550   57.0730   74.0720 N   0  0  0  0  0  4  0  0  0  0  0  0
    0.5060   54.6490   74.2460 C   0  0  0  0  0  0  0  0  0  0  0  0
   -0.4520   55.6720   73.6620 C   0  0  0  0  0  0  0  0  0  0  0  0
    1.3890   57.1650   74.5350 C   0  0  0  0  0  0  0  0  0  0  0  0
    2.2210   58.1030   73.6790 C   0  0  0  0  0  0  0  0  0  0  0  0
    0.5991   64.8506   74.8046 H   0  0  0  0  0  0  0  0  0  0  0  0
    2.3972   63.2391   74.8292 H   0  0  0  0  0  0  0  0  0  0  0  0
    1.1718   61.9715   74.8199 H   0  0  0  0  0  0  0  0  0  0  0  0
    0.9685   64.0601   69.9121 H   0  0  0  0  0  0  0  0  0  0  0  0
    3.2451   60.8978   73.0994 H   0  0  0  0  0  0  0  0  0  0  0  0
    3.2444   58.8197   71.4043 H   0  0  0  0  0  0  0  0  0  0  0  0
    2.4110   59.1605   69.8499 H   0  0  0  0  0  0  0  0  0  0  0  0
    4.1175   58.5997   69.8499 H   0  0  0  0  0  0  0  0  0  0  0  0
    4.3311   63.3505   69.0576 H   0  0  0  0  0  0  0  0  0  0  0  0
    4.3447   62.2728   67.6206 H   0  0  0  0  0  0  0  0  0  0  0  0
    3.3328   63.7570   67.6206 H   0  0  0  0  0  0  0  0  0  0  0  0
   -0.4698   59.5639   76.9590 H   0  0  0  0  0  0  0  0  0  0  0  0
   -0.3639   62.0366   76.7187 H   0  0  0  0  0  0  0  0  0  0  0  0
   -1.5987   61.7163   72.6009 H   0  0  0  0  0  0  0  0  0  0  0  0
   -1.7067   59.2369   72.8282 H   0  0  0  0  0  0  0  0  0  0  0  0
   -0.7988   57.4546   76.0429 H   0  0  0  0  0  0  0  0  0  0  0  0
   -2.0557   57.3711   74.7251 H   0  0  0  0  0  0  0  0  0  0  0  0
   -0.0943   57.6440   73.2157 H   0  0  0  0  0  0  0  0  0  0  0  0
    0.4647   54.6931   75.3443 H   0  0  0  0  0  0  0  0  0  0  0  0
    0.2181   53.6425   73.9084 H   0  0  0  0  0  0  0  0  0  0  0  0
    1.5293   54.8703   73.9084 H   0  0  0  0  0  0  0  0  0  0  0  0
   -0.4337   55.5983   72.5646 H   0  0  0  0  0  0  0  0  0  0  0  0
   -1.4635   55.4660   74.0421 H   0  0  0  0  0  0  0  0  0  0  0  0
    1.4031   57.5300   75.5726 H   0  0  0  0  0  0  0  0  0  0  0  0
    1.8292   56.1605   74.4507 H   0  0  0  0  0  0  0  0  0  0  0  0
    2.8100   58.7670   74.3288 H   0  0  0  0  0  0  0  0  0  0  0  0
    2.8998   57.5148   73.0440 H   0  0  0  0  0  0  0  0  0  0  0  0
    1.5560   58.7068   73.0440 H   0  0  0  0  0  0  0  0  0  0  0  0
  2  1  1  0
  3  2  1  0
  4  3  1  0
  5  4  2  0
  6  5  1  0
  6  2  1  0
  7  6  2  0
  8  5  1  0
  9  8  2  0
 10  9  1  0
 11 10  2  0
 11  4  1  0
 12 10  1  0
 13 12  1  0
 14  9  1  0
 15 14  1  0
 17 16  2  0
 18 17  1  0
 19 18  2  0
 19  1  1  0
 20 19  1  0
 21 20  2  0
 21 16  1  0
 22 16  1  0
 23 22  1  0
 25 24  1  0
 25 23  1  0
 26 23  1  0
 27 26  1  0
  2 28  1  1
  3 29  1  0
  3 30  1  0
  8 31  1  0
 11 32  1  0
 13 33  1  0
 13 34  1  0
 13 35  1  0
 15 36  1  0
 15 37  1  0
 15 38  1  0
 17 39  1  0
 18 40  1  0
 20 41  1  0
 21 42  1  0
 22 43  1  0
 22 44  1  0
 23 45  1  0
 24 46  1  0
 24 47  1  0
 24 48  1  0
 25 49  1  0
 25 50  1  0
 26 51  1  0
 26 52  1  0
 27 53  1  0
 27 54  1  0
 27 55  1  0
M  CHG  1  23   1
M  END
>  <score>  (9) 
-6.874

$$$$
