=
     RDKit          3D

 58 60  0  0  0  0  0  0  0  0999 V2000
    0.3930   65.0360   71.2440 C   0  0  0  0  0  0  0  0  0  0  0  0
    0.3860   64.8150   72.6210 C   0  0  0  0  0  0  0  0  0  0  0  0
    0.4000   63.5070   73.1210 C   0  0  0  0  0  0  0  0  0  0  0  0
    0.4340   62.4090   72.2540 C   0  0  0  0  0  0  0  0  0  0  0  0
    0.4280   62.6370   70.8740 C   0  0  0  0  0  0  0  0  0  0  0  0
    0.4110   63.9420   70.3760 C   0  0  0  0  0  0  0  0  0  0  0  0
    0.4420   61.0160   72.7750 C   0  0  0  0  0  0  0  0  0  0  0  0
    1.5450   60.2360   72.6290 C   0  0  0  0  0  0  0  0  0  0  0  0
    1.6430   58.6150   73.2700 Cl  0  0  0  0  0  0  0  0  0  0  0  0
    2.7800   60.6500   71.9310 C   0  0  0  0  0  0  0  0  0  0  0  0
    3.0110   60.2540   70.6050 C   0  0  0  0  0  0  0  0  0  0  0  0
    4.1740   60.6490   69.9420 C   0  0  0  0  0  0  0  0  0  0  0  0
    5.1140   61.4440   70.5950 C   0  0  0  0  0  0  0  0  0  0  0  0
    4.8930   61.8470   71.9110 C   0  0  0  0  0  0  0  0  0  0  0  0
    3.7290   61.4550   72.5770 C   0  0  0  0  0  0  0  0  0  0  0  0
   -0.7620   60.4800   73.4620 C   0  0  0  0  0  0  0  0  0  0  0  0
   -0.7260   59.2370   74.1100 C   0  0  0  0  0  0  0  0  0  0  0  0
   -1.8670   58.7370   74.7370 C   0  0  0  0  0  0  0  0  0  0  0  0
   -3.0530   59.4690   74.7190 C   0  0  0  0  0  0  0  0  0  0  0  0
   -3.0990   60.7040   74.0720 C   0  0  0  0  0  0  0  0  0  0  0  0
   -1.9590   61.2080   73.4430 C   0  0  0  0  0  0  0  0  0  0  0  0
    0.3810   66.2550   70.6240 O   0  0  0  0  0  0  0  0  0  0  0  0
   -0.3420   66.3560   69.4000 C   0  0  0  0  0  0  0  0  0  0  0  0
    0.4720   67.2600   68.4670 C   0  0  0  0  0  0  0  0  0  0  0  0
   -0.0370   67.2270   67.0340 N   0  0  0  0  0  4  0  0  0  0  0  0
   -1.8570   68.7380   66.1070 C   0  0  0  0  0  0  0  0  0  0  0  0
   -1.5270   67.5060   66.9220 C   0  0  0  0  0  0  0  0  0  0  0  0
    0.8200   67.9160   65.9900 C   0  0  0  0  0  0  0  0  0  0  0  0
    2.1490   68.4310   66.5120 C   0  0  0  0  0  0  0  0  0  0  0  0
    0.3695   65.6685   73.3147 H   0  0  0  0  0  0  0  0  0  0  0  0
    0.3841   63.3406   74.2082 H   0  0  0  0  0  0  0  0  0  0  0  0
    0.4367   61.7852   70.1780 H   0  0  0  0  0  0  0  0  0  0  0  0
    0.4118   64.1097   69.2889 H   0  0  0  0  0  0  0  0  0  0  0  0
    2.2709   59.6283   70.0846 H   0  0  0  0  0  0  0  0  0  0  0  0
    4.3487   60.3325   68.9031 H   0  0  0  0  0  0  0  0  0  0  0  0
    6.0307   61.7536   70.0718 H   0  0  0  0  0  0  0  0  0  0  0  0
    5.6358   62.4743   72.4257 H   0  0  0  0  0  0  0  0  0  0  0  0
    3.5562   61.7797   73.6137 H   0  0  0  0  0  0  0  0  0  0  0  0
    0.2065   58.6536   74.1239 H   0  0  0  0  0  0  0  0  0  0  0  0
   -1.8309   57.7629   75.2468 H   0  0  0  0  0  0  0  0  0  0  0  0
   -3.9518   59.0732   75.2145 H   0  0  0  0  0  0  0  0  0  0  0  0
   -4.0350   61.2817   74.0574 H   0  0  0  0  0  0  0  0  0  0  0  0
   -2.0007   62.1804   72.9305 H   0  0  0  0  0  0  0  0  0  0  0  0
   -0.4618   65.3596   68.9496 H   0  0  0  0  0  0  0  0  0  0  0  0
   -1.3450   66.7737   69.5718 H   0  0  0  0  0  0  0  0  0  0  0  0
    0.4139   68.2938   68.8383 H   0  0  0  0  0  0  0  0  0  0  0  0
    1.5077   66.8896   68.4625 H   0  0  0  0  0  0  0  0  0  0  0  0
    0.0833   66.2401   66.7649 H   0  0  0  0  0  0  0  0  0  0  0  0
   -2.0814   69.5759   66.7835 H   0  0  0  0  0  0  0  0  0  0  0  0
   -0.9971   68.9991   65.4726 H   0  0  0  0  0  0  0  0  0  0  0  0
   -2.7323   68.5344   65.4726 H   0  0  0  0  0  0  0  0  0  0  0  0
   -1.9318   67.6418   67.9357 H   0  0  0  0  0  0  0  0  0  0  0  0
   -1.9761   66.6472   66.4016 H   0  0  0  0  0  0  0  0  0  0  0  0
    1.0225   67.1975   65.1821 H   0  0  0  0  0  0  0  0  0  0  0  0
    0.2540   68.7954   65.6490 H   0  0  0  0  0  0  0  0  0  0  0  0
    2.1375   68.4265   67.6119 H   0  0  0  0  0  0  0  0  0  0  0  0
    2.9608   67.7824   66.1512 H   0  0  0  0  0  0  0  0  0  0  0  0
    2.3118   69.4573   66.1512 H   0  0  0  0  0  0  0  0  0  0  0  0
  2  1  2  0
  3  2  1  0
  4  3  2  0
  5  4  1  0
  6  5  2  0
  6  1  1  0
  7  4  1  0
  8  7  2  0
  9  8  1  0
 10  8  1  0
 11 10  2  0
 12 11  1  0
 13 12  2  0
 14 13  1  0
 15 14  2  0
 15 10  1  0
 16  7  1  0
 17 16  2  0
 18 17  1  0
 19 18  2  0
 20 19  1  0
 21 20  2  0
 21 16  1  0
 22  1  1  0
 23 22  1  0
 24 23  1  0
 25 24  1  0
 27 26  1  0
 27 25  1  0
 28 25  1  0
 29 28  1  0
  2 30  1  0
  3 31  1  0
  5 32  1  0
  6 33  1  0
 11 34  1  0
 12 35  1  0
 13 36  1  0
 14 37  1  0
 15 38  1  0
 17 39  1  0
 18 40  1  0
 19 41  1  0
 20 42  1  0
 21 43  1  0
 23 44  1  0
 23 45  1  0
 24 46  1  0
 24 47  1  0
 25 48  1  0
 26 49  1  0
 26 50  1  0
 26 51  1  0
 27 52  1  0
 27 53  1  0
 28 54  1  0
 28 55  1  0
 29 56  1  0
 29 57  1  0
 29 58  1  0
M  CHG  1  25   1
M  END
>  <score>  (1) 
-8.84

$$$$
=
     RDKit          3D

 58 60  0  0  0  0  0  0  0  0999 V2000
    0.3240   63.3870   73.8120 C   0  0  0  0  0  0  0  0  0  0  0  0
    1.5650   63.0160   74.3280 C   0  0  0  0  0  0  0  0  0  0  0  0
    2.1590   61.8130   73.9270 C   0  0  0  0  0  0  0  0  0  0  0  0
    1.5270   60.9760   73.0000 C   0  0  0  0  0  0  0  0  0  0  0  0
    0.2760   61.3480   72.4960 C   0  0  0  0  0  0  0  0  0  0  0  0
   -0.3170   62.5470   72.8990 C   0  0  0  0  0  0  0  0  0  0  0  0
    2.1470   59.6920   72.5740 C   0  0  0  0  0  0  0  0  0  0  0  0
    3.0360   59.6690   71.5470 C   0  0  0  0  0  0  0  0  0  0  0  0
    3.8450   58.2080   71.0350 Cl  0  0  0  0  0  0  0  0  0  0  0  0
    3.4310   60.8500   70.7510 C   0  0  0  0  0  0  0  0  0  0  0  0
    2.7660   61.1520   69.5540 C   0  0  0  0  0  0  0  0  0  0  0  0
    3.1340   62.2700   68.8030 C   0  0  0  0  0  0  0  0  0  0  0  0
    4.1670   63.0960   69.2420 C   0  0  0  0  0  0  0  0  0  0  0  0
    4.8320   62.8080   70.4340 C   0  0  0  0  0  0  0  0  0  0  0  0
    4.4650   61.6910   71.1870 C   0  0  0  0  0  0  0  0  0  0  0  0
    1.7920   58.4340   73.2790 C   0  0  0  0  0  0  0  0  0  0  0  0
    0.6740   57.6830   72.8890 C   0  0  0  0  0  0  0  0  0  0  0  0
    0.3400   56.5110   73.5690 C   0  0  0  0  0  0  0  0  0  0  0  0
    1.1160   56.0830   74.6460 C   0  0  0  0  0  0  0  0  0  0  0  0
    2.2270   56.8270   75.0440 C   0  0  0  0  0  0  0  0  0  0  0  0
    2.5630   58.0000   74.3650 C   0  0  0  0  0  0  0  0  0  0  0  0
   -0.3670   64.5280   74.1160 O   0  0  0  0  0  0  0  0  0  0  0  0
   -0.3420   64.9630   75.4720 C   0  0  0  0  0  0  0  0  0  0  0  0
   -1.1590   63.9520   76.2860 C   0  0  0  0  0  0  0  0  0  0  0  0
   -2.6570   64.1950   76.1800 N   0  0  0  0  0  4  0  0  0  0  0  0
   -2.7250   61.7060   75.6760 C   0  0  0  0  0  0  0  0  0  0  0  0
   -3.4730   62.9140   76.1990 C   0  0  0  0  0  0  0  0  0  0  0  0
   -3.2250   65.3250   77.0160 C   0  0  0  0  0  0  0  0  0  0  0  0
   -3.5960   66.5650   76.2230 C   0  0  0  0  0  0  0  0  0  0  0  0
    2.0776   63.6684   75.0502 H   0  0  0  0  0  0  0  0  0  0  0  0
    3.1339   61.5223   74.3455 H   0  0  0  0  0  0  0  0  0  0  0  0
   -0.2427   60.6939   71.7797 H   0  0  0  0  0  0  0  0  0  0  0  0
   -1.2987   62.8323   72.4930 H   0  0  0  0  0  0  0  0  0  0  0  0
    1.9490   60.5038   69.2043 H   0  0  0  0  0  0  0  0  0  0  0  0
    2.6083   62.4990   67.8643 H   0  0  0  0  0  0  0  0  0  0  0  0
    4.4581   63.9752   68.6485 H   0  0  0  0  0  0  0  0  0  0  0  0
    5.6461   63.4614   70.7809 H   0  0  0  0  0  0  0  0  0  0  0  0
    4.9901   61.4693   72.1278 H   0  0  0  0  0  0  0  0  0  0  0  0
    0.0570   58.0194   72.0427 H   0  0  0  0  0  0  0  0  0  0  0  0
   -0.5360   55.9243   73.2553 H   0  0  0  0  0  0  0  0  0  0  0  0
    0.8521   55.1591   75.1814 H   0  0  0  0  0  0  0  0  0  0  0  0
    2.8389   56.4893   75.8935 H   0  0  0  0  0  0  0  0  0  0  0  0
    3.4373   58.5861   74.6845 H   0  0  0  0  0  0  0  0  0  0  0  0
    0.6944   64.9934   75.8393 H   0  0  0  0  0  0  0  0  0  0  0  0
   -0.7649   65.9741   75.5663 H   0  0  0  0  0  0  0  0  0  0  0  0
   -0.9385   62.9400   75.9155 H   0  0  0  0  0  0  0  0  0  0  0  0
   -0.8754   64.0659   77.3427 H   0  0  0  0  0  0  0  0  0  0  0  0
   -2.7660   64.5809   75.2313 H   0  0  0  0  0  0  0  0  0  0  0  0
   -2.3553   61.1089   76.5226 H   0  0  0  0  0  0  0  0  0  0  0  0
   -3.4018   61.0929   75.0627 H   0  0  0  0  0  0  0  0  0  0  0  0
   -1.8745   62.0386   75.0627 H   0  0  0  0  0  0  0  0  0  0  0  0
   -4.3682   63.0636   75.5775 H   0  0  0  0  0  0  0  0  0  0  0  0
   -3.7208   62.7072   77.2506 H   0  0  0  0  0  0  0  0  0  0  0  0
   -4.1293   64.9572   77.5230 H   0  0  0  0  0  0  0  0  0  0  0  0
   -2.4331   65.6258   77.7177 H   0  0  0  0  0  0  0  0  0  0  0  0
   -3.8409   67.3836   76.9158 H   0  0  0  0  0  0  0  0  0  0  0  0
   -2.7475   66.8624   75.5893 H   0  0  0  0  0  0  0  0  0  0  0  0
   -4.4684   66.3476   75.5893 H   0  0  0  0  0  0  0  0  0  0  0  0
  2  1  2  0
  3  2  1  0
  4  3  2  0
  5  4  1  0
  6  5  2  0
  6  1  1  0
  7  4  1  0
  8  7  2  0
  9  8  1  0
 10  8  1  0
 11 10  2  0
 12 11  1  0
 13 12  2  0
 14 13  1  0
 15 14  2  0
 15 10  1  0
 16  7  1  0
 17 16  2  0
 18 17  1  0
 19 18  2  0
 20 19  1  0
 21 20  2  0
 21 16  1  0
 22  1  1  0
 23 22  1  0
 24 23  1  0
 25 24  1  0
 27 26  1  0
 27 25  1  0
 28 25  1  0
 29 28  1  0
  2 30  1  0
  3 31  1  0
  5 32  1  0
  6 33  1  0
 11 34  1  0
 12 35  1  0
 13 36  1  0
 14 37  1  0
 15 38  1  0
 17 39  1  0
 18 40  1  0
 19 41  1  0
 20 42  1  0
 21 43  1  0
 23 44  1  0
 23 45  1  0
 24 46  1  0
 24 47  1  0
 25 48  1  0
 26 49  1  0
 26 50  1  0
 26 51  1  0
 27 52  1  0
 27 53  1  0
 28 54  1  0
 28 55  1  0
 29 56  1  0
 29 57  1  0
 29 58  1  0
M  CHG  1  25   1
M  END
>  <score>  (2) 
-8.732

$$$$
=
     RDKit          3D

 58 60  0  0  0  0  0  0  0  0999 V2000
    0.3080   63.3740   73.6860 C   0  0  0  0  0  0  0  0  0  0  0  0
   -0.3540   62.4790   72.8460 C   0  0  0  0  0  0  0  0  0  0  0  0
    0.2650   61.2810   72.4700 C   0  0  0  0  0  0  0  0  0  0  0  0
    1.5450   60.9600   72.9370 C   0  0  0  0  0  0  0  0  0  0  0  0
    2.2090   61.8680   73.7690 C   0  0  0  0  0  0  0  0  0  0  0  0
    1.5910   63.0640   74.1410 C   0  0  0  0  0  0  0  0  0  0  0  0
    2.2150   59.6930   72.5370 C   0  0  0  0  0  0  0  0  0  0  0  0
    3.1000   59.6830   71.5060 C   0  0  0  0  0  0  0  0  0  0  0  0
    3.9660   58.2450   71.0240 Cl  0  0  0  0  0  0  0  0  0  0  0  0
    3.4420   60.8600   70.6800 C   0  0  0  0  0  0  0  0  0  0  0  0
    4.4560   61.7400   71.0860 C   0  0  0  0  0  0  0  0  0  0  0  0
    4.7830   62.8490   70.3040 C   0  0  0  0  0  0  0  0  0  0  0  0
    4.1030   63.0880   69.1110 C   0  0  0  0  0  0  0  0  0  0  0  0
    3.0970   62.2160   68.6960 C   0  0  0  0  0  0  0  0  0  0  0  0
    2.7680   61.1050   69.4760 C   0  0  0  0  0  0  0  0  0  0  0  0
    1.9160   58.4380   73.2740 C   0  0  0  0  0  0  0  0  0  0  0  0
    0.8580   57.6080   72.8780 C   0  0  0  0  0  0  0  0  0  0  0  0
    0.5760   56.4400   73.5870 C   0  0  0  0  0  0  0  0  0  0  0  0
    1.3440   56.0950   74.6990 C   0  0  0  0  0  0  0  0  0  0  0  0
    2.3950   56.9170   75.1030 C   0  0  0  0  0  0  0  0  0  0  0  0
    2.6800   58.0870   74.3950 C   0  0  0  0  0  0  0  0  0  0  0  0
   -0.1780   64.5740   74.1290 O   0  0  0  0  0  0  0  0  0  0  0  0
   -0.1420   64.8130   75.5330 C   0  0  0  0  0  0  0  0  0  0  0  0
   -1.3330   64.0690   76.1490 C   0  0  0  0  0  0  0  0  0  0  0  0
   -0.9040   62.8700   76.9800 N   0  0  0  0  0  4  0  0  0  0  0  0
   -0.1600   60.5310   76.3260 C   0  0  0  0  0  0  0  0  0  0  0  0
   -1.2880   61.5400   76.3550 C   0  0  0  0  0  0  0  0  0  0  0  0
    0.4920   62.9160   77.5730 C   0  0  0  0  0  0  0  0  0  0  0  0
    0.5480   63.4300   79.0000 C   0  0  0  0  0  0  0  0  0  0  0  0
   -1.3637   62.7147   72.4785 H   0  0  0  0  0  0  0  0  0  0  0  0
   -0.2602   60.5842   71.8002 H   0  0  0  0  0  0  0  0  0  0  0  0
    3.2219   61.6390   74.1316 H   0  0  0  0  0  0  0  0  0  0  0  0
    2.1204   63.7688   74.7991 H   0  0  0  0  0  0  0  0  0  0  0  0
    4.9966   61.5551   72.0260 H   0  0  0  0  0  0  0  0  0  0  0  0
    5.5785   63.5353   70.6297 H   0  0  0  0  0  0  0  0  0  0  0  0
    4.3597   63.9640   68.4972 H   0  0  0  0  0  0  0  0  0  0  0  0
    2.5620   62.4033   67.7533 H   0  0  0  0  0  0  0  0  0  0  0  0
    1.9755   60.4185   69.1434 H   0  0  0  0  0  0  0  0  0  0  0  0
    0.2473   57.8789   72.0041 H   0  0  0  0  0  0  0  0  0  0  0  0
   -0.2528   55.7906   73.2687 H   0  0  0  0  0  0  0  0  0  0  0  0
    1.1203   55.1740   75.2574 H   0  0  0  0  0  0  0  0  0  0  0  0
    3.0003   56.6441   75.9800 H   0  0  0  0  0  0  0  0  0  0  0  0
    3.5075   58.7354   74.7188 H   0  0  0  0  0  0  0  0  0  0  0  0
    0.7996   64.4332   75.9562 H   0  0  0  0  0  0  0  0  0  0  0  0
   -0.2004   65.8902   75.7479 H   0  0  0  0  0  0  0  0  0  0  0  0
   -1.8881   64.7653   76.7947 H   0  0  0  0  0  0  0  0  0  0  0  0
   -1.9579   63.6972   75.3236 H   0  0  0  0  0  0  0  0  0  0  0  0
   -1.4805   62.9551   77.8293 H   0  0  0  0  0  0  0  0  0  0  0  0
    0.1280   60.2733   77.3559 H   0  0  0  0  0  0  0  0  0  0  0  0
   -0.4930   59.6238   75.8005 H   0  0  0  0  0  0  0  0  0  0  0  0
    0.7046   60.9626   75.8005 H   0  0  0  0  0  0  0  0  0  0  0  0
   -1.6154   61.7242   75.3211 H   0  0  0  0  0  0  0  0  0  0  0  0
   -2.0860   61.1110   76.9789 H   0  0  0  0  0  0  0  0  0  0  0  0
    0.9067   61.8973   77.5573 H   0  0  0  0  0  0  0  0  0  0  0  0
    1.0711   63.6229   76.9607 H   0  0  0  0  0  0  0  0  0  0  0  0
    0.4559   62.5848   79.6980 H   0  0  0  0  0  0  0  0  0  0  0  0
    1.5072   63.9416   79.1681 H   0  0  0  0  0  0  0  0  0  0  0  0
   -0.2785   64.1361   79.1681 H   0  0  0  0  0  0  0  0  0  0  0  0
  2  1  2  0
  3  2  1  0
  4  3  2  0
  5  4  1  0
  6  5  2  0
  6  1  1  0
  7  4  1  0
  8  7  2  0
  9  8  1  0
 10  8  1  0
 11 10  2  0
 12 11  1  0
 13 12  2  0
 14 13  1  0
 15 14  2  0
 15 10  1  0
 16  7  1  0
 17 16  2  0
 18 17  1  0
 19 18  2  0
 20 19  1  0
 21 20  2  0
 21 16  1  0
 22  1  1  0
 23 22  1  0
 24 23  1  0
 25 24  1  0
 27 26  1  0
 27 25  1  0
 28 25  1  0
 29 28  1  0
  2 30  1  0
  3 31  1  0
  5 32  1  0
  6 33  1  0
 11 34  1  0
 12 35  1  0
 13 36  1  0
 14 37  1  0
 15 38  1  0
 17 39  1  0
 18 40  1  0
 19 41  1  0
 20 42  1  0
 21 43  1  0
 23 44  1  0
 23 45  1  0
 24 46  1  0
 24 47  1  0
 25 48  1  0
 26 49  1  0
 26 50  1  0
 26 51  1  0
 27 52  1  0
 27 53  1  0
 28 54  1  0
 28 55  1  0
 29 56  1  0
 29 57  1  0
 29 58  1  0
M  CHG  1  25   1
M  END
>  <score>  (3) 
-8.697

$$$$
=
     RDKit          3D

 58 60  0  0  0  0  0  0  0  0999 V2000
    2.7800   58.4780   74.6600 C   0  0  0  0  0  0  0  0  0  0  0  0
    3.0380   59.7820   75.0810 C   0  0  0  0  0  0  0  0  0  0  0  0
    2.6890   60.8640   74.2650 C   0  0  0  0  0  0  0  0  0  0  0  0
    2.0690   60.6560   73.0270 C   0  0  0  0  0  0  0  0  0  0  0  0
    1.8250   59.3450   72.6050 C   0  0  0  0  0  0  0  0  0  0  0  0
    2.1760   58.2660   73.4190 C   0  0  0  0  0  0  0  0  0  0  0  0
    1.7010   61.7990   72.1480 C   0  0  0  0  0  0  0  0  0  0  0  0
    0.5320   62.4630   72.3420 C   0  0  0  0  0  0  0  0  0  0  0  0
    0.0670   63.8490   71.3860 Cl  0  0  0  0  0  0  0  0  0  0  0  0
   -0.4750   62.1100   73.3650 C   0  0  0  0  0  0  0  0  0  0  0  0
   -0.4230   62.6910   74.6400 C   0  0  0  0  0  0  0  0  0  0  0  0
   -1.3760   62.3630   75.6060 C   0  0  0  0  0  0  0  0  0  0  0  0
   -2.3890   61.4540   75.3060 C   0  0  0  0  0  0  0  0  0  0  0  0
   -2.4530   60.8740   74.0400 C   0  0  0  0  0  0  0  0  0  0  0  0
   -1.5020   61.2010   73.0710 C   0  0  0  0  0  0  0  0  0  0  0  0
    2.6220   62.2160   71.0590 C   0  0  0  0  0  0  0  0  0  0  0  0
    3.7650   62.9790   71.3380 C   0  0  0  0  0  0  0  0  0  0  0  0
    4.6130   63.3790   70.3050 C   0  0  0  0  0  0  0  0  0  0  0  0
    4.3260   63.0260   68.9870 C   0  0  0  0  0  0  0  0  0  0  0  0
    3.1880   62.2710   68.7010 C   0  0  0  0  0  0  0  0  0  0  0  0
    2.3370   61.8700   69.7310 C   0  0  0  0  0  0  0  0  0  0  0  0
    3.0680   57.3350   75.3550 O   0  0  0  0  0  0  0  0  0  0  0  0
    2.3650   57.1190   76.5750 C   0  0  0  0  0  0  0  0  0  0  0  0
    1.7750   55.7050   76.5130 C   0  0  0  0  0  0  0  0  0  0  0  0
    0.4030   55.6750   75.8560 N   0  0  0  0  0  4  0  0  0  0  0  0
   -1.0390   57.4460   74.7450 C   0  0  0  0  0  0  0  0  0  0  0  0
   -0.3660   56.9750   76.0160 C   0  0  0  0  0  0  0  0  0  0  0  0
    0.3230   55.0530   74.4740 C   0  0  0  0  0  0  0  0  0  0  0  0
    1.6260   54.4470   73.9850 C   0  0  0  0  0  0  0  0  0  0  0  0
    3.5163   59.9604   76.0554 H   0  0  0  0  0  0  0  0  0  0  0  0
    2.9042   61.8894   74.6000 H   0  0  0  0  0  0  0  0  0  0  0  0
    1.3545   59.1631   71.6275 H   0  0  0  0  0  0  0  0  0  0  0  0
    1.9748   57.2393   73.0794 H   0  0  0  0  0  0  0  0  0  0  0  0
    0.3739   63.4100   74.8807 H   0  0  0  0  0  0  0  0  0  0  0  0
   -1.3274   62.8222   76.6044 H   0  0  0  0  0  0  0  0  0  0  0  0
   -3.1382   61.1942   76.0684 H   0  0  0  0  0  0  0  0  0  0  0  0
   -3.2537   60.1577   73.8039 H   0  0  0  0  0  0  0  0  0  0  0  0
   -1.5586   60.7435   72.0723 H   0  0  0  0  0  0  0  0  0  0  0  0
    3.9939   63.2633   72.3757 H   0  0  0  0  0  0  0  0  0  0  0  0
    5.5101   63.9742   70.5308 H   0  0  0  0  0  0  0  0  0  0  0  0
    4.9958   63.3423   68.1738 H   0  0  0  0  0  0  0  0  0  0  0  0
    2.9615   61.9915   67.6615 H   0  0  0  0  0  0  0  0  0  0  0  0
    1.4381   61.2795   69.4999 H   0  0  0  0  0  0  0  0  0  0  0  0
    3.0550   57.2026   77.4276 H   0  0  0  0  0  0  0  0  0  0  0  0
    1.5707   57.8685   76.7064 H   0  0  0  0  0  0  0  0  0  0  0  0
    2.4568   55.0632   75.9357 H   0  0  0  0  0  0  0  0  0  0  0  0
    1.6591   55.3454   77.5461 H   0  0  0  0  0  0  0  0  0  0  0  0
   -0.1098   54.9781   76.4148 H   0  0  0  0  0  0  0  0  0  0  0  0
   -1.9157   58.0595   75.0000 H   0  0  0  0  0  0  0  0  0  0  0  0
   -0.3303   58.0462   74.1556 H   0  0  0  0  0  0  0  0  0  0  0  0
   -1.3602   56.5746   74.1556 H   0  0  0  0  0  0  0  0  0  0  0  0
    0.3358   57.7549   76.3465 H   0  0  0  0  0  0  0  0  0  0  0  0
   -1.1631   56.7878   76.7506 H   0  0  0  0  0  0  0  0  0  0  0  0
   -0.4386   54.2597   74.4969 H   0  0  0  0  0  0  0  0  0  0  0  0
    0.0727   55.8661   73.7768 H   0  0  0  0  0  0  0  0  0  0  0  0
    2.2437   54.1597   74.8487 H   0  0  0  0  0  0  0  0  0  0  0  0
    1.4105   53.5567   73.3760 H   0  0  0  0  0  0  0  0  0  0  0  0
    2.1680   55.1854   73.3760 H   0  0  0  0  0  0  0  0  0  0  0  0
  2  1  2  0
  3  2  1  0
  4  3  2  0
  5  4  1  0
  6  5  2  0
  6  1  1  0
  7  4  1  0
  8  7  2  0
  9  8  1  0
 10  8  1  0
 11 10  2  0
 12 11  1  0
 13 12  2  0
 14 13  1  0
 15 14  2  0
 15 10  1  0
 16  7  1  0
 17 16  2  0
 18 17  1  0
 19 18  2  0
 20 19  1  0
 21 20  2  0
 21 16  1  0
 22  1  1  0
 23 22  1  0
 24 23  1  0
 25 24  1  0
 27 26  1  0
 27 25  1  0
 28 25  1  0
 29 28  1  0
  2 30  1  0
  3 31  1  0
  5 32  1  0
  6 33  1  0
 11 34  1  0
 12 35  1  0
 13 36  1  0
 14 37  1  0
 15 38  1  0
 17 39  1  0
 18 40  1  0
 19 41  1  0
 20 42  1  0
 21 43  1  0
 23 44  1  0
 23 45  1  0
 24 46  1  0
 24 47  1  0
 25 48  1  0
 26 49  1  0
 26 50  1  0
 26 51  1  0
 27 52  1  0
 27 53  1  0
 28 54  1  0
 28 55  1  0
 29 56  1  0
 29 57  1  0
 29 58  1  0
M  CHG  1  25   1
M  END
>  <score>  (4) 
-8.543

$$$$
=
     RDKit          3D

 58 60  0  0  0  0  0  0  0  0999 V2000
   -0.7250   62.3470   74.4460 C   0  0  0  0  0  0  0  0  0  0  0  0
   -1.0420   61.5750   73.3290 C   0  0  0  0  0  0  0  0  0  0  0  0
   -0.0220   61.0410   72.5330 C   0  0  0  0  0  0  0  0  0  0  0  0
    1.3240   61.2620   72.8510 C   0  0  0  0  0  0  0  0  0  0  0  0
    1.6350   62.0480   73.9650 C   0  0  0  0  0  0  0  0  0  0  0  0
    0.6160   62.5820   74.7570 C   0  0  0  0  0  0  0  0  0  0  0  0
    2.4150   60.7060   72.0060 C   0  0  0  0  0  0  0  0  0  0  0  0
    2.8240   59.4210   72.1760 C   0  0  0  0  0  0  0  0  0  0  0  0
    4.0580   58.6880   71.1800 Cl  0  0  0  0  0  0  0  0  0  0  0  0
    2.2890   58.4970   73.1970 C   0  0  0  0  0  0  0  0  0  0  0  0
    1.3420   57.5240   72.8450 C   0  0  0  0  0  0  0  0  0  0  0  0
    0.8400   56.6460   73.8080 C   0  0  0  0  0  0  0  0  0  0  0  0
    1.2800   56.7320   75.1270 C   0  0  0  0  0  0  0  0  0  0  0  0
    2.2250   57.6920   75.4870 C   0  0  0  0  0  0  0  0  0  0  0  0
    2.7300   58.5700   74.5250 C   0  0  0  0  0  0  0  0  0  0  0  0
    3.0540   61.5600   70.9730 C   0  0  0  0  0  0  0  0  0  0  0  0
    4.1420   62.3850   71.2940 C   0  0  0  0  0  0  0  0  0  0  0  0
    4.7240   63.1960   70.3190 C   0  0  0  0  0  0  0  0  0  0  0  0
    4.2230   63.1940   69.0180 C   0  0  0  0  0  0  0  0  0  0  0  0
    3.1380   62.3800   68.6910 C   0  0  0  0  0  0  0  0  0  0  0  0
    2.5530   61.5680   69.6640 C   0  0  0  0  0  0  0  0  0  0  0  0
   -1.6180   62.9260   75.3060 O   0  0  0  0  0  0  0  0  0  0  0  0
   -2.0810   62.1340   76.3960 C   0  0  0  0  0  0  0  0  0  0  0  0
   -3.5070   61.6860   76.0550 C   0  0  0  0  0  0  0  0  0  0  0  0
   -3.6550   60.1720   76.0450 N   0  0  0  0  0  4  0  0  0  0  0  0
   -5.5470   60.7030   74.4360 C   0  0  0  0  0  0  0  0  0  0  0  0
   -4.5650   59.6660   74.9390 C   0  0  0  0  0  0  0  0  0  0  0  0
   -2.3880   59.3620   76.2480 C   0  0  0  0  0  0  0  0  0  0  0  0
   -1.9730   58.5390   75.0420 C   0  0  0  0  0  0  0  0  0  0  0  0
   -2.0949   61.3854   73.0731 H   0  0  0  0  0  0  0  0  0  0  0  0
   -0.2804   60.4411   71.6479 H   0  0  0  0  0  0  0  0  0  0  0  0
    2.6868   62.2466   74.2186 H   0  0  0  0  0  0  0  0  0  0  0  0
    0.8723   63.1938   75.6345 H   0  0  0  0  0  0  0  0  0  0  0  0
    0.9927   57.4521   71.8044 H   0  0  0  0  0  0  0  0  0  0  0  0
    0.0968   55.8861   73.5249 H   0  0  0  0  0  0  0  0  0  0  0  0
    0.8815   56.0419   75.8852 H   0  0  0  0  0  0  0  0  0  0  0  0
    2.5728   57.7580   76.5285 H   0  0  0  0  0  0  0  0  0  0  0  0
    3.4785   59.3233   74.8118 H   0  0  0  0  0  0  0  0  0  0  0  0
    4.5386   62.3927   72.3200 H   0  0  0  0  0  0  0  0  0  0  0  0
    5.5792   63.8378   70.5773 H   0  0  0  0  0  0  0  0  0  0  0  0
    4.6826   63.8335   68.2501 H   0  0  0  0  0  0  0  0  0  0  0  0
    2.7429   62.3782   67.6644 H   0  0  0  0  0  0  0  0  0  0  0  0
    1.6949   60.9315   69.4023 H   0  0  0  0  0  0  0  0  0  0  0  0
   -1.4311   61.2563   76.5273 H   0  0  0  0  0  0  0  0  0  0  0  0
   -2.0655   62.7104   77.3327 H   0  0  0  0  0  0  0  0  0  0  0  0
   -4.1964   62.1029   76.8039 H   0  0  0  0  0  0  0  0  0  0  0  0
   -3.7394   62.0513   75.0438 H   0  0  0  0  0  0  0  0  0  0  0  0
   -4.1540   59.9798   76.9253 H   0  0  0  0  0  0  0  0  0  0  0  0
   -6.0217   61.2043   75.2924 H   0  0  0  0  0  0  0  0  0  0  0  0
   -5.0142   61.4466   73.8251 H   0  0  0  0  0  0  0  0  0  0  0  0
   -6.3185   60.2115   73.8251 H   0  0  0  0  0  0  0  0  0  0  0  0
   -5.1340   58.8067   75.3235 H   0  0  0  0  0  0  0  0  0  0  0  0
   -3.9196   59.3963   74.0901 H   0  0  0  0  0  0  0  0  0  0  0  0
   -1.5699   60.0567   76.4891 H   0  0  0  0  0  0  0  0  0  0  0  0
   -2.5964   58.6491   77.0593 H   0  0  0  0  0  0  0  0  0  0  0  0
   -1.5017   57.6044   75.3804 H   0  0  0  0  0  0  0  0  0  0  0  0
   -2.8602   58.3037   74.4358 H   0  0  0  0  0  0  0  0  0  0  0  0
   -1.2563   59.1125   74.4358 H   0  0  0  0  0  0  0  0  0  0  0  0
  2  1  2  0
  3  2  1  0
  4  3  2  0
  5  4  1  0
  6  5  2  0
  6  1  1  0
  7  4  1  0
  8  7  2  0
  9  8  1  0
 10  8  1  0
 11 10  2  0
 12 11  1  0
 13 12  2  0
 14 13  1  0
 15 14  2  0
 15 10  1  0
 16  7  1  0
 17 16  2  0
 18 17  1  0
 19 18  2  0
 20 19  1  0
 21 20  2  0
 21 16  1  0
 22  1  1  0
 23 22  1  0
 24 23  1  0
 25 24  1  0
 27 26  1  0
 27 25  1  0
 28 25  1  0
 29 28  1  0
  2 30  1  0
  3 31  1  0
  5 32  1  0
  6 33  1  0
 11 34  1  0
 12 35  1  0
 13 36  1  0
 14 37  1  0
 15 38  1  0
 17 39  1  0
 18 40  1  0
 19 41  1  0
 20 42  1  0
 21 43  1  0
 23 44  1  0
 23 45  1  0
 24 46  1  0
 24 47  1  0
 25 48  1  0
 26 49  1  0
 26 50  1  0
 26 51  1  0
 27 52  1  0
 27 53  1  0
 28 54  1  0
 28 55  1  0
 29 56  1  0
 29 57  1  0
 29 58  1  0
M  CHG  1  25   1
M  END
>  <score>  (5) 
-8.485

$$$$
=
     RDKit          3D

 58 60  0  0  0  0  0  0  0  0999 V2000
   -0.7530   62.2610   74.4810 C   0  0  0  0  0  0  0  0  0  0  0  0
    0.5790   62.4470   74.8500 C   0  0  0  0  0  0  0  0  0  0  0  0
    1.6060   61.9450   74.0430 C   0  0  0  0  0  0  0  0  0  0  0  0
    1.3160   61.2620   72.8560 C   0  0  0  0  0  0  0  0  0  0  0  0
   -0.0230   61.0660   72.4980 C   0  0  0  0  0  0  0  0  0  0  0  0
   -1.0470   61.5670   73.3050 C   0  0  0  0  0  0  0  0  0  0  0  0
    2.4000   60.7170   71.9950 C   0  0  0  0  0  0  0  0  0  0  0  0
    2.8130   59.4310   72.1450 C   0  0  0  0  0  0  0  0  0  0  0  0
    4.0370   58.7110   71.1300 Cl  0  0  0  0  0  0  0  0  0  0  0  0
    2.2880   58.4940   73.1600 C   0  0  0  0  0  0  0  0  0  0  0  0
    1.3700   57.4970   72.7970 C   0  0  0  0  0  0  0  0  0  0  0  0
    0.8780   56.6070   73.7540 C   0  0  0  0  0  0  0  0  0  0  0  0
    1.2990   56.7040   75.0790 C   0  0  0  0  0  0  0  0  0  0  0  0
    2.2140   57.6880   75.4500 C   0  0  0  0  0  0  0  0  0  0  0  0
    2.7090   58.5790   74.4950 C   0  0  0  0  0  0  0  0  0  0  0  0
    3.0290   61.5840   70.9660 C   0  0  0  0  0  0  0  0  0  0  0  0
    2.5580   61.5880   69.6450 C   0  0  0  0  0  0  0  0  0  0  0  0
    3.1670   62.3940   68.6820 C   0  0  0  0  0  0  0  0  0  0  0  0
    4.2510   63.1990   69.0290 C   0  0  0  0  0  0  0  0  0  0  0  0
    4.7290   63.1980   70.3400 C   0  0  0  0  0  0  0  0  0  0  0  0
    4.1230   62.3920   71.3050 C   0  0  0  0  0  0  0  0  0  0  0  0
   -1.8490   62.6970   75.1730 O   0  0  0  0  0  0  0  0  0  0  0  0
   -2.3340   61.8620   76.2210 C   0  0  0  0  0  0  0  0  0  0  0  0
   -3.7700   61.4660   75.8560 C   0  0  0  0  0  0  0  0  0  0  0  0
   -3.8490   60.0880   75.2170 N   0  0  0  0  0  4  0  0  0  0  0  0
   -1.9420   58.4650   74.7890 C   0  0  0  0  0  0  0  0  0  0  0  0
   -2.8630   59.0950   75.8110 C   0  0  0  0  0  0  0  0  0  0  0  0
   -5.2370   59.5330   74.9630 C   0  0  0  0  0  0  0  0  0  0  0  0
   -6.1190   60.4230   74.1060 C   0  0  0  0  0  0  0  0  0  0  0  0
    0.8224   62.9886   75.7760 H   0  0  0  0  0  0  0  0  0  0  0  0
    2.6539   62.0888   74.3450 H   0  0  0  0  0  0  0  0  0  0  0  0
   -0.2696   60.5156   71.5781 H   0  0  0  0  0  0  0  0  0  0  0  0
   -2.0959   61.4134   73.0114 H   0  0  0  0  0  0  0  0  0  0  0  0
    1.0358   57.4159   71.7521 H   0  0  0  0  0  0  0  0  0  0  0  0
    0.1576   55.8288   73.4618 H   0  0  0  0  0  0  0  0  0  0  0  0
    0.9091   56.0037   75.8324 H   0  0  0  0  0  0  0  0  0  0  0  0
    2.5465   57.7629   76.4959 H   0  0  0  0  0  0  0  0  0  0  0  0
    3.4333   59.3519   74.7918 H   0  0  0  0  0  0  0  0  0  0  0  0
    1.7043   60.9527   69.3665 H   0  0  0  0  0  0  0  0  0  0  0  0
    2.7913   62.3941   67.6482 H   0  0  0  0  0  0  0  0  0  0  0  0
    4.7294   63.8348   68.2695 H   0  0  0  0  0  0  0  0  0  0  0  0
    5.5845   63.8332   70.6133 H   0  0  0  0  0  0  0  0  0  0  0  0
    4.5057   62.3909   72.3363 H   0  0  0  0  0  0  0  0  0  0  0  0
   -1.7057   60.9633   76.3085 H   0  0  0  0  0  0  0  0  0  0  0  0
   -2.3072   62.3900   77.1856 H   0  0  0  0  0  0  0  0  0  0  0  0
   -4.3796   61.4658   76.7717 H   0  0  0  0  0  0  0  0  0  0  0  0
   -4.1423   62.1966   75.1228 H   0  0  0  0  0  0  0  0  0  0  0  0
   -3.5272   60.2576   74.2534 H   0  0  0  0  0  0  0  0  0  0  0  0
   -1.1407   57.9169   75.3061 H   0  0  0  0  0  0  0  0  0  0  0  0
   -2.5150   57.7688   74.1590 H   0  0  0  0  0  0  0  0  0  0  0  0
   -1.5008   59.2514   74.1590 H   0  0  0  0  0  0  0  0  0  0  0  0
   -3.4324   58.2941   76.3054 H   0  0  0  0  0  0  0  0  0  0  0  0
   -2.2279   59.6546   76.5135 H   0  0  0  0  0  0  0  0  0  0  0  0
   -5.1323   58.5620   74.4569 H   0  0  0  0  0  0  0  0  0  0  0  0
   -5.7285   59.4534   75.9438 H   0  0  0  0  0  0  0  0  0  0  0  0
   -6.7442   61.0538   74.7550 H   0  0  0  0  0  0  0  0  0  0  0  0
   -5.4880   61.0623   73.4710 H   0  0  0  0  0  0  0  0  0  0  0  0
   -6.7639   59.7978   73.4710 H   0  0  0  0  0  0  0  0  0  0  0  0
  2  1  2  0
  3  2  1  0
  4  3  2  0
  5  4  1  0
  6  5  2  0
  6  1  1  0
  7  4  1  0
  8  7  2  0
  9  8  1  0
 10  8  1  0
 11 10  2  0
 12 11  1  0
 13 12  2  0
 14 13  1  0
 15 14  2  0
 15 10  1  0
 16  7  1  0
 17 16  2  0
 18 17  1  0
 19 18  2  0
 20 19  1  0
 21 20  2  0
 21 16  1  0
 22  1  1  0
 23 22  1  0
 24 23  1  0
 25 24  1  0
 27 26  1  0
 27 25  1  0
 28 25  1  0
 29 28  1  0
  2 30  1  0
  3 31  1  0
  5 32  1  0
  6 33  1  0
 11 34  1  0
 12 35  1  0
 13 36  1  0
 14 37  1  0
 15 38  1  0
 17 39  1  0
 18 40  1  0
 19 41  1  0
 20 42  1  0
 21 43  1  0
 23 44  1  0
 23 45  1  0
 24 46  1  0
 24 47  1  0
 25 48  1  0
 26 49  1  0
 26 50  1  0
 26 51  1  0
 27 52  1  0
 27 53  1  0
 28 54  1  0
 28 55  1  0
 29 56  1  0
 29 57  1  0
 29 58  1  0
M  CHG  1  25   1
M  END
>  <score>  (6) 
-8.422

$$$$
=
     RDKit          3D

 58 60  0  0  0  0  0  0  0  0999 V2000
    2.5920   58.3340   74.6240 C   0  0  0  0  0  0  0  0  0  0  0  0
    1.8910   58.1640   73.4300 C   0  0  0  0  0  0  0  0  0  0  0  0
    1.5820   59.2740   72.6350 C   0  0  0  0  0  0  0  0  0  0  0  0
    1.9770   60.5620   73.0180 C   0  0  0  0  0  0  0  0  0  0  0  0
    2.6680   60.7270   74.2230 C   0  0  0  0  0  0  0  0  0  0  0  0
    2.9740   59.6190   75.0160 C   0  0  0  0  0  0  0  0  0  0  0  0
    1.6460   61.7490   72.1840 C   0  0  0  0  0  0  0  0  0  0  0  0
    0.4990   62.4430   72.4060 C   0  0  0  0  0  0  0  0  0  0  0  0
    0.0790   63.8780   71.5050 Cl  0  0  0  0  0  0  0  0  0  0  0  0
   -0.5170   62.0850   73.4180 C   0  0  0  0  0  0  0  0  0  0  0  0
   -1.5870   61.2440   73.0820 C   0  0  0  0  0  0  0  0  0  0  0  0
   -2.5440   60.9000   74.0390 C   0  0  0  0  0  0  0  0  0  0  0  0
   -2.4400   61.3930   75.3380 C   0  0  0  0  0  0  0  0  0  0  0  0
   -1.3770   62.2260   75.6850 C   0  0  0  0  0  0  0  0  0  0  0  0
   -0.4170   62.5700   74.7300 C   0  0  0  0  0  0  0  0  0  0  0  0
    2.5770   62.1760   71.1090 C   0  0  0  0  0  0  0  0  0  0  0  0
    2.3880   61.7540   69.7850 C   0  0  0  0  0  0  0  0  0  0  0  0
    3.2790   62.1480   68.7860 C   0  0  0  0  0  0  0  0  0  0  0  0
    4.3670   62.9610   69.1010 C   0  0  0  0  0  0  0  0  0  0  0  0
    4.5660   63.3810   70.4160 C   0  0  0  0  0  0  0  0  0  0  0  0
    3.6770   62.9880   71.4180 C   0  0  0  0  0  0  0  0  0  0  0  0
    2.9580   57.3420   75.4920 O   0  0  0  0  0  0  0  0  0  0  0  0
    2.6030   56.0070   75.1430 C   0  0  0  0  0  0  0  0  0  0  0  0
    1.5690   55.5320   76.1720 C   0  0  0  0  0  0  0  0  0  0  0  0
    0.1440   55.6220   75.6480 N   0  0  0  0  0  4  0  0  0  0  0  0
   -0.0580   53.6100   74.1100 C   0  0  0  0  0  0  0  0  0  0  0  0
   -0.4920   54.2630   75.4050 C   0  0  0  0  0  0  0  0  0  0  0  0
   -0.7630   56.6400   76.3130 C   0  0  0  0  0  0  0  0  0  0  0  0
   -1.0250   57.8820   75.4810 C   0  0  0  0  0  0  0  0  0  0  0  0
    1.5809   57.1573   73.1131 H   0  0  0  0  0  0  0  0  0  0  0  0
    1.0224   59.1330   71.6985 H   0  0  0  0  0  0  0  0  0  0  0  0
    2.9715   61.7334   74.5472 H   0  0  0  0  0  0  0  0  0  0  0  0
    3.5218   59.7598   75.9595 H   0  0  0  0  0  0  0  0  0  0  0  0
   -1.6734   60.8524   72.0577 H   0  0  0  0  0  0  0  0  0  0  0  0
   -3.3805   60.2394   73.7671 H   0  0  0  0  0  0  0  0  0  0  0  0
   -3.1967   61.1250   76.0900 H   0  0  0  0  0  0  0  0  0  0  0  0
   -1.2942   62.6126   76.7115 H   0  0  0  0  0  0  0  0  0  0  0  0
    0.4218   63.2248   75.0087 H   0  0  0  0  0  0  0  0  0  0  0  0
    1.5332   61.1093   69.5328 H   0  0  0  0  0  0  0  0  0  0  0  0
    3.1228   61.8168   67.7487 H   0  0  0  0  0  0  0  0  0  0  0  0
    5.0684   63.2712   68.3124 H   0  0  0  0  0  0  0  0  0  0  0  0
    5.4244   64.0226   70.6639 H   0  0  0  0  0  0  0  0  0  0  0  0
    3.8405   63.3171   72.4548 H   0  0  0  0  0  0  0  0  0  0  0  0
    2.1683   55.9839   74.1328 H   0  0  0  0  0  0  0  0  0  0  0  0
    3.4875   55.3530   75.1459 H   0  0  0  0  0  0  0  0  0  0  0  0
    1.7843   54.4849   76.4313 H   0  0  0  0  0  0  0  0  0  0  0  0
    1.6448   56.1893   77.0507 H   0  0  0  0  0  0  0  0  0  0  0  0
    0.2628   56.0441   74.7160 H   0  0  0  0  0  0  0  0  0  0  0  0
    0.5382   52.7130   74.3335 H   0  0  0  0  0  0  0  0  0  0  0  0
   -0.9464   53.3241   73.5278 H   0  0  0  0  0  0  0  0  0  0  0  0
    0.5496   54.3184   73.5278 H   0  0  0  0  0  0  0  0  0  0  0  0
   -1.5843   54.3903   75.3805 H   0  0  0  0  0  0  0  0  0  0  0  0
   -0.1641   53.6042   76.2225 H   0  0  0  0  0  0  0  0  0  0  0  0
   -1.7283   56.1561   76.5227 H   0  0  0  0  0  0  0  0  0  0  0  0
   -0.2454   56.9750   77.2240 H   0  0  0  0  0  0  0  0  0  0  0  0
   -1.2056   58.7383   76.1474 H   0  0  0  0  0  0  0  0  0  0  0  0
   -0.1508   58.0893   74.8463 H   0  0  0  0  0  0  0  0  0  0  0  0
   -1.9084   57.7185   74.8463 H   0  0  0  0  0  0  0  0  0  0  0  0
  2  1  2  0
  3  2  1  0
  4  3  2  0
  5  4  1  0
  6  5  2  0
  6  1  1  0
  7  4  1  0
  8  7  2  0
  9  8  1  0
 10  8  1  0
 11 10  2  0
 12 11  1  0
 13 12  2  0
 14 13  1  0
 15 14  2  0
 15 10  1  0
 16  7  1  0
 17 16  2  0
 18 17  1  0
 19 18  2  0
 20 19  1  0
 21 20  2  0
 21 16  1  0
 22  1  1  0
 23 22  1  0
 24 23  1  0
 25 24  1  0
 27 26  1  0
 27 25  1  0
 28 25  1  0
 29 28  1  0
  2 30  1  0
  3 31  1  0
  5 32  1  0
  6 33  1  0
 11 34  1  0
 12 35  1  0
 13 36  1  0
 14 37  1  0
 15 38  1  0
 17 39  1  0
 18 40  1  0
 19 41  1  0
 20 42  1  0
 21 43  1  0
 23 44  1  0
 23 45  1  0
 24 46  1  0
 24 47  1  0
 25 48  1  0
 26 49  1  0
 26 50  1  0
 26 51  1  0
 27 52  1  0
 27 53  1  0
 28 54  1  0
 28 55  1  0
 29 56  1  0
 29 57  1  0
 29 58  1  0
M  CHG  1  25   1
M  END
>  <score>  (7) 
-8.324

$$$$
=
     RDKit          3D

 58 60  0  0  0  0  0  0  0  0999 V2000
    3.7560   59.1080   72.5670 C   0  0  0  0  0  0  0  0  0  0  0  0
    2.8170   58.3890   71.8280 C   0  0  0  0  0  0  0  0  0  0  0  0
    1.7810   57.7100   72.4810 C   0  0  0  0  0  0  0  0  0  0  0  0
    1.6660   57.7520   73.8760 C   0  0  0  0  0  0  0  0  0  0  0  0
    2.6190   58.4640   74.6120 C   0  0  0  0  0  0  0  0  0  0  0  0
    3.6530   59.1390   73.9590 C   0  0  0  0  0  0  0  0  0  0  0  0
    0.5740   57.0270   74.5800 C   0  0  0  0  0  0  0  0  0  0  0  0
   -0.5210   57.7010   75.0210 C   0  0  0  0  0  0  0  0  0  0  0  0
   -1.8650   56.9040   75.8010 Cl  0  0  0  0  0  0  0  0  0  0  0  0
   -0.7150   59.1610   74.8980 C   0  0  0  0  0  0  0  0  0  0  0  0
   -0.2470   60.0250   75.8980 C   0  0  0  0  0  0  0  0  0  0  0  0
   -0.4250   61.4050   75.7800 C   0  0  0  0  0  0  0  0  0  0  0  0
   -1.0700   61.9320   74.6630 C   0  0  0  0  0  0  0  0  0  0  0  0
   -1.5350   61.0830   73.6600 C   0  0  0  0  0  0  0  0  0  0  0  0
   -1.3570   59.7020   73.7750 C   0  0  0  0  0  0  0  0  0  0  0  0
    0.6820   55.5620   74.7950 C   0  0  0  0  0  0  0  0  0  0  0  0
    1.4270   55.0460   75.8660 C   0  0  0  0  0  0  0  0  0  0  0  0
    1.5360   53.6670   76.0480 C   0  0  0  0  0  0  0  0  0  0  0  0
    0.9060   52.7930   75.1630 C   0  0  0  0  0  0  0  0  0  0  0  0
    0.1670   53.2970   74.0930 C   0  0  0  0  0  0  0  0  0  0  0  0
    0.0570   54.6760   73.9070 C   0  0  0  0  0  0  0  0  0  0  0  0
    4.8130   59.8130   72.0590 O   0  0  0  0  0  0  0  0  0  0  0  0
    4.9960   61.1440   72.5330 C   0  0  0  0  0  0  0  0  0  0  0  0
    5.0120   62.0620   71.3050 C   0  0  0  0  0  0  0  0  0  0  0  0
    3.6340   62.6170   70.9760 N   0  0  0  0  0  4  0  0  0  0  0  0
    3.7380   62.8430   68.4480 C   0  0  0  0  0  0  0  0  0  0  0  0
    3.1040   62.1450   69.6330 C   0  0  0  0  0  0  0  0  0  0  0  0
    2.6140   62.6170   72.0990 C   0  0  0  0  0  0  0  0  0  0  0  0
    1.3660   61.8020   71.8100 C   0  0  0  0  0  0  0  0  0  0  0  0
    2.8903   58.3552   70.7310 H   0  0  0  0  0  0  0  0  0  0  0  0
    1.0496   57.1374   71.8918 H   0  0  0  0  0  0  0  0  0  0  0  0
    2.5538   58.4924   75.7097 H   0  0  0  0  0  0  0  0  0  0  0  0
    4.3935   59.7006   74.5474 H   0  0  0  0  0  0  0  0  0  0  0  0
    0.2636   59.6133   76.7811 H   0  0  0  0  0  0  0  0  0  0  0  0
   -0.0558   62.0764   76.5693 H   0  0  0  0  0  0  0  0  0  0  0  0
   -1.2124   63.0190   74.5726 H   0  0  0  0  0  0  0  0  0  0  0  0
   -2.0422   61.5004   72.7777 H   0  0  0  0  0  0  0  0  0  0  0  0
   -1.7226   59.0354   72.9800 H   0  0  0  0  0  0  0  0  0  0  0  0
    1.9275   55.7318   76.5654 H   0  0  0  0  0  0  0  0  0  0  0  0
    2.1198   53.2687   76.8909 H   0  0  0  0  0  0  0  0  0  0  0  0
    0.9918   51.7061   75.3087 H   0  0  0  0  0  0  0  0  0  0  0  0
   -0.3297   52.6071   73.3949 H   0  0  0  0  0  0  0  0  0  0  0  0
   -0.5231   55.0693   73.0592 H   0  0  0  0  0  0  0  0  0  0  0  0
    4.1688   61.4233   73.2021 H   0  0  0  0  0  0  0  0  0  0  0  0
    5.9346   61.2321   73.0998 H   0  0  0  0  0  0  0  0  0  0  0  0
    5.6935   62.9028   71.5017 H   0  0  0  0  0  0  0  0  0  0  0  0
    5.3463   61.4641   70.4444 H   0  0  0  0  0  0  0  0  0  0  0  0
    3.8068   63.6266   70.8679 H   0  0  0  0  0  0  0  0  0  0  0  0
    4.4371   63.6127   68.8068 H   0  0  0  0  0  0  0  0  0  0  0  0
    4.2835   62.1078   67.8382 H   0  0  0  0  0  0  0  0  0  0  0  0
    2.9539   63.3155   67.8382 H   0  0  0  0  0  0  0  0  0  0  0  0
    2.0197   62.3277   69.6041 H   0  0  0  0  0  0  0  0  0  0  0  0
    3.3525   61.0769   69.5472 H   0  0  0  0  0  0  0  0  0  0  0  0
    3.0932   62.2055   72.9996 H   0  0  0  0  0  0  0  0  0  0  0  0
    2.2867   63.6593   72.2270 H   0  0  0  0  0  0  0  0  0  0  0  0
    0.8993   61.4972   72.7583 H   0  0  0  0  0  0  0  0  0  0  0  0
    0.6562   62.4111   71.2311 H   0  0  0  0  0  0  0  0  0  0  0  0
    1.6383   60.9072   71.2311 H   0  0  0  0  0  0  0  0  0  0  0  0
  2  1  2  0
  3  2  1  0
  4  3  2  0
  5  4  1  0
  6  5  2  0
  6  1  1  0
  7  4  1  0
  8  7  2  0
  9  8  1  0
 10  8  1  0
 11 10  2  0
 12 11  1  0
 13 12  2  0
 14 13  1  0
 15 14  2  0
 15 10  1  0
 16  7  1  0
 17 16  2  0
 18 17  1  0
 19 18  2  0
 20 19  1  0
 21 20  2  0
 21 16  1  0
 22  1  1  0
 23 22  1  0
 24 23  1  0
 25 24  1  0
 27 26  1  0
 27 25  1  0
 28 25  1  0
 29 28  1  0
  2 30  1  0
  3 31  1  0
  5 32  1  0
  6 33  1  0
 11 34  1  0
 12 35  1  0
 13 36  1  0
 14 37  1  0
 15 38  1  0
 17 39  1  0
 18 40  1  0
 19 41  1  0
 20 42  1  0
 21 43  1  0
 23 44  1  0
 23 45  1  0
 24 46  1  0
 24 47  1  0
 25 48  1  0
 26 49  1  0
 26 50  1  0
 26 51  1  0
 27 52  1  0
 27 53  1  0
 28 54  1  0
 28 55  1  0
 29 56  1  0
 29 57  1  0
 29 58  1  0
M  CHG  1  25   1
M  END
>  <score>  (8) 
-8.281

$$$$
=
     RDKit          3D

 58 60  0  0  0  0  0  0  0  0999 V2000
   -0.6990   62.5510   74.4830 C   0  0  0  0  0  0  0  0  0  0  0  0
   -1.0470   61.7200   73.4180 C   0  0  0  0  0  0  0  0  0  0  0  0
   -0.0480   61.1340   72.6320 C   0  0  0  0  0  0  0  0  0  0  0  0
    1.3060   61.3620   72.9060 C   0  0  0  0  0  0  0  0  0  0  0  0
    1.6470   62.2070   73.9670 C   0  0  0  0  0  0  0  0  0  0  0  0
    0.6500   62.7930   74.7500 C   0  0  0  0  0  0  0  0  0  0  0  0
    2.3740   60.7500   72.0710 C   0  0  0  0  0  0  0  0  0  0  0  0
    2.7290   59.4510   72.2560 C   0  0  0  0  0  0  0  0  0  0  0  0
    3.9320   58.6550   71.2720 Cl  0  0  0  0  0  0  0  0  0  0  0  0
    2.1540   58.5630   73.2880 C   0  0  0  0  0  0  0  0  0  0  0  0
    1.1050   57.6900   72.9660 C   0  0  0  0  0  0  0  0  0  0  0  0
    0.5640   56.8450   73.9380 C   0  0  0  0  0  0  0  0  0  0  0  0
    1.0670   56.8650   75.2370 C   0  0  0  0  0  0  0  0  0  0  0  0
    2.1140   57.7260   75.5670 C   0  0  0  0  0  0  0  0  0  0  0  0
    2.6570   58.5700   74.5960 C   0  0  0  0  0  0  0  0  0  0  0  0
    3.0500   61.5640   71.0280 C   0  0  0  0  0  0  0  0  0  0  0  0
    4.1240   62.4030   71.3560 C   0  0  0  0  0  0  0  0  0  0  0  0
    4.7410   63.1760   70.3720 C   0  0  0  0  0  0  0  0  0  0  0  0
    4.2880   63.1210   69.0540 C   0  0  0  0  0  0  0  0  0  0  0  0
    3.2170   62.2920   68.7200 C   0  0  0  0  0  0  0  0  0  0  0  0
    2.5970   61.5180   69.7030 C   0  0  0  0  0  0  0  0  0  0  0  0
   -1.5680   63.1850   75.3280 O   0  0  0  0  0  0  0  0  0  0  0  0
   -1.7420   62.6240   76.6260 C   0  0  0  0  0  0  0  0  0  0  0  0
   -3.2490   62.5970   76.9080 C   0  0  0  0  0  0  0  0  0  0  0  0
   -3.9830   63.7640   76.2650 N   0  0  0  0  0  4  0  0  0  0  0  0
   -6.3380   64.5000   75.6600 C   0  0  0  0  0  0  0  0  0  0  0  0
   -5.3260   63.3730   75.6730 C   0  0  0  0  0  0  0  0  0  0  0  0
   -3.9800   65.0740   77.0290 C   0  0  0  0  0  0  0  0  0  0  0  0
   -3.2020   66.1900   76.3540 C   0  0  0  0  0  0  0  0  0  0  0  0
   -2.1066   61.5252   73.1959 H   0  0  0  0  0  0  0  0  0  0  0  0
   -0.3301   60.4864   71.7887 H   0  0  0  0  0  0  0  0  0  0  0  0
    2.7055   62.4110   74.1858 H   0  0  0  0  0  0  0  0  0  0  0  0
    0.9302   63.4517   75.5852 H   0  0  0  0  0  0  0  0  0  0  0  0
    0.7055   57.6704   71.9413 H   0  0  0  0  0  0  0  0  0  0  0  0
   -0.2594   56.1636   73.6776 H   0  0  0  0  0  0  0  0  0  0  0  0
    0.6385   56.2017   76.0028 H   0  0  0  0  0  0  0  0  0  0  0  0
    2.5119   57.7400   76.5924 H   0  0  0  0  0  0  0  0  0  0  0  0
    3.4849   59.2447   74.8595 H   0  0  0  0  0  0  0  0  0  0  0  0
    4.4823   62.4522   72.3949 H   0  0  0  0  0  0  0  0  0  0  0  0
    5.5856   63.8295   70.6359 H   0  0  0  0  0  0  0  0  0  0  0  0
    4.7748   63.7308   68.2786 H   0  0  0  0  0  0  0  0  0  0  0  0
    2.8602   62.2479   67.6804 H   0  0  0  0  0  0  0  0  0  0  0  0
    1.7495   60.8695   69.4360 H   0  0  0  0  0  0  0  0  0  0  0  0
   -1.3348   61.6025   76.6531 H   0  0  0  0  0  0  0  0  0  0  0  0
   -1.2128   63.2201   77.3840 H   0  0  0  0  0  0  0  0  0  0  0  0
   -3.6649   61.6582   76.5135 H   0  0  0  0  0  0  0  0  0  0  0  0
   -3.3868   62.6745   77.9966 H   0  0  0  0  0  0  0  0  0  0  0  0
   -3.3848   64.0046   75.4618 H   0  0  0  0  0  0  0  0  0  0  0  0
   -6.5889   64.7794   76.6939 H   0  0  0  0  0  0  0  0  0  0  0  0
   -5.9117   65.3696   75.1383 H   0  0  0  0  0  0  0  0  0  0  0  0
   -7.2483   64.1694   75.1383 H   0  0  0  0  0  0  0  0  0  0  0  0
   -5.7382   62.5431   76.2658 H   0  0  0  0  0  0  0  0  0  0  0  0
   -5.1453   63.0916   74.6251 H   0  0  0  0  0  0  0  0  0  0  0  0
   -5.0221   65.4048   77.1495 H   0  0  0  0  0  0  0  0  0  0  0  0
   -3.4798   64.8775   77.9888 H   0  0  0  0  0  0  0  0  0  0  0  0
   -2.7506   66.8376   77.1201 H   0  0  0  0  0  0  0  0  0  0  0  0
   -2.4092   65.7567   75.7265 H   0  0  0  0  0  0  0  0  0  0  0  0
   -3.8827   66.7840   75.7265 H   0  0  0  0  0  0  0  0  0  0  0  0
  2  1  2  0
  3  2  1  0
  4  3  2  0
  5  4  1  0
  6  5  2  0
  6  1  1  0
  7  4  1  0
  8  7  2  0
  9  8  1  0
 10  8  1  0
 11 10  2  0
 12 11  1  0
 13 12  2  0
 14 13  1  0
 15 14  2  0
 15 10  1  0
 16  7  1  0
 17 16  2  0
 18 17  1  0
 19 18  2  0
 20 19  1  0
 21 20  2  0
 21 16  1  0
 22  1  1  0
 23 22  1  0
 24 23  1  0
 25 24  1  0
 27 26  1  0
 27 25  1  0
 28 25  1  0
 29 28  1  0
  2 30  1  0
  3 31  1  0
  5 32  1  0
  6 33  1  0
 11 34  1  0
 12 35  1  0
 13 36  1  0
 14 37  1  0
 15 38  1  0
 17 39  1  0
 18 40  1  0
 19 41  1  0
 20 42  1  0
 21 43  1  0
 23 44  1  0
 23 45  1  0
 24 46  1  0
 24 47  1  0
 25 48  1  0
 26 49  1  0
 26 50  1  0
 26 51  1  0
 27 52  1  0
 27 53  1  0
 28 54  1  0
 28 55  1  0
 29 56  1  0
 29 57  1  0
 29 58  1  0
M  CHG  1  25   1
M  END
>  <score>  (9) 
-8.172

$$$$
