=
     RDKit          3D

 39 40  0  0  0  0  0  0  0  0999 V2000
    0.8310   67.8300   67.7920 C   0  0  0  0  0  0  0  0  0  0  0  0
    0.0310   67.4510   66.5430 C   0  0  0  0  0  0  0  0  0  0  0  0
    2.4310   68.0410   63.0600 C   0  0  0  0  0  0  0  0  0  0  0  0
    1.3510   68.8840   63.3310 C   0  0  0  0  0  0  0  0  0  0  0  0
    0.5770   68.6770   64.4690 C   0  0  0  0  0  0  0  0  0  0  0  0
    0.8610   67.6620   65.3200 N   0  0  0  0  0  4  0  0  0  0  0  0
    1.9280   66.8540   65.0840 C   0  0  0  0  0  0  0  0  0  0  0  0
    2.7330   67.0180   63.9570 C   0  0  0  0  0  0  0  0  0  0  0  0
    4.0660   65.9380   63.8180 Cl  0  0  0  0  0  0  0  0  0  0  0  0
    2.6810   69.0340   60.8570 N   0  0  0  0  0  0  0  0  0  0  0  0
    3.1660   68.3090   61.8070 C   0  0  0  0  0  0  0  0  0  0  0  0
    3.6260   69.1160   59.8300 O   0  0  0  0  0  0  0  0  0  0  0  0
    0.9970   69.3430   67.9940 C   0  0  0  0  0  0  0  0  0  0  0  0
    2.4300   69.7440   67.9750 N   0  0  0  0  0  4  0  0  0  0  0  0
    3.2110   69.4240   66.9140 C   0  0  0  0  0  0  0  0  0  0  0  0
    4.5430   69.8020   66.8770 C   0  0  0  0  0  0  0  0  0  0  0  0
    5.0950   70.4840   67.9600 C   0  0  0  0  0  0  0  0  0  0  0  0
    4.3010   70.7610   69.0690 C   0  0  0  0  0  0  0  0  0  0  0  0
    2.9670   70.3700   69.0560 C   0  0  0  0  0  0  0  0  0  0  0  0
    6.4960   70.9510   67.8450 C   0  0  0  0  0  0  0  0  0  0  0  0
    6.9470   71.6990   68.6980 O   0  0  0  0  0  0  0  0  0  0  0  0
    7.2320   70.5230   66.7830 N   0  0  0  0  0  0  0  0  0  0  0  0
    0.3141   67.4186   68.6715 H   0  0  0  0  0  0  0  0  0  0  0  0
    1.8410   67.4145   67.6604 H   0  0  0  0  0  0  0  0  0  0  0  0
   -0.2623   66.3927   66.6058 H   0  0  0  0  0  0  0  0  0  0  0  0
   -0.8663   68.0845   66.4835 H   0  0  0  0  0  0  0  0  0  0  0  0
    1.1124   69.7107   62.6457 H   0  0  0  0  0  0  0  0  0  0  0  0
   -0.2726   69.3433   64.6792 H   0  0  0  0  0  0  0  0  0  0  0  0
    2.1623   66.0515   65.7989 H   0  0  0  0  0  0  0  0  0  0  0  0
    4.1676   67.8725   61.6790 H   0  0  0  0  0  0  0  0  0  0  0  0
    3.4246   69.6367   59.0125 H   0  0  0  0  0  0  0  0  0  0  0  0
    0.4678   69.8711   67.1871 H   0  0  0  0  0  0  0  0  0  0  0  0
    0.5787   69.6070   68.9765 H   0  0  0  0  0  0  0  0  0  0  0  0
    2.7823   68.8582   66.0737 H   0  0  0  0  0  0  0  0  0  0  0  0
    5.1613   69.5655   65.9985 H   0  0  0  0  0  0  0  0  0  0  0  0
    4.7223   71.2811   69.9419 H   0  0  0  0  0  0  0  0  0  0  0  0
    2.3358   70.5703   69.9343 H   0  0  0  0  0  0  0  0  0  0  0  0
    8.2091   70.8307   66.6761 H   0  0  0  0  0  0  0  0  0  0  0  0
    6.8118   69.8914   66.0863 H   0  0  0  0  0  0  0  0  0  0  0  0
  2  1  1  0
  4  3  2  0
  5  4  1  0
  6  5  2  0
  6  2  1  0
  7  6  1  0
  8  7  2  0
  8  3  1  0
  9  8  1  0
 11 10  2  0
 11  3  1  0
 12 10  1  0
 13  1  1  0
 14 13  1  0
 15 14  2  0
 16 15  1  0
 17 16  2  0
 18 17  1  0
 19 18  2  0
 19 14  1  0
 20 17  1  0
 21 20  2  0
 22 20  1  0
  1 23  1  0
  1 24  1  0
  2 25  1  0
  2 26  1  0
  4 27  1  0
  5 28  1  0
  7 29  1  0
 11 30  1  0
 12 31  1  0
 13 32  1  0
 13 33  1  0
 15 34  1  0
 16 35  1  0
 18 36  1  0
 19 37  1  0
 22 38  1  0
 22 39  1  0
M  CHG  2   6   1  14   1
M  END
>  <score>  (1) 
-9.112

$$$$
=
     RDKit          3D

 39 40  0  0  0  0  0  0  0  0999 V2000
    0.9940   67.6650   67.4850 C   0  0  0  0  0  0  0  0  0  0  0  0
    1.0030   69.1820   67.6950 C   0  0  0  0  0  0  0  0  0  0  0  0
    5.0240   70.5530   68.1300 C   0  0  0  0  0  0  0  0  0  0  0  0
    4.1050   70.7010   69.1720 C   0  0  0  0  0  0  0  0  0  0  0  0
    2.7980   70.2510   69.0130 C   0  0  0  0  0  0  0  0  0  0  0  0
    2.4050   69.6690   67.8540 N   0  0  0  0  0  4  0  0  0  0  0  0
    3.2970   69.4920   66.8450 C   0  0  0  0  0  0  0  0  0  0  0  0
    4.6170   69.9280   66.9530 C   0  0  0  0  0  0  0  0  0  0  0  0
    5.6330   69.5970   65.6030 Cl  0  0  0  0  0  0  0  0  0  0  0  0
    6.9620   71.0240   69.5170 N   0  0  0  0  0  0  0  0  0  0  0  0
    6.3740   71.1020   68.3710 C   0  0  0  0  0  0  0  0  0  0  0  0
    8.2280   71.6080   69.4090 O   0  0  0  0  0  0  0  0  0  0  0  0
    0.3360   67.2200   66.1720 C   0  0  0  0  0  0  0  0  0  0  0  0
    1.1690   67.5780   64.9920 N   0  0  0  0  0  4  0  0  0  0  0  0
    0.7150   68.4840   64.0910 C   0  0  0  0  0  0  0  0  0  0  0  0
    1.4860   68.8370   62.9950 C   0  0  0  0  0  0  0  0  0  0  0  0
    2.7220   68.2250   62.7970 C   0  0  0  0  0  0  0  0  0  0  0  0
    3.1560   67.2580   63.6980 C   0  0  0  0  0  0  0  0  0  0  0  0
    2.3540   66.9430   64.7880 C   0  0  0  0  0  0  0  0  0  0  0  0
    3.5550   68.6950   61.6660 C   0  0  0  0  0  0  0  0  0  0  0  0
    3.0100   69.0660   60.6380 O   0  0  0  0  0  0  0  0  0  0  0  0
    4.9080   68.6960   61.8190 N   0  0  0  0  0  0  0  0  0  0  0  0
    2.0349   67.3093   67.4881 H   0  0  0  0  0  0  0  0  0  0  0  0
    0.3965   67.2344   68.3021 H   0  0  0  0  0  0  0  0  0  0  0  0
    0.5439   69.6727   66.8241 H   0  0  0  0  0  0  0  0  0  0  0  0
    0.4326   69.4232   68.6041 H   0  0  0  0  0  0  0  0  0  0  0  0
    4.4143   71.1725   70.1165 H   0  0  0  0  0  0  0  0  0  0  0  0
    2.0772   70.3687   69.8355 H   0  0  0  0  0  0  0  0  0  0  0  0
    2.9703   68.9929   65.9208 H   0  0  0  0  0  0  0  0  0  0  0  0
    6.8989   71.5969   67.5406 H   0  0  0  0  0  0  0  0  0  0  0  0
    8.8273   71.6397   70.1963 H   0  0  0  0  0  0  0  0  0  0  0  0
    0.1983   66.1289   66.1938 H   0  0  0  0  0  0  0  0  0  0  0  0
   -0.6307   67.7366   66.0797 H   0  0  0  0  0  0  0  0  0  0  0  0
   -0.2747   68.9431   64.2314 H   0  0  0  0  0  0  0  0  0  0  0  0
    1.1244   69.5959   62.2855 H   0  0  0  0  0  0  0  0  0  0  0  0
    4.1203   66.7500   63.5496 H   0  0  0  0  0  0  0  0  0  0  0  0
    2.6826   66.1684   65.4965 H   0  0  0  0  0  0  0  0  0  0  0  0
    5.5130   69.0173   61.0498 H   0  0  0  0  0  0  0  0  0  0  0  0
    5.3265   68.3754   62.7039 H   0  0  0  0  0  0  0  0  0  0  0  0
  2  1  1  0
  4  3  2  0
  5  4  1  0
  6  5  2  0
  6  2  1  0
  7  6  1  0
  8  7  2  0
  8  3  1  0
  9  8  1  0
 11 10  2  0
 11  3  1  0
 12 10  1  0
 13  1  1  0
 14 13  1  0
 15 14  2  0
 16 15  1  0
 17 16  2  0
 18 17  1  0
 19 18  2  0
 19 14  1  0
 20 17  1  0
 21 20  2  0
 22 20  1  0
  1 23  1  0
  1 24  1  0
  2 25  1  0
  2 26  1  0
  4 27  1  0
  5 28  1  0
  7 29  1  0
 11 30  1  0
 12 31  1  0
 13 32  1  0
 13 33  1  0
 15 34  1  0
 16 35  1  0
 18 36  1  0
 19 37  1  0
 22 38  1  0
 22 39  1  0
M  CHG  2   6   1  14   1
M  END
>  <score>  (2) 
-8.916

$$$$
=
     RDKit          3D

 39 40  0  0  0  0  0  0  0  0999 V2000
    1.0780   64.7430   70.2710 C   0  0  0  0  0  0  0  0  0  0  0  0
    2.5650   64.3780   70.2920 C   0  0  0  0  0  0  0  0  0  0  0  0
    3.0200   60.1740   70.8900 C   0  0  0  0  0  0  0  0  0  0  0  0
    3.8760   60.8670   70.0310 C   0  0  0  0  0  0  0  0  0  0  0  0
    3.7130   62.2370   69.8440 C   0  0  0  0  0  0  0  0  0  0  0  0
    2.7280   62.9070   70.4900 N   0  0  0  0  0  4  0  0  0  0  0  0
    1.9090   62.2500   71.3530 C   0  0  0  0  0  0  0  0  0  0  0  0
    2.0290   60.8780   71.5720 C   0  0  0  0  0  0  0  0  0  0  0  0
    0.9410   60.2000   72.7200 Cl  0  0  0  0  0  0  0  0  0  0  0  0
    3.8290   58.0380   70.0640 N   0  0  0  0  0  0  0  0  0  0  0  0
    3.2390   58.7160   70.9890 C   0  0  0  0  0  0  0  0  0  0  0  0
    3.9040   56.7020   70.4700 O   0  0  0  0  0  0  0  0  0  0  0  0
    0.8020   66.2460   70.4210 C   0  0  0  0  0  0  0  0  0  0  0  0
    0.3360   66.8470   69.1420 N   0  0  0  0  0  4  0  0  0  0  0  0
    1.1280   67.7220   68.4750 C   0  0  0  0  0  0  0  0  0  0  0  0
    0.7120   68.2790   67.2760 C   0  0  0  0  0  0  0  0  0  0  0  0
   -0.5500   67.9680   66.7730 C   0  0  0  0  0  0  0  0  0  0  0  0
   -1.3780   67.1110   67.4920 C   0  0  0  0  0  0  0  0  0  0  0  0
   -0.9140   66.5690   68.6850 C   0  0  0  0  0  0  0  0  0  0  0  0
   -0.9210   68.5110   65.4470 C   0  0  0  0  0  0  0  0  0  0  0  0
   -0.1190   68.4400   64.5280 O   0  0  0  0  0  0  0  0  0  0  0  0
   -2.1530   69.0720   65.3020 N   0  0  0  0  0  0  0  0  0  0  0  0
    0.6528   64.4070   69.3138 H   0  0  0  0  0  0  0  0  0  0  0  0
    0.6160   64.2465   71.1370 H   0  0  0  0  0  0  0  0  0  0  0  0
    3.0251   64.6700   69.3365 H   0  0  0  0  0  0  0  0  0  0  0  0
    3.0553   64.9100   71.1206 H   0  0  0  0  0  0  0  0  0  0  0  0
    4.6782   60.3309   69.5027 H   0  0  0  0  0  0  0  0  0  0  0  0
    4.3889   62.7797   69.1667 H   0  0  0  0  0  0  0  0  0  0  0  0
    1.1331   62.8139   71.8915 H   0  0  0  0  0  0  0  0  0  0  0  0
    2.8849   58.1882   71.8868 H   0  0  0  0  0  0  0  0  0  0  0  0
    4.3289   56.0289   69.8814 H   0  0  0  0  0  0  0  0  0  0  0  0
    0.0267   66.3919   71.1875 H   0  0  0  0  0  0  0  0  0  0  0  0
    1.7401   66.7410   70.7124 H   0  0  0  0  0  0  0  0  0  0  0  0
    2.1104   67.9926   68.8894 H   0  0  0  0  0  0  0  0  0  0  0  0
    1.3742   68.9627   66.7245 H   0  0  0  0  0  0  0  0  0  0  0  0
   -2.3845   66.8662   67.1218 H   0  0  0  0  0  0  0  0  0  0  0  0
   -1.5684   65.9047   69.2685 H   0  0  0  0  0  0  0  0  0  0  0  0
   -2.4390   69.4582   64.3910 H   0  0  0  0  0  0  0  0  0  0  0  0
   -2.7990   69.1102   66.1033 H   0  0  0  0  0  0  0  0  0  0  0  0
  2  1  1  0
  4  3  2  0
  5  4  1  0
  6  5  2  0
  6  2  1  0
  7  6  1  0
  8  7  2  0
  8  3  1  0
  9  8  1  0
 11 10  2  0
 11  3  1  0
 12 10  1  0
 13  1  1  0
 14 13  1  0
 15 14  2  0
 16 15  1  0
 17 16  2  0
 18 17  1  0
 19 18  2  0
 19 14  1  0
 20 17  1  0
 21 20  2  0
 22 20  1  0
  1 23  1  0
  1 24  1  0
  2 25  1  0
  2 26  1  0
  4 27  1  0
  5 28  1  0
  7 29  1  0
 11 30  1  0
 12 31  1  0
 13 32  1  0
 13 33  1  0
 15 34  1  0
 16 35  1  0
 18 36  1  0
 19 37  1  0
 22 38  1  0
 22 39  1  0
M  CHG  2   6   1  14   1
M  END
>  <score>  (3) 
-8.223

$$$$
=
     RDKit          3D

 39 40  0  0  0  0  0  0  0  0999 V2000
    4.9400   69.0700   62.8930 C   0  0  0  0  0  0  0  0  0  0  0  0
    4.0360   67.9750   62.3200 C   0  0  0  0  0  0  0  0  0  0  0  0
   -0.0460   68.8380   63.2270 C   0  0  0  0  0  0  0  0  0  0  0  0
    0.7570   68.1520   64.1420 C   0  0  0  0  0  0  0  0  0  0  0  0
    2.0840   67.8760   63.8300 C   0  0  0  0  0  0  0  0  0  0  0  0
    2.6090   68.2670   62.6440 N   0  0  0  0  0  4  0  0  0  0  0  0
    1.8480   68.9610   61.7580 C   0  0  0  0  0  0  0  0  0  0  0  0
    0.5110   69.2600   62.0220 C   0  0  0  0  0  0  0  0  0  0  0  0
   -0.3080   70.1770   60.8170 Cl  0  0  0  0  0  0  0  0  0  0  0  0
   -1.9080   68.6990   64.7810 N   0  0  0  0  0  0  0  0  0  0  0  0
   -1.4540   69.0440   63.6240 C   0  0  0  0  0  0  0  0  0  0  0  0
   -3.2590   69.0520   64.8540 O   0  0  0  0  0  0  0  0  0  0  0  0
    5.8200   68.6060   64.0630 C   0  0  0  0  0  0  0  0  0  0  0  0
    5.3180   69.1240   65.3640 N   0  0  0  0  0  4  0  0  0  0  0  0
    3.9890   69.1220   65.6290 C   0  0  0  0  0  0  0  0  0  0  0  0
    3.5090   69.5890   66.8420 C   0  0  0  0  0  0  0  0  0  0  0  0
    4.3990   70.1030   67.7830 C   0  0  0  0  0  0  0  0  0  0  0  0
    5.7570   70.1510   67.4810 C   0  0  0  0  0  0  0  0  0  0  0  0
    6.1930   69.6630   66.2560 C   0  0  0  0  0  0  0  0  0  0  0  0
    3.8590   70.5080   69.1000 C   0  0  0  0  0  0  0  0  0  0  0  0
    4.6340   70.8030   69.9970 O   0  0  0  0  0  0  0  0  0  0  0  0
    2.5070   70.5350   69.2620 N   0  0  0  0  0  0  0  0  0  0  0  0
    5.5971   69.4319   62.0885 H   0  0  0  0  0  0  0  0  0  0  0  0
    4.2778   69.8558   63.2855 H   0  0  0  0  0  0  0  0  0  0  0  0
    4.1603   67.9350   61.2278 H   0  0  0  0  0  0  0  0  0  0  0  0
    4.3156   67.0082   62.7640 H   0  0  0  0  0  0  0  0  0  0  0  0
    0.3401   67.8307   65.1079 H   0  0  0  0  0  0  0  0  0  0  0  0
    2.7128   67.3354   64.5527 H   0  0  0  0  0  0  0  0  0  0  0  0
    2.2963   69.2949   60.8106 H   0  0  0  0  0  0  0  0  0  0  0  0
   -2.1428   69.5102   62.9041 H   0  0  0  0  0  0  0  0  0  0  0  0
   -3.7765   68.8620   65.6763 H   0  0  0  0  0  0  0  0  0  0  0  0
    5.8228   67.5064   64.0936 H   0  0  0  0  0  0  0  0  0  0  0  0
    6.8361   68.9969   63.9057 H   0  0  0  0  0  0  0  0  0  0  0  0
    3.2839   68.7457   64.8732 H   0  0  0  0  0  0  0  0  0  0  0  0
    2.4316   69.5542   67.0609 H   0  0  0  0  0  0  0  0  0  0  0  0
    6.4745   70.5694   68.2022 H   0  0  0  0  0  0  0  0  0  0  0  0
    7.2623   69.7130   66.0029 H   0  0  0  0  0  0  0  0  0  0  0  0
    2.1023   70.8129   70.1675 H   0  0  0  0  0  0  0  0  0  0  0  0
    1.8893   70.2776   68.4790 H   0  0  0  0  0  0  0  0  0  0  0  0
  2  1  1  0
  4  3  2  0
  5  4  1  0
  6  5  2  0
  6  2  1  0
  7  6  1  0
  8  7  2  0
  8  3  1  0
  9  8  1  0
 11 10  2  0
 11  3  1  0
 12 10  1  0
 13  1  1  0
 14 13  1  0
 15 14  2  0
 16 15  1  0
 17 16  2  0
 18 17  1  0
 19 18  2  0
 19 14  1  0
 20 17  1  0
 21 20  2  0
 22 20  1  0
  1 23  1  0
  1 24  1  0
  2 25  1  0
  2 26  1  0
  4 27  1  0
  5 28  1  0
  7 29  1  0
 11 30  1  0
 12 31  1  0
 13 32  1  0
 13 33  1  0
 15 34  1  0
 16 35  1  0
 18 36  1  0
 19 37  1  0
 22 38  1  0
 22 39  1  0
M  CHG  2   6   1  14   1
M  END
>  <score>  (4) 
-8.202

$$$$
=
     RDKit          3D

 39 40  0  0  0  0  0  0  0  0999 V2000
    0.8370   64.5090   70.2630 C   0  0  0  0  0  0  0  0  0  0  0  0
    0.4650   65.9670   70.5460 C   0  0  0  0  0  0  0  0  0  0  0  0
   -0.4000   68.0160   66.9000 C   0  0  0  0  0  0  0  0  0  0  0  0
   -1.3470   67.1710   67.4840 C   0  0  0  0  0  0  0  0  0  0  0  0
   -1.0490   66.5080   68.6700 C   0  0  0  0  0  0  0  0  0  0  0  0
    0.1560   66.6740   69.2680 N   0  0  0  0  0  4  0  0  0  0  0  0
    1.0730   67.5170   68.7280 C   0  0  0  0  0  0  0  0  0  0  0  0
    0.8250   68.2020   67.5380 C   0  0  0  0  0  0  0  0  0  0  0  0
    2.0720   69.2590   67.0010 Cl  0  0  0  0  0  0  0  0  0  0  0  0
   -0.2980   68.2620   64.4860 N   0  0  0  0  0  0  0  0  0  0  0  0
   -0.7880   68.6390   65.6180 C   0  0  0  0  0  0  0  0  0  0  0  0
   -0.8840   69.0240   63.4700 O   0  0  0  0  0  0  0  0  0  0  0  0
    2.3440   64.2260   70.3230 C   0  0  0  0  0  0  0  0  0  0  0  0
    2.6220   62.7760   70.5070 N   0  0  0  0  0  4  0  0  0  0  0  0
    3.4420   62.1260   69.6460 C   0  0  0  0  0  0  0  0  0  0  0  0
    3.7200   60.7790   69.8130 C   0  0  0  0  0  0  0  0  0  0  0  0
    3.1180   60.0760   70.8550 C   0  0  0  0  0  0  0  0  0  0  0  0
    2.2350   60.7380   71.7030 C   0  0  0  0  0  0  0  0  0  0  0  0
    1.9950   62.0920   71.5020 C   0  0  0  0  0  0  0  0  0  0  0  0
    3.5110   58.6630   71.0560 C   0  0  0  0  0  0  0  0  0  0  0  0
    3.8970   58.0100   70.0990 O   0  0  0  0  0  0  0  0  0  0  0  0
    3.4250   58.1420   72.3110 N   0  0  0  0  0  0  0  0  0  0  0  0
    0.3359   63.8734   71.0079 H   0  0  0  0  0  0  0  0  0  0  0  0
    0.5133   64.2921   69.2343 H   0  0  0  0  0  0  0  0  0  0  0  0
   -0.4181   65.9967   71.2012 H   0  0  0  0  0  0  0  0  0  0  0  0
    1.3126   66.4662   71.0382 H   0  0  0  0  0  0  0  0  0  0  0  0
   -2.3277   67.0301   67.0062 H   0  0  0  0  0  0  0  0  0  0  0  0
   -1.7975   65.8435   69.1263 H   0  0  0  0  0  0  0  0  0  0  0  0
    2.0349   67.6636   69.2411 H   0  0  0  0  0  0  0  0  0  0  0  0
   -1.5238   69.4566   65.6292 H   0  0  0  0  0  0  0  0  0  0  0  0
   -0.6268   68.8720   62.5262 H   0  0  0  0  0  0  0  0  0  0  0  0
    2.8080   64.5621   69.3840 H   0  0  0  0  0  0  0  0  0  0  0  0
    2.7620   64.7684   71.1839 H   0  0  0  0  0  0  0  0  0  0  0  0
    3.8920   62.6740   68.8050 H   0  0  0  0  0  0  0  0  0  0  0  0
    4.4116   60.2676   69.1274 H   0  0  0  0  0  0  0  0  0  0  0  0
    1.7346   60.1976   72.5200 H   0  0  0  0  0  0  0  0  0  0  0  0
    1.2867   62.6192   72.1580 H   0  0  0  0  0  0  0  0  0  0  0  0
    3.6916   57.1618   72.4811 H   0  0  0  0  0  0  0  0  0  0  0  0
    3.0933   58.7281   73.0903 H   0  0  0  0  0  0  0  0  0  0  0  0
  2  1  1  0
  4  3  2  0
  5  4  1  0
  6  5  2  0
  6  2  1  0
  7  6  1  0
  8  7  2  0
  8  3  1  0
  9  8  1  0
 11 10  2  0
 11  3  1  0
 12 10  1  0
 13  1  1  0
 14 13  1  0
 15 14  2  0
 16 15  1  0
 17 16  2  0
 18 17  1  0
 19 18  2  0
 19 14  1  0
 20 17  1  0
 21 20  2  0
 22 20  1  0
  1 23  1  0
  1 24  1  0
  2 25  1  0
  2 26  1  0
  4 27  1  0
  5 28  1  0
  7 29  1  0
 11 30  1  0
 12 31  1  0
 13 32  1  0
 13 33  1  0
 15 34  1  0
 16 35  1  0
 18 36  1  0
 19 37  1  0
 22 38  1  0
 22 39  1  0
M  CHG  2   6   1  14   1
M  END
>  <score>  (5) 
-8.153

$$$$
=
     RDKit          3D

 39 40  0  0  0  0  0  0  0  0999 V2000
    1.1520   66.8540   69.5380 C   0  0  0  0  0  0  0  0  0  0  0  0
    0.2120   65.8180   70.1600 C   0  0  0  0  0  0  0  0  0  0  0  0
    2.4690   62.4600   71.5250 C   0  0  0  0  0  0  0  0  0  0  0  0
    1.0930   62.5320   71.7510 C   0  0  0  0  0  0  0  0  0  0  0  0
    0.3720   63.6340   71.3020 C   0  0  0  0  0  0  0  0  0  0  0  0
    0.9940   64.6430   70.6450 N   0  0  0  0  0  4  0  0  0  0  0  0
    2.3260   64.5710   70.3920 C   0  0  0  0  0  0  0  0  0  0  0  0
    3.0940   63.4890   70.8230 C   0  0  0  0  0  0  0  0  0  0  0  0
    4.7600   63.5280   70.3930 Cl  0  0  0  0  0  0  0  0  0  0  0  0
    3.9790   61.3490   73.0700 N   0  0  0  0  0  0  0  0  0  0  0  0
    3.1580   61.2760   72.0780 C   0  0  0  0  0  0  0  0  0  0  0  0
    4.4350   60.0610   73.3680 O   0  0  0  0  0  0  0  0  0  0  0  0
    0.5760   67.5620   68.3040 C   0  0  0  0  0  0  0  0  0  0  0  0
    1.6520   68.0800   67.4170 N   0  0  0  0  0  4  0  0  0  0  0  0
    2.4200   69.1210   67.8190 C   0  0  0  0  0  0  0  0  0  0  0  0
    3.4350   69.6060   67.0090 C   0  0  0  0  0  0  0  0  0  0  0  0
    3.6410   69.0410   65.7520 C   0  0  0  0  0  0  0  0  0  0  0  0
    2.8130   68.0070   65.3250 C   0  0  0  0  0  0  0  0  0  0  0  0
    1.8150   67.5480   66.1750 C   0  0  0  0  0  0  0  0  0  0  0  0
    4.7920   69.5240   64.9550 C   0  0  0  0  0  0  0  0  0  0  0  0
    4.7200   69.5090   63.7350 O   0  0  0  0  0  0  0  0  0  0  0  0
    5.8940   69.9700   65.6180 N   0  0  0  0  0  0  0  0  0  0  0  0
    1.3787   67.6155   70.2987 H   0  0  0  0  0  0  0  0  0  0  0  0
    2.0467   66.3093   69.2023 H   0  0  0  0  0  0  0  0  0  0  0  0
   -0.3229   66.2736   71.0063 H   0  0  0  0  0  0  0  0  0  0  0  0
   -0.5083   65.4824   69.3994 H   0  0  0  0  0  0  0  0  0  0  0  0
    0.5794   61.7181   72.2836 H   0  0  0  0  0  0  0  0  0  0  0  0
   -0.7119   63.6867   71.4818 H   0  0  0  0  0  0  0  0  0  0  0  0
    2.8112   65.3853   69.8338 H   0  0  0  0  0  0  0  0  0  0  0  0
    2.9630   60.2925   71.6255 H   0  0  0  0  0  0  0  0  0  0  0  0
    5.0781   59.9224   74.1078 H   0  0  0  0  0  0  0  0  0  0  0  0
   -0.0401   66.8478   67.7380 H   0  0  0  0  0  0  0  0  0  0  0  0
   -0.0269   68.4155   68.6476 H   0  0  0  0  0  0  0  0  0  0  0  0
    2.2362   69.5864   68.7986 H   0  0  0  0  0  0  0  0  0  0  0  0
    4.0737   70.4315   67.3563 H   0  0  0  0  0  0  0  0  0  0  0  0
    2.9470   67.5598   64.3290 H   0  0  0  0  0  0  0  0  0  0  0  0
    1.1460   66.7420   65.8391 H   0  0  0  0  0  0  0  0  0  0  0  0
    6.7096   70.3118   65.0899 H   0  0  0  0  0  0  0  0  0  0  0  0
    5.9123   69.9657   66.6478 H   0  0  0  0  0  0  0  0  0  0  0  0
  2  1  1  0
  4  3  2  0
  5  4  1  0
  6  5  2  0
  6  2  1  0
  7  6  1  0
  8  7  2  0
  8  3  1  0
  9  8  1  0
 11 10  2  0
 11  3  1  0
 12 10  1  0
 13  1  1  0
 14 13  1  0
 15 14  2  0
 16 15  1  0
 17 16  2  0
 18 17  1  0
 19 18  2  0
 19 14  1  0
 20 17  1  0
 21 20  2  0
 22 20  1  0
  1 23  1  0
  1 24  1  0
  2 25  1  0
  2 26  1  0
  4 27  1  0
  5 28  1  0
  7 29  1  0
 11 30  1  0
 12 31  1  0
 13 32  1  0
 13 33  1  0
 15 34  1  0
 16 35  1  0
 18 36  1  0
 19 37  1  0
 22 38  1  0
 22 39  1  0
M  CHG  2   6   1  14   1
M  END
>  <score>  (6) 
-8.124

$$$$
=
     RDKit          3D

 39 40  0  0  0  0  0  0  0  0999 V2000
    1.2430   66.8940   69.6460 C   0  0  0  0  0  0  0  0  0  0  0  0
    0.3020   65.9610   70.4130 C   0  0  0  0  0  0  0  0  0  0  0  0
    2.1890   62.1970   71.1280 C   0  0  0  0  0  0  0  0  0  0  0  0
    2.8750   63.2240   70.4750 C   0  0  0  0  0  0  0  0  0  0  0  0
    2.2450   64.4440   70.2470 C   0  0  0  0  0  0  0  0  0  0  0  0
    0.9680   64.6470   70.6540 N   0  0  0  0  0  4  0  0  0  0  0  0
    0.3010   63.6670   71.3170 C   0  0  0  0  0  0  0  0  0  0  0  0
    0.8870   62.4260   71.5680 C   0  0  0  0  0  0  0  0  0  0  0  0
   -0.0740   61.3030   72.4510 Cl  0  0  0  0  0  0  0  0  0  0  0  0
    3.4330   60.2890   70.2850 N   0  0  0  0  0  0  0  0  0  0  0  0
    2.9210   60.9240   71.2840 C   0  0  0  0  0  0  0  0  0  0  0  0
    4.0780   59.1450   70.7650 O   0  0  0  0  0  0  0  0  0  0  0  0
    0.6280   67.4910   68.3720 C   0  0  0  0  0  0  0  0  0  0  0  0
    1.6730   68.0310   67.4610 N   0  0  0  0  0  4  0  0  0  0  0  0
    2.4160   69.1010   67.8390 C   0  0  0  0  0  0  0  0  0  0  0  0
    3.4020   69.6070   67.0070 C   0  0  0  0  0  0  0  0  0  0  0  0
    3.6040   69.0330   65.7520 C   0  0  0  0  0  0  0  0  0  0  0  0
    2.8020   67.9700   65.3510 C   0  0  0  0  0  0  0  0  0  0  0  0
    1.8320   67.4900   66.2240 C   0  0  0  0  0  0  0  0  0  0  0  0
    4.7260   69.5420   64.9310 C   0  0  0  0  0  0  0  0  0  0  0  0
    4.6350   69.5100   63.7130 O   0  0  0  0  0  0  0  0  0  0  0  0
    5.8250   70.0280   65.5710 N   0  0  0  0  0  0  0  0  0  0  0  0
    1.5291   67.7210   70.3124 H   0  0  0  0  0  0  0  0  0  0  0  0
    2.1046   66.2877   69.3298 H   0  0  0  0  0  0  0  0  0  0  0  0
    0.0418   66.4197   71.3784 H   0  0  0  0  0  0  0  0  0  0  0  0
   -0.6091   65.7995   69.8182 H   0  0  0  0  0  0  0  0  0  0  0  0
    3.9116   63.0687   70.1415 H   0  0  0  0  0  0  0  0  0  0  0  0
    2.7880   65.2503   69.7322 H   0  0  0  0  0  0  0  0  0  0  0  0
   -0.7255   63.8563   71.6642 H   0  0  0  0  0  0  0  0  0  0  0  0
    3.0341   60.5003   72.2928 H   0  0  0  0  0  0  0  0  0  0  0  0
    4.5320   58.5314   70.1345 H   0  0  0  0  0  0  0  0  0  0  0  0
    0.0660   66.7059   67.8450 H   0  0  0  0  0  0  0  0  0  0  0  0
   -0.0346   68.3188   68.6649 H   0  0  0  0  0  0  0  0  0  0  0  0
    2.2340   69.5720   68.8162 H   0  0  0  0  0  0  0  0  0  0  0  0
    4.0210   70.4554   67.3341 H   0  0  0  0  0  0  0  0  0  0  0  0
    2.9331   67.5156   64.3578 H   0  0  0  0  0  0  0  0  0  0  0  0
    1.1832   66.6596   65.9088 H   0  0  0  0  0  0  0  0  0  0  0  0
    6.6209   70.3888   65.0258 H   0  0  0  0  0  0  0  0  0  0  0  0
    5.8605   70.0349   66.6004 H   0  0  0  0  0  0  0  0  0  0  0  0
  2  1  1  0
  4  3  2  0
  5  4  1  0
  6  5  2  0
  6  2  1  0
  7  6  1  0
  8  7  2  0
  8  3  1  0
  9  8  1  0
 11 10  2  0
 11  3  1  0
 12 10  1  0
 13  1  1  0
 14 13  1  0
 15 14  2  0
 16 15  1  0
 17 16  2  0
 18 17  1  0
 19 18  2  0
 19 14  1  0
 20 17  1  0
 21 20  2  0
 22 20  1  0
  1 23  1  0
  1 24  1  0
  2 25  1  0
  2 26  1  0
  4 27  1  0
  5 28  1  0
  7 29  1  0
 11 30  1  0
 12 31  1  0
 13 32  1  0
 13 33  1  0
 15 34  1  0
 16 35  1  0
 18 36  1  0
 19 37  1  0
 22 38  1  0
 22 39  1  0
M  CHG  2   6   1  14   1
M  END
>  <score>  (7) 
-8.038

$$$$
=
     RDKit          3D

 39 40  0  0  0  0  0  0  0  0999 V2000
    1.1510   66.9660   68.4950 C   0  0  0  0  0  0  0  0  0  0  0  0
    0.1950   66.5500   69.6160 C   0  0  0  0  0  0  0  0  0  0  0  0
    1.9330   63.3770   71.8840 C   0  0  0  0  0  0  0  0  0  0  0  0
    0.6400   63.8270   72.1640 C   0  0  0  0  0  0  0  0  0  0  0  0
    0.0890   64.8640   71.4180 C   0  0  0  0  0  0  0  0  0  0  0  0
    0.7960   65.4440   70.4180 N   0  0  0  0  0  4  0  0  0  0  0  0
    2.0420   64.9950   70.1150 C   0  0  0  0  0  0  0  0  0  0  0  0
    2.6400   63.9610   70.8350 C   0  0  0  0  0  0  0  0  0  0  0  0
    4.2070   63.4820   70.3070 Cl  0  0  0  0  0  0  0  0  0  0  0  0
    2.3600   62.3510   74.0440 N   0  0  0  0  0  0  0  0  0  0  0  0
    2.4510   62.3050   72.7590 C   0  0  0  0  0  0  0  0  0  0  0  0
    2.9150   61.1820   74.5730 O   0  0  0  0  0  0  0  0  0  0  0  0
    0.9850   68.4230   68.0390 C   0  0  0  0  0  0  0  0  0  0  0  0
    2.2950   69.1230   67.9520 N   0  0  0  0  0  4  0  0  0  0  0  0
    3.0140   69.0760   66.8040 C   0  0  0  0  0  0  0  0  0  0  0  0
    4.2300   69.7330   66.7030 C   0  0  0  0  0  0  0  0  0  0  0  0
    4.7360   70.4170   67.8080 C   0  0  0  0  0  0  0  0  0  0  0  0
    4.0160   70.4150   68.9990 C   0  0  0  0  0  0  0  0  0  0  0  0
    2.7970   69.7490   69.0490 C   0  0  0  0  0  0  0  0  0  0  0  0
    5.9910   71.1820   67.6340 C   0  0  0  0  0  0  0  0  0  0  0  0
    6.0480   72.3330   68.0400 O   0  0  0  0  0  0  0  0  0  0  0  0
    7.0420   70.5680   67.0240 N   0  0  0  0  0  0  0  0  0  0  0  0
    2.1825   66.8312   68.8526 H   0  0  0  0  0  0  0  0  0  0  0  0
    0.9167   66.3328   67.6266 H   0  0  0  0  0  0  0  0  0  0  0  0
    0.0050   67.4129   70.2712 H   0  0  0  0  0  0  0  0  0  0  0  0
   -0.7496   66.2015   69.1730 H   0  0  0  0  0  0  0  0  0  0  0  0
    0.0584   63.3617   72.9735 H   0  0  0  0  0  0  0  0  0  0  0  0
   -0.9289   65.2160   71.6417 H   0  0  0  0  0  0  0  0  0  0  0  0
    2.5920   65.4578   69.2824 H   0  0  0  0  0  0  0  0  0  0  0  0
    2.9339   61.4323   72.2951 H   0  0  0  0  0  0  0  0  0  0  0  0
    2.9329   61.0420   75.5529 H   0  0  0  0  0  0  0  0  0  0  0  0
    0.5077   68.4346   67.0480 H   0  0  0  0  0  0  0  0  0  0  0  0
    0.3640   68.9467   68.7807 H   0  0  0  0  0  0  0  0  0  0  0  0
    2.6281   68.5102   65.9432 H   0  0  0  0  0  0  0  0  0  0  0  0
    4.7922   69.7151   65.7577 H   0  0  0  0  0  0  0  0  0  0  0  0
    4.4059   70.9329   69.8877 H   0  0  0  0  0  0  0  0  0  0  0  0
    2.2297   69.7283   69.9912 H   0  0  0  0  0  0  0  0  0  0  0  0
    7.9278   71.0760   66.8894 H   0  0  0  0  0  0  0  0  0  0  0  0
    6.9513   69.5955   66.6972 H   0  0  0  0  0  0  0  0  0  0  0  0
  2  1  1  0
  4  3  2  0
  5  4  1  0
  6  5  2  0
  6  2  1  0
  7  6  1  0
  8  7  2  0
  8  3  1  0
  9  8  1  0
 11 10  2  0
 11  3  1  0
 12 10  1  0
 13  1  1  0
 14 13  1  0
 15 14  2  0
 16 15  1  0
 17 16  2  0
 18 17  1  0
 19 18  2  0
 19 14  1  0
 20 17  1  0
 21 20  2  0
 22 20  1  0
  1 23  1  0
  1 24  1  0
  2 25  1  0
  2 26  1  0
  4 27  1  0
  5 28  1  0
  7 29  1  0
 11 30  1  0
 12 31  1  0
 13 32  1  0
 13 33  1  0
 15 34  1  0
 16 35  1  0
 18 36  1  0
 19 37  1  0
 22 38  1  0
 22 39  1  0
M  CHG  2   6   1  14   1
M  END
>  <score>  (8) 
-7.927

$$$$
=
     RDKit          3D

 39 40  0  0  0  0  0  0  0  0999 V2000
    3.9420   69.0740   63.0210 C   0  0  0  0  0  0  0  0  0  0  0  0
    2.8880   68.0210   62.6680 C   0  0  0  0  0  0  0  0  0  0  0  0
   -0.6620   68.6600   64.9540 C   0  0  0  0  0  0  0  0  0  0  0  0
   -0.5860   69.0810   63.6240 C   0  0  0  0  0  0  0  0  0  0  0  0
    0.5790   68.8680   62.8940 C   0  0  0  0  0  0  0  0  0  0  0  0
    1.6450   68.2540   63.4610 N   0  0  0  0  0  4  0  0  0  0  0  0
    1.5730   67.8110   64.7440 C   0  0  0  0  0  0  0  0  0  0  0  0
    0.4300   68.0040   65.5190 C   0  0  0  0  0  0  0  0  0  0  0  0
    0.4820   67.3540   67.1120 Cl  0  0  0  0  0  0  0  0  0  0  0  0
   -2.8830   68.1210   65.7750 N   0  0  0  0  0  0  0  0  0  0  0  0
   -1.9190   68.9710   65.6640 C   0  0  0  0  0  0  0  0  0  0  0  0
   -3.9110   68.7080   66.5200 O   0  0  0  0  0  0  0  0  0  0  0  0
    5.1050   68.5370   63.8660 C   0  0  0  0  0  0  0  0  0  0  0  0
    5.0990   69.1150   65.2370 N   0  0  0  0  0  4  0  0  0  0  0  0
    3.9300   69.2570   65.9080 C   0  0  0  0  0  0  0  0  0  0  0  0
    3.9100   69.7820   67.1910 C   0  0  0  0  0  0  0  0  0  0  0  0
    5.1000   70.2050   67.7800 C   0  0  0  0  0  0  0  0  0  0  0  0
    6.2890   70.1060   67.0630 C   0  0  0  0  0  0  0  0  0  0  0  0
    6.2610   69.5640   65.7830 C   0  0  0  0  0  0  0  0  0  0  0  0
    5.0510   70.6750   69.1830 C   0  0  0  0  0  0  0  0  0  0  0  0
    6.0970   70.8570   69.7870 O   0  0  0  0  0  0  0  0  0  0  0  0
    3.8310   70.8860   69.7490 N   0  0  0  0  0  0  0  0  0  0  0  0
    4.3533   69.4786   62.0845 H   0  0  0  0  0  0  0  0  0  0  0  0
    3.4355   69.8390   63.6278 H   0  0  0  0  0  0  0  0  0  0  0  0
    2.6530   68.0867   61.5954 H   0  0  0  0  0  0  0  0  0  0  0  0
    3.2837   67.0221   62.9038 H   0  0  0  0  0  0  0  0  0  0  0  0
   -1.4464   69.5803   63.1545 H   0  0  0  0  0  0  0  0  0  0  0  0
    0.6350   69.2011   61.8472 H   0  0  0  0  0  0  0  0  0  0  0  0
    2.4365   67.2881   65.1811 H   0  0  0  0  0  0  0  0  0  0  0  0
   -2.0380   69.9667   66.1160 H   0  0  0  0  0  0  0  0  0  0  0  0
   -4.7390   68.1989   66.7080 H   0  0  0  0  0  0  0  0  0  0  0  0
    5.0173   67.4430   63.9395 H   0  0  0  0  0  0  0  0  0  0  0  0
    6.0472   68.8238   63.3760 H   0  0  0  0  0  0  0  0  0  0  0  0
    2.9874   68.9526   65.4297 H   0  0  0  0  0  0  0  0  0  0  0  0
    2.9607   69.8641   67.7406 H   0  0  0  0  0  0  0  0  0  0  0  0
    7.2364   70.4514   67.5025 H   0  0  0  0  0  0  0  0  0  0  0  0
    7.1932   69.4973   65.2028 H   0  0  0  0  0  0  0  0  0  0  0  0
    3.7650   71.2130   70.7235 H   0  0  0  0  0  0  0  0  0  0  0  0
    2.9740   70.7186   69.2028 H   0  0  0  0  0  0  0  0  0  0  0  0
  2  1  1  0
  4  3  2  0
  5  4  1  0
  6  5  2  0
  6  2  1  0
  7  6  1  0
  8  7  2  0
  8  3  1  0
  9  8  1  0
 11 10  2  0
 11  3  1  0
 12 10  1  0
 13  1  1  0
 14 13  1  0
 15 14  2  0
 16 15  1  0
 17 16  2  0
 18 17  1  0
 19 18  2  0
 19 14  1  0
 20 17  1  0
 21 20  2  0
 22 20  1  0
  1 23  1  0
  1 24  1  0
  2 25  1  0
  2 26  1  0
  4 27  1  0
  5 28  1  0
  7 29  1  0
 11 30  1  0
 12 31  1  0
 13 32  1  0
 13 33  1  0
 15 34  1  0
 16 35  1  0
 18 36  1  0
 19 37  1  0
 22 38  1  0
 22 39  1  0
M  CHG  2   6   1  14   1
M  END
>  <score>  (9) 
-7.921

$$$$
