=
     RDKit          3D

 18 19  0  0  0  0  0  0  0  0999 V2000
    4.0900   70.2740   69.1170 Cl  0  0  0  0  0  0  0  0  0  0  0  0
    4.0850   69.8550   67.4420 C   0  0  0  0  0  0  0  0  0  0  0  0
    2.8760   69.4410   66.8780 C   0  0  0  0  0  0  0  0  0  0  0  0
    2.7930   69.0880   65.5400 C   0  0  0  0  0  0  0  0  0  0  0  0
    1.6070   68.6960   65.0380 N   0  0  0  0  0  0  0  0  0  0  0  0
    1.6080   68.3700   63.7330 C   0  0  0  0  0  0  0  0  0  0  0  0
    2.7460   68.4300   62.9470 C   0  0  0  0  0  0  0  0  0  0  0  0
    3.9410   68.8190   63.4250 N   0  0  0  0  0  0  0  0  0  0  0  0
    3.9650   69.1500   64.7310 C   0  0  0  0  0  0  0  0  0  0  0  0
    5.1590   69.5620   65.3010 C   0  0  0  0  0  0  0  0  0  0  0  0
    5.2320   69.9150   66.6500 C   0  0  0  0  0  0  0  0  0  0  0  0
    6.7630   70.4150   67.2710 Cl  0  0  0  0  0  0  0  0  0  0  0  0
    0.3990   67.9800   63.2620 O   0  0  0  0  0  0  0  0  0  0  0  0
    2.7590   68.1050   61.6310 O   0  0  0  0  0  0  0  0  0  0  0  0
    1.9743   69.3943   67.5063 H   0  0  0  0  0  0  0  0  0  0  0  0
    6.0654   69.6118   64.6797 H   0  0  0  0  0  0  0  0  0  0  0  0
    0.2983   67.7199   62.3121 H   0  0  0  0  0  0  0  0  0  0  0  0
    3.6014   68.1657   61.1144 H   0  0  0  0  0  0  0  0  0  0  0  0
  2  1  1  0
  3  2  2  0
  4  3  1  0
  5  4  2  0
  6  5  1  0
  7  6  2  0
  8  7  1  0
  9  8  2  0
  9  4  1  0
 10  9  1  0
 11 10  2  0
 11  2  1  0
 12 11  1  0
 13  6  1  0
 14  7  1  0
  3 15  1  0
 10 16  1  0
 13 17  1  0
 14 18  1  0
M  END
>  <score>  (1) 
-7.746

$$$$
=
     RDKit          3D

 18 19  0  0  0  0  0  0  0  0999 V2000
    6.7680   70.3010   67.2760 Cl  0  0  0  0  0  0  0  0  0  0  0  0
    5.2300   69.8440   66.6380 C   0  0  0  0  0  0  0  0  0  0  0  0
    5.1640   69.4920   65.2880 C   0  0  0  0  0  0  0  0  0  0  0  0
    3.9650   69.1140   64.7030 C   0  0  0  0  0  0  0  0  0  0  0  0
    3.9480   68.7820   63.3980 N   0  0  0  0  0  0  0  0  0  0  0  0
    2.7480   68.4280   62.9060 C   0  0  0  0  0  0  0  0  0  0  0  0
    1.5980   68.4020   63.6770 C   0  0  0  0  0  0  0  0  0  0  0  0
    1.5910   68.7290   64.9810 N   0  0  0  0  0  0  0  0  0  0  0  0
    2.7820   69.0880   65.4980 C   0  0  0  0  0  0  0  0  0  0  0  0
    2.8590   69.4390   66.8370 C   0  0  0  0  0  0  0  0  0  0  0  0
    4.0720   69.8180   67.4150 C   0  0  0  0  0  0  0  0  0  0  0  0
    4.0690   70.2400   69.0900 Cl  0  0  0  0  0  0  0  0  0  0  0  0
    2.7670   68.1010   61.5910 O   0  0  0  0  0  0  0  0  0  0  0  0
    0.3850   68.0460   63.1920 O   0  0  0  0  0  0  0  0  0  0  0  0
    6.0792   69.5150   64.6782 H   0  0  0  0  0  0  0  0  0  0  0  0
    1.9489   69.4185   67.4545 H   0  0  0  0  0  0  0  0  0  0  0  0
    1.9311   67.8265   61.1371 H   0  0  0  0  0  0  0  0  0  0  0  0
   -0.4055   68.0448   63.7880 H   0  0  0  0  0  0  0  0  0  0  0  0
  2  1  1  0
  3  2  2  0
  4  3  1  0
  5  4  2  0
  6  5  1  0
  7  6  2  0
  8  7  1  0
  9  8  2  0
  9  4  1  0
 10  9  1  0
 11 10  2  0
 11  2  1  0
 12 11  1  0
 13  6  1  0
 14  7  1  0
  3 15  1  0
 10 16  1  0
 13 17  1  0
 14 18  1  0
M  END
>  <score>  (2) 
-7.735

$$$$
=
     RDKit          3D

 18 19  0  0  0  0  0  0  0  0999 V2000
    4.6570   68.7060   62.2320 Cl  0  0  0  0  0  0  0  0  0  0  0  0
    4.2680   69.0300   63.8830 C   0  0  0  0  0  0  0  0  0  0  0  0
    5.2730   69.5590   64.6970 C   0  0  0  0  0  0  0  0  0  0  0  0
    5.0360   69.8460   66.0330 C   0  0  0  0  0  0  0  0  0  0  0  0
    6.0330   70.3560   66.7800 N   0  0  0  0  0  0  0  0  0  0  0  0
    5.7250   70.6060   68.0650 C   0  0  0  0  0  0  0  0  0  0  0  0
    4.4700   70.3610   68.5970 C   0  0  0  0  0  0  0  0  0  0  0  0
    3.4590   69.8540   67.8700 N   0  0  0  0  0  0  0  0  0  0  0  0
    3.7440   69.5940   66.5790 C   0  0  0  0  0  0  0  0  0  0  0  0
    2.7540   69.0690   65.7620 C   0  0  0  0  0  0  0  0  0  0  0  0
    3.0030   68.7840   64.4190 C   0  0  0  0  0  0  0  0  0  0  0  0
    1.7100   68.1320   63.4790 Cl  0  0  0  0  0  0  0  0  0  0  0  0
    6.7510   71.1160   68.7880 O   0  0  0  0  0  0  0  0  0  0  0  0
    4.1480   70.6100   69.8890 O   0  0  0  0  0  0  0  0  0  0  0  0
    6.2688   69.7510   64.2710 H   0  0  0  0  0  0  0  0  0  0  0  0
    1.7553   68.8739   66.1799 H   0  0  0  0  0  0  0  0  0  0  0  0
    6.6221   71.3332   69.7452 H   0  0  0  0  0  0  0  0  0  0  0  0
    3.2346   70.4159   70.2177 H   0  0  0  0  0  0  0  0  0  0  0  0
  2  1  1  0
  3  2  2  0
  4  3  1  0
  5  4  2  0
  6  5  1  0
  7  6  2  0
  8  7  1  0
  9  8  2  0
  9  4  1  0
 10  9  1  0
 11 10  2  0
 11  2  1  0
 12 11  1  0
 13  6  1  0
 14  7  1  0
  3 15  1  0
 10 16  1  0
 13 17  1  0
 14 18  1  0
M  END
>  <score>  (3) 
-7.472

$$$$
=
     RDKit          3D

 18 19  0  0  0  0  0  0  0  0999 V2000
    0.1830   68.8710   67.3010 Cl  0  0  0  0  0  0  0  0  0  0  0  0
    1.6580   68.9310   66.4040 C   0  0  0  0  0  0  0  0  0  0  0  0
    1.6210   68.5340   65.0650 C   0  0  0  0  0  0  0  0  0  0  0  0
    2.7650   68.5550   64.2800 C   0  0  0  0  0  0  0  0  0  0  0  0
    2.6830   68.1650   62.9940 N   0  0  0  0  0  0  0  0  0  0  0  0
    3.8340   68.2130   62.3000 C   0  0  0  0  0  0  0  0  0  0  0  0
    5.0290   68.6340   62.8570 C   0  0  0  0  0  0  0  0  0  0  0  0
    5.1340   69.0290   64.1380 N   0  0  0  0  0  0  0  0  0  0  0  0
    3.9940   68.9880   64.8550 C   0  0  0  0  0  0  0  0  0  0  0  0
    4.0190   69.3810   66.1850 C   0  0  0  0  0  0  0  0  0  0  0  0
    2.8620   69.3560   66.9660 C   0  0  0  0  0  0  0  0  0  0  0  0
    2.9900   69.8610   68.6120 Cl  0  0  0  0  0  0  0  0  0  0  0  0
    3.7160   67.8130   61.0110 O   0  0  0  0  0  0  0  0  0  0  0  0
    6.1940   68.6870   62.1680 O   0  0  0  0  0  0  0  0  0  0  0  0
    0.6696   68.1994   64.6259 H   0  0  0  0  0  0  0  0  0  0  0  0
    4.9660   69.7179   66.6318 H   0  0  0  0  0  0  0  0  0  0  0  0
    4.5089   67.8128   60.4182 H   0  0  0  0  0  0  0  0  0  0  0  0
    7.0206   68.9965   62.6163 H   0  0  0  0  0  0  0  0  0  0  0  0
  2  1  1  0
  3  2  2  0
  4  3  1  0
  5  4  2  0
  6  5  1  0
  7  6  2  0
  8  7  1  0
  9  8  2  0
  9  4  1  0
 10  9  1  0
 11 10  2  0
 11  2  1  0
 12 11  1  0
 13  6  1  0
 14  7  1  0
  3 15  1  0
 10 16  1  0
 13 17  1  0
 14 18  1  0
M  END
>  <score>  (4) 
-7.346

$$$$
=
     RDKit          3D

 18 19  0  0  0  0  0  0  0  0999 V2000
    2.2800   64.1090   70.7400 Cl  0  0  0  0  0  0  0  0  0  0  0  0
    2.7350   62.4710   70.4380 C   0  0  0  0  0  0  0  0  0  0  0  0
    2.4170   61.5180   71.4080 C   0  0  0  0  0  0  0  0  0  0  0  0
    2.7490   60.1830   71.2370 C   0  0  0  0  0  0  0  0  0  0  0  0
    2.4220   59.2980   72.1980 N   0  0  0  0  0  0  0  0  0  0  0  0
    2.7790   58.0230   71.9590 C   0  0  0  0  0  0  0  0  0  0  0  0
    3.4390   57.6340   70.8050 C   0  0  0  0  0  0  0  0  0  0  0  0
    3.7740   58.4990   69.8320 N   0  0  0  0  0  0  0  0  0  0  0  0
    3.4280   59.7820   70.0500 C   0  0  0  0  0  0  0  0  0  0  0  0
    3.7380   60.7370   69.0930 C   0  0  0  0  0  0  0  0  0  0  0  0
    3.3990   62.0780   69.2760 C   0  0  0  0  0  0  0  0  0  0  0  0
    3.8280   63.1950   68.0310 Cl  0  0  0  0  0  0  0  0  0  0  0  0
    2.4360   57.1610   72.9450 O   0  0  0  0  0  0  0  0  0  0  0  0
    3.8020   56.3530   70.5530 O   0  0  0  0  0  0  0  0  0  0  0  0
    1.8941   61.8320   72.3234 H   0  0  0  0  0  0  0  0  0  0  0  0
    4.2600   60.4319   68.1741 H   0  0  0  0  0  0  0  0  0  0  0  0
    2.6563   56.1995   72.8608 H   0  0  0  0  0  0  0  0  0  0  0  0
    4.2725   56.1283   69.7115 H   0  0  0  0  0  0  0  0  0  0  0  0
  2  1  1  0
  3  2  2  0
  4  3  1  0
  5  4  2  0
  6  5  1  0
  7  6  2  0
  8  7  1  0
  9  8  2  0
  9  4  1  0
 10  9  1  0
 11 10  2  0
 11  2  1  0
 12 11  1  0
 13  6  1  0
 14  7  1  0
  3 15  1  0
 10 16  1  0
 13 17  1  0
 14 18  1  0
M  END
>  <score>  (5) 
-7.344

$$$$
=
     RDKit          3D

 18 19  0  0  0  0  0  0  0  0999 V2000
    1.2470   68.6930   67.8290 Cl  0  0  0  0  0  0  0  0  0  0  0  0
    1.4480   68.7050   66.1150 C   0  0  0  0  0  0  0  0  0  0  0  0
    2.7500   68.7430   65.6120 C   0  0  0  0  0  0  0  0  0  0  0  0
    2.9910   68.7550   64.2460 C   0  0  0  0  0  0  0  0  0  0  0  0
    4.2630   68.7920   63.8050 N   0  0  0  0  0  0  0  0  0  0  0  0
    4.4140   68.8010   62.4690 C   0  0  0  0  0  0  0  0  0  0  0  0
    3.3420   68.7750   61.5930 C   0  0  0  0  0  0  0  0  0  0  0  0
    2.0640   68.7370   62.0100 N   0  0  0  0  0  0  0  0  0  0  0  0
    1.8870   68.7280   63.3450 C   0  0  0  0  0  0  0  0  0  0  0  0
    0.5990   68.6890   63.8550 C   0  0  0  0  0  0  0  0  0  0  0  0
    0.3670   68.6780   65.2320 C   0  0  0  0  0  0  0  0  0  0  0  0
   -1.2720   68.6300   65.7740 Cl  0  0  0  0  0  0  0  0  0  0  0  0
    5.7050   68.8390   62.0610 O   0  0  0  0  0  0  0  0  0  0  0  0
    3.4820   68.7830   60.2460 O   0  0  0  0  0  0  0  0  0  0  0  0
    3.5991   68.7638   66.3109 H   0  0  0  0  0  0  0  0  0  0  0  0
   -0.2557   68.6663   63.1629 H   0  0  0  0  0  0  0  0  0  0  0  0
    5.9186   68.8485   61.0944 H   0  0  0  0  0  0  0  0  0  0  0  0
    2.6807   68.7633   59.6649 H   0  0  0  0  0  0  0  0  0  0  0  0
  2  1  1  0
  3  2  2  0
  4  3  1  0
  5  4  2  0
  6  5  1  0
  7  6  2  0
  8  7  1  0
  9  8  2  0
  9  4  1  0
 10  9  1  0
 11 10  2  0
 11  2  1  0
 12 11  1  0
 13  6  1  0
 14  7  1  0
  3 15  1  0
 10 16  1  0
 13 17  1  0
 14 18  1  0
M  END
>  <score>  (6) 
-7.339

$$$$
=
     RDKit          3D

 18 19  0  0  0  0  0  0  0  0999 V2000
    5.6550   69.2220   63.1750 Cl  0  0  0  0  0  0  0  0  0  0  0  0
    3.9900   68.9660   63.5540 C   0  0  0  0  0  0  0  0  0  0  0  0
    3.6200   68.9740   64.9010 C   0  0  0  0  0  0  0  0  0  0  0  0
    2.3020   68.7760   65.2840 C   0  0  0  0  0  0  0  0  0  0  0  0
    1.9900   68.7930   66.5940 N   0  0  0  0  0  0  0  0  0  0  0  0
    0.6930   68.5920   66.8840 C   0  0  0  0  0  0  0  0  0  0  0  0
   -0.2690   68.3820   65.9110 C   0  0  0  0  0  0  0  0  0  0  0  0
    0.0180   68.3620   64.5970 N   0  0  0  0  0  0  0  0  0  0  0  0
    1.3130   68.5590   64.2810 C   0  0  0  0  0  0  0  0  0  0  0  0
    1.6900   68.5530   62.9480 C   0  0  0  0  0  0  0  0  0  0  0  0
    3.0200   68.7540   62.5730 C   0  0  0  0  0  0  0  0  0  0  0  0
    3.3960   68.7280   60.8880 Cl  0  0  0  0  0  0  0  0  0  0  0  0
    0.4150   68.6150   68.2100 O   0  0  0  0  0  0  0  0  0  0  0  0
   -1.5790   68.1800   66.1910 O   0  0  0  0  0  0  0  0  0  0  0  0
    4.3875   69.1403   65.6713 H   0  0  0  0  0  0  0  0  0  0  0  0
    0.9286   68.3871   62.1716 H   0  0  0  0  0  0  0  0  0  0  0  0
   -0.5138   68.4766   68.5235 H   0  0  0  0  0  0  0  0  0  0  0  0
   -2.2257   68.0346   65.4556 H   0  0  0  0  0  0  0  0  0  0  0  0
  2  1  1  0
  3  2  2  0
  4  3  1  0
  5  4  2  0
  6  5  1  0
  7  6  2  0
  8  7  1  0
  9  8  2  0
  9  4  1  0
 10  9  1  0
 11 10  2  0
 11  2  1  0
 12 11  1  0
 13  6  1  0
 14  7  1  0
  3 15  1  0
 10 16  1  0
 13 17  1  0
 14 18  1  0
M  END
>  <score>  (7) 
-7.093

$$$$
=
     RDKit          3D

 18 19  0  0  0  0  0  0  0  0999 V2000
    3.3960   68.7020   60.9400 Cl  0  0  0  0  0  0  0  0  0  0  0  0
    3.0200   68.7330   62.6240 C   0  0  0  0  0  0  0  0  0  0  0  0
    1.6920   68.5150   62.9990 C   0  0  0  0  0  0  0  0  0  0  0  0
    1.3130   68.5250   64.3330 C   0  0  0  0  0  0  0  0  0  0  0  0
    0.0220   68.3090   64.6490 N   0  0  0  0  0  0  0  0  0  0  0  0
   -0.2670   68.3350   65.9620 C   0  0  0  0  0  0  0  0  0  0  0  0
    0.6910   68.5660   66.9350 C   0  0  0  0  0  0  0  0  0  0  0  0
    1.9860   68.7830   66.6440 N   0  0  0  0  0  0  0  0  0  0  0  0
    2.2990   68.7630   65.3340 C   0  0  0  0  0  0  0  0  0  0  0  0
    3.6140   68.9770   64.9510 C   0  0  0  0  0  0  0  0  0  0  0  0
    3.9850   68.9650   63.6050 C   0  0  0  0  0  0  0  0  0  0  0  0
    5.6460   69.2430   63.2240 Cl  0  0  0  0  0  0  0  0  0  0  0  0
   -1.5730   68.1160   66.2430 O   0  0  0  0  0  0  0  0  0  0  0  0
    0.4130   68.5930   68.2610 O   0  0  0  0  0  0  0  0  0  0  0  0
    0.9341   68.3323   62.2230 H   0  0  0  0  0  0  0  0  0  0  0  0
    4.3783   69.1594   65.7208 H   0  0  0  0  0  0  0  0  0  0  0  0
   -1.8838   68.1159   67.1829 H   0  0  0  0  0  0  0  0  0  0  0  0
    1.1365   68.7627   68.9151 H   0  0  0  0  0  0  0  0  0  0  0  0
  2  1  1  0
  3  2  2  0
  4  3  1  0
  5  4  2  0
  6  5  1  0
  7  6  2  0
  8  7  1  0
  9  8  2  0
  9  4  1  0
 10  9  1  0
 11 10  2  0
 11  2  1  0
 12 11  1  0
 13  6  1  0
 14  7  1  0
  3 15  1  0
 10 16  1  0
 13 17  1  0
 14 18  1  0
M  END
>  <score>  (8) 
-7.081

$$$$
=
     RDKit          3D

 18 19  0  0  0  0  0  0  0  0999 V2000
    3.2910   68.7260   62.9670 Cl  0  0  0  0  0  0  0  0  0  0  0  0
    1.7730   68.6320   63.7830 C   0  0  0  0  0  0  0  0  0  0  0  0
    1.7440   68.0120   65.0350 C   0  0  0  0  0  0  0  0  0  0  0  0
    0.5620   67.8980   65.7510 C   0  0  0  0  0  0  0  0  0  0  0  0
    0.5800   67.2940   66.9540 N   0  0  0  0  0  0  0  0  0  0  0  0
   -0.6050   67.2230   67.5860 C   0  0  0  0  0  0  0  0  0  0  0  0
   -1.7730   67.7330   67.0470 C   0  0  0  0  0  0  0  0  0  0  0  0
   -1.8160   68.3410   65.8490 N   0  0  0  0  0  0  0  0  0  0  0  0
   -0.6410   68.4240   65.1960 C   0  0  0  0  0  0  0  0  0  0  0  0
   -0.6000   69.0380   63.9530 C   0  0  0  0  0  0  0  0  0  0  0  0
    0.5950   69.1460   63.2400 C   0  0  0  0  0  0  0  0  0  0  0  0
    0.5470   69.9260   61.7000 Cl  0  0  0  0  0  0  0  0  0  0  0  0
   -0.5500   66.6080   68.7920 O   0  0  0  0  0  0  0  0  0  0  0  0
   -2.9720   67.6680   67.6740 O   0  0  0  0  0  0  0  0  0  0  0  0
    2.6746   67.6075   65.4597 H   0  0  0  0  0  0  0  0  0  0  0  0
   -1.5255   69.4470   63.5216 H   0  0  0  0  0  0  0  0  0  0  0  0
   -1.3722   66.5069   69.3341 H   0  0  0  0  0  0  0  0  0  0  0  0
   -3.7774   68.0494   67.2428 H   0  0  0  0  0  0  0  0  0  0  0  0
  2  1  1  0
  3  2  2  0
  4  3  1  0
  5  4  2  0
  6  5  1  0
  7  6  2  0
  8  7  1  0
  9  8  2  0
  9  4  1  0
 10  9  1  0
 11 10  2  0
 11  2  1  0
 12 11  1  0
 13  6  1  0
 14  7  1  0
  3 15  1  0
 10 16  1  0
 13 17  1  0
 14 18  1  0
M  END
>  <score>  (9) 
-7.025

$$$$
