=
     RDKit          3D

 28 27  0  0  0  0  0  0  0  0999 V2000
    5.3500   69.0710   65.3420 C   0  0  0  0  0  0  0  0  0  0  0  0
    5.1950   69.4710   64.0690 C   0  0  0  0  0  0  0  0  0  0  0  0
    6.3550   70.3020   67.2050 C   0  0  0  0  0  0  0  0  0  0  0  0
    5.2870   69.9870   66.4570 C   0  0  0  0  0  0  0  0  0  0  0  0
    5.9510   72.4580   68.0280 O   0  0  0  0  0  1  0  0  0  0  0  0
    6.2750   71.2860   68.3740 C   0  0  0  0  0  0  0  0  0  0  0  0
    6.5320   70.8240   69.5200 O   0  0  0  0  0  0  0  0  0  0  0  0
    5.2620   68.6120   62.8340 C   0  0  2  0  0  0  0  0  0  0  0  0
    5.2990   69.4050   61.6510 O   0  0  0  0  0  0  0  0  0  0  0  0
    4.0550   67.6620   62.7600 C   0  0  0  0  0  0  0  0  0  0  0  0
    4.4300   66.2240   63.1380 C   0  0  0  0  0  0  0  0  0  0  0  0
    3.5330   65.6320   64.2280 C   0  0  0  0  0  0  0  0  0  0  0  0
    3.8610   64.1860   64.5660 C   0  0  0  0  0  0  0  0  0  0  0  0
    5.5319   68.0049   65.5430 H   0  0  0  0  0  0  0  0  0  0  0  0
    4.9978   70.5417   63.9118 H   0  0  0  0  0  0  0  0  0  0  0  0
    7.3232   69.8361   66.9695 H   0  0  0  0  0  0  0  0  0  0  0  0
    4.3190   70.4473   66.7041 H   0  0  0  0  0  0  0  0  0  0  0  0
    6.1893   68.0242   62.9014 H   0  0  0  0  0  0  0  0  0  0  0  0
    5.3437   70.3629   61.8971 H   0  0  0  0  0  0  0  0  0  0  0  0
    3.2787   68.0199   63.4523 H   0  0  0  0  0  0  0  0  0  0  0  0
    3.6913   67.6559   61.7219 H   0  0  0  0  0  0  0  0  0  0  0  0
    4.3499   65.5944   62.2395 H   0  0  0  0  0  0  0  0  0  0  0  0
    5.4550   66.2482   63.5365 H   0  0  0  0  0  0  0  0  0  0  0  0
    3.6475   66.2370   65.1395 H   0  0  0  0  0  0  0  0  0  0  0  0
    2.5028   65.6480   63.8426 H   0  0  0  0  0  0  0  0  0  0  0  0
    3.8891   64.0622   65.6586 H   0  0  0  0  0  0  0  0  0  0  0  0
    3.0897   63.5263   64.1419 H   0  0  0  0  0  0  0  0  0  0  0  0
    4.8415   63.9236   64.1419 H   0  0  0  0  0  0  0  0  0  0  0  0
  2  1  2  0
  4  1  1  0
  4  3  2  0
  6  3  1  0
  6  5  1  0
  7  6  2  0
  8  2  1  0
  9  8  1  0
 10  8  1  0
 11 10  1  0
 12 11  1  0
 13 12  1  0
  1 14  1  0
  2 15  1  0
  3 16  1  0
  4 17  1  0
  8 18  1  1
  9 19  1  0
 10 20  1  0
 10 21  1  0
 11 22  1  0
 11 23  1  0
 12 24  1  0
 12 25  1  0
 13 26  1  0
 13 27  1  0
 13 28  1  0
M  CHG  1   5  -1
M  END
>  <score>  (1) 
-6.817

$$$$
=
     RDKit          3D

 28 27  0  0  0  0  0  0  0  0999 V2000
    4.4610   69.0220   65.3950 C   0  0  0  0  0  0  0  0  0  0  0  0
    5.0480   69.3550   64.2330 C   0  0  0  0  0  0  0  0  0  0  0  0
    5.7120   70.3220   67.0500 C   0  0  0  0  0  0  0  0  0  0  0  0
    4.5500   69.8490   66.5750 C   0  0  0  0  0  0  0  0  0  0  0  0
    5.9100   72.4400   68.0300 O   0  0  0  0  0  1  0  0  0  0  0  0
    5.7890   71.2100   68.2940 C   0  0  0  0  0  0  0  0  0  0  0  0
    5.7190   70.6260   69.4100 O   0  0  0  0  0  0  0  0  0  0  0  0
    5.0390   68.5640   62.9520 C   0  0  2  0  0  0  0  0  0  0  0  0
    5.3880   69.3770   61.8360 O   0  0  0  0  0  0  0  0  0  0  0  0
    3.6560   67.9410   62.7020 C   0  0  0  0  0  0  0  0  0  0  0  0
    2.8560   68.7170   61.6480 C   0  0  0  0  0  0  0  0  0  0  0  0
    1.4120   68.9980   62.0710 C   0  0  0  0  0  0  0  0  0  0  0  0
    1.1390   68.7030   63.5370 C   0  0  0  0  0  0  0  0  0  0  0  0
    3.8906   68.0830   65.4492 H   0  0  0  0  0  0  0  0  0  0  0  0
    5.5946   70.3094   64.2159 H   0  0  0  0  0  0  0  0  0  0  0  0
    6.6436   70.0620   66.5261 H   0  0  0  0  0  0  0  0  0  0  0  0
    3.6225   70.1029   67.1091 H   0  0  0  0  0  0  0  0  0  0  0  0
    5.7880   67.7660   63.0622 H   0  0  0  0  0  0  0  0  0  0  0  0
    5.7574   70.2375   62.1573 H   0  0  0  0  0  0  0  0  0  0  0  0
    3.7907   66.9062   62.3542 H   0  0  0  0  0  0  0  0  0  0  0  0
    3.0935   67.9743   63.6467 H   0  0  0  0  0  0  0  0  0  0  0  0
    3.3595   69.6777   61.4647 H   0  0  0  0  0  0  0  0  0  0  0  0
    2.8153   68.0918   60.7439 H   0  0  0  0  0  0  0  0  0  0  0  0
    1.1952   70.0600   61.8837 H   0  0  0  0  0  0  0  0  0  0  0  0
    0.7673   68.3292   61.4819 H   0  0  0  0  0  0  0  0  0  0  0  0
    1.7525   69.3659   64.1648 H   0  0  0  0  0  0  0  0  0  0  0  0
    0.0743   68.8748   63.7535 H   0  0  0  0  0  0  0  0  0  0  0  0
    1.3927   67.6548   63.7535 H   0  0  0  0  0  0  0  0  0  0  0  0
  2  1  2  0
  4  1  1  0
  4  3  2  0
  6  3  1  0
  6  5  1  0
  7  6  2  0
  8  2  1  0
  9  8  1  0
 10  8  1  0
 11 10  1  0
 12 11  1  0
 13 12  1  0
  1 14  1  0
  2 15  1  0
  3 16  1  0
  4 17  1  0
  8 18  1  1
  9 19  1  0
 10 20  1  0
 10 21  1  0
 11 22  1  0
 11 23  1  0
 12 24  1  0
 12 25  1  0
 13 26  1  0
 13 27  1  0
 13 28  1  0
M  CHG  1   5  -1
M  END
>  <score>  (2) 
-6.789

$$$$
=
     RDKit          3D

 28 27  0  0  0  0  0  0  0  0999 V2000
    4.8890   69.1120   65.4810 C   0  0  0  0  0  0  0  0  0  0  0  0
    3.7260   69.0080   64.8160 C   0  0  0  0  0  0  0  0  0  0  0  0
    6.2810   70.2510   67.1420 C   0  0  0  0  0  0  0  0  0  0  0  0
    5.1010   70.0850   66.5280 C   0  0  0  0  0  0  0  0  0  0  0  0
    7.2120   70.8850   69.1960 O   0  0  0  0  0  1  0  0  0  0  0  0
    6.4940   71.2960   68.2400 C   0  0  0  0  0  0  0  0  0  0  0  0
    5.9460   72.4190   68.0640 O   0  0  0  0  0  0  0  0  0  0  0  0
    3.4020   68.0520   63.7000 C   0  0  2  0  0  0  0  0  0  0  0  0
    2.1030   68.2940   63.1670 O   0  0  0  0  0  0  0  0  0  0  0  0
    3.4770   66.5950   64.1860 C   0  0  0  0  0  0  0  0  0  0  0  0
    4.4880   65.7700   63.3790 C   0  0  0  0  0  0  0  0  0  0  0  0
    4.8150   64.4190   64.0210 C   0  0  0  0  0  0  0  0  0  0  0  0
    3.7440   63.9280   64.9840 C   0  0  0  0  0  0  0  0  0  0  0  0
    5.7113   68.4302   65.2182 H   0  0  0  0  0  0  0  0  0  0  0  0
    2.9238   69.6963   65.1204 H   0  0  0  0  0  0  0  0  0  0  0  0
    7.1269   69.6131   66.8461 H   0  0  0  0  0  0  0  0  0  0  0  0
    4.2557   70.7183   66.8352 H   0  0  0  0  0  0  0  0  0  0  0  0
    4.1500   68.2164   62.9104 H   0  0  0  0  0  0  0  0  0  0  0  0
    1.4589   68.4140   63.9092 H   0  0  0  0  0  0  0  0  0  0  0  0
    3.7779   66.5888   65.2440 H   0  0  0  0  0  0  0  0  0  0  0  0
    2.4842   66.1409   64.0514 H   0  0  0  0  0  0  0  0  0  0  0  0
    4.0710   65.5890   62.3773 H   0  0  0  0  0  0  0  0  0  0  0  0
    5.4233   66.3476   63.3397 H   0  0  0  0  0  0  0  0  0  0  0  0
    4.9322   63.6730   63.2212 H   0  0  0  0  0  0  0  0  0  0  0  0
    5.7373   64.5538   64.6051 H   0  0  0  0  0  0  0  0  0  0  0  0
    4.0826   64.0832   66.0190 H   0  0  0  0  0  0  0  0  0  0  0  0
    2.8133   64.4894   64.8146 H   0  0  0  0  0  0  0  0  0  0  0  0
    3.5619   62.8565   64.8146 H   0  0  0  0  0  0  0  0  0  0  0  0
  2  1  2  0
  4  1  1  0
  4  3  2  0
  6  3  1  0
  6  5  1  0
  7  6  2  0
  8  2  1  0
  9  8  1  0
 10  8  1  0
 11 10  1  0
 12 11  1  0
 13 12  1  0
  1 14  1  0
  2 15  1  0
  3 16  1  0
  4 17  1  0
  8 18  1  6
  9 19  1  0
 10 20  1  0
 10 21  1  0
 11 22  1  0
 11 23  1  0
 12 24  1  0
 12 25  1  0
 13 26  1  0
 13 27  1  0
 13 28  1  0
M  CHG  1   5  -1
M  END
>  <score>  (3) 
-6.668

$$$$
=
     RDKit          3D

 28 27  0  0  0  0  0  0  0  0999 V2000
    2.6770   69.0840   66.3200 C   0  0  0  0  0  0  0  0  0  0  0  0
    3.6150   69.4660   67.2020 C   0  0  0  0  0  0  0  0  0  0  0  0
    4.0970   69.1090   64.3260 C   0  0  0  0  0  0  0  0  0  0  0  0
    2.9960   68.6920   64.9660 C   0  0  0  0  0  0  0  0  0  0  0  0
    3.4370   68.7090   62.1140 O   0  0  0  0  0  1  0  0  0  0  0  0
    4.4290   68.6740   62.8970 C   0  0  0  0  0  0  0  0  0  0  0  0
    5.6250   68.3430   62.6700 O   0  0  0  0  0  0  0  0  0  0  0  0
    3.3970   69.9120   68.6230 C   0  0  2  0  0  0  0  0  0  0  0  0
    2.1530   70.5910   68.7700 O   0  0  0  0  0  0  0  0  0  0  0  0
    4.5300   70.8420   69.0860 C   0  0  0  0  0  0  0  0  0  0  0  0
    5.7040   70.8570   68.0990 C   0  0  0  0  0  0  0  0  0  0  0  0
    7.0540   71.1230   68.7700 C   0  0  0  0  0  0  0  0  0  0  0  0
    7.1460   70.5840   70.1890 C   0  0  0  0  0  0  0  0  0  0  0  0
    1.6249   69.0689   66.6407 H   0  0  0  0  0  0  0  0  0  0  0  0
    4.6561   69.4513   66.8473 H   0  0  0  0  0  0  0  0  0  0  0  0
    4.7873   69.7888   64.8469 H   0  0  0  0  0  0  0  0  0  0  0  0
    2.3036   68.0209   64.4368 H   0  0  0  0  0  0  0  0  0  0  0  0
    3.3868   69.0055   69.2460 H   0  0  0  0  0  0  0  0  0  0  0  0
    1.9494   70.7021   69.7324 H   0  0  0  0  0  0  0  0  0  0  0  0
    4.1336   71.8637   69.1813 H   0  0  0  0  0  0  0  0  0  0  0  0
    4.9031   70.4671   70.0505 H   0  0  0  0  0  0  0  0  0  0  0  0
    5.7503   69.8797   67.5962 H   0  0  0  0  0  0  0  0  0  0  0  0
    5.5242   71.6788   67.3903 H   0  0  0  0  0  0  0  0  0  0  0  0
    7.8417   70.6487   68.1662 H   0  0  0  0  0  0  0  0  0  0  0  0
    7.1738   72.2147   68.8315 H   0  0  0  0  0  0  0  0  0  0  0  0
    7.0054   71.4080   70.9040 H   0  0  0  0  0  0  0  0  0  0  0  0
    6.3643   69.8260   70.3447 H   0  0  0  0  0  0  0  0  0  0  0  0
    8.1349   70.1282   70.3447 H   0  0  0  0  0  0  0  0  0  0  0  0
  2  1  2  0
  4  1  1  0
  4  3  2  0
  6  3  1  0
  6  5  1  0
  7  6  2  0
  8  2  1  0
  9  8  1  0
 10  8  1  0
 11 10  1  0
 12 11  1  0
 13 12  1  0
  1 14  1  0
  2 15  1  0
  3 16  1  0
  4 17  1  0
  8 18  1  1
  9 19  1  0
 10 20  1  0
 10 21  1  0
 11 22  1  0
 11 23  1  0
 12 24  1  0
 12 25  1  0
 13 26  1  0
 13 27  1  0
 13 28  1  0
M  CHG  1   5  -1
M  END
>  <score>  (4) 
-6.512

$$$$
=
     RDKit          3D

 28 27  0  0  0  0  0  0  0  0999 V2000
    3.0810   68.1640   65.1470 C   0  0  0  0  0  0  0  0  0  0  0  0
    3.5980   69.2610   65.7230 C   0  0  0  0  0  0  0  0  0  0  0  0
    0.8400   68.4520   66.0920 C   0  0  0  0  0  0  0  0  0  0  0  0
    1.6980   67.7770   65.3130 C   0  0  0  0  0  0  0  0  0  0  0  0
   -1.4420   68.9720   66.0030 O   0  0  0  0  0  1  0  0  0  0  0  0
   -0.6250   68.0380   66.2470 C   0  0  0  0  0  0  0  0  0  0  0  0
   -0.8420   66.8430   66.5860 O   0  0  0  0  0  0  0  0  0  0  0  0
    5.0200   69.7470   65.6370 C   0  0  2  0  0  0  0  0  0  0  0  0
    5.7970   68.9280   64.7680 O   0  0  0  0  0  0  0  0  0  0  0  0
    5.6790   69.7660   67.0250 C   0  0  0  0  0  0  0  0  0  0  0  0
    6.7020   70.9000   67.1630 C   0  0  0  0  0  0  0  0  0  0  0  0
    6.6980   71.5540   68.5470 C   0  0  0  0  0  0  0  0  0  0  0  0
    7.5820   70.8410   69.5590 C   0  0  0  0  0  0  0  0  0  0  0  0
    3.7350   67.5354   64.5247 H   0  0  0  0  0  0  0  0  0  0  0  0
    2.9071   69.8712   66.3232 H   0  0  0  0  0  0  0  0  0  0  0  0
    1.2023   69.3348   66.6391 H   0  0  0  0  0  0  0  0  0  0  0  0
    1.3330   66.8889   64.7762 H   0  0  0  0  0  0  0  0  0  0  0  0
    4.9859   70.7693   65.2324 H   0  0  0  0  0  0  0  0  0  0  0  0
    6.3688   68.3253   65.3063 H   0  0  0  0  0  0  0  0  0  0  0  0
    4.8970   69.8992   67.7870 H   0  0  0  0  0  0  0  0  0  0  0  0
    6.2104   68.8124   67.1605 H   0  0  0  0  0  0  0  0  0  0  0  0
    7.7051   70.4903   66.9733 H   0  0  0  0  0  0  0  0  0  0  0  0
    6.4271   71.6771   66.4346 H   0  0  0  0  0  0  0  0  0  0  0  0
    7.0534   72.5898   68.4434 H   0  0  0  0  0  0  0  0  0  0  0  0
    5.6666   71.5020   68.9258 H   0  0  0  0  0  0  0  0  0  0  0  0
    7.2580   71.1023   70.5772 H   0  0  0  0  0  0  0  0  0  0  0  0
    7.4997   69.7535   69.4158 H   0  0  0  0  0  0  0  0  0  0  0  0
    8.6275   71.1516   69.4158 H   0  0  0  0  0  0  0  0  0  0  0  0
  2  1  2  0
  4  1  1  0
  4  3  2  0
  6  3  1  0
  6  5  1  0
  7  6  2  0
  8  2  1  0
  9  8  1  0
 10  8  1  0
 11 10  1  0
 12 11  1  0
 13 12  1  0
  1 14  1  0
  2 15  1  0
  3 16  1  0
  4 17  1  0
  8 18  1  6
  9 19  1  0
 10 20  1  0
 10 21  1  0
 11 22  1  0
 11 23  1  0
 12 24  1  0
 12 25  1  0
 13 26  1  0
 13 27  1  0
 13 28  1  0
M  CHG  1   5  -1
M  END
>  <score>  (5) 
-6.333

$$$$
=
     RDKit          3D

 28 27  0  0  0  0  0  0  0  0999 V2000
    3.4190   69.0870   66.1990 C   0  0  0  0  0  0  0  0  0  0  0  0
    2.1250   68.7250   66.1960 C   0  0  0  0  0  0  0  0  0  0  0  0
    5.2590   70.3510   67.2040 C   0  0  0  0  0  0  0  0  0  0  0  0
    3.9960   69.9020   67.2430 C   0  0  0  0  0  0  0  0  0  0  0  0
    6.1490   70.5840   69.3590 O   0  0  0  0  0  1  0  0  0  0  0  0
    5.8520   71.2260   68.3110 C   0  0  0  0  0  0  0  0  0  0  0  0
    5.9760   72.4550   68.0530 O   0  0  0  0  0  0  0  0  0  0  0  0
    1.4160   67.9000   65.1560 C   0  0  2  0  0  0  0  0  0  0  0  0
    0.7930   66.7570   65.7350 O   0  0  0  0  0  0  0  0  0  0  0  0
    2.3920   67.4360   64.0640 C   0  0  0  0  0  0  0  0  0  0  0  0
    2.3330   68.3310   62.8190 C   0  0  0  0  0  0  0  0  0  0  0  0
    3.7140   68.7020   62.2750 C   0  0  0  0  0  0  0  0  0  0  0  0
    4.7440   67.5930   62.4220 C   0  0  0  0  0  0  0  0  0  0  0  0
    4.0641   68.7496   65.3744 H   0  0  0  0  0  0  0  0  0  0  0  0
    1.5178   69.0691   67.0462 H   0  0  0  0  0  0  0  0  0  0  0  0
    5.8916   70.0808   66.3456 H   0  0  0  0  0  0  0  0  0  0  0  0
    3.3712   70.1661   68.1089 H   0  0  0  0  0  0  0  0  0  0  0  0
    0.6429   68.5425   64.7093 H   0  0  0  0  0  0  0  0  0  0  0  0
    0.8302   66.8253   66.7219 H   0  0  0  0  0  0  0  0  0  0  0  0
    3.4144   67.4588   64.4691 H   0  0  0  0  0  0  0  0  0  0  0  0
    2.1046   66.4177   63.7631 H   0  0  0  0  0  0  0  0  0  0  0  0
    1.7791   67.7983   62.0319 H   0  0  0  0  0  0  0  0  0  0  0  0
    1.8364   69.2672   63.1138 H   0  0  0  0  0  0  0  0  0  0  0  0
    3.6135   68.9439   61.2067 H   0  0  0  0  0  0  0  0  0  0  0  0
    4.0743   69.5573   62.8654 H   0  0  0  0  0  0  0  0  0  0  0  0
    4.9241   67.3991   63.4897 H   0  0  0  0  0  0  0  0  0  0  0  0
    4.3684   66.6777   61.9413 H   0  0  0  0  0  0  0  0  0  0  0  0
    5.6846   67.9001   61.9413 H   0  0  0  0  0  0  0  0  0  0  0  0
  2  1  2  0
  4  1  1  0
  4  3  2  0
  6  3  1  0
  6  5  1  0
  7  6  2  0
  8  2  1  0
  9  8  1  0
 10  8  1  0
 11 10  1  0
 12 11  1  0
 13 12  1  0
  1 14  1  0
  2 15  1  0
  3 16  1  0
  4 17  1  0
  8 18  1  6
  9 19  1  0
 10 20  1  0
 10 21  1  0
 11 22  1  0
 11 23  1  0
 12 24  1  0
 12 25  1  0
 13 26  1  0
 13 27  1  0
 13 28  1  0
M  CHG  1   5  -1
M  END
>  <score>  (6) 
-6.199

$$$$
=
     RDKit          3D

 28 27  0  0  0  0  0  0  0  0999 V2000
    4.4020   67.6550   63.9130 C   0  0  0  0  0  0  0  0  0  0  0  0
    4.6990   68.3890   64.9980 C   0  0  0  0  0  0  0  0  0  0  0  0
    4.8180   65.2420   63.8790 C   0  0  0  0  0  0  0  0  0  0  0  0
    3.9740   66.2780   64.0000 C   0  0  0  0  0  0  0  0  0  0  0  0
    3.5420   63.5870   64.9400 O   0  0  0  0  0  1  0  0  0  0  0  0
    4.3520   63.7890   63.9890 C   0  0  0  0  0  0  0  0  0  0  0  0
    4.8140   62.9810   63.1370 O   0  0  0  0  0  0  0  0  0  0  0  0
    5.1720   69.8180   65.0240 C   0  0  2  0  0  0  0  0  0  0  0  0
    5.9900   70.1170   63.8960 O   0  0  0  0  0  0  0  0  0  0  0  0
    5.9670   70.1090   66.3070 C   0  0  0  0  0  0  0  0  0  0  0  0
    5.0910   70.0170   67.5620 C   0  0  0  0  0  0  0  0  0  0  0  0
    5.4810   71.0230   68.6480 C   0  0  0  0  0  0  0  0  0  0  0  0
    6.9240   70.8900   69.1090 C   0  0  0  0  0  0  0  0  0  0  0  0
    4.4880   68.1203   62.9200 H   0  0  0  0  0  0  0  0  0  0  0  0
    4.5842   67.8924   65.9728 H   0  0  0  0  0  0  0  0  0  0  0  0
    5.8832   65.4447   63.6941 H   0  0  0  0  0  0  0  0  0  0  0  0
    2.9080   66.0694   64.1733 H   0  0  0  0  0  0  0  0  0  0  0  0
    4.2745   70.4534   64.9941 H   0  0  0  0  0  0  0  0  0  0  0  0
    6.8733   70.4399   64.2052 H   0  0  0  0  0  0  0  0  0  0  0  0
    6.7848   69.3781   66.3910 H   0  0  0  0  0  0  0  0  0  0  0  0
    6.3549   71.1361   66.2394 H   0  0  0  0  0  0  0  0  0  0  0  0
    4.0461   70.2030   67.2728 H   0  0  0  0  0  0  0  0  0  0  0  0
    5.2315   69.0110   67.9843 H   0  0  0  0  0  0  0  0  0  0  0  0
    5.3347   72.0383   68.2507 H   0  0  0  0  0  0  0  0  0  0  0  0
    4.8428   70.8202   69.5207 H   0  0  0  0  0  0  0  0  0  0  0  0
    6.9589   70.8868   70.2084 H   0  0  0  0  0  0  0  0  0  0  0  0
    7.3460   69.9491   68.7260 H   0  0  0  0  0  0  0  0  0  0  0  0
    7.5109   71.7379   68.7260 H   0  0  0  0  0  0  0  0  0  0  0  0
  2  1  2  0
  4  1  1  0
  4  3  2  0
  6  3  1  0
  6  5  1  0
  7  6  2  0
  8  2  1  0
  9  8  1  0
 10  8  1  0
 11 10  1  0
 12 11  1  0
 13 12  1  0
  1 14  1  0
  2 15  1  0
  3 16  1  0
  4 17  1  0
  8 18  1  6
  9 19  1  0
 10 20  1  0
 10 21  1  0
 11 22  1  0
 11 23  1  0
 12 24  1  0
 12 25  1  0
 13 26  1  0
 13 27  1  0
 13 28  1  0
M  CHG  1   5  -1
M  END
>  <score>  (7) 
-6.163

$$$$
=
     RDKit          3D

 28 27  0  0  0  0  0  0  0  0999 V2000
    4.1170   69.1400   65.9870 C   0  0  0  0  0  0  0  0  0  0  0  0
    3.6770   69.1800   64.7180 C   0  0  0  0  0  0  0  0  0  0  0  0
    5.2430   70.2990   67.8260 C   0  0  0  0  0  0  0  0  0  0  0  0
    5.0590   70.1000   66.5130 C   0  0  0  0  0  0  0  0  0  0  0  0
    5.9680   72.5100   68.0980 O   0  0  0  0  0  1  0  0  0  0  0  0
    6.2560   71.3090   68.3690 C   0  0  0  0  0  0  0  0  0  0  0  0
    7.2340   70.8390   69.0120 O   0  0  0  0  0  0  0  0  0  0  0  0
    2.7170   68.2250   64.0600 C   0  0  2  0  0  0  0  0  0  0  0  0
    3.0490   68.0150   62.6910 O   0  0  0  0  0  0  0  0  0  0  0  0
    1.2750   68.7500   64.1480 C   0  0  0  0  0  0  0  0  0  0  0  0
    0.4800   68.0640   65.2660 C   0  0  0  0  0  0  0  0  0  0  0  0
    0.6490   68.7390   66.6300 C   0  0  0  0  0  0  0  0  0  0  0  0
    0.5760   67.7700   67.8000 C   0  0  0  0  0  0  0  0  0  0  0  0
    3.7454   68.3454   66.6508 H   0  0  0  0  0  0  0  0  0  0  0  0
    4.0598   69.9995   64.0920 H   0  0  0  0  0  0  0  0  0  0  0  0
    4.6435   69.7145   68.5394 H   0  0  0  0  0  0  0  0  0  0  0  0
    5.6528   70.6953   65.8038 H   0  0  0  0  0  0  0  0  0  0  0  0
    2.7947   67.2691   64.5987 H   0  0  0  0  0  0  0  0  0  0  0  0
    3.8841   67.4867   62.6313 H   0  0  0  0  0  0  0  0  0  0  0  0
    1.3025   69.8320   64.3445 H   0  0  0  0  0  0  0  0  0  0  0  0
    0.7753   68.5312   63.1928 H   0  0  0  0  0  0  0  0  0  0  0  0
   -0.5866   68.0813   64.9974 H   0  0  0  0  0  0  0  0  0  0  0  0
    0.8668   67.0385   65.3594 H   0  0  0  0  0  0  0  0  0  0  0  0
    1.6288   69.2384   66.6522 H   0  0  0  0  0  0  0  0  0  0  0  0
   -0.1838   69.4484   66.7452 H   0  0  0  0  0  0  0  0  0  0  0  0
    0.6183   68.3319   68.7447 H   0  0  0  0  0  0  0  0  0  0  0  0
   -0.3672   67.2061   67.7508 H   0  0  0  0  0  0  0  0  0  0  0  0
    1.4240   67.0711   67.7508 H   0  0  0  0  0  0  0  0  0  0  0  0
  2  1  2  0
  4  1  1  0
  4  3  2  0
  6  3  1  0
  6  5  1  0
  7  6  2  0
  8  2  1  0
  9  8  1  0
 10  8  1  0
 11 10  1  0
 12 11  1  0
 13 12  1  0
  1 14  1  0
  2 15  1  0
  3 16  1  0
  4 17  1  0
  8 18  1  1
  9 19  1  0
 10 20  1  0
 10 21  1  0
 11 22  1  0
 11 23  1  0
 12 24  1  0
 12 25  1  0
 13 26  1  0
 13 27  1  0
 13 28  1  0
M  CHG  1   5  -1
M  END
>  <score>  (8) 
-6.135

$$$$
=
     RDKit          3D

 28 27  0  0  0  0  0  0  0  0999 V2000
    2.3790   68.8300   66.9110 C   0  0  0  0  0  0  0  0  0  0  0  0
    2.5310   68.1740   65.7480 C   0  0  0  0  0  0  0  0  0  0  0  0
    4.6480   69.7460   66.9980 C   0  0  0  0  0  0  0  0  0  0  0  0
    3.3780   69.7360   67.4280 C   0  0  0  0  0  0  0  0  0  0  0  0
    6.3100   71.3580   66.6450 O   0  0  0  0  0  1  0  0  0  0  0  0
    5.6910   70.7230   67.5460 C   0  0  0  0  0  0  0  0  0  0  0  0
    5.8060   70.7820   68.8010 O   0  0  0  0  0  0  0  0  0  0  0  0
    1.5720   67.1950   65.1260 C   0  0  2  0  0  0  0  0  0  0  0  0
    0.5010   66.8810   66.0120 O   0  0  0  0  0  0  0  0  0  0  0  0
    2.2910   65.8950   64.7330 C   0  0  0  0  0  0  0  0  0  0  0  0
    3.5910   66.1650   63.9650 C   0  0  0  0  0  0  0  0  0  0  0  0
    4.5900   65.0070   64.0420 C   0  0  0  0  0  0  0  0  0  0  0  0
    3.9740   63.7030   64.5230 C   0  0  0  0  0  0  0  0  0  0  0  0
    1.4583   68.6708   67.4915 H   0  0  0  0  0  0  0  0  0  0  0  0
    3.4574   68.3745   65.1898 H   0  0  0  0  0  0  0  0  0  0  0  0
    4.9512   69.0261   66.2235 H   0  0  0  0  0  0  0  0  0  0  0  0
    3.0834   70.4507   68.2105 H   0  0  0  0  0  0  0  0  0  0  0  0
    1.1633   67.6758   64.2250 H   0  0  0  0  0  0  0  0  0  0  0  0
    0.8099   66.9716   66.9482 H   0  0  0  0  0  0  0  0  0  0  0  0
    2.5294   65.3311   65.6469 H   0  0  0  0  0  0  0  0  0  0  0  0
    1.6209   65.3226   64.0747 H   0  0  0  0  0  0  0  0  0  0  0  0
    3.3422   66.3421   62.9083 H   0  0  0  0  0  0  0  0  0  0  0  0
    4.0690   67.0399   64.4298 H   0  0  0  0  0  0  0  0  0  0  0  0
    5.0110   64.8436   63.0390 H   0  0  0  0  0  0  0  0  0  0  0  0
    5.3577   65.2915   64.7766 H   0  0  0  0  0  0  0  0  0  0  0  0
    3.9656   63.6852   65.6228 H   0  0  0  0  0  0  0  0  0  0  0  0
    2.9433   63.6238   64.1471 H   0  0  0  0  0  0  0  0  0  0  0  0
    4.5674   62.8565   64.1471 H   0  0  0  0  0  0  0  0  0  0  0  0
  2  1  2  0
  4  1  1  0
  4  3  2  0
  6  3  1  0
  6  5  1  0
  7  6  2  0
  8  2  1  0
  9  8  1  0
 10  8  1  0
 11 10  1  0
 12 11  1  0
 13 12  1  0
  1 14  1  0
  2 15  1  0
  3 16  1  0
  4 17  1  0
  8 18  1  6
  9 19  1  0
 10 20  1  0
 10 21  1  0
 11 22  1  0
 11 23  1  0
 12 24  1  0
 12 25  1  0
 13 26  1  0
 13 27  1  0
 13 28  1  0
M  CHG  1   5  -1
M  END
>  <score>  (9) 
-6.009

$$$$
