=
     RDKit          3D

 69 73  0  0  0  0  0  0  0  0999 V2000
   -0.7260   67.2980   68.4140 C   0  0  0  0  0  0  0  0  0  0  0  0
    0.5960   66.8470   69.0490 C   0  0  0  0  0  0  0  0  0  0  0  0
    0.4410   66.0740   70.3570 C   0  0  0  0  0  0  0  0  0  0  0  0
    1.0590   63.8970   71.3430 C   0  0  0  0  0  0  0  0  0  0  0  0
    0.6500   64.2150   72.4570 O   0  0  0  0  0  0  0  0  0  0  0  0
    0.9340   64.7170   70.2490 N   0  0  0  0  0  0  0  0  0  0  0  0
    1.9370   56.8140   73.4090 C   0  0  0  0  0  0  0  0  0  0  0  0
    2.2550   57.9380   72.4660 C   0  0  0  0  0  0  0  0  0  0  0  0
    3.1800   57.7510   71.4280 C   0  0  0  0  0  0  0  0  0  0  0  0
    3.5000   58.8020   70.5710 C   0  0  0  0  0  0  0  0  0  0  0  0
    2.8970   60.0420   70.7650 C   0  0  0  0  0  0  0  0  0  0  0  0
    1.9890   60.2590   71.7930 C   0  0  0  0  0  0  0  0  0  0  0  0
    1.6710   59.2030   72.6490 C   0  0  0  0  0  0  0  0  0  0  0  0
    1.4010   61.5800   71.9400 C   0  0  0  0  0  0  0  0  0  0  0  0
    1.7270   62.5780   71.1020 C   0  0  0  0  0  0  0  0  0  0  0  0
    2.7020   62.3550   70.0100 C   0  0  0  0  0  0  0  0  0  0  0  0
    3.0310   63.2520   69.2390 O   0  0  0  0  0  0  0  0  0  0  0  0
    3.2450   61.0800   69.8840 O   0  0  0  0  0  0  0  0  0  0  0  0
   -0.7910   67.2120   66.8850 C   0  0  0  0  0  0  0  0  0  0  0  0
   -0.9890   68.5420   66.1530 C   0  0  0  0  0  0  0  0  0  0  0  0
    0.3000   69.1030   65.5510 C   0  0  0  0  0  0  0  0  0  0  0  0
    1.4000   68.1690   65.8310 N   0  0  0  0  0  0  0  0  0  0  0  0
    2.6740   68.7890   65.6620 C   0  0  0  0  0  0  0  0  0  0  0  0
    3.3540   68.7210   64.4270 C   0  0  0  0  0  0  0  0  0  0  0  0
    2.7420   68.0630   63.2130 C   0  0  0  0  0  0  0  0  0  0  0  0
    3.4770   68.3440   61.9030 C   0  0  0  0  0  0  0  0  0  0  0  0
    4.9780   68.1950   62.0910 C   0  0  0  0  0  0  0  0  0  0  0  0
    5.4690   69.2170   63.1100 C   0  0  0  0  0  0  0  0  0  0  0  0
    4.6550   69.2290   64.3800 C   0  0  0  0  0  0  0  0  0  0  0  0
    5.2710   69.8010   65.4420 N   0  0  0  0  0  0  0  0  0  0  0  0
    4.6180   69.8810   66.6070 C   0  0  0  0  0  0  0  0  0  0  0  0
    3.3110   69.3890   66.7830 C   0  0  0  0  0  0  0  0  0  0  0  0
    2.6950   69.5330   68.0500 C   0  0  0  0  0  0  0  0  0  0  0  0
    3.3610   70.1300   69.1180 C   0  0  0  0  0  0  0  0  0  0  0  0
    4.6530   70.6000   68.9370 C   0  0  0  0  0  0  0  0  0  0  0  0
    5.2640   70.4720   67.6870 C   0  0  0  0  0  0  0  0  0  0  0  0
   -1.5298   66.6679   68.8226 H   0  0  0  0  0  0  0  0  0  0  0  0
   -0.8284   68.3654   68.6594 H   0  0  0  0  0  0  0  0  0  0  0  0
    1.1201   66.2015   68.3288 H   0  0  0  0  0  0  0  0  0  0  0  0
    1.1540   67.7632   69.2922 H   0  0  0  0  0  0  0  0  0  0  0  0
    1.0044   66.5944   71.1455 H   0  0  0  0  0  0  0  0  0  0  0  0
   -0.6313   66.0268   70.5977 H   0  0  0  0  0  0  0  0  0  0  0  0
    1.1994   64.3553   69.3219 H   0  0  0  0  0  0  0  0  0  0  0  0
    2.0367   57.1663   74.4463 H   0  0  0  0  0  0  0  0  0  0  0  0
    0.9064   56.4706   73.2358 H   0  0  0  0  0  0  0  0  0  0  0  0
    2.6349   55.9815   73.2358 H   0  0  0  0  0  0  0  0  0  0  0  0
    3.6555   56.7688   71.2898 H   0  0  0  0  0  0  0  0  0  0  0  0
    4.2194   58.6541   69.7521 H   0  0  0  0  0  0  0  0  0  0  0  0
    0.9587   59.3622   73.4720 H   0  0  0  0  0  0  0  0  0  0  0  0
    0.6789   61.7652   72.7488 H   0  0  0  0  0  0  0  0  0  0  0  0
    0.1514   66.7685   66.5311 H   0  0  0  0  0  0  0  0  0  0  0  0
   -1.6817   66.6084   66.6563 H   0  0  0  0  0  0  0  0  0  0  0  0
   -1.7147   68.3881   65.3408 H   0  0  0  0  0  0  0  0  0  0  0  0
   -1.3441   69.2713   66.8960 H   0  0  0  0  0  0  0  0  0  0  0  0
    0.1806   69.2180   64.4636 H   0  0  0  0  0  0  0  0  0  0  0  0
    0.5223   70.0852   65.9935 H   0  0  0  0  0  0  0  0  0  0  0  0
    1.2674   67.1877   66.1144 H   0  0  0  0  0  0  0  0  0  0  0  0
    2.7364   66.9754   63.3776 H   0  0  0  0  0  0  0  0  0  0  0  0
    1.7326   68.4860   63.1028 H   0  0  0  0  0  0  0  0  0  0  0  0
    3.1359   67.6322   61.1369 H   0  0  0  0  0  0  0  0  0  0  0  0
    3.2590   69.3750   61.5874 H   0  0  0  0  0  0  0  0  0  0  0  0
    5.2029   67.1806   62.4521 H   0  0  0  0  0  0  0  0  0  0  0  0
    5.4854   68.3643   61.1298 H   0  0  0  0  0  0  0  0  0  0  0  0
    6.5126   68.9817   63.3660 H   0  0  0  0  0  0  0  0  0  0  0  0
    5.3703   70.2110   62.6493 H   0  0  0  0  0  0  0  0  0  0  0  0
    1.6683   69.1654   68.1940 H   0  0  0  0  0  0  0  0  0  0  0  0
    2.8666   70.2277   70.0958 H   0  0  0  0  0  0  0  0  0  0  0  0
    5.1932   71.0704   69.7718 H   0  0  0  0  0  0  0  0  0  0  0  0
    6.2881   70.8506   67.5532 H   0  0  0  0  0  0  0  0  0  0  0  0
  2  1  1  0
  3  2  1  0
  5  4  2  0
  6  4  1  0
  6  3  1  0
  8  7  1  0
  9  8  2  0
 10  9  1  0
 11 10  2  0
 12 11  1  0
 13  8  1  0
 13 12  2  0
 14 12  1  0
 15 14  2  0
 15  4  1  0
 16 15  1  0
 17 16  2  0
 18 16  1  0
 18 11  1  0
 19  1  1  0
 20 19  1  0
 21 20  1  0
 22 21  1  0
 23 22  1  0
 24 23  1  0
 25 24  1  0
 26 25  1  0
 27 26  1  0
 28 27  1  0
 29 24  2  0
 29 28  1  0
 30 29  1  0
 31 30  2  0
 32 31  1  0
 32 23  2  0
 33 32  1  0
 34 33  2  0
 35 34  1  0
 36 35  2  0
 36 31  1  0
  1 37  1  0
  1 38  1  0
  2 39  1  0
  2 40  1  0
  3 41  1  0
  3 42  1  0
  6 43  1  0
  7 44  1  0
  7 45  1  0
  7 46  1  0
  9 47  1  0
 10 48  1  0
 13 49  1  0
 14 50  1  0
 19 51  1  0
 19 52  1  0
 20 53  1  0
 20 54  1  0
 21 55  1  0
 21 56  1  0
 22 57  1  0
 25 58  1  0
 25 59  1  0
 26 60  1  0
 26 61  1  0
 27 62  1  0
 27 63  1  0
 28 64  1  0
 28 65  1  0
 33 66  1  0
 34 67  1  0
 35 68  1  0
 36 69  1  0
M  END
>  <score>  (1) 
-12.341

$$$$
=
     RDKit          3D

 69 73  0  0  0  0  0  0  0  0999 V2000
   -0.3210   67.2040   68.2590 C   0  0  0  0  0  0  0  0  0  0  0  0
   -1.4580   67.2510   67.2300 C   0  0  0  0  0  0  0  0  0  0  0  0
   -1.3210   68.3520   66.1810 C   0  0  0  0  0  0  0  0  0  0  0  0
    0.9250   68.3480   65.1570 C   0  0  0  0  0  0  0  0  0  0  0  0
    0.5920   67.5530   64.2820 O   0  0  0  0  0  0  0  0  0  0  0  0
    0.0380   68.8410   66.0820 N   0  0  0  0  0  0  0  0  0  0  0  0
    6.3630   70.8950   69.5350 C   0  0  0  0  0  0  0  0  0  0  0  0
    5.8820   70.4750   68.1760 C   0  0  0  0  0  0  0  0  0  0  0  0
    6.7270   70.5830   67.0610 C   0  0  0  0  0  0  0  0  0  0  0  0
    6.2720   70.2230   65.7940 C   0  0  0  0  0  0  0  0  0  0  0  0
    4.9670   69.7640   65.6480 C   0  0  0  0  0  0  0  0  0  0  0  0
    4.1040   69.6600   66.7320 C   0  0  0  0  0  0  0  0  0  0  0  0
    4.5640   70.0220   68.0000 C   0  0  0  0  0  0  0  0  0  0  0  0
    2.7520   69.1770   66.5060 C   0  0  0  0  0  0  0  0  0  0  0  0
    2.3360   68.8380   65.2750 C   0  0  0  0  0  0  0  0  0  0  0  0
    3.2490   68.9550   64.1140 C   0  0  0  0  0  0  0  0  0  0  0  0
    2.8920   68.6670   62.9750 O   0  0  0  0  0  0  0  0  0  0  0  0
    4.5410   69.4120   64.3560 O   0  0  0  0  0  0  0  0  0  0  0  0
   -0.4390   66.1130   69.3290 C   0  0  0  0  0  0  0  0  0  0  0  0
    0.7390   66.0060   70.3010 C   0  0  0  0  0  0  0  0  0  0  0  0
    0.5460   64.9360   71.3760 C   0  0  0  0  0  0  0  0  0  0  0  0
    0.4600   63.6210   70.7250 N   0  0  0  0  0  0  0  0  0  0  0  0
    1.1370   62.6150   71.4790 C   0  0  0  0  0  0  0  0  0  0  0  0
    2.5270   62.4170   71.3380 C   0  0  0  0  0  0  0  0  0  0  0  0
    3.3740   63.3000   70.4510 C   0  0  0  0  0  0  0  0  0  0  0  0
    4.8800   63.1370   70.6510 C   0  0  0  0  0  0  0  0  0  0  0  0
    5.2530   61.6650   70.7260 C   0  0  0  0  0  0  0  0  0  0  0  0
    4.5690   61.0260   71.9280 C   0  0  0  0  0  0  0  0  0  0  0  0
    3.0920   61.3250   72.0010 C   0  0  0  0  0  0  0  0  0  0  0  0
    2.3810   60.4780   72.7830 N   0  0  0  0  0  0  0  0  0  0  0  0
    1.0660   60.6780   72.9300 C   0  0  0  0  0  0  0  0  0  0  0  0
    0.3810   61.7330   72.2990 C   0  0  0  0  0  0  0  0  0  0  0  0
   -1.0090   61.8730   72.5270 C   0  0  0  0  0  0  0  0  0  0  0  0
   -1.7060   60.9830   73.3410 C   0  0  0  0  0  0  0  0  0  0  0  0
   -1.0230   59.9400   73.9480 C   0  0  0  0  0  0  0  0  0  0  0  0
    0.3510   59.8010   73.7380 C   0  0  0  0  0  0  0  0  0  0  0  0
    0.6213   67.0433   67.7147 H   0  0  0  0  0  0  0  0  0  0  0  0
   -0.3656   68.1609   68.7997 H   0  0  0  0  0  0  0  0  0  0  0  0
   -1.4894   66.2827   66.7090 H   0  0  0  0  0  0  0  0  0  0  0  0
   -2.3782   67.4687   67.7920 H   0  0  0  0  0  0  0  0  0  0  0  0
   -1.6261   67.9509   65.2033 H   0  0  0  0  0  0  0  0  0  0  0  0
   -1.9630   69.1921   66.4845 H   0  0  0  0  0  0  0  0  0  0  0  0
    0.3494   69.5822   66.7258 H   0  0  0  0  0  0  0  0  0  0  0  0
    5.7734   70.3802   70.3079 H   0  0  0  0  0  0  0  0  0  0  0  0
    7.4247   70.6297   69.6463 H   0  0  0  0  0  0  0  0  0  0  0  0
    6.2432   71.9828   69.6463 H   0  0  0  0  0  0  0  0  0  0  0  0
    7.7547   70.9541   67.1878 H   0  0  0  0  0  0  0  0  0  0  0  0
    6.9362   70.3008   64.9206 H   0  0  0  0  0  0  0  0  0  0  0  0
    3.8899   69.9519   68.8664 H   0  0  0  0  0  0  0  0  0  0  0  0
    2.0593   69.0878   67.3558 H   0  0  0  0  0  0  0  0  0  0  0  0
   -1.3460   66.3141   69.9181 H   0  0  0  0  0  0  0  0  0  0  0  0
   -0.4644   65.1587   68.7825 H   0  0  0  0  0  0  0  0  0  0  0  0
    1.6444   65.7625   69.7257 H   0  0  0  0  0  0  0  0  0  0  0  0
    0.8215   66.9735   70.8179 H   0  0  0  0  0  0  0  0  0  0  0  0
    1.3999   64.9502   72.0693 H   0  0  0  0  0  0  0  0  0  0  0  0
   -0.3772   65.1350   71.9401 H   0  0  0  0  0  0  0  0  0  0  0  0
   -0.0282   63.4467   69.8350 H   0  0  0  0  0  0  0  0  0  0  0  0
    3.1384   63.0621   69.4032 H   0  0  0  0  0  0  0  0  0  0  0  0
    3.1324   64.3389   70.7198 H   0  0  0  0  0  0  0  0  0  0  0  0
    5.4094   63.6016   69.8061 H   0  0  0  0  0  0  0  0  0  0  0  0
    5.1676   63.6245   71.5942 H   0  0  0  0  0  0  0  0  0  0  0  0
    4.9269   61.1572   69.8063 H   0  0  0  0  0  0  0  0  0  0  0  0
    6.3437   61.5691   70.8322 H   0  0  0  0  0  0  0  0  0  0  0  0
    4.7022   59.9358   71.8671 H   0  0  0  0  0  0  0  0  0  0  0  0
    5.0329   61.4497   72.8310 H   0  0  0  0  0  0  0  0  0  0  0  0
   -1.5510   62.7033   72.0507 H   0  0  0  0  0  0  0  0  0  0  0  0
   -2.7873   61.1064   73.5007 H   0  0  0  0  0  0  0  0  0  0  0  0
   -1.5597   59.2267   74.5907 H   0  0  0  0  0  0  0  0  0  0  0  0
    0.8838   58.9721   74.2270 H   0  0  0  0  0  0  0  0  0  0  0  0
  2  1  1  0
  3  2  1  0
  5  4  2  0
  6  4  1  0
  6  3  1  0
  8  7  1  0
  9  8  2  0
 10  9  1  0
 11 10  2  0
 12 11  1  0
 13  8  1  0
 13 12  2  0
 14 12  1  0
 15 14  2  0
 15  4  1  0
 16 15  1  0
 17 16  2  0
 18 16  1  0
 18 11  1  0
 19  1  1  0
 20 19  1  0
 21 20  1  0
 22 21  1  0
 23 22  1  0
 24 23  1  0
 25 24  1  0
 26 25  1  0
 27 26  1  0
 28 27  1  0
 29 24  2  0
 29 28  1  0
 30 29  1  0
 31 30  2  0
 32 31  1  0
 32 23  2  0
 33 32  1  0
 34 33  2  0
 35 34  1  0
 36 35  2  0
 36 31  1  0
  1 37  1  0
  1 38  1  0
  2 39  1  0
  2 40  1  0
  3 41  1  0
  3 42  1  0
  6 43  1  0
  7 44  1  0
  7 45  1  0
  7 46  1  0
  9 47  1  0
 10 48  1  0
 13 49  1  0
 14 50  1  0
 19 51  1  0
 19 52  1  0
 20 53  1  0
 20 54  1  0
 21 55  1  0
 21 56  1  0
 22 57  1  0
 25 58  1  0
 25 59  1  0
 26 60  1  0
 26 61  1  0
 27 62  1  0
 27 63  1  0
 28 64  1  0
 28 65  1  0
 33 66  1  0
 34 67  1  0
 35 68  1  0
 36 69  1  0
M  END
>  <score>  (2) 
-12.293

$$$$
=
     RDKit          3D

 69 73  0  0  0  0  0  0  0  0999 V2000
    0.8790   66.7490   69.7640 C   0  0  0  0  0  0  0  0  0  0  0  0
    1.0330   65.4780   70.6100 C   0  0  0  0  0  0  0  0  0  0  0  0
    2.2400   64.6160   70.2450 C   0  0  0  0  0  0  0  0  0  0  0  0
    3.2270   62.4760   70.9810 C   0  0  0  0  0  0  0  0  0  0  0  0
    4.3760   62.8890   70.8460 O   0  0  0  0  0  0  0  0  0  0  0  0
    2.1280   63.2730   70.7750 N   0  0  0  0  0  0  0  0  0  0  0  0
   -1.1240   57.7350   74.6970 C   0  0  0  0  0  0  0  0  0  0  0  0
    0.0580   57.9830   73.8050 C   0  0  0  0  0  0  0  0  0  0  0  0
    0.8810   56.9190   73.4090 C   0  0  0  0  0  0  0  0  0  0  0  0
    1.9970   57.1510   72.6070 C   0  0  0  0  0  0  0  0  0  0  0  0
    2.2890   58.4540   72.2130 C   0  0  0  0  0  0  0  0  0  0  0  0
    1.4980   59.5280   72.6010 C   0  0  0  0  0  0  0  0  0  0  0  0
    0.3810   59.2900   73.4050 C   0  0  0  0  0  0  0  0  0  0  0  0
    1.8640   60.8630   72.1570 C   0  0  0  0  0  0  0  0  0  0  0  0
    2.9460   61.0610   71.3850 C   0  0  0  0  0  0  0  0  0  0  0  0
    3.7960   59.9210   70.9760 C   0  0  0  0  0  0  0  0  0  0  0  0
    4.8000   60.0740   70.2840 O   0  0  0  0  0  0  0  0  0  0  0  0
    3.4220   58.6510   71.4060 O   0  0  0  0  0  0  0  0  0  0  0  0
   -0.2470   66.7210   68.7260 C   0  0  0  0  0  0  0  0  0  0  0  0
    0.0470   67.4420   67.4080 C   0  0  0  0  0  0  0  0  0  0  0  0
    1.5360   67.7020   67.1760 C   0  0  0  0  0  0  0  0  0  0  0  0
    1.7280   69.1310   66.8890 N   0  0  0  0  0  0  0  0  0  0  0  0
    3.0210   69.3900   66.3430 C   0  0  0  0  0  0  0  0  0  0  0  0
    3.3080   69.0980   64.9920 C   0  0  0  0  0  0  0  0  0  0  0  0
    2.2520   68.5770   64.0460 C   0  0  0  0  0  0  0  0  0  0  0  0
    2.6550   68.6050   62.5720 C   0  0  0  0  0  0  0  0  0  0  0  0
    4.0700   68.0760   62.3950 C   0  0  0  0  0  0  0  0  0  0  0  0
    5.0470   68.9730   63.1450 C   0  0  0  0  0  0  0  0  0  0  0  0
    4.6320   69.2460   64.5680 C   0  0  0  0  0  0  0  0  0  0  0  0
    5.6290   69.6770   65.3770 N   0  0  0  0  0  0  0  0  0  0  0  0
    5.3520   69.9710   66.6530 C   0  0  0  0  0  0  0  0  0  0  0  0
    4.0610   69.8440   67.1990 C   0  0  0  0  0  0  0  0  0  0  0  0
    3.8610   70.1940   68.5570 C   0  0  0  0  0  0  0  0  0  0  0  0
    4.9130   70.6370   69.3570 C   0  0  0  0  0  0  0  0  0  0  0  0
    6.1830   70.7460   68.8100 C   0  0  0  0  0  0  0  0  0  0  0  0
    6.3870   70.4140   67.4680 C   0  0  0  0  0  0  0  0  0  0  0  0
    0.6882   67.5894   70.4476 H   0  0  0  0  0  0  0  0  0  0  0  0
    1.8135   66.8444   69.1916 H   0  0  0  0  0  0  0  0  0  0  0  0
    1.1305   65.7768   71.6642 H   0  0  0  0  0  0  0  0  0  0  0  0
    0.1407   64.8642   70.4174 H   0  0  0  0  0  0  0  0  0  0  0  0
    2.3179   64.5599   69.1492 H   0  0  0  0  0  0  0  0  0  0  0  0
    3.1348   65.0810   70.6844 H   0  0  0  0  0  0  0  0  0  0  0  0
    1.1943   62.9039   71.0048 H   0  0  0  0  0  0  0  0  0  0  0  0
   -0.8096   57.8010   75.7491 H   0  0  0  0  0  0  0  0  0  0  0  0
   -1.8986   58.4902   74.4977 H   0  0  0  0  0  0  0  0  0  0  0  0
   -1.5297   56.7322   74.4977 H   0  0  0  0  0  0  0  0  0  0  0  0
    0.6444   55.8949   73.7333 H   0  0  0  0  0  0  0  0  0  0  0  0
    2.6385   56.3157   72.2896 H   0  0  0  0  0  0  0  0  0  0  0  0
   -0.2498   60.1316   73.7270 H   0  0  0  0  0  0  0  0  0  0  0  0
    1.2469   61.7228   72.4570 H   0  0  0  0  0  0  0  0  0  0  0  0
   -0.4665   65.6684   68.4938 H   0  0  0  0  0  0  0  0  0  0  0  0
   -1.0890   67.2621   69.1824 H   0  0  0  0  0  0  0  0  0  0  0  0
   -0.3319   66.8240   66.5806 H   0  0  0  0  0  0  0  0  0  0  0  0
   -0.4497   68.4223   67.4567 H   0  0  0  0  0  0  0  0  0  0  0  0
    2.1042   67.4261   68.0766 H   0  0  0  0  0  0  0  0  0  0  0  0
    1.8931   67.0991   66.3281 H   0  0  0  0  0  0  0  0  0  0  0  0
    1.0169   69.8561   67.0608 H   0  0  0  0  0  0  0  0  0  0  0  0
    2.0269   67.5361   64.3213 H   0  0  0  0  0  0  0  0  0  0  0  0
    1.3837   69.2447   64.1466 H   0  0  0  0  0  0  0  0  0  0  0  0
    1.9595   67.9779   61.9949 H   0  0  0  0  0  0  0  0  0  0  0  0
    2.6168   69.6441   62.2131 H   0  0  0  0  0  0  0  0  0  0  0  0
    4.1313   67.0529   62.7945 H   0  0  0  0  0  0  0  0  0  0  0  0
    4.3269   68.0689   61.3254 H   0  0  0  0  0  0  0  0  0  0  0  0
    6.0323   68.4840   63.1561 H   0  0  0  0  0  0  0  0  0  0  0  0
    5.0707   69.9398   62.6208 H   0  0  0  0  0  0  0  0  0  0  0  0
    2.8529   70.1144   68.9899 H   0  0  0  0  0  0  0  0  0  0  0  0
    4.7378   70.8975   70.4113 H   0  0  0  0  0  0  0  0  0  0  0  0
    7.0243   71.0916   69.4287 H   0  0  0  0  0  0  0  0  0  0  0  0
    7.3977   70.5061   67.0437 H   0  0  0  0  0  0  0  0  0  0  0  0
  2  1  1  0
  3  2  1  0
  5  4  2  0
  6  4  1  0
  6  3  1  0
  8  7  1  0
  9  8  2  0
 10  9  1  0
 11 10  2  0
 12 11  1  0
 13  8  1  0
 13 12  2  0
 14 12  1  0
 15 14  2  0
 15  4  1  0
 16 15  1  0
 17 16  2  0
 18 16  1  0
 18 11  1  0
 19  1  1  0
 20 19  1  0
 21 20  1  0
 22 21  1  0
 23 22  1  0
 24 23  1  0
 25 24  1  0
 26 25  1  0
 27 26  1  0
 28 27  1  0
 29 24  2  0
 29 28  1  0
 30 29  1  0
 31 30  2  0
 32 31  1  0
 32 23  2  0
 33 32  1  0
 34 33  2  0
 35 34  1  0
 36 35  2  0
 36 31  1  0
  1 37  1  0
  1 38  1  0
  2 39  1  0
  2 40  1  0
  3 41  1  0
  3 42  1  0
  6 43  1  0
  7 44  1  0
  7 45  1  0
  7 46  1  0
  9 47  1  0
 10 48  1  0
 13 49  1  0
 14 50  1  0
 19 51  1  0
 19 52  1  0
 20 53  1  0
 20 54  1  0
 21 55  1  0
 21 56  1  0
 22 57  1  0
 25 58  1  0
 25 59  1  0
 26 60  1  0
 26 61  1  0
 27 62  1  0
 27 63  1  0
 28 64  1  0
 28 65  1  0
 33 66  1  0
 34 67  1  0
 35 68  1  0
 36 69  1  0
M  END
>  <score>  (3) 
-12.258

$$$$
=
     RDKit          3D

 69 73  0  0  0  0  0  0  0  0999 V2000
    1.2050   66.9790   69.3520 C   0  0  0  0  0  0  0  0  0  0  0  0
    1.5430   65.6960   70.1220 C   0  0  0  0  0  0  0  0  0  0  0  0
    0.3340   64.9700   70.7100 C   0  0  0  0  0  0  0  0  0  0  0  0
    0.2880   62.9820   72.1720 C   0  0  0  0  0  0  0  0  0  0  0  0
   -0.3670   63.5570   73.0380 O   0  0  0  0  0  0  0  0  0  0  0  0
    0.6150   63.5760   70.9780 N   0  0  0  0  0  0  0  0  0  0  0  0
   -1.0400   56.1490   74.7710 C   0  0  0  0  0  0  0  0  0  0  0  0
   -0.1380   57.1100   74.0520 C   0  0  0  0  0  0  0  0  0  0  0  0
    1.1320   56.6990   73.6200 C   0  0  0  0  0  0  0  0  0  0  0  0
    1.9840   57.5980   72.9800 C   0  0  0  0  0  0  0  0  0  0  0  0
    1.5610   58.9100   72.7850 C   0  0  0  0  0  0  0  0  0  0  0  0
    0.3140   59.3470   73.2140 C   0  0  0  0  0  0  0  0  0  0  0  0
   -0.5350   58.4420   73.8550 C   0  0  0  0  0  0  0  0  0  0  0  0
   -0.0610   60.7310   72.9810 C   0  0  0  0  0  0  0  0  0  0  0  0
    0.7790   61.5790   72.3640 C   0  0  0  0  0  0  0  0  0  0  0  0
    2.1120   61.1210   71.9120 C   0  0  0  0  0  0  0  0  0  0  0  0
    2.9060   61.8780   71.3590 O   0  0  0  0  0  0  0  0  0  0  0  0
    2.4460   59.7890   72.1390 O   0  0  0  0  0  0  0  0  0  0  0  0
   -0.1570   66.9920   68.6500 C   0  0  0  0  0  0  0  0  0  0  0  0
   -0.1810   67.6350   67.2610 C   0  0  0  0  0  0  0  0  0  0  0  0
    1.1630   67.5660   66.5340 C   0  0  0  0  0  0  0  0  0  0  0  0
    1.4360   68.8720   65.9180 N   0  0  0  0  0  0  0  0  0  0  0  0
    2.8360   69.1040   65.7750 C   0  0  0  0  0  0  0  0  0  0  0  0
    3.5940   69.6380   66.8390 C   0  0  0  0  0  0  0  0  0  0  0  0
    2.9850   69.9140   68.1940 C   0  0  0  0  0  0  0  0  0  0  0  0
    4.0030   70.1990   69.2980 C   0  0  0  0  0  0  0  0  0  0  0  0
    5.0690   71.1640   68.8050 C   0  0  0  0  0  0  0  0  0  0  0  0
    5.8300   70.5350   67.6450 C   0  0  0  0  0  0  0  0  0  0  0  0
    4.9270   69.9690   66.5780 C   0  0  0  0  0  0  0  0  0  0  0  0
    5.5210   69.7770   65.3760 N   0  0  0  0  0  0  0  0  0  0  0  0
    4.8060   69.2540   64.3730 C   0  0  0  0  0  0  0  0  0  0  0  0
    3.4510   68.8970   64.5090 C   0  0  0  0  0  0  0  0  0  0  0  0
    2.7810   68.3360   63.3950 C   0  0  0  0  0  0  0  0  0  0  0  0
    3.4280   68.1510   62.1750 C   0  0  0  0  0  0  0  0  0  0  0  0
    4.7600   68.5170   62.0490 C   0  0  0  0  0  0  0  0  0  0  0  0
    5.4320   69.0610   63.1470 C   0  0  0  0  0  0  0  0  0  0  0  0
    1.2261   67.8166   70.0647 H   0  0  0  0  0  0  0  0  0  0  0  0
    1.9560   67.0558   68.5519 H   0  0  0  0  0  0  0  0  0  0  0  0
    2.0552   65.0076   69.4337 H   0  0  0  0  0  0  0  0  0  0  0  0
    2.1692   65.9995   70.9740 H   0  0  0  0  0  0  0  0  0  0  0  0
    0.0480   65.4618   71.6515 H   0  0  0  0  0  0  0  0  0  0  0  0
   -0.4811   65.0162   69.9727 H   0  0  0  0  0  0  0  0  0  0  0  0
    1.0750   63.0113   70.2498 H   0  0  0  0  0  0  0  0  0  0  0  0
   -0.9204   56.2764   75.8570 H   0  0  0  0  0  0  0  0  0  0  0  0
   -2.0851   56.3479   74.4914 H   0  0  0  0  0  0  0  0  0  0  0  0
   -0.7754   55.1186   74.4914 H   0  0  0  0  0  0  0  0  0  0  0  0
    1.4573   55.6616   73.7872 H   0  0  0  0  0  0  0  0  0  0  0  0
    2.9769   57.2751   72.6338 H   0  0  0  0  0  0  0  0  0  0  0  0
   -1.5220   58.7754   74.2081 H   0  0  0  0  0  0  0  0  0  0  0  0
   -1.0461   61.0896   73.3142 H   0  0  0  0  0  0  0  0  0  0  0  0
   -0.4937   65.9500   68.5461 H   0  0  0  0  0  0  0  0  0  0  0  0
   -0.8130   67.6117   69.2790 H   0  0  0  0  0  0  0  0  0  0  0  0
   -0.9345   67.1163   66.6501 H   0  0  0  0  0  0  0  0  0  0  0  0
   -0.4190   68.6998   67.4012 H   0  0  0  0  0  0  0  0  0  0  0  0
    1.9597   67.3223   67.2522 H   0  0  0  0  0  0  0  0  0  0  0  0
    1.1287   66.7868   65.7583 H   0  0  0  0  0  0  0  0  0  0  0  0
    0.7064   69.5376   65.6256 H   0  0  0  0  0  0  0  0  0  0  0  0
    2.3234   70.7880   68.1022 H   0  0  0  0  0  0  0  0  0  0  0  0
    2.4495   68.9997   68.4894 H   0  0  0  0  0  0  0  0  0  0  0  0
    3.4855   70.6421   70.1616 H   0  0  0  0  0  0  0  0  0  0  0  0
    4.4860   69.2543   69.5882 H   0  0  0  0  0  0  0  0  0  0  0  0
    4.5916   72.0957   68.4674 H   0  0  0  0  0  0  0  0  0  0  0  0
    5.7690   71.3850   69.6243 H   0  0  0  0  0  0  0  0  0  0  0  0
    6.4702   71.3045   67.1889 H   0  0  0  0  0  0  0  0  0  0  0  0
    6.4158   69.6987   68.0542 H   0  0  0  0  0  0  0  0  0  0  0  0
    1.7264   68.0397   63.4949 H   0  0  0  0  0  0  0  0  0  0  0  0
    2.8877   67.7188   61.3199 H   0  0  0  0  0  0  0  0  0  0  0  0
    5.2838   68.3800   61.0914 H   0  0  0  0  0  0  0  0  0  0  0  0
    6.4890   69.3452   63.0377 H   0  0  0  0  0  0  0  0  0  0  0  0
  2  1  1  0
  3  2  1  0
  5  4  2  0
  6  4  1  0
  6  3  1  0
  8  7  1  0
  9  8  2  0
 10  9  1  0
 11 10  2  0
 12 11  1  0
 13  8  1  0
 13 12  2  0
 14 12  1  0
 15 14  2  0
 15  4  1  0
 16 15  1  0
 17 16  2  0
 18 16  1  0
 18 11  1  0
 19  1  1  0
 20 19  1  0
 21 20  1  0
 22 21  1  0
 23 22  1  0
 24 23  1  0
 25 24  1  0
 26 25  1  0
 27 26  1  0
 28 27  1  0
 29 24  2  0
 29 28  1  0
 30 29  1  0
 31 30  2  0
 32 31  1  0
 32 23  2  0
 33 32  1  0
 34 33  2  0
 35 34  1  0
 36 35  2  0
 36 31  1  0
  1 37  1  0
  1 38  1  0
  2 39  1  0
  2 40  1  0
  3 41  1  0
  3 42  1  0
  6 43  1  0
  7 44  1  0
  7 45  1  0
  7 46  1  0
  9 47  1  0
 10 48  1  0
 13 49  1  0
 14 50  1  0
 19 51  1  0
 19 52  1  0
 20 53  1  0
 20 54  1  0
 21 55  1  0
 21 56  1  0
 22 57  1  0
 25 58  1  0
 25 59  1  0
 26 60  1  0
 26 61  1  0
 27 62  1  0
 27 63  1  0
 28 64  1  0
 28 65  1  0
 33 66  1  0
 34 67  1  0
 35 68  1  0
 36 69  1  0
M  END
>  <score>  (4) 
-12.091

$$$$
=
     RDKit          3D

 69 73  0  0  0  0  0  0  0  0999 V2000
    3.3750   64.9020   64.8190 C   0  0  0  0  0  0  0  0  0  0  0  0
    3.5940   63.4950   65.3900 C   0  0  0  0  0  0  0  0  0  0  0  0
    4.2790   63.4630   66.7550 C   0  0  0  0  0  0  0  0  0  0  0  0
    3.7490   63.0510   69.1300 C   0  0  0  0  0  0  0  0  0  0  0  0
    4.8520   63.4390   69.5080 O   0  0  0  0  0  0  0  0  0  0  0  0
    3.3630   63.0930   67.8140 N   0  0  0  0  0  0  0  0  0  0  0  0
    1.7180   57.4990   73.6320 C   0  0  0  0  0  0  0  0  0  0  0  0
    1.4580   58.8600   73.0530 C   0  0  0  0  0  0  0  0  0  0  0  0
    0.2870   59.5570   73.3830 C   0  0  0  0  0  0  0  0  0  0  0  0
    0.0290   60.8070   72.8230 C   0  0  0  0  0  0  0  0  0  0  0  0
    0.9430   61.3480   71.9240 C   0  0  0  0  0  0  0  0  0  0  0  0
    2.1040   60.6740   71.5690 C   0  0  0  0  0  0  0  0  0  0  0  0
    2.3590   59.4220   72.1330 C   0  0  0  0  0  0  0  0  0  0  0  0
    3.0130   61.2960   70.6210 C   0  0  0  0  0  0  0  0  0  0  0  0
    2.7410   62.5010   70.0930 C   0  0  0  0  0  0  0  0  0  0  0  0
    1.5010   63.2210   70.4610 C   0  0  0  0  0  0  0  0  0  0  0  0
    1.2190   64.3160   69.9830 O   0  0  0  0  0  0  0  0  0  0  0  0
    0.6500   62.6090   71.3770 O   0  0  0  0  0  0  0  0  0  0  0  0
    4.5210   65.4590   63.9680 C   0  0  0  0  0  0  0  0  0  0  0  0
    4.3370   66.8930   63.4630 C   0  0  0  0  0  0  0  0  0  0  0  0
    5.1350   67.9260   64.2600 C   0  0  0  0  0  0  0  0  0  0  0  0
    4.3190   69.1390   64.4120 N   0  0  0  0  0  0  0  0  0  0  0  0
    3.8320   69.2820   65.7460 C   0  0  0  0  0  0  0  0  0  0  0  0
    2.4930   68.9680   66.0650 C   0  0  0  0  0  0  0  0  0  0  0  0
    1.5410   68.3960   65.0420 C   0  0  0  0  0  0  0  0  0  0  0  0
    0.2440   67.8390   65.6270 C   0  0  0  0  0  0  0  0  0  0  0  0
   -0.3340   68.8000   66.6540 C   0  0  0  0  0  0  0  0  0  0  0  0
    0.6460   68.9620   67.8090 C   0  0  0  0  0  0  0  0  0  0  0  0
    2.0520   69.2670   67.3570 C   0  0  0  0  0  0  0  0  0  0  0  0
    2.8470   69.8100   68.3100 N   0  0  0  0  0  0  0  0  0  0  0  0
    4.1220   70.0910   68.0100 C   0  0  0  0  0  0  0  0  0  0  0  0
    4.6750   69.8520   66.7390 C   0  0  0  0  0  0  0  0  0  0  0  0
    6.0380   70.1680   66.5210 C   0  0  0  0  0  0  0  0  0  0  0  0
    6.8260   70.7230   67.5270 C   0  0  0  0  0  0  0  0  0  0  0  0
    6.2660   70.9660   68.7730 C   0  0  0  0  0  0  0  0  0  0  0  0
    4.9250   70.6470   69.0000 C   0  0  0  0  0  0  0  0  0  0  0  0
    2.4709   64.8758   64.1930 H   0  0  0  0  0  0  0  0  0  0  0  0
    3.2955   65.5700   65.6893 H   0  0  0  0  0  0  0  0  0  0  0  0
    2.6128   63.0073   65.4869 H   0  0  0  0  0  0  0  0  0  0  0  0
    4.2663   62.9758   64.6912 H   0  0  0  0  0  0  0  0  0  0  0  0
    5.0994   62.7309   66.7234 H   0  0  0  0  0  0  0  0  0  0  0  0
    4.6554   64.4741   66.9697 H   0  0  0  0  0  0  0  0  0  0  0  0
    2.3909   62.8538   67.5716 H   0  0  0  0  0  0  0  0  0  0  0  0
    1.7065   57.5595   74.7303 H   0  0  0  0  0  0  0  0  0  0  0  0
    0.9368   56.8018   73.2949 H   0  0  0  0  0  0  0  0  0  0  0  0
    2.7012   57.1388   73.2949 H   0  0  0  0  0  0  0  0  0  0  0  0
   -0.4323   59.1147   74.0880 H   0  0  0  0  0  0  0  0  0  0  0  0
   -0.8850   61.3585   73.0882 H   0  0  0  0  0  0  0  0  0  0  0  0
    3.2706   58.8727   71.8553 H   0  0  0  0  0  0  0  0  0  0  0  0
    3.9365   60.7730   70.3318 H   0  0  0  0  0  0  0  0  0  0  0  0
    5.4379   65.4295   64.5750 H   0  0  0  0  0  0  0  0  0  0  0  0
    4.5609   64.8272   63.0684 H   0  0  0  0  0  0  0  0  0  0  0  0
    4.6613   66.9369   62.4128 H   0  0  0  0  0  0  0  0  0  0  0  0
    3.2726   67.1442   63.5810 H   0  0  0  0  0  0  0  0  0  0  0  0
    5.3805   67.5187   65.2519 H   0  0  0  0  0  0  0  0  0  0  0  0
    6.0687   68.1671   63.7307 H   0  0  0  0  0  0  0  0  0  0  0  0
    4.1229   69.8037   63.6500 H   0  0  0  0  0  0  0  0  0  0  0  0
    1.2823   69.1932   64.3295 H   0  0  0  0  0  0  0  0  0  0  0  0
    2.0605   67.5495   64.5693 H   0  0  0  0  0  0  0  0  0  0  0  0
   -0.4855   67.6938   64.8166 H   0  0  0  0  0  0  0  0  0  0  0  0
    0.4597   66.8796   66.1200 H   0  0  0  0  0  0  0  0  0  0  0  0
   -0.5092   69.7782   66.1824 H   0  0  0  0  0  0  0  0  0  0  0  0
   -1.2852   68.3997   67.0348 H   0  0  0  0  0  0  0  0  0  0  0  0
    0.2983   69.7859   68.4496 H   0  0  0  0  0  0  0  0  0  0  0  0
    0.6767   68.0038   68.3484 H   0  0  0  0  0  0  0  0  0  0  0  0
    6.4846   69.9709   65.5353 H   0  0  0  0  0  0  0  0  0  0  0  0
    7.8815   70.9661   67.3354 H   0  0  0  0  0  0  0  0  0  0  0  0
    6.8739   71.4069   69.5768 H   0  0  0  0  0  0  0  0  0  0  0  0
    4.4911   70.8415   69.9919 H   0  0  0  0  0  0  0  0  0  0  0  0
  2  1  1  0
  3  2  1  0
  5  4  2  0
  6  4  1  0
  6  3  1  0
  8  7  1  0
  9  8  2  0
 10  9  1  0
 11 10  2  0
 12 11  1  0
 13  8  1  0
 13 12  2  0
 14 12  1  0
 15 14  2  0
 15  4  1  0
 16 15  1  0
 17 16  2  0
 18 16  1  0
 18 11  1  0
 19  1  1  0
 20 19  1  0
 21 20  1  0
 22 21  1  0
 23 22  1  0
 24 23  1  0
 25 24  1  0
 26 25  1  0
 27 26  1  0
 28 27  1  0
 29 24  2  0
 29 28  1  0
 30 29  1  0
 31 30  2  0
 32 31  1  0
 32 23  2  0
 33 32  1  0
 34 33  2  0
 35 34  1  0
 36 35  2  0
 36 31  1  0
  1 37  1  0
  1 38  1  0
  2 39  1  0
  2 40  1  0
  3 41  1  0
  3 42  1  0
  6 43  1  0
  7 44  1  0
  7 45  1  0
  7 46  1  0
  9 47  1  0
 10 48  1  0
 13 49  1  0
 14 50  1  0
 19 51  1  0
 19 52  1  0
 20 53  1  0
 20 54  1  0
 21 55  1  0
 21 56  1  0
 22 57  1  0
 25 58  1  0
 25 59  1  0
 26 60  1  0
 26 61  1  0
 27 62  1  0
 27 63  1  0
 28 64  1  0
 28 65  1  0
 33 66  1  0
 34 67  1  0
 35 68  1  0
 36 69  1  0
M  END
>  <score>  (5) 
-12.075

$$$$
=
     RDKit          3D

 69 73  0  0  0  0  0  0  0  0999 V2000
    3.3750   64.9050   64.7860 C   0  0  0  0  0  0  0  0  0  0  0  0
    3.5920   63.4990   65.3600 C   0  0  0  0  0  0  0  0  0  0  0  0
    4.2910   63.4680   66.7180 C   0  0  0  0  0  0  0  0  0  0  0  0
    3.7880   63.0550   69.0990 C   0  0  0  0  0  0  0  0  0  0  0  0
    4.8990   63.4320   69.4630 O   0  0  0  0  0  0  0  0  0  0  0  0
    3.3860   63.1030   67.7870 N   0  0  0  0  0  0  0  0  0  0  0  0
    1.7900   57.5310   73.6500 C   0  0  0  0  0  0  0  0  0  0  0  0
    1.5260   58.8890   73.0650 C   0  0  0  0  0  0  0  0  0  0  0  0
    0.3580   59.5890   73.4010 C   0  0  0  0  0  0  0  0  0  0  0  0
    0.0960   60.8350   72.8350 C   0  0  0  0  0  0  0  0  0  0  0  0
    1.0040   61.3710   71.9260 C   0  0  0  0  0  0  0  0  0  0  0  0
    2.1620   60.6930   71.5650 C   0  0  0  0  0  0  0  0  0  0  0  0
    2.4200   59.4450   72.1350 C   0  0  0  0  0  0  0  0  0  0  0  0
    3.0630   61.3090   70.6060 C   0  0  0  0  0  0  0  0  0  0  0  0
    2.7880   62.5110   70.0730 C   0  0  0  0  0  0  0  0  0  0  0  0
    1.5510   63.2340   70.4470 C   0  0  0  0  0  0  0  0  0  0  0  0
    1.2650   64.3270   69.9640 O   0  0  0  0  0  0  0  0  0  0  0  0
    0.7070   62.6280   71.3730 O   0  0  0  0  0  0  0  0  0  0  0  0
    4.2290   65.2620   63.5650 C   0  0  0  0  0  0  0  0  0  0  0  0
    4.4070   66.7580   63.2940 C   0  0  0  0  0  0  0  0  0  0  0  0
    4.9170   67.5400   64.5050 C   0  0  0  0  0  0  0  0  0  0  0  0
    4.3450   68.8940   64.4700 N   0  0  0  0  0  0  0  0  0  0  0  0
    3.8140   69.2740   65.7390 C   0  0  0  0  0  0  0  0  0  0  0  0
    4.6420   69.8510   66.7260 C   0  0  0  0  0  0  0  0  0  0  0  0
    6.0970   70.1640   66.4660 C   0  0  0  0  0  0  0  0  0  0  0  0
    6.7520   71.0500   67.5240 C   0  0  0  0  0  0  0  0  0  0  0  0
    6.3820   70.5770   68.9210 C   0  0  0  0  0  0  0  0  0  0  0  0
    4.8750   70.6870   69.1140 C   0  0  0  0  0  0  0  0  0  0  0  0
    4.0840   70.0660   67.9890 C   0  0  0  0  0  0  0  0  0  0  0  0
    2.7970   69.7770   68.2950 N   0  0  0  0  0  0  0  0  0  0  0  0
    2.0080   69.2460   67.3520 C   0  0  0  0  0  0  0  0  0  0  0  0
    2.4610   68.9680   66.0490 C   0  0  0  0  0  0  0  0  0  0  0  0
    1.5480   68.4200   65.1150 C   0  0  0  0  0  0  0  0  0  0  0  0
    0.2290   68.1390   65.4660 C   0  0  0  0  0  0  0  0  0  0  0  0
   -0.2020   68.4060   66.7570 C   0  0  0  0  0  0  0  0  0  0  0  0
    0.6890   68.9570   67.6810 C   0  0  0  0  0  0  0  0  0  0  0  0
    2.3175   64.9925   64.4963 H   0  0  0  0  0  0  0  0  0  0  0  0
    3.6787   65.6036   65.5796 H   0  0  0  0  0  0  0  0  0  0  0  0
    2.6091   63.0173   65.4689 H   0  0  0  0  0  0  0  0  0  0  0  0
    4.2542   62.9735   64.6562 H   0  0  0  0  0  0  0  0  0  0  0  0
    5.1091   62.7337   66.6793 H   0  0  0  0  0  0  0  0  0  0  0  0
    4.6720   64.4786   66.9265 H   0  0  0  0  0  0  0  0  0  0  0  0
    2.4092   62.8719   67.5561 H   0  0  0  0  0  0  0  0  0  0  0  0
    1.7774   57.5960   74.7480 H   0  0  0  0  0  0  0  0  0  0  0  0
    1.0113   56.8298   73.3152 H   0  0  0  0  0  0  0  0  0  0  0  0
    2.7746   57.1726   73.3152 H   0  0  0  0  0  0  0  0  0  0  0  0
   -0.3552   59.1519   74.1153 H   0  0  0  0  0  0  0  0  0  0  0  0
   -0.8164   61.3879   73.1029 H   0  0  0  0  0  0  0  0  0  0  0  0
    3.3293   58.8934   71.8540 H   0  0  0  0  0  0  0  0  0  0  0  0
    3.9836   60.7835   70.3122 H   0  0  0  0  0  0  0  0  0  0  0  0
    5.2273   64.8239   63.7111 H   0  0  0  0  0  0  0  0  0  0  0  0
    3.6892   64.8617   62.6942 H   0  0  0  0  0  0  0  0  0  0  0  0
    5.1278   66.8797   62.4720 H   0  0  0  0  0  0  0  0  0  0  0  0
    3.4153   67.1617   63.0420 H   0  0  0  0  0  0  0  0  0  0  0  0
    4.6076   67.0318   65.4302 H   0  0  0  0  0  0  0  0  0  0  0  0
    6.0152   67.5974   64.4773 H   0  0  0  0  0  0  0  0  0  0  0  0
    4.3294   69.4941   63.6330 H   0  0  0  0  0  0  0  0  0  0  0  0
    6.6504   69.2144   66.4222 H   0  0  0  0  0  0  0  0  0  0  0  0
    6.1327   70.7258   65.5210 H   0  0  0  0  0  0  0  0  0  0  0  0
    7.8447   71.0073   67.4053 H   0  0  0  0  0  0  0  0  0  0  0  0
    6.3953   72.0823   67.3928 H   0  0  0  0  0  0  0  0  0  0  0  0
    6.6919   69.5291   69.0470 H   0  0  0  0  0  0  0  0  0  0  0  0
    6.8930   71.2037   69.6667 H   0  0  0  0  0  0  0  0  0  0  0  0
    4.6049   70.1804   70.0523 H   0  0  0  0  0  0  0  0  0  0  0  0
    4.6259   71.7582   69.1358 H   0  0  0  0  0  0  0  0  0  0  0  0
    1.8877   68.2116   64.0897 H   0  0  0  0  0  0  0  0  0  0  0  0
   -0.4633   67.7098   64.7267 H   0  0  0  0  0  0  0  0  0  0  0  0
   -1.2387   68.1853   67.0513 H   0  0  0  0  0  0  0  0  0  0  0  0
    0.3356   69.1688   68.7009 H   0  0  0  0  0  0  0  0  0  0  0  0
  2  1  1  0
  3  2  1  0
  5  4  2  0
  6  4  1  0
  6  3  1  0
  8  7  1  0
  9  8  2  0
 10  9  1  0
 11 10  2  0
 12 11  1  0
 13  8  1  0
 13 12  2  0
 14 12  1  0
 15 14  2  0
 15  4  1  0
 16 15  1  0
 17 16  2  0
 18 16  1  0
 18 11  1  0
 19  1  1  0
 20 19  1  0
 21 20  1  0
 22 21  1  0
 23 22  1  0
 24 23  1  0
 25 24  1  0
 26 25  1  0
 27 26  1  0
 28 27  1  0
 29 24  2  0
 29 28  1  0
 30 29  1  0
 31 30  2  0
 32 31  1  0
 32 23  2  0
 33 32  1  0
 34 33  2  0
 35 34  1  0
 36 35  2  0
 36 31  1  0
  1 37  1  0
  1 38  1  0
  2 39  1  0
  2 40  1  0
  3 41  1  0
  3 42  1  0
  6 43  1  0
  7 44  1  0
  7 45  1  0
  7 46  1  0
  9 47  1  0
 10 48  1  0
 13 49  1  0
 14 50  1  0
 19 51  1  0
 19 52  1  0
 20 53  1  0
 20 54  1  0
 21 55  1  0
 21 56  1  0
 22 57  1  0
 25 58  1  0
 25 59  1  0
 26 60  1  0
 26 61  1  0
 27 62  1  0
 27 63  1  0
 28 64  1  0
 28 65  1  0
 33 66  1  0
 34 67  1  0
 35 68  1  0
 36 69  1  0
M  END
>  <score>  (6) 
-11.837

$$$$
=
     RDKit          3D

 69 73  0  0  0  0  0  0  0  0999 V2000
    2.1960   65.0370   70.2090 C   0  0  0  0  0  0  0  0  0  0  0  0
    1.7980   63.7740   70.9830 C   0  0  0  0  0  0  0  0  0  0  0  0
    2.8370   62.6550   70.9500 C   0  0  0  0  0  0  0  0  0  0  0  0
    2.2700   60.9320   72.6230 C   0  0  0  0  0  0  0  0  0  0  0  0
    2.6360   61.6350   73.5620 O   0  0  0  0  0  0  0  0  0  0  0  0
    2.2710   61.3760   71.3250 N   0  0  0  0  0  0  0  0  0  0  0  0
   -2.7050   56.3780   75.7420 C   0  0  0  0  0  0  0  0  0  0  0  0
   -1.4990   56.5790   74.8700 C   0  0  0  0  0  0  0  0  0  0  0  0
   -0.8330   55.4740   74.3180 C   0  0  0  0  0  0  0  0  0  0  0  0
    0.3040   55.6570   73.5330 C   0  0  0  0  0  0  0  0  0  0  0  0
    0.7760   56.9480   73.3140 C   0  0  0  0  0  0  0  0  0  0  0  0
    0.1440   58.0580   73.8600 C   0  0  0  0  0  0  0  0  0  0  0  0
   -0.9950   57.8700   74.6450 C   0  0  0  0  0  0  0  0  0  0  0  0
    0.6940   59.3780   73.5940 C   0  0  0  0  0  0  0  0  0  0  0  0
    1.7930   59.5280   72.8360 C   0  0  0  0  0  0  0  0  0  0  0  0
    2.4750   58.3470   72.2590 C   0  0  0  0  0  0  0  0  0  0  0  0
    3.4900   58.4530   71.5760 O   0  0  0  0  0  0  0  0  0  0  0  0
    1.9260   57.0950   72.5210 O   0  0  0  0  0  0  0  0  0  0  0  0
    1.0620   66.0280   69.9280 C   0  0  0  0  0  0  0  0  0  0  0  0
    1.4970   67.4470   69.5520 C   0  0  0  0  0  0  0  0  0  0  0  0
    1.1790   67.8170   68.1020 C   0  0  0  0  0  0  0  0  0  0  0  0
    1.4560   69.2470   67.9070 N   0  0  0  0  0  0  0  0  0  0  0  0
    2.6310   69.4540   67.1230 C   0  0  0  0  0  0  0  0  0  0  0  0
    2.6470   69.1380   65.7470 C   0  0  0  0  0  0  0  0  0  0  0  0
    1.4150   68.6430   65.0260 C   0  0  0  0  0  0  0  0  0  0  0  0
    1.5330   68.6410   63.5030 C   0  0  0  0  0  0  0  0  0  0  0  0
    2.8710   68.0610   63.0710 C   0  0  0  0  0  0  0  0  0  0  0  0
    4.0010   68.9310   63.6080 C   0  0  0  0  0  0  0  0  0  0  0  0
    3.8710   69.2340   65.0790 C   0  0  0  0  0  0  0  0  0  0  0  0
    5.0170   69.6390   65.6770 N   0  0  0  0  0  0  0  0  0  0  0  0
    4.9950   69.9560   66.9780 C   0  0  0  0  0  0  0  0  0  0  0  0
    3.8280   69.8810   67.7600 C   0  0  0  0  0  0  0  0  0  0  0  0
    3.9000   70.2520   69.1250 C   0  0  0  0  0  0  0  0  0  0  0  0
    5.0970   70.6670   69.7030 C   0  0  0  0  0  0  0  0  0  0  0  0
    6.2440   70.7250   68.9250 C   0  0  0  0  0  0  0  0  0  0  0  0
    6.1800   70.3720   67.5750 C   0  0  0  0  0  0  0  0  0  0  0  0
    2.9670   65.5619   70.7920 H   0  0  0  0  0  0  0  0  0  0  0  0
    2.5416   64.6892   69.2243 H   0  0  0  0  0  0  0  0  0  0  0  0
    1.6285   64.0541   72.0331 H   0  0  0  0  0  0  0  0  0  0  0  0
    0.8971   63.3779   70.4917 H   0  0  0  0  0  0  0  0  0  0  0  0
    3.2434   62.5781   69.9307 H   0  0  0  0  0  0  0  0  0  0  0  0
    3.6254   62.9028   71.6759 H   0  0  0  0  0  0  0  0  0  0  0  0
    1.8560   60.7807   70.5940 H   0  0  0  0  0  0  0  0  0  0  0  0
   -2.4055   56.4279   76.7993 H   0  0  0  0  0  0  0  0  0  0  0  0
   -3.4441   57.1653   75.5327 H   0  0  0  0  0  0  0  0  0  0  0  0
   -3.1488   55.3935   75.5327 H   0  0  0  0  0  0  0  0  0  0  0  0
   -1.2103   54.4580   74.5059 H   0  0  0  0  0  0  0  0  0  0  0  0
    0.8217   54.7923   73.0922 H   0  0  0  0  0  0  0  0  0  0  0  0
   -1.5011   58.7392   75.0903 H   0  0  0  0  0  0  0  0  0  0  0  0
    0.2033   60.2658   74.0194 H   0  0  0  0  0  0  0  0  0  0  0  0
    0.4615   65.6277   69.0978 H   0  0  0  0  0  0  0  0  0  0  0  0
    0.5082   66.1252   70.8735 H   0  0  0  0  0  0  0  0  0  0  0  0
    0.9799   68.1570   70.2142 H   0  0  0  0  0  0  0  0  0  0  0  0
    2.5902   67.4919   69.6658 H   0  0  0  0  0  0  0  0  0  0  0  0
    1.8073   67.2226   67.4224 H   0  0  0  0  0  0  0  0  0  0  0  0
    0.1208   67.6083   67.8863 H   0  0  0  0  0  0  0  0  0  0  0  0
    0.8742   70.0063   68.2889 H   0  0  0  0  0  0  0  0  0  0  0  0
    1.2132   67.6135   65.3567 H   0  0  0  0  0  0  0  0  0  0  0  0
    0.6028   69.3411   65.2769 H   0  0  0  0  0  0  0  0  0  0  0  0
    0.7210   68.0325   63.0782 H   0  0  0  0  0  0  0  0  0  0  0  0
    1.4616   69.6770   63.1402 H   0  0  0  0  0  0  0  0  0  0  0  0
    2.9735   67.0406   63.4688 H   0  0  0  0  0  0  0  0  0  0  0  0
    2.9205   68.0339   61.9724 H   0  0  0  0  0  0  0  0  0  0  0  0
    4.9541   68.4075   63.4420 H   0  0  0  0  0  0  0  0  0  0  0  0
    3.9571   69.8906   63.0720 H   0  0  0  0  0  0  0  0  0  0  0  0
    2.9903   70.2114   69.7421 H   0  0  0  0  0  0  0  0  0  0  0  0
    5.1327   70.9462   70.7664 H   0  0  0  0  0  0  0  0  0  0  0  0
    7.1978   71.0469   69.3683 H   0  0  0  0  0  0  0  0  0  0  0  0
    7.0944   70.4247   66.9659 H   0  0  0  0  0  0  0  0  0  0  0  0
  2  1  1  0
  3  2  1  0
  5  4  2  0
  6  4  1  0
  6  3  1  0
  8  7  1  0
  9  8  2  0
 10  9  1  0
 11 10  2  0
 12 11  1  0
 13  8  1  0
 13 12  2  0
 14 12  1  0
 15 14  2  0
 15  4  1  0
 16 15  1  0
 17 16  2  0
 18 16  1  0
 18 11  1  0
 19  1  1  0
 20 19  1  0
 21 20  1  0
 22 21  1  0
 23 22  1  0
 24 23  1  0
 25 24  1  0
 26 25  1  0
 27 26  1  0
 28 27  1  0
 29 24  2  0
 29 28  1  0
 30 29  1  0
 31 30  2  0
 32 31  1  0
 32 23  2  0
 33 32  1  0
 34 33  2  0
 35 34  1  0
 36 35  2  0
 36 31  1  0
  1 37  1  0
  1 38  1  0
  2 39  1  0
  2 40  1  0
  3 41  1  0
  3 42  1  0
  6 43  1  0
  7 44  1  0
  7 45  1  0
  7 46  1  0
  9 47  1  0
 10 48  1  0
 13 49  1  0
 14 50  1  0
 19 51  1  0
 19 52  1  0
 20 53  1  0
 20 54  1  0
 21 55  1  0
 21 56  1  0
 22 57  1  0
 25 58  1  0
 25 59  1  0
 26 60  1  0
 26 61  1  0
 27 62  1  0
 27 63  1  0
 28 64  1  0
 28 65  1  0
 33 66  1  0
 34 67  1  0
 35 68  1  0
 36 69  1  0
M  END
>  <score>  (7) 
-11.362

$$$$
=
     RDKit          3D

 69 73  0  0  0  0  0  0  0  0999 V2000
    0.8740   65.7640   70.1920 C   0  0  0  0  0  0  0  0  0  0  0  0
   -0.5630   65.9890   69.7050 C   0  0  0  0  0  0  0  0  0  0  0  0
   -0.6780   66.8230   68.4300 C   0  0  0  0  0  0  0  0  0  0  0  0
    0.6620   68.6100   67.3810 C   0  0  0  0  0  0  0  0  0  0  0  0
   -0.3260   69.3100   67.1660 O   0  0  0  0  0  0  0  0  0  0  0  0
    0.5870   67.4150   68.0520 N   0  0  0  0  0  0  0  0  0  0  0  0
    7.3760   71.2530   69.1550 C   0  0  0  0  0  0  0  0  0  0  0  0
    6.4220   70.7260   68.1220 C   0  0  0  0  0  0  0  0  0  0  0  0
    6.8000   70.6670   66.7730 C   0  0  0  0  0  0  0  0  0  0  0  0
    5.9050   70.2070   65.8090 C   0  0  0  0  0  0  0  0  0  0  0  0
    4.6280   69.8170   66.2020 C   0  0  0  0  0  0  0  0  0  0  0  0
    4.2220   69.8780   67.5290 C   0  0  0  0  0  0  0  0  0  0  0  0
    5.1230   70.3390   68.4910 C   0  0  0  0  0  0  0  0  0  0  0  0
    2.8720   69.4590   67.8680 C   0  0  0  0  0  0  0  0  0  0  0  0
    2.0270   69.0210   66.9200 C   0  0  0  0  0  0  0  0  0  0  0  0
    2.4510   68.9630   65.5030 C   0  0  0  0  0  0  0  0  0  0  0  0
    1.6950   68.5820   64.6130 O   0  0  0  0  0  0  0  0  0  0  0  0
    3.7510   69.3610   65.2030 O   0  0  0  0  0  0  0  0  0  0  0  0
    1.0960   64.5160   71.0520 C   0  0  0  0  0  0  0  0  0  0  0  0
    0.2720   64.4420   72.3400 C   0  0  0  0  0  0  0  0  0  0  0  0
    0.0800   63.0170   72.8600 C   0  0  0  0  0  0  0  0  0  0  0  0
    0.3590   62.0730   71.7670 N   0  0  0  0  0  0  0  0  0  0  0  0
    1.2180   61.0150   72.1910 C   0  0  0  0  0  0  0  0  0  0  0  0
    0.7430   59.9960   73.0450 C   0  0  0  0  0  0  0  0  0  0  0  0
   -0.7000   59.9300   73.4850 C   0  0  0  0  0  0  0  0  0  0  0  0
   -1.0990   58.6130   74.1490 C   0  0  0  0  0  0  0  0  0  0  0  0
   -0.0450   58.1810   75.1560 C   0  0  0  0  0  0  0  0  0  0  0  0
    1.2770   57.9400   74.4380 C   0  0  0  0  0  0  0  0  0  0  0  0
    1.6770   59.0760   73.5290 C   0  0  0  0  0  0  0  0  0  0  0  0
    2.9900   59.1010   73.1980 N   0  0  0  0  0  0  0  0  0  0  0  0
    3.4350   60.0580   72.3740 C   0  0  0  0  0  0  0  0  0  0  0  0
    2.5940   61.0500   71.8370 C   0  0  0  0  0  0  0  0  0  0  0  0
    3.1530   62.0130   70.9610 C   0  0  0  0  0  0  0  0  0  0  0  0
    4.5090   62.0040   70.6410 C   0  0  0  0  0  0  0  0  0  0  0  0
    5.3300   61.0280   71.1870 C   0  0  0  0  0  0  0  0  0  0  0  0
    4.7850   60.0680   72.0430 C   0  0  0  0  0  0  0  0  0  0  0  0
    1.5222   65.6842   69.3069 H   0  0  0  0  0  0  0  0  0  0  0  0
    1.1084   66.6208   70.8407 H   0  0  0  0  0  0  0  0  0  0  0  0
   -1.0188   65.0062   69.5146 H   0  0  0  0  0  0  0  0  0  0  0  0
   -1.0757   66.5557   70.4962 H   0  0  0  0  0  0  0  0  0  0  0  0
   -1.0249   66.1746   67.6119 H   0  0  0  0  0  0  0  0  0  0  0  0
   -1.3905   67.6389   68.6215 H   0  0  0  0  0  0  0  0  0  0  0  0
    1.4593   66.9238   68.2943 H   0  0  0  0  0  0  0  0  0  0  0  0
    6.9845   71.0367   70.1599 H   0  0  0  0  0  0  0  0  0  0  0  0
    8.3555   70.7680   69.0309 H   0  0  0  0  0  0  0  0  0  0  0  0
    7.4869   72.3403   69.0309 H   0  0  0  0  0  0  0  0  0  0  0  0
    7.8094   70.9858   66.4738 H   0  0  0  0  0  0  0  0  0  0  0  0
    6.2037   70.1528   64.7517 H   0  0  0  0  0  0  0  0  0  0  0  0
    4.8135   70.3995   69.5448 H   0  0  0  0  0  0  0  0  0  0  0  0
    2.5378   69.5012   68.9151 H   0  0  0  0  0  0  0  0  0  0  0  0
    0.8475   63.6358   70.4408 H   0  0  0  0  0  0  0  0  0  0  0  0
    2.1480   64.5551   71.3710 H   0  0  0  0  0  0  0  0  0  0  0  0
    0.7849   65.0296   73.1157 H   0  0  0  0  0  0  0  0  0  0  0  0
   -0.7272   64.8393   72.1082 H   0  0  0  0  0  0  0  0  0  0  0  0
    0.7720   62.8315   73.6947 H   0  0  0  0  0  0  0  0  0  0  0  0
   -0.9527   62.8841   73.2147 H   0  0  0  0  0  0  0  0  0  0  0  0
   -0.0190   62.1643   70.8132 H   0  0  0  0  0  0  0  0  0  0  0  0
   -0.8783   60.7446   74.2024 H   0  0  0  0  0  0  0  0  0  0  0  0
   -1.3099   60.0190   72.5739 H   0  0  0  0  0  0  0  0  0  0  0  0
   -2.0606   58.7457   74.6665 H   0  0  0  0  0  0  0  0  0  0  0  0
   -1.1881   57.8376   73.3739 H   0  0  0  0  0  0  0  0  0  0  0  0
    0.0864   58.9707   75.9104 H   0  0  0  0  0  0  0  0  0  0  0  0
   -0.3685   57.2523   75.6488 H   0  0  0  0  0  0  0  0  0  0  0  0
    2.0649   57.8029   75.1933 H   0  0  0  0  0  0  0  0  0  0  0  0
    1.1481   57.0477   73.8078 H   0  0  0  0  0  0  0  0  0  0  0  0
    2.5022   62.7847   70.5239 H   0  0  0  0  0  0  0  0  0  0  0  0
    4.9245   62.7633   69.9621 H   0  0  0  0  0  0  0  0  0  0  0  0
    6.4034   61.0102   70.9473 H   0  0  0  0  0  0  0  0  0  0  0  0
    5.4441   59.2966   72.4680 H   0  0  0  0  0  0  0  0  0  0  0  0
  2  1  1  0
  3  2  1  0
  5  4  2  0
  6  4  1  0
  6  3  1  0
  8  7  1  0
  9  8  2  0
 10  9  1  0
 11 10  2  0
 12 11  1  0
 13  8  1  0
 13 12  2  0
 14 12  1  0
 15 14  2  0
 15  4  1  0
 16 15  1  0
 17 16  2  0
 18 16  1  0
 18 11  1  0
 19  1  1  0
 20 19  1  0
 21 20  1  0
 22 21  1  0
 23 22  1  0
 24 23  1  0
 25 24  1  0
 26 25  1  0
 27 26  1  0
 28 27  1  0
 29 24  2  0
 29 28  1  0
 30 29  1  0
 31 30  2  0
 32 31  1  0
 32 23  2  0
 33 32  1  0
 34 33  2  0
 35 34  1  0
 36 35  2  0
 36 31  1  0
  1 37  1  0
  1 38  1  0
  2 39  1  0
  2 40  1  0
  3 41  1  0
  3 42  1  0
  6 43  1  0
  7 44  1  0
  7 45  1  0
  7 46  1  0
  9 47  1  0
 10 48  1  0
 13 49  1  0
 14 50  1  0
 19 51  1  0
 19 52  1  0
 20 53  1  0
 20 54  1  0
 21 55  1  0
 21 56  1  0
 22 57  1  0
 25 58  1  0
 25 59  1  0
 26 60  1  0
 26 61  1  0
 27 62  1  0
 27 63  1  0
 28 64  1  0
 28 65  1  0
 33 66  1  0
 34 67  1  0
 35 68  1  0
 36 69  1  0
M  END
>  <score>  (8) 
-11.359

$$$$
=
     RDKit          3D

 69 73  0  0  0  0  0  0  0  0999 V2000
    2.1230   65.0900   69.9290 C   0  0  0  0  0  0  0  0  0  0  0  0
    1.8300   63.8690   70.8100 C   0  0  0  0  0  0  0  0  0  0  0  0
    2.8320   62.7260   70.6650 C   0  0  0  0  0  0  0  0  0  0  0  0
    2.3780   61.0340   72.4040 C   0  0  0  0  0  0  0  0  0  0  0  0
    2.8270   61.7450   73.3010 O   0  0  0  0  0  0  0  0  0  0  0  0
    2.2810   61.4610   71.1030 N   0  0  0  0  0  0  0  0  0  0  0  0
   -2.5970   56.6140   75.7100 C   0  0  0  0  0  0  0  0  0  0  0  0
   -1.3920   56.7790   74.8300 C   0  0  0  0  0  0  0  0  0  0  0  0
   -0.7260   55.6520   74.3250 C   0  0  0  0  0  0  0  0  0  0  0  0
    0.4120   55.8030   73.5330 C   0  0  0  0  0  0  0  0  0  0  0  0
    0.8840   57.0830   73.2610 C   0  0  0  0  0  0  0  0  0  0  0  0
    0.2520   58.2150   73.7590 C   0  0  0  0  0  0  0  0  0  0  0  0
   -0.8880   58.0600   74.5520 C   0  0  0  0  0  0  0  0  0  0  0  0
    0.8010   59.5220   73.4390 C   0  0  0  0  0  0  0  0  0  0  0  0
    1.9010   59.6400   72.6760 C   0  0  0  0  0  0  0  0  0  0  0  0
    2.5830   58.4360   72.1490 C   0  0  0  0  0  0  0  0  0  0  0  0
    3.5980   58.5140   71.4620 O   0  0  0  0  0  0  0  0  0  0  0  0
    2.0340   57.1970   72.4620 O   0  0  0  0  0  0  0  0  0  0  0  0
    1.0500   66.1840   69.9330 C   0  0  0  0  0  0  0  0  0  0  0  0
    1.5300   67.5860   69.5460 C   0  0  0  0  0  0  0  0  0  0  0  0
    0.9920   68.0610   68.1950 C   0  0  0  0  0  0  0  0  0  0  0  0
    1.4800   69.4250   67.9450 N   0  0  0  0  0  0  0  0  0  0  0  0
    2.6740   69.4220   67.1640 C   0  0  0  0  0  0  0  0  0  0  0  0
    3.8910   69.8970   67.7000 C   0  0  0  0  0  0  0  0  0  0  0  0
    4.0070   70.3540   69.1350 C   0  0  0  0  0  0  0  0  0  0  0  0
    5.4430   70.5450   69.6230 C   0  0  0  0  0  0  0  0  0  0  0  0
    6.2640   71.2940   68.5870 C   0  0  0  0  0  0  0  0  0  0  0  0
    6.3320   70.4780   67.3020 C   0  0  0  0  0  0  0  0  0  0  0  0
    4.9820   69.9940   66.8330 C   0  0  0  0  0  0  0  0  0  0  0  0
    4.9330   69.6320   65.5290 N   0  0  0  0  0  0  0  0  0  0  0  0
    3.7830   69.1650   65.0260 C   0  0  0  0  0  0  0  0  0  0  0  0
    2.6120   69.0380   65.7960 C   0  0  0  0  0  0  0  0  0  0  0  0
    1.4470   68.5190   65.1810 C   0  0  0  0  0  0  0  0  0  0  0  0
    1.4360   68.1540   63.8360 C   0  0  0  0  0  0  0  0  0  0  0  0
    2.5930   68.2950   63.0840 C   0  0  0  0  0  0  0  0  0  0  0  0
    3.7500   68.7960   63.6870 C   0  0  0  0  0  0  0  0  0  0  0  0
    3.0652   65.5392   70.2762 H   0  0  0  0  0  0  0  0  0  0  0  0
    2.1631   64.7126   68.8965 H   0  0  0  0  0  0  0  0  0  0  0  0
    1.8314   64.1955   71.8604 H   0  0  0  0  0  0  0  0  0  0  0  0
    0.8569   63.4743   70.4824 H   0  0  0  0  0  0  0  0  0  0  0  0
    3.1214   62.6398   69.6072 H   0  0  0  0  0  0  0  0  0  0  0  0
    3.7015   62.9548   71.2988 H   0  0  0  0  0  0  0  0  0  0  0  0
    1.8007   60.8621   70.4163 H   0  0  0  0  0  0  0  0  0  0  0  0
   -2.2890   56.6562   76.7652 H   0  0  0  0  0  0  0  0  0  0  0  0
   -3.3143   57.4223   75.5048 H   0  0  0  0  0  0  0  0  0  0  0  0
   -3.0706   55.6426   75.5048 H   0  0  0  0  0  0  0  0  0  0  0  0
   -1.1032   54.6446   74.5548 H   0  0  0  0  0  0  0  0  0  0  0  0
    0.9299   54.9209   73.1284 H   0  0  0  0  0  0  0  0  0  0  0  0
   -1.3939   58.9470   74.9611 H   0  0  0  0  0  0  0  0  0  0  0  0
    0.3097   60.4267   73.8265 H   0  0  0  0  0  0  0  0  0  0  0  0
    0.2631   65.8883   69.2235 H   0  0  0  0  0  0  0  0  0  0  0  0
    0.7049   66.2619   70.9746 H   0  0  0  0  0  0  0  0  0  0  0  0
    1.2003   68.2937   70.3209 H   0  0  0  0  0  0  0  0  0  0  0  0
    2.6259   67.5423   69.4619 H   0  0  0  0  0  0  0  0  0  0  0  0
    1.3464   67.3896   67.3990 H   0  0  0  0  0  0  0  0  0  0  0  0
   -0.1079   68.0533   68.2066 H   0  0  0  0  0  0  0  0  0  0  0  0
    1.0171   70.2776   68.2910 H   0  0  0  0  0  0  0  0  0  0  0  0
    3.4795   71.3142   69.2339 H   0  0  0  0  0  0  0  0  0  0  0  0
    3.5683   69.5578   69.7544 H   0  0  0  0  0  0  0  0  0  0  0  0
    5.4328   71.1198   70.5608 H   0  0  0  0  0  0  0  0  0  0  0  0
    5.8962   69.5564   69.7879 H   0  0  0  0  0  0  0  0  0  0  0  0
    5.7926   72.2659   68.3791 H   0  0  0  0  0  0  0  0  0  0  0  0
    7.2817   71.4536   68.9729 H   0  0  0  0  0  0  0  0  0  0  0  0
    6.7722   71.1050   66.5126 H   0  0  0  0  0  0  0  0  0  0  0  0
    6.9435   69.5880   67.5119 H   0  0  0  0  0  0  0  0  0  0  0  0
    0.5305   68.4013   65.7779 H   0  0  0  0  0  0  0  0  0  0  0  0
    0.5189   67.7580   63.3754 H   0  0  0  0  0  0  0  0  0  0  0  0
    2.5998   68.0144   62.0204 H   0  0  0  0  0  0  0  0  0  0  0  0
    4.6630   68.9015   63.0826 H   0  0  0  0  0  0  0  0  0  0  0  0
  2  1  1  0
  3  2  1  0
  5  4  2  0
  6  4  1  0
  6  3  1  0
  8  7  1  0
  9  8  2  0
 10  9  1  0
 11 10  2  0
 12 11  1  0
 13  8  1  0
 13 12  2  0
 14 12  1  0
 15 14  2  0
 15  4  1  0
 16 15  1  0
 17 16  2  0
 18 16  1  0
 18 11  1  0
 19  1  1  0
 20 19  1  0
 21 20  1  0
 22 21  1  0
 23 22  1  0
 24 23  1  0
 25 24  1  0
 26 25  1  0
 27 26  1  0
 28 27  1  0
 29 24  2  0
 29 28  1  0
 30 29  1  0
 31 30  2  0
 32 31  1  0
 32 23  2  0
 33 32  1  0
 34 33  2  0
 35 34  1  0
 36 35  2  0
 36 31  1  0
  1 37  1  0
  1 38  1  0
  2 39  1  0
  2 40  1  0
  3 41  1  0
  3 42  1  0
  6 43  1  0
  7 44  1  0
  7 45  1  0
  7 46  1  0
  9 47  1  0
 10 48  1  0
 13 49  1  0
 14 50  1  0
 19 51  1  0
 19 52  1  0
 20 53  1  0
 20 54  1  0
 21 55  1  0
 21 56  1  0
 22 57  1  0
 25 58  1  0
 25 59  1  0
 26 60  1  0
 26 61  1  0
 27 62  1  0
 27 63  1  0
 28 64  1  0
 28 65  1  0
 33 66  1  0
 34 67  1  0
 35 68  1  0
 36 69  1  0
M  END
>  <score>  (9) 
-11.271

$$$$
