=
     RDKit          3D

 14 14  0  0  0  0  0  0  0  0999 V2000
    4.9430   70.4500   67.6180 C   0  0  0  0  0  0  0  0  0  0  0  0
    5.1230   69.9290   66.3260 C   0  0  0  0  0  0  0  0  0  0  0  0
    4.1210   69.1750   65.7080 C   0  0  0  0  0  0  0  0  0  0  0  0
    2.9230   68.9290   66.3760 C   0  0  0  0  0  0  0  0  0  0  0  0
    2.7260   69.4370   67.6600 C   0  0  0  0  0  0  0  0  0  0  0  0
    3.7290   70.1920   68.2740 C   0  0  0  0  0  0  0  0  0  0  0  0
    6.0130   72.5270   68.0940 O   0  0  0  0  0  1  0  0  0  0  0  0
    6.0320   71.2700   68.2870 C   0  0  0  0  0  0  0  0  0  0  0  0
    6.8830   70.6400   68.9910 O   0  0  0  0  0  0  0  0  0  0  0  0
    6.0664   70.1171   65.7925 H   0  0  0  0  0  0  0  0  0  0  0  0
    4.2782   68.7761   64.6950 H   0  0  0  0  0  0  0  0  0  0  0  0
    2.1340   68.3351   65.8915 H   0  0  0  0  0  0  0  0  0  0  0  0
    1.7813   69.2434   68.1892 H   0  0  0  0  0  0  0  0  0  0  0  0
    3.5648   70.5900   69.2862 H   0  0  0  0  0  0  0  0  0  0  0  0
  2  1  2  0
  3  2  1  0
  4  3  2  0
  5  4  1  0
  6  5  2  0
  6  1  1  0
  8  1  1  0
  8  7  1  0
  9  8  2  0
  2 10  1  0
  3 11  1  0
  4 12  1  0
  5 13  1  0
  6 14  1  0
M  CHG  1   7  -1
M  END
>  <score>  (1) 
-6.525

$$$$
=
     RDKit          3D

 14 14  0  0  0  0  0  0  0  0999 V2000
    4.8980   70.4410   67.6540 C   0  0  0  0  0  0  0  0  0  0  0  0
    3.6700   70.1750   68.2820 C   0  0  0  0  0  0  0  0  0  0  0  0
    2.6800   69.4260   67.6400 C   0  0  0  0  0  0  0  0  0  0  0  0
    2.9040   68.9330   66.3560 C   0  0  0  0  0  0  0  0  0  0  0  0
    4.1160   69.1860   65.7150 C   0  0  0  0  0  0  0  0  0  0  0  0
    5.1040   69.9340   66.3600 C   0  0  0  0  0  0  0  0  0  0  0  0
    5.9930   72.5050   68.1260 O   0  0  0  0  0  1  0  0  0  0  0  0
    5.9720   71.2540   68.3530 C   0  0  0  0  0  0  0  0  0  0  0  0
    6.7720   70.6250   69.1160 O   0  0  0  0  0  0  0  0  0  0  0  0
    3.4847   70.5622   69.2948 H   0  0  0  0  0  0  0  0  0  0  0  0
    1.7249   69.2258   68.1477 H   0  0  0  0  0  0  0  0  0  0  0  0
    2.1252   68.3447   65.8486 H   0  0  0  0  0  0  0  0  0  0  0  0
    4.2942   68.7968   64.7017 H   0  0  0  0  0  0  0  0  0  0  0  0
    6.0574   70.1289   65.8471 H   0  0  0  0  0  0  0  0  0  0  0  0
  2  1  2  0
  3  2  1  0
  4  3  2  0
  5  4  1  0
  6  5  2  0
  6  1  1  0
  8  1  1  0
  8  7  1  0
  9  8  2  0
  2 10  1  0
  3 11  1  0
  4 12  1  0
  5 13  1  0
  6 14  1  0
M  CHG  1   7  -1
M  END
>  <score>  (2) 
-6.522

$$$$
=
     RDKit          3D

 14 14  0  0  0  0  0  0  0  0999 V2000
    4.5680   69.8270   66.7870 C   0  0  0  0  0  0  0  0  0  0  0  0
    5.9410   70.0420   66.5860 C   0  0  0  0  0  0  0  0  0  0  0  0
    6.7470   70.5530   67.6070 C   0  0  0  0  0  0  0  0  0  0  0  0
    6.1890   70.8580   68.8470 C   0  0  0  0  0  0  0  0  0  0  0  0
    4.8280   70.6520   69.0670 C   0  0  0  0  0  0  0  0  0  0  0  0
    4.0250   70.1410   68.0440 C   0  0  0  0  0  0  0  0  0  0  0  0
    2.5750   68.7710   66.0150 O   0  0  0  0  0  1  0  0  0  0  0  0
    3.6940   69.2720   65.6770 C   0  0  0  0  0  0  0  0  0  0  0  0
    4.1450   69.3470   64.4900 O   0  0  0  0  0  0  0  0  0  0  0  0
    6.3891   69.8046   65.6099 H   0  0  0  0  0  0  0  0  0  0  0  0
    7.8209   70.7143   67.4320 H   0  0  0  0  0  0  0  0  0  0  0  0
    6.8219   71.2609   69.6514 H   0  0  0  0  0  0  0  0  0  0  0  0
    4.3863   70.8916   70.0455 H   0  0  0  0  0  0  0  0  0  0  0  0
    2.9518   69.9822   68.2256 H   0  0  0  0  0  0  0  0  0  0  0  0
  2  1  2  0
  3  2  1  0
  4  3  2  0
  5  4  1  0
  6  5  2  0
  6  1  1  0
  8  1  1  0
  8  7  1  0
  9  8  2  0
  2 10  1  0
  3 11  1  0
  4 12  1  0
  5 13  1  0
  6 14  1  0
M  CHG  1   7  -1
M  END
>  <score>  (3) 
-6.384

$$$$
=
     RDKit          3D

 14 14  0  0  0  0  0  0  0  0999 V2000
    4.5920   69.8000   66.7360 C   0  0  0  0  0  0  0  0  0  0  0  0
    3.9940   70.1530   67.9570 C   0  0  0  0  0  0  0  0  0  0  0  0
    4.7530   70.6900   69.0010 C   0  0  0  0  0  0  0  0  0  0  0  0
    6.1230   70.8830   68.8380 C   0  0  0  0  0  0  0  0  0  0  0  0
    6.7360   70.5390   67.6340 C   0  0  0  0  0  0  0  0  0  0  0  0
    5.9750   70.0030   66.5920 C   0  0  0  0  0  0  0  0  0  0  0  0
    4.1720   69.4380   64.4180 O   0  0  0  0  0  1  0  0  0  0  0  0
    3.7670   69.2170   65.6030 C   0  0  0  0  0  0  0  0  0  0  0  0
    2.7320   68.5500   65.9220 O   0  0  0  0  0  0  0  0  0  0  0  0
    2.9126   70.0047   68.0937 H   0  0  0  0  0  0  0  0  0  0  0  0
    4.2686   70.9601   69.9509 H   0  0  0  0  0  0  0  0  0  0  0  0
    6.7207   71.3065   69.6586 H   0  0  0  0  0  0  0  0  0  0  0  0
    7.8179   70.6895   67.5045 H   0  0  0  0  0  0  0  0  0  0  0  0
    6.4659   69.7359   65.6446 H   0  0  0  0  0  0  0  0  0  0  0  0
  2  1  2  0
  3  2  1  0
  4  3  2  0
  5  4  1  0
  6  5  2  0
  6  1  1  0
  8  1  1  0
  8  7  1  0
  9  8  2  0
  2 10  1  0
  3 11  1  0
  4 12  1  0
  5 13  1  0
  6 14  1  0
M  CHG  1   7  -1
M  END
>  <score>  (4) 
-6.376

$$$$
=
     RDKit          3D

 14 14  0  0  0  0  0  0  0  0999 V2000
    4.2920   69.2280   64.4790 C   0  0  0  0  0  0  0  0  0  0  0  0
    3.1350   69.0540   65.2560 C   0  0  0  0  0  0  0  0  0  0  0  0
    3.1320   69.3600   66.6200 C   0  0  0  0  0  0  0  0  0  0  0  0
    4.2880   69.8440   67.2280 C   0  0  0  0  0  0  0  0  0  0  0  0
    5.4470   70.0250   66.4740 C   0  0  0  0  0  0  0  0  0  0  0  0
    5.4470   69.7190   65.1100 C   0  0  0  0  0  0  0  0  0  0  0  0
    5.2730   69.3260   62.3090 O   0  0  0  0  0  1  0  0  0  0  0  0
    4.2940   68.8960   62.9980 C   0  0  0  0  0  0  0  0  0  0  0  0
    3.3180   68.2120   62.5550 O   0  0  0  0  0  0  0  0  0  0  0  0
    2.2179   68.6714   64.7844 H   0  0  0  0  0  0  0  0  0  0  0  0
    2.2166   69.2185   67.2133 H   0  0  0  0  0  0  0  0  0  0  0  0
    4.2866   70.0832   68.3017 H   0  0  0  0  0  0  0  0  0  0  0  0
    6.3605   70.4083   66.9522 H   0  0  0  0  0  0  0  0  0  0  0  0
    6.3651   69.8649   64.5220 H   0  0  0  0  0  0  0  0  0  0  0  0
  2  1  2  0
  3  2  1  0
  4  3  2  0
  5  4  1  0
  6  5  2  0
  6  1  1  0
  8  1  1  0
  8  7  1  0
  9  8  2  0
  2 10  1  0
  3 11  1  0
  4 12  1  0
  5 13  1  0
  6 14  1  0
M  CHG  1   7  -1
M  END
>  <score>  (5) 
-5.986

$$$$
=
     RDKit          3D

 14 14  0  0  0  0  0  0  0  0999 V2000
    2.9950   69.4680   67.2380 C   0  0  0  0  0  0  0  0  0  0  0  0
    3.9180   69.3810   66.1830 C   0  0  0  0  0  0  0  0  0  0  0  0
    5.2210   69.8660   66.3260 C   0  0  0  0  0  0  0  0  0  0  0  0
    5.6200   70.4480   67.5280 C   0  0  0  0  0  0  0  0  0  0  0  0
    4.7180   70.5440   68.5870 C   0  0  0  0  0  0  0  0  0  0  0  0
    3.4160   70.0570   68.4420 C   0  0  0  0  0  0  0  0  0  0  0  0
    0.6670   69.5240   67.7470 O   0  0  0  0  0  1  0  0  0  0  0  0
    1.5800   68.9400   67.0820 C   0  0  0  0  0  0  0  0  0  0  0  0
    1.4120   67.9520   66.2980 O   0  0  0  0  0  0  0  0  0  0  0  0
    3.6110   68.9246   65.2304 H   0  0  0  0  0  0  0  0  0  0  0  0
    5.9316   69.7884   65.4899 H   0  0  0  0  0  0  0  0  0  0  0  0
    6.6450   70.8310   67.6410 H   0  0  0  0  0  0  0  0  0  0  0  0
    5.0311   71.0029   69.5364 H   0  0  0  0  0  0  0  0  0  0  0  0
    2.7109   70.1360   69.2826 H   0  0  0  0  0  0  0  0  0  0  0  0
  2  1  2  0
  3  2  1  0
  4  3  2  0
  5  4  1  0
  6  5  2  0
  6  1  1  0
  8  1  1  0
  8  7  1  0
  9  8  2  0
  2 10  1  0
  3 11  1  0
  4 12  1  0
  5 13  1  0
  6 14  1  0
M  CHG  1   7  -1
M  END
>  <score>  (6) 
-5.932

$$$$
=
     RDKit          3D

 14 14  0  0  0  0  0  0  0  0999 V2000
    2.2860   68.4600   65.0530 C   0  0  0  0  0  0  0  0  0  0  0  0
    2.8850   68.9390   66.2300 C   0  0  0  0  0  0  0  0  0  0  0  0
    4.1670   69.4950   66.2100 C   0  0  0  0  0  0  0  0  0  0  0  0
    4.8700   69.5790   65.0100 C   0  0  0  0  0  0  0  0  0  0  0  0
    4.2940   69.1090   63.8310 C   0  0  0  0  0  0  0  0  0  0  0  0
    3.0110   68.5540   63.8540 C   0  0  0  0  0  0  0  0  0  0  0  0
    0.7210   66.8220   65.7960 O   0  0  0  0  0  1  0  0  0  0  0  0
    0.8930   67.8570   65.0770 C   0  0  0  0  0  0  0  0  0  0  0  0
    0.0000   68.4300   64.3750 O   0  0  0  0  0  0  0  0  0  0  0  0
    2.3368   68.8755   67.1815 H   0  0  0  0  0  0  0  0  0  0  0  0
    4.6207   69.8660   67.1409 H   0  0  0  0  0  0  0  0  0  0  0  0
    5.8793   70.0161   64.9931 H   0  0  0  0  0  0  0  0  0  0  0  0
    4.8484   69.1747   62.8832 H   0  0  0  0  0  0  0  0  0  0  0  0
    2.5630   68.1856   62.9194 H   0  0  0  0  0  0  0  0  0  0  0  0
  2  1  2  0
  3  2  1  0
  4  3  2  0
  5  4  1  0
  6  5  2  0
  6  1  1  0
  8  1  1  0
  8  7  1  0
  9  8  2  0
  2 10  1  0
  3 11  1  0
  4 12  1  0
  5 13  1  0
  6 14  1  0
M  CHG  1   7  -1
M  END
>  <score>  (7) 
-5.831

$$$$
=
     RDKit          3D

 14 14  0  0  0  0  0  0  0  0999 V2000
    3.8660   67.1470   64.0400 C   0  0  0  0  0  0  0  0  0  0  0  0
    2.7590   66.7130   64.7890 C   0  0  0  0  0  0  0  0  0  0  0  0
    2.2270   67.5050   65.8100 C   0  0  0  0  0  0  0  0  0  0  0  0
    2.7960   68.7440   66.0990 C   0  0  0  0  0  0  0  0  0  0  0  0
    3.8950   69.1920   65.3670 C   0  0  0  0  0  0  0  0  0  0  0  0
    4.4250   68.3990   64.3460 C   0  0  0  0  0  0  0  0  0  0  0  0
    4.0540   65.0760   62.8740 O   0  0  0  0  0  1  0  0  0  0  0  0
    4.4420   66.2860   62.9300 C   0  0  0  0  0  0  0  0  0  0  0  0
    5.2720   66.8370   62.1390 O   0  0  0  0  0  0  0  0  0  0  0  0
    2.3047   65.7358   64.5684 H   0  0  0  0  0  0  0  0  0  0  0  0
    1.3592   67.1506   66.3856 H   0  0  0  0  0  0  0  0  0  0  0  0
    2.3787   69.3676   66.9034 H   0  0  0  0  0  0  0  0  0  0  0  0
    4.3448   70.1700   65.5934 H   0  0  0  0  0  0  0  0  0  0  0  0
    5.2922   68.7601   63.7737 H   0  0  0  0  0  0  0  0  0  0  0  0
  2  1  2  0
  3  2  1  0
  4  3  2  0
  5  4  1  0
  6  5  2  0
  6  1  1  0
  8  1  1  0
  8  7  1  0
  9  8  2  0
  2 10  1  0
  3 11  1  0
  4 12  1  0
  5 13  1  0
  6 14  1  0
M  CHG  1   7  -1
M  END
>  <score>  (8) 
-5.454

$$$$
=
     RDKit          3D

 14 14  0  0  0  0  0  0  0  0999 V2000
    4.0000   60.5610   70.6050 C   0  0  0  0  0  0  0  0  0  0  0  0
    3.2450   61.0310   69.5170 C   0  0  0  0  0  0  0  0  0  0  0  0
    3.3520   62.3560   69.0860 C   0  0  0  0  0  0  0  0  0  0  0  0
    4.2160   63.2330   69.7380 C   0  0  0  0  0  0  0  0  0  0  0  0
    4.9740   62.7860   70.8200 C   0  0  0  0  0  0  0  0  0  0  0  0
    4.8650   61.4610   71.2490 C   0  0  0  0  0  0  0  0  0  0  0  0
    3.7940   58.9240   72.3250 O   0  0  0  0  0  1  0  0  0  0  0  0
    3.8830   59.1210   71.0720 C   0  0  0  0  0  0  0  0  0  0  0  0
    3.8820   58.2180   70.1760 O   0  0  0  0  0  0  0  0  0  0  0  0
    2.5596   60.3457   68.9968 H   0  0  0  0  0  0  0  0  0  0  0  0
    2.7540   62.7065   68.2319 H   0  0  0  0  0  0  0  0  0  0  0  0
    4.3002   64.2764   69.4000 H   0  0  0  0  0  0  0  0  0  0  0  0
    5.6576   63.4766   71.3355 H   0  0  0  0  0  0  0  0  0  0  0  0
    5.4656   61.1173   72.1040 H   0  0  0  0  0  0  0  0  0  0  0  0
  2  1  2  0
  3  2  1  0
  4  3  2  0
  5  4  1  0
  6  5  2  0
  6  1  1  0
  8  1  1  0
  8  7  1  0
  9  8  2  0
  2 10  1  0
  3 11  1  0
  4 12  1  0
  5 13  1  0
  6 14  1  0
M  CHG  1   7  -1
M  END
>  <score>  (9) 
-5.417

$$$$
