=
     RDKit          3D

 26 27  0  0  0  0  0  0  0  0999 V2000
    2.0340   69.1120   66.9510 C   0  0  0  0  0  0  0  0  0  0  0  0
    1.0960   69.5640   67.5920 O   0  0  0  0  0  0  0  0  0  0  0  0
    7.2890   70.9340   67.6840 F   0  0  0  0  0  0  0  0  0  0  0  0
    6.0360   70.4950   67.5020 C   0  0  0  0  0  0  0  0  0  0  0  0
    5.6710   69.9580   66.2720 C   0  0  0  0  0  0  0  0  0  0  0  0
    4.3640   69.5010   66.0740 C   0  0  0  0  0  0  0  0  0  0  0  0
    3.4290   69.5860   67.1160 C   0  0  0  0  0  0  0  0  0  0  0  0
    3.8210   70.1330   68.3420 C   0  0  0  0  0  0  0  0  0  0  0  0
    5.1210   70.5890   68.5410 C   0  0  0  0  0  0  0  0  0  0  0  0
    2.9490   70.2700   69.3500 F   0  0  0  0  0  0  0  0  0  0  0  0
    1.7430   68.0450   65.9200 C   0  0  0  0  0  0  0  0  0  0  0  0
    1.8540   66.8740   66.2550 O   0  0  0  0  0  0  0  0  0  0  0  0
    1.3690   68.4580   64.5460 C   0  0  0  0  0  0  0  0  0  0  0  0
    2.2980   68.4530   63.4960 C   0  0  0  0  0  0  0  0  0  0  0  0
    1.9050   68.8520   62.2140 C   0  0  0  0  0  0  0  0  0  0  0  0
    0.5910   69.2500   61.9880 C   0  0  0  0  0  0  0  0  0  0  0  0
   -0.3400   69.2590   63.0160 C   0  0  0  0  0  0  0  0  0  0  0  0
    0.0540   68.8620   64.2910 C   0  0  0  0  0  0  0  0  0  0  0  0
   -0.8760   68.8440   65.2560 F   0  0  0  0  0  0  0  0  0  0  0  0
    0.2210   69.6290   60.7580 F   0  0  0  0  0  0  0  0  0  0  0  0
    6.4077   69.8929   65.4577 H   0  0  0  0  0  0  0  0  0  0  0  0
    4.0700   69.0758   65.1030 H   0  0  0  0  0  0  0  0  0  0  0  0
    5.4190   71.0182   69.5090 H   0  0  0  0  0  0  0  0  0  0  0  0
    3.3350   68.1356   63.6800 H   0  0  0  0  0  0  0  0  0  0  0  0
    2.6317   68.8511   61.3882 H   0  0  0  0  0  0  0  0  0  0  0  0
   -1.3762   69.5757   62.8264 H   0  0  0  0  0  0  0  0  0  0  0  0
  2  1  2  0
  4  3  1  0
  5  4  2  0
  6  5  1  0
  7  6  2  0
  7  1  1  0
  8  7  1  0
  9  8  2  0
  9  4  1  0
 10  8  1  0
 11  1  1  0
 12 11  2  0
 13 11  1  0
 14 13  2  0
 15 14  1  0
 16 15  2  0
 17 16  1  0
 18 17  2  0
 18 13  1  0
 19 18  1  0
 20 16  1  0
  5 21  1  0
  6 22  1  0
  9 23  1  0
 14 24  1  0
 15 25  1  0
 17 26  1  0
M  END
>  <score>  (1) 
-10.079

$$$$
=
     RDKit          3D

 26 27  0  0  0  0  0  0  0  0999 V2000
    1.7160   68.0370   65.9940 C   0  0  0  0  0  0  0  0  0  0  0  0
    1.8210   66.8720   66.3520 O   0  0  0  0  0  0  0  0  0  0  0  0
    0.2440   69.5370   60.7930 F   0  0  0  0  0  0  0  0  0  0  0  0
    0.6030   69.1790   62.0320 C   0  0  0  0  0  0  0  0  0  0  0  0
    1.9130   68.7810   62.2770 C   0  0  0  0  0  0  0  0  0  0  0  0
    2.2940   68.4030   63.5680 C   0  0  0  0  0  0  0  0  0  0  0  0
    1.3550   68.4270   64.6100 C   0  0  0  0  0  0  0  0  0  0  0  0
    0.0440   68.8290   64.3360 C   0  0  0  0  0  0  0  0  0  0  0  0
   -0.3380   69.2060   63.0510 C   0  0  0  0  0  0  0  0  0  0  0  0
   -0.8940   68.8290   65.2920 F   0  0  0  0  0  0  0  0  0  0  0  0
    2.0030   69.1220   67.0060 C   0  0  0  0  0  0  0  0  0  0  0  0
    1.0620   69.5890   67.6330 O   0  0  0  0  0  0  0  0  0  0  0  0
    3.3980   69.5950   67.1750 C   0  0  0  0  0  0  0  0  0  0  0  0
    4.3550   69.4440   66.1600 C   0  0  0  0  0  0  0  0  0  0  0  0
    5.6610   69.9030   66.3590 C   0  0  0  0  0  0  0  0  0  0  0  0
    6.0040   70.5090   67.5640 C   0  0  0  0  0  0  0  0  0  0  0  0
    5.0680   70.6670   68.5760 C   0  0  0  0  0  0  0  0  0  0  0  0
    3.7690   70.2100   68.3750 C   0  0  0  0  0  0  0  0  0  0  0  0
    2.8770   70.4100   69.3550 F   0  0  0  0  0  0  0  0  0  0  0  0
    7.2550   70.9480   67.7470 F   0  0  0  0  0  0  0  0  0  0  0  0
    2.6468   68.7637   61.4578 H   0  0  0  0  0  0  0  0  0  0  0  0
    3.3288   68.0872   63.7665 H   0  0  0  0  0  0  0  0  0  0  0  0
   -1.3720   69.5210   62.8467 H   0  0  0  0  0  0  0  0  0  0  0  0
    4.0784   68.9653   65.2091 H   0  0  0  0  0  0  0  0  0  0  0  0
    6.4143   69.7855   65.5661 H   0  0  0  0  0  0  0  0  0  0  0  0
    5.3491   71.1473   69.5249 H   0  0  0  0  0  0  0  0  0  0  0  0
  2  1  2  0
  4  3  1  0
  5  4  2  0
  6  5  1  0
  7  6  2  0
  7  1  1  0
  8  7  1  0
  9  8  2  0
  9  4  1  0
 10  8  1  0
 11  1  1  0
 12 11  2  0
 13 11  1  0
 14 13  2  0
 15 14  1  0
 16 15  2  0
 17 16  1  0
 18 17  2  0
 18 13  1  0
 19 18  1  0
 20 16  1  0
  5 21  1  0
  6 22  1  0
  9 23  1  0
 14 24  1  0
 15 25  1  0
 17 26  1  0
M  END
>  <score>  (2) 
-10.051

$$$$
=
     RDKit          3D

 26 27  0  0  0  0  0  0  0  0999 V2000
    1.8920   67.0380   65.0840 C   0  0  0  0  0  0  0  0  0  0  0  0
    0.8000   66.7840   65.5730 O   0  0  0  0  0  0  0  0  0  0  0  0
    5.6240   63.1390   63.5540 F   0  0  0  0  0  0  0  0  0  0  0  0
    4.7320   64.0660   63.9260 C   0  0  0  0  0  0  0  0  0  0  0  0
    3.9870   63.8730   65.0850 C   0  0  0  0  0  0  0  0  0  0  0  0
    3.0520   64.8360   65.4780 C   0  0  0  0  0  0  0  0  0  0  0  0
    2.8700   65.9910   64.7040 C   0  0  0  0  0  0  0  0  0  0  0  0
    3.6300   66.1590   63.5420 C   0  0  0  0  0  0  0  0  0  0  0  0
    4.5620   65.2020   63.1480 C   0  0  0  0  0  0  0  0  0  0  0  0
    3.4610   67.2280   62.7520 F   0  0  0  0  0  0  0  0  0  0  0  0
    2.2670   68.4900   64.8940 C   0  0  0  0  0  0  0  0  0  0  0  0
    1.7010   69.1220   64.0140 O   0  0  0  0  0  0  0  0  0  0  0  0
    3.3220   69.0760   65.7560 C   0  0  0  0  0  0  0  0  0  0  0  0
    4.6260   69.2870   65.2860 C   0  0  0  0  0  0  0  0  0  0  0  0
    5.5920   69.8420   66.1310 C   0  0  0  0  0  0  0  0  0  0  0  0
    5.2530   70.1840   67.4360 C   0  0  0  0  0  0  0  0  0  0  0  0
    3.9670   69.9830   67.9160 C   0  0  0  0  0  0  0  0  0  0  0  0
    3.0070   69.4310   67.0720 C   0  0  0  0  0  0  0  0  0  0  0  0
    1.7630   69.2840   67.5500 F   0  0  0  0  0  0  0  0  0  0  0  0
    6.1820   70.7160   68.2400 F   0  0  0  0  0  0  0  0  0  0  0  0
    4.1328   62.9661   65.6902 H   0  0  0  0  0  0  0  0  0  0  0  0
    2.4601   64.6875   66.3932 H   0  0  0  0  0  0  0  0  0  0  0  0
    5.1551   65.3449   62.2327 H   0  0  0  0  0  0  0  0  0  0  0  0
    4.8890   69.0160   64.2529 H   0  0  0  0  0  0  0  0  0  0  0  0
    6.6161   70.0075   65.7652 H   0  0  0  0  0  0  0  0  0  0  0  0
    3.7091   70.2562   68.9499 H   0  0  0  0  0  0  0  0  0  0  0  0
  2  1  2  0
  4  3  1  0
  5  4  2  0
  6  5  1  0
  7  6  2  0
  7  1  1  0
  8  7  1  0
  9  8  2  0
  9  4  1  0
 10  8  1  0
 11  1  1  0
 12 11  2  0
 13 11  1  0
 14 13  2  0
 15 14  1  0
 16 15  2  0
 17 16  1  0
 18 17  2  0
 18 13  1  0
 19 18  1  0
 20 16  1  0
  5 21  1  0
  6 22  1  0
  9 23  1  0
 14 24  1  0
 15 25  1  0
 17 26  1  0
M  END
>  <score>  (3) 
-9.967

$$$$
=
     RDKit          3D

 26 27  0  0  0  0  0  0  0  0999 V2000
    2.2830   68.4760   64.9100 C   0  0  0  0  0  0  0  0  0  0  0  0
    1.7690   69.1060   63.9950 O   0  0  0  0  0  0  0  0  0  0  0  0
    5.9620   70.7110   68.5050 F   0  0  0  0  0  0  0  0  0  0  0  0
    5.0900   70.1760   67.6420 C   0  0  0  0  0  0  0  0  0  0  0  0
    5.5180   69.8240   66.3660 C   0  0  0  0  0  0  0  0  0  0  0  0
    4.6110   69.2670   65.4590 C   0  0  0  0  0  0  0  0  0  0  0  0
    3.2770   69.0650   65.8380 C   0  0  0  0  0  0  0  0  0  0  0  0
    2.8720   69.4300   67.1260 C   0  0  0  0  0  0  0  0  0  0  0  0
    3.7720   69.9850   68.0320 C   0  0  0  0  0  0  0  0  0  0  0  0
    1.5980   69.2920   67.5170 F   0  0  0  0  0  0  0  0  0  0  0  0
    1.9070   67.0210   65.0710 C   0  0  0  0  0  0  0  0  0  0  0  0
    0.8040   66.7570   65.5290 O   0  0  0  0  0  0  0  0  0  0  0  0
    2.8950   65.9800   64.6990 C   0  0  0  0  0  0  0  0  0  0  0  0
    3.0930   64.8360   65.4870 C   0  0  0  0  0  0  0  0  0  0  0  0
    4.0360   63.8780   65.1010 C   0  0  0  0  0  0  0  0  0  0  0  0
    4.7720   64.0640   63.9360 C   0  0  0  0  0  0  0  0  0  0  0  0
    4.5870   65.1890   63.1450 C   0  0  0  0  0  0  0  0  0  0  0  0
    3.6480   66.1410   63.5310 C   0  0  0  0  0  0  0  0  0  0  0  0
    3.4630   67.1990   62.7290 F   0  0  0  0  0  0  0  0  0  0  0  0
    5.6730   63.1420   63.5720 F   0  0  0  0  0  0  0  0  0  0  0  0
    6.5659   69.9832   66.0716 H   0  0  0  0  0  0  0  0  0  0  0  0
    4.9444   68.9876   64.4487 H   0  0  0  0  0  0  0  0  0  0  0  0
    3.4428   70.2681   69.0427 H   0  0  0  0  0  0  0  0  0  0  0  0
    2.5073   64.6929   66.4071 H   0  0  0  0  0  0  0  0  0  0  0  0
    4.1949   62.9805   65.7169 H   0  0  0  0  0  0  0  0  0  0  0  0
    5.1746   65.3265   62.2253 H   0  0  0  0  0  0  0  0  0  0  0  0
  2  1  2  0
  4  3  1  0
  5  4  2  0
  6  5  1  0
  7  6  2  0
  7  1  1  0
  8  7  1  0
  9  8  2  0
  9  4  1  0
 10  8  1  0
 11  1  1  0
 12 11  2  0
 13 11  1  0
 14 13  2  0
 15 14  1  0
 16 15  2  0
 17 16  1  0
 18 17  2  0
 18 13  1  0
 19 18  1  0
 20 16  1  0
  5 21  1  0
  6 22  1  0
  9 23  1  0
 14 24  1  0
 15 25  1  0
 17 26  1  0
M  END
>  <score>  (4) 
-9.954

$$$$
=
     RDKit          3D

 26 27  0  0  0  0  0  0  0  0999 V2000
    2.0760   68.9990   67.1080 C   0  0  0  0  0  0  0  0  0  0  0  0
    1.9120   69.8140   68.0060 O   0  0  0  0  0  0  0  0  0  0  0  0
    6.0100   69.6500   63.1620 F   0  0  0  0  0  0  0  0  0  0  0  0
    5.0660   69.4910   64.0990 C   0  0  0  0  0  0  0  0  0  0  0  0
    3.7910   69.0820   63.7230 C   0  0  0  0  0  0  0  0  0  0  0  0
    2.8000   68.9170   64.6950 C   0  0  0  0  0  0  0  0  0  0  0  0
    3.0950   69.1640   66.0440 C   0  0  0  0  0  0  0  0  0  0  0  0
    4.3850   69.5760   66.3940 C   0  0  0  0  0  0  0  0  0  0  0  0
    5.3730   69.7420   65.4280 C   0  0  0  0  0  0  0  0  0  0  0  0
    4.6990   69.8610   67.6650 F   0  0  0  0  0  0  0  0  0  0  0  0
    1.1710   67.7900   67.0700 C   0  0  0  0  0  0  0  0  0  0  0  0
    1.6700   66.6890   67.2570 O   0  0  0  0  0  0  0  0  0  0  0  0
   -0.2710   67.9820   66.7790 C   0  0  0  0  0  0  0  0  0  0  0  0
   -0.7080   68.8220   65.7430 C   0  0  0  0  0  0  0  0  0  0  0  0
   -2.0760   68.9760   65.5020 C   0  0  0  0  0  0  0  0  0  0  0  0
   -2.9980   68.2950   66.2900 C   0  0  0  0  0  0  0  0  0  0  0  0
   -2.5810   67.4600   67.3160 C   0  0  0  0  0  0  0  0  0  0  0  0
   -1.2180   67.3070   67.5550 C   0  0  0  0  0  0  0  0  0  0  0  0
   -0.8440   66.4650   68.5280 F   0  0  0  0  0  0  0  0  0  0  0  0
   -4.3070   68.4460   66.0520 F   0  0  0  0  0  0  0  0  0  0  0  0
    3.5632   68.8890   62.6643 H   0  0  0  0  0  0  0  0  0  0  0  0
    1.7901   68.5939   64.4024 H   0  0  0  0  0  0  0  0  0  0  0  0
    6.3837   70.0679   65.7147 H   0  0  0  0  0  0  0  0  0  0  0  0
    0.0248   69.3581   65.1220 H   0  0  0  0  0  0  0  0  0  0  0  0
   -2.4226   69.6339   64.6914 H   0  0  0  0  0  0  0  0  0  0  0  0
   -3.3180   66.9253   67.9332 H   0  0  0  0  0  0  0  0  0  0  0  0
  2  1  2  0
  4  3  1  0
  5  4  2  0
  6  5  1  0
  7  6  2  0
  7  1  1  0
  8  7  1  0
  9  8  2  0
  9  4  1  0
 10  8  1  0
 11  1  1  0
 12 11  2  0
 13 11  1  0
 14 13  2  0
 15 14  1  0
 16 15  2  0
 17 16  1  0
 18 17  2  0
 18 13  1  0
 19 18  1  0
 20 16  1  0
  5 21  1  0
  6 22  1  0
  9 23  1  0
 14 24  1  0
 15 25  1  0
 17 26  1  0
M  END
>  <score>  (5) 
-9.898

$$$$
=
     RDKit          3D

 26 27  0  0  0  0  0  0  0  0999 V2000
    1.1310   67.8030   67.0780 C   0  0  0  0  0  0  0  0  0  0  0  0
    1.6250   66.7040   67.2950 O   0  0  0  0  0  0  0  0  0  0  0  0
   -4.3380   68.4640   66.0180 F   0  0  0  0  0  0  0  0  0  0  0  0
   -3.0300   68.3120   66.2660 C   0  0  0  0  0  0  0  0  0  0  0  0
   -2.1020   68.9970   65.4890 C   0  0  0  0  0  0  0  0  0  0  0  0
   -0.7350   68.8410   65.7400 C   0  0  0  0  0  0  0  0  0  0  0  0
   -0.3070   67.9960   66.7750 C   0  0  0  0  0  0  0  0  0  0  0  0
   -1.2610   67.3170   67.5390 C   0  0  0  0  0  0  0  0  0  0  0  0
   -2.6220   67.4700   67.2910 C   0  0  0  0  0  0  0  0  0  0  0  0
   -0.8950   66.4700   68.5100 F   0  0  0  0  0  0  0  0  0  0  0  0
    2.0430   69.0080   67.0880 C   0  0  0  0  0  0  0  0  0  0  0  0
    1.8930   69.8380   67.9730 O   0  0  0  0  0  0  0  0  0  0  0  0
    3.0550   69.1500   66.0130 C   0  0  0  0  0  0  0  0  0  0  0  0
    2.7450   68.8920   64.6700 C   0  0  0  0  0  0  0  0  0  0  0  0
    3.7290   69.0360   63.6860 C   0  0  0  0  0  0  0  0  0  0  0  0
    5.0110   69.4370   64.0470 C   0  0  0  0  0  0  0  0  0  0  0  0
    5.3330   69.6980   65.3700 C   0  0  0  0  0  0  0  0  0  0  0  0
    4.3520   69.5530   66.3470 C   0  0  0  0  0  0  0  0  0  0  0  0
    4.6810   69.8480   67.6130 F   0  0  0  0  0  0  0  0  0  0  0  0
    5.9480   69.5760   63.1000 F   0  0  0  0  0  0  0  0  0  0  0  0
   -2.4421   69.6595   64.6794 H   0  0  0  0  0  0  0  0  0  0  0  0
    0.0029   69.3796   65.1273 H   0  0  0  0  0  0  0  0  0  0  0  0
   -3.3638   66.9312   67.8988 H   0  0  0  0  0  0  0  0  0  0  0  0
    1.7289   68.5766   64.3904 H   0  0  0  0  0  0  0  0  0  0  0  0
    3.4899   68.8330   62.6317 H   0  0  0  0  0  0  0  0  0  0  0  0
    6.3500   70.0154   65.6440 H   0  0  0  0  0  0  0  0  0  0  0  0
  2  1  2  0
  4  3  1  0
  5  4  2  0
  6  5  1  0
  7  6  2  0
  7  1  1  0
  8  7  1  0
  9  8  2  0
  9  4  1  0
 10  8  1  0
 11  1  1  0
 12 11  2  0
 13 11  1  0
 14 13  2  0
 15 14  1  0
 16 15  2  0
 17 16  1  0
 18 17  2  0
 18 13  1  0
 19 18  1  0
 20 16  1  0
  5 21  1  0
  6 22  1  0
  9 23  1  0
 14 24  1  0
 15 25  1  0
 17 26  1  0
M  END
>  <score>  (6) 
-9.894

$$$$
=
     RDKit          3D

 26 27  0  0  0  0  0  0  0  0999 V2000
    3.0300   69.4040   67.1070 C   0  0  0  0  0  0  0  0  0  0  0  0
    2.9990   68.6460   66.1470 O   0  0  0  0  0  0  0  0  0  0  0  0
    7.8410   71.4850   69.1030 F   0  0  0  0  0  0  0  0  0  0  0  0
    6.6890   70.9900   68.6340 C   0  0  0  0  0  0  0  0  0  0  0  0
    5.6410   70.7430   69.5140 C   0  0  0  0  0  0  0  0  0  0  0  0
    4.4360   70.2220   69.0310 C   0  0  0  0  0  0  0  0  0  0  0  0
    4.2890   69.9530   67.6630 C   0  0  0  0  0  0  0  0  0  0  0  0
    5.3600   70.2090   66.7990 C   0  0  0  0  0  0  0  0  0  0  0  0
    6.5610   70.7260   67.2780 C   0  0  0  0  0  0  0  0  0  0  0  0
    5.2770   69.9290   65.4920 F   0  0  0  0  0  0  0  0  0  0  0  0
    1.7210   69.7650   67.7710 C   0  0  0  0  0  0  0  0  0  0  0  0
    1.6770   70.7850   68.4430 O   0  0  0  0  0  0  0  0  0  0  0  0
    0.5610   68.8560   67.6100 C   0  0  0  0  0  0  0  0  0  0  0  0
   -0.4770   69.1370   66.7080 C   0  0  0  0  0  0  0  0  0  0  0  0
   -1.5540   68.2550   66.5860 C   0  0  0  0  0  0  0  0  0  0  0  0
   -1.5910   67.0990   67.3600 C   0  0  0  0  0  0  0  0  0  0  0  0
   -0.5720   66.8060   68.2550 C   0  0  0  0  0  0  0  0  0  0  0  0
    0.4990   67.6860   68.3740 C   0  0  0  0  0  0  0  0  0  0  0  0
    1.4880   67.3580   69.2180 F   0  0  0  0  0  0  0  0  0  0  0  0
   -2.6250   66.2570   67.2370 F   0  0  0  0  0  0  0  0  0  0  0  0
    5.7592   70.9566   70.5866 H   0  0  0  0  0  0  0  0  0  0  0  0
    3.6048   70.0236   69.7237 H   0  0  0  0  0  0  0  0  0  0  0  0
    7.3969   70.9224   66.5905 H   0  0  0  0  0  0  0  0  0  0  0  0
   -0.4427   70.0513   66.0973 H   0  0  0  0  0  0  0  0  0  0  0  0
   -2.3695   68.4736   65.8809 H   0  0  0  0  0  0  0  0  0  0  0  0
   -0.6104   65.8898   68.8626 H   0  0  0  0  0  0  0  0  0  0  0  0
  2  1  2  0
  4  3  1  0
  5  4  2  0
  6  5  1  0
  7  6  2  0
  7  1  1  0
  8  7  1  0
  9  8  2  0
  9  4  1  0
 10  8  1  0
 11  1  1  0
 12 11  2  0
 13 11  1  0
 14 13  2  0
 15 14  1  0
 16 15  2  0
 17 16  1  0
 18 17  2  0
 18 13  1  0
 19 18  1  0
 20 16  1  0
  5 21  1  0
  6 22  1  0
  9 23  1  0
 14 24  1  0
 15 25  1  0
 17 26  1  0
M  END
>  <score>  (7) 
-9.505

$$$$
=
     RDKit          3D

 26 27  0  0  0  0  0  0  0  0999 V2000
    3.1850   68.7530   65.1470 C   0  0  0  0  0  0  0  0  0  0  0  0
    3.3430   69.0610   63.9730 O   0  0  0  0  0  0  0  0  0  0  0  0
    6.1990   71.0680   69.2730 F   0  0  0  0  0  0  0  0  0  0  0  0
    5.4730   70.5170   68.2910 C   0  0  0  0  0  0  0  0  0  0  0  0
    4.1050   70.3420   68.4690 C   0  0  0  0  0  0  0  0  0  0  0  0
    3.3400   69.7650   67.4500 C   0  0  0  0  0  0  0  0  0  0  0  0
    3.9560   69.3670   66.2540 C   0  0  0  0  0  0  0  0  0  0  0  0
    5.3340   69.5530   66.1020 C   0  0  0  0  0  0  0  0  0  0  0  0
    6.0970   70.1270   67.1150 C   0  0  0  0  0  0  0  0  0  0  0  0
    5.9690   69.1510   64.9930 F   0  0  0  0  0  0  0  0  0  0  0  0
    2.1790   67.6730   65.4700 C   0  0  0  0  0  0  0  0  0  0  0  0
    2.5870   66.5290   65.6170 O   0  0  0  0  0  0  0  0  0  0  0  0
    0.7430   68.0340   65.5630 C   0  0  0  0  0  0  0  0  0  0  0  0
    0.0570   68.6120   64.4840 C   0  0  0  0  0  0  0  0  0  0  0  0
   -1.2960   68.9380   64.6130 C   0  0  0  0  0  0  0  0  0  0  0  0
   -1.9560   68.6870   65.8120 C   0  0  0  0  0  0  0  0  0  0  0  0
   -1.2920   68.1140   66.8860 C   0  0  0  0  0  0  0  0  0  0  0  0
    0.0550   67.7900   66.7560 C   0  0  0  0  0  0  0  0  0  0  0  0
    0.6620   67.2030   67.7970 F   0  0  0  0  0  0  0  0  0  0  0  0
   -3.2530   69.0010   65.9280 F   0  0  0  0  0  0  0  0  0  0  0  0
    3.6261   70.6563   69.4081 H   0  0  0  0  0  0  0  0  0  0  0  0
    2.2577   69.6236   67.5861 H   0  0  0  0  0  0  0  0  0  0  0  0
    7.1799   70.2694   66.9848 H   0  0  0  0  0  0  0  0  0  0  0  0
    0.5832   68.8082   63.5382 H   0  0  0  0  0  0  0  0  0  0  0  0
   -1.8372   69.3915   63.7695 H   0  0  0  0  0  0  0  0  0  0  0  0
   -1.8234   67.9180   67.8290 H   0  0  0  0  0  0  0  0  0  0  0  0
  2  1  2  0
  4  3  1  0
  5  4  2  0
  6  5  1  0
  7  6  2  0
  7  1  1  0
  8  7  1  0
  9  8  2  0
  9  4  1  0
 10  8  1  0
 11  1  1  0
 12 11  2  0
 13 11  1  0
 14 13  2  0
 15 14  1  0
 16 15  2  0
 17 16  1  0
 18 17  2  0
 18 13  1  0
 19 18  1  0
 20 16  1  0
  5 21  1  0
  6 22  1  0
  9 23  1  0
 14 24  1  0
 15 25  1  0
 17 26  1  0
M  END
>  <score>  (8) 
-9.484

$$$$
=
     RDKit          3D

 26 27  0  0  0  0  0  0  0  0999 V2000
    2.2980   67.3090   65.7430 C   0  0  0  0  0  0  0  0  0  0  0  0
    2.2580   66.1000   65.9270 O   0  0  0  0  0  0  0  0  0  0  0  0
    5.3340   69.6800   61.6640 F   0  0  0  0  0  0  0  0  0  0  0  0
    4.6150   69.1160   62.6440 C   0  0  0  0  0  0  0  0  0  0  0  0
    5.1850   68.9470   63.9010 C   0  0  0  0  0  0  0  0  0  0  0  0
    4.4400   68.3570   64.9270 C   0  0  0  0  0  0  0  0  0  0  0  0
    3.1240   67.9380   64.6850 C   0  0  0  0  0  0  0  0  0  0  0  0
    2.5760   68.1160   63.4100 C   0  0  0  0  0  0  0  0  0  0  0  0
    3.3150   68.7040   62.3870 C   0  0  0  0  0  0  0  0  0  0  0  0
    1.3370   67.6950   63.1240 F   0  0  0  0  0  0  0  0  0  0  0  0
    1.4940   68.1970   66.6640 C   0  0  0  0  0  0  0  0  0  0  0  0
    2.0930   68.8400   67.5140 O   0  0  0  0  0  0  0  0  0  0  0  0
    0.0180   68.2270   66.5230 C   0  0  0  0  0  0  0  0  0  0  0  0
   -0.6090   68.9430   65.4930 C   0  0  0  0  0  0  0  0  0  0  0  0
   -2.0040   68.9460   65.3940 C   0  0  0  0  0  0  0  0  0  0  0  0
   -2.7630   68.2370   66.3200 C   0  0  0  0  0  0  0  0  0  0  0  0
   -2.1570   67.5230   67.3430 C   0  0  0  0  0  0  0  0  0  0  0  0
   -0.7690   67.5210   67.4390 C   0  0  0  0  0  0  0  0  0  0  0  0
   -0.2100   66.7910   68.4140 F   0  0  0  0  0  0  0  0  0  0  0  0
   -4.0980   68.2430   66.2200 F   0  0  0  0  0  0  0  0  0  0  0  0
    6.2179   69.2761   64.0877 H   0  0  0  0  0  0  0  0  0  0  0  0
    4.8862   68.2217   65.9233 H   0  0  0  0  0  0  0  0  0  0  0  0
    2.8743   68.8402   61.3884 H   0  0  0  0  0  0  0  0  0  0  0  0
   -0.0041   69.5017   64.7636 H   0  0  0  0  0  0  0  0  0  0  0  0
   -2.4992   69.5065   64.5874 H   0  0  0  0  0  0  0  0  0  0  0  0
   -2.7662   66.9652   68.0695 H   0  0  0  0  0  0  0  0  0  0  0  0
  2  1  2  0
  4  3  1  0
  5  4  2  0
  6  5  1  0
  7  6  2  0
  7  1  1  0
  8  7  1  0
  9  8  2  0
  9  4  1  0
 10  8  1  0
 11  1  1  0
 12 11  2  0
 13 11  1  0
 14 13  2  0
 15 14  1  0
 16 15  2  0
 17 16  1  0
 18 17  2  0
 18 13  1  0
 19 18  1  0
 20 16  1  0
  5 21  1  0
  6 22  1  0
  9 23  1  0
 14 24  1  0
 15 25  1  0
 17 26  1  0
M  END
>  <score>  (9) 
-8.839

$$$$
