=
     RDKit          3D

 29 28  0  0  0  0  0  0  0  0999 V2000
    1.4400   67.6160   64.1380 C   0  0  0  0  0  0  0  0  0  0  0  0
    1.0370   68.9270   63.6710 O   0  0  0  0  0  0  0  0  0  0  0  0
    0.2620   69.6550   61.5860 C   0  0  0  0  0  0  0  0  0  0  0  0
   -0.0700   68.9900   62.8860 C   0  0  0  0  0  0  0  0  0  0  0  0
   -1.1820   68.5750   63.1860 O   0  0  0  0  0  0  0  0  0  0  0  0
    2.8890   67.4140   63.6870 C   0  0  0  0  0  0  0  0  0  0  0  0
    3.5070   66.4340   64.5420 O   0  0  0  0  0  0  0  0  0  0  0  0
    3.9740   65.3380   63.8840 C   0  0  0  0  0  0  0  0  0  0  0  0
    4.4870   65.3470   62.7730 O   0  0  0  0  0  0  0  0  0  0  0  0
    3.7750   64.1110   64.7200 C   0  0  0  0  0  0  0  0  0  0  0  0
    1.3530   67.5620   65.6700 C   0  0  0  0  0  0  0  0  0  0  0  0
    0.1070   66.9790   66.0960 O   0  0  0  0  0  0  0  0  0  0  0  0
   -0.8040   67.8210   66.6540 C   0  0  0  0  0  0  0  0  0  0  0  0
   -0.8570   69.0300   66.4770 O   0  0  0  0  0  0  0  0  0  0  0  0
   -1.7490   67.0500   67.5220 C   0  0  0  0  0  0  0  0  0  0  0  0
    0.7875   66.8291   63.7317 H   0  0  0  0  0  0  0  0  0  0  0  0
    0.7454   70.6233   61.7824 H   0  0  0  0  0  0  0  0  0  0  0  0
    0.9458   69.0139   61.0103 H   0  0  0  0  0  0  0  0  0  0  0  0
   -0.6614   69.8163   61.0103 H   0  0  0  0  0  0  0  0  0  0  0  0
    2.9065   67.0601   62.6456 H   0  0  0  0  0  0  0  0  0  0  0  0
    3.4372   68.3656   63.7508 H   0  0  0  0  0  0  0  0  0  0  0  0
    3.8189   64.3820   65.7852 H   0  0  0  0  0  0  0  0  0  0  0  0
    2.7934   63.6688   64.4943 H   0  0  0  0  0  0  0  0  0  0  0  0
    4.5665   63.3812   64.4943 H   0  0  0  0  0  0  0  0  0  0  0  0
    2.1849   66.9548   66.0563 H   0  0  0  0  0  0  0  0  0  0  0  0
    1.4112   68.5886   66.0607 H   0  0  0  0  0  0  0  0  0  0  0  0
   -1.5145   67.2413   68.5796 H   0  0  0  0  0  0  0  0  0  0  0  0
   -2.7812   67.3670   67.3121 H   0  0  0  0  0  0  0  0  0  0  0  0
   -1.6457   65.9752   67.3121 H   0  0  0  0  0  0  0  0  0  0  0  0
  2  1  1  0
  4  3  1  0
  4  2  1  0
  5  4  2  0
  6  1  1  0
  7  6  1  0
  8  7  1  0
  9  8  2  0
 10  8  1  0
 11  1  1  0
 12 11  1  0
 13 12  1  0
 14 13  2  0
 15 13  1  0
  1 16  1  0
  3 17  1  0
  3 18  1  0
  3 19  1  0
  6 20  1  0
  6 21  1  0
 10 22  1  0
 10 23  1  0
 10 24  1  0
 11 25  1  0
 11 26  1  0
 15 27  1  0
 15 28  1  0
 15 29  1  0
M  END
>  <score>  (1) 
-6.106

$$$$
=
     RDKit          3D

 29 28  0  0  0  0  0  0  0  0999 V2000
    1.6100   67.1620   65.8470 C   0  0  0  0  0  0  0  0  0  0  0  0
    0.1950   66.9140   66.0310 O   0  0  0  0  0  0  0  0  0  0  0  0
   -1.5750   68.0480   67.0600 C   0  0  0  0  0  0  0  0  0  0  0  0
   -0.3360   67.2270   67.2420 C   0  0  0  0  0  0  0  0  0  0  0  0
    0.1230   66.9000   68.3280 O   0  0  0  0  0  0  0  0  0  0  0  0
    2.0370   66.3770   64.6040 C   0  0  0  0  0  0  0  0  0  0  0  0
    3.4430   66.0840   64.7030 O   0  0  0  0  0  0  0  0  0  0  0  0
    3.8340   64.9900   63.9960 C   0  0  0  0  0  0  0  0  0  0  0  0
    4.0920   64.9770   62.8000 O   0  0  0  0  0  0  0  0  0  0  0  0
    3.9080   63.7940   64.8950 C   0  0  0  0  0  0  0  0  0  0  0  0
    1.8500   68.6630   65.6310 C   0  0  0  0  0  0  0  0  0  0  0  0
    2.9980   69.1140   66.3740 O   0  0  0  0  0  0  0  0  0  0  0  0
    4.1020   69.4500   65.6530 C   0  0  0  0  0  0  0  0  0  0  0  0
    4.1970   69.4020   64.4340 O   0  0  0  0  0  0  0  0  0  0  0  0
    5.1970   69.8970   66.5710 C   0  0  0  0  0  0  0  0  0  0  0  0
    2.1885   66.8485   66.7285 H   0  0  0  0  0  0  0  0  0  0  0  0
   -1.9835   68.3187   68.0448 H   0  0  0  0  0  0  0  0  0  0  0  0
   -1.3297   68.9629   66.5007 H   0  0  0  0  0  0  0  0  0  0  0  0
   -2.3220   67.4655   66.5007 H   0  0  0  0  0  0  0  0  0  0  0  0
    1.4666   65.4383   64.5451 H   0  0  0  0  0  0  0  0  0  0  0  0
    1.8411   66.9719   63.6997 H   0  0  0  0  0  0  0  0  0  0  0  0
    3.8877   64.1225   65.9446 H   0  0  0  0  0  0  0  0  0  0  0  0
    3.0489   63.1352   64.7003 H   0  0  0  0  0  0  0  0  0  0  0  0
    4.8418   63.2461   64.7003 H   0  0  0  0  0  0  0  0  0  0  0  0
    2.0184   68.8500   64.5602 H   0  0  0  0  0  0  0  0  0  0  0  0
    0.9656   69.2137   65.9839 H   0  0  0  0  0  0  0  0  0  0  0  0
    4.8764   69.7661   67.6151 H   0  0  0  0  0  0  0  0  0  0  0  0
    6.0990   69.2951   66.3862 H   0  0  0  0  0  0  0  0  0  0  0  0
    5.4201   70.9582   66.3862 H   0  0  0  0  0  0  0  0  0  0  0  0
  2  1  1  0
  4  3  1  0
  4  2  1  0
  5  4  2  0
  6  1  1  0
  7  6  1  0
  8  7  1  0
  9  8  2  0
 10  8  1  0
 11  1  1  0
 12 11  1  0
 13 12  1  0
 14 13  2  0
 15 13  1  0
  1 16  1  0
  3 17  1  0
  3 18  1  0
  3 19  1  0
  6 20  1  0
  6 21  1  0
 10 22  1  0
 10 23  1  0
 10 24  1  0
 11 25  1  0
 11 26  1  0
 15 27  1  0
 15 28  1  0
 15 29  1  0
M  END
>  <score>  (2) 
-6.086

$$$$
=
     RDKit          3D

 29 28  0  0  0  0  0  0  0  0999 V2000
    1.6910   67.2460   65.4140 C   0  0  0  0  0  0  0  0  0  0  0  0
    0.3870   66.8110   65.8700 O   0  0  0  0  0  0  0  0  0  0  0  0
    0.6170   67.7160   68.0170 C   0  0  0  0  0  0  0  0  0  0  0  0
   -0.2360   67.5900   66.7920 C   0  0  0  0  0  0  0  0  0  0  0  0
   -1.3350   68.1130   66.6590 O   0  0  0  0  0  0  0  0  0  0  0  0
    2.3330   66.0480   64.7080 C   0  0  0  0  0  0  0  0  0  0  0  0
    3.7230   66.3410   64.4730 O   0  0  0  0  0  0  0  0  0  0  0  0
    4.2010   65.8580   63.2940 C   0  0  0  0  0  0  0  0  0  0  0  0
    4.2860   64.6740   62.9980 O   0  0  0  0  0  0  0  0  0  0  0  0
    4.6100   66.9890   62.4020 C   0  0  0  0  0  0  0  0  0  0  0  0
    1.5340   68.4140   64.4300 C   0  0  0  0  0  0  0  0  0  0  0  0
    0.8430   67.9960   63.2380 O   0  0  0  0  0  0  0  0  0  0  0  0
   -0.2330   68.7380   62.8600 C   0  0  0  0  0  0  0  0  0  0  0  0
   -1.3560   68.6560   63.3380 O   0  0  0  0  0  0  0  0  0  0  0  0
    0.1570   69.6850   61.7680 C   0  0  0  0  0  0  0  0  0  0  0  0
    2.3134   67.5892   66.2535 H   0  0  0  0  0  0  0  0  0  0  0  0
   -0.0132   67.6229   68.9138 H   0  0  0  0  0  0  0  0  0  0  0  0
    1.3765   66.9203   68.0184 H   0  0  0  0  0  0  0  0  0  0  0  0
    1.1140   68.6973   68.0184 H   0  0  0  0  0  0  0  0  0  0  0  0
    2.2454   65.1538   65.3427 H   0  0  0  0  0  0  0  0  0  0  0  0
    1.8230   65.8591   63.7518 H   0  0  0  0  0  0  0  0  0  0  0  0
    4.9203   67.8469   63.0166 H   0  0  0  0  0  0  0  0  0  0  0  0
    5.4497   66.6700   61.7671 H   0  0  0  0  0  0  0  0  0  0  0  0
    3.7605   67.2809   61.7671 H   0  0  0  0  0  0  0  0  0  0  0  0
    0.9607   69.2180   64.9147 H   0  0  0  0  0  0  0  0  0  0  0  0
    2.5354   68.7707   64.1473 H   0  0  0  0  0  0  0  0  0  0  0  0
    0.5406   70.6164   62.2100 H   0  0  0  0  0  0  0  0  0  0  0  0
    0.9390   69.2252   61.1458 H   0  0  0  0  0  0  0  0  0  0  0  0
   -0.7220   69.9092   61.1458 H   0  0  0  0  0  0  0  0  0  0  0  0
  2  1  1  0
  4  3  1  0
  4  2  1  0
  5  4  2  0
  6  1  1  0
  7  6  1  0
  8  7  1  0
  9  8  2  0
 10  8  1  0
 11  1  1  0
 12 11  1  0
 13 12  1  0
 14 13  2  0
 15 13  1  0
  1 16  1  0
  3 17  1  0
  3 18  1  0
  3 19  1  0
  6 20  1  0
  6 21  1  0
 10 22  1  0
 10 23  1  0
 10 24  1  0
 11 25  1  0
 11 26  1  0
 15 27  1  0
 15 28  1  0
 15 29  1  0
M  END
>  <score>  (3) 
-6.047

$$$$
=
     RDKit          3D

 29 28  0  0  0  0  0  0  0  0999 V2000
    2.1310   66.9390   64.4140 C   0  0  0  0  0  0  0  0  0  0  0  0
    3.5000   66.5060   64.6060 O   0  0  0  0  0  0  0  0  0  0  0  0
    3.6180   64.1700   64.6970 C   0  0  0  0  0  0  0  0  0  0  0  0
    3.9050   65.4110   63.9090 C   0  0  0  0  0  0  0  0  0  0  0  0
    4.4330   65.4230   62.8060 O   0  0  0  0  0  0  0  0  0  0  0  0
    1.6140   67.3850   65.7850 C   0  0  0  0  0  0  0  0  0  0  0  0
    0.2950   66.8430   65.9800 O   0  0  0  0  0  0  0  0  0  0  0  0
   -0.5140   67.6140   66.7560 C   0  0  0  0  0  0  0  0  0  0  0  0
   -0.9080   68.7360   66.4690 O   0  0  0  0  0  0  0  0  0  0  0  0
   -0.8590   66.8890   68.0200 C   0  0  0  0  0  0  0  0  0  0  0  0
    2.0920   68.1160   63.4290 C   0  0  0  0  0  0  0  0  0  0  0  0
    1.0320   69.0320   63.7600 O   0  0  0  0  0  0  0  0  0  0  0  0
   -0.0460   69.0470   62.9310 C   0  0  0  0  0  0  0  0  0  0  0  0
   -1.1570   68.6100   63.2000 O   0  0  0  0  0  0  0  0  0  0  0  0
    0.3190   69.6860   61.6270 C   0  0  0  0  0  0  0  0  0  0  0  0
    1.5102   66.1296   64.0022 H   0  0  0  0  0  0  0  0  0  0  0  0
    3.6707   64.3978   65.7719 H   0  0  0  0  0  0  0  0  0  0  0  0
    2.6112   63.8028   64.4489 H   0  0  0  0  0  0  0  0  0  0  0  0
    4.3613   63.3980   64.4489 H   0  0  0  0  0  0  0  0  0  0  0  0
    2.2865   67.0144   66.5726 H   0  0  0  0  0  0  0  0  0  0  0  0
    1.5784   68.4834   65.8327 H   0  0  0  0  0  0  0  0  0  0  0  0
   -0.5673   67.5020   68.8856 H   0  0  0  0  0  0  0  0  0  0  0  0
   -1.9426   66.7022   68.0515 H   0  0  0  0  0  0  0  0  0  0  0  0
   -0.3206   65.9303   68.0515 H   0  0  0  0  0  0  0  0  0  0  0  0
    3.0533   68.6493   63.4678 H   0  0  0  0  0  0  0  0  0  0  0  0
    1.9105   67.7210   62.4186 H   0  0  0  0  0  0  0  0  0  0  0  0
    0.8564   70.6267   61.8174 H   0  0  0  0  0  0  0  0  0  0  0  0
    0.9643   69.0049   61.0528 H   0  0  0  0  0  0  0  0  0  0  0  0
   -0.5955   69.8958   61.0528 H   0  0  0  0  0  0  0  0  0  0  0  0
  2  1  1  0
  4  3  1  0
  4  2  1  0
  5  4  2  0
  6  1  1  0
  7  6  1  0
  8  7  1  0
  9  8  2  0
 10  8  1  0
 11  1  1  0
 12 11  1  0
 13 12  1  0
 14 13  2  0
 15 13  1  0
  1 16  1  0
  3 17  1  0
  3 18  1  0
  3 19  1  0
  6 20  1  0
  6 21  1  0
 10 22  1  0
 10 23  1  0
 10 24  1  0
 11 25  1  0
 11 26  1  0
 15 27  1  0
 15 28  1  0
 15 29  1  0
M  END
>  <score>  (4) 
-6.027

$$$$
=
     RDKit          3D

 29 28  0  0  0  0  0  0  0  0999 V2000
    2.5110   66.7670   64.3910 C   0  0  0  0  0  0  0  0  0  0  0  0
    3.8060   66.1280   64.5020 O   0  0  0  0  0  0  0  0  0  0  0  0
    3.7990   63.8170   64.8760 C   0  0  0  0  0  0  0  0  0  0  0  0
    3.9580   64.9270   63.8830 C   0  0  0  0  0  0  0  0  0  0  0  0
    4.1960   64.7620   62.6950 O   0  0  0  0  0  0  0  0  0  0  0  0
    2.0390   67.0570   65.8190 C   0  0  0  0  0  0  0  0  0  0  0  0
    0.6160   66.8490   65.8860 O   0  0  0  0  0  0  0  0  0  0  0  0
   -0.1000   67.9830   66.1140 C   0  0  0  0  0  0  0  0  0  0  0  0
   -1.0390   68.3740   65.4330 O   0  0  0  0  0  0  0  0  0  0  0  0
    0.4220   68.6880   67.3280 C   0  0  0  0  0  0  0  0  0  0  0  0
    2.6450   68.0790   63.6040 C   0  0  0  0  0  0  0  0  0  0  0  0
    3.1010   69.1460   64.4550 O   0  0  0  0  0  0  0  0  0  0  0  0
    4.4310   69.4310   64.4220 C   0  0  0  0  0  0  0  0  0  0  0  0
    5.1130   69.5270   63.4110 O   0  0  0  0  0  0  0  0  0  0  0  0
    4.9500   69.6180   65.8140 C   0  0  0  0  0  0  0  0  0  0  0  0
    1.7926   66.1242   63.8612 H   0  0  0  0  0  0  0  0  0  0  0  0
    3.8576   64.2259   65.8955 H   0  0  0  0  0  0  0  0  0  0  0  0
    2.8223   63.3323   64.7309 H   0  0  0  0  0  0  0  0  0  0  0  0
    4.6004   63.0776   64.7309 H   0  0  0  0  0  0  0  0  0  0  0  0
    2.5457   66.3787   66.5213 H   0  0  0  0  0  0  0  0  0  0  0  0
    2.2791   68.0959   66.0894 H   0  0  0  0  0  0  0  0  0  0  0  0
    0.0496   68.1850   68.2326 H   0  0  0  0  0  0  0  0  0  0  0  0
    1.5217   68.6639   67.3215 H   0  0  0  0  0  0  0  0  0  0  0  0
    0.0781   69.7328   67.3215 H   0  0  0  0  0  0  0  0  0  0  0  0
    3.3678   67.9364   62.7871 H   0  0  0  0  0  0  0  0  0  0  0  0
    1.6575   68.3490   63.2017 H   0  0  0  0  0  0  0  0  0  0  0  0
    4.1700   69.3370   66.5370 H   0  0  0  0  0  0  0  0  0  0  0  0
    5.8351   68.9822   65.9638 H   0  0  0  0  0  0  0  0  0  0  0  0
    5.2262   70.6722   65.9638 H   0  0  0  0  0  0  0  0  0  0  0  0
  2  1  1  0
  4  3  1  0
  4  2  1  0
  5  4  2  0
  6  1  1  0
  7  6  1  0
  8  7  1  0
  9  8  2  0
 10  8  1  0
 11  1  1  0
 12 11  1  0
 13 12  1  0
 14 13  2  0
 15 13  1  0
  1 16  1  0
  3 17  1  0
  3 18  1  0
  3 19  1  0
  6 20  1  0
  6 21  1  0
 10 22  1  0
 10 23  1  0
 10 24  1  0
 11 25  1  0
 11 26  1  0
 15 27  1  0
 15 28  1  0
 15 29  1  0
M  END
>  <score>  (5) 
-6.006

$$$$
=
     RDKit          3D

 29 28  0  0  0  0  0  0  0  0999 V2000
    2.1240   67.8650   65.8310 C   0  0  0  0  0  0  0  0  0  0  0  0
    2.5080   69.0340   65.0670 O   0  0  0  0  0  0  0  0  0  0  0  0
    4.4090   69.5690   66.3230 C   0  0  0  0  0  0  0  0  0  0  0  0
    3.8370   69.2960   64.9660 C   0  0  0  0  0  0  0  0  0  0  0  0
    4.4830   69.3170   63.9270 O   0  0  0  0  0  0  0  0  0  0  0  0
    0.7900   68.1990   66.5060 C   0  0  0  0  0  0  0  0  0  0  0  0
   -0.0680   67.0450   66.4290 O   0  0  0  0  0  0  0  0  0  0  0  0
   -0.8420   66.8530   67.5320 C   0  0  0  0  0  0  0  0  0  0  0  0
   -0.4310   66.5040   68.6300 O   0  0  0  0  0  0  0  0  0  0  0  0
   -2.2770   67.1360   67.2110 C   0  0  0  0  0  0  0  0  0  0  0  0
    1.9520   66.6630   64.8910 C   0  0  0  0  0  0  0  0  0  0  0  0
    2.6750   65.5180   65.3810 O   0  0  0  0  0  0  0  0  0  0  0  0
    3.4000   64.8160   64.4690 C   0  0  0  0  0  0  0  0  0  0  0  0
    3.4140   63.5980   64.3550 O   0  0  0  0  0  0  0  0  0  0  0  0
    4.1870   65.7560   63.6070 C   0  0  0  0  0  0  0  0  0  0  0  0
    2.8899   67.6063   66.5770 H   0  0  0  0  0  0  0  0  0  0  0  0
    3.7010   69.2311   67.0941 H   0  0  0  0  0  0  0  0  0  0  0  0
    5.3599   69.0276   66.4358 H   0  0  0  0  0  0  0  0  0  0  0  0
    4.5862   70.6488   66.4358 H   0  0  0  0  0  0  0  0  0  0  0  0
    0.9639   68.4613   67.5600 H   0  0  0  0  0  0  0  0  0  0  0  0
    0.3166   69.0526   65.9987 H   0  0  0  0  0  0  0  0  0  0  0  0
   -2.8465   67.2483   68.1454 H   0  0  0  0  0  0  0  0  0  0  0  0
   -2.3455   68.0650   66.6259 H   0  0  0  0  0  0  0  0  0  0  0  0
   -2.6931   66.3026   66.6259 H   0  0  0  0  0  0  0  0  0  0  0  0
    0.8836   66.4110   64.8209 H   0  0  0  0  0  0  0  0  0  0  0  0
    2.3498   66.9319   63.9013 H   0  0  0  0  0  0  0  0  0  0  0  0
    4.7625   66.4434   64.2445 H   0  0  0  0  0  0  0  0  0  0  0  0
    4.8767   65.1807   62.9719 H   0  0  0  0  0  0  0  0  0  0  0  0
    3.4994   66.3339   62.9719 H   0  0  0  0  0  0  0  0  0  0  0  0
  2  1  1  0
  4  3  1  0
  4  2  1  0
  5  4  2  0
  6  1  1  0
  7  6  1  0
  8  7  1  0
  9  8  2  0
 10  8  1  0
 11  1  1  0
 12 11  1  0
 13 12  1  0
 14 13  2  0
 15 13  1  0
  1 16  1  0
  3 17  1  0
  3 18  1  0
  3 19  1  0
  6 20  1  0
  6 21  1  0
 10 22  1  0
 10 23  1  0
 10 24  1  0
 11 25  1  0
 11 26  1  0
 15 27  1  0
 15 28  1  0
 15 29  1  0
M  END
>  <score>  (6) 
-5.96

$$$$
=
     RDKit          3D

 29 28  0  0  0  0  0  0  0  0999 V2000
    1.6140   67.6640   64.7600 C   0  0  0  0  0  0  0  0  0  0  0  0
    0.7510   67.6750   63.5970 O   0  0  0  0  0  0  0  0  0  0  0  0
    2.2640   68.6420   62.0960 C   0  0  0  0  0  0  0  0  0  0  0  0
    0.9050   68.7030   62.7230 C   0  0  0  0  0  0  0  0  0  0  0  0
    0.0700   69.5640   62.4790 O   0  0  0  0  0  0  0  0  0  0  0  0
    0.7410   68.0420   65.9600 C   0  0  0  0  0  0  0  0  0  0  0  0
   -0.2300   67.0000   66.1720 O   0  0  0  0  0  0  0  0  0  0  0  0
   -0.7450   66.9680   67.4310 C   0  0  0  0  0  0  0  0  0  0  0  0
   -0.1010   66.7730   68.4530 O   0  0  0  0  0  0  0  0  0  0  0  0
   -2.2220   67.2120   67.3910 C   0  0  0  0  0  0  0  0  0  0  0  0
    2.2000   66.2590   64.9580 C   0  0  0  0  0  0  0  0  0  0  0  0
    3.5120   66.1600   64.3730 O   0  0  0  0  0  0  0  0  0  0  0  0
    3.8980   64.9300   63.9380 C   0  0  0  0  0  0  0  0  0  0  0  0
    4.3010   64.6660   62.8140 O   0  0  0  0  0  0  0  0  0  0  0  0
    3.7630   63.9300   65.0450 C   0  0  0  0  0  0  0  0  0  0  0  0
    2.4504   68.3688   64.6431 H   0  0  0  0  0  0  0  0  0  0  0  0
    3.0303   68.6076   62.8844 H   0  0  0  0  0  0  0  0  0  0  0  0
    2.3396   67.7396   61.4716 H   0  0  0  0  0  0  0  0  0  0  0  0
    2.4201   69.5340   61.4716 H   0  0  0  0  0  0  0  0  0  0  0  0
    1.3701   68.1494   66.8560 H   0  0  0  0  0  0  0  0  0  0  0  0
    0.2297   68.9963   65.7653 H   0  0  0  0  0  0  0  0  0  0  0  0
   -2.6110   67.2763   68.4179 H   0  0  0  0  0  0  0  0  0  0  0  0
   -2.4236   68.1556   66.8628 H   0  0  0  0  0  0  0  0  0  0  0  0
   -2.7164   66.3834   66.8628 H   0  0  0  0  0  0  0  0  0  0  0  0
    2.2694   66.0467   66.0351 H   0  0  0  0  0  0  0  0  0  0  0  0
    1.5400   65.5311   64.4635 H   0  0  0  0  0  0  0  0  0  0  0  0
    3.8325   64.4448   66.0146 H   0  0  0  0  0  0  0  0  0  0  0  0
    2.7886   63.4256   64.9667 H   0  0  0  0  0  0  0  0  0  0  0  0
    4.5688   63.1853   64.9667 H   0  0  0  0  0  0  0  0  0  0  0  0
  2  1  1  0
  4  3  1  0
  4  2  1  0
  5  4  2  0
  6  1  1  0
  7  6  1  0
  8  7  1  0
  9  8  2  0
 10  8  1  0
 11  1  1  0
 12 11  1  0
 13 12  1  0
 14 13  2  0
 15 13  1  0
  1 16  1  0
  3 17  1  0
  3 18  1  0
  3 19  1  0
  6 20  1  0
  6 21  1  0
 10 22  1  0
 10 23  1  0
 10 24  1  0
 11 25  1  0
 11 26  1  0
 15 27  1  0
 15 28  1  0
 15 29  1  0
M  END
>  <score>  (7) 
-5.954

$$$$
=
     RDKit          3D

 29 28  0  0  0  0  0  0  0  0999 V2000
    1.6900   67.7990   64.6520 C   0  0  0  0  0  0  0  0  0  0  0  0
    0.9570   68.9860   64.2640 O   0  0  0  0  0  0  0  0  0  0  0  0
    0.8240   69.1880   61.9360 C   0  0  0  0  0  0  0  0  0  0  0  0
    0.1060   68.8700   63.2120 C   0  0  0  0  0  0  0  0  0  0  0  0
   -1.0760   68.5610   63.2800 O   0  0  0  0  0  0  0  0  0  0  0  0
    3.1780   68.1510   64.5610 C   0  0  0  0  0  0  0  0  0  0  0  0
    3.5120   69.0320   65.6500 O   0  0  0  0  0  0  0  0  0  0  0  0
    4.7030   69.6730   65.5010 C   0  0  0  0  0  0  0  0  0  0  0  0
    5.2710   70.3180   66.3720 O   0  0  0  0  0  0  0  0  0  0  0  0
    5.2270   69.4720   64.1120 C   0  0  0  0  0  0  0  0  0  0  0  0
    1.3280   67.4120   66.0930 C   0  0  0  0  0  0  0  0  0  0  0  0
    0.0330   66.7850   66.1490 O   0  0  0  0  0  0  0  0  0  0  0  0
   -0.7810   67.1510   67.1750 C   0  0  0  0  0  0  0  0  0  0  0  0
   -0.9720   66.5060   68.1970 O   0  0  0  0  0  0  0  0  0  0  0  0
   -1.4150   68.4750   66.8800 C   0  0  0  0  0  0  0  0  0  0  0  0
    1.4451   66.9478   63.9997 H   0  0  0  0  0  0  0  0  0  0  0  0
    1.8073   69.6235   62.1673 H   0  0  0  0  0  0  0  0  0  0  0  0
    0.9596   68.2658   61.3519 H   0  0  0  0  0  0  0  0  0  0  0  0
    0.2322   69.9082   61.3519 H   0  0  0  0  0  0  0  0  0  0  0  0
    3.7803   67.2331   64.6295 H   0  0  0  0  0  0  0  0  0  0  0  0
    3.3879   68.6457   63.6012 H   0  0  0  0  0  0  0  0  0  0  0  0
    6.2530   69.0784   64.1606 H   0  0  0  0  0  0  0  0  0  0  0  0
    4.5847   68.7564   63.5778 H   0  0  0  0  0  0  0  0  0  0  0  0
    5.2280   70.4336   63.5778 H   0  0  0  0  0  0  0  0  0  0  0  0
    2.0838   66.7116   66.4780 H   0  0  0  0  0  0  0  0  0  0  0  0
    1.3019   68.3255   66.7052 H   0  0  0  0  0  0  0  0  0  0  0  0
   -1.6585   68.9835   67.8245 H   0  0  0  0  0  0  0  0  0  0  0  0
   -0.7161   69.0950   66.2994 H   0  0  0  0  0  0  0  0  0  0  0  0
   -2.3362   68.3192   66.2994 H   0  0  0  0  0  0  0  0  0  0  0  0
  2  1  1  0
  4  3  1  0
  4  2  1  0
  5  4  2  0
  6  1  1  0
  7  6  1  0
  8  7  1  0
  9  8  2  0
 10  8  1  0
 11  1  1  0
 12 11  1  0
 13 12  1  0
 14 13  2  0
 15 13  1  0
  1 16  1  0
  3 17  1  0
  3 18  1  0
  3 19  1  0
  6 20  1  0
  6 21  1  0
 10 22  1  0
 10 23  1  0
 10 24  1  0
 11 25  1  0
 11 26  1  0
 15 27  1  0
 15 28  1  0
 15 29  1  0
M  END
>  <score>  (8) 
-5.871

$$$$
=
     RDKit          3D

 29 28  0  0  0  0  0  0  0  0999 V2000
    2.8040   68.2630   64.9940 C   0  0  0  0  0  0  0  0  0  0  0  0
    2.3920   67.5560   66.1890 O   0  0  0  0  0  0  0  0  0  0  0  0
    0.8500   68.7270   67.5040 C   0  0  0  0  0  0  0  0  0  0  0  0
    1.0760   67.6190   66.5220 C   0  0  0  0  0  0  0  0  0  0  0  0
    0.1970   66.8830   66.0970 O   0  0  0  0  0  0  0  0  0  0  0  0
    4.1480   68.9230   65.3130 C   0  0  0  0  0  0  0  0  0  0  0  0
    3.9720   69.8150   66.4300 O   0  0  0  0  0  0  0  0  0  0  0  0
    5.0920   69.9910   67.1820 C   0  0  0  0  0  0  0  0  0  0  0  0
    6.2350   69.7600   66.8120 O   0  0  0  0  0  0  0  0  0  0  0  0
    4.7260   70.5170   68.5360 C   0  0  0  0  0  0  0  0  0  0  0  0
    2.9670   67.2700   63.8340 C   0  0  0  0  0  0  0  0  0  0  0  0
    2.9870   65.9130   64.3150 O   0  0  0  0  0  0  0  0  0  0  0  0
    4.0110   65.1260   63.8870 C   0  0  0  0  0  0  0  0  0  0  0  0
    4.8220   65.4230   63.0200 O   0  0  0  0  0  0  0  0  0  0  0  0
    4.0100   63.8310   64.6390 C   0  0  0  0  0  0  0  0  0  0  0  0
    2.0572   69.0141   64.6972 H   0  0  0  0  0  0  0  0  0  0  0  0
    0.9306   68.3320   68.5275 H   0  0  0  0  0  0  0  0  0  0  0  0
    1.6067   69.5109   67.3529 H   0  0  0  0  0  0  0  0  0  0  0  0
   -0.1533   69.1519   67.3529 H   0  0  0  0  0  0  0  0  0  0  0  0
    4.8879   68.1505   65.5695 H   0  0  0  0  0  0  0  0  0  0  0  0
    4.5061   69.4851   64.4379 H   0  0  0  0  0  0  0  0  0  0  0  0
    5.1718   69.8763   69.3111 H   0  0  0  0  0  0  0  0  0  0  0  0
    5.1059   71.5435   68.6456 H   0  0  0  0  0  0  0  0  0  0  0  0
    3.6315   70.5175   68.6456 H   0  0  0  0  0  0  0  0  0  0  0  0
    2.1260   67.3917   63.1355 H   0  0  0  0  0  0  0  0  0  0  0  0
    3.9215   67.4763   63.3277 H   0  0  0  0  0  0  0  0  0  0  0  0
    4.0102   64.0347   65.7200 H   0  0  0  0  0  0  0  0  0  0  0  0
    3.1114   63.2542   64.3747 H   0  0  0  0  0  0  0  0  0  0  0  0
    4.9077   63.2528   64.3747 H   0  0  0  0  0  0  0  0  0  0  0  0
  2  1  1  0
  4  3  1  0
  4  2  1  0
  5  4  2  0
  6  1  1  0
  7  6  1  0
  8  7  1  0
  9  8  2  0
 10  8  1  0
 11  1  1  0
 12 11  1  0
 13 12  1  0
 14 13  2  0
 15 13  1  0
  1 16  1  0
  3 17  1  0
  3 18  1  0
  3 19  1  0
  6 20  1  0
  6 21  1  0
 10 22  1  0
 10 23  1  0
 10 24  1  0
 11 25  1  0
 11 26  1  0
 15 27  1  0
 15 28  1  0
 15 29  1  0
M  END
>  <score>  (9) 
-5.856

$$$$
