=
     RDKit          3D

 44 48  0  0  0  0  0  0  0  0999 V2000
    2.4860   63.0650   70.6860 C   0  0  0  0  0  0  0  0  0  0  0  0
    1.6760   64.2070   70.7890 C   0  0  0  0  0  0  0  0  0  0  0  0
    0.5120   64.1200   71.5430 C   0  0  0  0  0  0  0  0  0  0  0  0
    0.1470   62.9150   72.1580 C   0  0  0  0  0  0  0  0  0  0  0  0
    0.9190   61.7330   72.0410 C   0  0  0  0  0  0  0  0  0  0  0  0
    2.0910   61.8330   71.2800 C   0  0  0  0  0  0  0  0  0  0  0  0
    2.8390   60.6810   71.0920 C   0  0  0  0  0  0  0  0  0  0  0  0
    2.5080   59.4830   71.6210 N   0  0  0  0  0  4  0  0  0  0  0  0
    3.2160   58.3280   71.0220 C   0  0  0  0  0  0  0  0  0  0  0  0
    1.4790   59.3500   72.5230 C   0  0  0  0  0  0  0  0  0  0  0  0
    0.5970   60.4760   72.6510 C   0  0  0  0  0  0  0  0  0  0  0  0
   -0.5870   60.2960   73.3910 C   0  0  0  0  0  0  0  0  0  0  0  0
   -0.8940   59.0970   74.0230 C   0  0  0  0  0  0  0  0  0  0  0  0
    0.0050   58.0400   74.0230 C   0  0  0  0  0  0  0  0  0  0  0  0
    1.2440   58.1540   73.3160 C   0  0  0  0  0  0  0  0  0  0  0  0
    2.1600   57.0800   73.5200 C   0  0  0  0  0  0  0  0  0  0  0  0
    1.7980   55.9710   74.2610 C   0  0  0  0  0  0  0  0  0  0  0  0
    2.5850   54.8900   74.4990 O   0  0  0  0  0  0  0  0  0  0  0  0
    1.7000   54.0850   75.3150 C   0  0  0  0  0  0  0  0  0  0  0  0
    0.4200   54.7120   75.5410 O   0  0  0  0  0  0  0  0  0  0  0  0
    0.5750   55.8720   74.8550 C   0  0  0  0  0  0  0  0  0  0  0  0
   -0.3360   56.8920   74.7610 C   0  0  0  0  0  0  0  0  0  0  0  0
    4.8390   63.4390   70.6480 C   0  0  0  0  0  0  0  0  0  0  0  0
    3.6600   63.0090   69.9630 O   0  0  0  0  0  0  0  0  0  0  0  0
    2.0670   65.3290   70.1150 O   0  0  0  0  0  0  0  0  0  0  0  0
    1.1070   66.3600   69.9070 C   0  0  0  0  0  0  0  0  0  0  0  0
   -0.1295   65.0061   71.6583 H   0  0  0  0  0  0  0  0  0  0  0  0
   -0.7760   62.8857   72.7556 H   0  0  0  0  0  0  0  0  0  0  0  0
    3.7504   60.7460   70.4795 H   0  0  0  0  0  0  0  0  0  0  0  0
    3.6104   57.6845   71.8222 H   0  0  0  0  0  0  0  0  0  0  0  0
    2.5159   57.7515   70.3995 H   0  0  0  0  0  0  0  0  0  0  0  0
    4.0474   58.6903   70.3995 H   0  0  0  0  0  0  0  0  0  0  0  0
   -1.2945   61.1344   73.4719 H   0  0  0  0  0  0  0  0  0  0  0  0
   -1.8634   58.9843   74.5305 H   0  0  0  0  0  0  0  0  0  0  0  0
    3.1675   57.1351   73.0819 H   0  0  0  0  0  0  0  0  0  0  0  0
    1.5349   53.1222   74.8092 H   0  0  0  0  0  0  0  0  0  0  0  0
    2.1817   53.9548   76.2953 H   0  0  0  0  0  0  0  0  0  0  0  0
   -1.3163   56.8142   75.2539 H   0  0  0  0  0  0  0  0  0  0  0  0
    4.6746   63.3790   71.7340 H   0  0  0  0  0  0  0  0  0  0  0  0
    5.6825   62.7906   70.3685 H   0  0  0  0  0  0  0  0  0  0  0  0
    5.0670   64.4782   70.3685 H   0  0  0  0  0  0  0  0  0  0  0  0
    0.7566   66.7363   70.8794 H   0  0  0  0  0  0  0  0  0  0  0  0
    1.5687   67.1821   69.3405 H   0  0  0  0  0  0  0  0  0  0  0  0
    0.2541   65.9580   69.3405 H   0  0  0  0  0  0  0  0  0  0  0  0
  2  1  2  0
  3  2  1  0
  4  3  2  0
  5  4  1  0
  6  1  1  0
  6  5  2  0
  7  6  1  0
  8  7  2  0
  9  8  1  0
 10  8  1  0
 11 10  2  0
 11  5  1  0
 12 11  1  0
 13 12  2  0
 14 13  1  0
 15 14  2  0
 15 10  1  0
 16 15  1  0
 17 16  2  0
 18 17  1  0
 19 18  1  0
 20 19  1  0
 21 20  1  0
 21 17  1  0
 22 21  2  0
 22 14  1  0
 24 23  1  0
 24  1  1  0
 25  2  1  0
 26 25  1  0
  3 27  1  0
  4 28  1  0
  7 29  1  0
  9 30  1  0
  9 31  1  0
  9 32  1  0
 12 33  1  0
 13 34  1  0
 16 35  1  0
 19 36  1  0
 19 37  1  0
 22 38  1  0
 23 39  1  0
 23 40  1  0
 23 41  1  0
 26 42  1  0
 26 43  1  0
 26 44  1  0
M  CHG  1   8   1
M  END
>  <score>  (1) 
-9.405

$$$$
=
     RDKit          3D

 44 48  0  0  0  0  0  0  0  0999 V2000
   -0.3200   56.3780   75.1800 C   0  0  0  0  0  0  0  0  0  0  0  0
   -1.5930   56.3530   75.7720 C   0  0  0  0  0  0  0  0  0  0  0  0
   -2.4250   57.4490   75.5850 C   0  0  0  0  0  0  0  0  0  0  0  0
   -1.9910   58.5600   74.8490 C   0  0  0  0  0  0  0  0  0  0  0  0
   -0.6980   58.6360   74.2730 C   0  0  0  0  0  0  0  0  0  0  0  0
    0.1310   57.5230   74.4660 C   0  0  0  0  0  0  0  0  0  0  0  0
    1.4240   57.5890   73.9710 C   0  0  0  0  0  0  0  0  0  0  0  0
    1.9110   58.6530   73.2950 N   0  0  0  0  0  4  0  0  0  0  0  0
    3.3860   58.6800   73.1680 C   0  0  0  0  0  0  0  0  0  0  0  0
    1.1030   59.6980   72.9120 C   0  0  0  0  0  0  0  0  0  0  0  0
   -0.2040   59.7430   73.5080 C   0  0  0  0  0  0  0  0  0  0  0  0
   -0.9690   60.9080   73.3140 C   0  0  0  0  0  0  0  0  0  0  0  0
   -0.5200   61.9720   72.5400 C   0  0  0  0  0  0  0  0  0  0  0  0
    0.6810   61.8950   71.8480 C   0  0  0  0  0  0  0  0  0  0  0  0
    1.5040   60.7310   71.9720 C   0  0  0  0  0  0  0  0  0  0  0  0
    2.6270   60.6860   71.0920 C   0  0  0  0  0  0  0  0  0  0  0  0
    2.9300   61.7590   70.2760 C   0  0  0  0  0  0  0  0  0  0  0  0
    3.9820   61.8260   69.4180 O   0  0  0  0  0  0  0  0  0  0  0  0
    3.7830   63.1410   68.8470 C   0  0  0  0  0  0  0  0  0  0  0  0
    2.6200   63.8130   69.3760 O   0  0  0  0  0  0  0  0  0  0  0  0
    2.1570   62.8810   70.2470 C   0  0  0  0  0  0  0  0  0  0  0  0
    1.0240   62.9740   71.0130 C   0  0  0  0  0  0  0  0  0  0  0  0
    0.5020   54.3070   74.3370 C   0  0  0  0  0  0  0  0  0  0  0  0
    0.6080   55.3630   75.2930 O   0  0  0  0  0  0  0  0  0  0  0  0
   -1.9260   55.2610   76.5230 O   0  0  0  0  0  0  0  0  0  0  0  0
   -2.8210   54.3050   75.9650 C   0  0  0  0  0  0  0  0  0  0  0  0
   -3.4357   57.4452   76.0192 H   0  0  0  0  0  0  0  0  0  0  0  0
   -2.6807   59.4061   74.7130 H   0  0  0  0  0  0  0  0  0  0  0  0
    2.0895   56.7291   74.1374 H   0  0  0  0  0  0  0  0  0  0  0  0
    3.8402   58.6883   74.1698 H   0  0  0  0  0  0  0  0  0  0  0  0
    3.7232   57.7879   72.6199 H   0  0  0  0  0  0  0  0  0  0  0  0
    3.6904   59.5839   72.6199 H   0  0  0  0  0  0  0  0  0  0  0  0
   -1.9573   60.9794   73.7917 H   0  0  0  0  0  0  0  0  0  0  0  0
   -1.1252   62.8882   72.4750 H   0  0  0  0  0  0  0  0  0  0  0  0
    3.2589   59.7861   71.0632 H   0  0  0  0  0  0  0  0  0  0  0  0
    4.6705   63.7546   69.0610 H   0  0  0  0  0  0  0  0  0  0  0  0
    3.6261   63.0112   67.7660 H   0  0  0  0  0  0  0  0  0  0  0  0
    0.3948   63.8755   70.9755 H   0  0  0  0  0  0  0  0  0  0  0  0
    0.4055   53.3453   74.8622 H   0  0  0  0  0  0  0  0  0  0  0  0
   -0.3842   54.4709   73.7063 H   0  0  0  0  0  0  0  0  0  0  0  0
    1.4031   54.2915   73.7063 H   0  0  0  0  0  0  0  0  0  0  0  0
   -3.3294   53.7620   76.7754 H   0  0  0  0  0  0  0  0  0  0  0  0
   -3.5683   54.8210   75.3442 H   0  0  0  0  0  0  0  0  0  0  0  0
   -2.2570   53.5933   75.3442 H   0  0  0  0  0  0  0  0  0  0  0  0
  2  1  2  0
  3  2  1  0
  4  3  2  0
  5  4  1  0
  6  1  1  0
  6  5  2  0
  7  6  1  0
  8  7  2  0
  9  8  1  0
 10  8  1  0
 11 10  2  0
 11  5  1  0
 12 11  1  0
 13 12  2  0
 14 13  1  0
 15 14  2  0
 15 10  1  0
 16 15  1  0
 17 16  2  0
 18 17  1  0
 19 18  1  0
 20 19  1  0
 21 20  1  0
 21 17  1  0
 22 21  2  0
 22 14  1  0
 24 23  1  0
 24  1  1  0
 25  2  1  0
 26 25  1  0
  3 27  1  0
  4 28  1  0
  7 29  1  0
  9 30  1  0
  9 31  1  0
  9 32  1  0
 12 33  1  0
 13 34  1  0
 16 35  1  0
 19 36  1  0
 19 37  1  0
 22 38  1  0
 23 39  1  0
 23 40  1  0
 23 41  1  0
 26 42  1  0
 26 43  1  0
 26 44  1  0
M  CHG  1   8   1
M  END
>  <score>  (2) 
-8.547

$$$$
=
     RDKit          3D

 44 48  0  0  0  0  0  0  0  0999 V2000
    3.2010   61.2620   71.0650 C   0  0  0  0  0  0  0  0  0  0  0  0
    3.0330   62.5470   70.5240 C   0  0  0  0  0  0  0  0  0  0  0  0
    1.8460   63.2200   70.7870 C   0  0  0  0  0  0  0  0  0  0  0  0
    0.8350   62.6150   71.5470 C   0  0  0  0  0  0  0  0  0  0  0  0
    0.9550   61.3050   72.0720 C   0  0  0  0  0  0  0  0  0  0  0  0
    2.1570   60.6380   71.8020 C   0  0  0  0  0  0  0  0  0  0  0  0
    2.2840   59.3310   72.2470 C   0  0  0  0  0  0  0  0  0  0  0  0
    1.3230   58.6830   72.9420 N   0  0  0  0  0  4  0  0  0  0  0  0
    1.4960   57.2140   73.0100 C   0  0  0  0  0  0  0  0  0  0  0  0
    0.1990   59.3310   73.3980 C   0  0  0  0  0  0  0  0  0  0  0  0
   -0.0430   60.6400   72.8580 C   0  0  0  0  0  0  0  0  0  0  0  0
   -1.2890   61.2360   73.1280 C   0  0  0  0  0  0  0  0  0  0  0  0
   -2.2510   60.6220   73.9230 C   0  0  0  0  0  0  0  0  0  0  0  0
   -1.9860   59.4190   74.5620 C   0  0  0  0  0  0  0  0  0  0  0  0
   -0.7300   58.7620   74.3600 C   0  0  0  0  0  0  0  0  0  0  0  0
   -0.5000   57.6250   75.1900 C   0  0  0  0  0  0  0  0  0  0  0  0
   -1.4870   57.1530   76.0340 C   0  0  0  0  0  0  0  0  0  0  0  0
   -1.3780   56.0720   76.8500 O   0  0  0  0  0  0  0  0  0  0  0  0
   -2.6810   56.0730   77.4790 C   0  0  0  0  0  0  0  0  0  0  0  0
   -3.5230   57.1540   77.0240 O   0  0  0  0  0  0  0  0  0  0  0  0
   -2.6990   57.7680   76.1380 C   0  0  0  0  0  0  0  0  0  0  0  0
   -2.9730   58.9050   75.4230 C   0  0  0  0  0  0  0  0  0  0  0  0
    5.4680   60.8290   71.6560 C   0  0  0  0  0  0  0  0  0  0  0  0
    4.3230   60.4820   70.8740 O   0  0  0  0  0  0  0  0  0  0  0  0
    4.0370   63.0490   69.7460 O   0  0  0  0  0  0  0  0  0  0  0  0
    3.9010   62.9660   68.3310 C   0  0  0  0  0  0  0  0  0  0  0  0
    1.6982   64.2372   70.3952 H   0  0  0  0  0  0  0  0  0  0  0  0
   -0.0881   63.1802   71.7433 H   0  0  0  0  0  0  0  0  0  0  0  0
    3.2167   58.7928   72.0224 H   0  0  0  0  0  0  0  0  0  0  0  0
    1.5333   56.8975   74.0628 H   0  0  0  0  0  0  0  0  0  0  0  0
    0.6496   56.7215   72.5088 H   0  0  0  0  0  0  0  0  0  0  0  0
    2.4336   56.9316   72.5088 H   0  0  0  0  0  0  0  0  0  0  0  0
   -1.5099   62.2227   72.6948 H   0  0  0  0  0  0  0  0  0  0  0  0
   -3.2356   61.0966   74.0470 H   0  0  0  0  0  0  0  0  0  0  0  0
    0.4754   57.1175   75.1578 H   0  0  0  0  0  0  0  0  0  0  0  0
   -3.1808   55.1196   77.2528 H   0  0  0  0  0  0  0  0  0  0  0  0
   -2.5261   56.2073   78.5597 H   0  0  0  0  0  0  0  0  0  0  0  0
   -3.9471   59.4066   75.5206 H   0  0  0  0  0  0  0  0  0  0  0  0
    5.2187   60.7535   72.7247 H   0  0  0  0  0  0  0  0  0  0  0  0
    6.2937   60.1408   71.4226 H   0  0  0  0  0  0  0  0  0  0  0  0
    5.7728   61.8598   71.4226 H   0  0  0  0  0  0  0  0  0  0  0  0
    2.9863   62.4078   68.0827 H   0  0  0  0  0  0  0  0  0  0  0  0
    3.8379   63.9797   67.9086 H   0  0  0  0  0  0  0  0  0  0  0  0
    4.7737   62.4464   67.9086 H   0  0  0  0  0  0  0  0  0  0  0  0
  2  1  2  0
  3  2  1  0
  4  3  2  0
  5  4  1  0
  6  1  1  0
  6  5  2  0
  7  6  1  0
  8  7  2  0
  9  8  1  0
 10  8  1  0
 11 10  2  0
 11  5  1  0
 12 11  1  0
 13 12  2  0
 14 13  1  0
 15 14  2  0
 15 10  1  0
 16 15  1  0
 17 16  2  0
 18 17  1  0
 19 18  1  0
 20 19  1  0
 21 20  1  0
 21 17  1  0
 22 21  2  0
 22 14  1  0
 24 23  1  0
 24  1  1  0
 25  2  1  0
 26 25  1  0
  3 27  1  0
  4 28  1  0
  7 29  1  0
  9 30  1  0
  9 31  1  0
  9 32  1  0
 12 33  1  0
 13 34  1  0
 16 35  1  0
 19 36  1  0
 19 37  1  0
 22 38  1  0
 23 39  1  0
 23 40  1  0
 23 41  1  0
 26 42  1  0
 26 43  1  0
 26 44  1  0
M  CHG  1   8   1
M  END
>  <score>  (3) 
-8.414

$$$$
=
     RDKit          3D

 44 48  0  0  0  0  0  0  0  0999 V2000
   -0.0850   57.2220   75.2820 C   0  0  0  0  0  0  0  0  0  0  0  0
    0.7860   56.1210   75.2910 C   0  0  0  0  0  0  0  0  0  0  0  0
    1.8950   56.1550   74.4550 C   0  0  0  0  0  0  0  0  0  0  0  0
    2.1180   57.2470   73.6070 C   0  0  0  0  0  0  0  0  0  0  0  0
    1.2380   58.3560   73.5420 C   0  0  0  0  0  0  0  0  0  0  0  0
    0.1240   58.3110   74.3910 C   0  0  0  0  0  0  0  0  0  0  0  0
   -0.7910   59.3490   74.3100 C   0  0  0  0  0  0  0  0  0  0  0  0
   -0.6510   60.4040   73.4760 N   0  0  0  0  0  4  0  0  0  0  0  0
   -1.8820   61.2020   73.2800 C   0  0  0  0  0  0  0  0  0  0  0  0
    0.5000   60.6040   72.7510 C   0  0  0  0  0  0  0  0  0  0  0  0
    1.4190   59.5010   72.6990 C   0  0  0  0  0  0  0  0  0  0  0  0
    2.4910   59.5880   71.7910 C   0  0  0  0  0  0  0  0  0  0  0  0
    2.7040   60.7090   70.9970 C   0  0  0  0  0  0  0  0  0  0  0  0
    1.9060   61.8380   71.1270 C   0  0  0  0  0  0  0  0  0  0  0  0
    0.8110   61.8380   72.0480 C   0  0  0  0  0  0  0  0  0  0  0  0
    0.1660   63.0980   72.2230 C   0  0  0  0  0  0  0  0  0  0  0  0
    0.5250   64.1900   71.4560 C   0  0  0  0  0  0  0  0  0  0  0  0
   -0.0360   65.4260   71.5300 O   0  0  0  0  0  0  0  0  0  0  0  0
    0.7330   66.1330   70.5280 C   0  0  0  0  0  0  0  0  0  0  0  0
    1.7280   65.3020   69.8940 O   0  0  0  0  0  0  0  0  0  0  0  0
    1.5270   64.1230   70.5340 C   0  0  0  0  0  0  0  0  0  0  0  0
    2.2400   62.9650   70.3550 C   0  0  0  0  0  0  0  0  0  0  0  0
   -2.3630   56.5900   75.5800 C   0  0  0  0  0  0  0  0  0  0  0  0
   -1.2260   57.3150   76.0530 O   0  0  0  0  0  0  0  0  0  0  0  0
    0.4740   55.0670   76.1020 O   0  0  0  0  0  0  0  0  0  0  0  0
    0.1940   53.8080   75.4960 C   0  0  0  0  0  0  0  0  0  0  0  0
    2.6055   55.3153   74.4592 H   0  0  0  0  0  0  0  0  0  0  0  0
    3.0118   57.2438   72.9658 H   0  0  0  0  0  0  0  0  0  0  0  0
   -1.6785   59.3125   74.9589 H   0  0  0  0  0  0  0  0  0  0  0  0
   -2.3022   61.4744   74.2594 H   0  0  0  0  0  0  0  0  0  0  0  0
   -1.6408   62.1160   72.7175 H   0  0  0  0  0  0  0  0  0  0  0  0
   -2.6179   60.6087   72.7175 H   0  0  0  0  0  0  0  0  0  0  0  0
    3.1849   58.7387   71.7067 H   0  0  0  0  0  0  0  0  0  0  0  0
    3.5162   60.7016   70.2552 H   0  0  0  0  0  0  0  0  0  0  0  0
   -0.6272   63.2018   72.9780 H   0  0  0  0  0  0  0  0  0  0  0  0
    0.0442   66.5067   69.7561 H   0  0  0  0  0  0  0  0  0  0  0  0
    1.2624   66.9527   71.0358 H   0  0  0  0  0  0  0  0  0  0  0  0
    3.0580   62.9187   69.6211 H   0  0  0  0  0  0  0  0  0  0  0  0
   -2.9442   56.2194   76.4373 H   0  0  0  0  0  0  0  0  0  0  0  0
   -2.9929   57.2535   74.9693 H   0  0  0  0  0  0  0  0  0  0  0  0
   -2.0271   55.7390   74.9693 H   0  0  0  0  0  0  0  0  0  0  0  0
    0.0262   53.0535   76.2787 H   0  0  0  0  0  0  0  0  0  0  0  0
   -0.7069   53.8943   74.8708 H   0  0  0  0  0  0  0  0  0  0  0  0
    1.0466   53.5043   74.8708 H   0  0  0  0  0  0  0  0  0  0  0  0
  2  1  2  0
  3  2  1  0
  4  3  2  0
  5  4  1  0
  6  1  1  0
  6  5  2  0
  7  6  1  0
  8  7  2  0
  9  8  1  0
 10  8  1  0
 11 10  2  0
 11  5  1  0
 12 11  1  0
 13 12  2  0
 14 13  1  0
 15 14  2  0
 15 10  1  0
 16 15  1  0
 17 16  2  0
 18 17  1  0
 19 18  1  0
 20 19  1  0
 21 20  1  0
 21 17  1  0
 22 21  2  0
 22 14  1  0
 24 23  1  0
 24  1  1  0
 25  2  1  0
 26 25  1  0
  3 27  1  0
  4 28  1  0
  7 29  1  0
  9 30  1  0
  9 31  1  0
  9 32  1  0
 12 33  1  0
 13 34  1  0
 16 35  1  0
 19 36  1  0
 19 37  1  0
 22 38  1  0
 23 39  1  0
 23 40  1  0
 23 41  1  0
 26 42  1  0
 26 43  1  0
 26 44  1  0
M  CHG  1   8   1
M  END
>  <score>  (4) 
-8.102

$$$$
=
     RDKit          3D

 44 48  0  0  0  0  0  0  0  0999 V2000
    0.6610   64.1830   71.6090 C   0  0  0  0  0  0  0  0  0  0  0  0
    1.6200   64.7060   70.7270 C   0  0  0  0  0  0  0  0  0  0  0  0
    2.6190   63.8580   70.2650 C   0  0  0  0  0  0  0  0  0  0  0  0
    2.6800   62.5250   70.6950 C   0  0  0  0  0  0  0  0  0  0  0  0
    1.7540   61.9770   71.6170 C   0  0  0  0  0  0  0  0  0  0  0  0
    0.7500   62.8410   72.0730 C   0  0  0  0  0  0  0  0  0  0  0  0
   -0.1360   62.3570   73.0230 C   0  0  0  0  0  0  0  0  0  0  0  0
   -0.0940   61.0960   73.5080 N   0  0  0  0  0  4  0  0  0  0  0  0
   -0.8760   60.8860   74.7470 C   0  0  0  0  0  0  0  0  0  0  0  0
    0.7440   60.1440   72.9750 C   0  0  0  0  0  0  0  0  0  0  0  0
    1.7660   60.6220   72.0860 C   0  0  0  0  0  0  0  0  0  0  0  0
    2.7710   59.7160   71.7020 C   0  0  0  0  0  0  0  0  0  0  0  0
    2.7740   58.3880   72.1150 C   0  0  0  0  0  0  0  0  0  0  0  0
    1.7260   57.8730   72.8650 C   0  0  0  0  0  0  0  0  0  0  0  0
    0.6510   58.7240   73.2730 C   0  0  0  0  0  0  0  0  0  0  0  0
   -0.4490   58.0590   73.8910 C   0  0  0  0  0  0  0  0  0  0  0  0
   -0.3950   56.7050   74.1640 C   0  0  0  0  0  0  0  0  0  0  0  0
   -1.3760   55.9810   74.7640 O   0  0  0  0  0  0  0  0  0  0  0  0
   -0.7760   54.6640   74.7700 C   0  0  0  0  0  0  0  0  0  0  0  0
    0.5370   54.6430   74.1710 O   0  0  0  0  0  0  0  0  0  0  0  0
    0.6840   55.9460   73.8240 C   0  0  0  0  0  0  0  0  0  0  0  0
    1.7530   56.4990   73.1670 C   0  0  0  0  0  0  0  0  0  0  0  0
   -0.1160   65.5340   73.4120 C   0  0  0  0  0  0  0  0  0  0  0  0
   -0.3760   64.9160   72.1500 O   0  0  0  0  0  0  0  0  0  0  0  0
    1.5300   66.0290   70.3970 O   0  0  0  0  0  0  0  0  0  0  0  0
    0.5260   66.4270   69.4690 C   0  0  0  0  0  0  0  0  0  0  0  0
    3.3693   64.2362   69.5550 H   0  0  0  0  0  0  0  0  0  0  0  0
    3.4783   61.8789   70.3010 H   0  0  0  0  0  0  0  0  0  0  0  0
   -0.9146   63.0352   73.4023 H   0  0  0  0  0  0  0  0  0  0  0  0
   -0.2313   61.0591   75.6213 H   0  0  0  0  0  0  0  0  0  0  0  0
   -1.7219   61.5888   74.7703 H   0  0  0  0  0  0  0  0  0  0  0  0
   -1.2560   59.8540   74.7703 H   0  0  0  0  0  0  0  0  0  0  0  0
    3.5840   60.0707   71.0515 H   0  0  0  0  0  0  0  0  0  0  0  0
    3.6183   57.7372   71.8436 H   0  0  0  0  0  0  0  0  0  0  0  0
   -1.3514   58.6306   74.1536 H   0  0  0  0  0  0  0  0  0  0  0  0
   -0.6922   54.3211   75.8118 H   0  0  0  0  0  0  0  0  0  0  0  0
   -1.4222   54.0038   74.1729 H   0  0  0  0  0  0  0  0  0  0  0  0
    2.6160   55.8797   72.8812 H   0  0  0  0  0  0  0  0  0  0  0  0
   -0.4045   64.8484   74.2224 H   0  0  0  0  0  0  0  0  0  0  0  0
    0.9562   65.7664   73.4925 H   0  0  0  0  0  0  0  0  0  0  0  0
   -0.6996   66.4630   73.4925 H   0  0  0  0  0  0  0  0  0  0  0  0
   -0.3608   66.7786   70.0166 H   0  0  0  0  0  0  0  0  0  0  0  0
    0.9126   67.2399   68.8367 H   0  0  0  0  0  0  0  0  0  0  0  0
    0.2506   65.5700   68.8367 H   0  0  0  0  0  0  0  0  0  0  0  0
  2  1  2  0
  3  2  1  0
  4  3  2  0
  5  4  1  0
  6  1  1  0
  6  5  2  0
  7  6  1  0
  8  7  2  0
  9  8  1  0
 10  8  1  0
 11 10  2  0
 11  5  1  0
 12 11  1  0
 13 12  2  0
 14 13  1  0
 15 14  2  0
 15 10  1  0
 16 15  1  0
 17 16  2  0
 18 17  1  0
 19 18  1  0
 20 19  1  0
 21 20  1  0
 21 17  1  0
 22 21  2  0
 22 14  1  0
 24 23  1  0
 24  1  1  0
 25  2  1  0
 26 25  1  0
  3 27  1  0
  4 28  1  0
  7 29  1  0
  9 30  1  0
  9 31  1  0
  9 32  1  0
 12 33  1  0
 13 34  1  0
 16 35  1  0
 19 36  1  0
 19 37  1  0
 22 38  1  0
 23 39  1  0
 23 40  1  0
 23 41  1  0
 26 42  1  0
 26 43  1  0
 26 44  1  0
M  CHG  1   8   1
M  END
>  <score>  (5) 
-7.916

$$$$
=
     RDKit          3D

 44 48  0  0  0  0  0  0  0  0999 V2000
    2.5190   62.0080   71.1690 C   0  0  0  0  0  0  0  0  0  0  0  0
    3.5380   61.7760   70.2310 C   0  0  0  0  0  0  0  0  0  0  0  0
    3.9590   60.4670   70.0310 C   0  0  0  0  0  0  0  0  0  0  0  0
    3.3990   59.4150   70.7670 C   0  0  0  0  0  0  0  0  0  0  0  0
    2.3990   59.6180   71.7500 C   0  0  0  0  0  0  0  0  0  0  0  0
    1.9810   60.9420   71.9420 C   0  0  0  0  0  0  0  0  0  0  0  0
    1.0490   61.1860   72.9380 C   0  0  0  0  0  0  0  0  0  0  0  0
    0.5110   60.2160   73.7110 N   0  0  0  0  0  4  0  0  0  0  0  0
   -0.1740   60.7060   74.9280 C   0  0  0  0  0  0  0  0  0  0  0  0
    0.7360   58.8820   73.4580 C   0  0  0  0  0  0  0  0  0  0  0  0
    1.7880   58.5800   72.5280 C   0  0  0  0  0  0  0  0  0  0  0  0
    2.1930   57.2370   72.4170 C   0  0  0  0  0  0  0  0  0  0  0  0
    1.5830   56.2140   73.1330 C   0  0  0  0  0  0  0  0  0  0  0  0
    0.4790   56.4660   73.9360 C   0  0  0  0  0  0  0  0  0  0  0  0
   -0.0110   57.8020   74.0810 C   0  0  0  0  0  0  0  0  0  0  0  0
   -1.2430   57.9230   74.7890 C   0  0  0  0  0  0  0  0  0  0  0  0
   -1.8320   56.8200   75.3790 C   0  0  0  0  0  0  0  0  0  0  0  0
   -2.9910   56.8290   76.0890 O   0  0  0  0  0  0  0  0  0  0  0  0
   -3.1080   55.4280   76.4350 C   0  0  0  0  0  0  0  0  0  0  0  0
   -2.0210   54.6300   75.9190 O   0  0  0  0  0  0  0  0  0  0  0  0
   -1.2880   55.5750   75.2780 C   0  0  0  0  0  0  0  0  0  0  0  0
   -0.1400   55.3660   74.5570 C   0  0  0  0  0  0  0  0  0  0  0  0
    0.9630   63.7290   70.6280 C   0  0  0  0  0  0  0  0  0  0  0  0
    2.0140   63.2560   71.4720 O   0  0  0  0  0  0  0  0  0  0  0  0
    4.0760   62.8570   69.5930 O   0  0  0  0  0  0  0  0  0  0  0  0
    3.7860   63.0380   68.2110 C   0  0  0  0  0  0  0  0  0  0  0  0
    4.7405   60.2546   69.2866 H   0  0  0  0  0  0  0  0  0  0  0  0
    3.7496   58.3904   70.5741 H   0  0  0  0  0  0  0  0  0  0  0  0
    0.7297   62.2247   73.1089 H   0  0  0  0  0  0  0  0  0  0  0  0
    0.3499   60.3312   75.8197 H   0  0  0  0  0  0  0  0  0  0  0  0
   -0.1680   61.8060   74.9344 H   0  0  0  0  0  0  0  0  0  0  0  0
   -1.2131   60.3450   74.9344 H   0  0  0  0  0  0  0  0  0  0  0  0
    3.0225   56.9878   71.7389 H   0  0  0  0  0  0  0  0  0  0  0  0
    1.9803   55.1907   73.0625 H   0  0  0  0  0  0  0  0  0  0  0  0
   -1.7307   58.9059   74.8667 H   0  0  0  0  0  0  0  0  0  0  0  0
   -3.1209   55.3369   77.5311 H   0  0  0  0  0  0  0  0  0  0  0  0
   -4.0376   55.0523   75.9825 H   0  0  0  0  0  0  0  0  0  0  0  0
    0.2886   54.3570   74.4661 H   0  0  0  0  0  0  0  0  0  0  0  0
    0.1345   64.1019   71.2481 H   0  0  0  0  0  0  0  0  0  0  0  0
    1.3412   64.5437   69.9930 H   0  0  0  0  0  0  0  0  0  0  0  0
    0.6040   62.9057   69.9930 H   0  0  0  0  0  0  0  0  0  0  0  0
    2.8573   63.6177   68.1041 H   0  0  0  0  0  0  0  0  0  0  0  0
    4.6139   63.5800   67.7305 H   0  0  0  0  0  0  0  0  0  0  0  0
    3.6628   62.0562   67.7305 H   0  0  0  0  0  0  0  0  0  0  0  0
  2  1  2  0
  3  2  1  0
  4  3  2  0
  5  4  1  0
  6  1  1  0
  6  5  2  0
  7  6  1  0
  8  7  2  0
  9  8  1  0
 10  8  1  0
 11 10  2  0
 11  5  1  0
 12 11  1  0
 13 12  2  0
 14 13  1  0
 15 14  2  0
 15 10  1  0
 16 15  1  0
 17 16  2  0
 18 17  1  0
 19 18  1  0
 20 19  1  0
 21 20  1  0
 21 17  1  0
 22 21  2  0
 22 14  1  0
 24 23  1  0
 24  1  1  0
 25  2  1  0
 26 25  1  0
  3 27  1  0
  4 28  1  0
  7 29  1  0
  9 30  1  0
  9 31  1  0
  9 32  1  0
 12 33  1  0
 13 34  1  0
 16 35  1  0
 19 36  1  0
 19 37  1  0
 22 38  1  0
 23 39  1  0
 23 40  1  0
 23 41  1  0
 26 42  1  0
 26 43  1  0
 26 44  1  0
M  CHG  1   8   1
M  END
>  <score>  (6) 
-7.914

$$$$
=
     RDKit          3D

 44 48  0  0  0  0  0  0  0  0999 V2000
    2.5500   60.6410   71.6800 C   0  0  0  0  0  0  0  0  0  0  0  0
    3.5890   59.8030   71.2430 C   0  0  0  0  0  0  0  0  0  0  0  0
    3.5340   58.4570   71.5850 C   0  0  0  0  0  0  0  0  0  0  0  0
    2.4830   57.9610   72.3690 C   0  0  0  0  0  0  0  0  0  0  0  0
    1.4420   58.7850   72.8600 C   0  0  0  0  0  0  0  0  0  0  0  0
    1.5070   60.1400   72.5070 C   0  0  0  0  0  0  0  0  0  0  0  0
    0.5390   60.9880   73.0220 C   0  0  0  0  0  0  0  0  0  0  0  0
   -0.4690   60.5720   73.8220 N   0  0  0  0  0  4  0  0  0  0  0  0
   -1.1700   61.6570   74.5440 C   0  0  0  0  0  0  0  0  0  0  0  0
   -0.7000   59.2370   74.0590 C   0  0  0  0  0  0  0  0  0  0  0  0
    0.3420   58.3310   73.6600 C   0  0  0  0  0  0  0  0  0  0  0  0
    0.2400   56.9940   74.0870 C   0  0  0  0  0  0  0  0  0  0  0  0
   -0.8410   56.5290   74.8270 C   0  0  0  0  0  0  0  0  0  0  0  0
   -1.9200   57.3550   75.1090 C   0  0  0  0  0  0  0  0  0  0  0  0
   -1.9050   58.7220   74.6860 C   0  0  0  0  0  0  0  0  0  0  0  0
   -3.1280   59.4300   74.8800 C   0  0  0  0  0  0  0  0  0  0  0  0
   -4.1920   58.8400   75.5360 C   0  0  0  0  0  0  0  0  0  0  0  0
   -5.3900   59.4300   75.7880 O   0  0  0  0  0  0  0  0  0  0  0  0
   -6.0830   58.3570   76.4690 C   0  0  0  0  0  0  0  0  0  0  0  0
   -5.2810   57.1640   76.5980 O   0  0  0  0  0  0  0  0  0  0  0  0
   -4.1330   57.5560   75.9900 C   0  0  0  0  0  0  0  0  0  0  0  0
   -3.0170   56.7880   75.7830 C   0  0  0  0  0  0  0  0  0  0  0  0
    2.0670   62.3610   70.1040 C   0  0  0  0  0  0  0  0  0  0  0  0
    2.4850   61.9940   71.4210 O   0  0  0  0  0  0  0  0  0  0  0  0
    4.6090   60.3680   70.5320 O   0  0  0  0  0  0  0  0  0  0  0  0
    5.6830   60.9650   71.2510 C   0  0  0  0  0  0  0  0  0  0  0  0
    4.3230   57.7741   71.2370 H   0  0  0  0  0  0  0  0  0  0  0  0
    2.4666   56.8884   72.6124 H   0  0  0  0  0  0  0  0  0  0  0  0
    0.5936   62.0565   72.7663 H   0  0  0  0  0  0  0  0  0  0  0  0
   -1.0691   61.5008   75.6282 H   0  0  0  0  0  0  0  0  0  0  0  0
   -0.7266   62.6257   74.2703 H   0  0  0  0  0  0  0  0  0  0  0  0
   -2.2354   61.6509   74.2703 H   0  0  0  0  0  0  0  0  0  0  0  0
    1.0449   56.2913   73.8257 H   0  0  0  0  0  0  0  0  0  0  0  0
   -0.8412   55.4921   75.1941 H   0  0  0  0  0  0  0  0  0  0  0  0
   -3.2256   60.4587   74.5027 H   0  0  0  0  0  0  0  0  0  0  0  0
   -6.3627   58.7026   77.4752 H   0  0  0  0  0  0  0  0  0  0  0  0
   -6.9654   58.0982   75.8654 H   0  0  0  0  0  0  0  0  0  0  0  0
   -2.9797   55.7473   76.1374 H   0  0  0  0  0  0  0  0  0  0  0  0
    1.2419   63.0855   70.1697 H   0  0  0  0  0  0  0  0  0  0  0  0
    2.9113   62.8149   69.5645 H   0  0  0  0  0  0  0  0  0  0  0  0
    1.7262   61.4650   69.5645 H   0  0  0  0  0  0  0  0  0  0  0  0
    5.5018   60.8643   72.3313 H   0  0  0  0  0  0  0  0  0  0  0  0
    6.6249   60.4610   70.9886 H   0  0  0  0  0  0  0  0  0  0  0  0
    5.7521   62.0310   70.9886 H   0  0  0  0  0  0  0  0  0  0  0  0
  2  1  2  0
  3  2  1  0
  4  3  2  0
  5  4  1  0
  6  1  1  0
  6  5  2  0
  7  6  1  0
  8  7  2  0
  9  8  1  0
 10  8  1  0
 11 10  2  0
 11  5  1  0
 12 11  1  0
 13 12  2  0
 14 13  1  0
 15 14  2  0
 15 10  1  0
 16 15  1  0
 17 16  2  0
 18 17  1  0
 19 18  1  0
 20 19  1  0
 21 20  1  0
 21 17  1  0
 22 21  2  0
 22 14  1  0
 24 23  1  0
 24  1  1  0
 25  2  1  0
 26 25  1  0
  3 27  1  0
  4 28  1  0
  7 29  1  0
  9 30  1  0
  9 31  1  0
  9 32  1  0
 12 33  1  0
 13 34  1  0
 16 35  1  0
 19 36  1  0
 19 37  1  0
 22 38  1  0
 23 39  1  0
 23 40  1  0
 23 41  1  0
 26 42  1  0
 26 43  1  0
 26 44  1  0
M  CHG  1   8   1
M  END
>  <score>  (7) 
-7.835

$$$$
=
     RDKit          3D

 44 48  0  0  0  0  0  0  0  0999 V2000
    1.7810   68.8980   62.3910 C   0  0  0  0  0  0  0  0  0  0  0  0
    0.3810   68.7960   62.3810 C   0  0  0  0  0  0  0  0  0  0  0  0
   -0.2940   68.9080   63.5900 C   0  0  0  0  0  0  0  0  0  0  0  0
    0.4110   69.0870   64.7880 C   0  0  0  0  0  0  0  0  0  0  0  0
    1.8250   69.1530   64.8390 C   0  0  0  0  0  0  0  0  0  0  0  0
    2.4940   69.0410   63.6140 C   0  0  0  0  0  0  0  0  0  0  0  0
    3.8800   69.0380   63.6330 C   0  0  0  0  0  0  0  0  0  0  0  0
    4.6110   69.1590   64.7640 N   0  0  0  0  0  4  0  0  0  0  0  0
    6.0340   68.7780   64.6220 C   0  0  0  0  0  0  0  0  0  0  0  0
    4.0270   69.4540   65.9730 C   0  0  0  0  0  0  0  0  0  0  0  0
    2.5960   69.3400   66.0340 C   0  0  0  0  0  0  0  0  0  0  0  0
    1.9900   69.4140   67.3010 C   0  0  0  0  0  0  0  0  0  0  0  0
    2.7190   69.6370   68.4630 C   0  0  0  0  0  0  0  0  0  0  0  0
    4.0840   69.8820   68.4120 C   0  0  0  0  0  0  0  0  0  0  0  0
    4.7710   69.8510   67.1570 C   0  0  0  0  0  0  0  0  0  0  0  0
    6.1310   70.2800   67.1990 C   0  0  0  0  0  0  0  0  0  0  0  0
    6.7410   70.5860   68.4010 C   0  0  0  0  0  0  0  0  0  0  0  0
    8.0300   70.9850   68.5530 O   0  0  0  0  0  0  0  0  0  0  0  0
    8.0920   71.1660   69.9880 C   0  0  0  0  0  0  0  0  0  0  0  0
    6.8390   70.8740   70.6440 O   0  0  0  0  0  0  0  0  0  0  0  0
    6.0660   70.5290   69.5840 C   0  0  0  0  0  0  0  0  0  0  0  0
    4.7380   70.1900   69.6200 C   0  0  0  0  0  0  0  0  0  0  0  0
    3.6440   67.8520   61.3370 C   0  0  0  0  0  0  0  0  0  0  0  0
    2.5740   68.7960   61.2660 O   0  0  0  0  0  0  0  0  0  0  0  0
   -0.2340   68.5640   61.1830 O   0  0  0  0  0  0  0  0  0  0  0  0
   -0.3370   69.6400   60.2570 C   0  0  0  0  0  0  0  0  0  0  0  0
   -1.3926   68.8557   63.6072 H   0  0  0  0  0  0  0  0  0  0  0  0
   -0.1563   69.1799   65.7259 H   0  0  0  0  0  0  0  0  0  0  0  0
    4.4136   68.9315   62.6770 H   0  0  0  0  0  0  0  0  0  0  0  0
    6.4827   68.6579   65.6191 H   0  0  0  0  0  0  0  0  0  0  0  0
    6.1062   67.8289   64.0707 H   0  0  0  0  0  0  0  0  0  0  0  0
    6.5708   69.5641   64.0707 H   0  0  0  0  0  0  0  0  0  0  0  0
    0.8994   69.2909   67.3749 H   0  0  0  0  0  0  0  0  0  0  0  0
    2.2071   69.6191   69.4364 H   0  0  0  0  0  0  0  0  0  0  0  0
    6.7015   70.3684   66.2627 H   0  0  0  0  0  0  0  0  0  0  0  0
    8.8652   70.4968   70.3935 H   0  0  0  0  0  0  0  0  0  0  0  0
    8.3267   72.2237   70.1784 H   0  0  0  0  0  0  0  0  0  0  0  0
    4.1935   70.1592   70.5753 H   0  0  0  0  0  0  0  0  0  0  0  0
    3.8800   67.6438   62.3910 H   0  0  0  0  0  0  0  0  0  0  0  0
    3.3438   66.9192   60.8373 H   0  0  0  0  0  0  0  0  0  0  0  0
    4.5321   68.2662   60.8373 H   0  0  0  0  0  0  0  0  0  0  0  0
   -0.4278   70.5888   60.8061 H   0  0  0  0  0  0  0  0  0  0  0  0
    0.5627   69.6670   59.6247 H   0  0  0  0  0  0  0  0  0  0  0  0
   -1.2254   69.4958   59.6247 H   0  0  0  0  0  0  0  0  0  0  0  0
  2  1  2  0
  3  2  1  0
  4  3  2  0
  5  4  1  0
  6  1  1  0
  6  5  2  0
  7  6  1  0
  8  7  2  0
  9  8  1  0
 10  8  1  0
 11 10  2  0
 11  5  1  0
 12 11  1  0
 13 12  2  0
 14 13  1  0
 15 14  2  0
 15 10  1  0
 16 15  1  0
 17 16  2  0
 18 17  1  0
 19 18  1  0
 20 19  1  0
 21 20  1  0
 21 17  1  0
 22 21  2  0
 22 14  1  0
 24 23  1  0
 24  1  1  0
 25  2  1  0
 26 25  1  0
  3 27  1  0
  4 28  1  0
  7 29  1  0
  9 30  1  0
  9 31  1  0
  9 32  1  0
 12 33  1  0
 13 34  1  0
 16 35  1  0
 19 36  1  0
 19 37  1  0
 22 38  1  0
 23 39  1  0
 23 40  1  0
 23 41  1  0
 26 42  1  0
 26 43  1  0
 26 44  1  0
M  CHG  1   8   1
M  END
>  <score>  (8) 
-7.187

$$$$
=
     RDKit          3D

 44 48  0  0  0  0  0  0  0  0999 V2000
    1.5130   59.5400   72.8620 C   0  0  0  0  0  0  0  0  0  0  0  0
    1.8100   60.7220   72.1640 C   0  0  0  0  0  0  0  0  0  0  0  0
    0.8400   61.7150   72.1110 C   0  0  0  0  0  0  0  0  0  0  0  0
   -0.4100   61.5260   72.7150 C   0  0  0  0  0  0  0  0  0  0  0  0
   -0.7580   60.3310   73.3920 C   0  0  0  0  0  0  0  0  0  0  0  0
    0.2290   59.3380   73.4410 C   0  0  0  0  0  0  0  0  0  0  0  0
   -0.0980   58.1310   74.0400 C   0  0  0  0  0  0  0  0  0  0  0  0
   -1.3030   57.8770   74.5960 N   0  0  0  0  0  4  0  0  0  0  0  0
   -1.5730   56.4450   74.8560 C   0  0  0  0  0  0  0  0  0  0  0  0
   -2.2520   58.8610   74.7470 C   0  0  0  0  0  0  0  0  0  0  0  0
   -2.0180   60.0850   74.0320 C   0  0  0  0  0  0  0  0  0  0  0  0
   -3.0670   61.0220   73.9820 C   0  0  0  0  0  0  0  0  0  0  0  0
   -4.2790   60.8170   74.6320 C   0  0  0  0  0  0  0  0  0  0  0  0
   -4.4770   59.7040   75.4370 C   0  0  0  0  0  0  0  0  0  0  0  0
   -3.4480   58.7180   75.5610 C   0  0  0  0  0  0  0  0  0  0  0  0
   -3.6900   57.7070   76.5380 C   0  0  0  0  0  0  0  0  0  0  0  0
   -4.8940   57.6510   77.2160 C   0  0  0  0  0  0  0  0  0  0  0  0
   -5.2320   56.7230   78.1490 O   0  0  0  0  0  0  0  0  0  0  0  0
   -6.5640   57.1670   78.5020 C   0  0  0  0  0  0  0  0  0  0  0  0
   -6.9750   58.3440   77.7750 O   0  0  0  0  0  0  0  0  0  0  0  0
   -5.8780   58.5710   77.0090 C   0  0  0  0  0  0  0  0  0  0  0  0
   -5.6950   59.6110   76.1350 C   0  0  0  0  0  0  0  0  0  0  0  0
    2.4740   57.6110   71.8490 C   0  0  0  0  0  0  0  0  0  0  0  0
    2.3790   58.4730   72.9840 O   0  0  0  0  0  0  0  0  0  0  0  0
    3.0270   60.8120   71.5510 O   0  0  0  0  0  0  0  0  0  0  0  0
    3.0620   61.0720   70.1510 C   0  0  0  0  0  0  0  0  0  0  0  0
    1.0555   62.6593   71.5895 H   0  0  0  0  0  0  0  0  0  0  0  0
   -1.1506   62.3376   72.6615 H   0  0  0  0  0  0  0  0  0  0  0  0
    0.6641   57.3381   74.0638 H   0  0  0  0  0  0  0  0  0  0  0  0
   -1.6061   56.2693   75.9414 H   0  0  0  0  0  0  0  0  0  0  0  0
   -2.5394   56.1672   74.4099 H   0  0  0  0  0  0  0  0  0  0  0  0
   -0.7742   55.8344   74.4099 H   0  0  0  0  0  0  0  0  0  0  0  0
   -2.9229   61.9494   73.4083 H   0  0  0  0  0  0  0  0  0  0  0  0
   -5.0921   61.5471   74.5064 H   0  0  0  0  0  0  0  0  0  0  0  0
   -2.9094   56.9629   76.7547 H   0  0  0  0  0  0  0  0  0  0  0  0
   -7.2736   56.3549   78.2851 H   0  0  0  0  0  0  0  0  0  0  0  0
   -6.5529   57.4265   79.5709 H   0  0  0  0  0  0  0  0  0  0  0  0
   -6.4864   60.3596   75.9821 H   0  0  0  0  0  0  0  0  0  0  0  0
    2.5887   56.5706   72.1873 H   0  0  0  0  0  0  0  0  0  0  0  0
    1.5605   57.7009   71.2428 H   0  0  0  0  0  0  0  0  0  0  0  0
    3.3460   57.8977   71.2428 H   0  0  0  0  0  0  0  0  0  0  0  0
    3.2070   62.1492   69.9816 H   0  0  0  0  0  0  0  0  0  0  0  0
    3.8931   60.5140   69.6951 H   0  0  0  0  0  0  0  0  0  0  0  0
    2.1129   60.7536   69.6951 H   0  0  0  0  0  0  0  0  0  0  0  0
  2  1  2  0
  3  2  1  0
  4  3  2  0
  5  4  1  0
  6  1  1  0
  6  5  2  0
  7  6  1  0
  8  7  2  0
  9  8  1  0
 10  8  1  0
 11 10  2  0
 11  5  1  0
 12 11  1  0
 13 12  2  0
 14 13  1  0
 15 14  2  0
 15 10  1  0
 16 15  1  0
 17 16  2  0
 18 17  1  0
 19 18  1  0
 20 19  1  0
 21 20  1  0
 21 17  1  0
 22 21  2  0
 22 14  1  0
 24 23  1  0
 24  1  1  0
 25  2  1  0
 26 25  1  0
  3 27  1  0
  4 28  1  0
  7 29  1  0
  9 30  1  0
  9 31  1  0
  9 32  1  0
 12 33  1  0
 13 34  1  0
 16 35  1  0
 19 36  1  0
 19 37  1  0
 22 38  1  0
 23 39  1  0
 23 40  1  0
 23 41  1  0
 26 42  1  0
 26 43  1  0
 26 44  1  0
M  CHG  1   8   1
M  END
>  <score>  (9) 
-6.854

$$$$
