=
     RDKit          3D

 16 17  0  0  0  0  0  0  0  0999 V2000
    5.6200   69.3500   63.7850 O   0  0  0  0  0  0  0  0  0  0  0  0
    5.2500   69.5580   64.9170 C   0  0  0  0  0  0  0  0  0  0  0  0
    5.9790   70.0500   65.9800 N   0  0  0  0  0  0  0  0  0  0  0  0
    5.1920   70.1490   67.1290 C   0  0  0  0  0  0  0  0  0  0  0  0
    3.8880   69.7240   66.8860 C   0  0  0  0  0  0  0  0  0  0  0  0
    3.8200   69.3200   65.4800 C   0  0  0  0  0  0  0  0  0  0  0  0
    2.8550   68.8930   64.8910 O   0  0  0  0  0  0  0  0  0  0  0  0
    2.9070   69.7210   67.8590 C   0  0  0  0  0  0  0  0  0  0  0  0
    3.2710   70.1700   69.1310 C   0  0  0  0  0  0  0  0  0  0  0  0
    4.5870   70.6040   69.3930 C   0  0  0  0  0  0  0  0  0  0  0  0
    5.5580   70.5950   68.3850 C   0  0  0  0  0  0  0  0  0  0  0  0
    7.1570   71.1260   68.7180 Cl  0  0  0  0  0  0  0  0  0  0  0  0
    6.9744   70.3104   65.9322 H   0  0  0  0  0  0  0  0  0  0  0  0
    1.8840   69.3800   67.6416 H   0  0  0  0  0  0  0  0  0  0  0  0
    2.5227   70.1852   69.9371 H   0  0  0  0  0  0  0  0  0  0  0  0
    4.8535   70.9537   70.4013 H   0  0  0  0  0  0  0  0  0  0  0  0
  2  1  2  0
  3  2  1  0
  4  3  1  0
  5  4  2  0
  6  2  1  0
  6  5  1  0
  7  6  2  0
  8  5  1  0
  9  8  2  0
 10  9  1  0
 11 10  2  0
 11  4  1  0
 12 11  1  0
  3 13  1  0
  8 14  1  0
  9 15  1  0
 10 16  1  0
M  END
>  <score>  (1) 
-7.858

$$$$
=
     RDKit          3D

 16 17  0  0  0  0  0  0  0  0999 V2000
    7.0790   71.4910   68.8020 O   0  0  0  0  0  0  0  0  0  0  0  0
    6.1790   70.9620   68.1920 C   0  0  0  0  0  0  0  0  0  0  0  0
    6.1550   70.5740   66.8680 N   0  0  0  0  0  0  0  0  0  0  0  0
    4.9300   69.9930   66.5340 C   0  0  0  0  0  0  0  0  0  0  0  0
    4.0700   69.9660   67.6290 C   0  0  0  0  0  0  0  0  0  0  0  0
    4.7840   70.5700   68.7560 C   0  0  0  0  0  0  0  0  0  0  0  0
    4.3710   70.7270   69.8810 O   0  0  0  0  0  0  0  0  0  0  0  0
    2.7920   69.4420   67.5670 C   0  0  0  0  0  0  0  0  0  0  0  0
    2.3760   68.9260   66.3370 C   0  0  0  0  0  0  0  0  0  0  0  0
    3.2350   68.9470   65.2190 C   0  0  0  0  0  0  0  0  0  0  0  0
    4.5240   69.4840   65.3150 C   0  0  0  0  0  0  0  0  0  0  0  0
    5.5590   69.5040   63.9450 Cl  0  0  0  0  0  0  0  0  0  0  0  0
    6.9389   70.6970   66.2113 H   0  0  0  0  0  0  0  0  0  0  0  0
    2.1320   69.4318   68.4470 H   0  0  0  0  0  0  0  0  0  0  0  0
    1.3671   68.4986   66.2397 H   0  0  0  0  0  0  0  0  0  0  0  0
    2.8878   68.5362   64.2595 H   0  0  0  0  0  0  0  0  0  0  0  0
  2  1  2  0
  3  2  1  0
  4  3  1  0
  5  4  2  0
  6  2  1  0
  6  5  1  0
  7  6  2  0
  8  5  1  0
  9  8  2  0
 10  9  1  0
 11 10  2  0
 11  4  1  0
 12 11  1  0
  3 13  1  0
  8 14  1  0
  9 15  1  0
 10 16  1  0
M  END
>  <score>  (2) 
-7.626

$$$$
=
     RDKit          3D

 16 17  0  0  0  0  0  0  0  0999 V2000
    3.7710   70.8240   69.9210 O   0  0  0  0  0  0  0  0  0  0  0  0
    3.8800   70.4370   68.7800 C   0  0  0  0  0  0  0  0  0  0  0  0
    2.9170   69.8640   67.9740 N   0  0  0  0  0  0  0  0  0  0  0  0
    3.4330   69.5530   66.7150 C   0  0  0  0  0  0  0  0  0  0  0  0
    4.7770   69.9070   66.6180 C   0  0  0  0  0  0  0  0  0  0  0  0
    5.1640   70.4900   67.9050 C   0  0  0  0  0  0  0  0  0  0  0  0
    6.2520   70.9180   68.2130 O   0  0  0  0  0  0  0  0  0  0  0  0
    5.5260   69.7060   65.4740 C   0  0  0  0  0  0  0  0  0  0  0  0
    4.8770   69.1190   64.3850 C   0  0  0  0  0  0  0  0  0  0  0  0
    3.5170   68.7550   64.4670 C   0  0  0  0  0  0  0  0  0  0  0  0
    2.7860   68.9730   65.6410 C   0  0  0  0  0  0  0  0  0  0  0  0
    1.1300   68.5250   65.7260 Cl  0  0  0  0  0  0  0  0  0  0  0  0
    1.9443   69.6888   68.2639 H   0  0  0  0  0  0  0  0  0  0  0  0
    6.5860   69.9954   65.4232 H   0  0  0  0  0  0  0  0  0  0  0  0
    5.4330   68.9387   63.4531 H   0  0  0  0  0  0  0  0  0  0  0  0
    3.0245   68.2942   63.5980 H   0  0  0  0  0  0  0  0  0  0  0  0
  2  1  2  0
  3  2  1  0
  4  3  1  0
  5  4  2  0
  6  2  1  0
  6  5  1  0
  7  6  2  0
  8  5  1  0
  9  8  2  0
 10  9  1  0
 11 10  2  0
 11  4  1  0
 12 11  1  0
  3 13  1  0
  8 14  1  0
  9 15  1  0
 10 16  1  0
M  END
>  <score>  (3) 
-7.435

$$$$
=
     RDKit          3D

 16 17  0  0  0  0  0  0  0  0999 V2000
    2.7400   68.2180   62.1830 O   0  0  0  0  0  0  0  0  0  0  0  0
    3.1520   68.5940   63.2560 C   0  0  0  0  0  0  0  0  0  0  0  0
    2.4700   68.6780   64.4530 N   0  0  0  0  0  0  0  0  0  0  0  0
    3.2950   69.1610   65.4710 C   0  0  0  0  0  0  0  0  0  0  0  0
    4.5770   69.4260   64.9980 C   0  0  0  0  0  0  0  0  0  0  0  0
    4.5910   69.0910   63.5720 C   0  0  0  0  0  0  0  0  0  0  0  0
    5.5250   69.1840   62.8100 O   0  0  0  0  0  0  0  0  0  0  0  0
    5.5880   69.9140   65.8040 C   0  0  0  0  0  0  0  0  0  0  0  0
    5.2770   70.1410   67.1460 C   0  0  0  0  0  0  0  0  0  0  0  0
    3.9820   69.8780   67.6410 C   0  0  0  0  0  0  0  0  0  0  0  0
    2.9800   69.3840   66.7980 C   0  0  0  0  0  0  0  0  0  0  0  0
    1.4080   69.0680   67.4130 Cl  0  0  0  0  0  0  0  0  0  0  0  0
    1.4813   68.4183   64.5790 H   0  0  0  0  0  0  0  0  0  0  0  0
    6.5935   70.1147   65.4057 H   0  0  0  0  0  0  0  0  0  0  0  0
    6.0503   70.5293   67.8252 H   0  0  0  0  0  0  0  0  0  0  0  0
    3.7575   70.0634   68.7018 H   0  0  0  0  0  0  0  0  0  0  0  0
  2  1  2  0
  3  2  1  0
  4  3  1  0
  5  4  2  0
  6  2  1  0
  6  5  1  0
  7  6  2  0
  8  5  1  0
  9  8  2  0
 10  9  1  0
 11 10  2  0
 11  4  1  0
 12 11  1  0
  3 13  1  0
  8 14  1  0
  9 15  1  0
 10 16  1  0
M  END
>  <score>  (4) 
-7.359

$$$$
=
     RDKit          3D

 16 17  0  0  0  0  0  0  0  0999 V2000
    0.2850   67.9500   65.0520 O   0  0  0  0  0  0  0  0  0  0  0  0
    1.3310   68.4100   65.4490 C   0  0  0  0  0  0  0  0  0  0  0  0
    2.4940   68.6300   64.7390 N   0  0  0  0  0  0  0  0  0  0  0  0
    3.4860   69.1790   65.5540 C   0  0  0  0  0  0  0  0  0  0  0  0
    3.0290   69.3530   66.8580 C   0  0  0  0  0  0  0  0  0  0  0  0
    1.6410   68.8860   66.8960 C   0  0  0  0  0  0  0  0  0  0  0  0
    0.9020   68.8750   67.8520 O   0  0  0  0  0  0  0  0  0  0  0  0
    3.8150   69.8800   67.8650 C   0  0  0  0  0  0  0  0  0  0  0  0
    5.1210   70.2430   67.5270 C   0  0  0  0  0  0  0  0  0  0  0  0
    5.5990   70.0730   66.2110 C   0  0  0  0  0  0  0  0  0  0  0  0
    4.7760   69.5370   65.2140 C   0  0  0  0  0  0  0  0  0  0  0  0
    5.3720   69.3350   63.6160 Cl  0  0  0  0  0  0  0  0  0  0  0  0
    2.6144   68.4170   63.7385 H   0  0  0  0  0  0  0  0  0  0  0  0
    3.4295   70.0080   68.8873 H   0  0  0  0  0  0  0  0  0  0  0  0
    5.7840   70.6662   68.2959 H   0  0  0  0  0  0  0  0  0  0  0  0
    6.6307   70.3651   65.9654 H   0  0  0  0  0  0  0  0  0  0  0  0
  2  1  2  0
  3  2  1  0
  4  3  1  0
  5  4  2  0
  6  2  1  0
  6  5  1  0
  7  6  2  0
  8  5  1  0
  9  8  2  0
 10  9  1  0
 11 10  2  0
 11  4  1  0
 12 11  1  0
  3 13  1  0
  8 14  1  0
  9 15  1  0
 10 16  1  0
M  END
>  <score>  (5) 
-7.358

$$$$
=
     RDKit          3D

 16 17  0  0  0  0  0  0  0  0999 V2000
   -0.7630   68.4080   67.6270 O   0  0  0  0  0  0  0  0  0  0  0  0
    0.3750   68.6600   67.3050 C   0  0  0  0  0  0  0  0  0  0  0  0
    1.3720   69.2360   68.0650 N   0  0  0  0  0  0  0  0  0  0  0  0
    2.5550   69.3620   67.3350 C   0  0  0  0  0  0  0  0  0  0  0  0
    2.4030   68.8720   66.0400 C   0  0  0  0  0  0  0  0  0  0  0  0
    1.0240   68.3920   65.9180 C   0  0  0  0  0  0  0  0  0  0  0  0
    0.5090   67.8960   64.9440 O   0  0  0  0  0  0  0  0  0  0  0  0
    3.4250   68.8790   65.1100 C   0  0  0  0  0  0  0  0  0  0  0  0
    4.6520   69.4080   65.5190 C   0  0  0  0  0  0  0  0  0  0  0  0
    4.8220   69.9080   66.8260 C   0  0  0  0  0  0  0  0  0  0  0  0
    3.7660   69.8860   67.7450 C   0  0  0  0  0  0  0  0  0  0  0  0
    3.9870   70.4990   69.3340 Cl  0  0  0  0  0  0  0  0  0  0  0  0
    1.2581   69.5344   69.0442 H   0  0  0  0  0  0  0  0  0  0  0  0
    3.2792   68.4857   64.0931 H   0  0  0  0  0  0  0  0  0  0  0  0
    5.4950   69.4346   64.8129 H   0  0  0  0  0  0  0  0  0  0  0  0
    5.7962   70.3205   67.1275 H   0  0  0  0  0  0  0  0  0  0  0  0
  2  1  2  0
  3  2  1  0
  4  3  1  0
  5  4  2  0
  6  2  1  0
  6  5  1  0
  7  6  2  0
  8  5  1  0
  9  8  2  0
 10  9  1  0
 11 10  2  0
 11  4  1  0
 12 11  1  0
  3 13  1  0
  8 14  1  0
  9 15  1  0
 10 16  1  0
M  END
>  <score>  (6) 
-7.333

$$$$
=
     RDKit          3D

 16 17  0  0  0  0  0  0  0  0999 V2000
   -0.1580   66.8350   66.3610 O   0  0  0  0  0  0  0  0  0  0  0  0
    0.9340   67.2400   66.0340 C   0  0  0  0  0  0  0  0  0  0  0  0
    1.8200   66.6830   65.1350 N   0  0  0  0  0  0  0  0  0  0  0  0
    2.9810   67.4520   65.0280 C   0  0  0  0  0  0  0  0  0  0  0  0
    2.9250   68.5680   65.8600 C   0  0  0  0  0  0  0  0  0  0  0  0
    1.6370   68.5250   66.5560 C   0  0  0  0  0  0  0  0  0  0  0  0
    1.2180   69.3210   67.3630 O   0  0  0  0  0  0  0  0  0  0  0  0
    3.9480   69.4930   65.9430 C   0  0  0  0  0  0  0  0  0  0  0  0
    5.0730   69.2690   65.1470 C   0  0  0  0  0  0  0  0  0  0  0  0
    5.1450   68.1440   64.3000 C   0  0  0  0  0  0  0  0  0  0  0  0
    4.0910   67.2260   64.2380 C   0  0  0  0  0  0  0  0  0  0  0  0
    4.1920   65.8600   63.2020 Cl  0  0  0  0  0  0  0  0  0  0  0  0
    1.6477   65.8132   64.6109 H   0  0  0  0  0  0  0  0  0  0  0  0
    3.8792   70.3673   66.6069 H   0  0  0  0  0  0  0  0  0  0  0  0
    5.9130   69.9784   65.1810 H   0  0  0  0  0  0  0  0  0  0  0  0
    6.0403   67.9863   63.6807 H   0  0  0  0  0  0  0  0  0  0  0  0
  2  1  2  0
  3  2  1  0
  4  3  1  0
  5  4  2  0
  6  2  1  0
  6  5  1  0
  7  6  2  0
  8  5  1  0
  9  8  2  0
 10  9  1  0
 11 10  2  0
 11  4  1  0
 12 11  1  0
  3 13  1  0
  8 14  1  0
  9 15  1  0
 10 16  1  0
M  END
>  <score>  (7) 
-6.906

$$$$
=
     RDKit          3D

 16 17  0  0  0  0  0  0  0  0999 V2000
    3.0600   68.3960   61.5370 O   0  0  0  0  0  0  0  0  0  0  0  0
    2.9320   68.5710   62.7260 C   0  0  0  0  0  0  0  0  0  0  0  0
    3.8770   68.9990   63.6360 N   0  0  0  0  0  0  0  0  0  0  0  0
    3.3400   69.0780   64.9220 C   0  0  0  0  0  0  0  0  0  0  0  0
    1.9990   68.7030   64.9330 C   0  0  0  0  0  0  0  0  0  0  0  0
    1.6350   68.3570   63.5580 C   0  0  0  0  0  0  0  0  0  0  0  0
    0.5560   67.9840   63.1610 O   0  0  0  0  0  0  0  0  0  0  0  0
    1.2320   68.6940   66.0830 C   0  0  0  0  0  0  0  0  0  0  0  0
    1.8600   69.0810   67.2690 C   0  0  0  0  0  0  0  0  0  0  0  0
    3.2180   69.4630   67.2750 C   0  0  0  0  0  0  0  0  0  0  0  0
    3.9670   69.4620   66.0920 C   0  0  0  0  0  0  0  0  0  0  0  0
    5.6190   69.9290   66.1140 Cl  0  0  0  0  0  0  0  0  0  0  0  0
    4.8519   69.2301   63.3973 H   0  0  0  0  0  0  0  0  0  0  0  0
    0.1735   68.3952   66.0648 H   0  0  0  0  0  0  0  0  0  0  0  0
    1.2891   69.0880   68.2092 H   0  0  0  0  0  0  0  0  0  0  0  0
    3.6938   69.7650   68.2197 H   0  0  0  0  0  0  0  0  0  0  0  0
  2  1  2  0
  3  2  1  0
  4  3  1  0
  5  4  2  0
  6  2  1  0
  6  5  1  0
  7  6  2  0
  8  5  1  0
  9  8  2  0
 10  9  1  0
 11 10  2  0
 11  4  1  0
 12 11  1  0
  3 13  1  0
  8 14  1  0
  9 15  1  0
 10 16  1  0
M  END
>  <score>  (8) 
-6.846

$$$$
=
     RDKit          3D

 16 17  0  0  0  0  0  0  0  0999 V2000
    0.4310   68.4350   66.6910 O   0  0  0  0  0  0  0  0  0  0  0  0
    1.4160   68.6130   66.0120 C   0  0  0  0  0  0  0  0  0  0  0  0
    2.6590   69.0600   66.4090 N   0  0  0  0  0  0  0  0  0  0  0  0
    3.5380   69.1330   65.3260 C   0  0  0  0  0  0  0  0  0  0  0  0
    2.9180   68.7340   64.1450 C   0  0  0  0  0  0  0  0  0  0  0  0
    1.5380   68.3760   64.4810 C   0  0  0  0  0  0  0  0  0  0  0  0
    0.6820   67.9810   63.7230 O   0  0  0  0  0  0  0  0  0  0  0  0
    3.5680   68.7130   62.9260 C   0  0  0  0  0  0  0  0  0  0  0  0
    4.9060   69.1160   62.9120 C   0  0  0  0  0  0  0  0  0  0  0  0
    5.5480   69.5230   64.1000 C   0  0  0  0  0  0  0  0  0  0  0  0
    4.8610   69.5310   65.3190 C   0  0  0  0  0  0  0  0  0  0  0  0
    5.6560   70.0290   66.7580 Cl  0  0  0  0  0  0  0  0  0  0  0  0
    2.9067   69.3076   67.3776 H   0  0  0  0  0  0  0  0  0  0  0  0
    3.0549   68.3932   62.0070 H   0  0  0  0  0  0  0  0  0  0  0  0
    5.4645   69.1158   61.9643 H   0  0  0  0  0  0  0  0  0  0  0  0
    6.6015   69.8379   64.0679 H   0  0  0  0  0  0  0  0  0  0  0  0
  2  1  2  0
  3  2  1  0
  4  3  1  0
  5  4  2  0
  6  2  1  0
  6  5  1  0
  7  6  2  0
  8  5  1  0
  9  8  2  0
 10  9  1  0
 11 10  2  0
 11  4  1  0
 12 11  1  0
  3 13  1  0
  8 14  1  0
  9 15  1  0
 10 16  1  0
M  END
>  <score>  (9) 
-6.846

$$$$
