=
     RDKit          3D

 42 42  0  0  0  0  0  0  0  0999 V2000
    2.6980   68.4000   64.0700 O   0  0  0  0  0  0  0  0  0  0  0  0
    3.3190   68.9290   65.1680 C   0  0  0  0  0  0  0  0  0  0  0  0
    4.6360   69.3830   65.2240 C   0  0  0  0  0  0  0  0  0  0  0  0
    5.1450   69.9120   66.4150 C   0  0  0  0  0  0  0  0  0  0  0  0
    4.3480   69.9960   67.5640 C   0  0  0  0  0  0  0  0  0  0  0  0
    3.0280   69.5360   67.5020 C   0  0  0  0  0  0  0  0  0  0  0  0
    2.5230   69.0050   66.3120 C   0  0  0  0  0  0  0  0  0  0  0  0
    4.9060   70.5860   68.8360 C   0  0  0  0  0  0  0  0  0  0  0  0
    6.0880   71.5060   68.5890 C   0  0  0  0  0  0  0  0  0  0  0  0
    6.0040   72.5820   68.0040 O   0  0  0  0  0  0  0  0  0  0  0  0
    7.2920   71.0640   69.0570 N   0  0  0  0  0  0  0  0  0  0  0  0
    2.9850   69.0090   62.8090 C   0  0  0  0  0  0  0  0  0  0  0  0
    3.4410   67.8840   61.8780 C   0  0  1  0  0  0  0  0  0  0  0  0
    3.8000   68.4110   60.5820 O   0  0  0  0  0  0  0  0  0  0  0  0
    4.6760   67.1570   62.4160 C   0  0  0  0  0  0  0  0  0  0  0  0
    4.2680   65.7280   62.6720 N   0  0  0  0  0  4  0  0  0  0  0  0
    4.4520   65.2060   64.0610 C   0  0  0  0  0  0  0  0  0  0  0  0
    5.0650   63.8140   63.9590 C   0  0  0  0  0  0  0  0  0  0  0  0
    3.1080   65.1700   64.7750 C   0  0  0  0  0  0  0  0  0  0  0  0
    5.2755   69.3252   64.3309 H   0  0  0  0  0  0  0  0  0  0  0  0
    6.1856   70.2669   66.4497 H   0  0  0  0  0  0  0  0  0  0  0  0
    2.3855   69.5925   68.3931 H   0  0  0  0  0  0  0  0  0  0  0  0
    1.4851   68.6424   66.2765 H   0  0  0  0  0  0  0  0  0  0  0  0
    4.1117   71.1606   69.3348 H   0  0  0  0  0  0  0  0  0  0  0  0
    5.2601   69.7523   69.4601 H   0  0  0  0  0  0  0  0  0  0  0  0
    8.1377   71.6369   68.9248 H   0  0  0  0  0  0  0  0  0  0  0  0
    7.3546   70.1576   69.5423 H   0  0  0  0  0  0  0  0  0  0  0  0
    2.0830   69.4933   62.4067 H   0  0  0  0  0  0  0  0  0  0  0  0
    3.7605   69.7828   62.9079 H   0  0  0  0  0  0  0  0  0  0  0  0
    2.5945   67.1850   61.8078 H   0  0  0  0  0  0  0  0  0  0  0  0
    4.3535   69.2236   60.6980 H   0  0  0  0  0  0  0  0  0  0  0  0
    5.4878   67.1913   61.6745 H   0  0  0  0  0  0  0  0  0  0  0  0
    5.0416   67.6326   63.3380 H   0  0  0  0  0  0  0  0  0  0  0  0
    3.2682   65.6442   62.4388 H   0  0  0  0  0  0  0  0  0  0  0  0
    4.9000   65.1616   62.0884 H   0  0  0  0  0  0  0  0  0  0  0  0
    5.1204   65.8565   64.6442 H   0  0  0  0  0  0  0  0  0  0  0  0
    5.2404   63.4157   64.9692 H   0  0  0  0  0  0  0  0  0  0  0  0
    4.3765   63.1490   63.4171 H   0  0  0  0  0  0  0  0  0  0  0  0
    6.0204   63.8729   63.4171 H   0  0  0  0  0  0  0  0  0  0  0  0
    3.2705   65.1744   65.8629 H   0  0  0  0  0  0  0  0  0  0  0  0
    2.5171   66.0526   64.4890 H   0  0  0  0  0  0  0  0  0  0  0  0
    2.5652   64.2570   64.4890 H   0  0  0  0  0  0  0  0  0  0  0  0
  2  1  1  0
  3  2  2  0
  4  3  1  0
  5  4  2  0
  6  5  1  0
  7  2  1  0
  7  6  2  0
  8  5  1  0
  9  8  1  0
 10  9  2  0
 11  9  1  0
 12  1  1  0
 13 12  1  0
 14 13  1  0
 15 13  1  0
 16 15  1  0
 17 16  1  0
 18 17  1  0
 19 17  1  0
  3 20  1  0
  4 21  1  0
  6 22  1  0
  7 23  1  0
  8 24  1  0
  8 25  1  0
 11 26  1  0
 11 27  1  0
 12 28  1  0
 12 29  1  0
 13 30  1  6
 14 31  1  0
 15 32  1  0
 15 33  1  0
 16 34  1  0
 16 35  1  0
 17 36  1  0
 18 37  1  0
 18 38  1  0
 18 39  1  0
 19 40  1  0
 19 41  1  0
 19 42  1  0
M  CHG  1  16   1
M  END
>  <score>  (1) 
-8.334

$$$$
=
     RDKit          3D

 42 42  0  0  0  0  0  0  0  0999 V2000
    2.2240   68.2770   64.0520 O   0  0  0  0  0  0  0  0  0  0  0  0
    3.3280   68.7850   64.6800 C   0  0  0  0  0  0  0  0  0  0  0  0
    4.5790   68.9900   64.0990 C   0  0  0  0  0  0  0  0  0  0  0  0
    5.6240   69.5280   64.8570 C   0  0  0  0  0  0  0  0  0  0  0  0
    5.4360   69.8690   66.2020 C   0  0  0  0  0  0  0  0  0  0  0  0
    4.1790   69.6580   66.7810 C   0  0  0  0  0  0  0  0  0  0  0  0
    3.1370   69.1180   66.0220 C   0  0  0  0  0  0  0  0  0  0  0  0
    6.5690   70.4660   67.0020 C   0  0  0  0  0  0  0  0  0  0  0  0
    6.0840   71.3440   68.1420 C   0  0  0  0  0  0  0  0  0  0  0  0
    5.8080   72.5330   68.0160 O   0  0  0  0  0  0  0  0  0  0  0  0
    5.9720   70.7310   69.3570 N   0  0  0  0  0  0  0  0  0  0  0  0
    2.1190   68.5050   62.6450 C   0  0  0  0  0  0  0  0  0  0  0  0
    0.6570   68.8660   62.3720 C   0  0  1  0  0  0  0  0  0  0  0  0
   -0.1100   67.6810   62.0640 O   0  0  0  0  0  0  0  0  0  0  0  0
   -0.0100   69.5190   63.5860 C   0  0  0  0  0  0  0  0  0  0  0  0
   -0.6090   68.4060   64.4090 N   0  0  0  0  0  4  0  0  0  0  0  0
   -0.8950   68.7010   65.8470 C   0  0  0  0  0  0  0  0  0  0  0  0
   -0.2650   67.5950   66.6850 C   0  0  0  0  0  0  0  0  0  0  0  0
   -2.4000   68.7730   66.0630 C   0  0  0  0  0  0  0  0  0  0  0  0
    4.7441   68.7283   63.0434 H   0  0  0  0  0  0  0  0  0  0  0  0
    6.6074   69.6855   64.3900 H   0  0  0  0  0  0  0  0  0  0  0  0
    4.0109   69.9180   67.8365 H   0  0  0  0  0  0  0  0  0  0  0  0
    2.1543   68.9534   66.4880 H   0  0  0  0  0  0  0  0  0  0  0  0
    7.1732   69.6477   67.4208 H   0  0  0  0  0  0  0  0  0  0  0  0
    7.1571   71.0999   66.3221 H   0  0  0  0  0  0  0  0  0  0  0  0
    5.6487   71.2658   70.1758 H   0  0  0  0  0  0  0  0  0  0  0  0
    6.2108   69.7338   69.4547 H   0  0  0  0  0  0  0  0  0  0  0  0
    2.7776   69.3330   62.3439 H   0  0  0  0  0  0  0  0  0  0  0  0
    2.4227   67.6154   62.0738 H   0  0  0  0  0  0  0  0  0  0  0  0
    0.6695   69.5689   61.5259 H   0  0  0  0  0  0  0  0  0  0  0  0
   -0.3933   67.2433   62.9056 H   0  0  0  0  0  0  0  0  0  0  0  0
    0.7371   70.0675   64.1785 H   0  0  0  0  0  0  0  0  0  0  0  0
   -0.7829   70.2360   63.2720 H   0  0  0  0  0  0  0  0  0  0  0  0
   -1.4980   68.1354   63.9649 H   0  0  0  0  0  0  0  0  0  0  0  0
    0.1108   67.6695   64.4258 H   0  0  0  0  0  0  0  0  0  0  0  0
   -0.4697   69.6705   66.1456 H   0  0  0  0  0  0  0  0  0  0  0  0
   -0.3957   67.8244   67.7528 H   0  0  0  0  0  0  0  0  0  0  0  0
   -0.7527   66.6366   66.4535 H   0  0  0  0  0  0  0  0  0  0  0  0
    0.8081   67.5257   66.4535 H   0  0  0  0  0  0  0  0  0  0  0  0
   -2.6155   68.7833   67.1416 H   0  0  0  0  0  0  0  0  0  0  0  0
   -2.7931   69.6910   65.6017 H   0  0  0  0  0  0  0  0  0  0  0  0
   -2.8790   67.8967   65.6017 H   0  0  0  0  0  0  0  0  0  0  0  0
  2  1  1  0
  3  2  2  0
  4  3  1  0
  5  4  2  0
  6  5  1  0
  7  2  1  0
  7  6  2  0
  8  5  1  0
  9  8  1  0
 10  9  2  0
 11  9  1  0
 12  1  1  0
 13 12  1  0
 14 13  1  0
 15 13  1  0
 16 15  1  0
 17 16  1  0
 18 17  1  0
 19 17  1  0
  3 20  1  0
  4 21  1  0
  6 22  1  0
  7 23  1  0
  8 24  1  0
  8 25  1  0
 11 26  1  0
 11 27  1  0
 12 28  1  0
 12 29  1  0
 13 30  1  6
 14 31  1  0
 15 32  1  0
 15 33  1  0
 16 34  1  0
 16 35  1  0
 17 36  1  0
 18 37  1  0
 18 38  1  0
 18 39  1  0
 19 40  1  0
 19 41  1  0
 19 42  1  0
M  CHG  1  16   1
M  END
>  <score>  (2) 
-8.11

$$$$
=
     RDKit          3D

 42 42  0  0  0  0  0  0  0  0999 V2000
    2.2770   68.2250   64.3490 O   0  0  0  0  0  0  0  0  0  0  0  0
    2.7510   68.7990   65.4960 C   0  0  0  0  0  0  0  0  0  0  0  0
    2.0430   68.9570   66.6870 C   0  0  0  0  0  0  0  0  0  0  0  0
    2.6550   69.5570   67.7930 C   0  0  0  0  0  0  0  0  0  0  0  0
    3.9800   70.0050   67.7260 C   0  0  0  0  0  0  0  0  0  0  0  0
    4.6850   69.8460   66.5280 C   0  0  0  0  0  0  0  0  0  0  0  0
    4.0710   69.2490   65.4230 C   0  0  0  0  0  0  0  0  0  0  0  0
    4.6330   70.6330   68.9330 C   0  0  0  0  0  0  0  0  0  0  0  0
    5.8920   71.4070   68.5850 C   0  0  0  0  0  0  0  0  0  0  0  0
    5.8870   72.5220   68.0730 O   0  0  0  0  0  0  0  0  0  0  0  0
    7.0710   70.7810   68.8710 N   0  0  0  0  0  0  0  0  0  0  0  0
    1.4370   69.0350   63.5210 C   0  0  0  0  0  0  0  0  0  0  0  0
    1.7620   68.6580   62.0750 C   0  0  1  0  0  0  0  0  0  0  0  0
    0.9580   69.4300   61.1560 O   0  0  0  0  0  0  0  0  0  0  0  0
    3.2260   68.9390   61.7220 C   0  0  0  0  0  0  0  0  0  0  0  0
    3.8550   67.6140   61.3720 N   0  0  0  0  0  4  0  0  0  0  0  0
    5.0500   67.1960   62.1670 C   0  0  0  0  0  0  0  0  0  0  0  0
    4.5700   66.2820   63.2880 C   0  0  0  0  0  0  0  0  0  0  0  0
    5.7530   68.4290   62.7190 C   0  0  0  0  0  0  0  0  0  0  0  0
    1.0017   68.6094   66.7571 H   0  0  0  0  0  0  0  0  0  0  0  0
    2.0877   69.6784   68.7276 H   0  0  0  0  0  0  0  0  0  0  0  0
    5.7266   70.1921   66.4553 H   0  0  0  0  0  0  0  0  0  0  0  0
    4.6341   69.1324   64.4853 H   0  0  0  0  0  0  0  0  0  0  0  0
    3.9153   71.3220   69.4022 H   0  0  0  0  0  0  0  0  0  0  0  0
    4.9223   69.8190   69.6140 H   0  0  0  0  0  0  0  0  0  0  0  0
    7.9655   71.2469   68.6618 H   0  0  0  0  0  0  0  0  0  0  0  0
    7.0661   69.8428   69.2960 H   0  0  0  0  0  0  0  0  0  0  0  0
    0.3782   68.8310   63.7384 H   0  0  0  0  0  0  0  0  0  0  0  0
    1.6118   70.1057   63.7025 H   0  0  0  0  0  0  0  0  0  0  0  0
    1.5537   67.5815   61.9868 H   0  0  0  0  0  0  0  0  0  0  0  0
    0.3460   70.0176   61.6662 H   0  0  0  0  0  0  0  0  0  0  0  0
    3.2831   69.6234   60.8628 H   0  0  0  0  0  0  0  0  0  0  0  0
    3.7501   69.4128   62.5651 H   0  0  0  0  0  0  0  0  0  0  0  0
    3.1343   66.8877   61.4900 H   0  0  0  0  0  0  0  0  0  0  0  0
    4.2028   67.7302   60.4095 H   0  0  0  0  0  0  0  0  0  0  0  0
    5.7730   66.6538   61.5398 H   0  0  0  0  0  0  0  0  0  0  0  0
    4.8092   66.7375   64.2603 H   0  0  0  0  0  0  0  0  0  0  0  0
    3.4820   66.1420   63.2064 H   0  0  0  0  0  0  0  0  0  0  0  0
    5.0723   65.3068   63.2064 H   0  0  0  0  0  0  0  0  0  0  0  0
    5.7361   68.3993   63.8185 H   0  0  0  0  0  0  0  0  0  0  0  0
    6.7956   68.4443   62.3686 H   0  0  0  0  0  0  0  0  0  0  0  0
    5.2351   69.3340   62.3686 H   0  0  0  0  0  0  0  0  0  0  0  0
  2  1  1  0
  3  2  2  0
  4  3  1  0
  5  4  2  0
  6  5  1  0
  7  2  1  0
  7  6  2  0
  8  5  1  0
  9  8  1  0
 10  9  2  0
 11  9  1  0
 12  1  1  0
 13 12  1  0
 14 13  1  0
 15 13  1  0
 16 15  1  0
 17 16  1  0
 18 17  1  0
 19 17  1  0
  3 20  1  0
  4 21  1  0
  6 22  1  0
  7 23  1  0
  8 24  1  0
  8 25  1  0
 11 26  1  0
 11 27  1  0
 12 28  1  0
 12 29  1  0
 13 30  1  1
 14 31  1  0
 15 32  1  0
 15 33  1  0
 16 34  1  0
 16 35  1  0
 17 36  1  0
 18 37  1  0
 18 38  1  0
 18 39  1  0
 19 40  1  0
 19 41  1  0
 19 42  1  0
M  CHG  1  16   1
M  END
>  <score>  (3) 
-8.036

$$$$
=
     RDKit          3D

 42 42  0  0  0  0  0  0  0  0999 V2000
    1.7940   68.7430   64.6540 O   0  0  0  0  0  0  0  0  0  0  0  0
    2.9160   69.1350   65.3300 C   0  0  0  0  0  0  0  0  0  0  0  0
    2.9950   69.4140   66.6940 C   0  0  0  0  0  0  0  0  0  0  0  0
    4.2140   69.7990   67.2620 C   0  0  0  0  0  0  0  0  0  0  0  0
    5.3690   69.9100   66.4780 C   0  0  0  0  0  0  0  0  0  0  0  0
    5.2830   69.6320   65.1090 C   0  0  0  0  0  0  0  0  0  0  0  0
    4.0630   69.2500   64.5440 C   0  0  0  0  0  0  0  0  0  0  0  0
    6.6820   70.3090   67.1080 C   0  0  0  0  0  0  0  0  0  0  0  0
    6.5100   71.2940   68.2510 C   0  0  0  0  0  0  0  0  0  0  0  0
    6.0090   72.4070   68.1220 O   0  0  0  0  0  0  0  0  0  0  0  0
    6.9580   70.8720   69.4690 N   0  0  0  0  0  0  0  0  0  0  0  0
    0.9140   67.8410   65.3300 C   0  0  0  0  0  0  0  0  0  0  0  0
   -0.3460   68.6370   65.6710 C   0  0  1  0  0  0  0  0  0  0  0  0
   -1.2060   68.7480   64.5160 O   0  0  0  0  0  0  0  0  0  0  0  0
   -1.1710   67.9640   66.7720 C   0  0  0  0  0  0  0  0  0  0  0  0
   -0.2890   66.9170   67.4030 N   0  0  0  0  0  4  0  0  0  0  0  0
   -0.0190   67.0470   68.8680 C   0  0  0  0  0  0  0  0  0  0  0  0
    1.4320   67.4770   69.0400 C   0  0  0  0  0  0  0  0  0  0  0  0
   -0.2900   65.7170   69.5580 C   0  0  0  0  0  0  0  0  0  0  0  0
    2.0973   69.3312   67.3243 H   0  0  0  0  0  0  0  0  0  0  0  0
    4.2660   70.0175   68.3388 H   0  0  0  0  0  0  0  0  0  0  0  0
    6.1785   69.7144   64.4756 H   0  0  0  0  0  0  0  0  0  0  0  0
    4.0064   69.0374   63.4662 H   0  0  0  0  0  0  0  0  0  0  0  0
    7.1758   69.4051   67.4941 H   0  0  0  0  0  0  0  0  0  0  0  0
    7.2853   70.8033   66.3323 H   0  0  0  0  0  0  0  0  0  0  0  0
    6.8739   71.4878   70.2903 H   0  0  0  0  0  0  0  0  0  0  0  0
    7.3803   69.9377   69.5670 H   0  0  0  0  0  0  0  0  0  0  0  0
    0.6625   66.9935   64.6754 H   0  0  0  0  0  0  0  0  0  0  0  0
    1.3836   67.4321   66.2368 H   0  0  0  0  0  0  0  0  0  0  0  0
    0.0005   69.6242   66.0107 H   0  0  0  0  0  0  0  0  0  0  0  0
   -2.1428   68.8689   64.8125 H   0  0  0  0  0  0  0  0  0  0  0  0
   -1.4743   68.7066   67.5247 H   0  0  0  0  0  0  0  0  0  0  0  0
   -2.0844   67.5117   66.3584 H   0  0  0  0  0  0  0  0  0  0  0  0
   -0.7357   66.0016   67.2498 H   0  0  0  0  0  0  0  0  0  0  0  0
    0.6292   67.0344   66.9513 H   0  0  0  0  0  0  0  0  0  0  0  0
   -0.6779   67.7990   69.3267 H   0  0  0  0  0  0  0  0  0  0  0  0
    1.6690   67.5472   70.1119 H   0  0  0  0  0  0  0  0  0  0  0  0
    2.0926   66.7360   68.5662 H   0  0  0  0  0  0  0  0  0  0  0  0
    1.5823   68.4583   68.5662 H   0  0  0  0  0  0  0  0  0  0  0  0
   -0.2614   65.8572   70.6487 H   0  0  0  0  0  0  0  0  0  0  0  0
   -1.2822   65.3458   69.2619 H   0  0  0  0  0  0  0  0  0  0  0  0
    0.4779   64.9871   69.2619 H   0  0  0  0  0  0  0  0  0  0  0  0
  2  1  1  0
  3  2  2  0
  4  3  1  0
  5  4  2  0
  6  5  1  0
  7  2  1  0
  7  6  2  0
  8  5  1  0
  9  8  1  0
 10  9  2  0
 11  9  1  0
 12  1  1  0
 13 12  1  0
 14 13  1  0
 15 13  1  0
 16 15  1  0
 17 16  1  0
 18 17  1  0
 19 17  1  0
  3 20  1  0
  4 21  1  0
  6 22  1  0
  7 23  1  0
  8 24  1  0
  8 25  1  0
 11 26  1  0
 11 27  1  0
 12 28  1  0
 12 29  1  0
 13 30  1  1
 14 31  1  0
 15 32  1  0
 15 33  1  0
 16 34  1  0
 16 35  1  0
 17 36  1  0
 18 37  1  0
 18 38  1  0
 18 39  1  0
 19 40  1  0
 19 41  1  0
 19 42  1  0
M  CHG  1  16   1
M  END
>  <score>  (4) 
-8.023

$$$$
=
     RDKit          3D

 42 42  0  0  0  0  0  0  0  0999 V2000
    2.2670   69.0900   67.7060 O   0  0  0  0  0  0  0  0  0  0  0  0
    2.9630   69.1380   66.5300 C   0  0  0  0  0  0  0  0  0  0  0  0
    4.3070   69.4780   66.3870 C   0  0  0  0  0  0  0  0  0  0  0  0
    4.9000   69.4790   65.1200 C   0  0  0  0  0  0  0  0  0  0  0  0
    4.1600   69.1400   63.9800 C   0  0  0  0  0  0  0  0  0  0  0  0
    2.8110   68.8020   64.1290 C   0  0  0  0  0  0  0  0  0  0  0  0
    2.2200   68.8040   65.3960 C   0  0  0  0  0  0  0  0  0  0  0  0
    4.8180   69.1270   62.6210 C   0  0  0  0  0  0  0  0  0  0  0  0
    4.0600   68.2870   61.6090 C   0  0  0  0  0  0  0  0  0  0  0  0
    4.0110   67.0620   61.6410 O   0  0  0  0  0  0  0  0  0  0  0  0
    3.4200   68.9810   60.6230 N   0  0  0  0  0  0  0  0  0  0  0  0
    0.8400   69.0860   67.6130 C   0  0  0  0  0  0  0  0  0  0  0  0
    0.3600   67.8350   68.3510 C   0  0  1  0  0  0  0  0  0  0  0  0
    0.0680   66.7740   67.4150 O   0  0  0  0  0  0  0  0  0  0  0  0
    1.4200   67.2930   69.3140 C   0  0  0  0  0  0  0  0  0  0  0  0
    1.3500   65.7890   69.2430 N   0  0  0  0  0  4  0  0  0  0  0  0
    1.3880   65.0430   70.5390 C   0  0  0  0  0  0  0  0  0  0  0  0
    2.7380   64.3430   70.6350 C   0  0  0  0  0  0  0  0  0  0  0  0
    0.2400   64.0450   70.5880 C   0  0  0  0  0  0  0  0  0  0  0  0
    4.9026   69.7461   67.2721 H   0  0  0  0  0  0  0  0  0  0  0  0
    5.9613   69.7495   65.0176 H   0  0  0  0  0  0  0  0  0  0  0  0
    2.2127   68.5335   63.2458 H   0  0  0  0  0  0  0  0  0  0  0  0
    1.1574   68.5394   65.5007 H   0  0  0  0  0  0  0  0  0  0  0  0
    4.8749   70.1603   62.2481 H   0  0  0  0  0  0  0  0  0  0  0  0
    5.8164   68.6810   62.7405 H   0  0  0  0  0  0  0  0  0  0  0  0
    2.8857   68.4762   59.9015 H   0  0  0  0  0  0  0  0  0  0  0  0
    3.4714   70.0095   60.6005 H   0  0  0  0  0  0  0  0  0  0  0  0
    0.4258   69.9886   68.0860 H   0  0  0  0  0  0  0  0  0  0  0  0
    0.5098   69.0800   66.5637 H   0  0  0  0  0  0  0  0  0  0  0  0
   -0.5374   68.1371   68.9108 H   0  0  0  0  0  0  0  0  0  0  0  0
   -0.1592   65.9486   67.9122 H   0  0  0  0  0  0  0  0  0  0  0  0
    2.4189   67.6397   69.0107 H   0  0  0  0  0  0  0  0  0  0  0  0
    1.2375   67.6471   70.3393 H   0  0  0  0  0  0  0  0  0  0  0  0
    0.4701   65.5414   68.7682 H   0  0  0  0  0  0  0  0  0  0  0  0
    2.2072   65.5055   68.7472 H   0  0  0  0  0  0  0  0  0  0  0  0
    1.2703   65.7259   71.3933 H   0  0  0  0  0  0  0  0  0  0  0  0
    3.0049   64.2046   71.6931 H   0  0  0  0  0  0  0  0  0  0  0  0
    2.6784   63.3622   70.1406 H   0  0  0  0  0  0  0  0  0  0  0  0
    3.5053   64.9568   70.1406 H   0  0  0  0  0  0  0  0  0  0  0  0
   -0.0114   63.8265   71.6364 H   0  0  0  0  0  0  0  0  0  0  0  0
   -0.6384   64.4714   70.0815 H   0  0  0  0  0  0  0  0  0  0  0  0
    0.5401   63.1158   70.0815 H   0  0  0  0  0  0  0  0  0  0  0  0
  2  1  1  0
  3  2  2  0
  4  3  1  0
  5  4  2  0
  6  5  1  0
  7  2  1  0
  7  6  2  0
  8  5  1  0
  9  8  1  0
 10  9  2  0
 11  9  1  0
 12  1  1  0
 13 12  1  0
 14 13  1  0
 15 13  1  0
 16 15  1  0
 17 16  1  0
 18 17  1  0
 19 17  1  0
  3 20  1  0
  4 21  1  0
  6 22  1  0
  7 23  1  0
  8 24  1  0
  8 25  1  0
 11 26  1  0
 11 27  1  0
 12 28  1  0
 12 29  1  0
 13 30  1  1
 14 31  1  0
 15 32  1  0
 15 33  1  0
 16 34  1  0
 16 35  1  0
 17 36  1  0
 18 37  1  0
 18 38  1  0
 18 39  1  0
 19 40  1  0
 19 41  1  0
 19 42  1  0
M  CHG  1  16   1
M  END
>  <score>  (5) 
-7.454

$$$$
=
     RDKit          3D

 42 42  0  0  0  0  0  0  0  0999 V2000
    2.8450   67.3120   63.3110 O   0  0  0  0  0  0  0  0  0  0  0  0
    1.8900   67.6110   64.2430 C   0  0  0  0  0  0  0  0  0  0  0  0
    1.8070   67.0790   65.5300 C   0  0  0  0  0  0  0  0  0  0  0  0
    0.7790   67.4790   66.3900 C   0  0  0  0  0  0  0  0  0  0  0  0
   -0.1790   68.4150   65.9780 C   0  0  0  0  0  0  0  0  0  0  0  0
   -0.0930   68.9420   64.6850 C   0  0  0  0  0  0  0  0  0  0  0  0
    0.9340   68.5380   63.8270 C   0  0  0  0  0  0  0  0  0  0  0  0
   -1.2720   68.8510   66.9230 C   0  0  0  0  0  0  0  0  0  0  0  0
   -2.4570   67.9000   66.9310 C   0  0  0  0  0  0  0  0  0  0  0  0
   -2.4100   66.7580   67.3760 O   0  0  0  0  0  0  0  0  0  0  0  0
   -3.6130   68.3900   66.3960 N   0  0  0  0  0  0  0  0  0  0  0  0
    4.1180   66.8860   63.8030 C   0  0  0  0  0  0  0  0  0  0  0  0
    5.1710   67.6490   62.9980 C   0  0  1  0  0  0  0  0  0  0  0  0
    4.7700   67.7650   61.6150 O   0  0  0  0  0  0  0  0  0  0  0  0
    5.3700   69.0760   63.5190 C   0  0  0  0  0  0  0  0  0  0  0  0
    5.8580   68.9590   64.9410 N   0  0  0  0  0  4  0  0  0  0  0  0
    5.3980   70.0050   65.9060 C   0  0  0  0  0  0  0  0  0  0  0  0
    6.4510   70.1260   67.0010 C   0  0  0  0  0  0  0  0  0  0  0  0
    4.0440   69.6100   66.4790 C   0  0  0  0  0  0  0  0  0  0  0  0
    2.5514   66.3436   65.8691 H   0  0  0  0  0  0  0  0  0  0  0  0
    0.7218   67.0534   67.4027 H   0  0  0  0  0  0  0  0  0  0  0  0
   -0.8362   69.6769   64.3422 H   0  0  0  0  0  0  0  0  0  0  0  0
    0.9891   68.9562   62.8111 H   0  0  0  0  0  0  0  0  0  0  0  0
   -0.8568   68.9038   67.9403 H   0  0  0  0  0  0  0  0  0  0  0  0
   -1.6357   69.8307   66.5795 H   0  0  0  0  0  0  0  0  0  0  0  0
   -4.4575   67.8011   66.3677 H   0  0  0  0  0  0  0  0  0  0  0  0
   -3.6409   69.3487   66.0206 H   0  0  0  0  0  0  0  0  0  0  0  0
    4.2112   67.1241   64.8729 H   0  0  0  0  0  0  0  0  0  0  0  0
    4.2437   65.7987   63.6934 H   0  0  0  0  0  0  0  0  0  0  0  0
    6.1047   67.0764   63.0995 H   0  0  0  0  0  0  0  0  0  0  0  0
    3.8200   68.0398   61.5688 H   0  0  0  0  0  0  0  0  0  0  0  0
    6.1159   69.6022   62.9052 H   0  0  0  0  0  0  0  0  0  0  0  0
    4.4313   69.6473   63.4706 H   0  0  0  0  0  0  0  0  0  0  0  0
    5.5474   68.0456   65.3017 H   0  0  0  0  0  0  0  0  0  0  0  0
    6.8793   69.0793   64.8836 H   0  0  0  0  0  0  0  0  0  0  0  0
    5.2772   70.9785   65.4082 H   0  0  0  0  0  0  0  0  0  0  0  0
    5.9641   70.0700   67.9858 H   0  0  0  0  0  0  0  0  0  0  0  0
    7.1770   69.3054   66.9038 H   0  0  0  0  0  0  0  0  0  0  0  0
    6.9720   71.0899   66.9038 H   0  0  0  0  0  0  0  0  0  0  0  0
    4.0926   69.6242   67.5778 H   0  0  0  0  0  0  0  0  0  0  0  0
    3.2790   70.3224   66.1366 H   0  0  0  0  0  0  0  0  0  0  0  0
    3.7821   68.5980   66.1366 H   0  0  0  0  0  0  0  0  0  0  0  0
  2  1  1  0
  3  2  2  0
  4  3  1  0
  5  4  2  0
  6  5  1  0
  7  2  1  0
  7  6  2  0
  8  5  1  0
  9  8  1  0
 10  9  2  0
 11  9  1  0
 12  1  1  0
 13 12  1  0
 14 13  1  0
 15 13  1  0
 16 15  1  0
 17 16  1  0
 18 17  1  0
 19 17  1  0
  3 20  1  0
  4 21  1  0
  6 22  1  0
  7 23  1  0
  8 24  1  0
  8 25  1  0
 11 26  1  0
 11 27  1  0
 12 28  1  0
 12 29  1  0
 13 30  1  6
 14 31  1  0
 15 32  1  0
 15 33  1  0
 16 34  1  0
 16 35  1  0
 17 36  1  0
 18 37  1  0
 18 38  1  0
 18 39  1  0
 19 40  1  0
 19 41  1  0
 19 42  1  0
M  CHG  1  16   1
M  END
>  <score>  (6) 
-7.405

$$$$
=
     RDKit          3D

 42 42  0  0  0  0  0  0  0  0999 V2000
    3.6020   67.2730   63.9740 O   0  0  0  0  0  0  0  0  0  0  0  0
    3.8690   68.1320   65.0050 C   0  0  0  0  0  0  0  0  0  0  0  0
    5.0660   68.8160   65.2120 C   0  0  0  0  0  0  0  0  0  0  0  0
    5.2030   69.6740   66.3070 C   0  0  0  0  0  0  0  0  0  0  0  0
    4.1490   69.8630   67.2090 C   0  0  0  0  0  0  0  0  0  0  0  0
    2.9500   69.1720   66.9980 C   0  0  0  0  0  0  0  0  0  0  0  0
    2.8170   68.3120   65.9040 C   0  0  0  0  0  0  0  0  0  0  0  0
    4.3050   70.8080   68.3770 C   0  0  0  0  0  0  0  0  0  0  0  0
    5.6740   71.4620   68.4240 C   0  0  0  0  0  0  0  0  0  0  0  0
    5.9140   72.5740   67.9630 O   0  0  0  0  0  0  0  0  0  0  0  0
    6.6610   70.7300   69.0170 N   0  0  0  0  0  0  0  0  0  0  0  0
    4.2940   67.5040   62.7450 C   0  0  0  0  0  0  0  0  0  0  0  0
    3.8410   68.8760   62.2430 C   0  0  1  0  0  0  0  0  0  0  0  0
    4.8330   69.4480   61.3620 O   0  0  0  0  0  0  0  0  0  0  0  0
    2.5370   68.7940   61.4440 C   0  0  0  0  0  0  0  0  0  0  0  0
    1.5110   68.1510   62.3420 N   0  0  0  0  0  4  0  0  0  0  0  0
    0.1290   68.7200   62.3140 C   0  0  0  0  0  0  0  0  0  0  0  0
    0.1590   69.9790   61.4570 C   0  0  0  0  0  0  0  0  0  0  0  0
   -0.3280   69.0240   63.7330 C   0  0  0  0  0  0  0  0  0  0  0  0
    5.9040   68.6803   64.5125 H   0  0  0  0  0  0  0  0  0  0  0  0
    6.1520   70.2081   66.4622 H   0  0  0  0  0  0  0  0  0  0  0  0
    2.1099   69.3062   67.6952 H   0  0  0  0  0  0  0  0  0  0  0  0
    1.8719   67.7707   65.7500 H   0  0  0  0  0  0  0  0  0  0  0  0
    3.5415   71.5957   68.2965 H   0  0  0  0  0  0  0  0  0  0  0  0
    4.1869   70.2189   69.2984 H   0  0  0  0  0  0  0  0  0  0  0  0
    7.6154   71.1115   69.0844 H   0  0  0  0  0  0  0  0  0  0  0  0
    6.4517   69.7959   69.3973 H   0  0  0  0  0  0  0  0  0  0  0  0
    5.3809   67.5012   62.9145 H   0  0  0  0  0  0  0  0  0  0  0  0
    4.0711   66.7175   62.0090 H   0  0  0  0  0  0  0  0  0  0  0  0
    3.6943   69.4954   63.1401 H   0  0  0  0  0  0  0  0  0  0  0  0
    5.5526   69.8630   61.9005 H   0  0  0  0  0  0  0  0  0  0  0  0
    2.2070   69.8026   61.1546 H   0  0  0  0  0  0  0  0  0  0  0  0
    2.6762   68.2080   60.5236 H   0  0  0  0  0  0  0  0  0  0  0  0
    1.4433   67.1586   62.0749 H   0  0  0  0  0  0  0  0  0  0  0  0
    1.8502   68.3223   63.2993 H   0  0  0  0  0  0  0  0  0  0  0  0
   -0.5855   68.0035   61.8826 H   0  0  0  0  0  0  0  0  0  0  0  0
    0.1801   70.8653   62.1081 H   0  0  0  0  0  0  0  0  0  0  0  0
    1.0572   69.9690   60.8220 H   0  0  0  0  0  0  0  0  0  0  0  0
   -0.7386   70.0118   60.8220 H   0  0  0  0  0  0  0  0  0  0  0  0
    0.3672   68.5615   64.4491 H   0  0  0  0  0  0  0  0  0  0  0  0
   -0.3434   70.1129   63.8879 H   0  0  0  0  0  0  0  0  0  0  0  0
   -1.3383   68.6173   63.8879 H   0  0  0  0  0  0  0  0  0  0  0  0
  2  1  1  0
  3  2  2  0
  4  3  1  0
  5  4  2  0
  6  5  1  0
  7  2  1  0
  7  6  2  0
  8  5  1  0
  9  8  1  0
 10  9  2  0
 11  9  1  0
 12  1  1  0
 13 12  1  0
 14 13  1  0
 15 13  1  0
 16 15  1  0
 17 16  1  0
 18 17  1  0
 19 17  1  0
  3 20  1  0
  4 21  1  0
  6 22  1  0
  7 23  1  0
  8 24  1  0
  8 25  1  0
 11 26  1  0
 11 27  1  0
 12 28  1  0
 12 29  1  0
 13 30  1  1
 14 31  1  0
 15 32  1  0
 15 33  1  0
 16 34  1  0
 16 35  1  0
 17 36  1  0
 18 37  1  0
 18 38  1  0
 18 39  1  0
 19 40  1  0
 19 41  1  0
 19 42  1  0
M  CHG  1  16   1
M  END
>  <score>  (7) 
-7.389

$$$$
=
     RDKit          3D

 42 42  0  0  0  0  0  0  0  0999 V2000
    1.1590   69.7810   68.0710 O   0  0  0  0  0  0  0  0  0  0  0  0
    2.5080   70.0030   68.0960 C   0  0  0  0  0  0  0  0  0  0  0  0
    3.2140   70.6430   69.1140 C   0  0  0  0  0  0  0  0  0  0  0  0
    4.6010   70.7980   69.0160 C   0  0  0  0  0  0  0  0  0  0  0  0
    5.3010   70.3160   67.9020 C   0  0  0  0  0  0  0  0  0  0  0  0
    4.5870   69.6780   66.8820 C   0  0  0  0  0  0  0  0  0  0  0  0
    3.2010   69.5270   66.9820 C   0  0  0  0  0  0  0  0  0  0  0  0
    6.8000   70.4740   67.8190 C   0  0  0  0  0  0  0  0  0  0  0  0
    7.4030   71.0490   69.0880 C   0  0  0  0  0  0  0  0  0  0  0  0
    8.0640   72.0820   69.1210 O   0  0  0  0  0  0  0  0  0  0  0  0
    7.1720   70.3360   70.2290 N   0  0  0  0  0  0  0  0  0  0  0  0
    0.7300   68.4340   67.8570 C   0  0  0  0  0  0  0  0  0  0  0  0
   -0.5220   68.5120   66.9810 C   0  0  1  0  0  0  0  0  0  0  0  0
   -1.2270   69.7510   67.2110 O   0  0  0  0  0  0  0  0  0  0  0  0
   -0.1830   68.4690   65.4880 C   0  0  0  0  0  0  0  0  0  0  0  0
    0.6830   67.2530   65.2690 N   0  0  0  0  0  4  0  0  0  0  0  0
    1.6960   67.3270   64.1720 C   0  0  0  0  0  0  0  0  0  0  0  0
    2.9870   66.7020   64.6860 C   0  0  0  0  0  0  0  0  0  0  0  0
    1.9040   68.7790   63.7660 C   0  0  0  0  0  0  0  0  0  0  0  0
    2.6795   71.0266   69.9956 H   0  0  0  0  0  0  0  0  0  0  0  0
    5.1491   71.3048   69.8239 H   0  0  0  0  0  0  0  0  0  0  0  0
    5.1180   69.2940   65.9985 H   0  0  0  0  0  0  0  0  0  0  0  0
    2.6495   69.0266   66.1724 H   0  0  0  0  0  0  0  0  0  0  0  0
    7.2476   69.4864   67.6336 H   0  0  0  0  0  0  0  0  0  0  0  0
    7.0136   71.1792   67.0023 H   0  0  0  0  0  0  0  0  0  0  0  0
    7.5507   70.6662   71.1282 H   0  0  0  0  0  0  0  0  0  0  0  0
    6.6190   69.4679   70.1907 H   0  0  0  0  0  0  0  0  0  0  0  0
    1.5172   67.8611   67.3450 H   0  0  0  0  0  0  0  0  0  0  0  0
    0.5182   67.9273   68.8101 H   0  0  0  0  0  0  0  0  0  0  0  0
   -1.1379   67.6419   67.2524 H   0  0  0  0  0  0  0  0  0  0  0  0
   -1.3146   69.9049   68.1850 H   0  0  0  0  0  0  0  0  0  0  0  0
   -1.1048   68.3888   64.8931 H   0  0  0  0  0  0  0  0  0  0  0  0
    0.3398   69.3854   65.1768 H   0  0  0  0  0  0  0  0  0  0  0  0
    1.1894   67.0705   66.1472 H   0  0  0  0  0  0  0  0  0  0  0  0
    0.0309   66.5100   64.9798 H   0  0  0  0  0  0  0  0  0  0  0  0
    1.3565   66.7792   63.2806 H   0  0  0  0  0  0  0  0  0  0  0  0
    2.9828   66.7040   65.7860 H   0  0  0  0  0  0  0  0  0  0  0  0
    3.0638   65.6670   64.3215 H   0  0  0  0  0  0  0  0  0  0  0  0
    3.8465   67.2838   64.3215 H   0  0  0  0  0  0  0  0  0  0  0  0
    1.9933   69.4027   64.6677 H   0  0  0  0  0  0  0  0  0  0  0  0
    2.8236   68.8645   63.1684 H   0  0  0  0  0  0  0  0  0  0  0  0
    1.0454   69.1192   63.1684 H   0  0  0  0  0  0  0  0  0  0  0  0
  2  1  1  0
  3  2  2  0
  4  3  1  0
  5  4  2  0
  6  5  1  0
  7  2  1  0
  7  6  2  0
  8  5  1  0
  9  8  1  0
 10  9  2  0
 11  9  1  0
 12  1  1  0
 13 12  1  0
 14 13  1  0
 15 13  1  0
 16 15  1  0
 17 16  1  0
 18 17  1  0
 19 17  1  0
  3 20  1  0
  4 21  1  0
  6 22  1  0
  7 23  1  0
  8 24  1  0
  8 25  1  0
 11 26  1  0
 11 27  1  0
 12 28  1  0
 12 29  1  0
 13 30  1  1
 14 31  1  0
 15 32  1  0
 15 33  1  0
 16 34  1  0
 16 35  1  0
 17 36  1  0
 18 37  1  0
 18 38  1  0
 18 39  1  0
 19 40  1  0
 19 41  1  0
 19 42  1  0
M  CHG  1  16   1
M  END
>  <score>  (8) 
-7.346

$$$$
=
     RDKit          3D

 42 42  0  0  0  0  0  0  0  0999 V2000
    0.7530   68.7610   67.3320 O   0  0  0  0  0  0  0  0  0  0  0  0
    1.7880   68.8870   66.4470 C   0  0  0  0  0  0  0  0  0  0  0  0
    1.7320   68.6250   65.0790 C   0  0  0  0  0  0  0  0  0  0  0  0
    2.8680   68.8040   64.2830 C   0  0  0  0  0  0  0  0  0  0  0  0
    4.0750   69.2460   64.8420 C   0  0  0  0  0  0  0  0  0  0  0  0
    4.1260   69.5040   66.2160 C   0  0  0  0  0  0  0  0  0  0  0  0
    2.9890   69.3220   67.0090 C   0  0  0  0  0  0  0  0  0  0  0  0
    5.2880   69.4530   63.9670 C   0  0  0  0  0  0  0  0  0  0  0  0
    5.2370   68.6350   62.6890 C   0  0  0  0  0  0  0  0  0  0  0  0
    5.4510   67.4280   62.6430 O   0  0  0  0  0  0  0  0  0  0  0  0
    4.9380   69.3300   61.5530 N   0  0  0  0  0  0  0  0  0  0  0  0
   -0.5650   68.9730   66.8200 C   0  0  0  0  0  0  0  0  0  0  0  0
   -1.3000   67.6380   66.9470 C   0  0  1  0  0  0  0  0  0  0  0  0
   -0.5650   66.5870   66.2810 O   0  0  0  0  0  0  0  0  0  0  0  0
   -1.4600   67.2060   68.4070 C   0  0  0  0  0  0  0  0  0  0  0  0
   -0.4120   66.1540   68.6710 N   0  0  0  0  0  4  0  0  0  0  0  0
    0.2080   66.1360   70.0310 C   0  0  0  0  0  0  0  0  0  0  0  0
    1.5810   66.7870   69.9270 C   0  0  0  0  0  0  0  0  0  0  0  0
    0.3100   64.7010   70.5280 C   0  0  0  0  0  0  0  0  0  0  0  0
    0.7926   68.2768   64.6247 H   0  0  0  0  0  0  0  0  0  0  0  0
    2.8135   68.5952   63.2044 H   0  0  0  0  0  0  0  0  0  0  0  0
    5.0639   69.8513   66.6740 H   0  0  0  0  0  0  0  0  0  0  0  0
    3.0418   69.5241   68.0890 H   0  0  0  0  0  0  0  0  0  0  0  0
    5.3515   70.5183   63.7003 H   0  0  0  0  0  0  0  0  0  0  0  0
    6.1686   69.1224   64.5374 H   0  0  0  0  0  0  0  0  0  0  0  0
    4.8860   68.8403   60.6483 H   0  0  0  0  0  0  0  0  0  0  0  0
    4.7644   70.3442   61.6004 H   0  0  0  0  0  0  0  0  0  0  0  0
   -1.0804   69.7479   67.4064 H   0  0  0  0  0  0  0  0  0  0  0  0
   -0.5356   69.3131   65.7743 H   0  0  0  0  0  0  0  0  0  0  0  0
   -2.2885   67.7905   66.4892 H   0  0  0  0  0  0  0  0  0  0  0  0
   -0.1506   65.9945   66.9573 H   0  0  0  0  0  0  0  0  0  0  0  0
   -1.3083   68.0668   69.0748 H   0  0  0  0  0  0  0  0  0  0  0  0
   -2.4697   66.8104   68.5917 H   0  0  0  0  0  0  0  0  0  0  0  0
   -0.8500   65.2345   68.5176 H   0  0  0  0  0  0  0  0  0  0  0  0
    0.3608   66.3811   68.0291 H   0  0  0  0  0  0  0  0  0  0  0  0
   -0.4058   66.6940   70.7534 H   0  0  0  0  0  0  0  0  0  0  0  0
    1.9755   66.9741   70.9366 H   0  0  0  0  0  0  0  0  0  0  0  0
    2.2643   66.1170   69.3846 H   0  0  0  0  0  0  0  0  0  0  0  0
    1.4948   67.7401   69.3846 H   0  0  0  0  0  0  0  0  0  0  0  0
    0.3106   64.6931   71.6280 H   0  0  0  0  0  0  0  0  0  0  0  0
   -0.5493   64.1227   70.1576 H   0  0  0  0  0  0  0  0  0  0  0  0
    1.2425   64.2501   70.1576 H   0  0  0  0  0  0  0  0  0  0  0  0
  2  1  1  0
  3  2  2  0
  4  3  1  0
  5  4  2  0
  6  5  1  0
  7  2  1  0
  7  6  2  0
  8  5  1  0
  9  8  1  0
 10  9  2  0
 11  9  1  0
 12  1  1  0
 13 12  1  0
 14 13  1  0
 15 13  1  0
 16 15  1  0
 17 16  1  0
 18 17  1  0
 19 17  1  0
  3 20  1  0
  4 21  1  0
  6 22  1  0
  7 23  1  0
  8 24  1  0
  8 25  1  0
 11 26  1  0
 11 27  1  0
 12 28  1  0
 12 29  1  0
 13 30  1  6
 14 31  1  0
 15 32  1  0
 15 33  1  0
 16 34  1  0
 16 35  1  0
 17 36  1  0
 18 37  1  0
 18 38  1  0
 18 39  1  0
 19 40  1  0
 19 41  1  0
 19 42  1  0
M  CHG  1  16   1
M  END
>  <score>  (9) 
-7.234

$$$$
