=
     RDKit          3D

 97101  0  0  0  0  0  0  0  0999 V2000
    1.2680   63.5470   72.8280 C   0  0  0  0  0  0  0  0  0  0  0  0
    1.0590   62.0500   72.8200 N   0  0  0  0  0  4  0  0  0  0  0  0
    1.8770   61.2440   72.0650 C   0  0  0  0  0  0  0  0  0  0  0  0
    1.8360   59.8340   72.1700 C   0  0  0  0  0  0  0  0  0  0  0  0
    2.6960   58.9930   71.4090 C   0  0  0  0  0  0  0  0  0  0  0  0
    2.6710   57.6020   71.4980 C   0  0  0  0  0  0  0  0  0  0  0  0
    1.8250   57.0310   72.4300 C   0  0  0  0  0  0  0  0  0  0  0  0
    0.9590   57.8290   73.1820 C   0  0  0  0  0  0  0  0  0  0  0  0
    0.9320   59.2430   73.0700 C   0  0  0  0  0  0  0  0  0  0  0  0
    0.0550   60.0810   73.8170 C   0  0  0  0  0  0  0  0  0  0  0  0
    0.1250   61.4910   73.6660 C   0  0  0  0  0  0  0  0  0  0  0  0
   -0.7870   62.2890   74.3980 C   0  0  0  0  0  0  0  0  0  0  0  0
   -1.6900   61.7570   75.3180 C   0  0  0  0  0  0  0  0  0  0  0  0
   -1.7690   60.3860   75.4530 C   0  0  0  0  0  0  0  0  0  0  0  0
   -0.9090   59.5660   74.7220 C   0  0  0  0  0  0  0  0  0  0  0  0
    2.7790   61.9170   71.1120 C   0  0  0  0  0  0  0  0  0  0  0  0
    2.4620   61.9700   69.7420 C   0  0  0  0  0  0  0  0  0  0  0  0
    3.3240   62.5870   68.8340 C   0  0  0  0  0  0  0  0  0  0  0  0
    4.5180   63.1500   69.2790 C   0  0  0  0  0  0  0  0  0  0  0  0
    4.8610   63.0830   70.6280 C   0  0  0  0  0  0  0  0  0  0  0  0
    4.0040   62.4620   71.5380 C   0  0  0  0  0  0  0  0  0  0  0  0
   -2.6220   62.6100   75.9280 N   0  0  0  0  0  0  0  0  0  0  0  0
    3.6310   56.8350   70.8490 N   0  0  0  0  0  0  0  0  0  0  0  0
    0.3850   64.2680   71.7920 C   0  0  0  0  0  0  0  0  0  0  0  0
    1.2380   65.1550   70.8730 C   0  0  0  0  0  0  0  0  0  0  0  0
    0.5820   65.3160   69.5120 N   0  0  0  0  0  4  0  0  0  0  0  0
   -0.3930   66.4740   69.4500 C   0  0  0  0  0  0  0  0  0  0  0  0
   -0.2560   67.2640   68.1290 C   0  0  0  0  0  0  0  0  0  0  0  0
   -1.5720   67.2060   67.3240 C   0  0  0  0  0  0  0  0  0  0  0  0
   -1.5790   68.0370   66.0380 N   0  0  1  0  0  4  0  0  0  0  0  0
   -2.9330   68.6370   65.7150 C   0  0  0  0  0  0  0  0  0  0  0  0
   -0.4090   69.0130   65.8830 C   0  0  0  0  0  0  0  0  0  0  0  0
    0.4320   68.6950   64.6280 C   0  0  0  0  0  0  0  0  0  0  0  0
    1.1770   67.3540   64.7640 C   0  0  0  0  0  0  0  0  0  0  0  0
    2.6160   67.5400   65.1880 N   0  0  1  0  0  4  0  0  0  0  0  0
    3.5730   66.5080   64.6350 C   0  0  0  0  0  0  0  0  0  0  0  0
    3.1440   68.9660   64.9130 C   0  0  0  0  0  0  0  0  0  0  0  0
    3.7980   69.7290   67.2470 C   0  0  0  0  0  0  0  0  0  0  0  0
    4.7550   70.2160   68.1410 C   0  0  0  0  0  0  0  0  0  0  0  0
    6.0450   70.5130   67.7000 C   0  0  0  0  0  0  0  0  0  0  0  0
    6.3890   70.3260   66.3660 C   0  0  0  0  0  0  0  0  0  0  0  0
    5.4470   69.8240   65.4690 C   0  0  0  0  0  0  0  0  0  0  0  0
    4.1460   69.5030   65.9010 C   0  0  0  0  0  0  0  0  0  0  0  0
    1.8530   70.3490   68.4690 C   0  0  0  0  0  0  0  0  0  0  0  0
    2.5070   69.4260   67.5940 O   0  0  0  0  0  0  0  0  0  0  0  0
    1.0247   63.9324   73.8291 H   0  0  0  0  0  0  0  0  0  0  0  0
    2.3187   63.7407   72.5664 H   0  0  0  0  0  0  0  0  0  0  0  0
    3.4131   59.4620   70.7192 H   0  0  0  0  0  0  0  0  0  0  0  0
    1.8335   55.9414   72.5807 H   0  0  0  0  0  0  0  0  0  0  0  0
    0.2711   57.3417   73.8887 H   0  0  0  0  0  0  0  0  0  0  0  0
   -0.7832   63.3767   74.2338 H   0  0  0  0  0  0  0  0  0  0  0  0
   -2.5082   59.9408   76.1352 H   0  0  0  0  0  0  0  0  0  0  0  0
   -0.9811   58.4761   74.8525 H   0  0  0  0  0  0  0  0  0  0  0  0
    1.5246   61.5203   69.3827 H   0  0  0  0  0  0  0  0  0  0  0  0
    3.0605   62.6287   67.7668 H   0  0  0  0  0  0  0  0  0  0  0  0
    5.1906   63.6478   68.5650 H   0  0  0  0  0  0  0  0  0  0  0  0
    5.8085   63.5201   70.9762 H   0  0  0  0  0  0  0  0  0  0  0  0
    4.2892   62.3981   72.5985 H   0  0  0  0  0  0  0  0  0  0  0  0
   -3.2959   62.2332   76.6097 H   0  0  0  0  0  0  0  0  0  0  0  0
   -2.6323   63.6130   75.6941 H   0  0  0  0  0  0  0  0  0  0  0  0
    3.6043   55.8078   70.9207 H   0  0  0  0  0  0  0  0  0  0  0  0
    4.3693   57.2937   70.2963 H   0  0  0  0  0  0  0  0  0  0  0  0
   -0.1417   63.5186   71.1829 H   0  0  0  0  0  0  0  0  0  0  0  0
   -0.3373   64.9036   72.3251 H   0  0  0  0  0  0  0  0  0  0  0  0
    1.3545   66.1460   71.3360 H   0  0  0  0  0  0  0  0  0  0  0  0
    2.2191   64.6770   70.7355 H   0  0  0  0  0  0  0  0  0  0  0  0
    1.3195   65.4716   68.8100 H   0  0  0  0  0  0  0  0  0  0  0  0
    0.0462   64.4558   69.3279 H   0  0  0  0  0  0  0  0  0  0  0  0
   -1.4179   66.0820   69.5267 H   0  0  0  0  0  0  0  0  0  0  0  0
   -0.1696   67.1564   70.2833 H   0  0  0  0  0  0  0  0  0  0  0  0
   -0.0179   68.3132   68.3580 H   0  0  0  0  0  0  0  0  0  0  0  0
    0.5482   66.8145   67.5280 H   0  0  0  0  0  0  0  0  0  0  0  0
   -1.7611   66.1566   67.0536 H   0  0  0  0  0  0  0  0  0  0  0  0
   -2.3494   67.6357   67.9729 H   0  0  0  0  0  0  0  0  0  0  0  0
   -1.4029   67.3447   65.2960 H   0  0  0  0  0  0  0  0  0  0  0  0
   -3.4626   68.8717   66.6501 H   0  0  0  0  0  0  0  0  0  0  0  0
   -2.7956   69.5585   65.1302 H   0  0  0  0  0  0  0  0  0  0  0  0
   -3.5234   67.9162   65.1302 H   0  0  0  0  0  0  0  0  0  0  0  0
   -0.8056   70.0355   65.7976 H   0  0  0  0  0  0  0  0  0  0  0  0
    0.2397   68.9165   66.7661 H   0  0  0  0  0  0  0  0  0  0  0  0
   -0.2357   68.6446   63.7553 H   0  0  0  0  0  0  0  0  0  0  0  0
    1.1808   69.4916   64.5071 H   0  0  0  0  0  0  0  0  0  0  0  0
    0.6629   66.7380   65.5165 H   0  0  0  0  0  0  0  0  0  0  0  0
    1.1761   66.8660   63.7782 H   0  0  0  0  0  0  0  0  0  0  0  0
    2.5880   67.3949   66.2073 H   0  0  0  0  0  0  0  0  0  0  0  0
    4.0629   65.9797   65.4662 H   0  0  0  0  0  0  0  0  0  0  0  0
    3.0175   65.7861   64.0183 H   0  0  0  0  0  0  0  0  0  0  0  0
    4.3347   67.0075   64.0183 H   0  0  0  0  0  0  0  0  0  0  0  0
    3.6186   68.9632   63.9207 H   0  0  0  0  0  0  0  0  0  0  0  0
    2.2677   69.6262   64.9921 H   0  0  0  0  0  0  0  0  0  0  0  0
    4.4900   70.3660   69.1980 H   0  0  0  0  0  0  0  0  0  0  0  0
    6.7924   70.8964   68.4102 H   0  0  0  0  0  0  0  0  0  0  0  0
    7.4029   70.5737   66.0187 H   0  0  0  0  0  0  0  0  0  0  0  0
    5.7228   69.6774   64.4143 H   0  0  0  0  0  0  0  0  0  0  0  0
    2.0522   70.0679   69.5137 H   0  0  0  0  0  0  0  0  0  0  0  0
    2.2347   71.3638   68.2832 H   0  0  0  0  0  0  0  0  0  0  0  0
    0.7691   70.3253   68.2832 H   0  0  0  0  0  0  0  0  0  0  0  0
  2  1  1  0
  3  2  2  0
  4  3  1  0
  5  4  2  0
  6  5  1  0
  7  6  2  0
  8  7  1  0
  9  8  2  0
  9  4  1  0
 10  9  1  0
 11 10  2  0
 11  2  1  0
 12 11  1  0
 13 12  2  0
 14 13  1  0
 15 14  2  0
 15 10  1  0
 16  3  1  0
 17 16  2  0
 18 17  1  0
 19 18  2  0
 20 19  1  0
 21 20  2  0
 21 16  1  0
 22 13  1  0
 23  6  1  0
 24  1  1  0
 25 24  1  0
 26 25  1  0
 27 26  1  0
 28 27  1  0
 29 28  1  0
 30 29  1  0
 31 30  1  0
 32 30  1  0
 33 32  1  0
 34 33  1  0
 35 34  1  0
 36 35  1  0
 37 35  1  0
 39 38  2  0
 40 39  1  0
 41 40  2  0
 42 41  1  0
 43 37  1  0
 43 42  2  0
 43 38  1  0
 45 44  1  0
 45 38  1  0
  1 46  1  0
  1 47  1  0
  5 48  1  0
  7 49  1  0
  8 50  1  0
 12 51  1  0
 14 52  1  0
 15 53  1  0
 17 54  1  0
 18 55  1  0
 19 56  1  0
 20 57  1  0
 21 58  1  0
 22 59  1  0
 22 60  1  0
 23 61  1  0
 23 62  1  0
 24 63  1  0
 24 64  1  0
 25 65  1  0
 25 66  1  0
 26 67  1  0
 26 68  1  0
 27 69  1  0
 27 70  1  0
 28 71  1  0
 28 72  1  0
 29 73  1  0
 29 74  1  0
 30 75  1  6
 31 76  1  0
 31 77  1  0
 31 78  1  0
 32 79  1  0
 32 80  1  0
 33 81  1  0
 33 82  1  0
 34 83  1  0
 34 84  1  0
 35 85  1  1
 36 86  1  0
 36 87  1  0
 36 88  1  0
 37 89  1  0
 37 90  1  0
 39 91  1  0
 40 92  1  0
 41 93  1  0
 42 94  1  0
 44 95  1  0
 44 96  1  0
 44 97  1  0
M  CHG  4   2   1  26   1  30   1  35   1
M  END
>  <score>  (1) 
-10.346

$$$$
=
     RDKit          3D

 97101  0  0  0  0  0  0  0  0999 V2000
    2.1860   69.6910   68.5650 C   0  0  0  0  0  0  0  0  0  0  0  0
    3.0030   69.4900   67.3100 N   0  0  0  0  0  4  0  0  0  0  0  0
    2.3900   69.0930   66.1450 C   0  0  0  0  0  0  0  0  0  0  0  0
    3.0810   69.0710   64.9110 C   0  0  0  0  0  0  0  0  0  0  0  0
    2.4480   68.6840   63.6960 C   0  0  0  0  0  0  0  0  0  0  0  0
    3.1090   68.6560   62.4700 C   0  0  0  0  0  0  0  0  0  0  0  0
    4.4170   69.1040   62.4330 C   0  0  0  0  0  0  0  0  0  0  0  0
    5.0710   69.4780   63.6100 C   0  0  0  0  0  0  0  0  0  0  0  0
    4.4290   69.4650   64.8760 C   0  0  0  0  0  0  0  0  0  0  0  0
    5.0720   69.8320   66.0930 C   0  0  0  0  0  0  0  0  0  0  0  0
    4.3410   69.8250   67.3100 C   0  0  0  0  0  0  0  0  0  0  0  0
    5.0230   70.1610   68.5040 C   0  0  0  0  0  0  0  0  0  0  0  0
    6.3540   70.5760   68.5250 C   0  0  0  0  0  0  0  0  0  0  0  0
    7.0700   70.5690   67.3450 C   0  0  0  0  0  0  0  0  0  0  0  0
    6.4390   70.2100   66.1540 C   0  0  0  0  0  0  0  0  0  0  0  0
    0.9860   68.6570   66.2470 C   0  0  0  0  0  0  0  0  0  0  0  0
   -0.0490   69.6020   66.3810 C   0  0  0  0  0  0  0  0  0  0  0  0
   -1.3780   69.1920   66.5000 C   0  0  0  0  0  0  0  0  0  0  0  0
   -1.6910   67.8350   66.4980 C   0  0  0  0  0  0  0  0  0  0  0  0
   -0.6770   66.8850   66.3940 C   0  0  0  0  0  0  0  0  0  0  0  0
    0.6540   67.2910   66.2800 C   0  0  0  0  0  0  0  0  0  0  0  0
    6.9780   70.7980   69.7610 N   0  0  0  0  0  0  0  0  0  0  0  0
    2.4090   68.4170   61.2930 N   0  0  0  0  0  0  0  0  0  0  0  0
    2.2860   68.4930   69.5280 C   0  0  0  0  0  0  0  0  0  0  0  0
    1.1020   67.5360   69.3310 C   0  0  0  0  0  0  0  0  0  0  0  0
    1.4950   66.1080   69.6690 N   0  0  0  0  0  4  0  0  0  0  0  0
    0.4010   65.3380   70.3820 C   0  0  0  0  0  0  0  0  0  0  0  0
    0.9830   64.2450   71.3060 C   0  0  0  0  0  0  0  0  0  0  0  0
    0.0280   63.0350   71.3820 C   0  0  0  0  0  0  0  0  0  0  0  0
   -0.5510   62.7580   72.7720 N   0  0  1  0  0  4  0  0  0  0  0  0
   -1.2420   61.4120   72.8810 C   0  0  0  0  0  0  0  0  0  0  0  0
    0.3780   63.0790   73.9460 C   0  0  0  0  0  0  0  0  0  0  0  0
    1.3700   61.9270   74.2160 C   0  0  0  0  0  0  0  0  0  0  0  0
    2.7790   62.2510   73.6850 C   0  0  0  0  0  0  0  0  0  0  0  0
    3.7380   61.0970   73.8700 N   0  0  1  0  0  4  0  0  0  0  0  0
    3.0760   59.7660   74.1460 C   0  0  0  0  0  0  0  0  0  0  0  0
    4.7480   60.9640   72.7080 C   0  0  0  0  0  0  0  0  0  0  0  0
    3.3910   60.8920   70.5600 C   0  0  0  0  0  0  0  0  0  0  0  0
    3.0060   61.4710   69.3480 C   0  0  0  0  0  0  0  0  0  0  0  0
    3.5620   62.6830   68.9360 C   0  0  0  0  0  0  0  0  0  0  0  0
    4.5060   63.3250   69.7300 C   0  0  0  0  0  0  0  0  0  0  0  0
    4.8850   62.7650   70.9500 C   0  0  0  0  0  0  0  0  0  0  0  0
    4.3210   61.5520   71.3880 C   0  0  0  0  0  0  0  0  0  0  0  0
    3.4280   58.5180   70.4200 C   0  0  0  0  0  0  0  0  0  0  0  0
    2.9050   59.7010   71.0320 O   0  0  0  0  0  0  0  0  0  0  0  0
    2.5486   70.5915   69.0823 H   0  0  0  0  0  0  0  0  0  0  0  0
    1.1323   69.7948   68.2666 H   0  0  0  0  0  0  0  0  0  0  0  0
    1.3875   68.3935   63.7267 H   0  0  0  0  0  0  0  0  0  0  0  0
    4.9461   69.1663   61.4706 H   0  0  0  0  0  0  0  0  0  0  0  0
    6.1230   69.7944   63.5533 H   0  0  0  0  0  0  0  0  0  0  0  0
    4.4789   70.0916   69.4575 H   0  0  0  0  0  0  0  0  0  0  0  0
    8.1347   70.8456   67.3439 H   0  0  0  0  0  0  0  0  0  0  0  0
    7.0251   70.2202   65.2232 H   0  0  0  0  0  0  0  0  0  0  0  0
    0.1923   70.6752   66.3920 H   0  0  0  0  0  0  0  0  0  0  0  0
   -2.1781   69.9408   66.5954 H   0  0  0  0  0  0  0  0  0  0  0  0
   -2.7397   67.5128   66.5786 H   0  0  0  0  0  0  0  0  0  0  0  0
   -0.9255   65.8135   66.4017 H   0  0  0  0  0  0  0  0  0  0  0  0
    1.4505   66.5351   66.2154 H   0  0  0  0  0  0  0  0  0  0  0  0
    7.9607   71.1048   69.7941 H   0  0  0  0  0  0  0  0  0  0  0  0
    6.4537   70.6543   70.6358 H   0  0  0  0  0  0  0  0  0  0  0  0
    2.9077   68.3985   60.3919 H   0  0  0  0  0  0  0  0  0  0  0  0
    1.3917   68.2585   61.3220 H   0  0  0  0  0  0  0  0  0  0  0  0
    3.2237   67.9515   69.3341 H   0  0  0  0  0  0  0  0  0  0  0  0
    2.2680   68.8687   70.5617 H   0  0  0  0  0  0  0  0  0  0  0  0
    0.2753   67.8465   69.9869 H   0  0  0  0  0  0  0  0  0  0  0  0
    0.7919   67.5742   68.2763 H   0  0  0  0  0  0  0  0  0  0  0  0
    1.7238   65.6159   68.7936 H   0  0  0  0  0  0  0  0  0  0  0  0
    2.3007   66.1565   70.3088 H   0  0  0  0  0  0  0  0  0  0  0  0
   -0.1918   66.0390   70.9880 H   0  0  0  0  0  0  0  0  0  0  0  0
   -0.2254   64.8478   69.6221 H   0  0  0  0  0  0  0  0  0  0  0  0
    1.9542   63.9149   70.9088 H   0  0  0  0  0  0  0  0  0  0  0  0
    1.1079   64.6630   72.3158 H   0  0  0  0  0  0  0  0  0  0  0  0
   -0.8098   63.2169   70.6928 H   0  0  0  0  0  0  0  0  0  0  0  0
    0.6269   62.1517   71.1153 H   0  0  0  0  0  0  0  0  0  0  0  0
   -1.2987   63.4596   72.8698 H   0  0  0  0  0  0  0  0  0  0  0  0
   -1.3750   61.1529   73.9418 H   0  0  0  0  0  0  0  0  0  0  0  0
   -2.2250   61.4637   72.3901 H   0  0  0  0  0  0  0  0  0  0  0  0
   -0.6270   60.6433   72.3901 H   0  0  0  0  0  0  0  0  0  0  0  0
    0.9457   63.9919   73.7130 H   0  0  0  0  0  0  0  0  0  0  0  0
   -0.2395   63.2198   74.8454 H   0  0  0  0  0  0  0  0  0  0  0  0
    1.4290   61.7545   75.3008 H   0  0  0  0  0  0  0  0  0  0  0  0
    1.0047   61.0308   73.6931 H   0  0  0  0  0  0  0  0  0  0  0  0
    2.7084   62.4845   72.6124 H   0  0  0  0  0  0  0  0  0  0  0  0
    3.1667   63.1073   74.2563 H   0  0  0  0  0  0  0  0  0  0  0  0
    4.2552   61.3479   74.7247 H   0  0  0  0  0  0  0  0  0  0  0  0
    2.9998   59.6127   75.2326 H   0  0  0  0  0  0  0  0  0  0  0  0
    2.0691   59.7584   73.7031 H   0  0  0  0  0  0  0  0  0  0  0  0
    3.6775   58.9585   73.7031 H   0  0  0  0  0  0  0  0  0  0  0  0
    5.6791   61.4639   73.0131 H   0  0  0  0  0  0  0  0  0  0  0  0
    4.8531   59.8836   72.5300 H   0  0  0  0  0  0  0  0  0  0  0  0
    2.2601   60.9685   68.7147 H   0  0  0  0  0  0  0  0  0  0  0  0
    3.2526   63.1317   67.9805 H   0  0  0  0  0  0  0  0  0  0  0  0
    4.9532   64.2730   69.3965 H   0  0  0  0  0  0  0  0  0  0  0  0
    5.6316   63.2761   71.5756 H   0  0  0  0  0  0  0  0  0  0  0  0
    3.7414   57.8092   71.2006 H   0  0  0  0  0  0  0  0  0  0  0  0
    2.6509   58.0545   69.7945 H   0  0  0  0  0  0  0  0  0  0  0  0
    4.2938   58.7809   69.7945 H   0  0  0  0  0  0  0  0  0  0  0  0
  2  1  1  0
  3  2  2  0
  4  3  1  0
  5  4  2  0
  6  5  1  0
  7  6  2  0
  8  7  1  0
  9  8  2  0
  9  4  1  0
 10  9  1  0
 11 10  2  0
 11  2  1  0
 12 11  1  0
 13 12  2  0
 14 13  1  0
 15 14  2  0
 15 10  1  0
 16  3  1  0
 17 16  2  0
 18 17  1  0
 19 18  2  0
 20 19  1  0
 21 20  2  0
 21 16  1  0
 22 13  1  0
 23  6  1  0
 24  1  1  0
 25 24  1  0
 26 25  1  0
 27 26  1  0
 28 27  1  0
 29 28  1  0
 30 29  1  0
 31 30  1  0
 32 30  1  0
 33 32  1  0
 34 33  1  0
 35 34  1  0
 36 35  1  0
 37 35  1  0
 39 38  2  0
 40 39  1  0
 41 40  2  0
 42 41  1  0
 43 37  1  0
 43 42  2  0
 43 38  1  0
 45 44  1  0
 45 38  1  0
  1 46  1  0
  1 47  1  0
  5 48  1  0
  7 49  1  0
  8 50  1  0
 12 51  1  0
 14 52  1  0
 15 53  1  0
 17 54  1  0
 18 55  1  0
 19 56  1  0
 20 57  1  0
 21 58  1  0
 22 59  1  0
 22 60  1  0
 23 61  1  0
 23 62  1  0
 24 63  1  0
 24 64  1  0
 25 65  1  0
 25 66  1  0
 26 67  1  0
 26 68  1  0
 27 69  1  0
 27 70  1  0
 28 71  1  0
 28 72  1  0
 29 73  1  0
 29 74  1  0
 30 75  1  1
 31 76  1  0
 31 77  1  0
 31 78  1  0
 32 79  1  0
 32 80  1  0
 33 81  1  0
 33 82  1  0
 34 83  1  0
 34 84  1  0
 35 85  1  1
 36 86  1  0
 36 87  1  0
 36 88  1  0
 37 89  1  0
 37 90  1  0
 39 91  1  0
 40 92  1  0
 41 93  1  0
 42 94  1  0
 44 95  1  0
 44 96  1  0
 44 97  1  0
M  CHG  4   2   1  26   1  30   1  35   1
M  END
>  <score>  (2) 
-9.744

$$$$
=
     RDKit          3D

 97101  0  0  0  0  0  0  0  0999 V2000
    1.9220   69.3990   68.3360 C   0  0  0  0  0  0  0  0  0  0  0  0
    2.0030   69.3370   66.8270 N   0  0  0  0  0  4  0  0  0  0  0  0
    3.2210   69.4320   66.1990 C   0  0  0  0  0  0  0  0  0  0  0  0
    3.3640   69.1960   64.8110 C   0  0  0  0  0  0  0  0  0  0  0  0
    4.6260   69.2690   64.1560 C   0  0  0  0  0  0  0  0  0  0  0  0
    4.7880   69.0400   62.7910 C   0  0  0  0  0  0  0  0  0  0  0  0
    3.6770   68.6460   62.0690 C   0  0  0  0  0  0  0  0  0  0  0  0
    2.4220   68.5780   62.6790 C   0  0  0  0  0  0  0  0  0  0  0  0
    2.2280   68.8570   64.0570 C   0  0  0  0  0  0  0  0  0  0  0  0
    0.9600   68.8040   64.7040 C   0  0  0  0  0  0  0  0  0  0  0  0
    0.8660   69.0630   66.0970 C   0  0  0  0  0  0  0  0  0  0  0  0
   -0.4160   69.0370   66.6990 C   0  0  0  0  0  0  0  0  0  0  0  0
   -1.5720   68.6890   66.0020 C   0  0  0  0  0  0  0  0  0  0  0  0
   -1.4840   68.4520   64.6450 C   0  0  0  0  0  0  0  0  0  0  0  0
   -0.2420   68.5030   64.0120 C   0  0  0  0  0  0  0  0  0  0  0  0
    4.3720   69.8250   67.0330 C   0  0  0  0  0  0  0  0  0  0  0  0
    4.1720   70.3690   68.3150 C   0  0  0  0  0  0  0  0  0  0  0  0
    5.2580   70.7640   69.0990 C   0  0  0  0  0  0  0  0  0  0  0  0
    6.5560   70.6300   68.6100 C   0  0  0  0  0  0  0  0  0  0  0  0
    6.7710   70.1180   67.3320 C   0  0  0  0  0  0  0  0  0  0  0  0
    5.6860   69.7280   66.5430 C   0  0  0  0  0  0  0  0  0  0  0  0
   -2.8120   68.7810   66.6520 N   0  0  0  0  0  0  0  0  0  0  0  0
    6.0570   68.9750   62.2310 N   0  0  0  0  0  0  0  0  0  0  0  0
    2.1290   68.0210   68.9900 C   0  0  0  0  0  0  0  0  0  0  0  0
    0.8170   67.2230   69.0070 C   0  0  0  0  0  0  0  0  0  0  0  0
    0.6620   66.4590   70.3110 N   0  0  0  0  0  4  0  0  0  0  0  0
    0.3640   64.9870   70.1110 C   0  0  0  0  0  0  0  0  0  0  0  0
    0.9620   64.1260   71.2450 C   0  0  0  0  0  0  0  0  0  0  0  0
    0.2570   64.4280   72.5850 C   0  0  0  0  0  0  0  0  0  0  0  0
   -0.3200   63.2040   73.3010 N   0  0  1  0  0  4  0  0  0  0  0  0
   -0.7010   62.0790   72.3590 C   0  0  0  0  0  0  0  0  0  0  0  0
    0.4520   62.7450   74.5410 C   0  0  0  0  0  0  0  0  0  0  0  0
    1.3600   61.5360   74.2280 C   0  0  0  0  0  0  0  0  0  0  0  0
    2.7280   61.9770   73.6750 C   0  0  0  0  0  0  0  0  0  0  0  0
    3.8050   60.9450   73.9230 N   0  0  1  0  0  4  0  0  0  0  0  0
    3.2910   59.5880   74.3460 C   0  0  0  0  0  0  0  0  0  0  0  0
    4.7850   60.8030   72.7360 C   0  0  0  0  0  0  0  0  0  0  0  0
    3.3820   60.8170   70.6170 C   0  0  0  0  0  0  0  0  0  0  0  0
    2.9900   61.4330   69.4250 C   0  0  0  0  0  0  0  0  0  0  0  0
    3.5750   62.6350   69.0260 C   0  0  0  0  0  0  0  0  0  0  0  0
    4.5540   63.2310   69.8130 C   0  0  0  0  0  0  0  0  0  0  0  0
    4.9410   62.6350   71.0130 C   0  0  0  0  0  0  0  0  0  0  0  0
    4.3490   61.4310   71.4380 C   0  0  0  0  0  0  0  0  0  0  0  0
    3.4640   58.4410   70.5490 C   0  0  0  0  0  0  0  0  0  0  0  0
    2.8700   59.6310   71.0740 O   0  0  0  0  0  0  0  0  0  0  0  0
    2.6989   70.0853   68.7039 H   0  0  0  0  0  0  0  0  0  0  0  0
    0.9149   69.7507   68.6044 H   0  0  0  0  0  0  0  0  0  0  0  0
    5.5143   69.5177   64.7552 H   0  0  0  0  0  0  0  0  0  0  0  0
    3.7819   68.3840   61.0058 H   0  0  0  0  0  0  0  0  0  0  0  0
    1.5512   68.2976   62.0682 H   0  0  0  0  0  0  0  0  0  0  0  0
   -0.5031   69.3030   67.7628 H   0  0  0  0  0  0  0  0  0  0  0  0
   -2.3902   68.2237   64.0647 H   0  0  0  0  0  0  0  0  0  0  0  0
   -0.1922   68.3016   62.9317 H   0  0  0  0  0  0  0  0  0  0  0  0
    3.1495   70.4844   68.7038 H   0  0  0  0  0  0  0  0  0  0  0  0
    5.0888   71.1810   70.1027 H   0  0  0  0  0  0  0  0  0  0  0  0
    7.4116   70.9287   69.2334 H   0  0  0  0  0  0  0  0  0  0  0  0
    7.7957   70.0208   66.9441 H   0  0  0  0  0  0  0  0  0  0  0  0
    5.8617   69.3412   65.5283 H   0  0  0  0  0  0  0  0  0  0  0  0
   -3.6759   68.5277   66.1515 H   0  0  0  0  0  0  0  0  0  0  0  0
   -2.8584   69.1018   67.6297 H   0  0  0  0  0  0  0  0  0  0  0  0
    6.1661   68.8053   61.2210 H   0  0  0  0  0  0  0  0  0  0  0  0
    6.8892   69.0965   62.8257 H   0  0  0  0  0  0  0  0  0  0  0  0
    2.8845   67.4608   68.4195 H   0  0  0  0  0  0  0  0  0  0  0  0
    2.4648   68.1696   70.0269 H   0  0  0  0  0  0  0  0  0  0  0  0
   -0.0283   67.9179   68.8944 H   0  0  0  0  0  0  0  0  0  0  0  0
    0.8350   66.5009   68.1774 H   0  0  0  0  0  0  0  0  0  0  0  0
    1.5375   66.5455   70.8467 H   0  0  0  0  0  0  0  0  0  0  0  0
   -0.1406   66.8677   70.8107 H   0  0  0  0  0  0  0  0  0  0  0  0
   -0.7264   64.8432   70.0908 H   0  0  0  0  0  0  0  0  0  0  0  0
    0.8201   64.6698   69.1616 H   0  0  0  0  0  0  0  0  0  0  0  0
    0.8306   63.0620   70.9989 H   0  0  0  0  0  0  0  0  0  0  0  0
    2.0313   64.3637   71.3450 H   0  0  0  0  0  0  0  0  0  0  0  0
    0.9878   64.9031   73.2559 H   0  0  0  0  0  0  0  0  0  0  0  0
   -0.5988   65.0757   72.3438 H   0  0  0  0  0  0  0  0  0  0  0  0
   -1.2082   63.5458   73.6948 H   0  0  0  0  0  0  0  0  0  0  0  0
   -0.9999   61.1965   72.9437 H   0  0  0  0  0  0  0  0  0  0  0  0
   -1.5405   62.4002   71.7249 H   0  0  0  0  0  0  0  0  0  0  0  0
    0.1609   61.8240   71.7249 H   0  0  0  0  0  0  0  0  0  0  0  0
    1.0756   63.5763   74.9016 H   0  0  0  0  0  0  0  0  0  0  0  0
   -0.2761   62.4401   75.3071 H   0  0  0  0  0  0  0  0  0  0  0  0
    1.5181   60.9606   75.1521 H   0  0  0  0  0  0  0  0  0  0  0  0
    0.8624   60.9237   73.4616 H   0  0  0  0  0  0  0  0  0  0  0  0
    2.6360   62.1393   72.5909 H   0  0  0  0  0  0  0  0  0  0  0  0
    3.0201   62.9011   74.1953 H   0  0  0  0  0  0  0  0  0  0  0  0
    4.3221   61.3246   74.7289 H   0  0  0  0  0  0  0  0  0  0  0  0
    3.2691   59.5302   75.4443 H   0  0  0  0  0  0  0  0  0  0  0  0
    2.2750   59.4412   73.9508 H   0  0  0  0  0  0  0  0  0  0  0  0
    3.9548   58.8050   73.9508 H   0  0  0  0  0  0  0  0  0  0  0  0
    5.7384   61.2663   73.0300 H   0  0  0  0  0  0  0  0  0  0  0  0
    4.8508   59.7236   72.5346 H   0  0  0  0  0  0  0  0  0  0  0  0
    2.2156   60.9672   68.7978 H   0  0  0  0  0  0  0  0  0  0  0  0
    3.2608   63.1125   68.0862 H   0  0  0  0  0  0  0  0  0  0  0  0
    5.0230   64.1719   69.4894 H   0  0  0  0  0  0  0  0  0  0  0  0
    5.7157   63.1101   71.6327 H   0  0  0  0  0  0  0  0  0  0  0  0
    3.7864   57.7952   71.3790 H   0  0  0  0  0  0  0  0  0  0  0  0
    2.7277   57.9051   69.9320 H   0  0  0  0  0  0  0  0  0  0  0  0
    4.3349   58.7073   69.9320 H   0  0  0  0  0  0  0  0  0  0  0  0
  2  1  1  0
  3  2  2  0
  4  3  1  0
  5  4  2  0
  6  5  1  0
  7  6  2  0
  8  7  1  0
  9  8  2  0
  9  4  1  0
 10  9  1  0
 11 10  2  0
 11  2  1  0
 12 11  1  0
 13 12  2  0
 14 13  1  0
 15 14  2  0
 15 10  1  0
 16  3  1  0
 17 16  2  0
 18 17  1  0
 19 18  2  0
 20 19  1  0
 21 20  2  0
 21 16  1  0
 22 13  1  0
 23  6  1  0
 24  1  1  0
 25 24  1  0
 26 25  1  0
 27 26  1  0
 28 27  1  0
 29 28  1  0
 30 29  1  0
 31 30  1  0
 32 30  1  0
 33 32  1  0
 34 33  1  0
 35 34  1  0
 36 35  1  0
 37 35  1  0
 39 38  2  0
 40 39  1  0
 41 40  2  0
 42 41  1  0
 43 37  1  0
 43 42  2  0
 43 38  1  0
 45 44  1  0
 45 38  1  0
  1 46  1  0
  1 47  1  0
  5 48  1  0
  7 49  1  0
  8 50  1  0
 12 51  1  0
 14 52  1  0
 15 53  1  0
 17 54  1  0
 18 55  1  0
 19 56  1  0
 20 57  1  0
 21 58  1  0
 22 59  1  0
 22 60  1  0
 23 61  1  0
 23 62  1  0
 24 63  1  0
 24 64  1  0
 25 65  1  0
 25 66  1  0
 26 67  1  0
 26 68  1  0
 27 69  1  0
 27 70  1  0
 28 71  1  0
 28 72  1  0
 29 73  1  0
 29 74  1  0
 30 75  1  1
 31 76  1  0
 31 77  1  0
 31 78  1  0
 32 79  1  0
 32 80  1  0
 33 81  1  0
 33 82  1  0
 34 83  1  0
 34 84  1  0
 35 85  1  1
 36 86  1  0
 36 87  1  0
 36 88  1  0
 37 89  1  0
 37 90  1  0
 39 91  1  0
 40 92  1  0
 41 93  1  0
 42 94  1  0
 44 95  1  0
 44 96  1  0
 44 97  1  0
M  CHG  4   2   1  26   1  30   1  35   1
M  END
>  <score>  (3) 
-9.516

$$$$
=
     RDKit          3D

 97101  0  0  0  0  0  0  0  0999 V2000
    2.1540   69.4750   68.4310 C   0  0  0  0  0  0  0  0  0  0  0  0
    2.2010   69.3860   66.9230 N   0  0  0  0  0  4  0  0  0  0  0  0
    3.4050   69.4730   66.2660 C   0  0  0  0  0  0  0  0  0  0  0  0
    3.5180   69.2130   64.8800 C   0  0  0  0  0  0  0  0  0  0  0  0
    4.7640   69.2790   64.1960 C   0  0  0  0  0  0  0  0  0  0  0  0
    4.8970   69.0260   62.8320 C   0  0  0  0  0  0  0  0  0  0  0  0
    3.7720   68.6140   62.1410 C   0  0  0  0  0  0  0  0  0  0  0  0
    2.5310   68.5540   62.7800 C   0  0  0  0  0  0  0  0  0  0  0  0
    2.3660   68.8570   64.1570 C   0  0  0  0  0  0  0  0  0  0  0  0
    1.1130   68.8110   64.8340 C   0  0  0  0  0  0  0  0  0  0  0  0
    1.0490   69.0950   66.2230 C   0  0  0  0  0  0  0  0  0  0  0  0
   -0.2190   69.0750   66.8540 C   0  0  0  0  0  0  0  0  0  0  0  0
   -1.3890   68.7100   66.1890 C   0  0  0  0  0  0  0  0  0  0  0  0
   -1.3300   68.4490   64.8360 C   0  0  0  0  0  0  0  0  0  0  0  0
   -0.1020   68.4930   64.1740 C   0  0  0  0  0  0  0  0  0  0  0  0
    4.5720   69.8860   67.0670 C   0  0  0  0  0  0  0  0  0  0  0  0
    4.3980   70.4920   68.3250 C   0  0  0  0  0  0  0  0  0  0  0  0
    5.5000   70.9050   69.0760 C   0  0  0  0  0  0  0  0  0  0  0  0
    6.7890   70.7270   68.5780 C   0  0  0  0  0  0  0  0  0  0  0  0
    6.9790   70.1520   67.3230 C   0  0  0  0  0  0  0  0  0  0  0  0
    5.8790   69.7440   66.5660 C   0  0  0  0  0  0  0  0  0  0  0  0
   -2.6140   68.8100   66.8650 N   0  0  0  0  0  0  0  0  0  0  0  0
    6.1540   68.9550   62.2440 N   0  0  0  0  0  0  0  0  0  0  0  0
    2.2500   68.0930   69.1030 C   0  0  0  0  0  0  0  0  0  0  0  0
    0.8530   67.4900   69.3110 C   0  0  0  0  0  0  0  0  0  0  0  0
    0.8910   65.9760   69.1900 N   0  0  0  0  0  4  0  0  0  0  0  0
    0.3800   65.2630   70.4260 C   0  0  0  0  0  0  0  0  0  0  0  0
    1.3080   64.0990   70.8370 C   0  0  0  0  0  0  0  0  0  0  0  0
    2.7640   64.3910   70.4150 C   0  0  0  0  0  0  0  0  0  0  0  0
    3.6030   63.1520   70.0920 N   0  0  1  0  0  4  0  0  0  0  0  0
    3.5520   62.7520   68.6310 C   0  0  0  0  0  0  0  0  0  0  0  0
    5.0110   63.1370   70.6950 C   0  0  0  0  0  0  0  0  0  0  0  0
    5.1690   62.0080   71.7360 C   0  0  0  0  0  0  0  0  0  0  0  0
    5.2030   60.6190   71.0730 C   0  0  0  0  0  0  0  0  0  0  0  0
    3.8550   59.9360   71.1070 N   0  0  1  0  0  4  0  0  0  0  0  0
    3.4930   59.1940   69.8390 C   0  0  0  0  0  0  0  0  0  0  0  0
    3.6780   59.0170   72.3360 C   0  0  0  0  0  0  0  0  0  0  0  0
    1.4100   59.9320   73.0310 C   0  0  0  0  0  0  0  0  0  0  0  0
    0.1010   59.7230   73.4730 C   0  0  0  0  0  0  0  0  0  0  0  0
   -0.3540   58.4320   73.7460 C   0  0  0  0  0  0  0  0  0  0  0  0
    0.4930   57.3420   73.5790 C   0  0  0  0  0  0  0  0  0  0  0  0
    1.7950   57.5370   73.1220 C   0  0  0  0  0  0  0  0  0  0  0  0
    2.2650   58.8310   72.8260 C   0  0  0  0  0  0  0  0  0  0  0  0
    2.0890   62.0540   73.8650 C   0  0  0  0  0  0  0  0  0  0  0  0
    1.9410   61.1650   72.7540 O   0  0  0  0  0  0  0  0  0  0  0  0
    2.9955   70.0944   68.7749 H   0  0  0  0  0  0  0  0  0  0  0  0
    1.1870   69.9181   68.7112 H   0  0  0  0  0  0  0  0  0  0  0  0
    5.6643   69.5420   64.7707 H   0  0  0  0  0  0  0  0  0  0  0  0
    3.8549   68.3316   61.0811 H   0  0  0  0  0  0  0  0  0  0  0  0
    1.6478   68.2607   62.1935 H   0  0  0  0  0  0  0  0  0  0  0  0
   -0.2835   69.3597   67.9145 H   0  0  0  0  0  0  0  0  0  0  0  0
   -2.2479   68.2069   64.2803 H   0  0  0  0  0  0  0  0  0  0  0  0
   -0.0751   68.2721   63.0967 H   0  0  0  0  0  0  0  0  0  0  0  0
    3.3827   70.6419   68.7209 H   0  0  0  0  0  0  0  0  0  0  0  0
    5.3506   71.3711   70.0611 H   0  0  0  0  0  0  0  0  0  0  0  0
    7.6574   71.0406   69.1760 H   0  0  0  0  0  0  0  0  0  0  0  0
    7.9971   70.0193   66.9281 H   0  0  0  0  0  0  0  0  0  0  0  0
    6.0357   69.3075   65.5686 H   0  0  0  0  0  0  0  0  0  0  0  0
   -3.4880   68.5446   66.3890 H   0  0  0  0  0  0  0  0  0  0  0  0
   -2.6395   69.1488   67.8374 H   0  0  0  0  0  0  0  0  0  0  0  0
    6.2407   68.7675   61.2349 H   0  0  0  0  0  0  0  0  0  0  0  0
    6.9991   69.0899   62.8172 H   0  0  0  0  0  0  0  0  0  0  0  0
    2.8413   67.4212   68.4634 H   0  0  0  0  0  0  0  0  0  0  0  0
    2.7331   68.2106   70.0842 H   0  0  0  0  0  0  0  0  0  0  0  0
    0.4891   67.7620   70.3128 H   0  0  0  0  0  0  0  0  0  0  0  0
    0.1805   67.8871   68.5363 H   0  0  0  0  0  0  0  0  0  0  0  0
    0.3085   65.6974   68.3875 H   0  0  0  0  0  0  0  0  0  0  0  0
    1.8769   65.7044   69.0667 H   0  0  0  0  0  0  0  0  0  0  0  0
    0.3227   65.9834   71.2553 H   0  0  0  0  0  0  0  0  0  0  0  0
   -0.6121   64.8468   70.1969 H   0  0  0  0  0  0  0  0  0  0  0  0
    1.2665   63.9716   71.9288 H   0  0  0  0  0  0  0  0  0  0  0  0
    0.9700   63.1810   70.3341 H   0  0  0  0  0  0  0  0  0  0  0  0
    2.7386   65.0293   69.5195 H   0  0  0  0  0  0  0  0  0  0  0  0
    3.2449   64.8720   71.2795 H   0  0  0  0  0  0  0  0  0  0  0  0
    3.1255   62.3941   70.6004 H   0  0  0  0  0  0  0  0  0  0  0  0
    3.4132   61.6635   68.5535 H   0  0  0  0  0  0  0  0  0  0  0  0
    2.7119   63.2647   68.1396 H   0  0  0  0  0  0  0  0  0  0  0  0
    4.4938   63.0375   68.1396 H   0  0  0  0  0  0  0  0  0  0  0  0
    5.7435   62.9847   69.8886 H   0  0  0  0  0  0  0  0  0  0  0  0
    5.1798   64.0990   71.2011 H   0  0  0  0  0  0  0  0  0  0  0  0
    6.1078   62.1619   72.2883 H   0  0  0  0  0  0  0  0  0  0  0  0
    4.3020   62.0428   72.4121 H   0  0  0  0  0  0  0  0  0  0  0  0
    5.5150   60.7346   70.0245 H   0  0  0  0  0  0  0  0  0  0  0  0
    5.9121   59.9940   71.6356 H   0  0  0  0  0  0  0  0  0  0  0  0
    3.1903   60.7187   71.1872 H   0  0  0  0  0  0  0  0  0  0  0  0
    3.0242   58.2331   70.0976 H   0  0  0  0  0  0  0  0  0  0  0  0
    2.7886   59.7986   69.2488 H   0  0  0  0  0  0  0  0  0  0  0  0
    4.4030   59.0109   69.2488 H   0  0  0  0  0  0  0  0  0  0  0  0
    4.0764   58.0256   72.0746 H   0  0  0  0  0  0  0  0  0  0  0  0
    4.2127   59.5158   73.1577 H   0  0  0  0  0  0  0  0  0  0  0  0
   -0.5747   60.5807   73.6066 H   0  0  0  0  0  0  0  0  0  0  0  0
   -1.3857   58.2764   74.0943 H   0  0  0  0  0  0  0  0  0  0  0  0
    0.1358   56.3270   73.8073 H   0  0  0  0  0  0  0  0  0  0  0  0
    2.4618   56.6720   72.9913 H   0  0  0  0  0  0  0  0  0  0  0  0
    1.9947   61.4874   74.8031 H   0  0  0  0  0  0  0  0  0  0  0  0
    3.0790   62.5316   73.8231 H   0  0  0  0  0  0  0  0  0  0  0  0
    1.3071   62.8266   73.8231 H   0  0  0  0  0  0  0  0  0  0  0  0
  2  1  1  0
  3  2  2  0
  4  3  1  0
  5  4  2  0
  6  5  1  0
  7  6  2  0
  8  7  1  0
  9  8  2  0
  9  4  1  0
 10  9  1  0
 11 10  2  0
 11  2  1  0
 12 11  1  0
 13 12  2  0
 14 13  1  0
 15 14  2  0
 15 10  1  0
 16  3  1  0
 17 16  2  0
 18 17  1  0
 19 18  2  0
 20 19  1  0
 21 20  2  0
 21 16  1  0
 22 13  1  0
 23  6  1  0
 24  1  1  0
 25 24  1  0
 26 25  1  0
 27 26  1  0
 28 27  1  0
 29 28  1  0
 30 29  1  0
 31 30  1  0
 32 30  1  0
 33 32  1  0
 34 33  1  0
 35 34  1  0
 36 35  1  0
 37 35  1  0
 39 38  2  0
 40 39  1  0
 41 40  2  0
 42 41  1  0
 43 37  1  0
 43 42  2  0
 43 38  1  0
 45 44  1  0
 45 38  1  0
  1 46  1  0
  1 47  1  0
  5 48  1  0
  7 49  1  0
  8 50  1  0
 12 51  1  0
 14 52  1  0
 15 53  1  0
 17 54  1  0
 18 55  1  0
 19 56  1  0
 20 57  1  0
 21 58  1  0
 22 59  1  0
 22 60  1  0
 23 61  1  0
 23 62  1  0
 24 63  1  0
 24 64  1  0
 25 65  1  0
 25 66  1  0
 26 67  1  0
 26 68  1  0
 27 69  1  0
 27 70  1  0
 28 71  1  0
 28 72  1  0
 29 73  1  0
 29 74  1  0
 30 75  1  1
 31 76  1  0
 31 77  1  0
 31 78  1  0
 32 79  1  0
 32 80  1  0
 33 81  1  0
 33 82  1  0
 34 83  1  0
 34 84  1  0
 35 85  1  1
 36 86  1  0
 36 87  1  0
 36 88  1  0
 37 89  1  0
 37 90  1  0
 39 91  1  0
 40 92  1  0
 41 93  1  0
 42 94  1  0
 44 95  1  0
 44 96  1  0
 44 97  1  0
M  CHG  4   2   1  26   1  30   1  35   1
M  END
>  <score>  (4) 
-9.444

$$$$
=
     RDKit          3D

 97101  0  0  0  0  0  0  0  0999 V2000
    2.1560   69.6810   68.5430 C   0  0  0  0  0  0  0  0  0  0  0  0
    2.9660   69.4820   67.2820 N   0  0  0  0  0  4  0  0  0  0  0  0
    2.3460   69.0880   66.1200 C   0  0  0  0  0  0  0  0  0  0  0  0
    3.0280   69.0670   64.8820 C   0  0  0  0  0  0  0  0  0  0  0  0
    2.3870   68.6820   63.6700 C   0  0  0  0  0  0  0  0  0  0  0  0
    3.0410   68.6560   62.4400 C   0  0  0  0  0  0  0  0  0  0  0  0
    4.3480   69.1040   62.3960 C   0  0  0  0  0  0  0  0  0  0  0  0
    5.0100   69.4750   63.5690 C   0  0  0  0  0  0  0  0  0  0  0  0
    4.3770   69.4600   64.8390 C   0  0  0  0  0  0  0  0  0  0  0  0
    5.0280   69.8250   66.0530 C   0  0  0  0  0  0  0  0  0  0  0  0
    4.3040   69.8160   67.2740 C   0  0  0  0  0  0  0  0  0  0  0  0
    4.9940   70.1500   68.4650 C   0  0  0  0  0  0  0  0  0  0  0  0
    6.3250   70.5650   68.4770 C   0  0  0  0  0  0  0  0  0  0  0  0
    7.0330   70.5590   67.2930 C   0  0  0  0  0  0  0  0  0  0  0  0
    6.3950   70.2020   66.1050 C   0  0  0  0  0  0  0  0  0  0  0  0
    0.9410   68.6520   66.2310 C   0  0  0  0  0  0  0  0  0  0  0  0
   -0.0990   69.5990   66.2860 C   0  0  0  0  0  0  0  0  0  0  0  0
   -1.4280   69.1910   66.4130 C   0  0  0  0  0  0  0  0  0  0  0  0
   -1.7360   67.8350   66.4970 C   0  0  0  0  0  0  0  0  0  0  0  0
   -0.7170   66.8850   66.4710 C   0  0  0  0  0  0  0  0  0  0  0  0
    0.6140   67.2900   66.3500 C   0  0  0  0  0  0  0  0  0  0  0  0
    6.9570   70.7840   69.7100 N   0  0  0  0  0  0  0  0  0  0  0  0
    2.3330   68.4190   61.2680 N   0  0  0  0  0  0  0  0  0  0  0  0
    2.2870   68.4950   69.5160 C   0  0  0  0  0  0  0  0  0  0  0  0
    1.1150   67.5190   69.3440 C   0  0  0  0  0  0  0  0  0  0  0  0
    1.0870   66.4990   70.4710 N   0  0  0  0  0  4  0  0  0  0  0  0
    0.5500   65.1490   70.0430 C   0  0  0  0  0  0  0  0  0  0  0  0
    1.2910   63.9910   70.7470 C   0  0  0  0  0  0  0  0  0  0  0  0
    2.8200   64.1700   70.6210 C   0  0  0  0  0  0  0  0  0  0  0  0
    3.5880   62.9010   70.2410 N   0  0  1  0  0  4  0  0  0  0  0  0
    3.7000   62.6880   68.7440 C   0  0  0  0  0  0  0  0  0  0  0  0
    4.8960   62.6730   71.0040 C   0  0  0  0  0  0  0  0  0  0  0  0
    5.2970   61.1820   71.0070 C   0  0  0  0  0  0  0  0  0  0  0  0
    4.5380   60.3880   72.0860 C   0  0  0  0  0  0  0  0  0  0  0  0
    3.2500   59.7960   71.5620 N   0  0  1  0  0  4  0  0  0  0  0  0
    3.4030   58.9670   70.3060 C   0  0  0  0  0  0  0  0  0  0  0  0
    2.4700   59.0070   72.6370 C   0  0  0  0  0  0  0  0  0  0  0  0
    0.1670   58.7370   73.6760 C   0  0  0  0  0  0  0  0  0  0  0  0
   -1.0920   59.2570   73.9900 C   0  0  0  0  0  0  0  0  0  0  0  0
   -1.4430   60.5460   73.5860 C   0  0  0  0  0  0  0  0  0  0  0  0
   -0.5420   61.3240   72.8680 C   0  0  0  0  0  0  0  0  0  0  0  0
    0.7230   60.8210   72.5650 C   0  0  0  0  0  0  0  0  0  0  0  0
    1.0990   59.5300   72.9790 C   0  0  0  0  0  0  0  0  0  0  0  0
    0.8720   57.2640   75.4060 C   0  0  0  0  0  0  0  0  0  0  0  0
    0.5860   57.4780   74.0210 O   0  0  0  0  0  0  0  0  0  0  0  0
    2.5065   70.5931   69.0481 H   0  0  0  0  0  0  0  0  0  0  0  0
    1.0980   69.7629   68.2534 H   0  0  0  0  0  0  0  0  0  0  0  0
    1.3266   68.3918   63.7066 H   0  0  0  0  0  0  0  0  0  0  0  0
    4.8707   69.1689   61.4303 H   0  0  0  0  0  0  0  0  0  0  0  0
    6.0618   69.7907   63.5057 H   0  0  0  0  0  0  0  0  0  0  0  0
    4.4564   70.0789   69.4221 H   0  0  0  0  0  0  0  0  0  0  0  0
    8.0978   70.8350   67.2858 H   0  0  0  0  0  0  0  0  0  0  0  0
    6.9752   70.2132   65.1705 H   0  0  0  0  0  0  0  0  0  0  0  0
    0.1379   70.6716   66.2283 H   0  0  0  0  0  0  0  0  0  0  0  0
   -2.2324   69.9406   66.4468 H   0  0  0  0  0  0  0  0  0  0  0  0
   -2.7845   67.5140   66.5839 H   0  0  0  0  0  0  0  0  0  0  0  0
   -0.9612   65.8151   66.5459 H   0  0  0  0  0  0  0  0  0  0  0  0
    1.4146   66.5356   66.3478 H   0  0  0  0  0  0  0  0  0  0  0  0
    7.9399   71.0908   69.7376 H   0  0  0  0  0  0  0  0  0  0  0  0
    6.4382   70.6380   70.5877 H   0  0  0  0  0  0  0  0  0  0  0  0
    2.8253   68.4017   60.3635 H   0  0  0  0  0  0  0  0  0  0  0  0
    1.3159   68.2606   61.3038 H   0  0  0  0  0  0  0  0  0  0  0  0
    3.2300   67.9656   69.3149 H   0  0  0  0  0  0  0  0  0  0  0  0
    2.2774   68.8805   70.5462 H   0  0  0  0  0  0  0  0  0  0  0  0
    0.1718   68.0850   69.3473 H   0  0  0  0  0  0  0  0  0  0  0  0
    1.2400   66.9850   68.3904 H   0  0  0  0  0  0  0  0  0  0  0  0
    2.0472   66.3728   70.8218 H   0  0  0  0  0  0  0  0  0  0  0  0
    0.4537   66.8634   71.1970 H   0  0  0  0  0  0  0  0  0  0  0  0
   -0.5192   65.0941   70.2956 H   0  0  0  0  0  0  0  0  0  0  0  0
    0.7042   65.0463   68.9587 H   0  0  0  0  0  0  0  0  0  0  0  0
    1.0147   63.9788   71.8117 H   0  0  0  0  0  0  0  0  0  0  0  0
    1.0037   63.0427   70.2693 H   0  0  0  0  0  0  0  0  0  0  0  0
    3.0127   64.9301   69.8495 H   0  0  0  0  0  0  0  0  0  0  0  0
    3.1800   64.4616   71.6187 H   0  0  0  0  0  0  0  0  0  0  0  0
    2.9851   62.1385   70.5816 H   0  0  0  0  0  0  0  0  0  0  0  0
    4.2036   61.7302   68.5466 H   0  0  0  0  0  0  0  0  0  0  0  0
    2.6939   62.6716   68.2997 H   0  0  0  0  0  0  0  0  0  0  0  0
    4.2838   63.5076   68.2997 H   0  0  0  0  0  0  0  0  0  0  0  0
    5.6956   63.2572   70.5251 H   0  0  0  0  0  0  0  0  0  0  0  0
    4.7478   62.9926   72.0461 H   0  0  0  0  0  0  0  0  0  0  0  0
    5.0697   60.7502   70.0212 H   0  0  0  0  0  0  0  0  0  0  0  0
    6.3726   61.1176   71.2283 H   0  0  0  0  0  0  0  0  0  0  0  0
    5.1828   59.5718   72.4439 H   0  0  0  0  0  0  0  0  0  0  0  0
    4.2827   61.0837   72.8989 H   0  0  0  0  0  0  0  0  0  0  0  0
    2.6943   60.6224   71.2990 H   0  0  0  0  0  0  0  0  0  0  0  0
    3.5964   57.9192   70.5795 H   0  0  0  0  0  0  0  0  0  0  0  0
    2.4787   59.0265   69.7126 H   0  0  0  0  0  0  0  0  0  0  0  0
    4.2452   59.3525   69.7126 H   0  0  0  0  0  0  0  0  0  0  0  0
    2.3555   57.9735   72.2783 H   0  0  0  0  0  0  0  0  0  0  0  0
    3.0610   59.1019   73.5599 H   0  0  0  0  0  0  0  0  0  0  0  0
   -1.8097   58.6472   74.5584 H   0  0  0  0  0  0  0  0  0  0  0  0
   -2.4359   60.9477   73.8366 H   0  0  0  0  0  0  0  0  0  0  0  0
   -0.8263   62.3346   72.5394 H   0  0  0  0  0  0  0  0  0  0  0  0
    1.4335   61.4395   71.9970 H   0  0  0  0  0  0  0  0  0  0  0  0
    0.1413   57.8108   76.0200 H   0  0  0  0  0  0  0  0  0  0  0  0
    0.8093   56.1892   75.6316 H   0  0  0  0  0  0  0  0  0  0  0  0
    1.8854   57.6274   75.6316 H   0  0  0  0  0  0  0  0  0  0  0  0
  2  1  1  0
  3  2  2  0
  4  3  1  0
  5  4  2  0
  6  5  1  0
  7  6  2  0
  8  7  1  0
  9  8  2  0
  9  4  1  0
 10  9  1  0
 11 10  2  0
 11  2  1  0
 12 11  1  0
 13 12  2  0
 14 13  1  0
 15 14  2  0
 15 10  1  0
 16  3  1  0
 17 16  2  0
 18 17  1  0
 19 18  2  0
 20 19  1  0
 21 20  2  0
 21 16  1  0
 22 13  1  0
 23  6  1  0
 24  1  1  0
 25 24  1  0
 26 25  1  0
 27 26  1  0
 28 27  1  0
 29 28  1  0
 30 29  1  0
 31 30  1  0
 32 30  1  0
 33 32  1  0
 34 33  1  0
 35 34  1  0
 36 35  1  0
 37 35  1  0
 39 38  2  0
 40 39  1  0
 41 40  2  0
 42 41  1  0
 43 37  1  0
 43 42  2  0
 43 38  1  0
 45 44  1  0
 45 38  1  0
  1 46  1  0
  1 47  1  0
  5 48  1  0
  7 49  1  0
  8 50  1  0
 12 51  1  0
 14 52  1  0
 15 53  1  0
 17 54  1  0
 18 55  1  0
 19 56  1  0
 20 57  1  0
 21 58  1  0
 22 59  1  0
 22 60  1  0
 23 61  1  0
 23 62  1  0
 24 63  1  0
 24 64  1  0
 25 65  1  0
 25 66  1  0
 26 67  1  0
 26 68  1  0
 27 69  1  0
 27 70  1  0
 28 71  1  0
 28 72  1  0
 29 73  1  0
 29 74  1  0
 30 75  1  1
 31 76  1  0
 31 77  1  0
 31 78  1  0
 32 79  1  0
 32 80  1  0
 33 81  1  0
 33 82  1  0
 34 83  1  0
 34 84  1  0
 35 85  1  6
 36 86  1  0
 36 87  1  0
 36 88  1  0
 37 89  1  0
 37 90  1  0
 39 91  1  0
 40 92  1  0
 41 93  1  0
 42 94  1  0
 44 95  1  0
 44 96  1  0
 44 97  1  0
M  CHG  4   2   1  26   1  30   1  35   1
M  END
>  <score>  (5) 
-9.319

$$$$
=
     RDKit          3D

 97101  0  0  0  0  0  0  0  0999 V2000
   -0.1350   62.1640   72.5070 C   0  0  0  0  0  0  0  0  0  0  0  0
    0.5080   60.8270   72.7950 N   0  0  0  0  0  4  0  0  0  0  0  0
   -0.0860   59.9530   73.6740 C   0  0  0  0  0  0  0  0  0  0  0  0
    0.3780   58.6260   73.8340 C   0  0  0  0  0  0  0  0  0  0  0  0
   -0.2450   57.7080   74.7250 C   0  0  0  0  0  0  0  0  0  0  0  0
    0.1960   56.3970   74.8960 C   0  0  0  0  0  0  0  0  0  0  0  0
    1.2370   55.9590   74.0980 C   0  0  0  0  0  0  0  0  0  0  0  0
    1.8780   56.8400   73.2240 C   0  0  0  0  0  0  0  0  0  0  0  0
    1.4770   58.1920   73.0720 C   0  0  0  0  0  0  0  0  0  0  0  0
    2.1160   59.1150   72.1950 C   0  0  0  0  0  0  0  0  0  0  0  0
    1.6220   60.4410   72.0810 C   0  0  0  0  0  0  0  0  0  0  0  0
    2.3060   61.3400   71.2270 C   0  0  0  0  0  0  0  0  0  0  0  0
    3.3870   60.9570   70.4350 C   0  0  0  0  0  0  0  0  0  0  0  0
    3.8780   59.6730   70.5580 C   0  0  0  0  0  0  0  0  0  0  0  0
    3.2510   58.7700   71.4160 C   0  0  0  0  0  0  0  0  0  0  0  0
   -1.2120   60.4740   74.4720 C   0  0  0  0  0  0  0  0  0  0  0  0
   -0.9920   61.0050   75.7570 C   0  0  0  0  0  0  0  0  0  0  0  0
   -2.0580   61.4780   76.5240 C   0  0  0  0  0  0  0  0  0  0  0  0
   -3.3570   61.4190   76.0240 C   0  0  0  0  0  0  0  0  0  0  0  0
   -3.5960   60.8720   74.7650 C   0  0  0  0  0  0  0  0  0  0  0  0
   -2.5330   60.3920   73.9980 C   0  0  0  0  0  0  0  0  0  0  0  0
    4.0650   61.9340   69.6900 N   0  0  0  0  0  0  0  0  0  0  0  0
   -0.5360   55.4990   75.6620 N   0  0  0  0  0  0  0  0  0  0  0  0
    0.5190   63.3120   73.2990 C   0  0  0  0  0  0  0  0  0  0  0  0
    0.3990   64.6380   72.5350 C   0  0  0  0  0  0  0  0  0  0  0  0
    0.5120   64.4130   71.0360 N   0  0  0  0  0  4  0  0  0  0  0  0
    1.0520   65.6160   70.2890 C   0  0  0  0  0  0  0  0  0  0  0  0
   -0.0730   66.3950   69.5730 C   0  0  0  0  0  0  0  0  0  0  0  0
    0.5140   67.3180   68.4840 C   0  0  0  0  0  0  0  0  0  0  0  0
   -0.2260   67.2870   67.1440 N   0  0  1  0  0  4  0  0  0  0  0  0
   -1.6880   66.9070   67.2720 C   0  0  0  0  0  0  0  0  0  0  0  0
    0.0300   68.4840   66.2250 C   0  0  0  0  0  0  0  0  0  0  0  0
    0.8940   68.0890   65.0080 C   0  0  0  0  0  0  0  0  0  0  0  0
    1.9840   67.0700   65.3870 C   0  0  0  0  0  0  0  0  0  0  0  0
    3.3760   67.5890   65.1070 N   0  0  1  0  0  4  0  0  0  0  0  0
    3.9750   67.1130   63.8030 C   0  0  0  0  0  0  0  0  0  0  0  0
    3.4760   69.1270   65.2160 C   0  0  0  0  0  0  0  0  0  0  0  0
    4.0620   69.9680   67.5420 C   0  0  0  0  0  0  0  0  0  0  0  0
    5.0020   70.4460   68.4580 C   0  0  0  0  0  0  0  0  0  0  0  0
    6.3270   70.6500   68.0680 C   0  0  0  0  0  0  0  0  0  0  0  0
    6.7220   70.3790   66.7630 C   0  0  0  0  0  0  0  0  0  0  0  0
    5.7950   69.8850   65.8450 C   0  0  0  0  0  0  0  0  0  0  0  0
    4.4600   69.6580   66.2260 C   0  0  0  0  0  0  0  0  0  0  0  0
    2.1520   70.6460   68.7870 C   0  0  0  0  0  0  0  0  0  0  0  0
    2.7410   69.7530   67.8370 O   0  0  0  0  0  0  0  0  0  0  0  0
   -0.0403   62.3775   71.4321 H   0  0  0  0  0  0  0  0  0  0  0  0
   -1.1895   62.1025   72.8140 H   0  0  0  0  0  0  0  0  0  0  0  0
   -1.1149   58.0488   75.3057 H   0  0  0  0  0  0  0  0  0  0  0  0
    1.5625   54.9096   74.1519 H   0  0  0  0  0  0  0  0  0  0  0  0
    2.7272   56.4708   72.6302 H   0  0  0  0  0  0  0  0  0  0  0  0
    1.9694   62.3865   71.1870 H   0  0  0  0  0  0  0  0  0  0  0  0
    4.7615   59.3628   69.9808 H   0  0  0  0  0  0  0  0  0  0  0  0
    3.6525   57.7487   71.4921 H   0  0  0  0  0  0  0  0  0  0  0  0
    0.0303   61.0476   76.1608 H   0  0  0  0  0  0  0  0  0  0  0  0
   -1.8723   61.8976   77.5237 H   0  0  0  0  0  0  0  0  0  0  0  0
   -4.1947   61.8046   76.6237 H   0  0  0  0  0  0  0  0  0  0  0  0
   -4.6232   60.8184   74.3751 H   0  0  0  0  0  0  0  0  0  0  0  0
   -2.7310   59.9450   73.0126 H   0  0  0  0  0  0  0  0  0  0  0  0
    4.8659   61.6677   69.0996 H   0  0  0  0  0  0  0  0  0  0  0  0
    3.7617   62.9174   69.7335 H   0  0  0  0  0  0  0  0  0  0  0  0
   -0.2014   54.5323   75.7822 H   0  0  0  0  0  0  0  0  0  0  0  0
   -1.4134   55.7997   76.1099 H   0  0  0  0  0  0  0  0  0  0  0  0
    0.0171   63.4101   74.2729 H   0  0  0  0  0  0  0  0  0  0  0  0
    1.5852   63.0810   73.4396 H   0  0  0  0  0  0  0  0  0  0  0  0
   -0.5764   65.0950   72.7580 H   0  0  0  0  0  0  0  0  0  0  0  0
    1.2163   65.3019   72.8531 H   0  0  0  0  0  0  0  0  0  0  0  0
    1.1430   63.6157   70.8716 H   0  0  0  0  0  0  0  0  0  0  0  0
   -0.4385   64.2348   70.6815 H   0  0  0  0  0  0  0  0  0  0  0  0
    1.5500   66.2863   71.0050 H   0  0  0  0  0  0  0  0  0  0  0  0
    1.7599   65.2576   69.5271 H   0  0  0  0  0  0  0  0  0  0  0  0
   -0.7668   65.6805   69.1059 H   0  0  0  0  0  0  0  0  0  0  0  0
   -0.6036   67.0122   70.3129 H   0  0  0  0  0  0  0  0  0  0  0  0
    0.4914   68.3505   68.8628 H   0  0  0  0  0  0  0  0  0  0  0  0
    1.5308   66.9496   68.2831 H   0  0  0  0  0  0  0  0  0  0  0  0
    0.2172   66.5079   66.6366 H   0  0  0  0  0  0  0  0  0  0  0  0
   -1.9569   66.8371   68.3363 H   0  0  0  0  0  0  0  0  0  0  0  0
   -2.3099   67.6733   66.7863 H   0  0  0  0  0  0  0  0  0  0  0  0
   -1.8580   65.9348   66.7863 H   0  0  0  0  0  0  0  0  0  0  0  0
   -0.9349   68.8726   65.8672 H   0  0  0  0  0  0  0  0  0  0  0  0
    0.5723   69.2498   66.7990 H   0  0  0  0  0  0  0  0  0  0  0  0
    0.2443   67.6458   64.2389 H   0  0  0  0  0  0  0  0  0  0  0  0
    1.3899   68.9960   64.6320 H   0  0  0  0  0  0  0  0  0  0  0  0
    1.8997   66.8444   66.4603 H   0  0  0  0  0  0  0  0  0  0  0  0
    1.8308   66.1694   64.7743 H   0  0  0  0  0  0  0  0  0  0  0  0
    3.9448   67.1718   65.8575 H   0  0  0  0  0  0  0  0  0  0  0  0
    4.8206   66.4411   64.0116 H   0  0  0  0  0  0  0  0  0  0  0  0
    3.2113   66.5726   63.2243 H   0  0  0  0  0  0  0  0  0  0  0  0
    4.3289   67.9790   63.2243 H   0  0  0  0  0  0  0  0  0  0  0  0
    3.7654   69.5157   64.2285 H   0  0  0  0  0  0  0  0  0  0  0  0
    2.4875   69.4633   65.5619 H   0  0  0  0  0  0  0  0  0  0  0  0
    4.6967   70.6629   69.4923 H   0  0  0  0  0  0  0  0  0  0  0  0
    7.0609   71.0264   68.7958 H   0  0  0  0  0  0  0  0  0  0  0  0
    7.7634   70.5537   66.4549 H   0  0  0  0  0  0  0  0  0  0  0  0
    6.1110   69.6709   64.8133 H   0  0  0  0  0  0  0  0  0  0  0  0
    2.3802   70.3000   69.8059 H   0  0  0  0  0  0  0  0  0  0  0  0
    2.5612   71.6568   68.6427 H   0  0  0  0  0  0  0  0  0  0  0  0
    1.0617   70.6678   68.6427 H   0  0  0  0  0  0  0  0  0  0  0  0
  2  1  1  0
  3  2  2  0
  4  3  1  0
  5  4  2  0
  6  5  1  0
  7  6  2  0
  8  7  1  0
  9  8  2  0
  9  4  1  0
 10  9  1  0
 11 10  2  0
 11  2  1  0
 12 11  1  0
 13 12  2  0
 14 13  1  0
 15 14  2  0
 15 10  1  0
 16  3  1  0
 17 16  2  0
 18 17  1  0
 19 18  2  0
 20 19  1  0
 21 20  2  0
 21 16  1  0
 22 13  1  0
 23  6  1  0
 24  1  1  0
 25 24  1  0
 26 25  1  0
 27 26  1  0
 28 27  1  0
 29 28  1  0
 30 29  1  0
 31 30  1  0
 32 30  1  0
 33 32  1  0
 34 33  1  0
 35 34  1  0
 36 35  1  0
 37 35  1  0
 39 38  2  0
 40 39  1  0
 41 40  2  0
 42 41  1  0
 43 37  1  0
 43 42  2  0
 43 38  1  0
 45 44  1  0
 45 38  1  0
  1 46  1  0
  1 47  1  0
  5 48  1  0
  7 49  1  0
  8 50  1  0
 12 51  1  0
 14 52  1  0
 15 53  1  0
 17 54  1  0
 18 55  1  0
 19 56  1  0
 20 57  1  0
 21 58  1  0
 22 59  1  0
 22 60  1  0
 23 61  1  0
 23 62  1  0
 24 63  1  0
 24 64  1  0
 25 65  1  0
 25 66  1  0
 26 67  1  0
 26 68  1  0
 27 69  1  0
 27 70  1  0
 28 71  1  0
 28 72  1  0
 29 73  1  0
 29 74  1  0
 30 75  1  6
 31 76  1  0
 31 77  1  0
 31 78  1  0
 32 79  1  0
 32 80  1  0
 33 81  1  0
 33 82  1  0
 34 83  1  0
 34 84  1  0
 35 85  1  1
 36 86  1  0
 36 87  1  0
 36 88  1  0
 37 89  1  0
 37 90  1  0
 39 91  1  0
 40 92  1  0
 41 93  1  0
 42 94  1  0
 44 95  1  0
 44 96  1  0
 44 97  1  0
M  CHG  4   2   1  26   1  30   1  35   1
M  END
>  <score>  (6) 
-9.235

$$$$
=
     RDKit          3D

 97101  0  0  0  0  0  0  0  0999 V2000
    2.1100   60.1120   74.0830 C   0  0  0  0  0  0  0  0  0  0  0  0
    0.7570   59.5840   74.5020 N   0  0  0  0  0  4  0  0  0  0  0  0
   -0.2280   60.4560   74.9010 C   0  0  0  0  0  0  0  0  0  0  0  0
   -1.5580   60.0270   75.1230 C   0  0  0  0  0  0  0  0  0  0  0  0
   -2.5890   60.9260   75.5150 C   0  0  0  0  0  0  0  0  0  0  0  0
   -3.9040   60.5240   75.7380 C   0  0  0  0  0  0  0  0  0  0  0  0
   -4.2240   59.2030   75.4860 C   0  0  0  0  0  0  0  0  0  0  0  0
   -3.2330   58.2920   75.1150 C   0  0  0  0  0  0  0  0  0  0  0  0
   -1.8780   58.6720   74.9310 C   0  0  0  0  0  0  0  0  0  0  0  0
   -0.8440   57.7640   74.5610 C   0  0  0  0  0  0  0  0  0  0  0  0
    0.4790   58.2410   74.3630 C   0  0  0  0  0  0  0  0  0  0  0  0
    1.4870   57.3040   74.0310 C   0  0  0  0  0  0  0  0  0  0  0  0
    1.2210   55.9530   73.8100 C   0  0  0  0  0  0  0  0  0  0  0  0
   -0.0600   55.4860   74.0170 C   0  0  0  0  0  0  0  0  0  0  0  0
   -1.0730   56.3760   74.3790 C   0  0  0  0  0  0  0  0  0  0  0  0
    0.1730   61.8580   75.1210 C   0  0  0  0  0  0  0  0  0  0  0  0
    0.6850   62.2680   76.3660 C   0  0  0  0  0  0  0  0  0  0  0  0
    1.0440   63.5990   76.5860 C   0  0  0  0  0  0  0  0  0  0  0  0
    0.8890   64.5390   75.5700 C   0  0  0  0  0  0  0  0  0  0  0  0
    0.3580   64.1560   74.3400 C   0  0  0  0  0  0  0  0  0  0  0  0
   -0.0080   62.8270   74.1190 C   0  0  0  0  0  0  0  0  0  0  0  0
    2.2930   55.0780   73.5790 N   0  0  0  0  0  0  0  0  0  0  0  0
   -4.9020   61.4630   75.9710 N   0  0  0  0  0  0  0  0  0  0  0  0
    2.1930   60.3760   72.5680 C   0  0  0  0  0  0  0  0  0  0  0  0
    3.6380   60.6790   72.1470 C   0  0  0  0  0  0  0  0  0  0  0  0
    3.8330   62.1660   71.9040 N   0  0  0  0  0  4  0  0  0  0  0  0
    4.4010   62.4800   70.5350 C   0  0  0  0  0  0  0  0  0  0  0  0
    3.3510   63.1540   69.6230 C   0  0  0  0  0  0  0  0  0  0  0  0
    2.6410   64.3020   70.3720 C   0  0  0  0  0  0  0  0  0  0  0  0
    1.1410   64.4250   70.0880 N   0  0  1  0  0  4  0  0  0  0  0  0
    0.3260   63.2740   70.6410 C   0  0  0  0  0  0  0  0  0  0  0  0
    0.5350   65.8060   70.3560 C   0  0  0  0  0  0  0  0  0  0  0  0
    1.3150   66.9190   69.6250 C   0  0  0  0  0  0  0  0  0  0  0  0
    0.5690   67.4140   68.3720 C   0  0  0  0  0  0  0  0  0  0  0  0
    1.5150   67.8640   67.2820 N   0  0  1  0  0  4  0  0  0  0  0  0
    1.1260   67.4220   65.8890 C   0  0  0  0  0  0  0  0  0  0  0  0
    1.7820   69.3850   67.3100 C   0  0  0  0  0  0  0  0  0  0  0  0
    4.2490   69.7160   66.7980 C   0  0  0  0  0  0  0  0  0  0  0  0
    5.5260   70.1270   67.1910 C   0  0  0  0  0  0  0  0  0  0  0  0
    5.7480   70.5970   68.4860 C   0  0  0  0  0  0  0  0  0  0  0  0
    4.7000   70.6590   69.3970 C   0  0  0  0  0  0  0  0  0  0  0  0
    3.4190   70.2670   69.0110 C   0  0  0  0  0  0  0  0  0  0  0  0
    3.1740   69.8070   67.7030 C   0  0  0  0  0  0  0  0  0  0  0  0
    4.9460   69.4080   64.5440 C   0  0  0  0  0  0  0  0  0  0  0  0
    3.9480   69.2290   65.5530 O   0  0  0  0  0  0  0  0  0  0  0  0
    2.3024   61.0543   74.6170 H   0  0  0  0  0  0  0  0  0  0  0  0
    2.8605   59.3474   74.3321 H   0  0  0  0  0  0  0  0  0  0  0  0
   -2.3358   61.9881   75.6482 H   0  0  0  0  0  0  0  0  0  0  0  0
   -5.2673   58.8669   75.5785 H   0  0  0  0  0  0  0  0  0  0  0  0
   -3.5132   57.2397   74.9594 H   0  0  0  0  0  0  0  0  0  0  0  0
    2.5252   57.6569   73.9436 H   0  0  0  0  0  0  0  0  0  0  0  0
   -0.2830   54.4155   73.8973 H   0  0  0  0  0  0  0  0  0  0  0  0
   -2.0901   55.9849   74.5292 H   0  0  0  0  0  0  0  0  0  0  0  0
    0.8036   61.5317   77.1746 H   0  0  0  0  0  0  0  0  0  0  0  0
    1.4493   63.9054   77.5617 H   0  0  0  0  0  0  0  0  0  0  0  0
    1.1860   65.5846   75.7387 H   0  0  0  0  0  0  0  0  0  0  0  0
    0.2270   64.9018   73.5421 H   0  0  0  0  0  0  0  0  0  0  0  0
   -0.4422   62.5353   73.1513 H   0  0  0  0  0  0  0  0  0  0  0  0
    2.1145   54.0771   73.4140 H   0  0  0  0  0  0  0  0  0  0  0  0
    3.2586   55.4365   73.5744 H   0  0  0  0  0  0  0  0  0  0  0  0
   -5.8711   61.1548   76.1347 H   0  0  0  0  0  0  0  0  0  0  0  0
   -4.6725   62.4671   75.9799 H   0  0  0  0  0  0  0  0  0  0  0  0
    1.8384   59.4864   72.0267 H   0  0  0  0  0  0  0  0  0  0  0  0
    1.5650   61.2461   72.3263 H   0  0  0  0  0  0  0  0  0  0  0  0
    4.3213   60.3521   72.9446 H   0  0  0  0  0  0  0  0  0  0  0  0
    3.8514   60.1398   71.2123 H   0  0  0  0  0  0  0  0  0  0  0  0
    2.9202   62.6345   71.9946 H   0  0  0  0  0  0  0  0  0  0  0  0
    4.5128   62.5025   72.6009 H   0  0  0  0  0  0  0  0  0  0  0  0
    5.2596   63.1576   70.6518 H   0  0  0  0  0  0  0  0  0  0  0  0
    4.7076   61.5339   70.0650 H   0  0  0  0  0  0  0  0  0  0  0  0
    3.8525   63.5590   68.7317 H   0  0  0  0  0  0  0  0  0  0  0  0
    2.6017   62.4043   69.3290 H   0  0  0  0  0  0  0  0  0  0  0  0
    2.7723   64.1385   71.4518 H   0  0  0  0  0  0  0  0  0  0  0  0
    3.1008   65.2352   70.0145 H   0  0  0  0  0  0  0  0  0  0  0  0
    1.0764   64.3382   69.0637 H   0  0  0  0  0  0  0  0  0  0  0  0
    0.3475   63.3044   71.7404 H   0  0  0  0  0  0  0  0  0  0  0  0
   -0.7137   63.3599   70.2921 H   0  0  0  0  0  0  0  0  0  0  0  0
    0.7523   62.3219   70.2921 H   0  0  0  0  0  0  0  0  0  0  0  0
   -0.5080   65.8123   70.0066 H   0  0  0  0  0  0  0  0  0  0  0  0
    0.5877   66.0015   71.4372 H   0  0  0  0  0  0  0  0  0  0  0  0
    1.4556   67.7657   70.3130 H   0  0  0  0  0  0  0  0  0  0  0  0
    2.2821   66.5040   69.3047 H   0  0  0  0  0  0  0  0  0  0  0  0
   -0.0536   66.5944   67.9840 H   0  0  0  0  0  0  0  0  0  0  0  0
   -0.0435   68.2795   68.6647 H   0  0  0  0  0  0  0  0  0  0  0  0
    2.3934   67.3755   67.5071 H   0  0  0  0  0  0  0  0  0  0  0  0
    0.4006   66.5977   65.9550 H   0  0  0  0  0  0  0  0  0  0  0  0
    0.6730   68.2668   65.3494 H   0  0  0  0  0  0  0  0  0  0  0  0
    2.0215   67.0800   65.3494 H   0  0  0  0  0  0  0  0  0  0  0  0
    1.5831   69.7796   66.3027 H   0  0  0  0  0  0  0  0  0  0  0  0
    1.1201   69.7866   68.0914 H   0  0  0  0  0  0  0  0  0  0  0  0
    6.3603   70.0797   66.4756 H   0  0  0  0  0  0  0  0  0  0  0  0
    6.7557   70.9195   68.7869 H   0  0  0  0  0  0  0  0  0  0  0  0
    4.8812   71.0169   70.4212 H   0  0  0  0  0  0  0  0  0  0  0  0
    2.5922   70.3175   69.7348 H   0  0  0  0  0  0  0  0  0  0  0  0
    5.9219   69.5830   65.0205 H   0  0  0  0  0  0  0  0  0  0  0  0
    5.0004   68.5053   63.9178 H   0  0  0  0  0  0  0  0  0  0  0  0
    4.6832   70.2733   63.9178 H   0  0  0  0  0  0  0  0  0  0  0  0
  2  1  1  0
  3  2  2  0
  4  3  1  0
  5  4  2  0
  6  5  1  0
  7  6  2  0
  8  7  1  0
  9  8  2  0
  9  4  1  0
 10  9  1  0
 11 10  2  0
 11  2  1  0
 12 11  1  0
 13 12  2  0
 14 13  1  0
 15 14  2  0
 15 10  1  0
 16  3  1  0
 17 16  2  0
 18 17  1  0
 19 18  2  0
 20 19  1  0
 21 20  2  0
 21 16  1  0
 22 13  1  0
 23  6  1  0
 24  1  1  0
 25 24  1  0
 26 25  1  0
 27 26  1  0
 28 27  1  0
 29 28  1  0
 30 29  1  0
 31 30  1  0
 32 30  1  0
 33 32  1  0
 34 33  1  0
 35 34  1  0
 36 35  1  0
 37 35  1  0
 39 38  2  0
 40 39  1  0
 41 40  2  0
 42 41  1  0
 43 37  1  0
 43 42  2  0
 43 38  1  0
 45 44  1  0
 45 38  1  0
  1 46  1  0
  1 47  1  0
  5 48  1  0
  7 49  1  0
  8 50  1  0
 12 51  1  0
 14 52  1  0
 15 53  1  0
 17 54  1  0
 18 55  1  0
 19 56  1  0
 20 57  1  0
 21 58  1  0
 22 59  1  0
 22 60  1  0
 23 61  1  0
 23 62  1  0
 24 63  1  0
 24 64  1  0
 25 65  1  0
 25 66  1  0
 26 67  1  0
 26 68  1  0
 27 69  1  0
 27 70  1  0
 28 71  1  0
 28 72  1  0
 29 73  1  0
 29 74  1  0
 30 75  1  6
 31 76  1  0
 31 77  1  0
 31 78  1  0
 32 79  1  0
 32 80  1  0
 33 81  1  0
 33 82  1  0
 34 83  1  0
 34 84  1  0
 35 85  1  1
 36 86  1  0
 36 87  1  0
 36 88  1  0
 37 89  1  0
 37 90  1  0
 39 91  1  0
 40 92  1  0
 41 93  1  0
 42 94  1  0
 44 95  1  0
 44 96  1  0
 44 97  1  0
M  CHG  4   2   1  26   1  30   1  35   1
M  END
>  <score>  (7) 
-9.071

$$$$
=
     RDKit          3D

 97101  0  0  0  0  0  0  0  0999 V2000
    0.1630   61.8670   72.5710 C   0  0  0  0  0  0  0  0  0  0  0  0
    0.1140   60.5430   73.3000 N   0  0  0  0  0  4  0  0  0  0  0  0
    1.2610   59.8030   73.4580 C   0  0  0  0  0  0  0  0  0  0  0  0
    1.2990   58.6560   74.2860 C   0  0  0  0  0  0  0  0  0  0  0  0
    2.4880   57.8960   74.4730 C   0  0  0  0  0  0  0  0  0  0  0  0
    2.5470   56.7650   75.2840 C   0  0  0  0  0  0  0  0  0  0  0  0
    1.4120   56.4240   75.9960 C   0  0  0  0  0  0  0  0  0  0  0  0
    0.2250   57.1410   75.8240 C   0  0  0  0  0  0  0  0  0  0  0  0
    0.1320   58.2650   74.9630 C   0  0  0  0  0  0  0  0  0  0  0  0
   -1.0660   59.0110   74.7620 C   0  0  0  0  0  0  0  0  0  0  0  0
   -1.0570   60.1460   73.9090 C   0  0  0  0  0  0  0  0  0  0  0  0
   -2.2740   60.8400   73.7040 C   0  0  0  0  0  0  0  0  0  0  0  0
   -3.4550   60.5070   74.3650 C   0  0  0  0  0  0  0  0  0  0  0  0
   -3.4690   59.3950   75.1820 C   0  0  0  0  0  0  0  0  0  0  0  0
   -2.2960   58.6660   75.3800 C   0  0  0  0  0  0  0  0  0  0  0  0
    2.4460   60.2380   72.6950 C   0  0  0  0  0  0  0  0  0  0  0  0
    2.6600   59.7780   71.3830 C   0  0  0  0  0  0  0  0  0  0  0  0
    3.7920   60.1710   70.6660 C   0  0  0  0  0  0  0  0  0  0  0  0
    4.7280   61.0190   71.2520 C   0  0  0  0  0  0  0  0  0  0  0  0
    4.5450   61.4640   72.5600 C   0  0  0  0  0  0  0  0  0  0  0  0
    3.4180   61.0680   73.2820 C   0  0  0  0  0  0  0  0  0  0  0  0
   -4.6360   61.1870   74.0320 N   0  0  0  0  0  0  0  0  0  0  0  0
    3.7630   56.1480   75.5520 N   0  0  0  0  0  0  0  0  0  0  0  0
    0.3350   63.0590   73.5320 C   0  0  0  0  0  0  0  0  0  0  0  0
    0.4760   64.3720   72.7490 C   0  0  0  0  0  0  0  0  0  0  0  0
    0.3900   64.1250   71.2520 N   0  0  0  0  0  4  0  0  0  0  0  0
    0.8640   65.3000   70.4220 C   0  0  0  0  0  0  0  0  0  0  0  0
   -0.2910   65.9260   69.6090 C   0  0  0  0  0  0  0  0  0  0  0  0
    0.2410   67.0410   68.6830 C   0  0  0  0  0  0  0  0  0  0  0  0
   -0.6130   67.3080   67.4400 N   0  0  1  0  0  4  0  0  0  0  0  0
   -2.0820   66.9900   67.6370 C   0  0  0  0  0  0  0  0  0  0  0  0
   -0.3520   68.6450   66.7400 C   0  0  0  0  0  0  0  0  0  0  0  0
    0.5150   68.4620   65.4750 C   0  0  0  0  0  0  0  0  0  0  0  0
    1.3730   67.1840   65.5490 C   0  0  0  0  0  0  0  0  0  0  0  0
    2.8330   67.4590   65.2710 N   0  0  1  0  0  4  0  0  0  0  0  0
    3.4240   66.6420   64.1440 C   0  0  0  0  0  0  0  0  0  0  0  0
    3.1320   68.9600   65.0620 C   0  0  0  0  0  0  0  0  0  0  0  0
    4.0040   69.9010   67.2560 C   0  0  0  0  0  0  0  0  0  0  0  0
    5.0490   70.4260   68.0220 C   0  0  0  0  0  0  0  0  0  0  0  0
    6.3070   70.6280   67.4540 C   0  0  0  0  0  0  0  0  0  0  0  0
    6.5320   70.3090   66.1190 C   0  0  0  0  0  0  0  0  0  0  0  0
    5.5020   69.7680   65.3510 C   0  0  0  0  0  0  0  0  0  0  0  0
    4.2310   69.5420   65.9130 C   0  0  0  0  0  0  0  0  0  0  0  0
    2.5610   69.8080   69.1450 C   0  0  0  0  0  0  0  0  0  0  0  0
    2.7370   69.6840   67.7310 O   0  0  0  0  0  0  0  0  0  0  0  0
    1.0103   61.8532   71.8696 H   0  0  0  0  0  0  0  0  0  0  0  0
   -0.7937   61.9958   72.0437 H   0  0  0  0  0  0  0  0  0  0  0  0
    3.4027   58.2167   73.9529 H   0  0  0  0  0  0  0  0  0  0  0  0
    1.4436   55.5820   76.7031 H   0  0  0  0  0  0  0  0  0  0  0  0
   -0.6709   56.8221   76.3768 H   0  0  0  0  0  0  0  0  0  0  0  0
   -2.2880   61.6784   72.9921 H   0  0  0  0  0  0  0  0  0  0  0  0
   -4.4018   59.0844   75.6755 H   0  0  0  0  0  0  0  0  0  0  0  0
   -2.3258   57.7881   76.0421 H   0  0  0  0  0  0  0  0  0  0  0  0
    1.9281   59.1018   70.9171 H   0  0  0  0  0  0  0  0  0  0  0  0
    3.9443   59.8105   69.6380 H   0  0  0  0  0  0  0  0  0  0  0  0
    5.6130   61.3381   70.6819 H   0  0  0  0  0  0  0  0  0  0  0  0
    5.2894   62.1279   73.0238 H   0  0  0  0  0  0  0  0  0  0  0  0
    3.2888   61.4083   74.3200 H   0  0  0  0  0  0  0  0  0  0  0  0
   -5.5174   60.9532   74.5109 H   0  0  0  0  0  0  0  0  0  0  0  0
   -4.6217   61.9201   73.3086 H   0  0  0  0  0  0  0  0  0  0  0  0
    3.7950   55.3122   76.1531 H   0  0  0  0  0  0  0  0  0  0  0  0
    4.6323   56.5265   75.1496 H   0  0  0  0  0  0  0  0  0  0  0  0
   -0.5451   63.1231   74.1888 H   0  0  0  0  0  0  0  0  0  0  0  0
    1.2461   62.9036   74.1284 H   0  0  0  0  0  0  0  0  0  0  0  0
   -0.3310   65.0573   73.0475 H   0  0  0  0  0  0  0  0  0  0  0  0
    1.4584   64.8117   72.9759 H   0  0  0  0  0  0  0  0  0  0  0  0
    0.9715   63.3066   71.0219 H   0  0  0  0  0  0  0  0  0  0  0  0
   -0.6030   63.9722   71.0249 H   0  0  0  0  0  0  0  0  0  0  0  0
    1.2835   66.0644   71.0926 H   0  0  0  0  0  0  0  0  0  0  0  0
    1.6245   64.9368   69.7150 H   0  0  0  0  0  0  0  0  0  0  0  0
   -0.7682   65.1454   68.9983 H   0  0  0  0  0  0  0  0  0  0  0  0
   -1.0214   66.3616   70.3066 H   0  0  0  0  0  0  0  0  0  0  0  0
    0.2965   67.9721   69.2661 H   0  0  0  0  0  0  0  0  0  0  0  0
    1.2200   66.6978   68.3172 H   0  0  0  0  0  0  0  0  0  0  0  0
   -0.2725   66.6176   66.7557 H   0  0  0  0  0  0  0  0  0  0  0  0
   -2.3056   66.9416   68.7129 H   0  0  0  0  0  0  0  0  0  0  0  0
   -2.6932   67.7766   67.1705 H   0  0  0  0  0  0  0  0  0  0  0  0
   -2.3132   66.0210   67.1705 H   0  0  0  0  0  0  0  0  0  0  0  0
   -1.3151   69.0915   66.4517 H   0  0  0  0  0  0  0  0  0  0  0  0
    0.1900   69.2999   67.4380 H   0  0  0  0  0  0  0  0  0  0  0  0
   -0.1450   68.3974   64.5973 H   0  0  0  0  0  0  0  0  0  0  0  0
    1.1929   69.3248   65.3974 H   0  0  0  0  0  0  0  0  0  0  0  0
    1.2795   66.7525   66.5565 H   0  0  0  0  0  0  0  0  0  0  0  0
    1.0083   66.4877   64.7795 H   0  0  0  0  0  0  0  0  0  0  0  0
    3.3051   67.1503   66.1328 H   0  0  0  0  0  0  0  0  0  0  0  0
    4.0203   65.8177   64.5623 H   0  0  0  0  0  0  0  0  0  0  0  0
    2.6131   66.2306   63.5250 H   0  0  0  0  0  0  0  0  0  0  0  0
    4.0685   67.2834   63.5250 H   0  0  0  0  0  0  0  0  0  0  0  0
    3.4116   69.1033   64.0078 H   0  0  0  0  0  0  0  0  0  0  0  0
    2.2150   69.4884   65.3618 H   0  0  0  0  0  0  0  0  0  0  0  0
    4.8783   70.6812   69.0783 H   0  0  0  0  0  0  0  0  0  0  0  0
    7.1239   71.0410   68.0640 H   0  0  0  0  0  0  0  0  0  0  0  0
    7.5209   70.4833   65.6700 H   0  0  0  0  0  0  0  0  0  0  0  0
    5.6840   69.5153   64.2960 H   0  0  0  0  0  0  0  0  0  0  0  0
    3.3540   69.2493   69.6636 H   0  0  0  0  0  0  0  0  0  0  0  0
    2.6141   70.8693   69.4294 H   0  0  0  0  0  0  0  0  0  0  0  0
    1.5795   69.4008   69.4294 H   0  0  0  0  0  0  0  0  0  0  0  0
  2  1  1  0
  3  2  2  0
  4  3  1  0
  5  4  2  0
  6  5  1  0
  7  6  2  0
  8  7  1  0
  9  8  2  0
  9  4  1  0
 10  9  1  0
 11 10  2  0
 11  2  1  0
 12 11  1  0
 13 12  2  0
 14 13  1  0
 15 14  2  0
 15 10  1  0
 16  3  1  0
 17 16  2  0
 18 17  1  0
 19 18  2  0
 20 19  1  0
 21 20  2  0
 21 16  1  0
 22 13  1  0
 23  6  1  0
 24  1  1  0
 25 24  1  0
 26 25  1  0
 27 26  1  0
 28 27  1  0
 29 28  1  0
 30 29  1  0
 31 30  1  0
 32 30  1  0
 33 32  1  0
 34 33  1  0
 35 34  1  0
 36 35  1  0
 37 35  1  0
 39 38  2  0
 40 39  1  0
 41 40  2  0
 42 41  1  0
 43 37  1  0
 43 42  2  0
 43 38  1  0
 45 44  1  0
 45 38  1  0
  1 46  1  0
  1 47  1  0
  5 48  1  0
  7 49  1  0
  8 50  1  0
 12 51  1  0
 14 52  1  0
 15 53  1  0
 17 54  1  0
 18 55  1  0
 19 56  1  0
 20 57  1  0
 21 58  1  0
 22 59  1  0
 22 60  1  0
 23 61  1  0
 23 62  1  0
 24 63  1  0
 24 64  1  0
 25 65  1  0
 25 66  1  0
 26 67  1  0
 26 68  1  0
 27 69  1  0
 27 70  1  0
 28 71  1  0
 28 72  1  0
 29 73  1  0
 29 74  1  0
 30 75  1  6
 31 76  1  0
 31 77  1  0
 31 78  1  0
 32 79  1  0
 32 80  1  0
 33 81  1  0
 33 82  1  0
 34 83  1  0
 34 84  1  0
 35 85  1  1
 36 86  1  0
 36 87  1  0
 36 88  1  0
 37 89  1  0
 37 90  1  0
 39 91  1  0
 40 92  1  0
 41 93  1  0
 42 94  1  0
 44 95  1  0
 44 96  1  0
 44 97  1  0
M  CHG  4   2   1  26   1  30   1  35   1
M  END
>  <score>  (8) 
-8.874

$$$$
=
     RDKit          3D

 97101  0  0  0  0  0  0  0  0999 V2000
    2.0240   69.6890   68.5910 C   0  0  0  0  0  0  0  0  0  0  0  0
    2.8280   69.4710   67.3290 N   0  0  0  0  0  4  0  0  0  0  0  0
    2.2010   69.0730   66.1730 C   0  0  0  0  0  0  0  0  0  0  0  0
    2.8790   69.0350   64.9330 C   0  0  0  0  0  0  0  0  0  0  0  0
    2.2310   68.6450   63.7270 C   0  0  0  0  0  0  0  0  0  0  0  0
    2.8810   68.6010   62.4950 C   0  0  0  0  0  0  0  0  0  0  0  0
    4.1930   69.0360   62.4430 C   0  0  0  0  0  0  0  0  0  0  0  0
    4.8610   69.4110   63.6110 C   0  0  0  0  0  0  0  0  0  0  0  0
    4.2320   69.4140   64.8830 C   0  0  0  0  0  0  0  0  0  0  0  0
    4.8890   69.7840   66.0910 C   0  0  0  0  0  0  0  0  0  0  0  0
    4.1690   69.7930   67.3150 C   0  0  0  0  0  0  0  0  0  0  0  0
    4.8650   70.1300   68.5010 C   0  0  0  0  0  0  0  0  0  0  0  0
    6.2000   70.5320   68.5060 C   0  0  0  0  0  0  0  0  0  0  0  0
    6.9050   70.5090   67.3200 C   0  0  0  0  0  0  0  0  0  0  0  0
    6.2600   70.1480   66.1370 C   0  0  0  0  0  0  0  0  0  0  0  0
    0.7930   68.6520   66.2910 C   0  0  0  0  0  0  0  0  0  0  0  0
    0.4660   67.3010   66.5170 C   0  0  0  0  0  0  0  0  0  0  0  0
   -0.8660   66.8950   66.6070 C   0  0  0  0  0  0  0  0  0  0  0  0
   -1.8900   67.8290   66.4640 C   0  0  0  0  0  0  0  0  0  0  0  0
   -1.5860   69.1650   66.2140 C   0  0  0  0  0  0  0  0  0  0  0  0
   -0.2550   69.5740   66.1170 C   0  0  0  0  0  0  0  0  0  0  0  0
    6.8380   70.7570   69.7350 N   0  0  0  0  0  0  0  0  0  0  0  0
    2.1680   68.3610   61.3270 N   0  0  0  0  0  0  0  0  0  0  0  0
    2.2480   68.5740   69.6290 C   0  0  0  0  0  0  0  0  0  0  0  0
    1.5430   67.2800   69.1980 C   0  0  0  0  0  0  0  0  0  0  0  0
    0.6050   66.7840   70.2860 N   0  0  0  0  0  4  0  0  0  0  0  0
    0.7260   65.2970   70.5500 C   0  0  0  0  0  0  0  0  0  0  0  0
    2.1730   64.7980   70.3410 C   0  0  0  0  0  0  0  0  0  0  0  0
    2.2080   63.2570   70.2530 C   0  0  0  0  0  0  0  0  0  0  0  0
    3.5150   62.6720   69.7110 N   0  0  1  0  0  4  0  0  0  0  0  0
    4.7530   63.2500   70.3680 C   0  0  0  0  0  0  0  0  0  0  0  0
    3.5400   61.1480   69.5650 C   0  0  0  0  0  0  0  0  0  0  0  0
    4.0040   60.4610   70.8670 C   0  0  0  0  0  0  0  0  0  0  0  0
    2.8320   59.7900   71.6090 C   0  0  0  0  0  0  0  0  0  0  0  0
    2.5170   60.4750   72.9190 N   0  0  1  0  0  4  0  0  0  0  0  0
    3.5210   61.5270   73.3370 C   0  0  0  0  0  0  0  0  0  0  0  0
    1.0840   61.0500   72.9670 C   0  0  0  0  0  0  0  0  0  0  0  0
    0.8330   61.7730   75.3910 C   0  0  0  0  0  0  0  0  0  0  0  0
    0.6010   62.7700   76.3420 C   0  0  0  0  0  0  0  0  0  0  0  0
    0.3270   64.0780   75.9400 C   0  0  0  0  0  0  0  0  0  0  0  0
    0.2830   64.4000   74.5880 C   0  0  0  0  0  0  0  0  0  0  0  0
    0.5300   63.4170   73.6310 C   0  0  0  0  0  0  0  0  0  0  0  0
    0.8240   62.0960   74.0190 C   0  0  0  0  0  0  0  0  0  0  0  0
    0.0860   59.7740   76.4420 C   0  0  0  0  0  0  0  0  0  0  0  0
    1.0950   60.4630   75.6980 O   0  0  0  0  0  0  0  0  0  0  0  0
    2.3190   70.6507   69.0362 H   0  0  0  0  0  0  0  0  0  0  0  0
    0.9590   69.6823   68.3158 H   0  0  0  0  0  0  0  0  0  0  0  0
    1.1680   68.3654   63.7695 H   0  0  0  0  0  0  0  0  0  0  0  0
    4.7138   69.0870   61.4754 H   0  0  0  0  0  0  0  0  0  0  0  0
    5.9157   69.7158   63.5421 H   0  0  0  0  0  0  0  0  0  0  0  0
    4.3293   70.0722   69.4600 H   0  0  0  0  0  0  0  0  0  0  0  0
    7.9724   70.7745   67.3075 H   0  0  0  0  0  0  0  0  0  0  0  0
    6.8379   70.1453   65.2010 H   0  0  0  0  0  0  0  0  0  0  0  0
    1.2696   66.5575   66.6238 H   0  0  0  0  0  0  0  0  0  0  0  0
   -1.1076   65.8377   66.7908 H   0  0  0  0  0  0  0  0  0  0  0  0
   -2.9396   67.5109   66.5486 H   0  0  0  0  0  0  0  0  0  0  0  0
   -2.3962   69.8991   66.0928 H   0  0  0  0  0  0  0  0  0  0  0  0
   -0.0233   70.6277   65.9024 H   0  0  0  0  0  0  0  0  0  0  0  0
    7.8239   71.0544   69.7566 H   0  0  0  0  0  0  0  0  0  0  0  0
    6.3205   70.6248   70.6157 H   0  0  0  0  0  0  0  0  0  0  0  0
    2.6580   68.3305   60.4215 H   0  0  0  0  0  0  0  0  0  0  0  0
    1.1494   68.2136   61.3665 H   0  0  0  0  0  0  0  0  0  0  0  0
    3.3268   68.3822   69.7255 H   0  0  0  0  0  0  0  0  0  0  0  0
    1.8299   68.8997   70.5929 H   0  0  0  0  0  0  0  0  0  0  0  0
    0.9631   67.4734   68.2835 H   0  0  0  0  0  0  0  0  0  0  0  0
    2.3059   66.5092   69.0140 H   0  0  0  0  0  0  0  0  0  0  0  0
    0.8193   67.2892   71.1576 H   0  0  0  0  0  0  0  0  0  0  0  0
   -0.3570   66.9589   69.9623 H   0  0  0  0  0  0  0  0  0  0  0  0
    0.4245   65.0931   71.5880 H   0  0  0  0  0  0  0  0  0  0  0  0
    0.0736   64.7674   69.8401 H   0  0  0  0  0  0  0  0  0  0  0  0
    2.5708   65.2227   69.4075 H   0  0  0  0  0  0  0  0  0  0  0  0
    2.7862   65.1188   71.1961 H   0  0  0  0  0  0  0  0  0  0  0  0
    2.0459   62.8532   71.2633 H   0  0  0  0  0  0  0  0  0  0  0  0
    1.4221   62.9708   69.5386 H   0  0  0  0  0  0  0  0  0  0  0  0
    3.5442   62.9992   68.7348 H   0  0  0  0  0  0  0  0  0  0  0  0
    4.6452   63.1997   71.4615 H   0  0  0  0  0  0  0  0  0  0  0  0
    5.6360   62.6710   70.0596 H   0  0  0  0  0  0  0  0  0  0  0  0
    4.8761   64.2987   70.0596 H   0  0  0  0  0  0  0  0  0  0  0  0
    2.5277   60.7963   69.3168 H   0  0  0  0  0  0  0  0  0  0  0  0
    4.2517   60.8900   68.7669 H   0  0  0  0  0  0  0  0  0  0  0  0
    4.7531   59.6949   70.6179 H   0  0  0  0  0  0  0  0  0  0  0  0
    4.4303   61.2311   71.5267 H   0  0  0  0  0  0  0  0  0  0  0  0
    1.9395   59.8261   70.9671 H   0  0  0  0  0  0  0  0  0  0  0  0
    3.1237   58.7531   71.8323 H   0  0  0  0  0  0  0  0  0  0  0  0
    2.5859   59.7151   73.6109 H   0  0  0  0  0  0  0  0  0  0  0  0
    3.5665   61.5747   74.4350 H   0  0  0  0  0  0  0  0  0  0  0  0
    4.5129   61.2655   72.9399 H   0  0  0  0  0  0  0  0  0  0  0  0
    3.2135   62.5057   72.9399 H   0  0  0  0  0  0  0  0  0  0  0  0
    0.8693   61.4993   71.9862 H   0  0  0  0  0  0  0  0  0  0  0  0
    0.4341   60.2016   73.2273 H   0  0  0  0  0  0  0  0  0  0  0  0
    0.6345   62.5226   77.4133 H   0  0  0  0  0  0  0  0  0  0  0  0
    0.1452   64.8569   76.6952 H   0  0  0  0  0  0  0  0  0  0  0  0
    0.0536   65.4290   74.2741 H   0  0  0  0  0  0  0  0  0  0  0  0
    0.4949   63.6759   72.5625 H   0  0  0  0  0  0  0  0  0  0  0  0
    0.2728   59.9016   77.5185 H   0  0  0  0  0  0  0  0  0  0  0  0
   -0.9018   60.1870   76.1898 H   0  0  0  0  0  0  0  0  0  0  0  0
    0.1111   58.7036   76.1898 H   0  0  0  0  0  0  0  0  0  0  0  0
  2  1  1  0
  3  2  2  0
  4  3  1  0
  5  4  2  0
  6  5  1  0
  7  6  2  0
  8  7  1  0
  9  8  2  0
  9  4  1  0
 10  9  1  0
 11 10  2  0
 11  2  1  0
 12 11  1  0
 13 12  2  0
 14 13  1  0
 15 14  2  0
 15 10  1  0
 16  3  1  0
 17 16  2  0
 18 17  1  0
 19 18  2  0
 20 19  1  0
 21 20  2  0
 21 16  1  0
 22 13  1  0
 23  6  1  0
 24  1  1  0
 25 24  1  0
 26 25  1  0
 27 26  1  0
 28 27  1  0
 29 28  1  0
 30 29  1  0
 31 30  1  0
 32 30  1  0
 33 32  1  0
 34 33  1  0
 35 34  1  0
 36 35  1  0
 37 35  1  0
 39 38  2  0
 40 39  1  0
 41 40  2  0
 42 41  1  0
 43 37  1  0
 43 42  2  0
 43 38  1  0
 45 44  1  0
 45 38  1  0
  1 46  1  0
  1 47  1  0
  5 48  1  0
  7 49  1  0
  8 50  1  0
 12 51  1  0
 14 52  1  0
 15 53  1  0
 17 54  1  0
 18 55  1  0
 19 56  1  0
 20 57  1  0
 21 58  1  0
 22 59  1  0
 22 60  1  0
 23 61  1  0
 23 62  1  0
 24 63  1  0
 24 64  1  0
 25 65  1  0
 25 66  1  0
 26 67  1  0
 26 68  1  0
 27 69  1  0
 27 70  1  0
 28 71  1  0
 28 72  1  0
 29 73  1  0
 29 74  1  0
 30 75  1  6
 31 76  1  0
 31 77  1  0
 31 78  1  0
 32 79  1  0
 32 80  1  0
 33 81  1  0
 33 82  1  0
 34 83  1  0
 34 84  1  0
 35 85  1  1
 36 86  1  0
 36 87  1  0
 36 88  1  0
 37 89  1  0
 37 90  1  0
 39 91  1  0
 40 92  1  0
 41 93  1  0
 42 94  1  0
 44 95  1  0
 44 96  1  0
 44 97  1  0
M  CHG  4   2   1  26   1  30   1  35   1
M  END
>  <score>  (9) 
-8.635

$$$$
