=
     RDKit          3D

 42 44  0  0  0  0  0  0  0  0999 V2000
    1.6530   69.0440   65.0020 C   0  0  0  0  0  0  0  0  0  0  0  0
    2.8230   68.4750   65.3770 C   0  0  0  0  0  0  0  0  0  0  0  0
    3.2920   67.1750   64.8470 C   0  0  0  0  0  0  0  0  0  0  0  0
    2.4550   66.0530   65.0100 C   0  0  0  0  0  0  0  0  0  0  0  0
    2.8150   64.8010   64.5150 C   0  0  0  0  0  0  0  0  0  0  0  0
    4.0320   64.6440   63.8680 C   0  0  0  0  0  0  0  0  0  0  0  0
    4.8980   65.7300   63.7490 C   0  0  0  0  0  0  0  0  0  0  0  0
    4.5570   67.0080   64.2450 C   0  0  0  0  0  0  0  0  0  0  0  0
    5.6600   68.0530   64.1750 C   0  0  0  0  0  0  0  0  0  0  0  0
    5.3400   69.5290   64.4310 C   0  0  0  0  0  0  0  0  0  0  0  0
    4.8820   69.7970   65.8410 C   0  0  0  0  0  0  0  0  0  0  0  0
    3.6580   69.2790   66.2990 C   0  0  0  0  0  0  0  0  0  0  0  0
    3.2480   69.5170   67.6190 C   0  0  0  0  0  0  0  0  0  0  0  0
    4.0440   70.2780   68.4750 C   0  0  0  0  0  0  0  0  0  0  0  0
    5.2520   70.8010   68.0210 C   0  0  0  0  0  0  0  0  0  0  0  0
    5.6720   70.5610   66.7120 C   0  0  0  0  0  0  0  0  0  0  0  0
    0.5890   68.5860   64.0300 C   0  0  0  0  0  0  0  0  0  0  0  0
    0.2520   69.4640   62.8170 C   0  0  0  0  0  0  0  0  0  0  0  0
    2.3850   68.7540   61.6540 C   0  0  0  0  0  0  0  0  0  0  0  0
    0.9240   68.9980   61.5650 N   0  0  0  0  0  4  0  0  0  0  0  0
    1.4393   70.0068   65.4891 H   0  0  0  0  0  0  0  0  0  0  0  0
    1.4974   66.1679   65.5390 H   0  0  0  0  0  0  0  0  0  0  0  0
    2.1382   63.9424   64.6366 H   0  0  0  0  0  0  0  0  0  0  0  0
    4.3128   63.6659   63.4503 H   0  0  0  0  0  0  0  0  0  0  0  0
    5.8713   65.5882   63.2565 H   0  0  0  0  0  0  0  0  0  0  0  0
    6.4203   67.7610   64.9144 H   0  0  0  0  0  0  0  0  0  0  0  0
    5.9510   68.0398   63.1143 H   0  0  0  0  0  0  0  0  0  0  0  0
    6.2459   70.1225   64.2381 H   0  0  0  0  0  0  0  0  0  0  0  0
    4.5150   69.8078   63.7589 H   0  0  0  0  0  0  0  0  0  0  0  0
    2.2955   69.1021   67.9804 H   0  0  0  0  0  0  0  0  0  0  0  0
    3.7175   70.4650   69.5086 H   0  0  0  0  0  0  0  0  0  0  0  0
    5.8767   71.4047   68.6957 H   0  0  0  0  0  0  0  0  0  0  0  0
    6.6293   70.9739   66.3611 H   0  0  0  0  0  0  0  0  0  0  0  0
    0.9100   67.6089   63.6397 H   0  0  0  0  0  0  0  0  0  0  0  0
   -0.3343   68.6019   64.6278 H   0  0  0  0  0  0  0  0  0  0  0  0
   -0.8366   69.4455   62.6603 H   0  0  0  0  0  0  0  0  0  0  0  0
    0.6140   70.4805   63.0308 H   0  0  0  0  0  0  0  0  0  0  0  0
    2.6847   68.7040   62.7112 H   0  0  0  0  0  0  0  0  0  0  0  0
    2.6287   67.8027   61.1584 H   0  0  0  0  0  0  0  0  0  0  0  0
    2.9246   69.5745   61.1584 H   0  0  0  0  0  0  0  0  0  0  0  0
    0.7690   69.7138   60.8407 H   0  0  0  0  0  0  0  0  0  0  0  0
    0.5051   68.0811   61.3537 H   0  0  0  0  0  0  0  0  0  0  0  0
  2  1  2  3
  3  2  1  0
  4  3  2  0
  5  4  1  0
  6  5  2  0
  7  6  1  0
  8  7  2  0
  8  3  1  0
  9  8  1  0
 10  9  1  0
 11 10  1  0
 12  2  1  0
 12 11  2  0
 13 12  1  0
 14 13  2  0
 15 14  1  0
 16 15  2  0
 16 11  1  0
 17  1  1  0
 18 17  1  0
 20 19  1  0
 20 18  1  0
  1 21  1  0
  4 22  1  0
  5 23  1  0
  6 24  1  0
  7 25  1  0
  9 26  1  0
  9 27  1  0
 10 28  1  0
 10 29  1  0
 13 30  1  0
 14 31  1  0
 15 32  1  0
 16 33  1  0
 17 34  1  0
 17 35  1  0
 18 36  1  0
 18 37  1  0
 19 38  1  0
 19 39  1  0
 19 40  1  0
 20 41  1  0
 20 42  1  0
M  CHG  1  20   1
M  END
>  <score>  (1) 
-10.275

$$$$
=
     RDKit          3D

 42 44  0  0  0  0  0  0  0  0999 V2000
    1.5720   67.4170   66.4550 C   0  0  0  0  0  0  0  0  0  0  0  0
    2.2680   68.4590   65.9450 C   0  0  0  0  0  0  0  0  0  0  0  0
    3.1980   69.2790   66.7520 C   0  0  0  0  0  0  0  0  0  0  0  0
    2.6910   69.9150   67.9030 C   0  0  0  0  0  0  0  0  0  0  0  0
    3.5110   70.6820   68.7290 C   0  0  0  0  0  0  0  0  0  0  0  0
    4.8490   70.8480   68.4030 C   0  0  0  0  0  0  0  0  0  0  0  0
    5.3540   70.2740   67.2380 C   0  0  0  0  0  0  0  0  0  0  0  0
    4.5430   69.4960   66.3830 C   0  0  0  0  0  0  0  0  0  0  0  0
    5.1940   69.0620   65.0790 C   0  0  0  0  0  0  0  0  0  0  0  0
    4.5220   68.0060   64.1960 C   0  0  0  0  0  0  0  0  0  0  0  0
    3.2000   68.4600   63.6350 C   0  0  0  0  0  0  0  0  0  0  0  0
    2.1070   68.6840   64.4890 C   0  0  0  0  0  0  0  0  0  0  0  0
    0.8850   69.1250   63.9600 C   0  0  0  0  0  0  0  0  0  0  0  0
    0.7460   69.3300   62.5880 C   0  0  0  0  0  0  0  0  0  0  0  0
    1.8250   69.0990   61.7380 C   0  0  0  0  0  0  0  0  0  0  0  0
    3.0470   68.6690   62.2570 C   0  0  0  0  0  0  0  0  0  0  0  0
    1.5400   66.8280   67.8490 C   0  0  0  0  0  0  0  0  0  0  0  0
    0.3570   67.1510   68.7720 C   0  0  0  0  0  0  0  0  0  0  0  0
   -1.9180   67.0550   67.6670 C   0  0  0  0  0  0  0  0  0  0  0  0
   -0.8650   66.3540   68.4430 N   0  0  0  0  0  4  0  0  0  0  0  0
    0.9161   66.9103   65.7318 H   0  0  0  0  0  0  0  0  0  0  0  0
    1.6260   69.8038   68.1547 H   0  0  0  0  0  0  0  0  0  0  0  0
    3.0995   71.1528   69.6340 H   0  0  0  0  0  0  0  0  0  0  0  0
    5.5093   71.4309   69.0620 H   0  0  0  0  0  0  0  0  0  0  0  0
    6.4112   70.4309   66.9778 H   0  0  0  0  0  0  0  0  0  0  0  0
    5.3029   69.9669   64.4631 H   0  0  0  0  0  0  0  0  0  0  0  0
    6.1141   68.5603   65.4132 H   0  0  0  0  0  0  0  0  0  0  0  0
    5.1952   67.7698   63.3587 H   0  0  0  0  0  0  0  0  0  0  0  0
    4.3261   67.1267   64.8273 H   0  0  0  0  0  0  0  0  0  0  0  0
    0.0328   69.3099   64.6305 H   0  0  0  0  0  0  0  0  0  0  0  0
   -0.2148   69.6738   62.1772 H   0  0  0  0  0  0  0  0  0  0  0  0
    1.7136   69.2559   60.6550 H   0  0  0  0  0  0  0  0  0  0  0  0
    3.8961   68.4928   61.5803 H   0  0  0  0  0  0  0  0  0  0  0  0
    1.5703   65.7342   67.7364 H   0  0  0  0  0  0  0  0  0  0  0  0
    2.3988   67.2976   68.3509 H   0  0  0  0  0  0  0  0  0  0  0  0
    0.6504   66.9335   69.8096 H   0  0  0  0  0  0  0  0  0  0  0  0
    0.1081   68.2136   68.6343 H   0  0  0  0  0  0  0  0  0  0  0  0
   -2.6296   67.5287   68.3593 H   0  0  0  0  0  0  0  0  0  0  0  0
   -1.4548   67.8256   67.0333 H   0  0  0  0  0  0  0  0  0  0  0  0
   -2.4502   66.3303   67.0333 H   0  0  0  0  0  0  0  0  0  0  0  0
   -1.2845   66.0420   69.3305 H   0  0  0  0  0  0  0  0  0  0  0  0
   -0.5387   65.5895   67.8348 H   0  0  0  0  0  0  0  0  0  0  0  0
  2  1  2  3
  3  2  1  0
  4  3  2  0
  5  4  1  0
  6  5  2  0
  7  6  1  0
  8  7  2  0
  8  3  1  0
  9  8  1  0
 10  9  1  0
 11 10  1  0
 12  2  1  0
 12 11  2  0
 13 12  1  0
 14 13  2  0
 15 14  1  0
 16 15  2  0
 16 11  1  0
 17  1  1  0
 18 17  1  0
 20 19  1  0
 20 18  1  0
  1 21  1  0
  4 22  1  0
  5 23  1  0
  6 24  1  0
  7 25  1  0
  9 26  1  0
  9 27  1  0
 10 28  1  0
 10 29  1  0
 13 30  1  0
 14 31  1  0
 15 32  1  0
 16 33  1  0
 17 34  1  0
 17 35  1  0
 18 36  1  0
 18 37  1  0
 19 38  1  0
 19 39  1  0
 19 40  1  0
 20 41  1  0
 20 42  1  0
M  CHG  1  20   1
M  END
>  <score>  (2) 
-10.244

$$$$
=
     RDKit          3D

 42 44  0  0  0  0  0  0  0  0999 V2000
    4.5510   67.2090   64.2640 C   0  0  0  0  0  0  0  0  0  0  0  0
    3.7870   68.2980   64.5130 C   0  0  0  0  0  0  0  0  0  0  0  0
    2.5850   68.6360   63.7190 C   0  0  0  0  0  0  0  0  0  0  0  0
    2.7350   68.8040   62.3280 C   0  0  0  0  0  0  0  0  0  0  0  0
    1.6450   69.0960   61.5100 C   0  0  0  0  0  0  0  0  0  0  0  0
    0.3880   69.2510   62.0740 C   0  0  0  0  0  0  0  0  0  0  0  0
    0.2300   69.1450   63.4550 C   0  0  0  0  0  0  0  0  0  0  0  0
    1.3190   68.8530   64.3050 C   0  0  0  0  0  0  0  0  0  0  0  0
    1.0220   68.9170   65.7950 C   0  0  0  0  0  0  0  0  0  0  0  0
    2.0330   68.3690   66.8070 C   0  0  0  0  0  0  0  0  0  0  0  0
    3.3310   69.1330   66.8150 C   0  0  0  0  0  0  0  0  0  0  0  0
    4.1810   69.0990   65.6960 C   0  0  0  0  0  0  0  0  0  0  0  0
    5.3780   69.8280   65.7040 C   0  0  0  0  0  0  0  0  0  0  0  0
    5.7380   70.5760   66.8250 C   0  0  0  0  0  0  0  0  0  0  0  0
    4.9040   70.6030   67.9400 C   0  0  0  0  0  0  0  0  0  0  0  0
    3.7050   69.8880   67.9360 C   0  0  0  0  0  0  0  0  0  0  0  0
    4.4240   66.1190   63.2230 C   0  0  0  0  0  0  0  0  0  0  0  0
    4.2780   64.6610   63.6770 C   0  0  0  0  0  0  0  0  0  0  0  0
    3.8310   63.6880   65.9700 C   0  0  0  0  0  0  0  0  0  0  0  0
    3.3430   64.5080   64.8340 N   0  0  0  0  0  4  0  0  0  0  0  0
    5.4149   67.0971   64.9357 H   0  0  0  0  0  0  0  0  0  0  0  0
    3.7337   68.7025   61.8782 H   0  0  0  0  0  0  0  0  0  0  0  0
    1.7812   69.2028   60.4237 H   0  0  0  0  0  0  0  0  0  0  0  0
   -0.4823   69.4571   61.4335 H   0  0  0  0  0  0  0  0  0  0  0  0
   -0.7680   69.2925   63.8935 H   0  0  0  0  0  0  0  0  0  0  0  0
    0.8702   69.9781   66.0422 H   0  0  0  0  0  0  0  0  0  0  0  0
    0.1623   68.2401   65.9083 H   0  0  0  0  0  0  0  0  0  0  0  0
    1.5881   68.4234   67.8115 H   0  0  0  0  0  0  0  0  0  0  0  0
    2.2625   67.3336   66.5150 H   0  0  0  0  0  0  0  0  0  0  0  0
    6.0362   69.8102   64.8228 H   0  0  0  0  0  0  0  0  0  0  0  0
    6.6799   71.1441   66.8283 H   0  0  0  0  0  0  0  0  0  0  0  0
    5.1906   71.1890   68.8257 H   0  0  0  0  0  0  0  0  0  0  0  0
    3.0489   69.9170   68.8185 H   0  0  0  0  0  0  0  0  0  0  0  0
    3.5378   66.3565   62.6161 H   0  0  0  0  0  0  0  0  0  0  0  0
    5.3960   66.1356   62.7083 H   0  0  0  0  0  0  0  0  0  0  0  0
    3.8953   64.0666   62.8342 H   0  0  0  0  0  0  0  0  0  0  0  0
    5.2695   64.3134   64.0027 H   0  0  0  0  0  0  0  0  0  0  0  0
    3.5455   64.1677   66.9178 H   0  0  0  0  0  0  0  0  0  0  0  0
    3.3829   62.6848   65.9172 H   0  0  0  0  0  0  0  0  0  0  0  0
    4.9265   63.6035   65.9172 H   0  0  0  0  0  0  0  0  0  0  0  0
    2.4775   64.0739   64.4827 H   0  0  0  0  0  0  0  0  0  0  0  0
    3.2190   65.4573   65.2140 H   0  0  0  0  0  0  0  0  0  0  0  0
  2  1  2  3
  3  2  1  0
  4  3  2  0
  5  4  1  0
  6  5  2  0
  7  6  1  0
  8  7  2  0
  8  3  1  0
  9  8  1  0
 10  9  1  0
 11 10  1  0
 12  2  1  0
 12 11  2  0
 13 12  1  0
 14 13  2  0
 15 14  1  0
 16 15  2  0
 16 11  1  0
 17  1  1  0
 18 17  1  0
 20 19  1  0
 20 18  1  0
  1 21  1  0
  4 22  1  0
  5 23  1  0
  6 24  1  0
  7 25  1  0
  9 26  1  0
  9 27  1  0
 10 28  1  0
 10 29  1  0
 13 30  1  0
 14 31  1  0
 15 32  1  0
 16 33  1  0
 17 34  1  0
 17 35  1  0
 18 36  1  0
 18 37  1  0
 19 38  1  0
 19 39  1  0
 19 40  1  0
 20 41  1  0
 20 42  1  0
M  CHG  1  20   1
M  END
>  <score>  (3) 
-10.151

$$$$
=
     RDKit          3D

 42 44  0  0  0  0  0  0  0  0999 V2000
    1.8080   69.1650   65.2920 C   0  0  0  0  0  0  0  0  0  0  0  0
    3.0140   68.5860   65.4980 C   0  0  0  0  0  0  0  0  0  0  0  0
    3.3880   67.2780   64.9170 C   0  0  0  0  0  0  0  0  0  0  0  0
    2.5740   66.1660   65.2110 C   0  0  0  0  0  0  0  0  0  0  0  0
    2.8470   64.9060   64.6800 C   0  0  0  0  0  0  0  0  0  0  0  0
    3.9550   64.7310   63.8650 C   0  0  0  0  0  0  0  0  0  0  0  0
    4.8040   65.8070   63.6100 C   0  0  0  0  0  0  0  0  0  0  0  0
    4.5510   67.0920   64.1390 C   0  0  0  0  0  0  0  0  0  0  0  0
    5.6410   68.1250   63.8980 C   0  0  0  0  0  0  0  0  0  0  0  0
    5.3750   69.6070   64.1850 C   0  0  0  0  0  0  0  0  0  0  0  0
    5.1310   69.8900   65.6440 C   0  0  0  0  0  0  0  0  0  0  0  0
    3.9830   69.3890   66.2800 C   0  0  0  0  0  0  0  0  0  0  0  0
    3.7720   69.6420   67.6430 C   0  0  0  0  0  0  0  0  0  0  0  0
    4.6920   70.4010   68.3670 C   0  0  0  0  0  0  0  0  0  0  0  0
    5.8250   70.9080   67.7360 C   0  0  0  0  0  0  0  0  0  0  0  0
    6.0470   70.6530   66.3820 C   0  0  0  0  0  0  0  0  0  0  0  0
    0.6080   68.7100   64.4900 C   0  0  0  0  0  0  0  0  0  0  0  0
   -0.7670   68.6450   65.1680 C   0  0  0  0  0  0  0  0  0  0  0  0
   -1.9660   67.7000   67.1860 C   0  0  0  0  0  0  0  0  0  0  0  0
   -0.8380   67.5920   66.2280 N   0  0  0  0  0  4  0  0  0  0  0  0
    1.6775   70.1346   65.7948 H   0  0  0  0  0  0  0  0  0  0  0  0
    1.7051   66.2946   65.8732 H   0  0  0  0  0  0  0  0  0  0  0  0
    2.1871   64.0556   64.9064 H   0  0  0  0  0  0  0  0  0  0  0  0
    4.1635   63.7464   63.4211 H   0  0  0  0  0  0  0  0  0  0  0  0
    5.6930   65.6514   62.9812 H   0  0  0  0  0  0  0  0  0  0  0  0
    6.4991   67.8310   64.5202 H   0  0  0  0  0  0  0  0  0  0  0  0
    5.7729   68.1006   62.8062 H   0  0  0  0  0  0  0  0  0  0  0  0
    6.2481   70.1898   63.8563 H   0  0  0  0  0  0  0  0  0  0  0  0
    4.4631   69.8892   63.6384 H   0  0  0  0  0  0  0  0  0  0  0  0
    2.8782   69.2407   68.1431 H   0  0  0  0  0  0  0  0  0  0  0  0
    4.5224   70.5988   69.4357 H   0  0  0  0  0  0  0  0  0  0  0  0
    6.5469   71.5111   68.3062 H   0  0  0  0  0  0  0  0  0  0  0  0
    6.9462   71.0531   65.8907 H   0  0  0  0  0  0  0  0  0  0  0  0
    0.5129   69.3975   63.6366 H   0  0  0  0  0  0  0  0  0  0  0  0
    0.8336   67.6589   64.2568 H   0  0  0  0  0  0  0  0  0  0  0  0
   -0.9796   69.6217   65.6272 H   0  0  0  0  0  0  0  0  0  0  0  0
   -1.5070   68.3895   64.3953 H   0  0  0  0  0  0  0  0  0  0  0  0
   -1.5782   67.6629   68.2147 H   0  0  0  0  0  0  0  0  0  0  0  0
   -2.4924   68.6527   67.0267 H   0  0  0  0  0  0  0  0  0  0  0  0
   -2.6636   66.8645   67.0267 H   0  0  0  0  0  0  0  0  0  0  0  0
    0.0379   67.6310   66.7686 H   0  0  0  0  0  0  0  0  0  0  0  0
   -0.9878   66.7055   65.7255 H   0  0  0  0  0  0  0  0  0  0  0  0
  2  1  2  3
  3  2  1  0
  4  3  2  0
  5  4  1  0
  6  5  2  0
  7  6  1  0
  8  7  2  0
  8  3  1  0
  9  8  1  0
 10  9  1  0
 11 10  1  0
 12  2  1  0
 12 11  2  0
 13 12  1  0
 14 13  2  0
 15 14  1  0
 16 15  2  0
 16 11  1  0
 17  1  1  0
 18 17  1  0
 20 19  1  0
 20 18  1  0
  1 21  1  0
  4 22  1  0
  5 23  1  0
  6 24  1  0
  7 25  1  0
  9 26  1  0
  9 27  1  0
 10 28  1  0
 10 29  1  0
 13 30  1  0
 14 31  1  0
 15 32  1  0
 16 33  1  0
 17 34  1  0
 17 35  1  0
 18 36  1  0
 18 37  1  0
 19 38  1  0
 19 39  1  0
 19 40  1  0
 20 41  1  0
 20 42  1  0
M  CHG  1  20   1
M  END
>  <score>  (4) 
-10.142

$$$$
=
     RDKit          3D

 42 44  0  0  0  0  0  0  0  0999 V2000
    3.0330   68.1260   66.0050 C   0  0  0  0  0  0  0  0  0  0  0  0
    2.7010   67.5790   64.8110 C   0  0  0  0  0  0  0  0  0  0  0  0
    1.8240   68.2570   63.8320 C   0  0  0  0  0  0  0  0  0  0  0  0
    0.5330   68.6370   64.2500 C   0  0  0  0  0  0  0  0  0  0  0  0
   -0.3420   69.3030   63.3930 C   0  0  0  0  0  0  0  0  0  0  0  0
    0.0520   69.5800   62.0930 C   0  0  0  0  0  0  0  0  0  0  0  0
    1.3040   69.1610   61.6440 C   0  0  0  0  0  0  0  0  0  0  0  0
    2.2060   68.4820   62.4920 C   0  0  0  0  0  0  0  0  0  0  0  0
    3.4670   67.9590   61.8210 C   0  0  0  0  0  0  0  0  0  0  0  0
    4.6340   67.4440   62.6690 C   0  0  0  0  0  0  0  0  0  0  0  0
    4.2870   66.2120   63.4630 C   0  0  0  0  0  0  0  0  0  0  0  0
    3.3440   66.2800   64.5020 C   0  0  0  0  0  0  0  0  0  0  0  0
    3.0130   65.1250   65.2240 C   0  0  0  0  0  0  0  0  0  0  0  0
    3.6270   63.9090   64.9240 C   0  0  0  0  0  0  0  0  0  0  0  0
    4.5710   63.8400   63.9020 C   0  0  0  0  0  0  0  0  0  0  0  0
    4.8990   64.9840   63.1730 C   0  0  0  0  0  0  0  0  0  0  0  0
    2.6600   69.4510   66.6310 C   0  0  0  0  0  0  0  0  0  0  0  0
    1.8360   69.4630   67.9260 C   0  0  0  0  0  0  0  0  0  0  0  0
    3.9160   70.5650   68.8540 C   0  0  0  0  0  0  0  0  0  0  0  0
    2.4660   70.2880   69.0030 N   0  0  0  0  0  4  0  0  0  0  0  0
    3.6873   67.4974   66.6269 H   0  0  0  0  0  0  0  0  0  0  0  0
    0.2086   68.4031   65.2747 H   0  0  0  0  0  0  0  0  0  0  0  0
   -1.3386   69.6067   63.7460 H   0  0  0  0  0  0  0  0  0  0  0  0
   -0.6210   70.1287   61.4177 H   0  0  0  0  0  0  0  0  0  0  0  0
    1.5962   69.3645   60.6032 H   0  0  0  0  0  0  0  0  0  0  0  0
    3.1578   67.1280   61.1699 H   0  0  0  0  0  0  0  0  0  0  0  0
    3.8842   68.8551   61.3383 H   0  0  0  0  0  0  0  0  0  0  0  0
    5.4741   67.2048   62.0004 H   0  0  0  0  0  0  0  0  0  0  0  0
    4.8928   68.2358   63.3873 H   0  0  0  0  0  0  0  0  0  0  0  0
    2.2664   65.1778   66.0301 H   0  0  0  0  0  0  0  0  0  0  0  0
    3.3659   63.0052   65.4941 H   0  0  0  0  0  0  0  0  0  0  0  0
    5.0589   62.8820   63.6691 H   0  0  0  0  0  0  0  0  0  0  0  0
    5.6429   64.9220   62.3651 H   0  0  0  0  0  0  0  0  0  0  0  0
    3.5998   69.9818   66.8434 H   0  0  0  0  0  0  0  0  0  0  0  0
    1.9888   69.9101   65.8902 H   0  0  0  0  0  0  0  0  0  0  0  0
    0.8396   69.8736   67.7054 H   0  0  0  0  0  0  0  0  0  0  0  0
    1.7770   68.4274   68.2921 H   0  0  0  0  0  0  0  0  0  0  0  0
    4.3766   70.6530   69.8490 H   0  0  0  0  0  0  0  0  0  0  0  0
    4.3917   69.7415   68.3013 H   0  0  0  0  0  0  0  0  0  0  0  0
    4.0547   71.5059   68.3013 H   0  0  0  0  0  0  0  0  0  0  0  0
    2.3309   69.7940   69.8966 H   0  0  0  0  0  0  0  0  0  0  0  0
    2.0036   71.2070   68.9517 H   0  0  0  0  0  0  0  0  0  0  0  0
  2  1  2  3
  3  2  1  0
  4  3  2  0
  5  4  1  0
  6  5  2  0
  7  6  1  0
  8  7  2  0
  8  3  1  0
  9  8  1  0
 10  9  1  0
 11 10  1  0
 12  2  1  0
 12 11  2  0
 13 12  1  0
 14 13  2  0
 15 14  1  0
 16 15  2  0
 16 11  1  0
 17  1  1  0
 18 17  1  0
 20 19  1  0
 20 18  1  0
  1 21  1  0
  4 22  1  0
  5 23  1  0
  6 24  1  0
  7 25  1  0
  9 26  1  0
  9 27  1  0
 10 28  1  0
 10 29  1  0
 13 30  1  0
 14 31  1  0
 15 32  1  0
 16 33  1  0
 17 34  1  0
 17 35  1  0
 18 36  1  0
 18 37  1  0
 19 38  1  0
 19 39  1  0
 19 40  1  0
 20 41  1  0
 20 42  1  0
M  CHG  1  20   1
M  END
>  <score>  (5) 
-9.052

$$$$
=
     RDKit          3D

 42 44  0  0  0  0  0  0  0  0999 V2000
    3.0960   69.5170   66.9730 C   0  0  0  0  0  0  0  0  0  0  0  0
    2.3360   68.6140   66.3090 C   0  0  0  0  0  0  0  0  0  0  0  0
    1.0850   68.0520   66.8640 C   0  0  0  0  0  0  0  0  0  0  0  0
    1.1500   67.3910   68.1080 C   0  0  0  0  0  0  0  0  0  0  0  0
    0.0100   66.8590   68.7080 C   0  0  0  0  0  0  0  0  0  0  0  0
   -1.2130   66.9560   68.0610 C   0  0  0  0  0  0  0  0  0  0  0  0
   -1.2860   67.5550   66.8040 C   0  0  0  0  0  0  0  0  0  0  0  0
   -0.1450   68.0990   66.1740 C   0  0  0  0  0  0  0  0  0  0  0  0
   -0.3530   68.5820   64.7480 C   0  0  0  0  0  0  0  0  0  0  0  0
    0.7230   69.4240   64.0550 C   0  0  0  0  0  0  0  0  0  0  0  0
    2.0120   68.6740   63.8400 C   0  0  0  0  0  0  0  0  0  0  0  0
    2.7920   68.2780   64.9400 C   0  0  0  0  0  0  0  0  0  0  0  0
    3.9810   67.5640   64.7330 C   0  0  0  0  0  0  0  0  0  0  0  0
    4.3990   67.2570   63.4380 C   0  0  0  0  0  0  0  0  0  0  0  0
    3.6330   67.6570   62.3460 C   0  0  0  0  0  0  0  0  0  0  0  0
    2.4440   68.3600   62.5440 C   0  0  0  0  0  0  0  0  0  0  0  0
    2.9170   70.1640   68.3280 C   0  0  0  0  0  0  0  0  0  0  0  0
    4.1570   70.5040   69.1660 C   0  0  0  0  0  0  0  0  0  0  0  0
    6.4100   70.6010   68.0200 C   0  0  0  0  0  0  0  0  0  0  0  0
    5.1640   71.3070   68.4060 N   0  0  0  0  0  4  0  0  0  0  0  0
    4.0002   69.8349   66.4332 H   0  0  0  0  0  0  0  0  0  0  0  0
    2.1210   67.2932   68.6156 H   0  0  0  0  0  0  0  0  0  0  0  0
    0.0798   66.3653   69.6885 H   0  0  0  0  0  0  0  0  0  0  0  0
   -2.1224   66.5617   68.5380 H   0  0  0  0  0  0  0  0  0  0  0  0
   -2.2571   67.6051   66.2898 H   0  0  0  0  0  0  0  0  0  0  0  0
   -0.5011   67.6852   64.1284 H   0  0  0  0  0  0  0  0  0  0  0  0
   -1.1972   69.2810   64.8407 H   0  0  0  0  0  0  0  0  0  0  0  0
    0.3384   69.7472   63.0764 H   0  0  0  0  0  0  0  0  0  0  0  0
    0.9456   70.2777   64.7120 H   0  0  0  0  0  0  0  0  0  0  0  0
    4.5860   67.2450   65.5945 H   0  0  0  0  0  0  0  0  0  0  0  0
    5.3336   66.6990   63.2794 H   0  0  0  0  0  0  0  0  0  0  0  0
    3.9659   67.4183   61.3251 H   0  0  0  0  0  0  0  0  0  0  0  0
    1.8417   68.6698   61.6773 H   0  0  0  0  0  0  0  0  0  0  0  0
    2.3715   71.1052   68.1650 H   0  0  0  0  0  0  0  0  0  0  0  0
    2.4050   69.3916   68.9207 H   0  0  0  0  0  0  0  0  0  0  0  0
    3.8391   71.0809   70.0470 H   0  0  0  0  0  0  0  0  0  0  0  0
    4.6353   69.5556   69.4520 H   0  0  0  0  0  0  0  0  0  0  0  0
    6.9528   70.2934   68.9259 H   0  0  0  0  0  0  0  0  0  0  0  0
    6.1578   69.7116   67.4239 H   0  0  0  0  0  0  0  0  0  0  0  0
    7.0434   71.2744   67.4239 H   0  0  0  0  0  0  0  0  0  0  0  0
    5.4280   72.1134   68.9899 H   0  0  0  0  0  0  0  0  0  0  0  0
    4.7037   71.5573   67.5193 H   0  0  0  0  0  0  0  0  0  0  0  0
  2  1  2  3
  3  2  1  0
  4  3  2  0
  5  4  1  0
  6  5  2  0
  7  6  1  0
  8  7  2  0
  8  3  1  0
  9  8  1  0
 10  9  1  0
 11 10  1  0
 12  2  1  0
 12 11  2  0
 13 12  1  0
 14 13  2  0
 15 14  1  0
 16 15  2  0
 16 11  1  0
 17  1  1  0
 18 17  1  0
 20 19  1  0
 20 18  1  0
  1 21  1  0
  4 22  1  0
  5 23  1  0
  6 24  1  0
  7 25  1  0
  9 26  1  0
  9 27  1  0
 10 28  1  0
 10 29  1  0
 13 30  1  0
 14 31  1  0
 15 32  1  0
 16 33  1  0
 17 34  1  0
 17 35  1  0
 18 36  1  0
 18 37  1  0
 19 38  1  0
 19 39  1  0
 19 40  1  0
 20 41  1  0
 20 42  1  0
M  CHG  1  20   1
M  END
>  <score>  (6) 
-8.943

$$$$
=
     RDKit          3D

 42 44  0  0  0  0  0  0  0  0999 V2000
    1.8240   67.0450   64.8680 C   0  0  0  0  0  0  0  0  0  0  0  0
    2.3050   68.2310   64.4280 C   0  0  0  0  0  0  0  0  0  0  0  0
    3.4740   68.9020   65.0380 C   0  0  0  0  0  0  0  0  0  0  0  0
    3.4220   69.2000   66.4150 C   0  0  0  0  0  0  0  0  0  0  0  0
    4.4940   69.8070   67.0670 C   0  0  0  0  0  0  0  0  0  0  0  0
    5.6280   70.1500   66.3480 C   0  0  0  0  0  0  0  0  0  0  0  0
    5.6750   69.9150   64.9740 C   0  0  0  0  0  0  0  0  0  0  0  0
    4.6010   69.3050   64.2900 C   0  0  0  0  0  0  0  0  0  0  0  0
    4.7350   69.2510   62.7760 C   0  0  0  0  0  0  0  0  0  0  0  0
    3.7770   68.3890   61.9480 C   0  0  0  0  0  0  0  0  0  0  0  0
    2.3480   68.8610   62.0180 C   0  0  0  0  0  0  0  0  0  0  0  0
    1.6360   68.7860   63.2270 C   0  0  0  0  0  0  0  0  0  0  0  0
    0.3130   69.2450   63.2890 C   0  0  0  0  0  0  0  0  0  0  0  0
   -0.3050   69.7630   62.1520 C   0  0  0  0  0  0  0  0  0  0  0  0
    0.3950   69.8290   60.9490 C   0  0  0  0  0  0  0  0  0  0  0  0
    1.7150   69.3830   60.8810 C   0  0  0  0  0  0  0  0  0  0  0  0
    2.2830   66.1370   65.9870 C   0  0  0  0  0  0  0  0  0  0  0  0
    3.1380   64.9080   65.6530 C   0  0  0  0  0  0  0  0  0  0  0  0
    4.5170   65.2930   63.5670 C   0  0  0  0  0  0  0  0  0  0  0  0
    3.3020   64.7030   64.1810 N   0  0  0  0  0  4  0  0  0  0  0  0
    0.9466   66.6775   64.3157 H   0  0  0  0  0  0  0  0  0  0  0  0
    2.5166   68.9482   66.9867 H   0  0  0  0  0  0  0  0  0  0  0  0
    4.4402   70.0126   68.1463 H   0  0  0  0  0  0  0  0  0  0  0  0
    6.4884   70.6062   66.8594 H   0  0  0  0  0  0  0  0  0  0  0  0
    6.5710   70.2123   64.4093 H   0  0  0  0  0  0  0  0  0  0  0  0
    4.6273   70.2833   62.4116 H   0  0  0  0  0  0  0  0  0  0  0  0
    5.7072   68.7583   62.6278 H   0  0  0  0  0  0  0  0  0  0  0  0
    4.1028   68.4134   60.8977 H   0  0  0  0  0  0  0  0  0  0  0  0
    3.8075   67.3714   62.3647 H   0  0  0  0  0  0  0  0  0  0  0  0
   -0.2398   69.1962   64.2388 H   0  0  0  0  0  0  0  0  0  0  0  0
   -1.3444   70.1194   62.2044 H   0  0  0  0  0  0  0  0  0  0  0  0
   -0.0944   70.2337   60.0509 H   0  0  0  0  0  0  0  0  0  0  0  0
    2.2630   69.4412   59.9290 H   0  0  0  0  0  0  0  0  0  0  0  0
    2.8685   66.7559   66.6828 H   0  0  0  0  0  0  0  0  0  0  0  0
    1.3475   65.7065   66.3738 H   0  0  0  0  0  0  0  0  0  0  0  0
    4.1331   65.0384   66.1033 H   0  0  0  0  0  0  0  0  0  0  0  0
    2.6221   64.0242   66.0565 H   0  0  0  0  0  0  0  0  0  0  0  0
    5.2033   65.6263   64.3594 H   0  0  0  0  0  0  0  0  0  0  0  0
    5.0166   64.5371   62.9432 H   0  0  0  0  0  0  0  0  0  0  0  0
    4.2319   66.1530   62.9432 H   0  0  0  0  0  0  0  0  0  0  0  0
    2.4821   65.1153   63.7134 H   0  0  0  0  0  0  0  0  0  0  0  0
    3.3964   63.6852   64.0541 H   0  0  0  0  0  0  0  0  0  0  0  0
  2  1  2  3
  3  2  1  0
  4  3  2  0
  5  4  1  0
  6  5  2  0
  7  6  1  0
  8  7  2  0
  8  3  1  0
  9  8  1  0
 10  9  1  0
 11 10  1  0
 12  2  1  0
 12 11  2  0
 13 12  1  0
 14 13  2  0
 15 14  1  0
 16 15  2  0
 16 11  1  0
 17  1  1  0
 18 17  1  0
 20 19  1  0
 20 18  1  0
  1 21  1  0
  4 22  1  0
  5 23  1  0
  6 24  1  0
  7 25  1  0
  9 26  1  0
  9 27  1  0
 10 28  1  0
 10 29  1  0
 13 30  1  0
 14 31  1  0
 15 32  1  0
 16 33  1  0
 17 34  1  0
 17 35  1  0
 18 36  1  0
 18 37  1  0
 19 38  1  0
 19 39  1  0
 19 40  1  0
 20 41  1  0
 20 42  1  0
M  CHG  1  20   1
M  END
>  <score>  (7) 
-8.593

$$$$
=
     RDKit          3D

 42 44  0  0  0  0  0  0  0  0999 V2000
    3.1560   60.3710   73.6700 C   0  0  0  0  0  0  0  0  0  0  0  0
    2.1670   60.6260   72.7810 C   0  0  0  0  0  0  0  0  0  0  0  0
    0.7310   60.5190   73.1230 C   0  0  0  0  0  0  0  0  0  0  0  0
    0.2570   59.2840   73.6100 C   0  0  0  0  0  0  0  0  0  0  0  0
   -1.0770   59.1130   73.9780 C   0  0  0  0  0  0  0  0  0  0  0  0
   -1.9660   60.1690   73.8410 C   0  0  0  0  0  0  0  0  0  0  0  0
   -1.5270   61.3800   73.3060 C   0  0  0  0  0  0  0  0  0  0  0  0
   -0.1820   61.5770   72.9240 C   0  0  0  0  0  0  0  0  0  0  0  0
    0.1130   62.8930   72.2220 C   0  0  0  0  0  0  0  0  0  0  0  0
    1.5610   63.3390   71.9960 C   0  0  0  0  0  0  0  0  0  0  0  0
    2.3200   62.4280   71.0680 C   0  0  0  0  0  0  0  0  0  0  0  0
    2.6110   61.1070   71.4520 C   0  0  0  0  0  0  0  0  0  0  0  0
    3.3020   60.2600   70.5740 C   0  0  0  0  0  0  0  0  0  0  0  0
    3.7150   60.7260   69.3270 C   0  0  0  0  0  0  0  0  0  0  0  0
    3.4390   62.0370   68.9480 C   0  0  0  0  0  0  0  0  0  0  0  0
    2.7430   62.8850   69.8110 C   0  0  0  0  0  0  0  0  0  0  0  0
    3.1060   59.9540   75.1230 C   0  0  0  0  0  0  0  0  0  0  0  0
    3.7290   58.6150   75.5410 C   0  0  0  0  0  0  0  0  0  0  0  0
    2.1950   56.6100   75.3770 C   0  0  0  0  0  0  0  0  0  0  0  0
    3.2210   57.4660   74.7310 N   0  0  0  0  0  4  0  0  0  0  0  0
    4.1722   60.4873   73.2652 H   0  0  0  0  0  0  0  0  0  0  0  0
    0.9538   58.4378   73.7016 H   0  0  0  0  0  0  0  0  0  0  0  0
   -1.4223   58.1468   74.3745 H   0  0  0  0  0  0  0  0  0  0  0  0
   -3.0142   60.0517   74.1534 H   0  0  0  0  0  0  0  0  0  0  0  0
   -2.2466   62.2021   73.1785 H   0  0  0  0  0  0  0  0  0  0  0  0
   -0.3588   62.8352   71.2300 H   0  0  0  0  0  0  0  0  0  0  0  0
   -0.2733   63.6445   72.9263 H   0  0  0  0  0  0  0  0  0  0  0  0
    1.5527   64.3508   71.5645 H   0  0  0  0  0  0  0  0  0  0  0  0
    2.0692   63.3122   72.9712 H   0  0  0  0  0  0  0  0  0  0  0  0
    3.5191   59.2232   70.8706 H   0  0  0  0  0  0  0  0  0  0  0  0
    4.2588   60.0583   68.6426 H   0  0  0  0  0  0  0  0  0  0  0  0
    3.7703   62.4054   67.9659 H   0  0  0  0  0  0  0  0  0  0  0  0
    2.5248   63.9183   69.5034 H   0  0  0  0  0  0  0  0  0  0  0  0
    3.6158   60.7395   75.7002 H   0  0  0  0  0  0  0  0  0  0  0  0
    2.0324   59.8144   75.3176 H   0  0  0  0  0  0  0  0  0  0  0  0
    4.8199   58.6796   75.4151 H   0  0  0  0  0  0  0  0  0  0  0  0
    3.4513   58.4316   76.5895 H   0  0  0  0  0  0  0  0  0  0  0  0
    2.2881   56.6877   76.4703 H   0  0  0  0  0  0  0  0  0  0  0  0
    1.1928   56.9436   75.0697 H   0  0  0  0  0  0  0  0  0  0  0  0
    2.3436   55.5643   75.0697 H   0  0  0  0  0  0  0  0  0  0  0  0
    4.0257   56.8679   74.4952 H   0  0  0  0  0  0  0  0  0  0  0  0
    2.7532   57.8891   73.9167 H   0  0  0  0  0  0  0  0  0  0  0  0
  2  1  2  3
  3  2  1  0
  4  3  2  0
  5  4  1  0
  6  5  2  0
  7  6  1  0
  8  7  2  0
  8  3  1  0
  9  8  1  0
 10  9  1  0
 11 10  1  0
 12  2  1  0
 12 11  2  0
 13 12  1  0
 14 13  2  0
 15 14  1  0
 16 15  2  0
 16 11  1  0
 17  1  1  0
 18 17  1  0
 20 19  1  0
 20 18  1  0
  1 21  1  0
  4 22  1  0
  5 23  1  0
  6 24  1  0
  7 25  1  0
  9 26  1  0
  9 27  1  0
 10 28  1  0
 10 29  1  0
 13 30  1  0
 14 31  1  0
 15 32  1  0
 16 33  1  0
 17 34  1  0
 17 35  1  0
 18 36  1  0
 18 37  1  0
 19 38  1  0
 19 39  1  0
 19 40  1  0
 20 41  1  0
 20 42  1  0
M  CHG  1  20   1
M  END
>  <score>  (8) 
-8.114

$$$$
=
     RDKit          3D

 42 44  0  0  0  0  0  0  0  0999 V2000
    1.1640   60.9470   73.0360 C   0  0  0  0  0  0  0  0  0  0  0  0
    1.7130   62.1720   72.8590 C   0  0  0  0  0  0  0  0  0  0  0  0
    2.8680   62.4150   71.9670 C   0  0  0  0  0  0  0  0  0  0  0  0
    4.0530   61.6900   72.2060 C   0  0  0  0  0  0  0  0  0  0  0  0
    5.1750   61.8440   71.3920 C   0  0  0  0  0  0  0  0  0  0  0  0
    5.1380   62.7460   70.3390 C   0  0  0  0  0  0  0  0  0  0  0  0
    3.9950   63.5130   70.1240 C   0  0  0  0  0  0  0  0  0  0  0  0
    2.8470   63.3780   70.9360 C   0  0  0  0  0  0  0  0  0  0  0  0
    1.7370   64.3830   70.6730 C   0  0  0  0  0  0  0  0  0  0  0  0
    0.3520   64.1810   71.2940 C   0  0  0  0  0  0  0  0  0  0  0  0
    0.3620   64.2630   72.7980 C   0  0  0  0  0  0  0  0  0  0  0  0
    1.0290   63.2860   73.5570 C   0  0  0  0  0  0  0  0  0  0  0  0
    1.0500   63.3800   74.9550 C   0  0  0  0  0  0  0  0  0  0  0  0
    0.4000   64.4320   75.5990 C   0  0  0  0  0  0  0  0  0  0  0  0
   -0.2710   65.3970   74.8510 C   0  0  0  0  0  0  0  0  0  0  0  0
   -0.2890   65.3160   73.4580 C   0  0  0  0  0  0  0  0  0  0  0  0
    1.5140   59.6030   72.4370 C   0  0  0  0  0  0  0  0  0  0  0  0
    2.4610   58.6660   73.2000 C   0  0  0  0  0  0  0  0  0  0  0  0
    3.3610   58.0160   70.9270 C   0  0  0  0  0  0  0  0  0  0  0  0
    3.6250   58.2240   72.3720 N   0  0  0  0  0  4  0  0  0  0  0  0
    0.3165   60.9256   73.7370 H   0  0  0  0  0  0  0  0  0  0  0  0
    4.0937   60.9882   73.0521 H   0  0  0  0  0  0  0  0  0  0  0  0
    6.0833   61.2540   71.5839 H   0  0  0  0  0  0  0  0  0  0  0  0
    6.0086   62.8554   69.6756 H   0  0  0  0  0  0  0  0  0  0  0  0
    3.9863   64.2425   69.3007 H   0  0  0  0  0  0  0  0  0  0  0  0
    2.1030   65.3585   71.0259 H   0  0  0  0  0  0  0  0  0  0  0  0
    1.5473   64.2706   69.5953 H   0  0  0  0  0  0  0  0  0  0  0  0
   -0.3228   64.9579   70.9054 H   0  0  0  0  0  0  0  0  0  0  0  0
    0.0148   63.1698   71.0225 H   0  0  0  0  0  0  0  0  0  0  0  0
    1.5817   62.6204   75.5469 H   0  0  0  0  0  0  0  0  0  0  0  0
    0.4170   64.5000   76.6968 H   0  0  0  0  0  0  0  0  0  0  0  0
   -0.7876   66.2244   75.3595 H   0  0  0  0  0  0  0  0  0  0  0  0
   -0.8174   66.0833   72.8732 H   0  0  0  0  0  0  0  0  0  0  0  0
    0.5688   59.0585   72.2952 H   0  0  0  0  0  0  0  0  0  0  0  0
    2.0776   59.8607   71.5282 H   0  0  0  0  0  0  0  0  0  0  0  0
    2.8404   59.1947   74.0869 H   0  0  0  0  0  0  0  0  0  0  0  0
    1.8891   57.7678   73.4761 H   0  0  0  0  0  0  0  0  0  0  0  0
    2.5023   57.3395   70.8048 H   0  0  0  0  0  0  0  0  0  0  0  0
    3.1366   58.9826   70.4524 H   0  0  0  0  0  0  0  0  0  0  0  0
    4.2483   57.5717   70.4524 H   0  0  0  0  0  0  0  0  0  0  0  0
    3.9663   57.3331   72.7603 H   0  0  0  0  0  0  0  0  0  0  0  0
    4.3051   58.9961   72.4191 H   0  0  0  0  0  0  0  0  0  0  0  0
  2  1  2  3
  3  2  1  0
  4  3  2  0
  5  4  1  0
  6  5  2  0
  7  6  1  0
  8  7  2  0
  8  3  1  0
  9  8  1  0
 10  9  1  0
 11 10  1  0
 12  2  1  0
 12 11  2  0
 13 12  1  0
 14 13  2  0
 15 14  1  0
 16 15  2  0
 16 11  1  0
 17  1  1  0
 18 17  1  0
 20 19  1  0
 20 18  1  0
  1 21  1  0
  4 22  1  0
  5 23  1  0
  6 24  1  0
  7 25  1  0
  9 26  1  0
  9 27  1  0
 10 28  1  0
 10 29  1  0
 13 30  1  0
 14 31  1  0
 15 32  1  0
 16 33  1  0
 17 34  1  0
 17 35  1  0
 18 36  1  0
 18 37  1  0
 19 38  1  0
 19 39  1  0
 19 40  1  0
 20 41  1  0
 20 42  1  0
M  CHG  1  20   1
M  END
>  <score>  (9) 
-8.036

$$$$
