=
     RDKit          3D

 14 15  0  0  0  0  0  0  0  0999 V2000
    2.7820   67.1010   64.4660 C   0  0  0  0  0  0  0  0  0  0  0  0
    3.0850   67.9690   63.4830 N   0  0  0  0  0  0  0  0  0  0  0  0
    3.8620   67.5260   62.4720 C   0  0  0  0  0  0  0  0  0  0  0  0
    4.3910   66.3070   62.3110 N   0  0  0  0  0  0  0  0  0  0  0  0
    4.0720   65.4630   63.3080 C   0  0  0  0  0  0  0  0  0  0  0  0
    3.2820   65.8220   64.3820 C   0  0  0  0  0  0  0  0  0  0  0  0
    3.2040   64.6950   65.1510 N   0  0  0  0  0  0  0  0  0  0  0  0
    3.9320   63.7200   64.5250 C   0  0  0  0  0  0  0  0  0  0  0  0
    4.4690   64.1570   63.4060 N   0  0  0  0  0  0  0  0  0  0  0  0
    1.7730   67.6260   65.8040 S   0  0  0  0  0  0  0  0  0  0  0  0
    4.0886   68.2576   61.6824 H   0  0  0  0  0  0  0  0  0  0  0  0
    2.6913   64.5974   66.0390 H   0  0  0  0  0  0  0  0  0  0  0  0
    4.0534   62.6967   64.9099 H   0  0  0  0  0  0  0  0  0  0  0  0
    2.3836   67.3083   66.9885 H   0  0  0  0  0  0  0  0  0  0  0  0
  2  1  2  0
  3  2  1  0
  4  3  2  0
  5  4  1  0
  6  5  2  0
  6  1  1  0
  7  6  1  0
  8  7  1  0
  9  8  2  0
  9  5  1  0
 10  1  1  0
  3 11  1  0
  7 12  1  0
  8 13  1  0
 10 14  1  0
M  END
>  <score>  (1) 
-5.519

$$$$
=
     RDKit          3D

 14 15  0  0  0  0  0  0  0  0999 V2000
    5.5220   70.5500   68.4410 C   0  0  0  0  0  0  0  0  0  0  0  0
    4.4930   70.5960   69.3070 N   0  0  0  0  0  0  0  0  0  0  0  0
    3.2840   70.1880   68.8670 C   0  0  0  0  0  0  0  0  0  0  0  0
    2.9590   69.7320   67.6510 N   0  0  0  0  0  0  0  0  0  0  0  0
    4.0060   69.6990   66.8090 C   0  0  0  0  0  0  0  0  0  0  0  0
    5.2800   70.0940   67.1660 C   0  0  0  0  0  0  0  0  0  0  0  0
    6.0330   69.9060   66.0410 N   0  0  0  0  0  0  0  0  0  0  0  0
    5.2040   69.4140   65.0700 C   0  0  0  0  0  0  0  0  0  0  0  0
    3.9710   69.2790   65.5060 N   0  0  0  0  0  0  0  0  0  0  0  0
    7.1160   71.0700   68.9620 S   0  0  0  0  0  0  0  0  0  0  0  0
    2.4638   70.2362   69.5984 H   0  0  0  0  0  0  0  0  0  0  0  0
    7.0399   70.0992   65.9422 H   0  0  0  0  0  0  0  0  0  0  0  0
    5.5292   69.1623   64.0498 H   0  0  0  0  0  0  0  0  0  0  0  0
    7.1662   71.0864   70.3310 H   0  0  0  0  0  0  0  0  0  0  0  0
  2  1  2  0
  3  2  1  0
  4  3  2  0
  5  4  1  0
  6  5  2  0
  6  1  1  0
  7  6  1  0
  8  7  1  0
  9  8  2  0
  9  5  1  0
 10  1  1  0
  3 11  1  0
  7 12  1  0
  8 13  1  0
 10 14  1  0
M  END
>  <score>  (2) 
-5.483

$$$$
=
     RDKit          3D

 14 15  0  0  0  0  0  0  0  0999 V2000
    4.5000   69.3140   64.7640 C   0  0  0  0  0  0  0  0  0  0  0  0
    3.2030   68.9700   64.8630 N   0  0  0  0  0  0  0  0  0  0  0  0
    2.6150   69.0850   66.0730 C   0  0  0  0  0  0  0  0  0  0  0  0
    3.1610   69.5040   67.2200 N   0  0  0  0  0  0  0  0  0  0  0  0
    4.4560   69.8400   67.0890 C   0  0  0  0  0  0  0  0  0  0  0  0
    5.1450   69.7580   65.8950 C   0  0  0  0  0  0  0  0  0  0  0  0
    6.4100   70.1840   66.1910 N   0  0  0  0  0  0  0  0  0  0  0  0
    6.4350   70.5000   67.5210 C   0  0  0  0  0  0  0  0  0  0  0  0
    5.2670   70.3020   68.0910 N   0  0  0  0  0  0  0  0  0  0  0  0
    5.3140   69.1840   63.2130 S   0  0  0  0  0  0  0  0  0  0  0  0
    1.5542   68.7982   66.1216 H   0  0  0  0  0  0  0  0  0  0  0  0
    7.1992   70.2540   65.5329 H   0  0  0  0  0  0  0  0  0  0  0  0
    7.3241   70.8743   68.0497 H   0  0  0  0  0  0  0  0  0  0  0  0
    6.6519   68.9703   63.4159 H   0  0  0  0  0  0  0  0  0  0  0  0
  2  1  2  0
  3  2  1  0
  4  3  2  0
  5  4  1  0
  6  5  2  0
  6  1  1  0
  7  6  1  0
  8  7  1  0
  9  8  2  0
  9  5  1  0
 10  1  1  0
  3 11  1  0
  7 12  1  0
  8 13  1  0
 10 14  1  0
M  END
>  <score>  (3) 
-5.469

$$$$
=
     RDKit          3D

 14 15  0  0  0  0  0  0  0  0999 V2000
    4.8850   69.7830   66.3180 C   0  0  0  0  0  0  0  0  0  0  0  0
    3.7310   69.5730   66.9800 N   0  0  0  0  0  0  0  0  0  0  0  0
    2.6760   69.1200   66.2710 C   0  0  0  0  0  0  0  0  0  0  0  0
    2.6170   68.8450   64.9610 N   0  0  0  0  0  0  0  0  0  0  0  0
    3.7820   69.0650   64.3290 C   0  0  0  0  0  0  0  0  0  0  0  0
    4.9170   69.5260   64.9670 C   0  0  0  0  0  0  0  0  0  0  0  0
    5.8620   69.6110   63.9830 N   0  0  0  0  0  0  0  0  0  0  0  0
    5.2750   69.2070   62.8150 C   0  0  0  0  0  0  0  0  0  0  0  0
    4.0160   68.8710   62.9940 N   0  0  0  0  0  0  0  0  0  0  0  0
    6.2890   70.3710   67.1930 S   0  0  0  0  0  0  0  0  0  0  0  0
    1.7487   68.9560   66.8395 H   0  0  0  0  0  0  0  0  0  0  0  0
    6.8370   69.9221   64.0994 H   0  0  0  0  0  0  0  0  0  0  0  0
    5.7925   69.1680   61.8451 H   0  0  0  0  0  0  0  0  0  0  0  0
    6.0604   70.2753   68.5404 H   0  0  0  0  0  0  0  0  0  0  0  0
  2  1  2  0
  3  2  1  0
  4  3  2  0
  5  4  1  0
  6  5  2  0
  6  1  1  0
  7  6  1  0
  8  7  1  0
  9  8  2  0
  9  5  1  0
 10  1  1  0
  3 11  1  0
  7 12  1  0
  8 13  1  0
 10 14  1  0
M  END
>  <score>  (4) 
-5.39

$$$$
=
     RDKit          3D

 14 15  0  0  0  0  0  0  0  0999 V2000
    2.1960   69.1160   67.1400 C   0  0  0  0  0  0  0  0  0  0  0  0
    2.6120   68.8920   65.8800 N   0  0  0  0  0  0  0  0  0  0  0  0
    3.8530   69.3040   65.5470 C   0  0  0  0  0  0  0  0  0  0  0  0
    4.7520   69.9250   66.3210 N   0  0  0  0  0  0  0  0  0  0  0  0
    4.3080   70.1350   67.5720 C   0  0  0  0  0  0  0  0  0  0  0  0
    3.0560   69.7480   68.0070 C   0  0  0  0  0  0  0  0  0  0  0  0
    3.0040   70.1400   69.3160 N   0  0  0  0  0  0  0  0  0  0  0  0
    4.2000   70.7340   69.6140 C   0  0  0  0  0  0  0  0  0  0  0  0
    5.0090   70.7450   68.5770 N   0  0  0  0  0  0  0  0  0  0  0  0
    0.5900   68.5980   67.6260 S   0  0  0  0  0  0  0  0  0  0  0  0
    4.1649   69.1050   64.5111 H   0  0  0  0  0  0  0  0  0  0  0  0
    2.2101   70.0117   69.9596 H   0  0  0  0  0  0  0  0  0  0  0  0
    4.4538   71.1511   70.5997 H   0  0  0  0  0  0  0  0  0  0  0  0
    0.5126   68.5730   68.9936 H   0  0  0  0  0  0  0  0  0  0  0  0
  2  1  2  0
  3  2  1  0
  4  3  2  0
  5  4  1  0
  6  5  2  0
  6  1  1  0
  7  6  1  0
  8  7  1  0
  9  8  2  0
  9  5  1  0
 10  1  1  0
  3 11  1  0
  7 12  1  0
  8 13  1  0
 10 14  1  0
M  END
>  <score>  (5) 
-5.353

$$$$
=
     RDKit          3D

 14 15  0  0  0  0  0  0  0  0999 V2000
    3.6600   69.5590   66.7540 C   0  0  0  0  0  0  0  0  0  0  0  0
    2.5930   69.6120   67.5740 N   0  0  0  0  0  0  0  0  0  0  0  0
    2.7810   70.1040   68.8160 C   0  0  0  0  0  0  0  0  0  0  0  0
    3.9160   70.5590   69.3610 N   0  0  0  0  0  0  0  0  0  0  0  0
    4.9620   70.4930   68.5190 C   0  0  0  0  0  0  0  0  0  0  0  0
    4.8700   70.0070   67.2300 C   0  0  0  0  0  0  0  0  0  0  0  0
    6.1360   70.1120   66.7250 N   0  0  0  0  0  0  0  0  0  0  0  0
    6.9250   70.6470   67.7050 C   0  0  0  0  0  0  0  0  0  0  0  0
    6.2420   70.8880   68.8030 N   0  0  0  0  0  0  0  0  0  0  0  0
    3.4700   68.9270   65.1270 S   0  0  0  0  0  0  0  0  0  0  0  0
    1.8907   70.1352   69.4613 H   0  0  0  0  0  0  0  0  0  0  0  0
    6.4397   69.8383   65.7796 H   0  0  0  0  0  0  0  0  0  0  0  0
    7.9997   70.8510   67.5894 H   0  0  0  0  0  0  0  0  0  0  0  0
    3.0760   67.6164   65.1893 H   0  0  0  0  0  0  0  0  0  0  0  0
  2  1  2  0
  3  2  1  0
  4  3  2  0
  5  4  1  0
  6  5  2  0
  6  1  1  0
  7  6  1  0
  8  7  1  0
  9  8  2  0
  9  5  1  0
 10  1  1  0
  3 11  1  0
  7 12  1  0
  8 13  1  0
 10 14  1  0
M  END
>  <score>  (6) 
-5.288

$$$$
=
     RDKit          3D

 14 15  0  0  0  0  0  0  0  0999 V2000
    2.8160   66.3130   64.7950 C   0  0  0  0  0  0  0  0  0  0  0  0
    2.9620   64.9970   65.0340 N   0  0  0  0  0  0  0  0  0  0  0  0
    3.8660   64.3220   64.2940 C   0  0  0  0  0  0  0  0  0  0  0  0
    4.6590   64.7960   63.3250 N   0  0  0  0  0  0  0  0  0  0  0  0
    4.4900   66.1120   63.1090 C   0  0  0  0  0  0  0  0  0  0  0  0
    3.5920   66.8870   63.8150 C   0  0  0  0  0  0  0  0  0  0  0  0
    3.7310   68.1440   63.2950 N   0  0  0  0  0  0  0  0  0  0  0  0
    4.6870   68.0800   62.3190 C   0  0  0  0  0  0  0  0  0  0  0  0
    5.1640   66.8620   62.1830 N   0  0  0  0  0  0  0  0  0  0  0  0
    1.6540   67.2400   65.7300 S   0  0  0  0  0  0  0  0  0  0  0  0
    3.9636   63.2487   64.5142 H   0  0  0  0  0  0  0  0  0  0  0  0
    3.2112   68.9846   63.5850 H   0  0  0  0  0  0  0  0  0  0  0  0
    5.0167   68.9422   61.7207 H   0  0  0  0  0  0  0  0  0  0  0  0
    1.8894   67.0522   67.0665 H   0  0  0  0  0  0  0  0  0  0  0  0
  2  1  2  0
  3  2  1  0
  4  3  2  0
  5  4  1  0
  6  5  2  0
  6  1  1  0
  7  6  1  0
  8  7  1  0
  9  8  2  0
  9  5  1  0
 10  1  1  0
  3 11  1  0
  7 12  1  0
  8 13  1  0
 10 14  1  0
M  END
>  <score>  (7) 
-5.207

$$$$
=
     RDKit          3D

 14 15  0  0  0  0  0  0  0  0999 V2000
    4.0630   65.4910   63.6890 C   0  0  0  0  0  0  0  0  0  0  0  0
    4.6640   66.0380   62.6160 N   0  0  0  0  0  0  0  0  0  0  0  0
    4.2720   67.2730   62.2400 C   0  0  0  0  0  0  0  0  0  0  0  0
    3.3390   68.0510   62.8030 N   0  0  0  0  0  0  0  0  0  0  0  0
    2.7570   67.4770   63.8710 C   0  0  0  0  0  0  0  0  0  0  0  0
    3.0910   66.2200   64.3330 C   0  0  0  0  0  0  0  0  0  0  0  0
    2.2810   66.0190   65.4160 N   0  0  0  0  0  0  0  0  0  0  0  0
    1.5080   67.1380   65.5630 C   0  0  0  0  0  0  0  0  0  0  0  0
    1.7740   68.0380   64.6420 N   0  0  0  0  0  0  0  0  0  0  0  0
    4.5360   63.8860   64.2220 S   0  0  0  0  0  0  0  0  0  0  0  0
    4.7827   67.6933   61.3611 H   0  0  0  0  0  0  0  0  0  0  0  0
    2.2572   65.1792   66.0118 H   0  0  0  0  0  0  0  0  0  0  0  0
    0.7558   67.2689   66.3549 H   0  0  0  0  0  0  0  0  0  0  0  0
    4.5482   63.8447   65.5913 H   0  0  0  0  0  0  0  0  0  0  0  0
  2  1  2  0
  3  2  1  0
  4  3  2  0
  5  4  1  0
  6  5  2  0
  6  1  1  0
  7  6  1  0
  8  7  1  0
  9  8  2  0
  9  5  1  0
 10  1  1  0
  3 11  1  0
  7 12  1  0
  8 13  1  0
 10 14  1  0
M  END
>  <score>  (8) 
-5.063

$$$$
=
     RDKit          3D

 14 15  0  0  0  0  0  0  0  0999 V2000
    4.9150   70.1630   67.4410 C   0  0  0  0  0  0  0  0  0  0  0  0
    5.5730   70.0180   66.2760 N   0  0  0  0  0  0  0  0  0  0  0  0
    4.8980   69.4830   65.2370 C   0  0  0  0  0  0  0  0  0  0  0  0
    3.6270   69.0640   65.2070 N   0  0  0  0  0  0  0  0  0  0  0  0
    2.9970   69.2210   66.3840 C   0  0  0  0  0  0  0  0  0  0  0  0
    3.6020   69.7590   67.5030 C   0  0  0  0  0  0  0  0  0  0  0  0
    2.6330   69.7410   68.4670 N   0  0  0  0  0  0  0  0  0  0  0  0
    1.5060   69.2070   67.9050 C   0  0  0  0  0  0  0  0  0  0  0  0
    1.6970   68.8820   66.6450 N   0  0  0  0  0  0  0  0  0  0  0  0
    5.7470   70.8550   68.8250 S   0  0  0  0  0  0  0  0  0  0  0  0
    5.4622   69.3783   64.2985 H   0  0  0  0  0  0  0  0  0  0  0  0
    2.7331   70.0692   69.4382 H   0  0  0  0  0  0  0  0  0  0  0  0
    0.5560   69.0666   68.4414 H   0  0  0  0  0  0  0  0  0  0  0  0
    5.1810   70.3842   69.9804 H   0  0  0  0  0  0  0  0  0  0  0  0
  2  1  2  0
  3  2  1  0
  4  3  2  0
  5  4  1  0
  6  5  2  0
  6  1  1  0
  7  6  1  0
  8  7  1  0
  9  8  2  0
  9  5  1  0
 10  1  1  0
  3 11  1  0
  7 12  1  0
  8 13  1  0
 10 14  1  0
M  END
>  <score>  (9) 
-4.925

$$$$
