=
     RDKit          3D

 54 57  0  0  0  0  0  0  0  0999 V2000
    2.1190   63.8070   71.5420 C   0  0  1  0  0  0  0  0  0  0  0  0
    2.3270   65.0430   70.6640 C   0  0  0  0  0  0  0  0  0  0  0  0
    0.8990   65.3820   70.3320 C   0  0  0  0  0  0  0  0  0  0  0  0
    0.0040   64.7180   70.9970 N   0  0  0  0  0  0  0  0  0  0  0  0
    0.6730   63.8310   71.7910 N   0  0  0  0  0  0  0  0  0  0  0  0
    0.5530   66.4270   69.3420 C   0  0  0  0  0  0  0  0  0  0  0  0
   -0.7170   66.4080   68.7540 C   0  0  0  0  0  0  0  0  0  0  0  0
   -1.0610   67.3810   67.8210 C   0  0  0  0  0  0  0  0  0  0  0  0
   -2.2760   67.3570   67.2610 F   0  0  0  0  0  0  0  0  0  0  0  0
   -0.1650   68.3780   67.4610 C   0  0  0  0  0  0  0  0  0  0  0  0
    1.0900   68.3890   68.0510 C   0  0  0  0  0  0  0  0  0  0  0  0
    1.4630   67.4270   68.9870 C   0  0  0  0  0  0  0  0  0  0  0  0
    1.9660   69.3460   67.7160 F   0  0  0  0  0  0  0  0  0  0  0  0
    3.1470   61.4840   71.5730 C   0  0  0  0  0  0  0  0  0  0  0  0
    3.5570   60.2930   70.9380 C   0  0  0  0  0  0  0  0  0  0  0  0
    3.4930   60.2100   69.5430 C   0  0  0  0  0  0  0  0  0  0  0  0
    3.0040   61.2790   68.7920 C   0  0  0  0  0  0  0  0  0  0  0  0
    2.5590   62.4360   69.4250 C   0  0  0  0  0  0  0  0  0  0  0  0
    2.6010   62.5500   70.8240 C   0  0  0  0  0  0  0  0  0  0  0  0
    2.4200   60.7340   73.6860 C   0  0  0  0  0  0  0  0  0  0  0  0
    3.1840   61.6750   72.9350 O   0  0  0  0  0  0  0  0  0  0  0  0
    3.9910   59.2700   71.7420 O   0  0  0  0  0  0  0  0  0  0  0  0
    3.3870   57.9950   71.5680 C   0  0  0  0  0  0  0  0  0  0  0  0
    0.0030   63.1030   72.7750 C   0  0  0  0  0  0  0  0  0  0  0  0
   -0.7880   61.9910   72.4310 C   0  0  0  0  0  0  0  0  0  0  0  0
   -1.4700   61.2370   73.3930 C   0  0  0  0  0  0  0  0  0  0  0  0
   -1.3720   61.5980   74.7330 C   0  0  0  0  0  0  0  0  0  0  0  0
   -0.5880   62.6840   75.1160 C   0  0  0  0  0  0  0  0  0  0  0  0
    0.0880   63.4270   74.1400 C   0  0  0  0  0  0  0  0  0  0  0  0
   -2.2300   60.6610   75.9670 S   0  0  0  0  0  6  0  0  0  0  0  0
   -3.1750   61.5260   76.6310 O   0  0  0  0  0  0  0  0  0  0  0  0
   -1.2680   59.8600   76.6900 O   0  0  0  0  0  0  0  0  0  0  0  0
   -3.1000   59.5750   75.0160 N   0  0  0  0  0  0  0  0  0  0  0  0
    2.6918   63.8068   72.4811 H   0  0  0  0  0  0  0  0  0  0  0  0
    2.8202   65.8562   71.2167 H   0  0  0  0  0  0  0  0  0  0  0  0
    2.9766   64.8829   69.7909 H   0  0  0  0  0  0  0  0  0  0  0  0
   -1.4407   65.6264   69.0286 H   0  0  0  0  0  0  0  0  0  0  0  0
   -0.4447   69.1439   66.7227 H   0  0  0  0  0  0  0  0  0  0  0  0
    2.4640   67.4540   69.4423 H   0  0  0  0  0  0  0  0  0  0  0  0
    3.8308   59.2949   69.0345 H   0  0  0  0  0  0  0  0  0  0  0  0
    2.9699   61.2073   67.6949 H   0  0  0  0  0  0  0  0  0  0  0  0
    2.1701   63.2703   68.8227 H   0  0  0  0  0  0  0  0  0  0  0  0
    2.5678   60.9161   74.7607 H   0  0  0  0  0  0  0  0  0  0  0  0
    1.3541   60.8461   73.4383 H   0  0  0  0  0  0  0  0  0  0  0  0
    2.7487   59.7139   73.4383 H   0  0  0  0  0  0  0  0  0  0  0  0
    3.1769   57.5514   72.5524 H   0  0  0  0  0  0  0  0  0  0  0  0
    2.4467   58.1080   71.0085 H   0  0  0  0  0  0  0  0  0  0  0  0
    4.0701   57.3390   71.0085 H   0  0  0  0  0  0  0  0  0  0  0  0
   -0.8730   61.7052   71.3722 H   0  0  0  0  0  0  0  0  0  0  0  0
   -2.0762   60.3694   73.0932 H   0  0  0  0  0  0  0  0  0  0  0  0
   -0.5004   62.9562   76.1782 H   0  0  0  0  0  0  0  0  0  0  0  0
    0.7012   64.2861   74.4497 H   0  0  0  0  0  0  0  0  0  0  0  0
   -3.6198   58.9261   75.6240 H   0  0  0  0  0  0  0  0  0  0  0  0
   -3.7623   60.0934   74.4214 H   0  0  0  0  0  0  0  0  0  0  0  0
  2  1  1  0
  3  2  1  0
  4  3  2  0
  5  4  1  0
  5  1  1  0
  6  3  1  0
  7  6  2  0
  8  7  1  0
  9  8  1  0
 10  8  2  0
 11 10  1  0
 12 11  2  0
 12  6  1  0
 13 11  1  0
 15 14  2  0
 16 15  1  0
 17 16  2  0
 18 17  1  0
 19 18  2  0
 19 14  1  0
 19  1  1  0
 21 20  1  0
 21 14  1  0
 22 15  1  0
 23 22  1  0
 24  5  1  0
 25 24  2  0
 26 25  1  0
 27 26  2  0
 28 27  1  0
 29 28  2  0
 29 24  1  0
 30 27  1  0
 31 30  2  0
 32 30  2  0
 33 30  1  0
  1 34  1  1
  2 35  1  0
  2 36  1  0
  7 37  1  0
 10 38  1  0
 12 39  1  0
 16 40  1  0
 17 41  1  0
 18 42  1  0
 20 43  1  0
 20 44  1  0
 20 45  1  0
 23 46  1  0
 23 47  1  0
 23 48  1  0
 25 49  1  0
 26 50  1  0
 28 51  1  0
 29 52  1  0
 33 53  1  0
 33 54  1  0
M  END
>  <score>  (1) 
-8.984

$$$$
=
     RDKit          3D

 54 57  0  0  0  0  0  0  0  0999 V2000
   -1.2120   60.5160   73.6300 C   0  0  1  0  0  0  0  0  0  0  0  0
   -1.1270   61.8040   72.8060 C   0  0  0  0  0  0  0  0  0  0  0  0
    0.3070   61.7420   72.3570 C   0  0  0  0  0  0  0  0  0  0  0  0
    0.9160   60.6230   72.6010 N   0  0  0  0  0  0  0  0  0  0  0  0
    0.0360   59.8280   73.2780 N   0  0  0  0  0  0  0  0  0  0  0  0
    0.9550   62.8720   71.6530 C   0  0  0  0  0  0  0  0  0  0  0  0
    0.1900   64.0030   71.3400 C   0  0  0  0  0  0  0  0  0  0  0  0
    0.7810   65.0750   70.6790 C   0  0  0  0  0  0  0  0  0  0  0  0
    0.0440   66.1520   70.3820 F   0  0  0  0  0  0  0  0  0  0  0  0
    2.1210   65.0480   70.3220 C   0  0  0  0  0  0  0  0  0  0  0  0
    2.8710   63.9240   70.6380 C   0  0  0  0  0  0  0  0  0  0  0  0
    2.3070   62.8350   71.2990 C   0  0  0  0  0  0  0  0  0  0  0  0
    4.1670   63.8820   70.3020 F   0  0  0  0  0  0  0  0  0  0  0  0
   -2.4550   60.3530   75.8390 C   0  0  0  0  0  0  0  0  0  0  0  0
   -2.5750   60.5940   77.2240 C   0  0  0  0  0  0  0  0  0  0  0  0
   -1.6180   61.3920   77.8590 C   0  0  0  0  0  0  0  0  0  0  0  0
   -0.5440   61.9170   77.1410 C   0  0  0  0  0  0  0  0  0  0  0  0
   -0.4040   61.6390   75.7840 C   0  0  0  0  0  0  0  0  0  0  0  0
   -1.3420   60.8350   75.1160 C   0  0  0  0  0  0  0  0  0  0  0  0
   -4.5250   60.2960   74.7130 C   0  0  0  0  0  0  0  0  0  0  0  0
   -3.3490   59.5970   75.1150 O   0  0  0  0  0  0  0  0  0  0  0  0
   -3.6360   60.0160   77.8720 O   0  0  0  0  0  0  0  0  0  0  0  0
   -4.5190   60.8720   78.5850 C   0  0  0  0  0  0  0  0  0  0  0  0
    0.3200   58.4830   73.5160 C   0  0  0  0  0  0  0  0  0  0  0  0
    1.6130   57.9720   73.2930 C   0  0  0  0  0  0  0  0  0  0  0  0
    1.9320   56.6300   73.5240 C   0  0  0  0  0  0  0  0  0  0  0  0
    0.9420   55.7660   73.9810 C   0  0  0  0  0  0  0  0  0  0  0  0
   -0.3460   56.2360   74.2280 C   0  0  0  0  0  0  0  0  0  0  0  0
   -0.6480   57.5830   73.9910 C   0  0  0  0  0  0  0  0  0  0  0  0
    1.3220   54.0610   74.2780 S   0  0  0  0  0  6  0  0  0  0  0  0
    0.2190   53.2550   73.8150 O   0  0  0  0  0  0  0  0  0  0  0  0
    1.8730   53.9350   75.6080 O   0  0  0  0  0  0  0  0  0  0  0  0
    2.6170   53.8210   73.2260 N   0  0  0  0  0  0  0  0  0  0  0  0
   -2.0928   59.8917   73.4193 H   0  0  0  0  0  0  0  0  0  0  0  0
   -1.8215   61.7880   71.9531 H   0  0  0  0  0  0  0  0  0  0  0  0
   -1.3990   62.7190   73.3527 H   0  0  0  0  0  0  0  0  0  0  0  0
   -0.8741   64.0433   71.6159 H   0  0  0  0  0  0  0  0  0  0  0  0
    2.5798   65.9001   69.7991 H   0  0  0  0  0  0  0  0  0  0  0  0
    2.9199   61.9540   71.5402 H   0  0  0  0  0  0  0  0  0  0  0  0
   -1.7132   61.6073   78.9335 H   0  0  0  0  0  0  0  0  0  0  0  0
    0.1956   62.5534   77.6489 H   0  0  0  0  0  0  0  0  0  0  0  0
    0.4505   62.0535   75.2290 H   0  0  0  0  0  0  0  0  0  0  0  0
   -5.0787   60.6251   75.6046 H   0  0  0  0  0  0  0  0  0  0  0  0
   -4.2428   61.1731   74.1121 H   0  0  0  0  0  0  0  0  0  0  0  0
   -5.1606   59.6290   74.1121 H   0  0  0  0  0  0  0  0  0  0  0  0
   -4.3733   60.7307   79.6661 H   0  0  0  0  0  0  0  0  0  0  0  0
   -4.3084   61.9187   78.3203 H   0  0  0  0  0  0  0  0  0  0  0  0
   -5.5586   60.6290   78.3203 H   0  0  0  0  0  0  0  0  0  0  0  0
    2.3973   58.6500   72.9253 H   0  0  0  0  0  0  0  0  0  0  0  0
    2.9533   56.2621   73.3465 H   0  0  0  0  0  0  0  0  0  0  0  0
   -1.1210   55.5535   74.6068 H   0  0  0  0  0  0  0  0  0  0  0  0
   -1.6690   57.9451   74.1817 H   0  0  0  0  0  0  0  0  0  0  0  0
    3.4767   53.6617   73.7705 H   0  0  0  0  0  0  0  0  0  0  0  0
    2.4296   53.0004   72.6323 H   0  0  0  0  0  0  0  0  0  0  0  0
  2  1  1  0
  3  2  1  0
  4  3  2  0
  5  4  1  0
  5  1  1  0
  6  3  1  0
  7  6  2  0
  8  7  1  0
  9  8  1  0
 10  8  2  0
 11 10  1  0
 12 11  2  0
 12  6  1  0
 13 11  1  0
 15 14  2  0
 16 15  1  0
 17 16  2  0
 18 17  1  0
 19 18  2  0
 19 14  1  0
 19  1  1  0
 21 20  1  0
 21 14  1  0
 22 15  1  0
 23 22  1  0
 24  5  1  0
 25 24  2  0
 26 25  1  0
 27 26  2  0
 28 27  1  0
 29 28  2  0
 29 24  1  0
 30 27  1  0
 31 30  2  0
 32 30  2  0
 33 30  1  0
  1 34  1  6
  2 35  1  0
  2 36  1  0
  7 37  1  0
 10 38  1  0
 12 39  1  0
 16 40  1  0
 17 41  1  0
 18 42  1  0
 20 43  1  0
 20 44  1  0
 20 45  1  0
 23 46  1  0
 23 47  1  0
 23 48  1  0
 25 49  1  0
 26 50  1  0
 28 51  1  0
 29 52  1  0
 33 53  1  0
 33 54  1  0
M  END
>  <score>  (2) 
-8.263

$$$$
=
     RDKit          3D

 54 57  0  0  0  0  0  0  0  0999 V2000
   -0.0600   60.8200   73.0970 C   0  0  1  0  0  0  0  0  0  0  0  0
    0.4170   61.8420   72.0620 C   0  0  0  0  0  0  0  0  0  0  0  0
    1.7390   61.2370   71.6760 C   0  0  0  0  0  0  0  0  0  0  0  0
    1.9560   60.0430   72.1330 N   0  0  0  0  0  0  0  0  0  0  0  0
    0.8850   59.7120   72.9120 N   0  0  0  0  0  0  0  0  0  0  0  0
    2.7010   61.9510   70.8040 C   0  0  0  0  0  0  0  0  0  0  0  0
    3.7380   62.6810   71.3970 C   0  0  0  0  0  0  0  0  0  0  0  0
    4.6510   63.3590   70.5940 C   0  0  0  0  0  0  0  0  0  0  0  0
    5.6400   64.0560   71.1660 F   0  0  0  0  0  0  0  0  0  0  0  0
    4.5550   63.3230   69.2110 C   0  0  0  0  0  0  0  0  0  0  0  0
    3.5250   62.5950   68.6340 C   0  0  0  0  0  0  0  0  0  0  0  0
    2.5960   61.9070   69.4110 C   0  0  0  0  0  0  0  0  0  0  0  0
    3.4190   62.5490   67.2990 F   0  0  0  0  0  0  0  0  0  0  0  0
   -1.2140   61.9890   75.0340 C   0  0  0  0  0  0  0  0  0  0  0  0
   -1.2320   62.5110   76.3450 C   0  0  0  0  0  0  0  0  0  0  0  0
   -0.0430   62.5350   77.0810 C   0  0  0  0  0  0  0  0  0  0  0  0
    1.1360   62.0260   76.5390 C   0  0  0  0  0  0  0  0  0  0  0  0
    1.1400   61.4710   75.2620 C   0  0  0  0  0  0  0  0  0  0  0  0
   -0.0380   61.4230   74.4980 C   0  0  0  0  0  0  0  0  0  0  0  0
   -3.1660   60.8040   74.4430 C   0  0  0  0  0  0  0  0  0  0  0  0
   -2.3230   61.9330   74.2190 O   0  0  0  0  0  0  0  0  0  0  0  0
   -2.4350   62.9600   76.8260 O   0  0  0  0  0  0  0  0  0  0  0  0
   -2.6660   64.3630   76.8160 C   0  0  0  0  0  0  0  0  0  0  0  0
    0.7210   58.4120   73.3920 C   0  0  0  0  0  0  0  0  0  0  0  0
    1.7350   57.4520   73.2240 C   0  0  0  0  0  0  0  0  0  0  0  0
    1.6040   56.1410   73.6970 C   0  0  0  0  0  0  0  0  0  0  0  0
    0.4330   55.7680   74.3470 C   0  0  0  0  0  0  0  0  0  0  0  0
   -0.5900   56.6940   74.5460 C   0  0  0  0  0  0  0  0  0  0  0  0
   -0.4420   58.0010   74.0670 C   0  0  0  0  0  0  0  0  0  0  0  0
    0.2430   54.1130   74.9510 S   0  0  0  0  0  6  0  0  0  0  0  0
   -0.6080   54.1410   76.1150 O   0  0  0  0  0  0  0  0  0  0  0  0
    1.5370   53.4690   74.9480 O   0  0  0  0  0  0  0  0  0  0  0  0
   -0.6220   53.3970   73.6940 N   0  0  0  0  0  0  0  0  0  0  0  0
   -1.1016   60.4890   72.9721 H   0  0  0  0  0  0  0  0  0  0  0  0
   -0.2687   61.9027   71.2041 H   0  0  0  0  0  0  0  0  0  0  0  0
    0.4743   62.8771   72.4297 H   0  0  0  0  0  0  0  0  0  0  0  0
    3.8310   62.7187   72.4924 H   0  0  0  0  0  0  0  0  0  0  0  0
    5.2813   63.8611   68.5841 H   0  0  0  0  0  0  0  0  0  0  0  0
    1.7875   61.3345   68.9329 H   0  0  0  0  0  0  0  0  0  0  0  0
   -0.0382   62.9591   78.0960 H   0  0  0  0  0  0  0  0  0  0  0  0
    2.0676   62.0629   77.1228 H   0  0  0  0  0  0  0  0  0  0  0  0
    2.0749   61.0661   74.8472 H   0  0  0  0  0  0  0  0  0  0  0  0
   -3.2852   60.6443   75.5248 H   0  0  0  0  0  0  0  0  0  0  0  0
   -4.1510   60.9860   73.9885 H   0  0  0  0  0  0  0  0  0  0  0  0
   -2.7117   59.9112   73.9885 H   0  0  0  0  0  0  0  0  0  0  0  0
   -2.7268   64.7320   77.8505 H   0  0  0  0  0  0  0  0  0  0  0  0
   -1.8388   64.8671   76.2949 H   0  0  0  0  0  0  0  0  0  0  0  0
   -3.6112   64.5753   76.2949 H   0  0  0  0  0  0  0  0  0  0  0  0
    2.6606   57.7405   72.7043 H   0  0  0  0  0  0  0  0  0  0  0  0
    2.4179   55.4146   73.5561 H   0  0  0  0  0  0  0  0  0  0  0  0
   -1.5077   56.3994   75.0761 H   0  0  0  0  0  0  0  0  0  0  0  0
   -1.2558   58.7245   74.2225 H   0  0  0  0  0  0  0  0  0  0  0  0
   -1.3561   52.7894   74.0849 H   0  0  0  0  0  0  0  0  0  0  0  0
   -1.0555   54.1299   73.1145 H   0  0  0  0  0  0  0  0  0  0  0  0
  2  1  1  0
  3  2  1  0
  4  3  2  0
  5  4  1  0
  5  1  1  0
  6  3  1  0
  7  6  2  0
  8  7  1  0
  9  8  1  0
 10  8  2  0
 11 10  1  0
 12 11  2  0
 12  6  1  0
 13 11  1  0
 15 14  2  0
 16 15  1  0
 17 16  2  0
 18 17  1  0
 19 18  2  0
 19 14  1  0
 19  1  1  0
 21 20  1  0
 21 14  1  0
 22 15  1  0
 23 22  1  0
 24  5  1  0
 25 24  2  0
 26 25  1  0
 27 26  2  0
 28 27  1  0
 29 28  2  0
 29 24  1  0
 30 27  1  0
 31 30  2  0
 32 30  2  0
 33 30  1  0
  1 34  1  6
  2 35  1  0
  2 36  1  0
  7 37  1  0
 10 38  1  0
 12 39  1  0
 16 40  1  0
 17 41  1  0
 18 42  1  0
 20 43  1  0
 20 44  1  0
 20 45  1  0
 23 46  1  0
 23 47  1  0
 23 48  1  0
 25 49  1  0
 26 50  1  0
 28 51  1  0
 29 52  1  0
 33 53  1  0
 33 54  1  0
M  END
>  <score>  (3) 
-8.191

$$$$
=
     RDKit          3D

 54 57  0  0  0  0  0  0  0  0999 V2000
    0.9270   59.9070   74.5730 C   0  0  1  0  0  0  0  0  0  0  0  0
    2.0230   60.7440   73.9080 C   0  0  0  0  0  0  0  0  0  0  0  0
    1.2910   61.2250   72.6850 C   0  0  0  0  0  0  0  0  0  0  0  0
    0.0160   60.9850   72.6730 N   0  0  0  0  0  0  0  0  0  0  0  0
   -0.2700   60.2820   73.8080 N   0  0  0  0  0  0  0  0  0  0  0  0
    1.9810   61.9520   71.5960 C   0  0  0  0  0  0  0  0  0  0  0  0
    1.8350   63.3420   71.5110 C   0  0  0  0  0  0  0  0  0  0  0  0
    2.4760   64.0430   70.4950 C   0  0  0  0  0  0  0  0  0  0  0  0
    2.3320   65.3720   70.4190 F   0  0  0  0  0  0  0  0  0  0  0  0
    3.2640   63.3900   69.5590 C   0  0  0  0  0  0  0  0  0  0  0  0
    3.4040   62.0120   69.6520 C   0  0  0  0  0  0  0  0  0  0  0  0
    2.7740   61.2840   70.6580 C   0  0  0  0  0  0  0  0  0  0  0  0
    4.1630   61.3660   68.7570 F   0  0  0  0  0  0  0  0  0  0  0  0
    1.6900   57.7460   75.6660 C   0  0  0  0  0  0  0  0  0  0  0  0
    1.9640   56.3620   75.6370 C   0  0  0  0  0  0  0  0  0  0  0  0
    1.8890   55.6810   74.4180 C   0  0  0  0  0  0  0  0  0  0  0  0
    1.5210   56.3530   73.2530 C   0  0  0  0  0  0  0  0  0  0  0  0
    1.2080   57.7080   73.2940 C   0  0  0  0  0  0  0  0  0  0  0  0
    1.2650   58.4220   74.5020 C   0  0  0  0  0  0  0  0  0  0  0  0
    3.0590   58.9690   77.1450 C   0  0  0  0  0  0  0  0  0  0  0  0
    1.7510   58.5130   76.8080 O   0  0  0  0  0  0  0  0  0  0  0  0
    2.2830   55.7600   76.8270 O   0  0  0  0  0  0  0  0  0  0  0  0
    1.2560   55.0400   77.4970 C   0  0  0  0  0  0  0  0  0  0  0  0
   -1.5890   60.0400   74.1900 C   0  0  0  0  0  0  0  0  0  0  0  0
   -2.5950   60.9910   73.9370 C   0  0  0  0  0  0  0  0  0  0  0  0
   -3.9290   60.7780   74.3040 C   0  0  0  0  0  0  0  0  0  0  0  0
   -4.2760   59.5940   74.9460 C   0  0  0  0  0  0  0  0  0  0  0  0
   -3.3120   58.6210   75.2020 C   0  0  0  0  0  0  0  0  0  0  0  0
   -1.9820   58.8500   74.8270 C   0  0  0  0  0  0  0  0  0  0  0  0
   -5.9570   59.3040   75.4230 S   0  0  0  0  0  6  0  0  0  0  0  0
   -6.5920   60.5750   75.6710 O   0  0  0  0  0  0  0  0  0  0  0  0
   -5.9870   58.2210   76.3790 O   0  0  0  0  0  0  0  0  0  0  0  0
   -6.6020   58.6710   74.0000 N   0  0  0  0  0  0  0  0  0  0  0  0
    0.7950   60.0919   75.6493 H   0  0  0  0  0  0  0  0  0  0  0  0
    2.3402   61.5808   74.5476 H   0  0  0  0  0  0  0  0  0  0  0  0
    2.9559   60.1992   73.7010 H   0  0  0  0  0  0  0  0  0  0  0  0
    1.2155   63.8778   72.2453 H   0  0  0  0  0  0  0  0  0  0  0  0
    3.7678   63.9525   68.7592 H   0  0  0  0  0  0  0  0  0  0  0  0
    2.8991   60.1926   70.7143 H   0  0  0  0  0  0  0  0  0  0  0  0
    2.1221   54.6067   74.3778 H   0  0  0  0  0  0  0  0  0  0  0  0
    1.4780   55.8096   72.2976 H   0  0  0  0  0  0  0  0  0  0  0  0
    0.9125   58.2260   72.3697 H   0  0  0  0  0  0  0  0  0  0  0  0
    3.1639   59.0056   78.2394 H   0  0  0  0  0  0  0  0  0  0  0  0
    3.8068   58.2786   76.7278 H   0  0  0  0  0  0  0  0  0  0  0  0
    3.2155   59.9747   76.7278 H   0  0  0  0  0  0  0  0  0  0  0  0
    1.3913   55.1349   78.5845 H   0  0  0  0  0  0  0  0  0  0  0  0
    0.2755   55.4495   77.2124 H   0  0  0  0  0  0  0  0  0  0  0  0
    1.3067   53.9787   77.2124 H   0  0  0  0  0  0  0  0  0  0  0  0
   -2.3245   61.9316   73.4349 H   0  0  0  0  0  0  0  0  0  0  0  0
   -4.6939   61.5382   74.0872 H   0  0  0  0  0  0  0  0  0  0  0  0
   -3.5937   57.6791   75.6954 H   0  0  0  0  0  0  0  0  0  0  0  0
   -1.2258   58.0791   75.0363 H   0  0  0  0  0  0  0  0  0  0  0  0
   -7.3184   57.9679   74.2308 H   0  0  0  0  0  0  0  0  0  0  0  0
   -7.0299   59.4294   73.4499 H   0  0  0  0  0  0  0  0  0  0  0  0
  2  1  1  0
  3  2  1  0
  4  3  2  0
  5  4  1  0
  5  1  1  0
  6  3  1  0
  7  6  2  0
  8  7  1  0
  9  8  1  0
 10  8  2  0
 11 10  1  0
 12 11  2  0
 12  6  1  0
 13 11  1  0
 15 14  2  0
 16 15  1  0
 17 16  2  0
 18 17  1  0
 19 18  2  0
 19 14  1  0
 19  1  1  0
 21 20  1  0
 21 14  1  0
 22 15  1  0
 23 22  1  0
 24  5  1  0
 25 24  2  0
 26 25  1  0
 27 26  2  0
 28 27  1  0
 29 28  2  0
 29 24  1  0
 30 27  1  0
 31 30  2  0
 32 30  2  0
 33 30  1  0
  1 34  1  1
  2 35  1  0
  2 36  1  0
  7 37  1  0
 10 38  1  0
 12 39  1  0
 16 40  1  0
 17 41  1  0
 18 42  1  0
 20 43  1  0
 20 44  1  0
 20 45  1  0
 23 46  1  0
 23 47  1  0
 23 48  1  0
 25 49  1  0
 26 50  1  0
 28 51  1  0
 29 52  1  0
 33 53  1  0
 33 54  1  0
M  END
>  <score>  (4) 
-8.031

$$$$
=
     RDKit          3D

 54 57  0  0  0  0  0  0  0  0999 V2000
   -1.1140   59.4780   75.3800 C   0  0  1  0  0  0  0  0  0  0  0  0
   -1.2570   58.0910   76.0110 C   0  0  0  0  0  0  0  0  0  0  0  0
   -0.9370   57.2220   74.8260 C   0  0  0  0  0  0  0  0  0  0  0  0
   -0.4740   57.8480   73.7880 N   0  0  0  0  0  0  0  0  0  0  0  0
   -0.4770   59.1790   74.0910 N   0  0  0  0  0  0  0  0  0  0  0  0
   -1.1070   55.7510   74.8660 C   0  0  0  0  0  0  0  0  0  0  0  0
   -0.1190   54.9390   74.2950 C   0  0  0  0  0  0  0  0  0  0  0  0
   -0.2620   53.5550   74.3240 C   0  0  0  0  0  0  0  0  0  0  0  0
    0.6850   52.7850   73.7750 F   0  0  0  0  0  0  0  0  0  0  0  0
   -1.3680   52.9600   74.9110 C   0  0  0  0  0  0  0  0  0  0  0  0
   -2.3400   53.7730   75.4760 C   0  0  0  0  0  0  0  0  0  0  0  0
   -2.2250   55.1610   75.4630 C   0  0  0  0  0  0  0  0  0  0  0  0
   -3.4140   53.2130   76.0500 F   0  0  0  0  0  0  0  0  0  0  0  0
   -2.6200   61.5080   75.6350 C   0  0  0  0  0  0  0  0  0  0  0  0
   -3.8560   62.1710   75.4850 C   0  0  0  0  0  0  0  0  0  0  0  0
   -4.9630   61.4470   75.0290 C   0  0  0  0  0  0  0  0  0  0  0  0
   -4.8400   60.0970   74.7010 C   0  0  0  0  0  0  0  0  0  0  0  0
   -3.6080   59.4580   74.8080 C   0  0  0  0  0  0  0  0  0  0  0  0
   -2.4740   60.1560   75.2540 C   0  0  0  0  0  0  0  0  0  0  0  0
   -1.3820   62.2240   77.5100 C   0  0  0  0  0  0  0  0  0  0  0  0
   -1.4740   62.1210   76.0900 O   0  0  0  0  0  0  0  0  0  0  0  0
   -3.8930   63.5060   75.7910 O   0  0  0  0  0  0  0  0  0  0  0  0
   -5.1630   64.0840   76.0650 C   0  0  0  0  0  0  0  0  0  0  0  0
    0.1450   60.1070   73.2550 C   0  0  0  0  0  0  0  0  0  0  0  0
   -0.5400   61.2580   72.8250 C   0  0  0  0  0  0  0  0  0  0  0  0
    0.0550   62.2100   71.9900 C   0  0  0  0  0  0  0  0  0  0  0  0
    1.3640   62.0130   71.5610 C   0  0  0  0  0  0  0  0  0  0  0  0
    2.0810   60.8930   71.9760 C   0  0  0  0  0  0  0  0  0  0  0  0
    1.4700   59.9510   72.8120 C   0  0  0  0  0  0  0  0  0  0  0  0
    2.1370   63.2020   70.5000 S   0  0  0  0  0  6  0  0  0  0  0  0
    3.4070   63.5750   71.0720 O   0  0  0  0  0  0  0  0  0  0  0  0
    1.1480   64.1770   70.1000 O   0  0  0  0  0  0  0  0  0  0  0  0
    2.4400   62.2750   69.1250 N   0  0  0  0  0  0  0  0  0  0  0  0
   -0.5211   60.1931   75.9692 H   0  0  0  0  0  0  0  0  0  0  0  0
   -0.5394   57.9411   76.8311 H   0  0  0  0  0  0  0  0  0  0  0  0
   -2.2350   57.8949   76.4749 H   0  0  0  0  0  0  0  0  0  0  0  0
    0.7661   55.3932   73.8257 H   0  0  0  0  0  0  0  0  0  0  0  0
   -1.4729   51.8651   74.9285 H   0  0  0  0  0  0  0  0  0  0  0  0
   -3.0065   55.7871   75.9182 H   0  0  0  0  0  0  0  0  0  0  0  0
   -5.9379   61.9464   74.9284 H   0  0  0  0  0  0  0  0  0  0  0  0
   -5.7204   59.5348   74.3563 H   0  0  0  0  0  0  0  0  0  0  0  0
   -3.5217   58.3946   74.5403 H   0  0  0  0  0  0  0  0  0  0  0  0
   -2.0460   61.4806   77.9753 H   0  0  0  0  0  0  0  0  0  0  0  0
   -0.3447   62.0371   77.8248 H   0  0  0  0  0  0  0  0  0  0  0  0
   -1.6844   63.2337   77.8248 H   0  0  0  0  0  0  0  0  0  0  0  0
   -5.3086   64.1503   77.1533 H   0  0  0  0  0  0  0  0  0  0  0  0
   -5.2094   65.0919   75.6268 H   0  0  0  0  0  0  0  0  0  0  0  0
   -5.9535   63.4570   75.6268 H   0  0  0  0  0  0  0  0  0  0  0  0
   -1.5772   61.4147   73.1560 H   0  0  0  0  0  0  0  0  0  0  0  0
   -0.5051   63.1033   71.6765 H   0  0  0  0  0  0  0  0  0  0  0  0
    3.1213   60.7497   71.6486 H   0  0  0  0  0  0  0  0  0  0  0  0
    2.0411   59.0664   73.1303 H   0  0  0  0  0  0  0  0  0  0  0  0
    2.7478   61.3333   69.4068 H   0  0  0  0  0  0  0  0  0  0  0  0
    1.5793   62.2014   68.5641 H   0  0  0  0  0  0  0  0  0  0  0  0
  2  1  1  0
  3  2  1  0
  4  3  2  0
  5  4  1  0
  5  1  1  0
  6  3  1  0
  7  6  2  0
  8  7  1  0
  9  8  1  0
 10  8  2  0
 11 10  1  0
 12 11  2  0
 12  6  1  0
 13 11  1  0
 15 14  2  0
 16 15  1  0
 17 16  2  0
 18 17  1  0
 19 18  2  0
 19 14  1  0
 19  1  1  0
 21 20  1  0
 21 14  1  0
 22 15  1  0
 23 22  1  0
 24  5  1  0
 25 24  2  0
 26 25  1  0
 27 26  2  0
 28 27  1  0
 29 28  2  0
 29 24  1  0
 30 27  1  0
 31 30  2  0
 32 30  2  0
 33 30  1  0
  1 34  1  1
  2 35  1  0
  2 36  1  0
  7 37  1  0
 10 38  1  0
 12 39  1  0
 16 40  1  0
 17 41  1  0
 18 42  1  0
 20 43  1  0
 20 44  1  0
 20 45  1  0
 23 46  1  0
 23 47  1  0
 23 48  1  0
 25 49  1  0
 26 50  1  0
 28 51  1  0
 29 52  1  0
 33 53  1  0
 33 54  1  0
M  END
>  <score>  (5) 
-7.633

$$$$
=
     RDKit          3D

 54 57  0  0  0  0  0  0  0  0999 V2000
    0.2930   59.9740   74.3780 C   0  0  1  0  0  0  0  0  0  0  0  0
    0.6110   61.1140   73.4080 C   0  0  0  0  0  0  0  0  0  0  0  0
    1.5680   60.4180   72.4790 C   0  0  0  0  0  0  0  0  0  0  0  0
    1.6590   59.1340   72.6390 N   0  0  0  0  0  0  0  0  0  0  0  0
    0.8600   58.8040   73.6950 N   0  0  0  0  0  0  0  0  0  0  0  0
    2.3190   61.1530   71.4360 C   0  0  0  0  0  0  0  0  0  0  0  0
    2.2220   62.5490   71.3900 C   0  0  0  0  0  0  0  0  0  0  0  0
    2.9200   63.2580   70.4160 C   0  0  0  0  0  0  0  0  0  0  0  0
    2.8230   64.5920   70.3770 F   0  0  0  0  0  0  0  0  0  0  0  0
    3.7160   62.6050   69.4860 C   0  0  0  0  0  0  0  0  0  0  0  0
    3.8060   61.2220   69.5410 C   0  0  0  0  0  0  0  0  0  0  0  0
    3.1190   60.4860   70.5040 C   0  0  0  0  0  0  0  0  0  0  0  0
    4.5730   60.5760   68.6520 F   0  0  0  0  0  0  0  0  0  0  0  0
    0.1070   60.7960   76.7740 C   0  0  0  0  0  0  0  0  0  0  0  0
    0.6370   61.0130   78.0630 C   0  0  0  0  0  0  0  0  0  0  0  0
    1.9920   60.7530   78.2920 C   0  0  0  0  0  0  0  0  0  0  0  0
    2.8010   60.2590   77.2690 C   0  0  0  0  0  0  0  0  0  0  0  0
    2.2640   60.0040   76.0110 C   0  0  0  0  0  0  0  0  0  0  0  0
    0.9050   60.2450   75.7490 C   0  0  0  0  0  0  0  0  0  0  0  0
   -1.5230   62.4080   76.2240 C   0  0  0  0  0  0  0  0  0  0  0  0
   -1.2070   61.0340   76.4390 O   0  0  0  0  0  0  0  0  0  0  0  0
   -0.2250   61.4640   79.0290 O   0  0  0  0  0  0  0  0  0  0  0  0
    0.0750   62.7070   79.6510 C   0  0  0  0  0  0  0  0  0  0  0  0
    0.5860   57.4710   74.0000 C   0  0  0  0  0  0  0  0  0  0  0  0
   -0.7010   57.0790   74.4140 C   0  0  0  0  0  0  0  0  0  0  0  0
   -1.0110   55.7500   74.7240 C   0  0  0  0  0  0  0  0  0  0  0  0
   -0.0160   54.7820   74.6290 C   0  0  0  0  0  0  0  0  0  0  0  0
    1.2670   55.1260   74.2090 C   0  0  0  0  0  0  0  0  0  0  0  0
    1.5590   56.4610   73.9020 C   0  0  0  0  0  0  0  0  0  0  0  0
   -0.3840   53.0930   75.0200 S   0  0  0  0  0  6  0  0  0  0  0  0
   -1.4730   53.0650   75.9660 O   0  0  0  0  0  0  0  0  0  0  0  0
    0.8590   52.3890   75.2420 O   0  0  0  0  0  0  0  0  0  0  0  0
   -0.9660   52.5290   73.5420 N   0  0  0  0  0  0  0  0  0  0  0  0
   -0.7772   59.8385   74.5934 H   0  0  0  0  0  0  0  0  0  0  0  0
   -0.2889   61.4615   72.8795 H   0  0  0  0  0  0  0  0  0  0  0  0
    1.0087   62.0237   73.8815 H   0  0  0  0  0  0  0  0  0  0  0  0
    1.5969   63.0835   72.1204 H   0  0  0  0  0  0  0  0  0  0  0  0
    4.2648   63.1728   68.7202 H   0  0  0  0  0  0  0  0  0  0  0  0
    3.2054   59.3897   70.5306 H   0  0  0  0  0  0  0  0  0  0  0  0
    2.4230   60.9396   79.2867 H   0  0  0  0  0  0  0  0  0  0  0  0
    3.8682   60.0702   77.4575 H   0  0  0  0  0  0  0  0  0  0  0  0
    2.9104   59.6095   75.2132 H   0  0  0  0  0  0  0  0  0  0  0  0
   -1.6393   62.9136   77.1940 H   0  0  0  0  0  0  0  0  0  0  0  0
   -0.7114   62.8864   75.6561 H   0  0  0  0  0  0  0  0  0  0  0  0
   -2.4620   62.4838   75.6561 H   0  0  0  0  0  0  0  0  0  0  0  0
    0.0459   62.5865   80.7440 H   0  0  0  0  0  0  0  0  0  0  0  0
    1.0787   63.0373   79.3451 H   0  0  0  0  0  0  0  0  0  0  0  0
   -0.6675   63.4587   79.3451 H   0  0  0  0  0  0  0  0  0  0  0  0
   -1.4888   57.8422   74.4966 H   0  0  0  0  0  0  0  0  0  0  0  0
   -2.0283   55.4742   75.0387 H   0  0  0  0  0  0  0  0  0  0  0  0
    2.0456   54.3542   74.1191 H   0  0  0  0  0  0  0  0  0  0  0  0
    2.5756   56.7260   73.5759 H   0  0  0  0  0  0  0  0  0  0  0  0
   -1.6960   51.8216   73.7079 H   0  0  0  0  0  0  0  0  0  0  0  0
   -1.3641   53.3143   73.0075 H   0  0  0  0  0  0  0  0  0  0  0  0
  2  1  1  0
  3  2  1  0
  4  3  2  0
  5  4  1  0
  5  1  1  0
  6  3  1  0
  7  6  2  0
  8  7  1  0
  9  8  1  0
 10  8  2  0
 11 10  1  0
 12 11  2  0
 12  6  1  0
 13 11  1  0
 15 14  2  0
 16 15  1  0
 17 16  2  0
 18 17  1  0
 19 18  2  0
 19 14  1  0
 19  1  1  0
 21 20  1  0
 21 14  1  0
 22 15  1  0
 23 22  1  0
 24  5  1  0
 25 24  2  0
 26 25  1  0
 27 26  2  0
 28 27  1  0
 29 28  2  0
 29 24  1  0
 30 27  1  0
 31 30  2  0
 32 30  2  0
 33 30  1  0
  1 34  1  1
  2 35  1  0
  2 36  1  0
  7 37  1  0
 10 38  1  0
 12 39  1  0
 16 40  1  0
 17 41  1  0
 18 42  1  0
 20 43  1  0
 20 44  1  0
 20 45  1  0
 23 46  1  0
 23 47  1  0
 23 48  1  0
 25 49  1  0
 26 50  1  0
 28 51  1  0
 29 52  1  0
 33 53  1  0
 33 54  1  0
M  END
>  <score>  (6) 
-7.526

$$$$
=
     RDKit          3D

 54 57  0  0  0  0  0  0  0  0999 V2000
   -0.5600   60.4480   75.2250 C   0  0  1  0  0  0  0  0  0  0  0  0
   -1.7100   61.4000   75.5620 C   0  0  0  0  0  0  0  0  0  0  0  0
   -2.8800   60.6000   75.0590 C   0  0  0  0  0  0  0  0  0  0  0  0
   -2.6090   59.3770   74.7200 N   0  0  0  0  0  0  0  0  0  0  0  0
   -1.2640   59.2070   74.8790 N   0  0  0  0  0  0  0  0  0  0  0  0
   -4.2450   61.1680   74.9950 C   0  0  0  0  0  0  0  0  0  0  0  0
   -5.2370   60.4700   74.2940 C   0  0  0  0  0  0  0  0  0  0  0  0
   -6.5260   60.9880   74.2230 C   0  0  0  0  0  0  0  0  0  0  0  0
   -7.4690   60.3160   73.5510 F   0  0  0  0  0  0  0  0  0  0  0  0
   -6.8530   62.1890   74.8360 C   0  0  0  0  0  0  0  0  0  0  0  0
   -5.8640   62.8720   75.5290 C   0  0  0  0  0  0  0  0  0  0  0  0
   -4.5640   62.3780   75.6180 C   0  0  0  0  0  0  0  0  0  0  0  0
   -6.1630   64.0320   76.1300 F   0  0  0  0  0  0  0  0  0  0  0  0
    1.6910   61.1070   74.2500 C   0  0  0  0  0  0  0  0  0  0  0  0
    2.5050   61.5800   73.1990 C   0  0  0  0  0  0  0  0  0  0  0  0
    1.8990   62.0340   72.0230 C   0  0  0  0  0  0  0  0  0  0  0  0
    0.5120   61.9920   71.8790 C   0  0  0  0  0  0  0  0  0  0  0  0
   -0.2840   61.4820   72.9000 C   0  0  0  0  0  0  0  0  0  0  0  0
    0.2910   61.0110   74.0910 C   0  0  0  0  0  0  0  0  0  0  0  0
    2.7800   59.3590   75.3990 C   0  0  0  0  0  0  0  0  0  0  0  0
    2.1830   60.6540   75.4530 O   0  0  0  0  0  0  0  0  0  0  0  0
    3.8610   61.5580   73.3970 O   0  0  0  0  0  0  0  0  0  0  0  0
    4.6820   61.2050   72.2910 C   0  0  0  0  0  0  0  0  0  0  0  0
   -0.6850   57.9410   74.7850 C   0  0  0  0  0  0  0  0  0  0  0  0
    0.0690   57.5790   73.6530 C   0  0  0  0  0  0  0  0  0  0  0  0
    0.6660   56.3200   73.5280 C   0  0  0  0  0  0  0  0  0  0  0  0
    0.5050   55.3880   74.5490 C   0  0  0  0  0  0  0  0  0  0  0  0
   -0.2220   55.7120   75.6920 C   0  0  0  0  0  0  0  0  0  0  0  0
   -0.8120   56.9780   75.8010 C   0  0  0  0  0  0  0  0  0  0  0  0
    1.2480   53.7860   74.4100 S   0  0  0  0  0  6  0  0  0  0  0  0
    0.3480   52.9200   73.6890 O   0  0  0  0  0  0  0  0  0  0  0  0
    1.8130   53.4270   75.6910 O   0  0  0  0  0  0  0  0  0  0  0  0
    2.5650   54.1150   73.4110 N   0  0  0  0  0  0  0  0  0  0  0  0
    0.1625   60.2915   76.0396 H   0  0  0  0  0  0  0  0  0  0  0  0
   -1.7798   61.5864   76.6438 H   0  0  0  0  0  0  0  0  0  0  0  0
   -1.6181   62.4049   75.1242 H   0  0  0  0  0  0  0  0  0  0  0  0
   -4.9975   59.5160   73.8016 H   0  0  0  0  0  0  0  0  0  0  0  0
   -7.8749   62.5912   74.7738 H   0  0  0  0  0  0  0  0  0  0  0  0
   -3.7955   62.9354   76.1737 H   0  0  0  0  0  0  0  0  0  0  0  0
    2.5209   62.4272   71.2053 H   0  0  0  0  0  0  0  0  0  0  0  0
    0.0458   62.3636   70.9546 H   0  0  0  0  0  0  0  0  0  0  0  0
   -1.3760   61.4475   72.7725 H   0  0  0  0  0  0  0  0  0  0  0  0
    2.9498   58.9906   76.4215 H   0  0  0  0  0  0  0  0  0  0  0  0
    2.1095   58.6681   74.8670 H   0  0  0  0  0  0  0  0  0  0  0  0
    3.7408   59.4201   74.8670 H   0  0  0  0  0  0  0  0  0  0  0  0
    5.6348   60.7953   72.6576 H   0  0  0  0  0  0  0  0  0  0  0  0
    4.1684   60.4482   71.6799 H   0  0  0  0  0  0  0  0  0  0  0  0
    4.8779   62.0984   71.6799 H   0  0  0  0  0  0  0  0  0  0  0  0
    0.1929   58.3097   72.8402 H   0  0  0  0  0  0  0  0  0  0  0  0
    1.2555   56.0697   72.6336 H   0  0  0  0  0  0  0  0  0  0  0  0
   -0.3322   54.9783   76.5042 H   0  0  0  0  0  0  0  0  0  0  0  0
   -1.3891   57.2246   76.7044 H   0  0  0  0  0  0  0  0  0  0  0  0
    3.3917   54.3215   73.9896 H   0  0  0  0  0  0  0  0  0  0  0  0
    2.7579   53.2964   72.8164 H   0  0  0  0  0  0  0  0  0  0  0  0
  2  1  1  0
  3  2  1  0
  4  3  2  0
  5  4  1  0
  5  1  1  0
  6  3  1  0
  7  6  2  0
  8  7  1  0
  9  8  1  0
 10  8  2  0
 11 10  1  0
 12 11  2  0
 12  6  1  0
 13 11  1  0
 15 14  2  0
 16 15  1  0
 17 16  2  0
 18 17  1  0
 19 18  2  0
 19 14  1  0
 19  1  1  0
 21 20  1  0
 21 14  1  0
 22 15  1  0
 23 22  1  0
 24  5  1  0
 25 24  2  0
 26 25  1  0
 27 26  2  0
 28 27  1  0
 29 28  2  0
 29 24  1  0
 30 27  1  0
 31 30  2  0
 32 30  2  0
 33 30  1  0
  1 34  1  1
  2 35  1  0
  2 36  1  0
  7 37  1  0
 10 38  1  0
 12 39  1  0
 16 40  1  0
 17 41  1  0
 18 42  1  0
 20 43  1  0
 20 44  1  0
 20 45  1  0
 23 46  1  0
 23 47  1  0
 23 48  1  0
 25 49  1  0
 26 50  1  0
 28 51  1  0
 29 52  1  0
 33 53  1  0
 33 54  1  0
M  END
>  <score>  (7) 
-7.503

$$$$
=
     RDKit          3D

 54 57  0  0  0  0  0  0  0  0999 V2000
    0.8920   61.2810   74.9950 C   0  0  1  0  0  0  0  0  0  0  0  0
    0.1150   62.4580   75.5900 C   0  0  0  0  0  0  0  0  0  0  0  0
   -1.2610   61.8570   75.6750 C   0  0  0  0  0  0  0  0  0  0  0  0
   -1.3240   60.5820   75.4420 N   0  0  0  0  0  0  0  0  0  0  0  0
   -0.0620   60.1720   75.1180 N   0  0  0  0  0  0  0  0  0  0  0  0
   -2.4460   62.6670   76.0360 C   0  0  0  0  0  0  0  0  0  0  0  0
   -3.7190   62.2010   75.6820 C   0  0  0  0  0  0  0  0  0  0  0  0
   -4.8450   62.9480   76.0130 C   0  0  0  0  0  0  0  0  0  0  0  0
   -6.0580   62.4980   75.6700 F   0  0  0  0  0  0  0  0  0  0  0  0
   -4.7330   64.1520   76.6920 C   0  0  0  0  0  0  0  0  0  0  0  0
   -3.4680   64.6050   77.0400 C   0  0  0  0  0  0  0  0  0  0  0  0
   -2.3230   63.8790   76.7220 C   0  0  0  0  0  0  0  0  0  0  0  0
   -3.3420   65.7650   77.6990 F   0  0  0  0  0  0  0  0  0  0  0  0
    2.5970   61.2120   73.1140 C   0  0  0  0  0  0  0  0  0  0  0  0
    2.9900   61.4370   71.7780 C   0  0  0  0  0  0  0  0  0  0  0  0
    2.1150   62.1060   70.9160 C   0  0  0  0  0  0  0  0  0  0  0  0
    0.8600   62.5200   71.3630 C   0  0  0  0  0  0  0  0  0  0  0  0
    0.4590   62.2570   72.6690 C   0  0  0  0  0  0  0  0  0  0  0  0
    1.3090   61.5800   73.5590 C   0  0  0  0  0  0  0  0  0  0  0  0
    3.6260   59.1990   73.7800 C   0  0  0  0  0  0  0  0  0  0  0  0
    3.3880   60.5790   74.0460 O   0  0  0  0  0  0  0  0  0  0  0  0
    4.2220   60.9690   71.3980 O   0  0  0  0  0  0  0  0  0  0  0  0
    5.2790   61.9130   71.2870 C   0  0  0  0  0  0  0  0  0  0  0  0
    0.2440   58.8160   75.0020 C   0  0  0  0  0  0  0  0  0  0  0  0
   -0.0520   58.1120   73.8200 C   0  0  0  0  0  0  0  0  0  0  0  0
    0.2450   56.7530   73.6700 C   0  0  0  0  0  0  0  0  0  0  0  0
    0.8450   56.0690   74.7230 C   0  0  0  0  0  0  0  0  0  0  0  0
    1.1670   56.7330   75.9040 C   0  0  0  0  0  0  0  0  0  0  0  0
    0.8630   58.0940   76.0370 C   0  0  0  0  0  0  0  0  0  0  0  0
    1.2260   54.3470   74.5570 S   0  0  0  0  0  6  0  0  0  0  0  0
    1.3190   53.7650   75.8730 O   0  0  0  0  0  0  0  0  0  0  0  0
    2.2680   54.1980   73.5660 O   0  0  0  0  0  0  0  0  0  0  0  0
   -0.1780   53.7630   73.8290 N   0  0  0  0  0  0  0  0  0  0  0  0
    1.8430   61.0556   75.4998 H   0  0  0  0  0  0  0  0  0  0  0  0
    0.4984   62.7387   76.5821 H   0  0  0  0  0  0  0  0  0  0  0  0
    0.1750   63.3899   75.0087 H   0  0  0  0  0  0  0  0  0  0  0  0
   -3.8278   61.2477   75.1441 H   0  0  0  0  0  0  0  0  0  0  0  0
   -5.6287   64.7363   76.9496 H   0  0  0  0  0  0  0  0  0  0  0  0
   -1.3300   64.2560   77.0082 H   0  0  0  0  0  0  0  0  0  0  0  0
    2.4186   62.3072   69.8780 H   0  0  0  0  0  0  0  0  0  0  0  0
    0.1848   63.0565   70.6802 H   0  0  0  0  0  0  0  0  0  0  0  0
   -0.5352   62.5830   73.0085 H   0  0  0  0  0  0  0  0  0  0  0  0
    3.7201   58.6533   74.7304 H   0  0  0  0  0  0  0  0  0  0  0  0
    2.7857   58.7867   73.2021 H   0  0  0  0  0  0  0  0  0  0  0  0
    4.5559   59.0920   73.2021 H   0  0  0  0  0  0  0  0  0  0  0  0
    5.6120   62.2104   72.2923 H   0  0  0  0  0  0  0  0  0  0  0  0
    6.1197   61.4596   70.7414 H   0  0  0  0  0  0  0  0  0  0  0  0
    4.9232   62.7994   70.7414 H   0  0  0  0  0  0  0  0  0  0  0  0
   -0.5322   58.6472   72.9875 H   0  0  0  0  0  0  0  0  0  0  0  0
    0.0071   56.2315   72.7311 H   0  0  0  0  0  0  0  0  0  0  0  0
    1.6569   56.1923   76.7272 H   0  0  0  0  0  0  0  0  0  0  0  0
    1.1150   58.6106   76.9749 H   0  0  0  0  0  0  0  0  0  0  0  0
   -0.8511   53.4830   74.5566 H   0  0  0  0  0  0  0  0  0  0  0  0
   -0.5933   54.5011   73.2428 H   0  0  0  0  0  0  0  0  0  0  0  0
  2  1  1  0
  3  2  1  0
  4  3  2  0
  5  4  1  0
  5  1  1  0
  6  3  1  0
  7  6  2  0
  8  7  1  0
  9  8  1  0
 10  8  2  0
 11 10  1  0
 12 11  2  0
 12  6  1  0
 13 11  1  0
 15 14  2  0
 16 15  1  0
 17 16  2  0
 18 17  1  0
 19 18  2  0
 19 14  1  0
 19  1  1  0
 21 20  1  0
 21 14  1  0
 22 15  1  0
 23 22  1  0
 24  5  1  0
 25 24  2  0
 26 25  1  0
 27 26  2  0
 28 27  1  0
 29 28  2  0
 29 24  1  0
 30 27  1  0
 31 30  2  0
 32 30  2  0
 33 30  1  0
  1 34  1  1
  2 35  1  0
  2 36  1  0
  7 37  1  0
 10 38  1  0
 12 39  1  0
 16 40  1  0
 17 41  1  0
 18 42  1  0
 20 43  1  0
 20 44  1  0
 20 45  1  0
 23 46  1  0
 23 47  1  0
 23 48  1  0
 25 49  1  0
 26 50  1  0
 28 51  1  0
 29 52  1  0
 33 53  1  0
 33 54  1  0
M  END
>  <score>  (8) 
-6.944

$$$$
=
     RDKit          3D

 54 57  0  0  0  0  0  0  0  0999 V2000
    1.4660   60.0470   75.8440 C   0  0  1  0  0  0  0  0  0  0  0  0
    1.9970   61.2250   75.0230 C   0  0  0  0  0  0  0  0  0  0  0  0
    2.4590   60.5050   73.7860 C   0  0  0  0  0  0  0  0  0  0  0  0
    2.1080   59.2590   73.7070 N   0  0  0  0  0  0  0  0  0  0  0  0
    1.4440   58.9570   74.8610 N   0  0  0  0  0  0  0  0  0  0  0  0
    3.2270   61.1930   72.7230 C   0  0  0  0  0  0  0  0  0  0  0  0
    4.4940   60.7040   72.3790 C   0  0  0  0  0  0  0  0  0  0  0  0
    5.2310   61.3360   71.3820 C   0  0  0  0  0  0  0  0  0  0  0  0
    6.4410   60.8650   71.0590 F   0  0  0  0  0  0  0  0  0  0  0  0
    4.7330   62.4470   70.7170 C   0  0  0  0  0  0  0  0  0  0  0  0
    3.4760   62.9230   71.0640 C   0  0  0  0  0  0  0  0  0  0  0  0
    2.7160   62.3100   72.0570 C   0  0  0  0  0  0  0  0  0  0  0  0
    2.9800   63.9930   70.4300 F   0  0  0  0  0  0  0  0  0  0  0  0
    2.2750   60.6030   78.1860 C   0  0  0  0  0  0  0  0  0  0  0  0
    3.0640   60.3460   79.3270 C   0  0  0  0  0  0  0  0  0  0  0  0
    4.0020   59.3100   79.2850 C   0  0  0  0  0  0  0  0  0  0  0  0
    4.1360   58.5230   78.1410 C   0  0  0  0  0  0  0  0  0  0  0  0
    3.3250   58.7500   77.0330 C   0  0  0  0  0  0  0  0  0  0  0  0
    2.3670   59.7770   77.0450 C   0  0  0  0  0  0  0  0  0  0  0  0
    0.1200   61.3290   78.8080 C   0  0  0  0  0  0  0  0  0  0  0  0
    1.3360   61.6070   78.1170 O   0  0  0  0  0  0  0  0  0  0  0  0
    2.8520   61.1360   80.4280 O   0  0  0  0  0  0  0  0  0  0  0  0
    3.8650   62.0740   80.7700 C   0  0  0  0  0  0  0  0  0  0  0  0
    0.7660   57.7450   75.0030 C   0  0  0  0  0  0  0  0  0  0  0  0
    0.3990   56.9920   73.8720 C   0  0  0  0  0  0  0  0  0  0  0  0
   -0.2780   55.7720   73.9790 C   0  0  0  0  0  0  0  0  0  0  0  0
   -0.6080   55.2870   75.2410 C   0  0  0  0  0  0  0  0  0  0  0  0
   -0.2480   55.9960   76.3850 C   0  0  0  0  0  0  0  0  0  0  0  0
    0.4290   57.2150   76.2590 C   0  0  0  0  0  0  0  0  0  0  0  0
   -1.4680   53.7460   75.4000 S   0  0  0  0  0  6  0  0  0  0  0  0
   -2.8860   54.0080   75.4130 O   0  0  0  0  0  0  0  0  0  0  0  0
   -0.8140   52.9560   76.4180 O   0  0  0  0  0  0  0  0  0  0  0  0
   -1.0910   53.0010   73.9360 N   0  0  0  0  0  0  0  0  0  0  0  0
    0.4751   60.2082   76.2937 H   0  0  0  0  0  0  0  0  0  0  0  0
    1.2045   61.9538   74.7975 H   0  0  0  0  0  0  0  0  0  0  0  0
    2.7726   61.8226   75.5242 H   0  0  0  0  0  0  0  0  0  0  0  0
    4.9047   59.8237   72.8951 H   0  0  0  0  0  0  0  0  0  0  0  0
    5.3224   62.9409   69.9304 H   0  0  0  0  0  0  0  0  0  0  0  0
    1.7212   62.7021   72.3150 H   0  0  0  0  0  0  0  0  0  0  0  0
    4.6388   59.1141   80.1603 H   0  0  0  0  0  0  0  0  0  0  0  0
    4.8863   57.7191   78.1145 H   0  0  0  0  0  0  0  0  0  0  0  0
    3.4354   58.1188   76.1389 H   0  0  0  0  0  0  0  0  0  0  0  0
    0.2972   61.3695   79.8929 H   0  0  0  0  0  0  0  0  0  0  0  0
   -0.6378   62.0771   78.5321 H   0  0  0  0  0  0  0  0  0  0  0  0
   -0.2375   60.3260   78.5321 H   0  0  0  0  0  0  0  0  0  0  0  0
    3.9432   62.1464   81.8648 H   0  0  0  0  0  0  0  0  0  0  0  0
    4.8279   61.7415   80.3548 H   0  0  0  0  0  0  0  0  0  0  0  0
    3.6074   63.0595   80.3548 H   0  0  0  0  0  0  0  0  0  0  0  0
    0.6524   57.3746   72.8723 H   0  0  0  0  0  0  0  0  0  0  0  0
   -0.5461   55.2032   73.0765 H   0  0  0  0  0  0  0  0  0  0  0  0
   -0.4942   55.6004   77.3814 H   0  0  0  0  0  0  0  0  0  0  0  0
    0.7039   57.7718   77.1670 H   0  0  0  0  0  0  0  0  0  0  0  0
   -0.6333   52.0966   74.1189 H   0  0  0  0  0  0  0  0  0  0  0  0
   -1.9550   52.8458   73.3972 H   0  0  0  0  0  0  0  0  0  0  0  0
  2  1  1  0
  3  2  1  0
  4  3  2  0
  5  4  1  0
  5  1  1  0
  6  3  1  0
  7  6  2  0
  8  7  1  0
  9  8  1  0
 10  8  2  0
 11 10  1  0
 12 11  2  0
 12  6  1  0
 13 11  1  0
 15 14  2  0
 16 15  1  0
 17 16  2  0
 18 17  1  0
 19 18  2  0
 19 14  1  0
 19  1  1  0
 21 20  1  0
 21 14  1  0
 22 15  1  0
 23 22  1  0
 24  5  1  0
 25 24  2  0
 26 25  1  0
 27 26  2  0
 28 27  1  0
 29 28  2  0
 29 24  1  0
 30 27  1  0
 31 30  2  0
 32 30  2  0
 33 30  1  0
  1 34  1  1
  2 35  1  0
  2 36  1  0
  7 37  1  0
 10 38  1  0
 12 39  1  0
 16 40  1  0
 17 41  1  0
 18 42  1  0
 20 43  1  0
 20 44  1  0
 20 45  1  0
 23 46  1  0
 23 47  1  0
 23 48  1  0
 25 49  1  0
 26 50  1  0
 28 51  1  0
 29 52  1  0
 33 53  1  0
 33 54  1  0
M  END
>  <score>  (9) 
-6.507

$$$$
