=
     RDKit          3D

 42 43  0  0  0  0  0  0  0  0999 V2000
    1.5710   67.6550   69.8190 O   0  0  0  0  0  0  0  0  0  0  0  0
    1.3100   66.8510   68.9390 C   0  0  0  0  0  0  0  0  0  0  0  0
    1.0480   67.2260   67.6280 N   0  0  0  0  0  0  0  0  0  0  0  0
    1.2530   65.4790   69.1090 N   0  0  0  0  0  0  0  0  0  0  0  0
    1.4670   64.8220   70.3490 N   0  0  0  0  0  0  0  0  0  0  0  0
    0.2170   64.6810   71.1050 C   0  0  0  0  0  0  0  0  0  0  0  0
    0.3890   64.2080   72.5510 C   0  0  0  0  0  0  0  0  0  0  0  0
    0.7580   62.7330   72.6560 C   0  0  0  0  0  0  0  0  0  0  0  0
    2.2440   62.4330   72.5060 C   0  0  0  0  0  0  0  0  0  0  0  0
    3.0130   63.2330   71.4580 C   0  0  0  0  0  0  0  0  0  0  0  0
    2.2360   63.5780   70.1890 C   0  0  0  0  0  0  0  0  0  0  0  0
    0.9970   68.7920   67.0800 S   0  0  0  0  0  6  0  0  0  0  0  0
    0.6660   68.6810   65.6720 O   0  0  0  0  0  0  0  0  0  0  0  0
    0.1790   69.5900   67.9650 O   0  0  0  0  0  0  0  0  0  0  0  0
    2.6840   69.3280   67.1860 C   0  0  0  0  0  0  0  0  0  0  0  0
    3.1310   69.9940   68.3280 C   0  0  0  0  0  0  0  0  0  0  0  0
    4.4520   70.4390   68.3960 C   0  0  0  0  0  0  0  0  0  0  0  0
    5.3290   70.2250   67.3230 C   0  0  0  0  0  0  0  0  0  0  0  0
    4.8580   69.5840   66.1690 C   0  0  0  0  0  0  0  0  0  0  0  0
    3.5390   69.1340   66.0970 C   0  0  0  0  0  0  0  0  0  0  0  0
    6.7370   70.7390   67.3850 C   0  0  0  0  0  0  0  0  0  0  0  0
    0.8721   66.4761   66.9442 H   0  0  0  0  0  0  0  0  0  0  0  0
    1.0422   64.8984   68.2847 H   0  0  0  0  0  0  0  0  0  0  0  0
   -0.2840   65.6601   71.1229 H   0  0  0  0  0  0  0  0  0  0  0  0
   -0.3676   63.9026   70.5929 H   0  0  0  0  0  0  0  0  0  0  0  0
    1.1856   64.8028   73.0218 H   0  0  0  0  0  0  0  0  0  0  0  0
   -0.5781   64.3418   73.0578 H   0  0  0  0  0  0  0  0  0  0  0  0
    0.4333   62.3686   73.6418 H   0  0  0  0  0  0  0  0  0  0  0  0
    0.2545   62.2279   71.8185 H   0  0  0  0  0  0  0  0  0  0  0  0
    2.7196   62.6198   73.4801 H   0  0  0  0  0  0  0  0  0  0  0  0
    2.2899   61.3905   72.1580 H   0  0  0  0  0  0  0  0  0  0  0  0
    3.3373   64.1757   71.9229 H   0  0  0  0  0  0  0  0  0  0  0  0
    3.8429   62.5869   71.1360 H   0  0  0  0  0  0  0  0  0  0  0  0
    1.5421   62.7558   69.9601 H   0  0  0  0  0  0  0  0  0  0  0  0
    2.9573   63.7209   69.3709 H   0  0  0  0  0  0  0  0  0  0  0  0
    2.4454   70.1674   69.1705 H   0  0  0  0  0  0  0  0  0  0  0  0
    4.8074   70.9608   69.2968 H   0  0  0  0  0  0  0  0  0  0  0  0
    5.5332   69.4345   65.3136 H   0  0  0  0  0  0  0  0  0  0  0  0
    3.1745   68.6301   65.1897 H   0  0  0  0  0  0  0  0  0  0  0  0
    7.0409   70.8499   68.4364 H   0  0  0  0  0  0  0  0  0  0  0  0
    7.4093   70.0283   66.8821 H   0  0  0  0  0  0  0  0  0  0  0  0
    6.7933   71.7157   66.8821 H   0  0  0  0  0  0  0  0  0  0  0  0
  2  1  2  0
  3  2  1  0
  4  2  1  0
  5  4  1  0
  6  5  1  0
  7  6  1  0
  8  7  1  0
  9  8  1  0
 10  9  1  0
 11  5  1  0
 11 10  1  0
 12  3  1  0
 13 12  2  0
 14 12  2  0
 15 12  1  0
 16 15  2  0
 17 16  1  0
 18 17  2  0
 19 18  1  0
 20 19  2  0
 20 15  1  0
 21 18  1  0
  3 22  1  0
  4 23  1  0
  6 24  1  0
  6 25  1  0
  7 26  1  0
  7 27  1  0
  8 28  1  0
  8 29  1  0
  9 30  1  0
  9 31  1  0
 10 32  1  0
 10 33  1  0
 11 34  1  0
 11 35  1  0
 16 36  1  0
 17 37  1  0
 19 38  1  0
 20 39  1  0
 21 40  1  0
 21 41  1  0
 21 42  1  0
M  END
>  <score>  (1) 
-9.125

$$$$
=
     RDKit          3D

 42 43  0  0  0  0  0  0  0  0999 V2000
    0.1380   66.3990   68.2830 O   0  0  0  0  0  0  0  0  0  0  0  0
    1.0420   66.8130   68.9910 C   0  0  0  0  0  0  0  0  0  0  0  0
    1.5420   68.1040   68.8980 N   0  0  0  0  0  0  0  0  0  0  0  0
    1.6750   66.0800   69.9790 N   0  0  0  0  0  0  0  0  0  0  0  0
    1.3710   64.7270   70.2840 N   0  0  0  0  0  0  0  0  0  0  0  0
    2.5700   63.8820   70.2320 C   0  0  0  0  0  0  0  0  0  0  0  0
    2.3000   62.3770   70.3060 C   0  0  0  0  0  0  0  0  0  0  0  0
    1.8880   61.9120   71.6970 C   0  0  0  0  0  0  0  0  0  0  0  0
    0.4060   62.0730   72.0130 C   0  0  0  0  0  0  0  0  0  0  0  0
   -0.2790   63.3410   71.5100 C   0  0  0  0  0  0  0  0  0  0  0  0
    0.5810   64.6040   71.5190 C   0  0  0  0  0  0  0  0  0  0  0  0
    1.0400   69.2410   67.7970 S   0  0  0  0  0  6  0  0  0  0  0  0
   -0.1800   68.6980   67.2320 O   0  0  0  0  0  0  0  0  0  0  0  0
    1.0460   70.5490   68.4130 O   0  0  0  0  0  0  0  0  0  0  0  0
    2.2820   69.1760   66.5330 C   0  0  0  0  0  0  0  0  0  0  0  0
    3.5920   69.5610   66.8250 C   0  0  0  0  0  0  0  0  0  0  0  0
    4.5590   69.5360   65.8200 C   0  0  0  0  0  0  0  0  0  0  0  0
    4.2230   69.1310   64.5200 C   0  0  0  0  0  0  0  0  0  0  0  0
    2.8980   68.7780   64.2330 C   0  0  0  0  0  0  0  0  0  0  0  0
    1.9260   68.7990   65.2340 C   0  0  0  0  0  0  0  0  0  0  0  0
    5.2590   69.1410   63.4340 C   0  0  0  0  0  0  0  0  0  0  0  0
    2.2803   68.3777   69.5621 H   0  0  0  0  0  0  0  0  0  0  0  0
    2.4127   66.5447   70.5274 H   0  0  0  0  0  0  0  0  0  0  0  0
    3.0938   64.0894   69.2872 H   0  0  0  0  0  0  0  0  0  0  0  0
    3.1643   64.1336   71.1228 H   0  0  0  0  0  0  0  0  0  0  0  0
    1.4922   62.1311   69.6010 H   0  0  0  0  0  0  0  0  0  0  0  0
    3.2385   61.8623   70.0524 H   0  0  0  0  0  0  0  0  0  0  0  0
    2.1439   60.8463   71.7911 H   0  0  0  0  0  0  0  0  0  0  0  0
    2.4275   62.5531   72.4097 H   0  0  0  0  0  0  0  0  0  0  0  0
   -0.1218   61.2143   71.5725 H   0  0  0  0  0  0  0  0  0  0  0  0
    0.3546   62.1380   73.1099 H   0  0  0  0  0  0  0  0  0  0  0  0
   -0.6057   63.1614   70.4751 H   0  0  0  0  0  0  0  0  0  0  0  0
   -1.1052   63.5346   72.2100 H   0  0  0  0  0  0  0  0  0  0  0  0
    1.2658   64.5640   72.3789 H   0  0  0  0  0  0  0  0  0  0  0  0
   -0.0864   65.4755   71.5901 H   0  0  0  0  0  0  0  0  0  0  0  0
    3.8601   69.8824   67.8423 H   0  0  0  0  0  0  0  0  0  0  0  0
    5.5923   69.8360   66.0487 H   0  0  0  0  0  0  0  0  0  0  0  0
    2.6216   68.4819   63.2103 H   0  0  0  0  0  0  0  0  0  0  0  0
    0.8871   68.5210   65.0031 H   0  0  0  0  0  0  0  0  0  0  0  0
    6.2624   69.1507   63.8846 H   0  0  0  0  0  0  0  0  0  0  0  0
    5.1456   68.2417   62.8108 H   0  0  0  0  0  0  0  0  0  0  0  0
    5.1282   70.0379   62.8108 H   0  0  0  0  0  0  0  0  0  0  0  0
  2  1  2  0
  3  2  1  0
  4  2  1  0
  5  4  1  0
  6  5  1  0
  7  6  1  0
  8  7  1  0
  9  8  1  0
 10  9  1  0
 11  5  1  0
 11 10  1  0
 12  3  1  0
 13 12  2  0
 14 12  2  0
 15 12  1  0
 16 15  2  0
 17 16  1  0
 18 17  2  0
 19 18  1  0
 20 19  2  0
 20 15  1  0
 21 18  1  0
  3 22  1  0
  4 23  1  0
  6 24  1  0
  6 25  1  0
  7 26  1  0
  7 27  1  0
  8 28  1  0
  8 29  1  0
  9 30  1  0
  9 31  1  0
 10 32  1  0
 10 33  1  0
 11 34  1  0
 11 35  1  0
 16 36  1  0
 17 37  1  0
 19 38  1  0
 20 39  1  0
 21 40  1  0
 21 41  1  0
 21 42  1  0
M  END
>  <score>  (2) 
-9.081

$$$$
=
     RDKit          3D

 42 43  0  0  0  0  0  0  0  0999 V2000
    1.6410   67.7050   69.4460 O   0  0  0  0  0  0  0  0  0  0  0  0
    0.8760   66.9570   68.8580 C   0  0  0  0  0  0  0  0  0  0  0  0
    0.1410   67.3510   67.7480 N   0  0  0  0  0  0  0  0  0  0  0  0
    0.6450   65.6350   69.1930 N   0  0  0  0  0  0  0  0  0  0  0  0
    1.2550   64.9760   70.2920 N   0  0  0  0  0  0  0  0  0  0  0  0
    0.2530   64.4460   71.2240 C   0  0  0  0  0  0  0  0  0  0  0  0
    0.8160   63.9360   72.5540 C   0  0  0  0  0  0  0  0  0  0  0  0
    1.5610   62.6140   72.4180 C   0  0  0  0  0  0  0  0  0  0  0  0
    3.0160   62.7410   71.9860 C   0  0  0  0  0  0  0  0  0  0  0  0
    3.3390   63.7930   70.9280 C   0  0  0  0  0  0  0  0  0  0  0  0
    2.2690   64.0020   69.8570 C   0  0  0  0  0  0  0  0  0  0  0  0
    0.1460   68.8780   67.0960 S   0  0  0  0  0  6  0  0  0  0  0  0
   -0.9120   68.8620   66.1050 O   0  0  0  0  0  0  0  0  0  0  0  0
    0.1430   69.8590   68.1580 O   0  0  0  0  0  0  0  0  0  0  0  0
    1.6880   68.9530   66.2230 C   0  0  0  0  0  0  0  0  0  0  0  0
    1.7500   68.5530   64.8870 C   0  0  0  0  0  0  0  0  0  0  0  0
    2.9710   68.5870   64.2120 C   0  0  0  0  0  0  0  0  0  0  0  0
    4.1330   69.0160   64.8680 C   0  0  0  0  0  0  0  0  0  0  0  0
    4.0630   69.3850   66.2180 C   0  0  0  0  0  0  0  0  0  0  0  0
    2.8440   69.3550   66.8980 C   0  0  0  0  0  0  0  0  0  0  0  0
    5.4500   69.0160   64.1480 C   0  0  0  0  0  0  0  0  0  0  0  0
   -0.4526   66.6420   67.2944 H   0  0  0  0  0  0  0  0  0  0  0  0
   -0.0100   65.0957   68.6090 H   0  0  0  0  0  0  0  0  0  0  0  0
   -0.4679   65.2475   71.4429 H   0  0  0  0  0  0  0  0  0  0  0  0
   -0.2011   63.5760   70.7271 H   0  0  0  0  0  0  0  0  0  0  0  0
    1.5104   64.6902   72.9528 H   0  0  0  0  0  0  0  0  0  0  0  0
   -0.0364   63.7652   73.2279 H   0  0  0  0  0  0  0  0  0  0  0  0
    1.5370   62.1060   73.3934 H   0  0  0  0  0  0  0  0  0  0  0  0
    1.0502   62.0517   71.6224 H   0  0  0  0  0  0  0  0  0  0  0  0
    3.6078   62.9798   72.8819 H   0  0  0  0  0  0  0  0  0  0  0  0
    3.2567   61.7780   71.5119 H   0  0  0  0  0  0  0  0  0  0  0  0
    3.4957   64.7529   71.4419 H   0  0  0  0  0  0  0  0  0  0  0  0
    4.2283   63.4228   70.3969 H   0  0  0  0  0  0  0  0  0  0  0  0
    1.7762   63.0403   69.6514 H   0  0  0  0  0  0  0  0  0  0  0  0
    2.7574   64.3924   68.9520 H   0  0  0  0  0  0  0  0  0  0  0  0
    0.8412   68.2128   64.3690 H   0  0  0  0  0  0  0  0  0  0  0  0
    3.0218   68.2751   63.1584 H   0  0  0  0  0  0  0  0  0  0  0  0
    4.9750   69.7006   66.7458 H   0  0  0  0  0  0  0  0  0  0  0  0
    2.7937   69.6457   67.9577 H   0  0  0  0  0  0  0  0  0  0  0  0
    5.7717   67.9789   63.9721 H   0  0  0  0  0  0  0  0  0  0  0  0
    5.3409   69.5345   63.1840 H   0  0  0  0  0  0  0  0  0  0  0  0
    6.2026   69.5345   64.7602 H   0  0  0  0  0  0  0  0  0  0  0  0
  2  1  2  0
  3  2  1  0
  4  2  1  0
  5  4  1  0
  6  5  1  0
  7  6  1  0
  8  7  1  0
  9  8  1  0
 10  9  1  0
 11  5  1  0
 11 10  1  0
 12  3  1  0
 13 12  2  0
 14 12  2  0
 15 12  1  0
 16 15  2  0
 17 16  1  0
 18 17  2  0
 19 18  1  0
 20 19  2  0
 20 15  1  0
 21 18  1  0
  3 22  1  0
  4 23  1  0
  6 24  1  0
  6 25  1  0
  7 26  1  0
  7 27  1  0
  8 28  1  0
  8 29  1  0
  9 30  1  0
  9 31  1  0
 10 32  1  0
 10 33  1  0
 11 34  1  0
 11 35  1  0
 16 36  1  0
 17 37  1  0
 19 38  1  0
 20 39  1  0
 21 40  1  0
 21 41  1  0
 21 42  1  0
M  END
>  <score>  (3) 
-8.541

$$$$
=
     RDKit          3D

 42 43  0  0  0  0  0  0  0  0999 V2000
   -0.0380   64.0270   69.7590 O   0  0  0  0  0  0  0  0  0  0  0  0
    0.2000   65.0070   70.4490 C   0  0  0  0  0  0  0  0  0  0  0  0
    0.4700   64.9240   71.8080 N   0  0  0  0  0  0  0  0  0  0  0  0
    0.2500   66.3090   69.9860 N   0  0  0  0  0  0  0  0  0  0  0  0
    0.0030   66.6850   68.6400 N   0  0  0  0  0  0  0  0  0  0  0  0
   -1.4090   67.0260   68.4280 C   0  0  0  0  0  0  0  0  0  0  0  0
   -1.8150   67.2050   66.9620 C   0  0  0  0  0  0  0  0  0  0  0  0
   -1.2880   68.4980   66.3510 C   0  0  0  0  0  0  0  0  0  0  0  0
    0.1390   68.4210   65.8240 C   0  0  0  0  0  0  0  0  0  0  0  0
    1.1440   67.6230   66.6490 C   0  0  0  0  0  0  0  0  0  0  0  0
    0.9600   67.6960   68.1640 C   0  0  0  0  0  0  0  0  0  0  0  0
    0.4570   63.5220   72.6970 S   0  0  0  0  0  6  0  0  0  0  0  0
    0.4700   63.9590   74.0800 O   0  0  0  0  0  0  0  0  0  0  0  0
   -0.5880   62.6490   72.2120 O   0  0  0  0  0  0  0  0  0  0  0  0
    2.0400   62.7970   72.3570 C   0  0  0  0  0  0  0  0  0  0  0  0
    2.8100   63.2760   71.2950 C   0  0  0  0  0  0  0  0  0  0  0  0
    4.0410   62.6830   71.0140 C   0  0  0  0  0  0  0  0  0  0  0  0
    4.5070   61.6110   71.7870 C   0  0  0  0  0  0  0  0  0  0  0  0
    3.7100   61.1190   72.8290 C   0  0  0  0  0  0  0  0  0  0  0  0
    2.4780   61.7090   73.1170 C   0  0  0  0  0  0  0  0  0  0  0  0
    5.8150   60.9530   71.4570 C   0  0  0  0  0  0  0  0  0  0  0  0
    0.6956   65.7989   72.3026 H   0  0  0  0  0  0  0  0  0  0  0  0
    0.4810   67.0526   70.6603 H   0  0  0  0  0  0  0  0  0  0  0  0
   -2.0234   66.2207   68.8570 H   0  0  0  0  0  0  0  0  0  0  0  0
   -1.5679   68.0000   68.9138 H   0  0  0  0  0  0  0  0  0  0  0  0
   -1.4199   66.3573   66.3830 H   0  0  0  0  0  0  0  0  0  0  0  0
   -2.9136   67.2493   66.9282 H   0  0  0  0  0  0  0  0  0  0  0  0
   -1.9470   68.7747   65.5148 H   0  0  0  0  0  0  0  0  0  0  0  0
   -1.2788   69.2418   67.1613 H   0  0  0  0  0  0  0  0  0  0  0  0
    0.0981   67.9673   64.8228 H   0  0  0  0  0  0  0  0  0  0  0  0
    0.5080   69.4569   65.8515 H   0  0  0  0  0  0  0  0  0  0  0  0
    1.0660   66.5676   66.3490 H   0  0  0  0  0  0  0  0  0  0  0  0
    2.1267   68.0723   66.4431 H   0  0  0  0  0  0  0  0  0  0  0  0
    0.5864   68.6956   68.4310 H   0  0  0  0  0  0  0  0  0  0  0  0
    1.9326   67.5017   68.6397 H   0  0  0  0  0  0  0  0  0  0  0  0
    2.4480   64.1158   70.6837 H   0  0  0  0  0  0  0  0  0  0  0  0
    4.6505   63.0597   70.1794 H   0  0  0  0  0  0  0  0  0  0  0  0
    4.0575   60.2618   73.4243 H   0  0  0  0  0  0  0  0  0  0  0  0
    1.8561   61.3201   73.9367 H   0  0  0  0  0  0  0  0  0  0  0  0
    6.3382   60.6898   72.3881 H   0  0  0  0  0  0  0  0  0  0  0  0
    5.6291   60.0411   70.8705 H   0  0  0  0  0  0  0  0  0  0  0  0
    6.4363   61.6458   70.8705 H   0  0  0  0  0  0  0  0  0  0  0  0
  2  1  2  0
  3  2  1  0
  4  2  1  0
  5  4  1  0
  6  5  1  0
  7  6  1  0
  8  7  1  0
  9  8  1  0
 10  9  1  0
 11  5  1  0
 11 10  1  0
 12  3  1  0
 13 12  2  0
 14 12  2  0
 15 12  1  0
 16 15  2  0
 17 16  1  0
 18 17  2  0
 19 18  1  0
 20 19  2  0
 20 15  1  0
 21 18  1  0
  3 22  1  0
  4 23  1  0
  6 24  1  0
  6 25  1  0
  7 26  1  0
  7 27  1  0
  8 28  1  0
  8 29  1  0
  9 30  1  0
  9 31  1  0
 10 32  1  0
 10 33  1  0
 11 34  1  0
 11 35  1  0
 16 36  1  0
 17 37  1  0
 19 38  1  0
 20 39  1  0
 21 40  1  0
 21 41  1  0
 21 42  1  0
M  END
>  <score>  (4) 
-8.375

$$$$
=
     RDKit          3D

 42 43  0  0  0  0  0  0  0  0999 V2000
    2.5870   57.6230   71.2730 O   0  0  0  0  0  0  0  0  0  0  0  0
    2.9480   58.1520   72.3120 C   0  0  0  0  0  0  0  0  0  0  0  0
    3.7060   59.3140   72.3420 N   0  0  0  0  0  0  0  0  0  0  0  0
    2.6500   57.6920   73.5820 N   0  0  0  0  0  0  0  0  0  0  0  0
    1.8980   56.5170   73.8450 N   0  0  0  0  0  0  0  0  0  0  0  0
    2.4960   55.7290   74.9300 C   0  0  0  0  0  0  0  0  0  0  0  0
    1.8960   54.3320   75.1170 C   0  0  0  0  0  0  0  0  0  0  0  0
    0.5070   54.3590   75.7420 C   0  0  0  0  0  0  0  0  0  0  0  0
   -0.6330   54.5880   74.7580 C   0  0  0  0  0  0  0  0  0  0  0  0
   -0.3940   55.5950   73.6380 C   0  0  0  0  0  0  0  0  0  0  0  0
    0.4650   56.8040   74.0090 C   0  0  0  0  0  0  0  0  0  0  0  0
    4.2720   60.1160   71.0040 S   0  0  0  0  0  6  0  0  0  0  0  0
    5.6140   60.5340   71.3610 O   0  0  0  0  0  0  0  0  0  0  0  0
    4.0440   59.3120   69.8240 O   0  0  0  0  0  0  0  0  0  0  0  0
    3.2650   61.5740   70.9320 C   0  0  0  0  0  0  0  0  0  0  0  0
    1.9550   61.5370   71.4110 C   0  0  0  0  0  0  0  0  0  0  0  0
    1.1570   62.6790   71.3270 C   0  0  0  0  0  0  0  0  0  0  0  0
    1.6610   63.8580   70.7620 C   0  0  0  0  0  0  0  0  0  0  0  0
    2.9670   63.8720   70.2550 C   0  0  0  0  0  0  0  0  0  0  0  0
    3.7720   62.7340   70.3390 C   0  0  0  0  0  0  0  0  0  0  0  0
    0.7870   65.0720   70.6390 C   0  0  0  0  0  0  0  0  0  0  0  0
    3.9348   59.7089   73.2654 H   0  0  0  0  0  0  0  0  0  0  0  0
    2.9949   58.2353   74.3862 H   0  0  0  0  0  0  0  0  0  0  0  0
    3.5693   55.6146   74.7181 H   0  0  0  0  0  0  0  0  0  0  0  0
    2.2928   56.2797   75.8603 H   0  0  0  0  0  0  0  0  0  0  0  0
    1.8281   53.8452   74.1329 H   0  0  0  0  0  0  0  0  0  0  0  0
    2.5549   53.7804   75.8037 H   0  0  0  0  0  0  0  0  0  0  0  0
    0.3383   53.3940   76.2423 H   0  0  0  0  0  0  0  0  0  0  0  0
    0.4955   55.2147   76.4331 H   0  0  0  0  0  0  0  0  0  0  0  0
   -0.8652   53.6203   74.2892 H   0  0  0  0  0  0  0  0  0  0  0  0
   -1.4454   55.0207   75.3603 H   0  0  0  0  0  0  0  0  0  0  0  0
    0.1026   55.0684   72.8097 H   0  0  0  0  0  0  0  0  0  0  0  0
   -1.3843   55.9976   73.3789 H   0  0  0  0  0  0  0  0  0  0  0  0
    0.2717   57.0714   75.0583 H   0  0  0  0  0  0  0  0  0  0  0  0
    0.2002   57.6347   73.3383 H   0  0  0  0  0  0  0  0  0  0  0  0
    1.5534   60.6129   71.8524 H   0  0  0  0  0  0  0  0  0  0  0  0
    0.1251   62.6533   71.7071 H   0  0  0  0  0  0  0  0  0  0  0  0
    3.3612   64.7862   69.7873 H   0  0  0  0  0  0  0  0  0  0  0  0
    4.7975   62.7502   69.9415 H   0  0  0  0  0  0  0  0  0  0  0  0
    0.5238   65.4375   71.6426 H   0  0  0  0  0  0  0  0  0  0  0  0
    1.3272   65.8588   70.0922 H   0  0  0  0  0  0  0  0  0  0  0  0
   -0.1306   64.8093   70.0922 H   0  0  0  0  0  0  0  0  0  0  0  0
  2  1  2  0
  3  2  1  0
  4  2  1  0
  5  4  1  0
  6  5  1  0
  7  6  1  0
  8  7  1  0
  9  8  1  0
 10  9  1  0
 11  5  1  0
 11 10  1  0
 12  3  1  0
 13 12  2  0
 14 12  2  0
 15 12  1  0
 16 15  2  0
 17 16  1  0
 18 17  2  0
 19 18  1  0
 20 19  2  0
 20 15  1  0
 21 18  1  0
  3 22  1  0
  4 23  1  0
  6 24  1  0
  6 25  1  0
  7 26  1  0
  7 27  1  0
  8 28  1  0
  8 29  1  0
  9 30  1  0
  9 31  1  0
 10 32  1  0
 10 33  1  0
 11 34  1  0
 11 35  1  0
 16 36  1  0
 17 37  1  0
 19 38  1  0
 20 39  1  0
 21 40  1  0
 21 41  1  0
 21 42  1  0
M  END
>  <score>  (5) 
-7.826

$$$$
=
     RDKit          3D

 42 43  0  0  0  0  0  0  0  0999 V2000
    2.4470   68.0130   66.6140 O   0  0  0  0  0  0  0  0  0  0  0  0
    1.8930   68.8860   67.2640 C   0  0  0  0  0  0  0  0  0  0  0  0
    0.5140   69.0420   67.2950 N   0  0  0  0  0  0  0  0  0  0  0  0
    2.5410   69.8150   68.0590 N   0  0  0  0  0  0  0  0  0  0  0  0
    3.9510   69.8920   68.2040 N   0  0  0  0  0  0  0  0  0  0  0  0
    4.6190   69.9920   66.9000 C   0  0  0  0  0  0  0  0  0  0  0  0
    6.1420   69.8350   66.9440 C   0  0  0  0  0  0  0  0  0  0  0  0
    6.8500   71.0480   67.5340 C   0  0  0  0  0  0  0  0  0  0  0  0
    6.9270   71.0660   69.0560 C   0  0  0  0  0  0  0  0  0  0  0  0
    5.6980   70.5820   69.8210 C   0  0  0  0  0  0  0  0  0  0  0  0
    4.3500   70.9150   69.1820 C   0  0  0  0  0  0  0  0  0  0  0  0
   -0.5670   68.1250   66.4310 S   0  0  0  0  0  6  0  0  0  0  0  0
   -0.0570   66.7700   66.5170 O   0  0  0  0  0  0  0  0  0  0  0  0
   -1.9140   68.4320   66.8590 O   0  0  0  0  0  0  0  0  0  0  0  0
   -0.3360   68.6710   64.7600 C   0  0  0  0  0  0  0  0  0  0  0  0
   -1.4350   69.0860   64.0070 C   0  0  0  0  0  0  0  0  0  0  0  0
   -1.2530   69.4880   62.6830 C   0  0  0  0  0  0  0  0  0  0  0  0
    0.0240   69.4730   62.1050 C   0  0  0  0  0  0  0  0  0  0  0  0
    1.1140   69.0230   62.8620 C   0  0  0  0  0  0  0  0  0  0  0  0
    0.9390   68.6220   64.1880 C   0  0  0  0  0  0  0  0  0  0  0  0
    0.2090   69.8700   60.6700 C   0  0  0  0  0  0  0  0  0  0  0  0
    0.1325   69.7831   67.9001 H   0  0  0  0  0  0  0  0  0  0  0  0
    1.9644   70.4927   68.5778 H   0  0  0  0  0  0  0  0  0  0  0  0
    4.2128   69.2060   66.2464 H   0  0  0  0  0  0  0  0  0  0  0  0
    4.4234   71.0091   66.5294 H   0  0  0  0  0  0  0  0  0  0  0  0
    6.3858   68.9547   67.5569 H   0  0  0  0  0  0  0  0  0  0  0  0
    6.4908   69.7235   65.9067 H   0  0  0  0  0  0  0  0  0  0  0  0
    7.8765   71.0705   67.1392 H   0  0  0  0  0  0  0  0  0  0  0  0
    6.2538   71.9257   67.2439 H   0  0  0  0  0  0  0  0  0  0  0  0
    7.7736   70.4292   69.3523 H   0  0  0  0  0  0  0  0  0  0  0  0
    7.0277   72.1284   69.3229 H   0  0  0  0  0  0  0  0  0  0  0  0
    5.7670   69.4882   69.9154 H   0  0  0  0  0  0  0  0  0  0  0  0
    5.7142   71.1130   70.7842 H   0  0  0  0  0  0  0  0  0  0  0  0
    4.4262   71.8867   68.6722 H   0  0  0  0  0  0  0  0  0  0  0  0
    3.5899   70.9487   69.9764 H   0  0  0  0  0  0  0  0  0  0  0  0
   -2.4397   69.0963   64.4547 H   0  0  0  0  0  0  0  0  0  0  0  0
   -2.1176   69.8189   62.0889 H   0  0  0  0  0  0  0  0  0  0  0  0
    2.1153   68.9854   62.4081 H   0  0  0  0  0  0  0  0  0  0  0  0
    1.7979   68.2701   64.7783 H   0  0  0  0  0  0  0  0  0  0  0  0
    0.6732   70.8661   60.6221 H   0  0  0  0  0  0  0  0  0  0  0  0
    0.8588   69.1381   60.1679 H   0  0  0  0  0  0  0  0  0  0  0  0
   -0.7694   69.8968   60.1679 H   0  0  0  0  0  0  0  0  0  0  0  0
  2  1  2  0
  3  2  1  0
  4  2  1  0
  5  4  1  0
  6  5  1  0
  7  6  1  0
  8  7  1  0
  9  8  1  0
 10  9  1  0
 11  5  1  0
 11 10  1  0
 12  3  1  0
 13 12  2  0
 14 12  2  0
 15 12  1  0
 16 15  2  0
 17 16  1  0
 18 17  2  0
 19 18  1  0
 20 19  2  0
 20 15  1  0
 21 18  1  0
  3 22  1  0
  4 23  1  0
  6 24  1  0
  6 25  1  0
  7 26  1  0
  7 27  1  0
  8 28  1  0
  8 29  1  0
  9 30  1  0
  9 31  1  0
 10 32  1  0
 10 33  1  0
 11 34  1  0
 11 35  1  0
 16 36  1  0
 17 37  1  0
 19 38  1  0
 20 39  1  0
 21 40  1  0
 21 41  1  0
 21 42  1  0
M  END
>  <score>  (6) 
-7.807

$$$$
=
     RDKit          3D

 42 43  0  0  0  0  0  0  0  0999 V2000
    1.0180   68.5430   67.1860 O   0  0  0  0  0  0  0  0  0  0  0  0
    1.4830   67.4320   66.9830 C   0  0  0  0  0  0  0  0  0  0  0  0
    1.4420   66.4140   67.9260 N   0  0  0  0  0  0  0  0  0  0  0  0
    2.0880   67.0280   65.8060 N   0  0  0  0  0  0  0  0  0  0  0  0
    2.2740   67.8700   64.6790 N   0  0  0  0  0  0  0  0  0  0  0  0
    3.6210   67.7230   64.1150 C   0  0  0  0  0  0  0  0  0  0  0  0
    3.9920   68.7620   63.0540 C   0  0  0  0  0  0  0  0  0  0  0  0
    3.2820   68.5380   61.7240 C   0  0  0  0  0  0  0  0  0  0  0  0
    1.8790   69.1260   61.6410 C   0  0  0  0  0  0  0  0  0  0  0  0
    1.0030   69.0150   62.8850 C   0  0  0  0  0  0  0  0  0  0  0  0
    1.1790   67.7380   63.7050 C   0  0  0  0  0  0  0  0  0  0  0  0
    0.8220   66.5610   69.4590 S   0  0  0  0  0  6  0  0  0  0  0  0
    1.6800   67.5280   70.1160 O   0  0  0  0  0  0  0  0  0  0  0  0
   -0.6060   66.7760   69.3860 O   0  0  0  0  0  0  0  0  0  0  0  0
    1.1470   64.9800   70.1940 C   0  0  0  0  0  0  0  0  0  0  0  0
    0.0890   64.2050   70.6700 C   0  0  0  0  0  0  0  0  0  0  0  0
    0.3510   62.9740   71.2740 C   0  0  0  0  0  0  0  0  0  0  0  0
    1.6690   62.5160   71.4090 C   0  0  0  0  0  0  0  0  0  0  0  0
    2.7240   63.3190   70.9560 C   0  0  0  0  0  0  0  0  0  0  0  0
    2.4680   64.5500   70.3490 C   0  0  0  0  0  0  0  0  0  0  0  0
    1.9490   61.2100   72.0920 C   0  0  0  0  0  0  0  0  0  0  0  0
    1.8255   65.4976   67.6538 H   0  0  0  0  0  0  0  0  0  0  0  0
    2.4240   66.0563   65.7441 H   0  0  0  0  0  0  0  0  0  0  0  0
    4.3465   67.8010   64.9381 H   0  0  0  0  0  0  0  0  0  0  0  0
    3.6392   66.7460   63.6099 H   0  0  0  0  0  0  0  0  0  0  0  0
    3.7222   69.7594   63.4313 H   0  0  0  0  0  0  0  0  0  0  0  0
    5.0724   68.6702   62.8687 H   0  0  0  0  0  0  0  0  0  0  0  0
    3.8915   68.9939   60.9298 H   0  0  0  0  0  0  0  0  0  0  0  0
    3.1683   67.4495   61.6135 H   0  0  0  0  0  0  0  0  0  0  0  0
    1.9815   70.1949   61.4025 H   0  0  0  0  0  0  0  0  0  0  0  0
    1.3641   68.5255   60.8766 H   0  0  0  0  0  0  0  0  0  0  0  0
    1.2321   69.8704   63.5376 H   0  0  0  0  0  0  0  0  0  0  0  0
   -0.0350   68.9982   62.5213 H   0  0  0  0  0  0  0  0  0  0  0  0
    1.4047   66.9041   63.0241 H   0  0  0  0  0  0  0  0  0  0  0  0
    0.2462   67.5507   64.2572 H   0  0  0  0  0  0  0  0  0  0  0  0
   -0.9466   64.5622   70.5698 H   0  0  0  0  0  0  0  0  0  0  0  0
   -0.4820   62.3596   71.6463 H   0  0  0  0  0  0  0  0  0  0  0  0
    3.7621   62.9769   71.0795 H   0  0  0  0  0  0  0  0  0  0  0  0
    3.2998   65.1769   69.9953 H   0  0  0  0  0  0  0  0  0  0  0  0
    1.9185   61.3525   73.1823 H   0  0  0  0  0  0  0  0  0  0  0  0
    1.1887   60.4717   71.7973 H   0  0  0  0  0  0  0  0  0  0  0  0
    2.9451   60.8482   71.7973 H   0  0  0  0  0  0  0  0  0  0  0  0
  2  1  2  0
  3  2  1  0
  4  2  1  0
  5  4  1  0
  6  5  1  0
  7  6  1  0
  8  7  1  0
  9  8  1  0
 10  9  1  0
 11  5  1  0
 11 10  1  0
 12  3  1  0
 13 12  2  0
 14 12  2  0
 15 12  1  0
 16 15  2  0
 17 16  1  0
 18 17  2  0
 19 18  1  0
 20 19  2  0
 20 15  1  0
 21 18  1  0
  3 22  1  0
  4 23  1  0
  6 24  1  0
  6 25  1  0
  7 26  1  0
  7 27  1  0
  8 28  1  0
  8 29  1  0
  9 30  1  0
  9 31  1  0
 10 32  1  0
 10 33  1  0
 11 34  1  0
 11 35  1  0
 16 36  1  0
 17 37  1  0
 19 38  1  0
 20 39  1  0
 21 40  1  0
 21 41  1  0
 21 42  1  0
M  END
>  <score>  (7) 
-7.556

$$$$
=
     RDKit          3D

 42 43  0  0  0  0  0  0  0  0999 V2000
    2.4290   67.3770   65.6540 O   0  0  0  0  0  0  0  0  0  0  0  0
    2.0880   68.2970   64.9280 C   0  0  0  0  0  0  0  0  0  0  0  0
    2.9900   69.0360   64.1750 N   0  0  0  0  0  0  0  0  0  0  0  0
    0.7840   68.7190   64.7400 N   0  0  0  0  0  0  0  0  0  0  0  0
   -0.3380   68.1470   65.3950 N   0  0  0  0  0  0  0  0  0  0  0  0
    0.0530   67.4730   66.6400 C   0  0  0  0  0  0  0  0  0  0  0  0
   -1.0460   66.6230   67.2840 C   0  0  0  0  0  0  0  0  0  0  0  0
   -2.1380   67.4580   67.9400 C   0  0  0  0  0  0  0  0  0  0  0  0
   -3.2300   67.9410   66.9930 C   0  0  0  0  0  0  0  0  0  0  0  0
   -2.7950   68.3970   65.6040 C   0  0  0  0  0  0  0  0  0  0  0  0
   -1.4440   69.1070   65.5340 C   0  0  0  0  0  0  0  0  0  0  0  0
    4.6360   68.8260   64.1860 S   0  0  0  0  0  6  0  0  0  0  0  0
    4.8270   67.3890   64.2400 O   0  0  0  0  0  0  0  0  0  0  0  0
    5.2330   69.6070   63.1250 O   0  0  0  0  0  0  0  0  0  0  0  0
    5.1310   69.4840   65.7560 C   0  0  0  0  0  0  0  0  0  0  0  0
    6.4850   69.6910   66.0280 C   0  0  0  0  0  0  0  0  0  0  0  0
    6.8710   70.1820   67.2750 C   0  0  0  0  0  0  0  0  0  0  0  0
    5.9110   70.4640   68.2570 C   0  0  0  0  0  0  0  0  0  0  0  0
    4.5580   70.2220   67.9820 C   0  0  0  0  0  0  0  0  0  0  0  0
    4.1650   69.7330   66.7360 C   0  0  0  0  0  0  0  0  0  0  0  0
    6.3340   70.9570   69.6090 C   0  0  0  0  0  0  0  0  0  0  0  0
    2.6084   69.7710   63.5625 H   0  0  0  0  0  0  0  0  0  0  0  0
    0.6170   69.4958   64.0846 H   0  0  0  0  0  0  0  0  0  0  0  0
    0.9079   66.8168   66.4197 H   0  0  0  0  0  0  0  0  0  0  0  0
    0.2905   68.2691   67.3610 H   0  0  0  0  0  0  0  0  0  0  0  0
   -1.5047   65.9953   66.5058 H   0  0  0  0  0  0  0  0  0  0  0  0
   -0.5745   66.0197   68.0738 H   0  0  0  0  0  0  0  0  0  0  0  0
   -2.6104   66.8481   68.7241 H   0  0  0  0  0  0  0  0  0  0  0  0
   -1.6450   68.3608   68.3298 H   0  0  0  0  0  0  0  0  0  0  0  0
   -3.9439   67.1145   66.8617 H   0  0  0  0  0  0  0  0  0  0  0  0
   -3.6429   68.8415   67.4712 H   0  0  0  0  0  0  0  0  0  0  0  0
   -2.7442   67.5089   64.9570 H   0  0  0  0  0  0  0  0  0  0  0  0
   -3.5413   69.1391   65.2841 H   0  0  0  0  0  0  0  0  0  0  0  0
   -1.2981   69.6897   66.4555 H   0  0  0  0  0  0  0  0  0  0  0  0
   -1.4442   69.7640   64.6517 H   0  0  0  0  0  0  0  0  0  0  0  0
    7.2431   69.4680   65.2628 H   0  0  0  0  0  0  0  0  0  0  0  0
    7.9368   70.3493   67.4897 H   0  0  0  0  0  0  0  0  0  0  0  0
    3.8003   70.4192   68.7546 H   0  0  0  0  0  0  0  0  0  0  0  0
    3.1019   69.5445   66.5257 H   0  0  0  0  0  0  0  0  0  0  0  0
    5.8287   70.3681   70.3886 H   0  0  0  0  0  0  0  0  0  0  0  0
    7.4234   70.8474   69.7149 H   0  0  0  0  0  0  0  0  0  0  0  0
    6.0601   72.0171   69.7149 H   0  0  0  0  0  0  0  0  0  0  0  0
  2  1  2  0
  3  2  1  0
  4  2  1  0
  5  4  1  0
  6  5  1  0
  7  6  1  0
  8  7  1  0
  9  8  1  0
 10  9  1  0
 11  5  1  0
 11 10  1  0
 12  3  1  0
 13 12  2  0
 14 12  2  0
 15 12  1  0
 16 15  2  0
 17 16  1  0
 18 17  2  0
 19 18  1  0
 20 19  2  0
 20 15  1  0
 21 18  1  0
  3 22  1  0
  4 23  1  0
  6 24  1  0
  6 25  1  0
  7 26  1  0
  7 27  1  0
  8 28  1  0
  8 29  1  0
  9 30  1  0
  9 31  1  0
 10 32  1  0
 10 33  1  0
 11 34  1  0
 11 35  1  0
 16 36  1  0
 17 37  1  0
 19 38  1  0
 20 39  1  0
 21 40  1  0
 21 41  1  0
 21 42  1  0
M  END
>  <score>  (8) 
-7.444

$$$$
=
     RDKit          3D

 42 43  0  0  0  0  0  0  0  0999 V2000
    4.7480   60.6620   73.5480 O   0  0  0  0  0  0  0  0  0  0  0  0
    4.1860   59.6440   73.1770 C   0  0  0  0  0  0  0  0  0  0  0  0
    3.9730   59.3460   71.8380 N   0  0  0  0  0  0  0  0  0  0  0  0
    3.7050   58.6520   74.0130 N   0  0  0  0  0  0  0  0  0  0  0  0
    3.7790   58.7030   75.4300 N   0  0  0  0  0  0  0  0  0  0  0  0
    2.8060   59.6520   75.9850 C   0  0  0  0  0  0  0  0  0  0  0  0
    2.9790   59.9530   77.4760 C   0  0  0  0  0  0  0  0  0  0  0  0
    2.5430   58.7990   78.3720 C   0  0  0  0  0  0  0  0  0  0  0  0
    3.5980   57.7220   78.5870 C   0  0  0  0  0  0  0  0  0  0  0  0
    4.4550   57.3370   77.3850 C   0  0  0  0  0  0  0  0  0  0  0  0
    3.7440   57.3610   76.0320 C   0  0  0  0  0  0  0  0  0  0  0  0
    4.3890   60.3300   70.5670 S   0  0  0  0  0  6  0  0  0  0  0  0
    5.7320   60.7830   70.8720 O   0  0  0  0  0  0  0  0  0  0  0  0
    4.1070   59.6570   69.3190 O   0  0  0  0  0  0  0  0  0  0  0  0
    3.3080   61.7240   70.7460 C   0  0  0  0  0  0  0  0  0  0  0  0
    1.9760   61.5280   71.1150 C   0  0  0  0  0  0  0  0  0  0  0  0
    1.1210   62.6250   71.2270 C   0  0  0  0  0  0  0  0  0  0  0  0
    1.5900   63.9200   70.9680 C   0  0  0  0  0  0  0  0  0  0  0  0
    2.9210   64.1000   70.5670 C   0  0  0  0  0  0  0  0  0  0  0  0
    3.7810   63.0070   70.4560 C   0  0  0  0  0  0  0  0  0  0  0  0
    0.6580   65.0930   71.0530 C   0  0  0  0  0  0  0  0  0  0  0  0
    3.5229   58.4465   71.6162 H   0  0  0  0  0  0  0  0  0  0  0  0
    3.2665   57.8261   73.5811 H   0  0  0  0  0  0  0  0  0  0  0  0
    2.8980   60.5985   75.4322 H   0  0  0  0  0  0  0  0  0  0  0  0
    1.8182   59.1800   75.8777 H   0  0  0  0  0  0  0  0  0  0  0  0
    4.0408   60.1652   77.6697 H   0  0  0  0  0  0  0  0  0  0  0  0
    2.3376   60.8144   77.7140 H   0  0  0  0  0  0  0  0  0  0  0  0
    2.2714   59.2126   79.3544 H   0  0  0  0  0  0  0  0  0  0  0  0
    1.7020   58.3098   77.8587 H   0  0  0  0  0  0  0  0  0  0  0  0
    4.2762   58.0760   79.3774 H   0  0  0  0  0  0  0  0  0  0  0  0
    3.0297   56.8130   78.8334 H   0  0  0  0  0  0  0  0  0  0  0  0
    5.3017   58.0374   77.3348 H   0  0  0  0  0  0  0  0  0  0  0  0
    4.7523   56.2909   77.5502 H   0  0  0  0  0  0  0  0  0  0  0  0
    2.6956   57.0596   76.1734 H   0  0  0  0  0  0  0  0  0  0  0  0
    4.2629   56.6652   75.3563 H   0  0  0  0  0  0  0  0  0  0  0  0
    1.6021   60.5133   71.3166 H   0  0  0  0  0  0  0  0  0  0  0  0
    0.0719   62.4724   71.5205 H   0  0  0  0  0  0  0  0  0  0  0  0
    3.2902   65.1106   70.3381 H   0  0  0  0  0  0  0  0  0  0  0  0
    4.8250   63.1540   70.1422 H   0  0  0  0  0  0  0  0  0  0  0  0
    0.4668   65.3336   72.1092 H   0  0  0  0  0  0  0  0  0  0  0  0
    1.1152   65.9613   70.5561 H   0  0  0  0  0  0  0  0  0  0  0  0
   -0.2912   64.8439   70.5561 H   0  0  0  0  0  0  0  0  0  0  0  0
  2  1  2  0
  3  2  1  0
  4  2  1  0
  5  4  1  0
  6  5  1  0
  7  6  1  0
  8  7  1  0
  9  8  1  0
 10  9  1  0
 11  5  1  0
 11 10  1  0
 12  3  1  0
 13 12  2  0
 14 12  2  0
 15 12  1  0
 16 15  2  0
 17 16  1  0
 18 17  2  0
 19 18  1  0
 20 19  2  0
 20 15  1  0
 21 18  1  0
  3 22  1  0
  4 23  1  0
  6 24  1  0
  6 25  1  0
  7 26  1  0
  7 27  1  0
  8 28  1  0
  8 29  1  0
  9 30  1  0
  9 31  1  0
 10 32  1  0
 10 33  1  0
 11 34  1  0
 11 35  1  0
 16 36  1  0
 17 37  1  0
 19 38  1  0
 20 39  1  0
 21 40  1  0
 21 41  1  0
 21 42  1  0
M  END
>  <score>  (9) 
-7.397

$$$$
