=
     RDKit          3D

 34 36  0  0  0  0  0  0  0  0999 V2000
    2.8010   70.0400   68.2900 C   0  0  0  0  0  0  0  0  0  0  0  0
    2.7180   70.9840   69.0720 O   0  0  0  0  0  0  0  0  0  0  0  0
    5.2440   70.1370   67.7220 C   0  0  0  0  0  0  0  0  0  0  0  0
    6.0710   69.8660   66.6740 O   0  0  0  0  0  0  0  0  0  0  0  0
    5.2920   69.4660   65.6380 C   0  0  0  0  0  0  0  0  0  0  0  0
    3.9520   69.4650   66.0070 C   0  0  0  0  0  0  0  0  0  0  0  0
    3.9230   69.8750   67.3820 C   0  0  0  0  0  0  0  0  0  0  0  0
    3.0020   69.1080   65.0260 C   0  0  0  0  0  0  0  0  0  0  0  0
    3.4450   68.7460   63.7450 C   0  0  0  0  0  0  0  0  0  0  0  0
    4.8040   68.7450   63.4290 C   0  0  0  0  0  0  0  0  0  0  0  0
    5.7630   69.1110   64.3750 C   0  0  0  0  0  0  0  0  0  0  0  0
    7.2230   71.3190   68.6550 C   0  0  0  0  0  0  0  0  0  0  0  0
    5.9130   70.6130   68.9620 C   0  0  0  0  0  0  0  0  0  0  0  0
    1.7110   69.0310   68.3040 C   0  0  0  0  0  0  0  0  0  0  0  0
    0.5920   69.1520   67.4700 C   0  0  0  0  0  0  0  0  0  0  0  0
   -0.4040   68.1720   67.5000 C   0  0  0  0  0  0  0  0  0  0  0  0
   -1.9120   68.3940   66.3710 Br  0  0  0  0  0  0  0  0  0  0  0  0
   -0.2790   67.0660   68.3440 C   0  0  0  0  0  0  0  0  0  0  0  0
    0.8530   66.9370   69.1540 C   0  0  0  0  0  0  0  0  0  0  0  0
    1.8510   67.9110   69.1330 C   0  0  0  0  0  0  0  0  0  0  0  0
    1.0610   65.4420   70.3000 Br  0  0  0  0  0  0  0  0  0  0  0  0
   -1.2670   66.1170   68.3610 O   0  0  0  0  0  0  0  0  0  0  0  0
    1.9278   69.1135   65.2629 H   0  0  0  0  0  0  0  0  0  0  0  0
    2.7102   68.4587   62.9785 H   0  0  0  0  0  0  0  0  0  0  0  0
    5.1247   68.4512   62.4186 H   0  0  0  0  0  0  0  0  0  0  0  0
    6.8366   69.1189   64.1358 H   0  0  0  0  0  0  0  0  0  0  0  0
    7.7236   71.5888   69.5966 H   0  0  0  0  0  0  0  0  0  0  0  0
    7.8730   70.6490   68.0731 H   0  0  0  0  0  0  0  0  0  0  0  0
    7.0208   72.2303   68.0731 H   0  0  0  0  0  0  0  0  0  0  0  0
    5.2434   71.3135   69.4825 H   0  0  0  0  0  0  0  0  0  0  0  0
    6.1329   69.7383   69.5918 H   0  0  0  0  0  0  0  0  0  0  0  0
    0.4976   70.0148   66.7942 H   0  0  0  0  0  0  0  0  0  0  0  0
    2.7444   67.7999   69.7650 H   0  0  0  0  0  0  0  0  0  0  0  0
   -1.1870   65.3298   68.9559 H   0  0  0  0  0  0  0  0  0  0  0  0
  2  1  2  0
  4  3  1  0
  5  4  1  0
  6  5  2  0
  7  6  1  0
  7  3  2  0
  7  1  1  0
  8  6  1  0
  9  8  2  0
 10  9  1  0
 11 10  2  0
 11  5  1  0
 13  3  1  0
 13 12  1  0
 14  1  1  0
 15 14  2  0
 16 15  1  0
 17 16  1  0
 18 16  2  0
 19 18  1  0
 20 19  2  0
 20 14  1  0
 21 19  1  0
 22 18  1  0
  8 23  1  0
  9 24  1  0
 10 25  1  0
 11 26  1  0
 12 27  1  0
 12 28  1  0
 12 29  1  0
 13 30  1  0
 13 31  1  0
 15 32  1  0
 20 33  1  0
 22 34  1  0
M  END
>  <score>  (1) 
-10.394

$$$$
=
     RDKit          3D

 34 36  0  0  0  0  0  0  0  0999 V2000
    2.7370   69.9770   68.2380 C   0  0  0  0  0  0  0  0  0  0  0  0
    2.6850   70.8740   69.0760 O   0  0  0  0  0  0  0  0  0  0  0  0
    5.1680   70.1190   67.6300 C   0  0  0  0  0  0  0  0  0  0  0  0
    5.9810   69.8710   66.5670 O   0  0  0  0  0  0  0  0  0  0  0  0
    5.1920   69.4670   65.5400 C   0  0  0  0  0  0  0  0  0  0  0  0
    3.8580   69.4410   65.9320 C   0  0  0  0  0  0  0  0  0  0  0  0
    3.8460   69.8380   67.3100 C   0  0  0  0  0  0  0  0  0  0  0  0
    2.8980   69.0760   64.9630 C   0  0  0  0  0  0  0  0  0  0  0  0
    3.3250   68.7330   63.6720 C   0  0  0  0  0  0  0  0  0  0  0  0
    4.6790   68.7560   63.3330 C   0  0  0  0  0  0  0  0  0  0  0  0
    5.6470   69.1310   64.2660 C   0  0  0  0  0  0  0  0  0  0  0  0
    7.1590   71.2990   68.5420 C   0  0  0  0  0  0  0  0  0  0  0  0
    5.8500   70.5960   68.8630 C   0  0  0  0  0  0  0  0  0  0  0  0
    1.6210   68.9970   68.2030 C   0  0  0  0  0  0  0  0  0  0  0  0
    1.5950   67.8870   69.0580 C   0  0  0  0  0  0  0  0  0  0  0  0
    0.5200   66.9970   69.0060 C   0  0  0  0  0  0  0  0  0  0  0  0
    0.5430   65.4960   70.1660 Br  0  0  0  0  0  0  0  0  0  0  0  0
   -0.5370   67.2190   68.1200 C   0  0  0  0  0  0  0  0  0  0  0  0
   -0.5190   68.3430   67.2880 C   0  0  0  0  0  0  0  0  0  0  0  0
    0.5530   69.2360   67.3310 C   0  0  0  0  0  0  0  0  0  0  0  0
   -1.9420   68.6820   66.0840 Br  0  0  0  0  0  0  0  0  0  0  0  0
   -1.5820   66.3340   68.0820 O   0  0  0  0  0  0  0  0  0  0  0  0
    1.8280   69.0609   65.2177 H   0  0  0  0  0  0  0  0  0  0  0  0
    2.5819   68.4415   62.9152 H   0  0  0  0  0  0  0  0  0  0  0  0
    4.9876   68.4744   62.3154 H   0  0  0  0  0  0  0  0  0  0  0  0
    6.7161   69.1600   64.0087 H   0  0  0  0  0  0  0  0  0  0  0  0
    7.6677   71.5722   69.4783 H   0  0  0  0  0  0  0  0  0  0  0  0
    7.8032   70.6255   67.9577 H   0  0  0  0  0  0  0  0  0  0  0  0
    6.9533   72.2080   67.9577 H   0  0  0  0  0  0  0  0  0  0  0  0
    5.1869   71.2988   69.3886 H   0  0  0  0  0  0  0  0  0  0  0  0
    6.0741   69.7221   69.4923 H   0  0  0  0  0  0  0  0  0  0  0  0
    2.4183   67.7173   69.7675 H   0  0  0  0  0  0  0  0  0  0  0  0
    0.5582   70.1241   66.6820 H   0  0  0  0  0  0  0  0  0  0  0  0
   -2.3351   66.4838   67.4571 H   0  0  0  0  0  0  0  0  0  0  0  0
  2  1  2  0
  4  3  1  0
  5  4  1  0
  6  5  2  0
  7  6  1  0
  7  3  2  0
  7  1  1  0
  8  6  1  0
  9  8  2  0
 10  9  1  0
 11 10  2  0
 11  5  1  0
 13  3  1  0
 13 12  1  0
 14  1  1  0
 15 14  2  0
 16 15  1  0
 17 16  1  0
 18 16  2  0
 19 18  1  0
 20 19  2  0
 20 14  1  0
 21 19  1  0
 22 18  1  0
  8 23  1  0
  9 24  1  0
 10 25  1  0
 11 26  1  0
 12 27  1  0
 12 28  1  0
 12 29  1  0
 13 30  1  0
 13 31  1  0
 15 32  1  0
 20 33  1  0
 22 34  1  0
M  END
>  <score>  (2) 
-10.389

$$$$
=
     RDKit          3D

 34 36  0  0  0  0  0  0  0  0999 V2000
    2.3010   68.7470   65.0750 C   0  0  0  0  0  0  0  0  0  0  0  0
    2.0940   68.8060   63.8660 O   0  0  0  0  0  0  0  0  0  0  0  0
    4.8080   68.8740   65.0640 C   0  0  0  0  0  0  0  0  0  0  0  0
    5.8200   69.3390   65.8460 O   0  0  0  0  0  0  0  0  0  0  0  0
    5.2610   69.8370   66.9770 C   0  0  0  0  0  0  0  0  0  0  0  0
    3.8780   69.7080   66.9340 C   0  0  0  0  0  0  0  0  0  0  0  0
    3.5790   69.1050   65.6670 C   0  0  0  0  0  0  0  0  0  0  0  0
    3.1440   70.1460   68.0580 C   0  0  0  0  0  0  0  0  0  0  0  0
    3.8280   70.7120   69.1440 C   0  0  0  0  0  0  0  0  0  0  0  0
    5.2180   70.8370   69.1300 C   0  0  0  0  0  0  0  0  0  0  0  0
    5.9690   70.3950   68.0400 C   0  0  0  0  0  0  0  0  0  0  0  0
    5.3970   69.3170   62.6880 C   0  0  0  0  0  0  0  0  0  0  0  0
    5.2220   68.2650   63.7710 C   0  0  0  0  0  0  0  0  0  0  0  0
    1.1830   68.3080   65.9480 C   0  0  0  0  0  0  0  0  0  0  0  0
    1.4170   67.6500   67.1620 C   0  0  0  0  0  0  0  0  0  0  0  0
    0.3380   67.2680   67.9630 C   0  0  0  0  0  0  0  0  0  0  0  0
    0.7070   66.3560   69.5860 Br  0  0  0  0  0  0  0  0  0  0  0  0
   -0.9700   67.5570   67.5690 C   0  0  0  0  0  0  0  0  0  0  0  0
   -1.1980   68.2390   66.3700 C   0  0  0  0  0  0  0  0  0  0  0  0
   -0.1260   68.6210   65.5610 C   0  0  0  0  0  0  0  0  0  0  0  0
   -2.9590   68.6590   65.8100 Br  0  0  0  0  0  0  0  0  0  0  0  0
   -2.0150   67.1730   68.3670 O   0  0  0  0  0  0  0  0  0  0  0  0
    2.0489   70.0446   68.0817 H   0  0  0  0  0  0  0  0  0  0  0  0
    3.2609   71.0623   70.0190 H   0  0  0  0  0  0  0  0  0  0  0  0
    5.7295   71.2910   69.9915 H   0  0  0  0  0  0  0  0  0  0  0  0
    7.0653   70.4826   68.0207 H   0  0  0  0  0  0  0  0  0  0  0  0
    5.5605   70.2997   63.1544 H   0  0  0  0  0  0  0  0  0  0  0  0
    6.2646   69.0589   62.0629 H   0  0  0  0  0  0  0  0  0  0  0  0
    4.4926   69.3537   62.0629 H   0  0  0  0  0  0  0  0  0  0  0  0
    6.1767   67.7377   63.9142 H   0  0  0  0  0  0  0  0  0  0  0  0
    4.4331   67.5687   63.4502 H   0  0  0  0  0  0  0  0  0  0  0  0
    2.4467   67.4347   67.4837 H   0  0  0  0  0  0  0  0  0  0  0  0
   -0.3090   69.1658   64.6231 H   0  0  0  0  0  0  0  0  0  0  0  0
   -2.9454   67.3740   68.0950 H   0  0  0  0  0  0  0  0  0  0  0  0
  2  1  2  0
  4  3  1  0
  5  4  1  0
  6  5  2  0
  7  6  1  0
  7  3  2  0
  7  1  1  0
  8  6  1  0
  9  8  2  0
 10  9  1  0
 11 10  2  0
 11  5  1  0
 13  3  1  0
 13 12  1  0
 14  1  1  0
 15 14  2  0
 16 15  1  0
 17 16  1  0
 18 16  2  0
 19 18  1  0
 20 19  2  0
 20 14  1  0
 21 19  1  0
 22 18  1  0
  8 23  1  0
  9 24  1  0
 10 25  1  0
 11 26  1  0
 12 27  1  0
 12 28  1  0
 12 29  1  0
 13 30  1  0
 13 31  1  0
 15 32  1  0
 20 33  1  0
 22 34  1  0
M  END
>  <score>  (3) 
-10.166

$$$$
=
     RDKit          3D

 34 36  0  0  0  0  0  0  0  0999 V2000
    2.3380   68.8400   65.0630 C   0  0  0  0  0  0  0  0  0  0  0  0
    2.1790   68.8790   63.8460 O   0  0  0  0  0  0  0  0  0  0  0  0
    4.8460   68.9350   65.1330 C   0  0  0  0  0  0  0  0  0  0  0  0
    5.8380   69.3850   65.9490 O   0  0  0  0  0  0  0  0  0  0  0  0
    5.2490   69.8870   67.0630 C   0  0  0  0  0  0  0  0  0  0  0  0
    3.8660   69.7750   66.9760 C   0  0  0  0  0  0  0  0  0  0  0  0
    3.6000   69.1800   65.6970 C   0  0  0  0  0  0  0  0  0  0  0  0
    3.1020   70.2190   68.0760 C   0  0  0  0  0  0  0  0  0  0  0  0
    3.7570   70.7740   69.1850 C   0  0  0  0  0  0  0  0  0  0  0  0
    5.1480   70.8820   69.2170 C   0  0  0  0  0  0  0  0  0  0  0  0
    5.9290   70.4340   68.1500 C   0  0  0  0  0  0  0  0  0  0  0  0
    5.4340   69.3670   62.7550 C   0  0  0  0  0  0  0  0  0  0  0  0
    5.2930   68.3240   63.8520 C   0  0  0  0  0  0  0  0  0  0  0  0
    1.1770   68.4440   65.9010 C   0  0  0  0  0  0  0  0  0  0  0  0
   -0.1390   68.7040   65.4970 C   0  0  0  0  0  0  0  0  0  0  0  0
   -1.2050   68.3010   66.3050 C   0  0  0  0  0  0  0  0  0  0  0  0
   -2.9670   68.6980   65.7260 Br  0  0  0  0  0  0  0  0  0  0  0  0
   -0.9640   67.6250   67.5040 C   0  0  0  0  0  0  0  0  0  0  0  0
    0.3500   67.3450   67.8900 C   0  0  0  0  0  0  0  0  0  0  0  0
    1.4220   67.7460   67.0900 C   0  0  0  0  0  0  0  0  0  0  0  0
    0.7130   66.4180   69.5020 Br  0  0  0  0  0  0  0  0  0  0  0  0
   -2.0220   67.2400   68.2850 O   0  0  0  0  0  0  0  0  0  0  0  0
    2.0056   70.1309   68.0639 H   0  0  0  0  0  0  0  0  0  0  0  0
    3.1658   71.1293   70.0419 H   0  0  0  0  0  0  0  0  0  0  0  0
    5.6366   71.3269   70.0964 H   0  0  0  0  0  0  0  0  0  0  0  0
    7.0263   70.5089   68.1663 H   0  0  0  0  0  0  0  0  0  0  0  0
    5.5683   70.3602   63.2084 H   0  0  0  0  0  0  0  0  0  0  0  0
    6.3079   69.1274   62.1314 H   0  0  0  0  0  0  0  0  0  0  0  0
    4.5278   69.3681   62.1314 H   0  0  0  0  0  0  0  0  0  0  0  0
    6.2667   67.8370   64.0092 H   0  0  0  0  0  0  0  0  0  0  0  0
    4.5348   67.5922   63.5363 H   0  0  0  0  0  0  0  0  0  0  0  0
   -0.3322   69.2236   64.5469 H   0  0  0  0  0  0  0  0  0  0  0  0
    2.4540   67.5147   67.3924 H   0  0  0  0  0  0  0  0  0  0  0  0
   -1.8604   66.7606   69.1360 H   0  0  0  0  0  0  0  0  0  0  0  0
  2  1  2  0
  4  3  1  0
  5  4  1  0
  6  5  2  0
  7  6  1  0
  7  3  2  0
  7  1  1  0
  8  6  1  0
  9  8  2  0
 10  9  1  0
 11 10  2  0
 11  5  1  0
 13  3  1  0
 13 12  1  0
 14  1  1  0
 15 14  2  0
 16 15  1  0
 17 16  1  0
 18 16  2  0
 19 18  1  0
 20 19  2  0
 20 14  1  0
 21 19  1  0
 22 18  1  0
  8 23  1  0
  9 24  1  0
 10 25  1  0
 11 26  1  0
 12 27  1  0
 12 28  1  0
 12 29  1  0
 13 30  1  0
 13 31  1  0
 15 32  1  0
 20 33  1  0
 22 34  1  0
M  END
>  <score>  (4) 
-10.064

$$$$
=
     RDKit          3D

 34 36  0  0  0  0  0  0  0  0999 V2000
    2.9930   67.7480   65.1580 C   0  0  0  0  0  0  0  0  0  0  0  0
    3.2710   66.5590   65.0300 O   0  0  0  0  0  0  0  0  0  0  0  0
    5.1310   69.0630   65.1500 C   0  0  0  0  0  0  0  0  0  0  0  0
    5.7680   70.0020   65.9020 O   0  0  0  0  0  0  0  0  0  0  0  0
    4.9970   70.2350   66.9940 C   0  0  0  0  0  0  0  0  0  0  0  0
    3.8470   69.4550   66.9540 C   0  0  0  0  0  0  0  0  0  0  0  0
    3.9200   68.7100   65.7300 C   0  0  0  0  0  0  0  0  0  0  0  0
    2.9520   69.5510   68.0410 C   0  0  0  0  0  0  0  0  0  0  0  0
    3.2400   70.4390   69.0880 C   0  0  0  0  0  0  0  0  0  0  0  0
    4.4000   71.2160   69.0730 C   0  0  0  0  0  0  0  0  0  0  0  0
    5.3110   71.1260   68.0190 C   0  0  0  0  0  0  0  0  0  0  0  0
    5.2610   69.3540   62.6830 C   0  0  0  0  0  0  0  0  0  0  0  0
    5.8340   68.6530   63.9040 C   0  0  0  0  0  0  0  0  0  0  0  0
    1.6600   68.2030   64.6870 C   0  0  0  0  0  0  0  0  0  0  0  0
    1.4680   68.6760   63.3830 C   0  0  0  0  0  0  0  0  0  0  0  0
    0.1940   69.0790   62.9720 C   0  0  0  0  0  0  0  0  0  0  0  0
   -0.0100   69.7360   61.2040 Br  0  0  0  0  0  0  0  0  0  0  0  0
   -0.8900   68.9930   63.8490 C   0  0  0  0  0  0  0  0  0  0  0  0
   -0.6970   68.4940   65.1410 C   0  0  0  0  0  0  0  0  0  0  0  0
    0.5720   68.0930   65.5610 C   0  0  0  0  0  0  0  0  0  0  0  0
   -2.1470   68.3520   66.3530 Br  0  0  0  0  0  0  0  0  0  0  0  0
   -2.1300   69.3940   63.4290 O   0  0  0  0  0  0  0  0  0  0  0  0
    2.0397   68.9370   68.0669 H   0  0  0  0  0  0  0  0  0  0  0  0
    2.5415   70.5245   69.9335 H   0  0  0  0  0  0  0  0  0  0  0  0
    4.5989   71.9091   69.9037 H   0  0  0  0  0  0  0  0  0  0  0  0
    6.2311   71.7284   67.9984 H   0  0  0  0  0  0  0  0  0  0  0  0
    4.5956   70.1681   63.0062 H   0  0  0  0  0  0  0  0  0  0  0  0
    6.0818   69.7690   62.0796 H   0  0  0  0  0  0  0  0  0  0  0  0
    4.6910   68.6322   62.0796 H   0  0  0  0  0  0  0  0  0  0  0  0
    6.9001   68.9083   63.9949 H   0  0  0  0  0  0  0  0  0  0  0  0
    5.6999   67.5690   63.7735 H   0  0  0  0  0  0  0  0  0  0  0  0
    2.3163   68.7302   62.6848 H   0  0  0  0  0  0  0  0  0  0  0  0
    0.7168   67.6920   66.5750 H   0  0  0  0  0  0  0  0  0  0  0  0
   -2.9036   69.3364   64.0441 H   0  0  0  0  0  0  0  0  0  0  0  0
  2  1  2  0
  4  3  1  0
  5  4  1  0
  6  5  2  0
  7  6  1  0
  7  3  2  0
  7  1  1  0
  8  6  1  0
  9  8  2  0
 10  9  1  0
 11 10  2  0
 11  5  1  0
 13  3  1  0
 13 12  1  0
 14  1  1  0
 15 14  2  0
 16 15  1  0
 17 16  1  0
 18 16  2  0
 19 18  1  0
 20 19  2  0
 20 14  1  0
 21 19  1  0
 22 18  1  0
  8 23  1  0
  9 24  1  0
 10 25  1  0
 11 26  1  0
 12 27  1  0
 12 28  1  0
 12 29  1  0
 13 30  1  0
 13 31  1  0
 15 32  1  0
 20 33  1  0
 22 34  1  0
M  END
>  <score>  (5) 
-9.971

$$$$
=
     RDKit          3D

 34 36  0  0  0  0  0  0  0  0999 V2000
    1.5670   69.5500   67.8590 C   0  0  0  0  0  0  0  0  0  0  0  0
    1.5310   70.5740   68.5370 O   0  0  0  0  0  0  0  0  0  0  0  0
    0.5780   67.3940   68.6790 C   0  0  0  0  0  0  0  0  0  0  0  0
   -0.5590   66.6590   68.5330 O   0  0  0  0  0  0  0  0  0  0  0  0
   -1.3450   67.3050   67.6360 C   0  0  0  0  0  0  0  0  0  0  0  0
   -0.7280   68.4710   67.1980 C   0  0  0  0  0  0  0  0  0  0  0  0
    0.5190   68.5450   67.9050 C   0  0  0  0  0  0  0  0  0  0  0  0
   -1.4010   69.2450   66.2280 C   0  0  0  0  0  0  0  0  0  0  0  0
   -2.6610   68.8260   65.7730 C   0  0  0  0  0  0  0  0  0  0  0  0
   -3.2470   67.6560   66.2590 C   0  0  0  0  0  0  0  0  0  0  0  0
   -2.5940   66.8640   67.2040 C   0  0  0  0  0  0  0  0  0  0  0  0
    1.1120   65.5340   70.2420 C   0  0  0  0  0  0  0  0  0  0  0  0
    1.5880   66.8360   69.6190 C   0  0  0  0  0  0  0  0  0  0  0  0
    2.7270   69.3630   66.9500 C   0  0  0  0  0  0  0  0  0  0  0  0
    2.5820   68.7580   65.6950 C   0  0  0  0  0  0  0  0  0  0  0  0
    3.6950   68.6150   64.8620 C   0  0  0  0  0  0  0  0  0  0  0  0
    3.4520   67.7670   63.1820 Br  0  0  0  0  0  0  0  0  0  0  0  0
    4.9450   69.0890   65.2680 C   0  0  0  0  0  0  0  0  0  0  0  0
    5.0780   69.7160   66.5100 C   0  0  0  0  0  0  0  0  0  0  0  0
    3.9730   69.8600   67.3510 C   0  0  0  0  0  0  0  0  0  0  0  0
    6.7560   70.3810   67.0870 Br  0  0  0  0  0  0  0  0  0  0  0  0
    6.0240   68.9380   64.4380 O   0  0  0  0  0  0  0  0  0  0  0  0
   -0.9439   70.1646   65.8338 H   0  0  0  0  0  0  0  0  0  0  0  0
   -3.1943   69.4282   65.0227 H   0  0  0  0  0  0  0  0  0  0  0  0
   -4.2387   67.3538   65.8913 H   0  0  0  0  0  0  0  0  0  0  0  0
   -3.0433   65.9368   67.5891 H   0  0  0  0  0  0  0  0  0  0  0  0
    1.1431   65.6192   71.3383 H   0  0  0  0  0  0  0  0  0  0  0  0
    0.0806   65.3286   69.9193 H   0  0  0  0  0  0  0  0  0  0  0  0
    1.7677   64.7119   69.9193 H   0  0  0  0  0  0  0  0  0  0  0  0
    2.5222   66.6484   69.0693 H   0  0  0  0  0  0  0  0  0  0  0  0
    1.7475   67.5660   70.4263 H   0  0  0  0  0  0  0  0  0  0  0  0
    1.5962   68.3970   65.3665 H   0  0  0  0  0  0  0  0  0  0  0  0
    4.0808   70.3615   68.3241 H   0  0  0  0  0  0  0  0  0  0  0  0
    6.9136   69.2707   64.7172 H   0  0  0  0  0  0  0  0  0  0  0  0
  2  1  2  0
  4  3  1  0
  5  4  1  0
  6  5  2  0
  7  6  1  0
  7  3  2  0
  7  1  1  0
  8  6  1  0
  9  8  2  0
 10  9  1  0
 11 10  2  0
 11  5  1  0
 13  3  1  0
 13 12  1  0
 14  1  1  0
 15 14  2  0
 16 15  1  0
 17 16  1  0
 18 16  2  0
 19 18  1  0
 20 19  2  0
 20 14  1  0
 21 19  1  0
 22 18  1  0
  8 23  1  0
  9 24  1  0
 10 25  1  0
 11 26  1  0
 12 27  1  0
 12 28  1  0
 12 29  1  0
 13 30  1  0
 13 31  1  0
 15 32  1  0
 20 33  1  0
 22 34  1  0
M  END
>  <score>  (6) 
-9.92

$$$$
=
     RDKit          3D

 34 36  0  0  0  0  0  0  0  0999 V2000
    3.0830   67.7510   65.0820 C   0  0  0  0  0  0  0  0  0  0  0  0
    3.4550   66.6230   64.7670 O   0  0  0  0  0  0  0  0  0  0  0  0
    5.1700   69.1460   65.0890 C   0  0  0  0  0  0  0  0  0  0  0  0
    5.7770   70.0900   65.8590 O   0  0  0  0  0  0  0  0  0  0  0  0
    5.0070   70.2670   66.9620 C   0  0  0  0  0  0  0  0  0  0  0  0
    3.8870   69.4450   66.9120 C   0  0  0  0  0  0  0  0  0  0  0  0
    3.9780   68.7330   65.6700 C   0  0  0  0  0  0  0  0  0  0  0  0
    2.9990   69.4800   68.0080 C   0  0  0  0  0  0  0  0  0  0  0  0
    3.2620   70.3520   69.0750 C   0  0  0  0  0  0  0  0  0  0  0  0
    4.3920   71.1730   69.0690 C   0  0  0  0  0  0  0  0  0  0  0  0
    5.2960   71.1440   68.0060 C   0  0  0  0  0  0  0  0  0  0  0  0
    5.0680   69.1930   62.6040 C   0  0  0  0  0  0  0  0  0  0  0  0
    5.8770   68.7940   63.8280 C   0  0  0  0  0  0  0  0  0  0  0  0
    1.6650   68.1090   64.8250 C   0  0  0  0  0  0  0  0  0  0  0  0
    0.6750   67.9210   65.7970 C   0  0  0  0  0  0  0  0  0  0  0  0
   -0.6450   68.2870   65.5230 C   0  0  0  0  0  0  0  0  0  0  0  0
   -1.9540   67.9890   66.8640 Br  0  0  0  0  0  0  0  0  0  0  0  0
   -0.9780   68.8560   64.2910 C   0  0  0  0  0  0  0  0  0  0  0  0
    0.0190   69.0660   63.3330 C   0  0  0  0  0  0  0  0  0  0  0  0
    1.3400   68.7010   63.5970 C   0  0  0  0  0  0  0  0  0  0  0  0
   -0.3940   69.8480   61.6570 Br  0  0  0  0  0  0  0  0  0  0  0  0
   -2.2780   69.2060   64.0390 O   0  0  0  0  0  0  0  0  0  0  0  0
    2.1109   68.8311   68.0256 H   0  0  0  0  0  0  0  0  0  0  0  0
    2.5687   70.3897   69.9282 H   0  0  0  0  0  0  0  0  0  0  0  0
    4.5722   71.8527   69.9149 H   0  0  0  0  0  0  0  0  0  0  0  0
    6.1922   71.7817   67.9928 H   0  0  0  0  0  0  0  0  0  0  0  0
    4.1242   69.6585   62.9241 H   0  0  0  0  0  0  0  0  0  0  0  0
    5.6446   69.9101   62.0012 H   0  0  0  0  0  0  0  0  0  0  0  0
    4.8500   68.2991   62.0012 H   0  0  0  0  0  0  0  0  0  0  0  0
    6.8443   69.3171   63.8029 H   0  0  0  0  0  0  0  0  0  0  0  0
    6.0200   67.7036   63.8060 H   0  0  0  0  0  0  0  0  0  0  0  0
    0.9358   67.4865   66.7733 H   0  0  0  0  0  0  0  0  0  0  0  0
    2.1227   68.8772   62.8444 H   0  0  0  0  0  0  0  0  0  0  0  0
   -2.5221   69.6097   63.1686 H   0  0  0  0  0  0  0  0  0  0  0  0
  2  1  2  0
  4  3  1  0
  5  4  1  0
  6  5  2  0
  7  6  1  0
  7  3  2  0
  7  1  1  0
  8  6  1  0
  9  8  2  0
 10  9  1  0
 11 10  2  0
 11  5  1  0
 13  3  1  0
 13 12  1  0
 14  1  1  0
 15 14  2  0
 16 15  1  0
 17 16  1  0
 18 16  2  0
 19 18  1  0
 20 19  2  0
 20 14  1  0
 21 19  1  0
 22 18  1  0
  8 23  1  0
  9 24  1  0
 10 25  1  0
 11 26  1  0
 12 27  1  0
 12 28  1  0
 12 29  1  0
 13 30  1  0
 13 31  1  0
 15 32  1  0
 20 33  1  0
 22 34  1  0
M  END
>  <score>  (7) 
-9.854

$$$$
=
     RDKit          3D

 34 36  0  0  0  0  0  0  0  0999 V2000
    1.6840   69.5900   68.0060 C   0  0  0  0  0  0  0  0  0  0  0  0
    1.6460   70.5700   68.7450 O   0  0  0  0  0  0  0  0  0  0  0  0
    0.7130   67.3940   68.7390 C   0  0  0  0  0  0  0  0  0  0  0  0
   -0.4130   66.6510   68.5550 O   0  0  0  0  0  0  0  0  0  0  0  0
   -1.1980   67.3200   67.6740 C   0  0  0  0  0  0  0  0  0  0  0  0
   -0.5910   68.5080   67.2840 C   0  0  0  0  0  0  0  0  0  0  0  0
    0.6470   68.5710   68.0050 C   0  0  0  0  0  0  0  0  0  0  0  0
   -1.2650   69.3070   66.3350 C   0  0  0  0  0  0  0  0  0  0  0  0
   -2.5140   68.8910   65.8530 C   0  0  0  0  0  0  0  0  0  0  0  0
   -3.0910   67.6970   66.2910 C   0  0  0  0  0  0  0  0  0  0  0  0
   -2.4380   66.8790   67.2140 C   0  0  0  0  0  0  0  0  0  0  0  0
    1.2290   65.5170   70.2880 C   0  0  0  0  0  0  0  0  0  0  0  0
    1.7210   66.8150   69.6680 C   0  0  0  0  0  0  0  0  0  0  0  0
    2.8320   69.4710   67.0710 C   0  0  0  0  0  0  0  0  0  0  0  0
    4.1170   69.8950   67.4330 C   0  0  0  0  0  0  0  0  0  0  0  0
    5.1740   69.7510   66.5320 C   0  0  0  0  0  0  0  0  0  0  0  0
    6.8910   70.3620   67.0600 Br  0  0  0  0  0  0  0  0  0  0  0  0
    4.9590   69.1690   65.2790 C   0  0  0  0  0  0  0  0  0  0  0  0
    3.6800   68.7240   64.9330 C   0  0  0  0  0  0  0  0  0  0  0  0
    2.6170   68.8670   65.8260 C   0  0  0  0  0  0  0  0  0  0  0  0
    3.3550   67.9190   63.2490 Br  0  0  0  0  0  0  0  0  0  0  0  0
    6.0080   69.0390   64.4080 O   0  0  0  0  0  0  0  0  0  0  0  0
   -0.8153   70.2452   65.9779 H   0  0  0  0  0  0  0  0  0  0  0  0
   -3.0470   69.5138   65.1195 H   0  0  0  0  0  0  0  0  0  0  0  0
   -4.0753   67.3967   65.9025 H   0  0  0  0  0  0  0  0  0  0  0  0
   -2.8797   65.9333   67.5613 H   0  0  0  0  0  0  0  0  0  0  0  0
    1.2602   65.5994   71.3845 H   0  0  0  0  0  0  0  0  0  0  0  0
    0.1955   65.3245   69.9641 H   0  0  0  0  0  0  0  0  0  0  0  0
    1.8752   64.6879   69.9641 H   0  0  0  0  0  0  0  0  0  0  0  0
    2.6478   66.6155   69.1101 H   0  0  0  0  0  0  0  0  0  0  0  0
    1.8983   67.5380   70.4778 H   0  0  0  0  0  0  0  0  0  0  0  0
    4.2928   70.3398   68.4236 H   0  0  0  0  0  0  0  0  0  0  0  0
    1.6142   68.5067   65.5529 H   0  0  0  0  0  0  0  0  0  0  0  0
    5.8650   68.6281   63.5187 H   0  0  0  0  0  0  0  0  0  0  0  0
  2  1  2  0
  4  3  1  0
  5  4  1  0
  6  5  2  0
  7  6  1  0
  7  3  2  0
  7  1  1  0
  8  6  1  0
  9  8  2  0
 10  9  1  0
 11 10  2  0
 11  5  1  0
 13  3  1  0
 13 12  1  0
 14  1  1  0
 15 14  2  0
 16 15  1  0
 17 16  1  0
 18 16  2  0
 19 18  1  0
 20 19  2  0
 20 14  1  0
 21 19  1  0
 22 18  1  0
  8 23  1  0
  9 24  1  0
 10 25  1  0
 11 26  1  0
 12 27  1  0
 12 28  1  0
 12 29  1  0
 13 30  1  0
 13 31  1  0
 15 32  1  0
 20 33  1  0
 22 34  1  0
M  END
>  <score>  (8) 
-9.805

$$$$
=
     RDKit          3D

 34 36  0  0  0  0  0  0  0  0999 V2000
    1.9950   68.7100   66.7710 C   0  0  0  0  0  0  0  0  0  0  0  0
    2.5020   69.7070   67.2790 O   0  0  0  0  0  0  0  0  0  0  0  0
    0.5110   67.3860   68.3020 C   0  0  0  0  0  0  0  0  0  0  0  0
   -0.8070   67.0800   68.4500 O   0  0  0  0  0  0  0  0  0  0  0  0
   -1.4730   67.6490   67.4140 C   0  0  0  0  0  0  0  0  0  0  0  0
   -0.5920   68.3380   66.5890 C   0  0  0  0  0  0  0  0  0  0  0  0
    0.7040   68.1920   67.1880 C   0  0  0  0  0  0  0  0  0  0  0  0
   -1.1230   68.9590   65.4380 C   0  0  0  0  0  0  0  0  0  0  0  0
   -2.5020   68.8820   65.1930 C   0  0  0  0  0  0  0  0  0  0  0  0
   -3.3480   68.1930   66.0630 C   0  0  0  0  0  0  0  0  0  0  0  0
   -2.8460   67.5540   67.1990 C   0  0  0  0  0  0  0  0  0  0  0  0
    0.6800   65.9120   70.2990 C   0  0  0  0  0  0  0  0  0  0  0  0
    1.4210   66.8310   69.3410 C   0  0  0  0  0  0  0  0  0  0  0  0
    2.7400   68.0360   65.6770 C   0  0  0  0  0  0  0  0  0  0  0  0
    3.4790   68.7650   64.7370 C   0  0  0  0  0  0  0  0  0  0  0  0
    4.1800   68.0930   63.7330 C   0  0  0  0  0  0  0  0  0  0  0  0
    5.1460   69.1270   62.4690 Br  0  0  0  0  0  0  0  0  0  0  0  0
    4.1620   66.6970   63.6740 C   0  0  0  0  0  0  0  0  0  0  0  0
    3.4450   65.9720   64.6310 C   0  0  0  0  0  0  0  0  0  0  0  0
    2.7390   66.6360   65.6360 C   0  0  0  0  0  0  0  0  0  0  0  0
    3.4090   64.0780   64.5890 Br  0  0  0  0  0  0  0  0  0  0  0  0
    4.8540   66.0550   62.6810 O   0  0  0  0  0  0  0  0  0  0  0  0
   -0.4632   69.4970   64.7414 H   0  0  0  0  0  0  0  0  0  0  0  0
   -2.9226   69.3717   64.3023 H   0  0  0  0  0  0  0  0  0  0  0  0
   -4.4266   68.1525   65.8509 H   0  0  0  0  0  0  0  0  0  0  0  0
   -3.5020   67.0033   67.8893 H   0  0  0  0  0  0  0  0  0  0  0  0
    0.9115   66.1991   71.3353 H   0  0  0  0  0  0  0  0  0  0  0  0
   -0.4030   65.9997   70.1274 H   0  0  0  0  0  0  0  0  0  0  0  0
    0.9954   64.8722   70.1274 H   0  0  0  0  0  0  0  0  0  0  0  0
    2.2219   66.2613   68.8470 H   0  0  0  0  0  0  0  0  0  0  0  0
    1.8358   67.6697   69.9194 H   0  0  0  0  0  0  0  0  0  0  0  0
    3.5073   69.8634   64.7892 H   0  0  0  0  0  0  0  0  0  0  0  0
    2.1842   66.0619   66.3926 H   0  0  0  0  0  0  0  0  0  0  0  0
    4.8465   65.0662   62.6320 H   0  0  0  0  0  0  0  0  0  0  0  0
  2  1  2  0
  4  3  1  0
  5  4  1  0
  6  5  2  0
  7  6  1  0
  7  3  2  0
  7  1  1  0
  8  6  1  0
  9  8  2  0
 10  9  1  0
 11 10  2  0
 11  5  1  0
 13  3  1  0
 13 12  1  0
 14  1  1  0
 15 14  2  0
 16 15  1  0
 17 16  1  0
 18 16  2  0
 19 18  1  0
 20 19  2  0
 20 14  1  0
 21 19  1  0
 22 18  1  0
  8 23  1  0
  9 24  1  0
 10 25  1  0
 11 26  1  0
 12 27  1  0
 12 28  1  0
 12 29  1  0
 13 30  1  0
 13 31  1  0
 15 32  1  0
 20 33  1  0
 22 34  1  0
M  END
>  <score>  (9) 
-9.503

$$$$
