=
     RDKit          3D

 46 49  0  0  0  0  0  0  0  0999 V2000
    7.4550   71.8090   69.1400 O   0  0  0  0  0  0  0  0  0  0  0  0
    6.7050   71.0420   68.5430 C   0  0  0  0  0  0  0  0  0  0  0  0
    7.1510   70.2320   67.3530 C   0  0  0  0  0  0  0  0  0  0  0  0
    6.0080   70.0790   66.3630 C   0  0  0  0  0  0  0  0  0  0  0  0
    4.7420   69.4620   66.9970 C   0  0  1  0  0  0  0  0  0  0  0  0
    4.4580   70.0500   68.3750 C   0  0  0  0  0  0  0  0  0  0  0  0
    5.3320   70.8140   69.0510 C   0  0  0  0  0  0  0  0  0  0  0  0
    3.1300   69.6930   68.9950 C   0  0  0  0  0  0  0  0  0  0  0  0
    1.9670   69.8930   68.0300 C   0  0  0  0  0  0  0  0  0  0  0  0
    2.2080   69.1300   66.7220 C   0  0  2  0  0  0  0  0  0  0  0  0
    3.5170   69.6370   66.0480 C   0  0  2  0  0  0  0  0  0  0  0  0
    3.7450   68.9840   64.6600 C   0  0  0  0  0  0  0  0  0  0  0  0
    2.5120   69.0400   63.7400 C   0  0  0  0  0  0  0  0  0  0  0  0
    1.2590   68.4950   64.4380 C   0  0  1  0  0  0  0  0  0  0  0  0
    1.0510   69.2990   65.7380 C   0  0  1  0  0  0  0  0  0  0  0  0
   -0.3600   68.9110   66.1740 C   0  0  0  0  0  0  0  0  0  0  0  0
   -1.1240   68.7320   64.8490 C   0  0  0  0  0  0  0  0  0  0  0  0
   -0.0710   68.8200   63.7280 C   0  0  2  0  0  0  0  0  0  0  0  0
    1.4030   66.9660   64.6380 C   0  0  0  0  0  0  0  0  0  0  0  0
   -0.3830   67.9340   62.6710 O   0  0  0  0  0  0  0  0  0  0  0  0
    7.9919   70.7424   66.8608 H   0  0  0  0  0  0  0  0  0  0  0  0
    7.4648   69.2348   67.6953 H   0  0  0  0  0  0  0  0  0  0  0  0
    5.7529   71.0723   65.9653 H   0  0  0  0  0  0  0  0  0  0  0  0
    6.3470   69.3954   65.5707 H   0  0  0  0  0  0  0  0  0  0  0  0
    4.9244   68.3861   67.1353 H   0  0  0  0  0  0  0  0  0  0  0  0
    5.0227   71.2787   69.9988 H   0  0  0  0  0  0  0  0  0  0  0  0
    3.1561   68.6374   69.3031 H   0  0  0  0  0  0  0  0  0  0  0  0
    2.9710   70.3596   69.8555 H   0  0  0  0  0  0  0  0  0  0  0  0
    1.0425   69.5238   68.4979 H   0  0  0  0  0  0  0  0  0  0  0  0
    1.8785   70.9654   67.8017 H   0  0  0  0  0  0  0  0  0  0  0  0
    2.2921   68.0634   66.9775 H   0  0  0  0  0  0  0  0  0  0  0  0
    3.4016   70.7154   65.8642 H   0  0  0  0  0  0  0  0  0  0  0  0
    4.5742   69.5077   64.1618 H   0  0  0  0  0  0  0  0  0  0  0  0
    3.9661   67.9211   64.8371 H   0  0  0  0  0  0  0  0  0  0  0  0
    2.3317   70.0852   63.4485 H   0  0  0  0  0  0  0  0  0  0  0  0
    2.7131   68.4143   62.8579 H   0  0  0  0  0  0  0  0  0  0  0  0
    1.0907   70.3931   65.6309 H   0  0  0  0  0  0  0  0  0  0  0  0
   -0.3477   67.9727   66.7479 H   0  0  0  0  0  0  0  0  0  0  0  0
   -0.8219   69.6631   66.8305 H   0  0  0  0  0  0  0  0  0  0  0  0
   -1.6233   67.7521   64.8265 H   0  0  0  0  0  0  0  0  0  0  0  0
   -1.9016   69.5007   64.7286 H   0  0  0  0  0  0  0  0  0  0  0  0
   -0.0249   69.8059   63.2424 H   0  0  0  0  0  0  0  0  0  0  0  0
    1.4245   66.7373   65.7138 H   0  0  0  0  0  0  0  0  0  0  0  0
    0.5492   66.4531   64.1711 H   0  0  0  0  0  0  0  0  0  0  0  0
    2.3376   66.6215   64.1711 H   0  0  0  0  0  0  0  0  0  0  0  0
   -0.6876   67.0692   63.0444 H   0  0  0  0  0  0  0  0  0  0  0  0
  2  1  2  0
  3  2  1  0
  4  3  1  0
  5  4  1  0
  6  5  1  0
  7  6  2  0
  7  2  1  0
  8  6  1  0
  9  8  1  0
 10  9  1  0
 11 10  1  0
 11  5  1  0
 12 11  1  0
 13 12  1  0
 14 13  1  0
 15 14  1  0
 15 10  1  0
 16 15  1  0
 17 16  1  0
 18 17  1  0
 18 14  1  0
 14 19  1  1
 20 18  1  0
  3 21  1  0
  3 22  1  0
  4 23  1  0
  4 24  1  0
  5 25  1  1
  7 26  1  0
  8 27  1  0
  8 28  1  0
  9 29  1  0
  9 30  1  0
 10 31  1  1
 11 32  1  6
 12 33  1  0
 12 34  1  0
 13 35  1  0
 13 36  1  0
 15 37  1  6
 16 38  1  0
 16 39  1  0
 17 40  1  0
 17 41  1  0
 18 42  1  6
 19 43  1  0
 19 44  1  0
 19 45  1  0
 20 46  1  0
M  END
>  <score>  (1) 
-10.497

$$$$
=
     RDKit          3D

 46 49  0  0  0  0  0  0  0  0999 V2000
    6.5580   71.6620   69.8460 O   0  0  0  0  0  0  0  0  0  0  0  0
    6.2800   70.9460   68.8880 C   0  0  0  0  0  0  0  0  0  0  0  0
    7.3270   70.4000   67.9520 C   0  0  0  0  0  0  0  0  0  0  0  0
    6.7760   70.3190   66.5380 C   0  0  0  0  0  0  0  0  0  0  0  0
    5.4790   69.4880   66.4450 C   0  0  1  0  0  0  0  0  0  0  0  0
    4.5280   69.7970   67.5960 C   0  0  0  0  0  0  0  0  0  0  0  0
    4.8800   70.5080   68.6800 C   0  0  0  0  0  0  0  0  0  0  0  0
    3.1380   69.2170   67.4920 C   0  0  0  0  0  0  0  0  0  0  0  0
    2.5030   69.4760   66.1310 C   0  0  0  0  0  0  0  0  0  0  0  0
    3.4130   68.9780   65.0030 C   0  0  2  0  0  0  0  0  0  0  0  0
    4.7850   69.7130   65.0670 C   0  0  2  0  0  0  0  0  0  0  0  0
    5.7010   69.3360   63.8740 C   0  0  0  0  0  0  0  0  0  0  0  0
    5.0060   69.4380   62.5040 C   0  0  0  0  0  0  0  0  0  0  0  0
    3.6790   68.6680   62.4820 C   0  0  1  0  0  0  0  0  0  0  0  0
    2.7950   69.2110   63.6230 C   0  0  1  0  0  0  0  0  0  0  0  0
    1.4190   68.6250   63.3160 C   0  0  0  0  0  0  0  0  0  0  0  0
    1.3550   68.6110   61.7780 C   0  0  0  0  0  0  0  0  0  0  0  0
    2.7640   68.9890   61.2830 C   0  0  2  0  0  0  0  0  0  0  0  0
    3.9650   67.1470   62.5490 C   0  0  0  0  0  0  0  0  0  0  0  0
    3.0950   68.2760   60.1070 O   0  0  0  0  0  0  0  0  0  0  0  0
    8.2049   71.0627   67.9625 H   0  0  0  0  0  0  0  0  0  0  0  0
    7.6140   69.3912   68.2837 H   0  0  0  0  0  0  0  0  0  0  0  0
    6.5652   71.3391   66.1846 H   0  0  0  0  0  0  0  0  0  0  0  0
    7.5336   69.8186   65.9169 H   0  0  0  0  0  0  0  0  0  0  0  0
    5.7529   68.4258   66.5273 H   0  0  0  0  0  0  0  0  0  0  0  0
    4.1154   70.7696   69.4263 H   0  0  0  0  0  0  0  0  0  0  0  0
    3.1950   68.1306   67.6546 H   0  0  0  0  0  0  0  0  0  0  0  0
    2.5121   69.7052   68.2535 H   0  0  0  0  0  0  0  0  0  0  0  0
    1.5392   68.9487   66.0764 H   0  0  0  0  0  0  0  0  0  0  0  0
    2.3537   70.5593   66.0117 H   0  0  0  0  0  0  0  0  0  0  0  0
    3.5465   67.8955   65.1454 H   0  0  0  0  0  0  0  0  0  0  0  0
    4.5903   70.7917   64.9749 H   0  0  0  0  0  0  0  0  0  0  0  0
    6.5683   70.0126   63.8747 H   0  0  0  0  0  0  0  0  0  0  0  0
    5.9898   68.2834   64.0105 H   0  0  0  0  0  0  0  0  0  0  0  0
    4.8073   70.4971   62.2831 H   0  0  0  0  0  0  0  0  0  0  0  0
    5.6716   68.9957   61.7481 H   0  0  0  0  0  0  0  0  0  0  0  0
    2.7014   70.3060   63.6710 H   0  0  0  0  0  0  0  0  0  0  0  0
    1.3289   67.6060   63.7204 H   0  0  0  0  0  0  0  0  0  0  0  0
    0.6012   69.2050   63.7685 H   0  0  0  0  0  0  0  0  0  0  0  0
    1.0808   67.6086   61.4173 H   0  0  0  0  0  0  0  0  0  0  0  0
    0.5974   69.3149   61.4030 H   0  0  0  0  0  0  0  0  0  0  0  0
    2.8602   70.0444   60.9882 H   0  0  0  0  0  0  0  0  0  0  0  0
    4.0244   66.8311   63.6010 H   0  0  0  0  0  0  0  0  0  0  0  0
    3.1542   66.5990   62.0468 H   0  0  0  0  0  0  0  0  0  0  0  0
    4.9195   66.9309   62.0468 H   0  0  0  0  0  0  0  0  0  0  0  0
    3.4990   67.4058   60.3514 H   0  0  0  0  0  0  0  0  0  0  0  0
  2  1  2  0
  3  2  1  0
  4  3  1  0
  5  4  1  0
  6  5  1  0
  7  6  2  0
  7  2  1  0
  8  6  1  0
  9  8  1  0
 10  9  1  0
 11 10  1  0
 11  5  1  0
 12 11  1  0
 13 12  1  0
 14 13  1  0
 15 14  1  0
 15 10  1  0
 16 15  1  0
 17 16  1  0
 18 17  1  0
 18 14  1  0
 14 19  1  1
 20 18  1  0
  3 21  1  0
  3 22  1  0
  4 23  1  0
  4 24  1  0
  5 25  1  1
  7 26  1  0
  8 27  1  0
  8 28  1  0
  9 29  1  0
  9 30  1  0
 10 31  1  1
 11 32  1  6
 12 33  1  0
 12 34  1  0
 13 35  1  0
 13 36  1  0
 15 37  1  6
 16 38  1  0
 16 39  1  0
 17 40  1  0
 17 41  1  0
 18 42  1  6
 19 43  1  0
 19 44  1  0
 19 45  1  0
 20 46  1  0
M  END
>  <score>  (2) 
-8.997

$$$$
=
     RDKit          3D

 46 49  0  0  0  0  0  0  0  0999 V2000
    1.3700   65.6610   69.6100 O   0  0  0  0  0  0  0  0  0  0  0  0
    1.6370   64.7300   70.3660 C   0  0  0  0  0  0  0  0  0  0  0  0
    3.0410   64.2160   70.5550 C   0  0  0  0  0  0  0  0  0  0  0  0
    3.0230   62.7140   70.7850 C   0  0  0  0  0  0  0  0  0  0  0  0
    2.1280   62.2980   71.9720 C   0  0  1  0  0  0  0  0  0  0  0  0
    0.8110   63.0660   71.9800 C   0  0  0  0  0  0  0  0  0  0  0  0
    0.5720   64.1390   71.2080 C   0  0  0  0  0  0  0  0  0  0  0  0
   -0.2370   62.5890   72.9560 C   0  0  0  0  0  0  0  0  0  0  0  0
   -0.4470   61.0810   72.8890 C   0  0  0  0  0  0  0  0  0  0  0  0
    0.8810   60.3380   73.0720 C   0  0  2  0  0  0  0  0  0  0  0  0
    1.8810   60.7590   71.9540 C   0  0  2  0  0  0  0  0  0  0  0  0
    3.1990   59.9450   72.0200 C   0  0  0  0  0  0  0  0  0  0  0  0
    2.9840   58.4240   72.1190 C   0  0  0  0  0  0  0  0  0  0  0  0
    2.0220   58.0610   73.2580 C   0  0  1  0  0  0  0  0  0  0  0  0
    0.7000   58.8210   73.0250 C   0  0  1  0  0  0  0  0  0  0  0  0
   -0.2690   58.1560   73.9990 C   0  0  0  0  0  0  0  0  0  0  0  0
    0.1720   56.6810   74.0150 C   0  0  0  0  0  0  0  0  0  0  0  0
    1.4890   56.6150   73.2190 C   0  0  2  0  0  0  0  0  0  0  0  0
    2.7030   58.3480   74.6200 C   0  0  0  0  0  0  0  0  0  0  0  0
    2.3740   55.6670   73.7830 O   0  0  0  0  0  0  0  0  0  0  0  0
    3.6338   64.4389   69.6556 H   0  0  0  0  0  0  0  0  0  0  0  0
    3.4887   64.7081   71.4310 H   0  0  0  0  0  0  0  0  0  0  0  0
    2.6480   62.2241   69.8743 H   0  0  0  0  0  0  0  0  0  0  0  0
    4.0514   62.4045   71.0230 H   0  0  0  0  0  0  0  0  0  0  0  0
    2.6583   62.5545   72.9010 H   0  0  0  0  0  0  0  0  0  0  0  0
   -0.4328   64.5866   71.2012 H   0  0  0  0  0  0  0  0  0  0  0  0
    0.0803   62.8569   73.9746 H   0  0  0  0  0  0  0  0  0  0  0  0
   -1.1885   63.0731   72.6909 H   0  0  0  0  0  0  0  0  0  0  0  0
   -1.1425   60.7780   73.6855 H   0  0  0  0  0  0  0  0  0  0  0  0
   -0.8606   60.8261   71.9021 H   0  0  0  0  0  0  0  0  0  0  0  0
    1.2729   60.6093   74.0634 H   0  0  0  0  0  0  0  0  0  0  0  0
    1.4205   60.5177   70.9846 H   0  0  0  0  0  0  0  0  0  0  0  0
    3.7823   60.1546   71.1112 H   0  0  0  0  0  0  0  0  0  0  0  0
    3.7224   60.2555   72.9363 H   0  0  0  0  0  0  0  0  0  0  0  0
    2.5654   58.0603   71.1690 H   0  0  0  0  0  0  0  0  0  0  0  0
    3.9559   57.9526   72.3269 H   0  0  0  0  0  0  0  0  0  0  0  0
    0.2791   58.7417   72.0118 H   0  0  0  0  0  0  0  0  0  0  0  0
   -0.1825   58.6008   75.0013 H   0  0  0  0  0  0  0  0  0  0  0  0
   -1.3205   58.2801   73.7009 H   0  0  0  0  0  0  0  0  0  0  0  0
    0.3347   56.3433   75.0492 H   0  0  0  0  0  0  0  0  0  0  0  0
   -0.5958   56.0293   73.5725 H   0  0  0  0  0  0  0  0  0  0  0  0
    1.3606   56.2726   72.1816 H   0  0  0  0  0  0  0  0  0  0  0  0
    2.0241   58.0619   75.4369 H   0  0  0  0  0  0  0  0  0  0  0  0
    3.6329   57.7653   74.6950 H   0  0  0  0  0  0  0  0  0  0  0  0
    2.9353   59.4206   74.6950 H   0  0  0  0  0  0  0  0  0  0  0  0
    2.3265   55.7179   74.7705 H   0  0  0  0  0  0  0  0  0  0  0  0
  2  1  2  0
  3  2  1  0
  4  3  1  0
  5  4  1  0
  6  5  1  0
  7  6  2  0
  7  2  1  0
  8  6  1  0
  9  8  1  0
 10  9  1  0
 11 10  1  0
 11  5  1  0
 12 11  1  0
 13 12  1  0
 14 13  1  0
 15 14  1  0
 15 10  1  0
 16 15  1  0
 17 16  1  0
 18 17  1  0
 18 14  1  0
 14 19  1  1
 20 18  1  0
  3 21  1  0
  3 22  1  0
  4 23  1  0
  4 24  1  0
  5 25  1  1
  7 26  1  0
  8 27  1  0
  8 28  1  0
  9 29  1  0
  9 30  1  0
 10 31  1  1
 11 32  1  6
 12 33  1  0
 12 34  1  0
 13 35  1  0
 13 36  1  0
 15 37  1  6
 16 38  1  0
 16 39  1  0
 17 40  1  0
 17 41  1  0
 18 42  1  6
 19 43  1  0
 19 44  1  0
 19 45  1  0
 20 46  1  0
M  END
>  <score>  (3) 
-8.939

$$$$
=
     RDKit          3D

 46 49  0  0  0  0  0  0  0  0999 V2000
   -3.3350   59.6790   75.8760 O   0  0  0  0  0  0  0  0  0  0  0  0
   -2.4390   59.6100   75.0400 C   0  0  0  0  0  0  0  0  0  0  0  0
   -1.6980   58.3310   74.7460 C   0  0  0  0  0  0  0  0  0  0  0  0
   -0.2490   58.6300   74.4030 C   0  0  0  0  0  0  0  0  0  0  0  0
   -0.1010   59.6240   73.2310 C   0  0  1  0  0  0  0  0  0  0  0  0
   -1.0910   60.7780   73.3430 C   0  0  0  0  0  0  0  0  0  0  0  0
   -2.1210   60.7920   74.2050 C   0  0  0  0  0  0  0  0  0  0  0  0
   -0.8940   61.9260   72.3830 C   0  0  0  0  0  0  0  0  0  0  0  0
    0.5520   62.4070   72.3450 C   0  0  0  0  0  0  0  0  0  0  0  0
    1.5040   61.2430   72.0440 C   0  0  2  0  0  0  0  0  0  0  0  0
    1.3650   60.1480   73.1430 C   0  0  2  0  0  0  0  0  0  0  0  0
    2.3930   59.0030   72.9540 C   0  0  0  0  0  0  0  0  0  0  0  0
    3.8370   59.4960   72.7480 C   0  0  0  0  0  0  0  0  0  0  0  0
    3.9250   60.5440   71.6310 C   0  0  1  0  0  0  0  0  0  0  0  0
    2.9630   61.6970   71.9830 C   0  0  1  0  0  0  0  0  0  0  0  0
    3.3590   62.8020   71.0070 C   0  0  0  0  0  0  0  0  0  0  0  0
    4.8830   62.6390   70.8580 C   0  0  0  0  0  0  0  0  0  0  0  0
    5.2500   61.3310   71.5850 C   0  0  2  0  0  0  0  0  0  0  0  0
    3.6520   59.8660   70.2650 C   0  0  0  0  0  0  0  0  0  0  0  0
    6.2910   60.6530   70.9080 O   0  0  0  0  0  0  0  0  0  0  0  0
   -1.7345   57.6785   75.6308 H   0  0  0  0  0  0  0  0  0  0  0  0
   -2.1731   57.8302   73.8896 H   0  0  0  0  0  0  0  0  0  0  0  0
    0.2404   59.0583   75.2902 H   0  0  0  0  0  0  0  0  0  0  0  0
    0.2187   57.6836   74.0938 H   0  0  0  0  0  0  0  0  0  0  0  0
   -0.3347   59.0856   72.3006 H   0  0  0  0  0  0  0  0  0  0  0  0
   -2.7396   61.6973   74.2926 H   0  0  0  0  0  0  0  0  0  0  0  0
   -1.1840   61.5972   71.3742 H   0  0  0  0  0  0  0  0  0  0  0  0
   -1.5182   62.7636   72.7276 H   0  0  0  0  0  0  0  0  0  0  0  0
    0.6575   63.1715   71.5611 H   0  0  0  0  0  0  0  0  0  0  0  0
    0.8097   62.8290   73.3276 H   0  0  0  0  0  0  0  0  0  0  0  0
    1.2252   60.8398   71.0593 H   0  0  0  0  0  0  0  0  0  0  0  0
    1.6008   60.6145   74.1109 H   0  0  0  0  0  0  0  0  0  0  0  0
    2.3687   58.3632   73.8485 H   0  0  0  0  0  0  0  0  0  0  0  0
    2.1053   58.4598   72.0418 H   0  0  0  0  0  0  0  0  0  0  0  0
    4.1981   59.9434   73.6858 H   0  0  0  0  0  0  0  0  0  0  0  0
    4.4557   58.6337   72.4587 H   0  0  0  0  0  0  0  0  0  0  0  0
    3.0506   62.0931   73.0055 H   0  0  0  0  0  0  0  0  0  0  0  0
    2.8549   62.6675   70.0386 H   0  0  0  0  0  0  0  0  0  0  0  0
    3.0730   63.8030   71.3622 H   0  0  0  0  0  0  0  0  0  0  0  0
    5.1571   62.5738   69.7947 H   0  0  0  0  0  0  0  0  0  0  0  0
    5.4211   63.4985   71.2844 H   0  0  0  0  0  0  0  0  0  0  0  0
    5.6484   61.4860   72.5986 H   0  0  0  0  0  0  0  0  0  0  0  0
    3.2458   58.8573   70.4310 H   0  0  0  0  0  0  0  0  0  0  0  0
    2.9250   60.4651   69.6971 H   0  0  0  0  0  0  0  0  0  0  0  0
    4.5913   59.7942   69.6971 H   0  0  0  0  0  0  0  0  0  0  0  0
    6.9081   60.2511   71.5697 H   0  0  0  0  0  0  0  0  0  0  0  0
  2  1  2  0
  3  2  1  0
  4  3  1  0
  5  4  1  0
  6  5  1  0
  7  6  2  0
  7  2  1  0
  8  6  1  0
  9  8  1  0
 10  9  1  0
 11 10  1  0
 11  5  1  0
 12 11  1  0
 13 12  1  0
 14 13  1  0
 15 14  1  0
 15 10  1  0
 16 15  1  0
 17 16  1  0
 18 17  1  0
 18 14  1  0
 14 19  1  6
 20 18  1  0
  3 21  1  0
  3 22  1  0
  4 23  1  0
  4 24  1  0
  5 25  1  6
  7 26  1  0
  8 27  1  0
  8 28  1  0
  9 29  1  0
  9 30  1  0
 10 31  1  6
 11 32  1  1
 12 33  1  0
 12 34  1  0
 13 35  1  0
 13 36  1  0
 15 37  1  1
 16 38  1  0
 16 39  1  0
 17 40  1  0
 17 41  1  0
 18 42  1  1
 19 43  1  0
 19 44  1  0
 19 45  1  0
 20 46  1  0
M  END
>  <score>  (4) 
-8.649

$$$$
=
     RDKit          3D

 46 49  0  0  0  0  0  0  0  0999 V2000
    3.4800   63.0640   68.0710 O   0  0  0  0  0  0  0  0  0  0  0  0
    3.3510   62.4190   69.1080 C   0  0  0  0  0  0  0  0  0  0  0  0
    4.3490   61.3770   69.5460 C   0  0  0  0  0  0  0  0  0  0  0  0
    3.6400   60.2380   70.2590 C   0  0  0  0  0  0  0  0  0  0  0  0
    2.7920   60.7150   71.4580 C   0  0  1  0  0  0  0  0  0  0  0  0
    2.0140   61.9840   71.1280 C   0  0  0  0  0  0  0  0  0  0  0  0
    2.2340   62.7260   70.0300 C   0  0  0  0  0  0  0  0  0  0  0  0
    0.9800   62.4180   72.1390 C   0  0  0  0  0  0  0  0  0  0  0  0
    0.0680   61.2730   72.5630 C   0  0  0  0  0  0  0  0  0  0  0  0
    0.8890   60.0810   73.0650 C   0  0  2  0  0  0  0  0  0  0  0  0
    1.8380   59.5780   71.9360 C   0  0  2  0  0  0  0  0  0  0  0  0
    2.6040   58.2960   72.3510 C   0  0  0  0  0  0  0  0  0  0  0  0
    1.7000   57.1960   72.9360 C   0  0  0  0  0  0  0  0  0  0  0  0
    0.8130   57.7330   74.0670 C   0  0  1  0  0  0  0  0  0  0  0  0
    0.0000   58.9200   73.5130 C   0  0  1  0  0  0  0  0  0  0  0  0
   -1.0550   59.1620   74.5900 C   0  0  0  0  0  0  0  0  0  0  0  0
   -1.3750   57.7540   75.1220 C   0  0  0  0  0  0  0  0  0  0  0  0
   -0.3470   56.8050   74.4770 C   0  0  2  0  0  0  0  0  0  0  0  0
    1.6940   58.0690   75.2970 C   0  0  0  0  0  0  0  0  0  0  0  0
    0.0320   55.7830   75.3790 O   0  0  0  0  0  0  0  0  0  0  0  0
    4.8735   60.9825   68.6632 H   0  0  0  0  0  0  0  0  0  0  0  0
    5.0703   61.8388   70.2363 H   0  0  0  0  0  0  0  0  0  0  0  0
    2.9785   59.7318   69.5405 H   0  0  0  0  0  0  0  0  0  0  0  0
    4.4137   59.5610   70.6504 H   0  0  0  0  0  0  0  0  0  0  0  0
    3.4789   60.9617   72.2810 H   0  0  0  0  0  0  0  0  0  0  0  0
    1.5722   63.5772   69.8119 H   0  0  0  0  0  0  0  0  0  0  0  0
    1.4969   62.8064   73.0289 H   0  0  0  0  0  0  0  0  0  0  0  0
    0.3535   63.1902   71.6687 H   0  0  0  0  0  0  0  0  0  0  0  0
   -0.5949   61.6196   73.3695 H   0  0  0  0  0  0  0  0  0  0  0  0
   -0.5233   60.9524   71.6926 H   0  0  0  0  0  0  0  0  0  0  0  0
    1.4696   60.4281   73.9324 H   0  0  0  0  0  0  0  0  0  0  0  0
    1.2141   59.2957   71.0752 H   0  0  0  0  0  0  0  0  0  0  0  0
    3.1117   57.8921   71.4627 H   0  0  0  0  0  0  0  0  0  0  0  0
    3.3102   58.5861   73.1429 H   0  0  0  0  0  0  0  0  0  0  0  0
    1.0571   56.8000   72.1361 H   0  0  0  0  0  0  0  0  0  0  0  0
    2.3444   56.4068   73.3506 H   0  0  0  0  0  0  0  0  0  0  0  0
   -0.5163   58.7374   72.5590 H   0  0  0  0  0  0  0  0  0  0  0  0
   -0.6560   59.8012   75.3913 H   0  0  0  0  0  0  0  0  0  0  0  0
   -1.9445   59.6799   74.2020 H   0  0  0  0  0  0  0  0  0  0  0  0
   -1.2806   57.7301   76.2177 H   0  0  0  0  0  0  0  0  0  0  0  0
   -2.4046   57.4569   74.8738 H   0  0  0  0  0  0  0  0  0  0  0  0
   -0.7366   56.2582   73.6057 H   0  0  0  0  0  0  0  0  0  0  0  0
    1.1334   57.8552   76.2190 H   0  0  0  0  0  0  0  0  0  0  0  0
    2.6070   57.4560   75.2725 H   0  0  0  0  0  0  0  0  0  0  0  0
    1.9669   59.1343   75.2725 H   0  0  0  0  0  0  0  0  0  0  0  0
   -0.0865   56.1026   76.3085 H   0  0  0  0  0  0  0  0  0  0  0  0
  2  1  2  0
  3  2  1  0
  4  3  1  0
  5  4  1  0
  6  5  1  0
  7  6  2  0
  7  2  1  0
  8  6  1  0
  9  8  1  0
 10  9  1  0
 11 10  1  0
 11  5  1  0
 12 11  1  0
 13 12  1  0
 14 13  1  0
 15 14  1  0
 15 10  1  0
 16 15  1  0
 17 16  1  0
 18 17  1  0
 18 14  1  0
 14 19  1  1
 20 18  1  0
  3 21  1  0
  3 22  1  0
  4 23  1  0
  4 24  1  0
  5 25  1  1
  7 26  1  0
  8 27  1  0
  8 28  1  0
  9 29  1  0
  9 30  1  0
 10 31  1  1
 11 32  1  6
 12 33  1  0
 12 34  1  0
 13 35  1  0
 13 36  1  0
 15 37  1  6
 16 38  1  0
 16 39  1  0
 17 40  1  0
 17 41  1  0
 18 42  1  6
 19 43  1  0
 19 44  1  0
 19 45  1  0
 20 46  1  0
M  END
>  <score>  (5) 
-8.414

$$$$
=
     RDKit          3D

 46 49  0  0  0  0  0  0  0  0999 V2000
    0.8110   66.8930   62.9330 O   0  0  0  0  0  0  0  0  0  0  0  0
    1.4780   67.7330   63.5300 C   0  0  0  0  0  0  0  0  0  0  0  0
    2.5460   68.5530   62.8530 C   0  0  0  0  0  0  0  0  0  0  0  0
    3.6900   68.8240   63.8160 C   0  0  0  0  0  0  0  0  0  0  0  0
    3.2280   69.5060   65.1210 C   0  0  1  0  0  0  0  0  0  0  0  0
    1.9390   68.8900   65.6540 C   0  0  0  0  0  0  0  0  0  0  0  0
    1.1740   68.0400   64.9470 C   0  0  0  0  0  0  0  0  0  0  0  0
    1.5120   69.3190   67.0360 C   0  0  0  0  0  0  0  0  0  0  0  0
    2.6510   69.2380   68.0460 C   0  0  0  0  0  0  0  0  0  0  0  0
    3.8690   70.0300   67.5550 C   0  0  2  0  0  0  0  0  0  0  0  0
    4.3600   69.4550   66.1930 C   0  0  2  0  0  0  0  0  0  0  0  0
    5.6640   70.1410   65.7100 C   0  0  0  0  0  0  0  0  0  0  0  0
    6.7630   70.2080   66.7860 C   0  0  0  0  0  0  0  0  0  0  0  0
    6.2380   70.8150   68.0950 C   0  0  1  0  0  0  0  0  0  0  0  0
    5.0250   69.9810   68.5540 C   0  0  1  0  0  0  0  0  0  0  0  0
    4.7910   70.4530   69.9870 C   0  0  0  0  0  0  0  0  0  0  0  0
    6.2070   70.7350   70.5220 C   0  0  0  0  0  0  0  0  0  0  0  0
    7.1570   70.6130   69.3160 C   0  0  2  0  0  0  0  0  0  0  0  0
    5.9460   72.3220   67.8830 C   0  0  0  0  0  0  0  0  0  0  0  0
    8.2060   71.5580   69.4020 O   0  0  0  0  0  0  0  0  0  0  0  0
    2.9282   68.0026   61.9807 H   0  0  0  0  0  0  0  0  0  0  0  0
    2.1126   69.5117   62.5322 H   0  0  0  0  0  0  0  0  0  0  0  0
    4.1686   67.8669   64.0706 H   0  0  0  0  0  0  0  0  0  0  0  0
    4.3881   69.5102   63.3143 H   0  0  0  0  0  0  0  0  0  0  0  0
    3.0124   70.5600   64.8917 H   0  0  0  0  0  0  0  0  0  0  0  0
    0.3073   67.5642   65.4291 H   0  0  0  0  0  0  0  0  0  0  0  0
    1.1545   70.3582   66.9889 H   0  0  0  0  0  0  0  0  0  0  0  0
    0.7178   68.6350   67.3697 H   0  0  0  0  0  0  0  0  0  0  0  0
    2.3125   69.6548   69.0060 H   0  0  0  0  0  0  0  0  0  0  0  0
    2.9407   68.1839   68.1682 H   0  0  0  0  0  0  0  0  0  0  0  0
    3.5526   71.0774   67.4416 H   0  0  0  0  0  0  0  0  0  0  0  0
    4.6109   68.3954   66.3492 H   0  0  0  0  0  0  0  0  0  0  0  0
    6.0544   69.5780   64.8494 H   0  0  0  0  0  0  0  0  0  0  0  0
    5.4046   71.1780   65.4503 H   0  0  0  0  0  0  0  0  0  0  0  0
    7.1287   69.1901   66.9863 H   0  0  0  0  0  0  0  0  0  0  0  0
    7.5730   70.8503   66.4101 H   0  0  0  0  0  0  0  0  0  0  0  0
    5.1767   68.8916   68.5696 H   0  0  0  0  0  0  0  0  0  0  0  0
    4.1780   71.3662   70.0027 H   0  0  0  0  0  0  0  0  0  0  0  0
    4.2489   69.7126   70.5935 H   0  0  0  0  0  0  0  0  0  0  0  0
    6.2589   71.7484   70.9467 H   0  0  0  0  0  0  0  0  0  0  0  0
    6.4809   70.0289   71.3198 H   0  0  0  0  0  0  0  0  0  0  0  0
    7.6765   69.6451   69.2589 H   0  0  0  0  0  0  0  0  0  0  0  0
    5.8499   72.8179   68.8602 H   0  0  0  0  0  0  0  0  0  0  0  0
    6.7721   72.7798   67.3192 H   0  0  0  0  0  0  0  0  0  0  0  0
    5.0087   72.4381   67.3192 H   0  0  0  0  0  0  0  0  0  0  0  0
    8.4086   71.7405   70.3537 H   0  0  0  0  0  0  0  0  0  0  0  0
  2  1  2  0
  3  2  1  0
  4  3  1  0
  5  4  1  0
  6  5  1  0
  7  6  2  0
  7  2  1  0
  8  6  1  0
  9  8  1  0
 10  9  1  0
 11 10  1  0
 11  5  1  0
 12 11  1  0
 13 12  1  0
 14 13  1  0
 15 14  1  0
 15 10  1  0
 16 15  1  0
 17 16  1  0
 18 17  1  0
 18 14  1  0
 14 19  1  6
 20 18  1  0
  3 21  1  0
  3 22  1  0
  4 23  1  0
  4 24  1  0
  5 25  1  6
  7 26  1  0
  8 27  1  0
  8 28  1  0
  9 29  1  0
  9 30  1  0
 10 31  1  6
 11 32  1  1
 12 33  1  0
 12 34  1  0
 13 35  1  0
 13 36  1  0
 15 37  1  1
 16 38  1  0
 16 39  1  0
 17 40  1  0
 17 41  1  0
 18 42  1  6
 19 43  1  0
 19 44  1  0
 19 45  1  0
 20 46  1  0
M  END
>  <score>  (6) 
-8.196

$$$$
=
     RDKit          3D

 46 49  0  0  0  0  0  0  0  0999 V2000
   -0.0240   56.1860   76.0190 O   0  0  0  0  0  0  0  0  0  0  0  0
    0.3280   56.8120   75.0230 C   0  0  0  0  0  0  0  0  0  0  0  0
    1.3170   56.2620   74.0270 C   0  0  0  0  0  0  0  0  0  0  0  0
    2.1720   57.3840   73.4630 C   0  0  0  0  0  0  0  0  0  0  0  0
    1.3360   58.5160   72.8290 C   0  0  1  0  0  0  0  0  0  0  0  0
    0.1230   58.8660   73.6830 C   0  0  0  0  0  0  0  0  0  0  0  0
   -0.3000   58.1170   74.7150 C   0  0  0  0  0  0  0  0  0  0  0  0
   -0.6430   60.1040   73.2850 C   0  0  0  0  0  0  0  0  0  0  0  0
    0.2710   61.3030   73.0610 C   0  0  0  0  0  0  0  0  0  0  0  0
    1.3730   60.9660   72.0500 C   0  0  2  0  0  0  0  0  0  0  0  0
    2.2250   59.7720   72.5750 C   0  0  2  0  0  0  0  0  0  0  0  0
    3.4300   59.4680   71.6480 C   0  0  0  0  0  0  0  0  0  0  0  0
    4.2620   60.7120   71.2850 C   0  0  0  0  0  0  0  0  0  0  0  0
    3.3810   61.8440   70.7390 C   0  0  1  0  0  0  0  0  0  0  0  0
    2.2980   62.1550   71.7930 C   0  0  1  0  0  0  0  0  0  0  0  0
    1.6990   63.4730   71.3080 C   0  0  0  0  0  0  0  0  0  0  0  0
    2.8960   64.2240   70.6950 C   0  0  0  0  0  0  0  0  0  0  0  0
    4.0670   63.2220   70.6710 C   0  0  2  0  0  0  0  0  0  0  0  0
    2.8330   61.4440   69.3460 C   0  0  0  0  0  0  0  0  0  0  0  0
    4.8630   63.4050   69.5160 O   0  0  0  0  0  0  0  0  0  0  0  0
    1.9653   55.5270   74.5265 H   0  0  0  0  0  0  0  0  0  0  0  0
    0.7681   55.7805   73.2043 H   0  0  0  0  0  0  0  0  0  0  0  0
    2.7764   57.8084   74.2782 H   0  0  0  0  0  0  0  0  0  0  0  0
    2.8000   56.9532   72.6692 H   0  0  0  0  0  0  0  0  0  0  0  0
    0.9578   58.1549   71.8612 H   0  0  0  0  0  0  0  0  0  0  0  0
   -1.1276   58.4797   75.3423 H   0  0  0  0  0  0  0  0  0  0  0  0
   -1.1899   59.8972   72.3533 H   0  0  0  0  0  0  0  0  0  0  0  0
   -1.3298   60.3535   74.1072 H   0  0  0  0  0  0  0  0  0  0  0  0
   -0.3251   62.1443   72.6777 H   0  0  0  0  0  0  0  0  0  0  0  0
    0.7411   61.5718   74.0185 H   0  0  0  0  0  0  0  0  0  0  0  0
    0.8781   60.7016   71.1039 H   0  0  0  0  0  0  0  0  0  0  0  0
    2.6517   60.0672   73.5449 H   0  0  0  0  0  0  0  0  0  0  0  0
    4.0869   58.7476   72.1575 H   0  0  0  0  0  0  0  0  0  0  0  0
    3.0197   59.0705   70.7079 H   0  0  0  0  0  0  0  0  0  0  0  0
    4.7825   61.0683   72.1862 H   0  0  0  0  0  0  0  0  0  0  0  0
    4.9802   60.4279   70.5017 H   0  0  0  0  0  0  0  0  0  0  0  0
    2.6630   62.2986   72.8207 H   0  0  0  0  0  0  0  0  0  0  0  0
    0.9210   63.2938   70.5513 H   0  0  0  0  0  0  0  0  0  0  0  0
    1.2129   64.0395   72.1160 H   0  0  0  0  0  0  0  0  0  0  0  0
    2.6561   64.5544   69.6736 H   0  0  0  0  0  0  0  0  0  0  0  0
    3.1482   65.1208   71.2800 H   0  0  0  0  0  0  0  0  0  0  0  0
    4.7740   63.3485   71.5041 H   0  0  0  0  0  0  0  0  0  0  0  0
    1.9502   60.7996   69.4705 H   0  0  0  0  0  0  0  0  0  0  0  0
    2.5503   62.3496   68.7893 H   0  0  0  0  0  0  0  0  0  0  0  0
    3.6094   60.8988   68.7893 H   0  0  0  0  0  0  0  0  0  0  0  0
    5.7914   63.6184   69.7855 H   0  0  0  0  0  0  0  0  0  0  0  0
  2  1  2  0
  3  2  1  0
  4  3  1  0
  5  4  1  0
  6  5  1  0
  7  6  2  0
  7  2  1  0
  8  6  1  0
  9  8  1  0
 10  9  1  0
 11 10  1  0
 11  5  1  0
 12 11  1  0
 13 12  1  0
 14 13  1  0
 15 14  1  0
 15 10  1  0
 16 15  1  0
 17 16  1  0
 18 17  1  0
 18 14  1  0
 14 19  1  6
 20 18  1  0
  3 21  1  0
  3 22  1  0
  4 23  1  0
  4 24  1  0
  5 25  1  6
  7 26  1  0
  8 27  1  0
  8 28  1  0
  9 29  1  0
  9 30  1  0
 10 31  1  6
 11 32  1  1
 12 33  1  0
 12 34  1  0
 13 35  1  0
 13 36  1  0
 15 37  1  1
 16 38  1  0
 16 39  1  0
 17 40  1  0
 17 41  1  0
 18 42  1  1
 19 43  1  0
 19 44  1  0
 19 45  1  0
 20 46  1  0
M  END
>  <score>  (7) 
-8.152

$$$$
=
     RDKit          3D

 46 49  0  0  0  0  0  0  0  0999 V2000
    3.6690   68.7110   59.6870 O   0  0  0  0  0  0  0  0  0  0  0  0
    3.3050   68.8610   60.8510 C   0  0  0  0  0  0  0  0  0  0  0  0
    4.2710   68.8840   62.0070 C   0  0  0  0  0  0  0  0  0  0  0  0
    3.6360   68.2540   63.2350 C   0  0  0  0  0  0  0  0  0  0  0  0
    2.3010   68.9210   63.6300 C   0  0  1  0  0  0  0  0  0  0  0  0
    1.4330   69.2090   62.4100 C   0  0  0  0  0  0  0  0  0  0  0  0
    1.8790   69.1270   61.1450 C   0  0  0  0  0  0  0  0  0  0  0  0
    0.0160   69.6510   62.6840 C   0  0  0  0  0  0  0  0  0  0  0  0
   -0.6860   68.7510   63.6940 C   0  0  0  0  0  0  0  0  0  0  0  0
    0.1340   68.6360   64.9840 C   0  0  2  0  0  0  0  0  0  0  0  0
    1.5380   68.0400   64.6660 C   0  0  2  0  0  0  0  0  0  0  0  0
    2.3650   67.7890   65.9530 C   0  0  0  0  0  0  0  0  0  0  0  0
    1.5970   67.0200   67.0430 C   0  0  0  0  0  0  0  0  0  0  0  0
    0.2390   67.6680   67.3440 C   0  0  1  0  0  0  0  0  0  0  0  0
   -0.5530   67.7500   66.0230 C   0  0  1  0  0  0  0  0  0  0  0  0
   -1.9680   68.0970   66.4780 C   0  0  0  0  0  0  0  0  0  0  0  0
   -2.1230   67.3510   67.8160 C   0  0  0  0  0  0  0  0  0  0  0  0
   -0.7300   66.7910   68.1620 C   0  0  2  0  0  0  0  0  0  0  0  0
    0.4630   69.0280   68.0520 C   0  0  0  0  0  0  0  0  0  0  0  0
   -0.4990   66.8360   69.5560 O   0  0  0  0  0  0  0  0  0  0  0  0
    5.1754   68.3197   61.7358 H   0  0  0  0  0  0  0  0  0  0  0  0
    4.5332   69.9278   62.2345 H   0  0  0  0  0  0  0  0  0  0  0  0
    3.4488   67.1903   63.0267 H   0  0  0  0  0  0  0  0  0  0  0  0
    4.3340   68.3901   64.0742 H   0  0  0  0  0  0  0  0  0  0  0  0
    2.5330   69.8886   64.0989 H   0  0  0  0  0  0  0  0  0  0  0  0
    1.1716   69.2599   60.3132 H   0  0  0  0  0  0  0  0  0  0  0  0
    0.0358   70.6775   63.0788 H   0  0  0  0  0  0  0  0  0  0  0  0
   -0.5427   69.5949   61.7381 H   0  0  0  0  0  0  0  0  0  0  0  0
   -1.6727   69.1758   63.9307 H   0  0  0  0  0  0  0  0  0  0  0  0
   -0.7956   67.7481   63.2557 H   0  0  0  0  0  0  0  0  0  0  0  0
    0.2291   69.6491   65.4019 H   0  0  0  0  0  0  0  0  0  0  0  0
    1.3854   67.0544   64.2019 H   0  0  0  0  0  0  0  0  0  0  0  0
    3.2593   67.2081   65.6832 H   0  0  0  0  0  0  0  0  0  0  0  0
    2.6149   68.7751   66.3714 H   0  0  0  0  0  0  0  0  0  0  0  0
    1.4316   65.9875   66.7016 H   0  0  0  0  0  0  0  0  0  0  0  0
    2.1979   67.0388   67.9642 H   0  0  0  0  0  0  0  0  0  0  0  0
   -0.5972   66.8200   65.4372 H   0  0  0  0  0  0  0  0  0  0  0  0
   -2.0777   69.1822   66.6205 H   0  0  0  0  0  0  0  0  0  0  0  0
   -2.7322   67.8081   65.7414 H   0  0  0  0  0  0  0  0  0  0  0  0
   -2.4611   68.0432   68.6012 H   0  0  0  0  0  0  0  0  0  0  0  0
   -2.8702   66.5471   67.7416 H   0  0  0  0  0  0  0  0  0  0  0  0
   -0.6062   65.7281   67.9074 H   0  0  0  0  0  0  0  0  0  0  0  0
    0.4390   68.8823   69.1420 H   0  0  0  0  0  0  0  0  0  0  0  0
    1.4407   69.4376   67.7583 H   0  0  0  0  0  0  0  0  0  0  0  0
   -0.3317   69.7296   67.7583 H   0  0  0  0  0  0  0  0  0  0  0  0
   -1.3485   66.6705   70.0368 H   0  0  0  0  0  0  0  0  0  0  0  0
  2  1  2  0
  3  2  1  0
  4  3  1  0
  5  4  1  0
  6  5  1  0
  7  6  2  0
  7  2  1  0
  8  6  1  0
  9  8  1  0
 10  9  1  0
 11 10  1  0
 11  5  1  0
 12 11  1  0
 13 12  1  0
 14 13  1  0
 15 14  1  0
 15 10  1  0
 16 15  1  0
 17 16  1  0
 18 17  1  0
 18 14  1  0
 14 19  1  1
 20 18  1  0
  3 21  1  0
  3 22  1  0
  4 23  1  0
  4 24  1  0
  5 25  1  1
  7 26  1  0
  8 27  1  0
  8 28  1  0
  9 29  1  0
  9 30  1  0
 10 31  1  1
 11 32  1  6
 12 33  1  0
 12 34  1  0
 13 35  1  0
 13 36  1  0
 15 37  1  6
 16 38  1  0
 16 39  1  0
 17 40  1  0
 17 41  1  0
 18 42  1  6
 19 43  1  0
 19 44  1  0
 19 45  1  0
 20 46  1  0
M  END
>  <score>  (8) 
-8.066

$$$$
=
     RDKit          3D

 46 49  0  0  0  0  0  0  0  0999 V2000
   -2.4470   55.4130   75.0390 O   0  0  0  0  0  0  0  0  0  0  0  0
   -1.6050   56.2900   74.8640 C   0  0  0  0  0  0  0  0  0  0  0  0
   -1.7360   57.6700   75.4540 C   0  0  0  0  0  0  0  0  0  0  0  0
   -1.1490   58.7040   74.5070 C   0  0  0  0  0  0  0  0  0  0  0  0
    0.3200   58.4100   74.1340 C   0  0  1  0  0  0  0  0  0  0  0  0
    0.5440   56.9300   73.8480 C   0  0  0  0  0  0  0  0  0  0  0  0
   -0.3570   55.9740   74.1310 C   0  0  0  0  0  0  0  0  0  0  0  0
    1.8810   56.5550   73.2560 C   0  0  0  0  0  0  0  0  0  0  0  0
    2.2570   57.4360   72.0700 C   0  0  0  0  0  0  0  0  0  0  0  0
    2.1990   58.9190   72.4550 C   0  0  2  0  0  0  0  0  0  0  0  0
    0.7600   59.2890   72.9220 C   0  0  2  0  0  0  0  0  0  0  0  0
    0.6150   60.8060   73.2070 C   0  0  0  0  0  0  0  0  0  0  0  0
    1.1490   61.7020   72.0750 C   0  0  0  0  0  0  0  0  0  0  0  0
    2.5810   61.3210   71.6770 C   0  0  1  0  0  0  0  0  0  0  0  0
    2.5860   59.8290   71.2880 C   0  0  1  0  0  0  0  0  0  0  0  0
    3.9440   59.6410   70.6160 C   0  0  0  0  0  0  0  0  0  0  0  0
    4.1870   60.9760   69.8870 C   0  0  0  0  0  0  0  0  0  0  0  0
    3.0660   61.9280   70.3450 C   0  0  2  0  0  0  0  0  0  0  0  0
    3.5520   61.6960   72.8250 C   0  0  0  0  0  0  0  0  0  0  0  0
    3.5460   63.2530   70.4650 O   0  0  0  0  0  0  0  0  0  0  0  0
   -2.7998   57.8938   75.6221 H   0  0  0  0  0  0  0  0  0  0  0  0
   -1.1893   57.7058   76.4079 H   0  0  0  0  0  0  0  0  0  0  0  0
   -1.7495   58.7171   73.5854 H   0  0  0  0  0  0  0  0  0  0  0  0
   -1.1710   59.6752   75.0231 H   0  0  0  0  0  0  0  0  0  0  0  0
    0.9462   58.6706   75.0000 H   0  0  0  0  0  0  0  0  0  0  0  0
   -0.1645   54.9388   73.8128 H   0  0  0  0  0  0  0  0  0  0  0  0
    2.6532   56.6589   74.0325 H   0  0  0  0  0  0  0  0  0  0  0  0
    1.8102   55.5182   72.8955 H   0  0  0  0  0  0  0  0  0  0  0  0
    3.2780   57.1872   71.7450 H   0  0  0  0  0  0  0  0  0  0  0  0
    1.5414   57.2546   71.2545 H   0  0  0  0  0  0  0  0  0  0  0  0
    2.9215   59.0728   73.2701 H   0  0  0  0  0  0  0  0  0  0  0  0
    0.0720   59.0661   72.0932 H   0  0  0  0  0  0  0  0  0  0  0  0
   -0.4515   61.0313   73.3544 H   0  0  0  0  0  0  0  0  0  0  0  0
    1.2175   61.0242   74.1011 H   0  0  0  0  0  0  0  0  0  0  0  0
    0.4947   61.5953   71.1972 H   0  0  0  0  0  0  0  0  0  0  0  0
    1.1584   62.7411   72.4358 H   0  0  0  0  0  0  0  0  0  0  0  0
    1.8043   59.5209   70.5781 H   0  0  0  0  0  0  0  0  0  0  0  0
    4.7284   59.4559   71.3646 H   0  0  0  0  0  0  0  0  0  0  0  0
    3.9635   58.7772   69.9352 H   0  0  0  0  0  0  0  0  0  0  0  0
    5.1704   61.3860   70.1605 H   0  0  0  0  0  0  0  0  0  0  0  0
    4.1779   60.8431   68.7951 H   0  0  0  0  0  0  0  0  0  0  0  0
    2.2366   62.0105   69.6272 H   0  0  0  0  0  0  0  0  0  0  0  0
    3.0650   61.5079   73.7932 H   0  0  0  0  0  0  0  0  0  0  0  0
    4.4637   61.0853   72.7483 H   0  0  0  0  0  0  0  0  0  0  0  0
    3.8165   62.7610   72.7483 H   0  0  0  0  0  0  0  0  0  0  0  0
    3.6310   63.4877   71.4230 H   0  0  0  0  0  0  0  0  0  0  0  0
  2  1  2  0
  3  2  1  0
  4  3  1  0
  5  4  1  0
  6  5  1  0
  7  6  2  0
  7  2  1  0
  8  6  1  0
  9  8  1  0
 10  9  1  0
 11 10  1  0
 11  5  1  0
 12 11  1  0
 13 12  1  0
 14 13  1  0
 15 14  1  0
 15 10  1  0
 16 15  1  0
 17 16  1  0
 18 17  1  0
 18 14  1  0
 14 19  1  1
 20 18  1  0
  3 21  1  0
  3 22  1  0
  4 23  1  0
  4 24  1  0
  5 25  1  1
  7 26  1  0
  8 27  1  0
  8 28  1  0
  9 29  1  0
  9 30  1  0
 10 31  1  1
 11 32  1  6
 12 33  1  0
 12 34  1  0
 13 35  1  0
 13 36  1  0
 15 37  1  6
 16 38  1  0
 16 39  1  0
 17 40  1  0
 17 41  1  0
 18 42  1  6
 19 43  1  0
 19 44  1  0
 19 45  1  0
 20 46  1  0
M  END
>  <score>  (9) 
-7.965

$$$$
