=
     RDKit          3D

 40 40  0  0  0  0  0  0  0  0999 V2000
    1.6080   67.7370   66.3040 C   0  0  0  0  0  0  0  0  0  0  0  0
    2.2700   66.7060   66.1860 O   0  0  0  0  0  0  0  0  0  0  0  0
    2.0710   69.0260   66.4630 N   0  0  0  0  0  0  0  0  0  0  0  0
    3.4370   69.4160   66.4710 C   0  0  0  0  0  0  0  0  0  0  0  0
    3.9600   69.9270   67.6860 C   0  0  0  0  0  0  0  0  0  0  0  0
    3.1320   70.0630   68.9390 C   0  0  0  0  0  0  0  0  0  0  0  0
    5.3130   70.2990   67.7610 C   0  0  0  0  0  0  0  0  0  0  0  0
    6.1430   70.1810   66.6550 C   0  0  0  0  0  0  0  0  0  0  0  0
    5.6230   69.7240   65.4510 C   0  0  0  0  0  0  0  0  0  0  0  0
    4.2660   69.3700   65.3270 C   0  0  0  0  0  0  0  0  0  0  0  0
    3.8020   69.0200   63.9390 C   0  0  0  0  0  0  0  0  0  0  0  0
    0.0810   67.6070   66.3040 C   0  0  0  0  0  0  0  0  0  0  0  0
   -0.3870   66.8880   67.5820 N   0  0  0  0  0  4  0  0  0  0  0  0
    0.3230   66.2160   69.9080 C   0  0  0  0  0  0  0  0  0  0  0  0
    0.4300   67.2510   68.8030 C   0  0  0  0  0  0  0  0  0  0  0  0
   -1.8840   66.8720   67.7340 C   0  0  0  0  0  0  0  0  0  0  0  0
   -2.5340   67.9800   66.9270 C   0  0  0  0  0  0  0  0  0  0  0  0
    1.3676   69.7682   66.5863 H   0  0  0  0  0  0  0  0  0  0  0  0
    3.7810   69.9564   69.8207 H   0  0  0  0  0  0  0  0  0  0  0  0
    2.6511   71.0522   68.9551 H   0  0  0  0  0  0  0  0  0  0  0  0
    2.3599   69.2796   68.9551 H   0  0  0  0  0  0  0  0  0  0  0  0
    5.7187   70.6880   68.7066 H   0  0  0  0  0  0  0  0  0  0  0  0
    7.2073   70.4481   66.7316 H   0  0  0  0  0  0  0  0  0  0  0  0
    6.2847   69.6369   64.5766 H   0  0  0  0  0  0  0  0  0  0  0  0
    2.9252   68.3586   64.0014 H   0  0  0  0  0  0  0  0  0  0  0  0
    3.5299   69.9398   63.4005 H   0  0  0  0  0  0  0  0  0  0  0  0
    4.6117   68.5057   63.4005 H   0  0  0  0  0  0  0  0  0  0  0  0
   -0.3698   68.6096   66.2644 H   0  0  0  0  0  0  0  0  0  0  0  0
   -0.2312   67.0222   65.4262 H   0  0  0  0  0  0  0  0  0  0  0  0
   -0.1701   65.8873   67.4705 H   0  0  0  0  0  0  0  0  0  0  0  0
    0.3748   66.7170   70.8859 H   0  0  0  0  0  0  0  0  0  0  0  0
   -0.6351   65.6828   69.8195 H   0  0  0  0  0  0  0  0  0  0  0  0
    1.1517   65.4981   69.8195 H   0  0  0  0  0  0  0  0  0  0  0  0
    0.0741   68.2172   69.1901 H   0  0  0  0  0  0  0  0  0  0  0  0
    1.4847   67.3001   68.4946 H   0  0  0  0  0  0  0  0  0  0  0  0
   -2.2688   65.9023   67.3854 H   0  0  0  0  0  0  0  0  0  0  0  0
   -2.1260   67.0291   68.7955 H   0  0  0  0  0  0  0  0  0  0  0  0
   -2.9703   68.7236   67.6101 H   0  0  0  0  0  0  0  0  0  0  0  0
   -1.7768   68.4643   66.2929 H   0  0  0  0  0  0  0  0  0  0  0  0
   -3.3262   67.5554   66.2929 H   0  0  0  0  0  0  0  0  0  0  0  0
  2  1  2  0
  3  1  1  0
  4  3  1  0
  5  4  2  0
  6  5  1  0
  7  5  1  0
  8  7  2  0
  9  8  1  0
 10  4  1  0
 10  9  2  0
 11 10  1  0
 12  1  1  0
 13 12  1  0
 15 14  1  0
 15 13  1  0
 16 13  1  0
 17 16  1  0
  3 18  1  0
  6 19  1  0
  6 20  1  0
  6 21  1  0
  7 22  1  0
  8 23  1  0
  9 24  1  0
 11 25  1  0
 11 26  1  0
 11 27  1  0
 12 28  1  0
 12 29  1  0
 13 30  1  0
 14 31  1  0
 14 32  1  0
 14 33  1  0
 15 34  1  0
 15 35  1  0
 16 36  1  0
 16 37  1  0
 17 38  1  0
 17 39  1  0
 17 40  1  0
M  CHG  1  13   1
M  END
>  <score>  (1) 
-8.482

$$$$
=
     RDKit          3D

 40 40  0  0  0  0  0  0  0  0999 V2000
    1.6220   67.8680   66.5230 C   0  0  0  0  0  0  0  0  0  0  0  0
    1.9050   66.6940   66.2860 O   0  0  0  0  0  0  0  0  0  0  0  0
    2.1180   68.9980   65.9090 N   0  0  0  0  0  0  0  0  0  0  0  0
    3.0370   69.0130   64.8260 C   0  0  0  0  0  0  0  0  0  0  0  0
    4.3750   69.3870   65.1140 C   0  0  0  0  0  0  0  0  0  0  0  0
    4.8390   69.7580   66.4990 C   0  0  0  0  0  0  0  0  0  0  0  0
    5.3340   69.3890   64.0870 C   0  0  0  0  0  0  0  0  0  0  0  0
    4.9860   69.0370   62.7910 C   0  0  0  0  0  0  0  0  0  0  0  0
    3.6670   68.7140   62.4960 C   0  0  0  0  0  0  0  0  0  0  0  0
    2.6710   68.7300   63.4910 C   0  0  0  0  0  0  0  0  0  0  0  0
    1.2630   68.4930   63.0150 C   0  0  0  0  0  0  0  0  0  0  0  0
    0.6190   68.1450   67.6480 C   0  0  0  0  0  0  0  0  0  0  0  0
   -0.3250   66.9410   67.8220 N   0  0  0  0  0  4  0  0  0  0  0  0
    1.0450   66.4610   69.8860 C   0  0  0  0  0  0  0  0  0  0  0  0
   -0.3210   66.3810   69.2290 C   0  0  0  0  0  0  0  0  0  0  0  0
   -1.6630   67.1410   67.1640 C   0  0  0  0  0  0  0  0  0  0  0  0
   -1.7600   68.5060   66.5100 C   0  0  0  0  0  0  0  0  0  0  0  0
    1.7949   69.9086   66.2657 H   0  0  0  0  0  0  0  0  0  0  0  0
    4.2075   69.2531   67.2448 H   0  0  0  0  0  0  0  0  0  0  0  0
    5.8850   69.4444   66.6316 H   0  0  0  0  0  0  0  0  0  0  0  0
    4.7632   70.8474   66.6316 H   0  0  0  0  0  0  0  0  0  0  0  0
    6.3724   69.6729   64.3132 H   0  0  0  0  0  0  0  0  0  0  0  0
    5.7506   69.0137   62.0006 H   0  0  0  0  0  0  0  0  0  0  0  0
    3.3959   68.4406   61.4656 H   0  0  0  0  0  0  0  0  0  0  0  0
    0.5965   68.3808   63.8829 H   0  0  0  0  0  0  0  0  0  0  0  0
    0.9326   69.3482   62.4071 H   0  0  0  0  0  0  0  0  0  0  0  0
    1.2308   67.5768   62.4071 H   0  0  0  0  0  0  0  0  0  0  0  0
    1.1644   68.3187   68.5873 H   0  0  0  0  0  0  0  0  0  0  0  0
    0.0252   69.0345   67.3907 H   0  0  0  0  0  0  0  0  0  0  0  0
    0.0677   66.1590   67.2787 H   0  0  0  0  0  0  0  0  0  0  0  0
    0.9268   66.4541   70.9796 H   0  0  0  0  0  0  0  0  0  0  0  0
    1.6515   65.5968   69.5773 H   0  0  0  0  0  0  0  0  0  0  0  0
    1.5465   67.3901   69.5773 H   0  0  0  0  0  0  0  0  0  0  0  0
   -0.6314   65.3265   69.1892 H   0  0  0  0  0  0  0  0  0  0  0  0
   -1.0154   66.9863   69.8301 H   0  0  0  0  0  0  0  0  0  0  0  0
   -1.8038   66.3657   66.3965 H   0  0  0  0  0  0  0  0  0  0  0  0
   -2.4426   67.0715   67.9369 H   0  0  0  0  0  0  0  0  0  0  0  0
   -1.8151   69.2821   67.2876 H   0  0  0  0  0  0  0  0  0  0  0  0
   -0.8717   68.6766   65.8840 H   0  0  0  0  0  0  0  0  0  0  0  0
   -2.6635   68.5493   65.8840 H   0  0  0  0  0  0  0  0  0  0  0  0
  2  1  2  0
  3  1  1  0
  4  3  1  0
  5  4  2  0
  6  5  1  0
  7  5  1  0
  8  7  2  0
  9  8  1  0
 10  4  1  0
 10  9  2  0
 11 10  1  0
 12  1  1  0
 13 12  1  0
 15 14  1  0
 15 13  1  0
 16 13  1  0
 17 16  1  0
  3 18  1  0
  6 19  1  0
  6 20  1  0
  6 21  1  0
  7 22  1  0
  8 23  1  0
  9 24  1  0
 11 25  1  0
 11 26  1  0
 11 27  1  0
 12 28  1  0
 12 29  1  0
 13 30  1  0
 14 31  1  0
 14 32  1  0
 14 33  1  0
 15 34  1  0
 15 35  1  0
 16 36  1  0
 16 37  1  0
 17 38  1  0
 17 39  1  0
 17 40  1  0
M  CHG  1  13   1
M  END
>  <score>  (2) 
-8.289

$$$$
=
     RDKit          3D

 40 40  0  0  0  0  0  0  0  0999 V2000
    1.6710   67.5670   65.9500 C   0  0  0  0  0  0  0  0  0  0  0  0
    2.3950   66.5730   65.8950 O   0  0  0  0  0  0  0  0  0  0  0  0
    2.0460   68.8760   66.1700 N   0  0  0  0  0  0  0  0  0  0  0  0
    3.3810   69.3360   66.3270 C   0  0  0  0  0  0  0  0  0  0  0  0
    3.7480   69.8390   67.6020 C   0  0  0  0  0  0  0  0  0  0  0  0
    2.7910   69.8970   68.7650 C   0  0  0  0  0  0  0  0  0  0  0  0
    5.0640   70.2790   67.8240 C   0  0  0  0  0  0  0  0  0  0  0  0
    6.0080   70.2350   66.8070 C   0  0  0  0  0  0  0  0  0  0  0  0
    5.6390   69.7850   65.5450 C   0  0  0  0  0  0  0  0  0  0  0  0
    4.3230   69.3640   65.2750 C   0  0  0  0  0  0  0  0  0  0  0  0
    4.0220   69.0300   63.8390 C   0  0  0  0  0  0  0  0  0  0  0  0
    0.1620   67.3590   65.7860 C   0  0  0  0  0  0  0  0  0  0  0  0
   -0.4990   68.6560   65.2860 N   0  0  0  0  0  4  0  0  0  0  0  0
    0.3750   69.3820   63.0330 C   0  0  0  0  0  0  0  0  0  0  0  0
   -0.7300   68.6680   63.7900 C   0  0  0  0  0  0  0  0  0  0  0  0
   -1.6330   69.1150   66.1620 C   0  0  0  0  0  0  0  0  0  0  0  0
   -2.2060   67.9680   66.9720 C   0  0  0  0  0  0  0  0  0  0  0  0
    1.2952   69.5790   66.2251 H   0  0  0  0  0  0  0  0  0  0  0  0
    3.3570   69.8627   69.7076 H   0  0  0  0  0  0  0  0  0  0  0  0
    2.2131   70.8318   68.7181 H   0  0  0  0  0  0  0  0  0  0  0  0
    2.1045   69.0388   68.7181 H   0  0  0  0  0  0  0  0  0  0  0  0
    5.3494   70.6626   68.8147 H   0  0  0  0  0  0  0  0  0  0  0  0
    7.0428   70.5547   66.9991 H   0  0  0  0  0  0  0  0  0  0  0  0
    6.3897   69.7572   64.7415 H   0  0  0  0  0  0  0  0  0  0  0  0
    3.2861   68.2134   63.7990 H   0  0  0  0  0  0  0  0  0  0  0  0
    3.6127   69.9175   63.3341 H   0  0  0  0  0  0  0  0  0  0  0  0
    4.9471   68.7149   63.3341 H   0  0  0  0  0  0  0  0  0  0  0  0
   -0.0174   66.5548   65.0573 H   0  0  0  0  0  0  0  0  0  0  0  0
   -0.2718   67.0856   66.7592 H   0  0  0  0  0  0  0  0  0  0  0  0
    0.1857   69.4166   65.4026 H   0  0  0  0  0  0  0  0  0  0  0  0
    1.0764   69.8352   63.7490 H   0  0  0  0  0  0  0  0  0  0  0  0
    0.9122   68.6598   62.4007 H   0  0  0  0  0  0  0  0  0  0  0  0
   -0.0627   70.1685   62.4007 H   0  0  0  0  0  0  0  0  0  0  0  0
   -1.6831   69.1774   63.5851 H   0  0  0  0  0  0  0  0  0  0  0  0
   -0.7459   67.6228   63.4476 H   0  0  0  0  0  0  0  0  0  0  0  0
   -1.2629   69.8892   66.8502 H   0  0  0  0  0  0  0  0  0  0  0  0
   -2.4291   69.5146   65.5166 H   0  0  0  0  0  0  0  0  0  0  0  0
   -2.0970   68.1862   68.0446 H   0  0  0  0  0  0  0  0  0  0  0  0
   -3.2718   67.8443   66.7294 H   0  0  0  0  0  0  0  0  0  0  0  0
   -1.6648   67.0415   66.7294 H   0  0  0  0  0  0  0  0  0  0  0  0
  2  1  2  0
  3  1  1  0
  4  3  1  0
  5  4  2  0
  6  5  1  0
  7  5  1  0
  8  7  2  0
  9  8  1  0
 10  4  1  0
 10  9  2  0
 11 10  1  0
 12  1  1  0
 13 12  1  0
 15 14  1  0
 15 13  1  0
 16 13  1  0
 17 16  1  0
  3 18  1  0
  6 19  1  0
  6 20  1  0
  6 21  1  0
  7 22  1  0
  8 23  1  0
  9 24  1  0
 11 25  1  0
 11 26  1  0
 11 27  1  0
 12 28  1  0
 12 29  1  0
 13 30  1  0
 14 31  1  0
 14 32  1  0
 14 33  1  0
 15 34  1  0
 15 35  1  0
 16 36  1  0
 16 37  1  0
 17 38  1  0
 17 39  1  0
 17 40  1  0
M  CHG  1  13   1
M  END
>  <score>  (3) 
-8.238

$$$$
=
     RDKit          3D

 40 40  0  0  0  0  0  0  0  0999 V2000
    2.2870   67.7020   65.2370 C   0  0  0  0  0  0  0  0  0  0  0  0
    2.2980   66.7730   66.0440 O   0  0  0  0  0  0  0  0  0  0  0  0
    2.7080   69.0000   65.4350 N   0  0  0  0  0  0  0  0  0  0  0  0
    3.2930   69.5050   66.6280 C   0  0  0  0  0  0  0  0  0  0  0  0
    4.6930   69.7290   66.6200 C   0  0  0  0  0  0  0  0  0  0  0  0
    5.5580   69.4590   65.4150 C   0  0  0  0  0  0  0  0  0  0  0  0
    5.3200   70.2580   67.7610 C   0  0  0  0  0  0  0  0  0  0  0  0
    4.5860   70.5540   68.9010 C   0  0  0  0  0  0  0  0  0  0  0  0
    3.2220   70.2910   68.9280 C   0  0  0  0  0  0  0  0  0  0  0  0
    2.5620   69.7350   67.8150 C   0  0  0  0  0  0  0  0  0  0  0  0
    1.1150   69.3770   68.0210 C   0  0  0  0  0  0  0  0  0  0  0  0
    1.7210   67.4260   63.8400 C   0  0  0  0  0  0  0  0  0  0  0  0
    1.6350   68.7360   63.0360 N   0  0  0  0  0  4  0  0  0  0  0  0
    3.8950   68.2250   62.0370 C   0  0  0  0  0  0  0  0  0  0  0  0
    2.4830   68.7220   61.7820 C   0  0  0  0  0  0  0  0  0  0  0  0
    0.2290   69.2590   62.9120 C   0  0  0  0  0  0  0  0  0  0  0  0
   -0.0090   69.8870   61.5520 C   0  0  0  0  0  0  0  0  0  0  0  0
    2.5885   69.6591   64.6526 H   0  0  0  0  0  0  0  0  0  0  0  0
    6.5596   69.1464   65.7453 H   0  0  0  0  0  0  0  0  0  0  0  0
    5.1051   68.6595   64.8103 H   0  0  0  0  0  0  0  0  0  0  0  0
    5.6404   70.3742   64.8103 H   0  0  0  0  0  0  0  0  0  0  0  0
    6.4049   70.4395   67.7504 H   0  0  0  0  0  0  0  0  0  0  0  0
    5.0816   70.9946   69.7787 H   0  0  0  0  0  0  0  0  0  0  0  0
    2.6463   70.5216   69.8365 H   0  0  0  0  0  0  0  0  0  0  0  0
    0.9002   69.3239   69.0985 H   0  0  0  0  0  0  0  0  0  0  0  0
    0.4778   70.1446   67.5575 H   0  0  0  0  0  0  0  0  0  0  0  0
    0.9092   68.4009   67.5575 H   0  0  0  0  0  0  0  0  0  0  0  0
    2.3791   66.7188   63.3140 H   0  0  0  0  0  0  0  0  0  0  0  0
    0.7129   66.9969   63.9382 H   0  0  0  0  0  0  0  0  0  0  0  0
    2.0915   69.4720   63.5936 H   0  0  0  0  0  0  0  0  0  0  0  0
    4.0717   68.1628   63.1209 H   0  0  0  0  0  0  0  0  0  0  0  0
    4.0199   67.2289   61.5874 H   0  0  0  0  0  0  0  0  0  0  0  0
    4.6163   68.9233   61.5874 H   0  0  0  0  0  0  0  0  0  0  0  0
    2.5366   69.7451   61.3816 H   0  0  0  0  0  0  0  0  0  0  0  0
    2.0106   68.0311   61.0682 H   0  0  0  0  0  0  0  0  0  0  0  0
   -0.4763   68.4262   63.0502 H   0  0  0  0  0  0  0  0  0  0  0  0
    0.0771   70.0304   63.6813 H   0  0  0  0  0  0  0  0  0  0  0  0
   -0.3961   70.9084   61.6824 H   0  0  0  0  0  0  0  0  0  0  0  0
    0.9381   69.9223   60.9936 H   0  0  0  0  0  0  0  0  0  0  0  0
   -0.7416   69.2858   60.9936 H   0  0  0  0  0  0  0  0  0  0  0  0
  2  1  2  0
  3  1  1  0
  4  3  1  0
  5  4  2  0
  6  5  1  0
  7  5  1  0
  8  7  2  0
  9  8  1  0
 10  4  1  0
 10  9  2  0
 11 10  1  0
 12  1  1  0
 13 12  1  0
 15 14  1  0
 15 13  1  0
 16 13  1  0
 17 16  1  0
  3 18  1  0
  6 19  1  0
  6 20  1  0
  6 21  1  0
  7 22  1  0
  8 23  1  0
  9 24  1  0
 11 25  1  0
 11 26  1  0
 11 27  1  0
 12 28  1  0
 12 29  1  0
 13 30  1  0
 14 31  1  0
 14 32  1  0
 14 33  1  0
 15 34  1  0
 15 35  1  0
 16 36  1  0
 16 37  1  0
 17 38  1  0
 17 39  1  0
 17 40  1  0
M  CHG  1  13   1
M  END
>  <score>  (4) 
-8.096

$$$$
=
     RDKit          3D

 40 40  0  0  0  0  0  0  0  0999 V2000
    1.5320   67.9330   66.6060 C   0  0  0  0  0  0  0  0  0  0  0  0
    1.9180   66.7740   66.4620 O   0  0  0  0  0  0  0  0  0  0  0  0
    1.9880   69.0630   65.9590 N   0  0  0  0  0  0  0  0  0  0  0  0
    2.9810   69.0880   64.9440 C   0  0  0  0  0  0  0  0  0  0  0  0
    2.5830   68.7080   63.6360 C   0  0  0  0  0  0  0  0  0  0  0  0
    1.1750   68.2920   63.2990 C   0  0  0  0  0  0  0  0  0  0  0  0
    3.5170   68.7450   62.5860 C   0  0  0  0  0  0  0  0  0  0  0  0
    4.8280   69.1390   62.8160 C   0  0  0  0  0  0  0  0  0  0  0  0
    5.2320   69.4670   64.1040 C   0  0  0  0  0  0  0  0  0  0  0  0
    4.3340   69.4150   65.1880 C   0  0  0  0  0  0  0  0  0  0  0  0
    4.9300   69.6630   66.5470 C   0  0  0  0  0  0  0  0  0  0  0  0
    0.4310   68.1950   67.6390 C   0  0  0  0  0  0  0  0  0  0  0  0
   -0.3430   66.8950   67.9260 N   0  0  0  0  0  4  0  0  0  0  0  0
    1.1880   66.4870   69.8900 C   0  0  0  0  0  0  0  0  0  0  0  0
   -0.2370   66.4460   69.3680 C   0  0  0  0  0  0  0  0  0  0  0  0
   -1.7090   66.8710   67.2950 C   0  0  0  0  0  0  0  0  0  0  0  0
   -2.0990   68.2390   66.7680 C   0  0  0  0  0  0  0  0  0  0  0  0
    1.5733   69.9644   66.2354 H   0  0  0  0  0  0  0  0  0  0  0  0
    0.6098   68.1250   64.2278 H   0  0  0  0  0  0  0  0  0  0  0  0
    0.6890   69.0849   62.7116 H   0  0  0  0  0  0  0  0  0  0  0  0
    1.1980   67.3623   62.7116 H   0  0  0  0  0  0  0  0  0  0  0  0
    3.2054   68.4585   61.5707 H   0  0  0  0  0  0  0  0  0  0  0  0
    5.5436   69.1913   61.9823 H   0  0  0  0  0  0  0  0  0  0  0  0
    6.2736   69.7733   64.2809 H   0  0  0  0  0  0  0  0  0  0  0  0
    4.2104   69.3636   67.3232 H   0  0  0  0  0  0  0  0  0  0  0  0
    5.8527   69.0742   66.6557 H   0  0  0  0  0  0  0  0  0  0  0  0
    5.1627   70.7326   66.6557 H   0  0  0  0  0  0  0  0  0  0  0  0
    0.8859   68.5613   68.5711 H   0  0  0  0  0  0  0  0  0  0  0  0
   -0.2646   68.9488   67.2416 H   0  0  0  0  0  0  0  0  0  0  0  0
    0.1378   66.1321   67.4284 H   0  0  0  0  0  0  0  0  0  0  0  0
    1.1757   66.4866   70.9899 H   0  0  0  0  0  0  0  0  0  0  0  0
    1.7362   65.6043   69.5291 H   0  0  0  0  0  0  0  0  0  0  0  0
    1.6846   67.3998   69.5291 H   0  0  0  0  0  0  0  0  0  0  0  0
   -0.6102   65.4140   69.4438 H   0  0  0  0  0  0  0  0  0  0  0  0
   -0.8347   67.1399   69.9773 H   0  0  0  0  0  0  0  0  0  0  0  0
   -1.7055   66.1538   66.4610 H   0  0  0  0  0  0  0  0  0  0  0  0
   -2.4396   66.5741   68.0619 H   0  0  0  0  0  0  0  0  0  0  0  0
   -2.2920   68.9161   67.6131 H   0  0  0  0  0  0  0  0  0  0  0  0
   -1.2801   68.6427   66.1544 H   0  0  0  0  0  0  0  0  0  0  0  0
   -3.0076   68.1502   66.1544 H   0  0  0  0  0  0  0  0  0  0  0  0
  2  1  2  0
  3  1  1  0
  4  3  1  0
  5  4  2  0
  6  5  1  0
  7  5  1  0
  8  7  2  0
  9  8  1  0
 10  4  1  0
 10  9  2  0
 11 10  1  0
 12  1  1  0
 13 12  1  0
 15 14  1  0
 15 13  1  0
 16 13  1  0
 17 16  1  0
  3 18  1  0
  6 19  1  0
  6 20  1  0
  6 21  1  0
  7 22  1  0
  8 23  1  0
  9 24  1  0
 11 25  1  0
 11 26  1  0
 11 27  1  0
 12 28  1  0
 12 29  1  0
 13 30  1  0
 14 31  1  0
 14 32  1  0
 14 33  1  0
 15 34  1  0
 15 35  1  0
 16 36  1  0
 16 37  1  0
 17 38  1  0
 17 39  1  0
 17 40  1  0
M  CHG  1  13   1
M  END
>  <score>  (5) 
-8.038

$$$$
=
     RDKit          3D

 40 40  0  0  0  0  0  0  0  0999 V2000
    2.2100   67.6690   65.4800 C   0  0  0  0  0  0  0  0  0  0  0  0
    2.2420   66.7730   66.3240 O   0  0  0  0  0  0  0  0  0  0  0  0
    2.6410   68.9710   65.6130 N   0  0  0  0  0  0  0  0  0  0  0  0
    3.2650   69.5210   66.7650 C   0  0  0  0  0  0  0  0  0  0  0  0
    2.4290   69.8450   67.8640 C   0  0  0  0  0  0  0  0  0  0  0  0
    0.9370   69.6290   67.8480 C   0  0  0  0  0  0  0  0  0  0  0  0
    2.9950   70.3620   69.0410 C   0  0  0  0  0  0  0  0  0  0  0  0
    4.3640   70.5680   69.1390 C   0  0  0  0  0  0  0  0  0  0  0  0
    5.1800   70.2940   68.0480 C   0  0  0  0  0  0  0  0  0  0  0  0
    4.6470   69.8040   66.8410 C   0  0  0  0  0  0  0  0  0  0  0  0
    5.6170   69.6770   65.6970 C   0  0  0  0  0  0  0  0  0  0  0  0
    1.5990   67.3380   64.1140 C   0  0  0  0  0  0  0  0  0  0  0  0
    1.6020   68.5900   63.2180 N   0  0  0  0  0  4  0  0  0  0  0  0
    3.9600   68.8170   62.3480 C   0  0  0  0  0  0  0  0  0  0  0  0
    2.5210   68.4630   62.0210 C   0  0  0  0  0  0  0  0  0  0  0  0
    0.2240   69.1430   62.9740 C   0  0  0  0  0  0  0  0  0  0  0  0
    0.1280   69.8090   61.6140 C   0  0  0  0  0  0  0  0  0  0  0  0
    2.4988   69.5989   64.8090 H   0  0  0  0  0  0  0  0  0  0  0  0
    0.5632   69.5749   68.8811 H   0  0  0  0  0  0  0  0  0  0  0  0
    0.4509   70.4661   67.3256 H   0  0  0  0  0  0  0  0  0  0  0  0
    0.7083   68.6884   67.3256 H   0  0  0  0  0  0  0  0  0  0  0  0
    2.3459   70.6064   69.8947 H   0  0  0  0  0  0  0  0  0  0  0  0
    4.8007   70.9461   70.0751 H   0  0  0  0  0  0  0  0  0  0  0  0
    6.2638   70.4634   68.1293 H   0  0  0  0  0  0  0  0  0  0  0  0
    6.6348   69.5437   66.0924 H   0  0  0  0  0  0  0  0  0  0  0  0
    5.3459   68.8067   65.0813 H   0  0  0  0  0  0  0  0  0  0  0  0
    5.5791   70.5878   65.0813 H   0  0  0  0  0  0  0  0  0  0  0  0
    2.1901   66.5447   63.6332 H   0  0  0  0  0  0  0  0  0  0  0  0
    0.5625   66.9977   64.2552 H   0  0  0  0  0  0  0  0  0  0  0  0
    2.0485   69.3505   63.7502 H   0  0  0  0  0  0  0  0  0  0  0  0
    4.0907   68.8491   63.4397 H   0  0  0  0  0  0  0  0  0  0  0  0
    4.6307   68.0571   61.9206 H   0  0  0  0  0  0  0  0  0  0  0  0
    4.2016   69.8014   61.9206 H   0  0  0  0  0  0  0  0  0  0  0  0
    2.1635   69.1381   61.2295 H   0  0  0  0  0  0  0  0  0  0  0  0
    2.5024   67.4118   61.6976 H   0  0  0  0  0  0  0  0  0  0  0  0
   -0.5053   68.3210   63.0223 H   0  0  0  0  0  0  0  0  0  0  0  0
    0.0123   69.8982   63.7452 H   0  0  0  0  0  0  0  0  0  0  0  0
   -0.0278   70.8900   61.7453 H   0  0  0  0  0  0  0  0  0  0  0  0
    1.0601   69.6381   61.0554 H   0  0  0  0  0  0  0  0  0  0  0  0
   -0.7178   69.3818   61.0554 H   0  0  0  0  0  0  0  0  0  0  0  0
  2  1  2  0
  3  1  1  0
  4  3  1  0
  5  4  2  0
  6  5  1  0
  7  5  1  0
  8  7  2  0
  9  8  1  0
 10  4  1  0
 10  9  2  0
 11 10  1  0
 12  1  1  0
 13 12  1  0
 15 14  1  0
 15 13  1  0
 16 13  1  0
 17 16  1  0
  3 18  1  0
  6 19  1  0
  6 20  1  0
  6 21  1  0
  7 22  1  0
  8 23  1  0
  9 24  1  0
 11 25  1  0
 11 26  1  0
 11 27  1  0
 12 28  1  0
 12 29  1  0
 13 30  1  0
 14 31  1  0
 14 32  1  0
 14 33  1  0
 15 34  1  0
 15 35  1  0
 16 36  1  0
 16 37  1  0
 17 38  1  0
 17 39  1  0
 17 40  1  0
M  CHG  1  13   1
M  END
>  <score>  (6) 
-8.021

$$$$
=
     RDKit          3D

 40 40  0  0  0  0  0  0  0  0999 V2000
    1.7530   67.6530   65.9430 C   0  0  0  0  0  0  0  0  0  0  0  0
    2.2650   66.7190   66.5610 O   0  0  0  0  0  0  0  0  0  0  0  0
    2.2390   68.9330   65.7900 N   0  0  0  0  0  0  0  0  0  0  0  0
    3.4810   69.4100   66.2900 C   0  0  0  0  0  0  0  0  0  0  0  0
    4.5790   69.4280   65.3920 C   0  0  0  0  0  0  0  0  0  0  0  0
    4.4710   68.9730   63.9590 C   0  0  0  0  0  0  0  0  0  0  0  0
    5.8230   69.9190   65.8230 C   0  0  0  0  0  0  0  0  0  0  0  0
    5.9930   70.3780   67.1220 C   0  0  0  0  0  0  0  0  0  0  0  0
    4.9320   70.3180   68.0170 C   0  0  0  0  0  0  0  0  0  0  0  0
    3.6780   69.8060   67.6320 C   0  0  0  0  0  0  0  0  0  0  0  0
    2.6580   69.6720   68.7290 C   0  0  0  0  0  0  0  0  0  0  0  0
    0.3970   67.4040   65.2730 C   0  0  0  0  0  0  0  0  0  0  0  0
   -0.3530   68.7360   65.0910 N   0  0  0  0  0  4  0  0  0  0  0  0
    0.3950   68.8190   62.6820 C   0  0  0  0  0  0  0  0  0  0  0  0
   -0.7560   69.0010   63.6560 C   0  0  0  0  0  0  0  0  0  0  0  0
   -1.3910   68.9780   66.1540 C   0  0  0  0  0  0  0  0  0  0  0  0
   -1.7620   67.6910   66.8670 C   0  0  0  0  0  0  0  0  0  0  0  0
    1.6527   69.6008   65.2692 H   0  0  0  0  0  0  0  0  0  0  0  0
    4.2170   67.9031   63.9322 H   0  0  0  0  0  0  0  0  0  0  0  0
    3.6847   69.5494   63.4496 H   0  0  0  0  0  0  0  0  0  0  0  0
    5.4324   69.1345   63.4496 H   0  0  0  0  0  0  0  0  0  0  0  0
    6.6715   69.9399   65.1233 H   0  0  0  0  0  0  0  0  0  0  0  0
    6.9629   70.7872   67.4412 H   0  0  0  0  0  0  0  0  0  0  0  0
    5.0744   70.6776   69.0468 H   0  0  0  0  0  0  0  0  0  0  0  0
    3.1594   69.7379   69.7059 H   0  0  0  0  0  0  0  0  0  0  0  0
    1.9173   70.4806   68.6417 H   0  0  0  0  0  0  0  0  0  0  0  0
    2.1513   68.6996   68.6417 H   0  0  0  0  0  0  0  0  0  0  0  0
    0.5568   66.9386   64.2892 H   0  0  0  0  0  0  0  0  0  0  0  0
   -0.2026   66.7360   65.9088 H   0  0  0  0  0  0  0  0  0  0  0  0
    0.3194   69.4958   65.2682 H   0  0  0  0  0  0  0  0  0  0  0  0
    1.3298   68.6712   63.2426 H   0  0  0  0  0  0  0  0  0  0  0  0
    0.2041   67.9399   62.0490 H   0  0  0  0  0  0  0  0  0  0  0  0
    0.4847   69.7141   62.0490 H   0  0  0  0  0  0  0  0  0  0  0  0
   -1.1227   70.0352   63.5785 H   0  0  0  0  0  0  0  0  0  0  0  0
   -1.5358   68.2724   63.3894 H   0  0  0  0  0  0  0  0  0  0  0  0
   -0.9912   69.6921   66.8890 H   0  0  0  0  0  0  0  0  0  0  0  0
   -2.2942   69.3799   65.6716 H   0  0  0  0  0  0  0  0  0  0  0  0
   -1.7167   67.8483   67.9548 H   0  0  0  0  0  0  0  0  0  0  0  0
   -2.7821   67.3946   66.5816 H   0  0  0  0  0  0  0  0  0  0  0  0
   -1.0561   66.8971   66.5816 H   0  0  0  0  0  0  0  0  0  0  0  0
  2  1  2  0
  3  1  1  0
  4  3  1  0
  5  4  2  0
  6  5  1  0
  7  5  1  0
  8  7  2  0
  9  8  1  0
 10  4  1  0
 10  9  2  0
 11 10  1  0
 12  1  1  0
 13 12  1  0
 15 14  1  0
 15 13  1  0
 16 13  1  0
 17 16  1  0
  3 18  1  0
  6 19  1  0
  6 20  1  0
  6 21  1  0
  7 22  1  0
  8 23  1  0
  9 24  1  0
 11 25  1  0
 11 26  1  0
 11 27  1  0
 12 28  1  0
 12 29  1  0
 13 30  1  0
 14 31  1  0
 14 32  1  0
 14 33  1  0
 15 34  1  0
 15 35  1  0
 16 36  1  0
 16 37  1  0
 17 38  1  0
 17 39  1  0
 17 40  1  0
M  CHG  1  13   1
M  END
>  <score>  (7) 
-7.874

$$$$
=
     RDKit          3D

 40 40  0  0  0  0  0  0  0  0999 V2000
    0.7940   67.9380   65.7370 C   0  0  0  0  0  0  0  0  0  0  0  0
    1.0030   66.7390   65.5530 O   0  0  0  0  0  0  0  0  0  0  0  0
    1.3630   69.0070   65.0780 N   0  0  0  0  0  0  0  0  0  0  0  0
    2.2850   68.9160   64.0000 C   0  0  0  0  0  0  0  0  0  0  0  0
    1.7480   68.7300   62.7000 C   0  0  0  0  0  0  0  0  0  0  0  0
    0.2670   68.6310   62.4340 C   0  0  0  0  0  0  0  0  0  0  0  0
    2.6110   68.6660   61.5930 C   0  0  0  0  0  0  0  0  0  0  0  0
    3.9850   68.7720   61.7570 C   0  0  0  0  0  0  0  0  0  0  0  0
    4.5160   68.9080   63.0340 C   0  0  0  0  0  0  0  0  0  0  0  0
    3.6870   68.9470   64.1710 C   0  0  0  0  0  0  0  0  0  0  0  0
    4.3930   68.9610   65.4990 C   0  0  0  0  0  0  0  0  0  0  0  0
   -0.1920   68.3270   66.8430 C   0  0  0  0  0  0  0  0  0  0  0  0
    0.5720   68.6780   68.1330 N   0  0  0  0  0  4  0  0  0  0  0  0
    0.2120   66.5250   69.4000 C   0  0  0  0  0  0  0  0  0  0  0  0
    1.2230   67.4760   68.7840 C   0  0  0  0  0  0  0  0  0  0  0  0
    1.4020   69.9260   68.0050 C   0  0  0  0  0  0  0  0  0  0  0  0
    2.7930   69.7270   68.5770 C   0  0  0  0  0  0  0  0  0  0  0  0
    1.0977   69.9510   65.3933 H   0  0  0  0  0  0  0  0  0  0  0  0
   -0.2756   68.5947   63.3901 H   0  0  0  0  0  0  0  0  0  0  0  0
   -0.0618   69.5092   61.8589 H   0  0  0  0  0  0  0  0  0  0  0  0
    0.0581   67.7169   61.8589 H   0  0  0  0  0  0  0  0  0  0  0  0
    2.1927   68.5303   60.5847 H   0  0  0  0  0  0  0  0  0  0  0  0
    4.6500   68.7485   60.8811 H   0  0  0  0  0  0  0  0  0  0  0  0
    5.6061   68.9868   63.1588 H   0  0  0  0  0  0  0  0  0  0  0  0
    3.6496   68.9463   66.3096 H   0  0  0  0  0  0  0  0  0  0  0  0
    5.0407   68.0755   65.5793 H   0  0  0  0  0  0  0  0  0  0  0  0
    5.0051   69.8715   65.5793 H   0  0  0  0  0  0  0  0  0  0  0  0
   -0.7776   69.1996   66.5180 H   0  0  0  0  0  0  0  0  0  0  0  0
   -0.8635   67.4787   67.0416 H   0  0  0  0  0  0  0  0  0  0  0  0
   -0.1245   68.9537   68.8400 H   0  0  0  0  0  0  0  0  0  0  0  0
    0.2743   66.5836   70.4967 H   0  0  0  0  0  0  0  0  0  0  0  0
   -0.8007   66.8054   69.0748 H   0  0  0  0  0  0  0  0  0  0  0  0
    0.4300   65.4970   69.0748 H   0  0  0  0  0  0  0  0  0  0  0  0
    1.9020   67.8284   69.5744 H   0  0  0  0  0  0  0  0  0  0  0  0
    1.7633   66.9250   68.0001 H   0  0  0  0  0  0  0  0  0  0  0  0
    1.4872   70.1915   66.9409 H   0  0  0  0  0  0  0  0  0  0  0  0
    0.9074   70.7301   68.5696 H   0  0  0  0  0  0  0  0  0  0  0  0
    2.7421   69.7343   69.6758 H   0  0  0  0  0  0  0  0  0  0  0  0
    3.1955   68.7621   68.2350 H   0  0  0  0  0  0  0  0  0  0  0  0
    3.4499   70.5403   68.2350 H   0  0  0  0  0  0  0  0  0  0  0  0
  2  1  2  0
  3  1  1  0
  4  3  1  0
  5  4  2  0
  6  5  1  0
  7  5  1  0
  8  7  2  0
  9  8  1  0
 10  4  1  0
 10  9  2  0
 11 10  1  0
 12  1  1  0
 13 12  1  0
 15 14  1  0
 15 13  1  0
 16 13  1  0
 17 16  1  0
  3 18  1  0
  6 19  1  0
  6 20  1  0
  6 21  1  0
  7 22  1  0
  8 23  1  0
  9 24  1  0
 11 25  1  0
 11 26  1  0
 11 27  1  0
 12 28  1  0
 12 29  1  0
 13 30  1  0
 14 31  1  0
 14 32  1  0
 14 33  1  0
 15 34  1  0
 15 35  1  0
 16 36  1  0
 16 37  1  0
 17 38  1  0
 17 39  1  0
 17 40  1  0
M  CHG  1  13   1
M  END
>  <score>  (8) 
-7.401

$$$$
=
     RDKit          3D

 40 40  0  0  0  0  0  0  0  0999 V2000
    2.6610   68.4060   64.6840 C   0  0  0  0  0  0  0  0  0  0  0  0
    2.1110   69.4380   64.3010 O   0  0  0  0  0  0  0  0  0  0  0  0
    3.3430   68.1980   65.8640 N   0  0  0  0  0  0  0  0  0  0  0  0
    3.4980   69.1520   66.9060 C   0  0  0  0  0  0  0  0  0  0  0  0
    2.3790   69.3850   67.7450 C   0  0  0  0  0  0  0  0  0  0  0  0
    1.0640   68.6690   67.5730 C   0  0  0  0  0  0  0  0  0  0  0  0
    2.4850   70.2940   68.8120 C   0  0  0  0  0  0  0  0  0  0  0  0
    3.6720   70.9750   69.0480 C   0  0  0  0  0  0  0  0  0  0  0  0
    4.7550   70.7830   68.1990 C   0  0  0  0  0  0  0  0  0  0  0  0
    4.6790   69.9030   67.1030 C   0  0  0  0  0  0  0  0  0  0  0  0
    5.8730   69.8890   66.1870 C   0  0  0  0  0  0  0  0  0  0  0  0
    2.6250   67.1910   63.7510 C   0  0  0  0  0  0  0  0  0  0  0  0
    4.0580   66.7310   63.4270 N   0  0  0  0  0  4  0  0  0  0  0  0
    3.3800   64.6190   64.6300 C   0  0  0  0  0  0  0  0  0  0  0  0
    4.2430   65.2330   63.5420 C   0  0  0  0  0  0  0  0  0  0  0  0
    4.6330   67.4050   62.2100 C   0  0  0  0  0  0  0  0  0  0  0  0
    5.5500   68.5500   62.5940 C   0  0  0  0  0  0  0  0  0  0  0  0
    3.7765   67.2739   66.0019 H   0  0  0  0  0  0  0  0  0  0  0  0
    0.6401   68.4382   68.5615 H   0  0  0  0  0  0  0  0  0  0  0  0
    0.3666   69.3119   67.0160 H   0  0  0  0  0  0  0  0  0  0  0  0
    1.2255   67.7343   67.0160 H   0  0  0  0  0  0  0  0  0  0  0  0
    1.6185   70.4677   69.4670 H   0  0  0  0  0  0  0  0  0  0  0  0
    3.7544   71.6628   69.9025 H   0  0  0  0  0  0  0  0  0  0  0  0
    5.6908   71.3298   68.3872 H   0  0  0  0  0  0  0  0  0  0  0  0
    6.7951   69.8782   66.7867 H   0  0  0  0  0  0  0  0  0  0  0  0
    5.8378   68.9912   65.5524 H   0  0  0  0  0  0  0  0  0  0  0  0
    5.8588   70.7874   65.5524 H   0  0  0  0  0  0  0  0  0  0  0  0
    2.0818   66.3705   64.2427 H   0  0  0  0  0  0  0  0  0  0  0  0
    2.1159   67.4693   62.8164 H   0  0  0  0  0  0  0  0  0  0  0  0
    4.6712   67.0803   64.1773 H   0  0  0  0  0  0  0  0  0  0  0  0
    3.7771   64.9015   65.6161 H   0  0  0  0  0  0  0  0  0  0  0  0
    2.3482   64.9871   64.5310 H   0  0  0  0  0  0  0  0  0  0  0  0
    3.3895   63.5235   64.5310 H   0  0  0  0  0  0  0  0  0  0  0  0
    5.2987   65.0251   63.7706 H   0  0  0  0  0  0  0  0  0  0  0  0
    3.9391   64.7857   62.5841 H   0  0  0  0  0  0  0  0  0  0  0  0
    5.2056   66.6671   61.6290 H   0  0  0  0  0  0  0  0  0  0  0  0
    3.8025   67.8111   61.6139 H   0  0  0  0  0  0  0  0  0  0  0  0
    5.6076   68.6219   63.6901 H   0  0  0  0  0  0  0  0  0  0  0  0
    6.5549   68.3679   62.1852 H   0  0  0  0  0  0  0  0  0  0  0  0
    5.1528   69.4908   62.1852 H   0  0  0  0  0  0  0  0  0  0  0  0
  2  1  2  0
  3  1  1  0
  4  3  1  0
  5  4  2  0
  6  5  1  0
  7  5  1  0
  8  7  2  0
  9  8  1  0
 10  4  1  0
 10  9  2  0
 11 10  1  0
 12  1  1  0
 13 12  1  0
 15 14  1  0
 15 13  1  0
 16 13  1  0
 17 16  1  0
  3 18  1  0
  6 19  1  0
  6 20  1  0
  6 21  1  0
  7 22  1  0
  8 23  1  0
  9 24  1  0
 11 25  1  0
 11 26  1  0
 11 27  1  0
 12 28  1  0
 12 29  1  0
 13 30  1  0
 14 31  1  0
 14 32  1  0
 14 33  1  0
 15 34  1  0
 15 35  1  0
 16 36  1  0
 16 37  1  0
 17 38  1  0
 17 39  1  0
 17 40  1  0
M  CHG  1  13   1
M  END
>  <score>  (9) 
-7.358

$$$$
