=
     RDKit          3D

 45 49  0  0  0  0  0  0  0  0999 V2000
    0.8250   67.2330   68.1110 C   0  0  1  0  0  0  0  0  0  0  0  0
    0.5830   68.6440   68.3770 N   0  0  0  0  0  0  0  0  0  0  0  0
    1.3800   69.4590   67.6230 N   0  0  0  0  0  0  0  0  0  0  0  0
    2.2920   68.6940   67.1040 C   0  0  0  0  0  0  0  0  0  0  0  0
    2.1910   67.2300   67.4340 C   0  0  0  0  0  0  0  0  0  0  0  0
    3.3840   69.1770   66.2500 C   0  0  0  0  0  0  0  0  0  0  0  0
    4.4890   69.8220   66.8660 C   0  0  0  0  0  0  0  0  0  0  0  0
    4.5750   70.1150   68.2500 C   0  0  0  0  0  0  0  0  0  0  0  0
    5.6950   70.7410   68.7980 C   0  0  0  0  0  0  0  0  0  0  0  0
    6.7570   71.0950   67.9770 C   0  0  0  0  0  0  0  0  0  0  0  0
    6.6960   70.8270   66.6100 C   0  0  0  0  0  0  0  0  0  0  0  0
    5.5740   70.1980   66.0440 C   0  0  0  0  0  0  0  0  0  0  0  0
    5.5230   69.9390   64.6650 C   0  0  0  0  0  0  0  0  0  0  0  0
    4.4170   69.3190   64.0620 C   0  0  0  0  0  0  0  0  0  0  0  0
    3.3160   68.9290   64.8540 C   0  0  0  0  0  0  0  0  0  0  0  0
    2.2150   68.3200   64.2020 C   0  0  0  0  0  0  0  0  0  0  0  0
    2.2120   68.0940   62.8250 C   0  0  0  0  0  0  0  0  0  0  0  0
    3.3090   68.4750   62.0620 C   0  0  0  0  0  0  0  0  0  0  0  0
    4.4020   69.0840   62.6770 C   0  0  0  0  0  0  0  0  0  0  0  0
    1.6610   64.6430   70.7980 C   0  0  0  0  0  0  0  0  0  0  0  0
    0.6010   64.8170   71.6960 C   0  0  0  0  0  0  0  0  0  0  0  0
   -0.3750   65.7750   71.4260 C   0  0  0  0  0  0  0  0  0  0  0  0
   -0.2950   66.5530   70.2690 C   0  0  0  0  0  0  0  0  0  0  0  0
    0.7660   66.3940   69.3640 C   0  0  0  0  0  0  0  0  0  0  0  0
    1.7480   65.4240   69.6370 C   0  0  0  0  0  0  0  0  0  0  0  0
    3.8290   63.8320   70.6420 O   0  0  0  0  0  1  0  0  0  0  0  0
    2.6840   63.6280   71.0700 N   0  0  0  0  0  4  0  0  0  0  0  0
    2.3410   62.6210   71.7060 O   0  0  0  0  0  0  0  0  0  0  0  0
    0.0535   66.7738   67.4755 H   0  0  0  0  0  0  0  0  0  0  0  0
   -0.1102   68.9888   69.0563 H   0  0  0  0  0  0  0  0  0  0  0  0
    2.2027   66.6017   66.5311 H   0  0  0  0  0  0  0  0  0  0  0  0
    3.0167   66.8222   68.0356 H   0  0  0  0  0  0  0  0  0  0  0  0
    3.7375   69.8419   68.9088 H   0  0  0  0  0  0  0  0  0  0  0  0
    5.7364   70.9533   69.8765 H   0  0  0  0  0  0  0  0  0  0  0  0
    7.6442   71.5856   68.4037 H   0  0  0  0  0  0  0  0  0  0  0  0
    7.5396   71.1125   65.9643 H   0  0  0  0  0  0  0  0  0  0  0  0
    6.3773   70.2313   64.0367 H   0  0  0  0  0  0  0  0  0  0  0  0
    1.3403   68.0177   64.7966 H   0  0  0  0  0  0  0  0  0  0  0  0
    1.3449   67.6163   62.3456 H   0  0  0  0  0  0  0  0  0  0  0  0
    3.3150   68.2967   60.9766 H   0  0  0  0  0  0  0  0  0  0  0  0
    5.2668   69.3855   62.0678 H   0  0  0  0  0  0  0  0  0  0  0  0
    0.5389   64.2031   72.6066 H   0  0  0  0  0  0  0  0  0  0  0  0
   -1.2109   65.9186   72.1265 H   0  0  0  0  0  0  0  0  0  0  0  0
   -1.0748   67.3012   70.0640 H   0  0  0  0  0  0  0  0  0  0  0  0
    2.5852   65.2783   68.9385 H   0  0  0  0  0  0  0  0  0  0  0  0
  2  1  1  0
  3  2  1  0
  4  3  2  0
  5  4  1  0
  5  1  1  0
  6  4  1  0
  7  6  1  0
  8  7  2  0
  9  8  1  0
 10  9  2  0
 11 10  1  0
 12  7  1  0
 12 11  2  0
 13 12  1  0
 14 13  2  0
 15 14  1  0
 15  6  2  0
 16 15  1  0
 17 16  2  0
 18 17  1  0
 19 18  2  0
 19 14  1  0
 21 20  2  0
 22 21  1  0
 23 22  2  0
 24 23  1  0
 24  1  1  0
 25 20  1  0
 25 24  2  0
 27 26  1  0
 27 20  1  0
 28 27  2  0
  1 29  1  6
  2 30  1  0
  5 31  1  0
  5 32  1  0
  8 33  1  0
  9 34  1  0
 10 35  1  0
 11 36  1  0
 13 37  1  0
 16 38  1  0
 17 39  1  0
 18 40  1  0
 19 41  1  0
 21 42  1  0
 22 43  1  0
 23 44  1  0
 25 45  1  0
M  CHG  2  26  -1  27   1
M  END
>  <score>  (1) 
-11.539

$$$$
=
     RDKit          3D

 45 49  0  0  0  0  0  0  0  0999 V2000
    0.6470   66.8040   69.5630 C   0  0  1  0  0  0  0  0  0  0  0  0
   -0.3110   65.7870   69.1510 N   0  0  0  0  0  0  0  0  0  0  0  0
   -0.1790   64.6300   69.8670 N   0  0  0  0  0  0  0  0  0  0  0  0
    0.9480   64.7260   70.5050 C   0  0  0  0  0  0  0  0  0  0  0  0
    1.7100   66.0070   70.3100 C   0  0  0  0  0  0  0  0  0  0  0  0
    1.4980   63.6730   71.3680 C   0  0  0  0  0  0  0  0  0  0  0  0
    2.3790   62.7190   70.7920 C   0  0  0  0  0  0  0  0  0  0  0  0
    2.6990   62.6560   69.4130 C   0  0  0  0  0  0  0  0  0  0  0  0
    3.5830   61.7010   68.9100 C   0  0  0  0  0  0  0  0  0  0  0  0
    4.1660   60.7800   69.7700 C   0  0  0  0  0  0  0  0  0  0  0  0
    3.8620   60.8130   71.1300 C   0  0  0  0  0  0  0  0  0  0  0  0
    2.9730   61.7690   71.6510 C   0  0  0  0  0  0  0  0  0  0  0  0
    2.6700   61.7870   73.0230 C   0  0  0  0  0  0  0  0  0  0  0  0
    1.7830   62.7220   73.5790 C   0  0  0  0  0  0  0  0  0  0  0  0
    1.1720   63.6860   72.7500 C   0  0  0  0  0  0  0  0  0  0  0  0
    0.2710   64.6010   73.3500 C   0  0  0  0  0  0  0  0  0  0  0  0
   -0.0010   64.5690   74.7190 C   0  0  0  0  0  0  0  0  0  0  0  0
    0.6170   63.6200   75.5220 C   0  0  0  0  0  0  0  0  0  0  0  0
    1.5010   62.7020   74.9550 C   0  0  0  0  0  0  0  0  0  0  0  0
    1.4320   67.9470   65.9990 C   0  0  0  0  0  0  0  0  0  0  0  0
    2.2450   69.0630   66.2320 C   0  0  0  0  0  0  0  0  0  0  0  0
    2.5310   69.4380   67.5450 C   0  0  0  0  0  0  0  0  0  0  0  0
    2.0090   68.7070   68.6150 C   0  0  0  0  0  0  0  0  0  0  0  0
    1.1870   67.5910   68.3930 C   0  0  0  0  0  0  0  0  0  0  0  0
    0.9030   67.2120   67.0680 C   0  0  0  0  0  0  0  0  0  0  0  0
    0.4700   68.3130   63.9190 O   0  0  0  0  0  1  0  0  0  0  0  0
    1.1390   67.5400   64.6200 N   0  0  0  0  0  4  0  0  0  0  0  0
    1.5710   66.4430   64.2400 O   0  0  0  0  0  0  0  0  0  0  0  0
    0.2032   67.5857   70.1970 H   0  0  0  0  0  0  0  0  0  0  0  0
   -1.0082   65.9240   68.4053 H   0  0  0  0  0  0  0  0  0  0  0  0
    1.9805   66.4761   71.2675 H   0  0  0  0  0  0  0  0  0  0  0  0
    2.6772   65.9090   69.7953 H   0  0  0  0  0  0  0  0  0  0  0  0
    2.2391   63.3779   68.7221 H   0  0  0  0  0  0  0  0  0  0  0  0
    3.8173   61.6778   67.8355 H   0  0  0  0  0  0  0  0  0  0  0  0
    4.8657   60.0265   69.3793 H   0  0  0  0  0  0  0  0  0  0  0  0
    4.3251   60.0793   71.8062 H   0  0  0  0  0  0  0  0  0  0  0  0
    3.1431   61.0445   73.6825 H   0  0  0  0  0  0  0  0  0  0  0  0
   -0.2261   65.3547   72.7217 H   0  0  0  0  0  0  0  0  0  0  0  0
   -0.7023   65.2929   75.1597 H   0  0  0  0  0  0  0  0  0  0  0  0
    0.4102   63.5921   76.6020 H   0  0  0  0  0  0  0  0  0  0  0  0
    1.9851   61.9503   75.5957 H   0  0  0  0  0  0  0  0  0  0  0  0
    2.6540   69.6382   65.3883 H   0  0  0  0  0  0  0  0  0  0  0  0
    3.1698   70.3124   67.7384 H   0  0  0  0  0  0  0  0  0  0  0  0
    2.2454   69.0101   69.6456 H   0  0  0  0  0  0  0  0  0  0  0  0
    0.2650   66.3378   66.8713 H   0  0  0  0  0  0  0  0  0  0  0  0
  2  1  1  0
  3  2  1  0
  4  3  2  0
  5  4  1  0
  5  1  1  0
  6  4  1  0
  7  6  1  0
  8  7  2  0
  9  8  1  0
 10  9  2  0
 11 10  1  0
 12  7  1  0
 12 11  2  0
 13 12  1  0
 14 13  2  0
 15 14  1  0
 15  6  2  0
 16 15  1  0
 17 16  2  0
 18 17  1  0
 19 18  2  0
 19 14  1  0
 21 20  2  0
 22 21  1  0
 23 22  2  0
 24 23  1  0
 24  1  1  0
 25 20  1  0
 25 24  2  0
 27 26  1  0
 27 20  1  0
 28 27  2  0
  1 29  1  1
  2 30  1  0
  5 31  1  0
  5 32  1  0
  8 33  1  0
  9 34  1  0
 10 35  1  0
 11 36  1  0
 13 37  1  0
 16 38  1  0
 17 39  1  0
 18 40  1  0
 19 41  1  0
 21 42  1  0
 22 43  1  0
 23 44  1  0
 25 45  1  0
M  CHG  2  26  -1  27   1
M  END
>  <score>  (2) 
-11.066

$$$$
=
     RDKit          3D

 45 49  0  0  0  0  0  0  0  0999 V2000
    0.5040   66.7840   69.5240 C   0  0  1  0  0  0  0  0  0  0  0  0
   -0.3820   65.7080   69.1030 N   0  0  0  0  0  0  0  0  0  0  0  0
   -0.1620   64.5520   69.7970 N   0  0  0  0  0  0  0  0  0  0  0  0
    0.9600   64.7170   70.4280 C   0  0  0  0  0  0  0  0  0  0  0  0
    1.6280   66.0520   70.2500 C   0  0  0  0  0  0  0  0  0  0  0  0
    1.5910   63.6920   71.2700 C   0  0  0  0  0  0  0  0  0  0  0  0
    1.2350   63.6330   72.6440 C   0  0  0  0  0  0  0  0  0  0  0  0
    0.3740   64.5570   73.2870 C   0  0  0  0  0  0  0  0  0  0  0  0
    0.0530   64.4380   74.6390 C   0  0  0  0  0  0  0  0  0  0  0  0
    0.5860   63.3960   75.3860 C   0  0  0  0  0  0  0  0  0  0  0  0
    1.4440   62.4790   74.7810 C   0  0  0  0  0  0  0  0  0  0  0  0
    1.7770   62.5860   73.4190 C   0  0  0  0  0  0  0  0  0  0  0  0
    2.6470   61.6580   72.8240 C   0  0  0  0  0  0  0  0  0  0  0  0
    3.0080   61.7360   71.4700 C   0  0  0  0  0  0  0  0  0  0  0  0
    2.4840   62.7690   70.6640 C   0  0  0  0  0  0  0  0  0  0  0  0
    2.8870   62.8190   69.3070 C   0  0  0  0  0  0  0  0  0  0  0  0
    3.7620   61.8750   68.7670 C   0  0  0  0  0  0  0  0  0  0  0  0
    4.2600   60.8580   69.5710 C   0  0  0  0  0  0  0  0  0  0  0  0
    3.8870   60.7910   70.9130 C   0  0  0  0  0  0  0  0  0  0  0  0
    0.8090   68.3410   66.0440 C   0  0  0  0  0  0  0  0  0  0  0  0
    1.9130   69.1860   66.2080 C   0  0  0  0  0  0  0  0  0  0  0  0
    2.5490   69.2470   67.4480 C   0  0  0  0  0  0  0  0  0  0  0  0
    2.0870   68.4720   68.5140 C   0  0  0  0  0  0  0  0  0  0  0  0
    0.9770   67.6260   68.3640 C   0  0  0  0  0  0  0  0  0  0  0  0
    0.3390   67.5630   67.1110 C   0  0  0  0  0  0  0  0  0  0  0  0
   -1.0350   68.6400   64.6680 O   0  0  0  0  0  1  0  0  0  0  0  0
    0.1430   68.2620   64.7390 N   0  0  0  0  0  4  0  0  0  0  0  0
    0.7960   67.8160   63.7860 O   0  0  0  0  0  0  0  0  0  0  0  0
    0.0107   67.5221   70.1735 H   0  0  0  0  0  0  0  0  0  0  0  0
   -1.0941   65.8072   68.3654 H   0  0  0  0  0  0  0  0  0  0  0  0
    1.8725   66.5230   71.2135 H   0  0  0  0  0  0  0  0  0  0  0  0
    2.5955   66.0317   69.7271 H   0  0  0  0  0  0  0  0  0  0  0  0
   -0.0514   65.3882   72.7056 H   0  0  0  0  0  0  0  0  0  0  0  0
   -0.6206   65.1676   75.1122 H   0  0  0  0  0  0  0  0  0  0  0  0
    0.3321   63.2945   76.4515 H   0  0  0  0  0  0  0  0  0  0  0  0
    1.8674   61.6584   75.3787 H   0  0  0  0  0  0  0  0  0  0  0  0
    3.0587   60.8440   73.4388 H   0  0  0  0  0  0  0  0  0  0  0  0
    2.5006   63.6222   68.6623 H   0  0  0  0  0  0  0  0  0  0  0  0
    4.0560   61.9364   67.7088 H   0  0  0  0  0  0  0  0  0  0  0  0
    4.9462   60.1080   69.1507 H   0  0  0  0  0  0  0  0  0  0  0  0
    4.2872   59.9854   71.5461 H   0  0  0  0  0  0  0  0  0  0  0  0
    2.2754   69.7959   65.3673 H   0  0  0  0  0  0  0  0  0  0  0  0
    3.4174   69.9078   67.5867 H   0  0  0  0  0  0  0  0  0  0  0  0
    2.6005   68.5253   69.4853 H   0  0  0  0  0  0  0  0  0  0  0  0
   -0.5292   66.9026   66.9690 H   0  0  0  0  0  0  0  0  0  0  0  0
  2  1  1  0
  3  2  1  0
  4  3  2  0
  5  4  1  0
  5  1  1  0
  6  4  1  0
  7  6  1  0
  8  7  2  0
  9  8  1  0
 10  9  2  0
 11 10  1  0
 12  7  1  0
 12 11  2  0
 13 12  1  0
 14 13  2  0
 15 14  1  0
 15  6  2  0
 16 15  1  0
 17 16  2  0
 18 17  1  0
 19 18  2  0
 19 14  1  0
 21 20  2  0
 22 21  1  0
 23 22  2  0
 24 23  1  0
 24  1  1  0
 25 20  1  0
 25 24  2  0
 27 26  1  0
 27 20  1  0
 28 27  2  0
  1 29  1  1
  2 30  1  0
  5 31  1  0
  5 32  1  0
  8 33  1  0
  9 34  1  0
 10 35  1  0
 11 36  1  0
 13 37  1  0
 16 38  1  0
 17 39  1  0
 18 40  1  0
 19 41  1  0
 21 42  1  0
 22 43  1  0
 23 44  1  0
 25 45  1  0
M  CHG  2  26  -1  27   1
M  END
>  <score>  (3) 
-11.05

$$$$
=
     RDKit          3D

 45 49  0  0  0  0  0  0  0  0999 V2000
    0.8530   67.2710   68.0960 C   0  0  1  0  0  0  0  0  0  0  0  0
    0.6950   68.6890   68.3870 N   0  0  0  0  0  0  0  0  0  0  0  0
    1.5350   69.4680   67.6410 N   0  0  0  0  0  0  0  0  0  0  0  0
    2.3960   68.6600   67.1030 C   0  0  0  0  0  0  0  0  0  0  0  0
    2.2120   67.1990   67.4090 C   0  0  0  0  0  0  0  0  0  0  0  0
    3.5090   69.0920   66.2480 C   0  0  0  0  0  0  0  0  0  0  0  0
    3.4270   68.8400   64.8530 C   0  0  0  0  0  0  0  0  0  0  0  0
    2.3800   68.1150   64.2320 C   0  0  0  0  0  0  0  0  0  0  0  0
    2.3500   67.9100   62.8520 C   0  0  0  0  0  0  0  0  0  0  0  0
    3.3670   68.4200   62.0570 C   0  0  0  0  0  0  0  0  0  0  0  0
    4.4150   69.1290   62.6430 C   0  0  0  0  0  0  0  0  0  0  0  0
    4.4590   69.3420   64.0320 C   0  0  0  0  0  0  0  0  0  0  0  0
    5.5240   70.0530   64.6090 C   0  0  0  0  0  0  0  0  0  0  0  0
    5.6060   70.2810   65.9920 C   0  0  0  0  0  0  0  0  0  0  0  0
    4.5910   69.7930   66.8430 C   0  0  0  0  0  0  0  0  0  0  0  0
    4.7220   70.0320   68.2340 C   0  0  0  0  0  0  0  0  0  0  0  0
    5.8070   70.7380   68.7560 C   0  0  0  0  0  0  0  0  0  0  0  0
    6.7910   71.2200   67.9040 C   0  0  0  0  0  0  0  0  0  0  0  0
    6.6920   70.9910   66.5320 C   0  0  0  0  0  0  0  0  0  0  0  0
    1.5970   64.6430   70.7720 C   0  0  0  0  0  0  0  0  0  0  0  0
    0.5100   64.8070   71.6400 C   0  0  0  0  0  0  0  0  0  0  0  0
   -0.4550   65.7720   71.3520 C   0  0  0  0  0  0  0  0  0  0  0  0
   -0.3360   66.5650   70.2080 C   0  0  0  0  0  0  0  0  0  0  0  0
    0.7520   66.4150   69.3350 C   0  0  0  0  0  0  0  0  0  0  0  0
    1.7220   65.4380   69.6260 C   0  0  0  0  0  0  0  0  0  0  0  0
    3.7670   63.8260   70.6720 O   0  0  0  0  0  1  0  0  0  0  0  0
    2.6090   63.6210   71.0630 N   0  0  0  0  0  4  0  0  0  0  0  0
    2.2440   62.6080   71.6770 O   0  0  0  0  0  0  0  0  0  0  0  0
    0.0520   66.8689   67.4583 H   0  0  0  0  0  0  0  0  0  0  0  0
    0.0267   69.0624   69.0761 H   0  0  0  0  0  0  0  0  0  0  0  0
    2.1810   66.5866   66.4957 H   0  0  0  0  0  0  0  0  0  0  0  0
    3.0163   66.7330   67.9972 H   0  0  0  0  0  0  0  0  0  0  0  0
    1.5707   67.7035   64.8531 H   0  0  0  0  0  0  0  0  0  0  0  0
    1.5231   67.3461   62.3958 H   0  0  0  0  0  0  0  0  0  0  0  0
    3.3463   68.2654   60.9681 H   0  0  0  0  0  0  0  0  0  0  0  0
    5.2201   69.5280   62.0084 H   0  0  0  0  0  0  0  0  0  0  0  0
    6.3190   70.4436   63.9568 H   0  0  0  0  0  0  0  0  0  0  0  0
    3.9497   69.6518   68.9188 H   0  0  0  0  0  0  0  0  0  0  0  0
    5.8820   70.9119   69.8396 H   0  0  0  0  0  0  0  0  0  0  0  0
    7.6460   71.7807   68.3096 H   0  0  0  0  0  0  0  0  0  0  0  0
    7.4765   71.3722   65.8617 H   0  0  0  0  0  0  0  0  0  0  0  0
    0.4183   64.1810   72.5398 H   0  0  0  0  0  0  0  0  0  0  0  0
   -1.3122   65.9091   72.0276 H   0  0  0  0  0  0  0  0  0  0  0  0
   -1.1069   67.3183   69.9884 H   0  0  0  0  0  0  0  0  0  0  0  0
    2.5801   65.2985   68.9520 H   0  0  0  0  0  0  0  0  0  0  0  0
  2  1  1  0
  3  2  1  0
  4  3  2  0
  5  4  1  0
  5  1  1  0
  6  4  1  0
  7  6  1  0
  8  7  2  0
  9  8  1  0
 10  9  2  0
 11 10  1  0
 12  7  1  0
 12 11  2  0
 13 12  1  0
 14 13  2  0
 15 14  1  0
 15  6  2  0
 16 15  1  0
 17 16  2  0
 18 17  1  0
 19 18  2  0
 19 14  1  0
 21 20  2  0
 22 21  1  0
 23 22  2  0
 24 23  1  0
 24  1  1  0
 25 20  1  0
 25 24  2  0
 27 26  1  0
 27 20  1  0
 28 27  2  0
  1 29  1  6
  2 30  1  0
  5 31  1  0
  5 32  1  0
  8 33  1  0
  9 34  1  0
 10 35  1  0
 11 36  1  0
 13 37  1  0
 16 38  1  0
 17 39  1  0
 18 40  1  0
 19 41  1  0
 21 42  1  0
 22 43  1  0
 23 44  1  0
 25 45  1  0
M  CHG  2  26  -1  27   1
M  END
>  <score>  (4) 
-10.687

$$$$
=
     RDKit          3D

 45 49  0  0  0  0  0  0  0  0999 V2000
   -0.8000   60.7330   74.0460 C   0  0  1  0  0  0  0  0  0  0  0  0
   -0.0070   61.4090   75.0640 N   0  0  0  0  0  0  0  0  0  0  0  0
    0.9160   62.2590   74.5220 N   0  0  0  0  0  0  0  0  0  0  0  0
    0.9650   61.9810   73.2550 C   0  0  0  0  0  0  0  0  0  0  0  0
    0.0310   60.9020   72.7800 C   0  0  0  0  0  0  0  0  0  0  0  0
    1.8650   62.6400   72.3010 C   0  0  0  0  0  0  0  0  0  0  0  0
    3.1160   62.0280   72.0200 C   0  0  0  0  0  0  0  0  0  0  0  0
    3.6010   60.8640   72.6670 C   0  0  0  0  0  0  0  0  0  0  0  0
    4.8360   60.3040   72.3380 C   0  0  0  0  0  0  0  0  0  0  0  0
    5.6210   60.8950   71.3570 C   0  0  0  0  0  0  0  0  0  0  0  0
    5.1730   62.0460   70.7120 C   0  0  0  0  0  0  0  0  0  0  0  0
    3.9320   62.6220   71.0330 C   0  0  0  0  0  0  0  0  0  0  0  0
    3.4960   63.7860   70.3790 C   0  0  0  0  0  0  0  0  0  0  0  0
    2.2670   64.3940   70.6770 C   0  0  0  0  0  0  0  0  0  0  0  0
    1.4250   63.8270   71.6580 C   0  0  0  0  0  0  0  0  0  0  0  0
    0.2000   64.4810   71.9390 C   0  0  0  0  0  0  0  0  0  0  0  0
   -0.1810   65.6420   71.2640 C   0  0  0  0  0  0  0  0  0  0  0  0
    0.6540   66.1810   70.2940 C   0  0  0  0  0  0  0  0  0  0  0  0
    1.8700   65.5620   70.0050 C   0  0  0  0  0  0  0  0  0  0  0  0
   -0.5210   56.9270   74.3010 C   0  0  0  0  0  0  0  0  0  0  0  0
   -1.6620   56.6100   75.0490 C   0  0  0  0  0  0  0  0  0  0  0  0
   -2.5120   57.6330   75.4680 C   0  0  0  0  0  0  0  0  0  0  0  0
   -2.2260   58.9610   75.1440 C   0  0  0  0  0  0  0  0  0  0  0  0
   -1.0820   59.2930   74.4010 C   0  0  0  0  0  0  0  0  0  0  0  0
   -0.2280   58.2580   73.9760 C   0  0  0  0  0  0  0  0  0  0  0  0
   -0.0540   54.6900   73.8990 O   0  0  0  0  0  1  0  0  0  0  0  0
    0.3700   55.8540   73.8470 N   0  0  0  0  0  4  0  0  0  0  0  0
    1.4980   56.1740   73.4450 O   0  0  0  0  0  0  0  0  0  0  0  0
   -1.8087   61.1563   73.9308 H   0  0  0  0  0  0  0  0  0  0  0  0
   -0.1280   61.2631   76.0764 H   0  0  0  0  0  0  0  0  0  0  0  0
   -0.5798   61.2313   71.9264 H   0  0  0  0  0  0  0  0  0  0  0  0
    0.5150   59.9878   72.4059 H   0  0  0  0  0  0  0  0  0  0  0  0
    2.9884   60.3901   73.4482 H   0  0  0  0  0  0  0  0  0  0  0  0
    5.1863   59.3978   72.8538 H   0  0  0  0  0  0  0  0  0  0  0  0
    6.5935   60.4559   71.0898 H   0  0  0  0  0  0  0  0  0  0  0  0
    5.8013   62.5117   69.9385 H   0  0  0  0  0  0  0  0  0  0  0  0
    4.1390   64.2357   69.6080 H   0  0  0  0  0  0  0  0  0  0  0  0
   -0.4671   64.0638   72.7077 H   0  0  0  0  0  0  0  0  0  0  0  0
   -1.1392   66.1282   71.4996 H   0  0  0  0  0  0  0  0  0  0  0  0
    0.3573   67.0931   69.7554 H   0  0  0  0  0  0  0  0  0  0  0  0
    2.5290   65.9955   69.2383 H   0  0  0  0  0  0  0  0  0  0  0  0
   -1.8856   55.5635   75.3036 H   0  0  0  0  0  0  0  0  0  0  0  0
   -3.4105   57.3932   76.0555 H   0  0  0  0  0  0  0  0  0  0  0  0
   -2.9070   59.7585   75.4758 H   0  0  0  0  0  0  0  0  0  0  0  0
    0.6709   58.4945   73.3877 H   0  0  0  0  0  0  0  0  0  0  0  0
  2  1  1  0
  3  2  1  0
  4  3  2  0
  5  4  1  0
  5  1  1  0
  6  4  1  0
  7  6  1  0
  8  7  2  0
  9  8  1  0
 10  9  2  0
 11 10  1  0
 12  7  1  0
 12 11  2  0
 13 12  1  0
 14 13  2  0
 15 14  1  0
 15  6  2  0
 16 15  1  0
 17 16  2  0
 18 17  1  0
 19 18  2  0
 19 14  1  0
 21 20  2  0
 22 21  1  0
 23 22  2  0
 24 23  1  0
 24  1  1  0
 25 20  1  0
 25 24  2  0
 27 26  1  0
 27 20  1  0
 28 27  2  0
  1 29  1  6
  2 30  1  0
  5 31  1  0
  5 32  1  0
  8 33  1  0
  9 34  1  0
 10 35  1  0
 11 36  1  0
 13 37  1  0
 16 38  1  0
 17 39  1  0
 18 40  1  0
 19 41  1  0
 21 42  1  0
 22 43  1  0
 23 44  1  0
 25 45  1  0
M  CHG  2  26  -1  27   1
M  END
>  <score>  (5) 
-10.185

$$$$
=
     RDKit          3D

 45 49  0  0  0  0  0  0  0  0999 V2000
    0.6500   66.6150   69.9170 C   0  0  1  0  0  0  0  0  0  0  0  0
    1.7360   67.5830   69.8540 N   0  0  0  0  0  0  0  0  0  0  0  0
    1.6930   68.3390   68.7170 N   0  0  0  0  0  0  0  0  0  0  0  0
    0.8410   67.7580   67.9280 C   0  0  0  0  0  0  0  0  0  0  0  0
    0.1720   66.5260   68.4720 C   0  0  0  0  0  0  0  0  0  0  0  0
    0.5200   68.2260   66.5740 C   0  0  0  0  0  0  0  0  0  0  0  0
    1.5860   68.4110   65.6540 C   0  0  0  0  0  0  0  0  0  0  0  0
    2.9570   68.2610   65.9770 C   0  0  0  0  0  0  0  0  0  0  0  0
    3.9590   68.4460   65.0230 C   0  0  0  0  0  0  0  0  0  0  0  0
    3.6170   68.7900   63.7220 C   0  0  0  0  0  0  0  0  0  0  0  0
    2.2760   68.9540   63.3790 C   0  0  0  0  0  0  0  0  0  0  0  0
    1.2560   68.7720   64.3290 C   0  0  0  0  0  0  0  0  0  0  0  0
   -0.0910   68.9460   63.9710 C   0  0  0  0  0  0  0  0  0  0  0  0
   -1.1360   68.7800   64.8930 C   0  0  0  0  0  0  0  0  0  0  0  0
   -0.8430   68.4190   66.2250 C   0  0  0  0  0  0  0  0  0  0  0  0
   -1.9270   68.2760   67.1270 C   0  0  0  0  0  0  0  0  0  0  0  0
   -3.2480   68.4700   66.7190 C   0  0  0  0  0  0  0  0  0  0  0  0
   -3.5190   68.8150   65.4020 C   0  0  0  0  0  0  0  0  0  0  0  0
   -2.4700   68.9700   64.4960 C   0  0  0  0  0  0  0  0  0  0  0  0
    2.7080   63.4810   70.6720 C   0  0  0  0  0  0  0  0  0  0  0  0
    1.8670   62.7980   71.5590 C   0  0  0  0  0  0  0  0  0  0  0  0
    0.6390   63.3600   71.9080 C   0  0  0  0  0  0  0  0  0  0  0  0
    0.2550   64.5930   71.3770 C   0  0  0  0  0  0  0  0  0  0  0  0
    1.0920   65.2910   70.4930 C   0  0  0  0  0  0  0  0  0  0  0  0
    2.3280   64.7200   70.1390 C   0  0  0  0  0  0  0  0  0  0  0  0
    5.0240   63.5360   70.5320 O   0  0  0  0  0  1  0  0  0  0  0  0
    3.9950   62.8880   70.2910 N   0  0  0  0  0  4  0  0  0  0  0  0
    3.9770   61.7770   69.7420 O   0  0  0  0  0  0  0  0  0  0  0  0
   -0.1596   66.9170   70.5977 H   0  0  0  0  0  0  0  0  0  0  0  0
    2.4552   67.6860   70.5841 H   0  0  0  0  0  0  0  0  0  0  0  0
   -0.9238   66.5836   68.3955 H   0  0  0  0  0  0  0  0  0  0  0  0
    0.4120   65.5875   67.9508 H   0  0  0  0  0  0  0  0  0  0  0  0
    3.2391   67.9919   67.0056 H   0  0  0  0  0  0  0  0  0  0  0  0
    5.0158   68.3197   65.3009 H   0  0  0  0  0  0  0  0  0  0  0  0
    4.4018   68.9326   62.9645 H   0  0  0  0  0  0  0  0  0  0  0  0
    2.0115   69.2305   62.3477 H   0  0  0  0  0  0  0  0  0  0  0  0
   -0.3348   69.2213   62.9343 H   0  0  0  0  0  0  0  0  0  0  0  0
   -1.7225   68.0057   68.1735 H   0  0  0  0  0  0  0  0  0  0  0  0
   -4.0712   68.3499   67.4387 H   0  0  0  0  0  0  0  0  0  0  0  0
   -4.5581   68.9657   65.0739 H   0  0  0  0  0  0  0  0  0  0  0  0
   -2.6908   69.2454   63.4542 H   0  0  0  0  0  0  0  0  0  0  0  0
    2.1719   61.8272   71.9768 H   0  0  0  0  0  0  0  0  0  0  0  0
   -0.0287   62.8304   72.6035 H   0  0  0  0  0  0  0  0  0  0  0  0
   -0.7181   65.0236   71.6558 H   0  0  0  0  0  0  0  0  0  0  0  0
    2.9971   65.2469   69.4428 H   0  0  0  0  0  0  0  0  0  0  0  0
  2  1  1  0
  3  2  1  0
  4  3  2  0
  5  4  1  0
  5  1  1  0
  6  4  1  0
  7  6  1  0
  8  7  2  0
  9  8  1  0
 10  9  2  0
 11 10  1  0
 12  7  1  0
 12 11  2  0
 13 12  1  0
 14 13  2  0
 15 14  1  0
 15  6  2  0
 16 15  1  0
 17 16  2  0
 18 17  1  0
 19 18  2  0
 19 14  1  0
 21 20  2  0
 22 21  1  0
 23 22  2  0
 24 23  1  0
 24  1  1  0
 25 20  1  0
 25 24  2  0
 27 26  1  0
 27 20  1  0
 28 27  2  0
  1 29  1  1
  2 30  1  0
  5 31  1  0
  5 32  1  0
  8 33  1  0
  9 34  1  0
 10 35  1  0
 11 36  1  0
 13 37  1  0
 16 38  1  0
 17 39  1  0
 18 40  1  0
 19 41  1  0
 21 42  1  0
 22 43  1  0
 23 44  1  0
 25 45  1  0
M  CHG  2  26  -1  27   1
M  END
>  <score>  (6) 
-10.103

$$$$
=
     RDKit          3D

 45 49  0  0  0  0  0  0  0  0999 V2000
   -0.8900   60.8130   74.0310 C   0  0  1  0  0  0  0  0  0  0  0  0
   -0.0430   61.4750   75.0140 N   0  0  0  0  0  0  0  0  0  0  0  0
    0.8900   62.2870   74.4320 N   0  0  0  0  0  0  0  0  0  0  0  0
    0.8890   61.9910   73.1680 C   0  0  0  0  0  0  0  0  0  0  0  0
   -0.0940   60.9390   72.7370 C   0  0  0  0  0  0  0  0  0  0  0  0
    1.7800   62.6080   72.1770 C   0  0  0  0  0  0  0  0  0  0  0  0
    1.3670   63.8190   71.5590 C   0  0  0  0  0  0  0  0  0  0  0  0
    0.1080   64.4340   71.7660 C   0  0  0  0  0  0  0  0  0  0  0  0
   -0.2340   65.6310   71.1380 C   0  0  0  0  0  0  0  0  0  0  0  0
    0.6710   66.2440   70.2830 C   0  0  0  0  0  0  0  0  0  0  0  0
    1.9140   65.6570   70.0530 C   0  0  0  0  0  0  0  0  0  0  0  0
    2.2720   64.4500   70.6790 C   0  0  0  0  0  0  0  0  0  0  0  0
    3.5260   63.8660   70.4340 C   0  0  0  0  0  0  0  0  0  0  0  0
    3.9160   62.6590   71.0340 C   0  0  0  0  0  0  0  0  0  0  0  0
    3.0370   62.0010   71.9200 C   0  0  0  0  0  0  0  0  0  0  0  0
    3.4660   60.7770   72.4920 C   0  0  0  0  0  0  0  0  0  0  0  0
    4.7210   60.2360   72.2070 C   0  0  0  0  0  0  0  0  0  0  0  0
    5.5780   60.9010   71.3410 C   0  0  0  0  0  0  0  0  0  0  0  0
    5.1770   62.1030   70.7570 C   0  0  0  0  0  0  0  0  0  0  0  0
   -0.7000   57.0090   74.3690 C   0  0  0  0  0  0  0  0  0  0  0  0
   -1.8540   56.7330   75.1130 C   0  0  0  0  0  0  0  0  0  0  0  0
   -2.6840   57.7840   75.5030 C   0  0  0  0  0  0  0  0  0  0  0  0
   -2.3650   59.0980   75.1540 C   0  0  0  0  0  0  0  0  0  0  0  0
   -1.2070   59.3880   74.4140 C   0  0  0  0  0  0  0  0  0  0  0  0
   -0.3740   58.3250   74.0190 C   0  0  0  0  0  0  0  0  0  0  0  0
    1.3150   56.1870   73.5630 O   0  0  0  0  0  1  0  0  0  0  0  0
    0.1700   55.9060   73.9450 N   0  0  0  0  0  4  0  0  0  0  0  0
   -0.2950   54.7580   73.9870 O   0  0  0  0  0  0  0  0  0  0  0  0
   -1.8877   61.2675   73.9419 H   0  0  0  0  0  0  0  0  0  0  0  0
   -0.1365   61.3460   76.0316 H   0  0  0  0  0  0  0  0  0  0  0  0
   -0.7203   61.2782   71.8987 H   0  0  0  0  0  0  0  0  0  0  0  0
    0.3475   60.0047   72.3600 H   0  0  0  0  0  0  0  0  0  0  0  0
   -0.6183   63.9552   72.4392 H   0  0  0  0  0  0  0  0  0  0  0  0
   -1.2180   66.0879   71.3197 H   0  0  0  0  0  0  0  0  0  0  0  0
    0.4081   67.1906   69.7882 H   0  0  0  0  0  0  0  0  0  0  0  0
    2.6258   66.1455   69.3713 H   0  0  0  0  0  0  0  0  0  0  0  0
    4.2242   64.3709   69.7502 H   0  0  0  0  0  0  0  0  0  0  0  0
    2.7935   60.2403   73.1773 H   0  0  0  0  0  0  0  0  0  0  0  0
    5.0297   59.2858   72.6672 H   0  0  0  0  0  0  0  0  0  0  0  0
    6.5698   60.4818   71.1159 H   0  0  0  0  0  0  0  0  0  0  0  0
    5.8587   62.6240   70.0686 H   0  0  0  0  0  0  0  0  0  0  0  0
   -2.1034   55.6973   75.3872 H   0  0  0  0  0  0  0  0  0  0  0  0
   -3.5927   57.5771   76.0873 H   0  0  0  0  0  0  0  0  0  0  0  0
   -3.0302   59.9177   75.4631 H   0  0  0  0  0  0  0  0  0  0  0  0
    0.5351   58.5282   73.4341 H   0  0  0  0  0  0  0  0  0  0  0  0
  2  1  1  0
  3  2  1  0
  4  3  2  0
  5  4  1  0
  5  1  1  0
  6  4  1  0
  7  6  1  0
  8  7  2  0
  9  8  1  0
 10  9  2  0
 11 10  1  0
 12  7  1  0
 12 11  2  0
 13 12  1  0
 14 13  2  0
 15 14  1  0
 15  6  2  0
 16 15  1  0
 17 16  2  0
 18 17  1  0
 19 18  2  0
 19 14  1  0
 21 20  2  0
 22 21  1  0
 23 22  2  0
 24 23  1  0
 24  1  1  0
 25 20  1  0
 25 24  2  0
 27 26  1  0
 27 20  1  0
 28 27  2  0
  1 29  1  6
  2 30  1  0
  5 31  1  0
  5 32  1  0
  8 33  1  0
  9 34  1  0
 10 35  1  0
 11 36  1  0
 13 37  1  0
 16 38  1  0
 17 39  1  0
 18 40  1  0
 19 41  1  0
 21 42  1  0
 22 43  1  0
 23 44  1  0
 25 45  1  0
M  CHG  2  26  -1  27   1
M  END
>  <score>  (7) 
-9.986

$$$$
=
     RDKit          3D

 45 49  0  0  0  0  0  0  0  0999 V2000
   -0.8220   60.7070   74.0180 C   0  0  1  0  0  0  0  0  0  0  0  0
   -0.0130   61.3520   75.0420 N   0  0  0  0  0  0  0  0  0  0  0  0
    0.9110   62.2070   74.5110 N   0  0  0  0  0  0  0  0  0  0  0  0
    0.9430   61.9600   73.2370 C   0  0  0  0  0  0  0  0  0  0  0  0
   -0.0050   60.9010   72.7460 C   0  0  0  0  0  0  0  0  0  0  0  0
    1.8380   62.6360   72.2890 C   0  0  0  0  0  0  0  0  0  0  0  0
    3.0950   62.0400   72.0050 C   0  0  0  0  0  0  0  0  0  0  0  0
    3.5910   60.8760   72.6430 C   0  0  0  0  0  0  0  0  0  0  0  0
    4.8320   60.3310   72.3110 C   0  0  0  0  0  0  0  0  0  0  0  0
    5.6120   60.9380   71.3360 C   0  0  0  0  0  0  0  0  0  0  0  0
    5.1530   62.0890   70.6990 C   0  0  0  0  0  0  0  0  0  0  0  0
    3.9060   62.6500   71.0240 C   0  0  0  0  0  0  0  0  0  0  0  0
    3.4590   63.8150   70.3780 C   0  0  0  0  0  0  0  0  0  0  0  0
    2.2230   64.4070   70.6800 C   0  0  0  0  0  0  0  0  0  0  0  0
    1.3860   63.8240   71.6560 C   0  0  0  0  0  0  0  0  0  0  0  0
    0.1540   64.4630   71.9400 C   0  0  0  0  0  0  0  0  0  0  0  0
   -0.2380   65.6260   71.2740 C   0  0  0  0  0  0  0  0  0  0  0  0
    0.5920   66.1810   70.3090 C   0  0  0  0  0  0  0  0  0  0  0  0
    1.8140   65.5770   70.0160 C   0  0  0  0  0  0  0  0  0  0  0  0
   -2.5200   57.5410   75.3290 C   0  0  0  0  0  0  0  0  0  0  0  0
   -1.6000   56.5530   74.9590 C   0  0  0  0  0  0  0  0  0  0  0  0
   -0.4360   56.9200   74.2840 C   0  0  0  0  0  0  0  0  0  0  0  0
   -0.1930   58.2620   73.9810 C   0  0  0  0  0  0  0  0  0  0  0  0
   -1.1120   59.2610   74.3400 C   0  0  0  0  0  0  0  0  0  0  0  0
   -2.2830   58.8870   75.0240 C   0  0  0  0  0  0  0  0  0  0  0  0
   -3.6930   56.1610   76.7800 O   0  0  0  0  0  1  0  0  0  0  0  0
   -3.7400   57.1620   76.0500 N   0  0  0  0  0  4  0  0  0  0  0  0
   -4.7500   57.8600   75.8800 O   0  0  0  0  0  0  0  0  0  0  0  0
   -1.8287   61.1407   73.9260 H   0  0  0  0  0  0  0  0  0  0  0  0
   -0.1245   61.1830   76.0519 H   0  0  0  0  0  0  0  0  0  0  0  0
   -0.6232   61.2566   71.9085 H   0  0  0  0  0  0  0  0  0  0  0  0
    0.4668   59.9928   72.3427 H   0  0  0  0  0  0  0  0  0  0  0  0
    2.9824   60.3897   73.4196 H   0  0  0  0  0  0  0  0  0  0  0  0
    5.1908   59.4241   72.8198 H   0  0  0  0  0  0  0  0  0  0  0  0
    6.5896   60.5114   71.0672 H   0  0  0  0  0  0  0  0  0  0  0  0
    5.7769   62.5665   69.9291 H   0  0  0  0  0  0  0  0  0  0  0  0
    4.0980   64.2776   69.6114 H   0  0  0  0  0  0  0  0  0  0  0  0
   -0.5101   64.0324   72.7039 H   0  0  0  0  0  0  0  0  0  0  0  0
   -1.2010   66.1009   71.5130 H   0  0  0  0  0  0  0  0  0  0  0  0
    0.2864   67.0943   69.7774 H   0  0  0  0  0  0  0  0  0  0  0  0
    2.4688   66.0231   69.2529 H   0  0  0  0  0  0  0  0  0  0  0  0
   -1.7933   55.4969   75.1984 H   0  0  0  0  0  0  0  0  0  0  0  0
    0.2928   56.1506   73.9893 H   0  0  0  0  0  0  0  0  0  0  0  0
    0.7315   58.5399   73.4537 H   0  0  0  0  0  0  0  0  0  0  0  0
   -3.0142   59.6537   75.3199 H   0  0  0  0  0  0  0  0  0  0  0  0
  2  1  1  0
  3  2  1  0
  4  3  2  0
  5  4  1  0
  5  1  1  0
  6  4  1  0
  7  6  1  0
  8  7  2  0
  9  8  1  0
 10  9  2  0
 11 10  1  0
 12  7  1  0
 12 11  2  0
 13 12  1  0
 14 13  2  0
 15 14  1  0
 15  6  2  0
 16 15  1  0
 17 16  2  0
 18 17  1  0
 19 18  2  0
 19 14  1  0
 21 20  2  0
 22 21  1  0
 23 22  2  0
 24 23  1  0
 24  1  1  0
 25 20  1  0
 25 24  2  0
 27 26  1  0
 27 20  1  0
 28 27  2  0
  1 29  1  6
  2 30  1  0
  5 31  1  0
  5 32  1  0
  8 33  1  0
  9 34  1  0
 10 35  1  0
 11 36  1  0
 13 37  1  0
 16 38  1  0
 17 39  1  0
 18 40  1  0
 19 41  1  0
 21 42  1  0
 22 43  1  0
 23 44  1  0
 25 45  1  0
M  CHG  2  26  -1  27   1
M  END
>  <score>  (8) 
-9.874

$$$$
=
     RDKit          3D

 45 49  0  0  0  0  0  0  0  0999 V2000
   -1.9510   61.4150   74.3720 C   0  0  1  0  0  0  0  0  0  0  0  0
   -0.7880   61.2440   75.2320 N   0  0  0  0  0  0  0  0  0  0  0  0
    0.3860   61.4460   74.5620 N   0  0  0  0  0  0  0  0  0  0  0  0
    0.0840   61.4630   73.3000 C   0  0  0  0  0  0  0  0  0  0  0  0
   -1.3730   61.3000   72.9670 C   0  0  0  0  0  0  0  0  0  0  0  0
    1.0680   61.6170   72.2200 C   0  0  0  0  0  0  0  0  0  0  0  0
    1.1880   62.8860   71.5930 C   0  0  0  0  0  0  0  0  0  0  0  0
    0.3580   64.0000   71.8750 C   0  0  0  0  0  0  0  0  0  0  0  0
    0.5350   65.2250   71.2310 C   0  0  0  0  0  0  0  0  0  0  0  0
    1.5410   65.3680   70.2860 C   0  0  0  0  0  0  0  0  0  0  0  0
    2.3650   64.2870   69.9820 C   0  0  0  0  0  0  0  0  0  0  0  0
    2.1990   63.0460   70.6210 C   0  0  0  0  0  0  0  0  0  0  0  0
    3.0330   61.9620   70.3000 C   0  0  0  0  0  0  0  0  0  0  0  0
    2.8940   60.7070   70.9130 C   0  0  0  0  0  0  0  0  0  0  0  0
    1.8940   60.5110   71.8890 C   0  0  0  0  0  0  0  0  0  0  0  0
    1.7780   59.2240   72.4700 C   0  0  0  0  0  0  0  0  0  0  0  0
    2.6290   58.1780   72.1080 C   0  0  0  0  0  0  0  0  0  0  0  0
    3.6150   58.3910   71.1530 C   0  0  0  0  0  0  0  0  0  0  0  0
    3.7440   59.6460   70.5590 C   0  0  0  0  0  0  0  0  0  0  0  0
   -5.3840   59.7710   74.7430 C   0  0  0  0  0  0  0  0  0  0  0  0
   -5.0420   58.5180   75.2670 C   0  0  0  0  0  0  0  0  0  0  0  0
   -3.7000   58.2150   75.4950 C   0  0  0  0  0  0  0  0  0  0  0  0
   -2.7080   59.1530   75.2000 C   0  0  0  0  0  0  0  0  0  0  0  0
   -3.0370   60.4090   74.6680 C   0  0  0  0  0  0  0  0  0  0  0  0
   -4.3920   60.7140   74.4430 C   0  0  0  0  0  0  0  0  0  0  0  0
   -7.1440   60.3750   73.3560 O   0  0  0  0  0  1  0  0  0  0  0  0
   -6.7950   60.1000   74.5130 N   0  0  0  0  0  4  0  0  0  0  0  0
   -7.5540   60.0920   75.4920 O   0  0  0  0  0  0  0  0  0  0  0  0
   -2.4639   62.3762   74.5237 H   0  0  0  0  0  0  0  0  0  0  0  0
   -0.8439   60.9989   76.2308 H   0  0  0  0  0  0  0  0  0  0  0  0
   -1.7368   62.0990   72.3043 H   0  0  0  0  0  0  0  0  0  0  0  0
   -1.6343   60.3816   72.4209 H   0  0  0  0  0  0  0  0  0  0  0  0
   -0.4450   63.8962   72.6196 H   0  0  0  0  0  0  0  0  0  0  0  0
   -0.1208   66.0747   71.4716 H   0  0  0  0  0  0  0  0  0  0  0  0
    1.6874   66.3327   69.7782 H   0  0  0  0  0  0  0  0  0  0  0  0
    3.1586   64.4063   69.2297 H   0  0  0  0  0  0  0  0  0  0  0  0
    3.8200   62.1012   69.5442 H   0  0  0  0  0  0  0  0  0  0  0  0
    0.9983   59.0445   73.2249 H   0  0  0  0  0  0  0  0  0  0  0  0
    2.5191   57.1892   72.5772 H   0  0  0  0  0  0  0  0  0  0  0  0
    4.2917   57.5725   70.8663 H   0  0  0  0  0  0  0  0  0  0  0  0
    4.5242   59.8079   69.8007 H   0  0  0  0  0  0  0  0  0  0  0  0
   -5.8246   57.7798   75.4965 H   0  0  0  0  0  0  0  0  0  0  0  0
   -3.4218   57.2343   75.9084 H   0  0  0  0  0  0  0  0  0  0  0  0
   -1.6532   58.9034   75.3875 H   0  0  0  0  0  0  0  0  0  0  0  0
   -4.6730   61.6944   74.0309 H   0  0  0  0  0  0  0  0  0  0  0  0
  2  1  1  0
  3  2  1  0
  4  3  2  0
  5  4  1  0
  5  1  1  0
  6  4  1  0
  7  6  1  0
  8  7  2  0
  9  8  1  0
 10  9  2  0
 11 10  1  0
 12  7  1  0
 12 11  2  0
 13 12  1  0
 14 13  2  0
 15 14  1  0
 15  6  2  0
 16 15  1  0
 17 16  2  0
 18 17  1  0
 19 18  2  0
 19 14  1  0
 21 20  2  0
 22 21  1  0
 23 22  2  0
 24 23  1  0
 24  1  1  0
 25 20  1  0
 25 24  2  0
 27 26  1  0
 27 20  1  0
 28 27  2  0
  1 29  1  6
  2 30  1  0
  5 31  1  0
  5 32  1  0
  8 33  1  0
  9 34  1  0
 10 35  1  0
 11 36  1  0
 13 37  1  0
 16 38  1  0
 17 39  1  0
 18 40  1  0
 19 41  1  0
 21 42  1  0
 22 43  1  0
 23 44  1  0
 25 45  1  0
M  CHG  2  26  -1  27   1
M  END
>  <score>  (9) 
-9.671

$$$$
