=
     RDKit          3D

 15 16  0  0  0  0  0  0  0  0999 V2000
    7.6830   71.1760   69.4830 Cl  0  0  0  0  0  0  0  0  0  0  0  0
    6.2790   70.6650   68.6260 C   0  0  0  0  0  0  0  0  0  0  0  0
    6.4000   70.2660   67.2780 C   0  0  0  0  0  0  0  0  0  0  0  0
    5.2780   69.8460   66.5550 C   0  0  0  0  0  0  0  0  0  0  0  0
    4.0690   69.8430   67.2150 C   0  0  0  0  0  0  0  0  0  0  0  0
    3.9680   70.2360   68.5330 C   0  0  0  0  0  0  0  0  0  0  0  0
    5.0450   70.6550   69.2780 C   0  0  0  0  0  0  0  0  0  0  0  0
    2.6490   70.1110   68.8670 N   0  0  0  0  0  0  0  0  0  0  0  0
    1.9780   69.6490   67.7590 C   0  0  0  0  0  0  0  0  0  0  0  0
    0.7770   69.4270   67.7130 O   0  0  0  0  0  0  0  0  0  0  0  0
    2.8500   69.4640   66.6770 O   0  0  0  0  0  0  0  0  0  0  0  0
    7.3860   70.2853   66.7907 H   0  0  0  0  0  0  0  0  0  0  0  0
    5.3581   69.5315   65.5040 H   0  0  0  0  0  0  0  0  0  0  0  0
    4.9400   70.9647   70.3283 H   0  0  0  0  0  0  0  0  0  0  0  0
    2.2320   70.3245   69.7843 H   0  0  0  0  0  0  0  0  0  0  0  0
  2  1  1  0
  3  2  2  0
  4  3  1  0
  5  4  2  0
  6  5  1  0
  7  6  2  0
  7  2  1  0
  8  6  1  0
  9  8  1  0
 10  9  2  0
 11  9  1  0
 11  5  1  0
  3 12  1  0
  4 13  1  0
  7 14  1  0
  8 15  1  0
M  END
>  <score>  (1) 
-7.36

$$$$
=
     RDKit          3D

 15 16  0  0  0  0  0  0  0  0999 V2000
    7.7030   71.1480   69.5420 Cl  0  0  0  0  0  0  0  0  0  0  0  0
    6.4340   70.6710   68.4800 C   0  0  0  0  0  0  0  0  0  0  0  0
    5.1190   70.5650   68.9800 C   0  0  0  0  0  0  0  0  0  0  0  0
    4.0660   70.1810   68.1420 C   0  0  0  0  0  0  0  0  0  0  0  0
    4.3740   69.9130   66.8260 C   0  0  0  0  0  0  0  0  0  0  0  0
    5.6660   70.0210   66.3530 C   0  0  0  0  0  0  0  0  0  0  0  0
    6.7270   70.3960   67.1430 C   0  0  0  0  0  0  0  0  0  0  0  0
    5.6150   69.6910   65.0290 N   0  0  0  0  0  0  0  0  0  0  0  0
    4.3080   69.3910   64.7210 C   0  0  0  0  0  0  0  0  0  0  0  0
    3.9120   69.0540   63.6160 O   0  0  0  0  0  0  0  0  0  0  0  0
    3.4790   69.5210   65.8450 O   0  0  0  0  0  0  0  0  0  0  0  0
    4.9194   70.7863   70.0389 H   0  0  0  0  0  0  0  0  0  0  0  0
    3.0357   70.0967   68.5181 H   0  0  0  0  0  0  0  0  0  0  0  0
    7.7491   70.4749   66.7441 H   0  0  0  0  0  0  0  0  0  0  0  0
    6.4124   69.6703   64.3773 H   0  0  0  0  0  0  0  0  0  0  0  0
  2  1  1  0
  3  2  2  0
  4  3  1  0
  5  4  2  0
  6  5  1  0
  7  6  2  0
  7  2  1  0
  8  6  1  0
  9  8  1  0
 10  9  2  0
 11  9  1  0
 11  5  1  0
  3 12  1  0
  4 13  1  0
  7 14  1  0
  8 15  1  0
M  END
>  <score>  (2) 
-7.284

$$$$
=
     RDKit          3D

 15 16  0  0  0  0  0  0  0  0999 V2000
    4.5040   70.5700   69.4970 Cl  0  0  0  0  0  0  0  0  0  0  0  0
    4.2850   70.0760   67.8610 C   0  0  0  0  0  0  0  0  0  0  0  0
    3.0460   69.5280   67.4670 C   0  0  0  0  0  0  0  0  0  0  0  0
    2.8370   69.1180   66.1450 C   0  0  0  0  0  0  0  0  0  0  0  0
    3.8850   69.2740   65.2640 C   0  0  0  0  0  0  0  0  0  0  0  0
    5.0890   69.8130   65.6660 C   0  0  0  0  0  0  0  0  0  0  0  0
    5.3340   70.2280   66.9540 C   0  0  0  0  0  0  0  0  0  0  0  0
    5.8890   69.8230   64.5600 N   0  0  0  0  0  0  0  0  0  0  0  0
    5.1670   69.2970   63.5140 C   0  0  0  0  0  0  0  0  0  0  0  0
    5.5870   69.1610   62.3750 O   0  0  0  0  0  0  0  0  0  0  0  0
    3.8770   68.9310   63.9220 O   0  0  0  0  0  0  0  0  0  0  0  0
    2.2373   69.4220   68.2051 H   0  0  0  0  0  0  0  0  0  0  0  0
    1.8765   68.6893   65.8230 H   0  0  0  0  0  0  0  0  0  0  0  0
    6.3026   70.6557   67.2523 H   0  0  0  0  0  0  0  0  0  0  0  0
    6.8601   70.1637   64.5165 H   0  0  0  0  0  0  0  0  0  0  0  0
  2  1  1  0
  3  2  2  0
  4  3  1  0
  5  4  2  0
  6  5  1  0
  7  6  2  0
  7  2  1  0
  8  6  1  0
  9  8  1  0
 10  9  2  0
 11  9  1  0
 11  5  1  0
  3 12  1  0
  4 13  1  0
  7 14  1  0
  8 15  1  0
M  END
>  <score>  (3) 
-6.998

$$$$
=
     RDKit          3D

 15 16  0  0  0  0  0  0  0  0999 V2000
    5.6460   69.8620   67.0110 Cl  0  0  0  0  0  0  0  0  0  0  0  0
    4.6600   69.4700   65.6540 C   0  0  0  0  0  0  0  0  0  0  0  0
    5.2430   69.4150   64.3700 C   0  0  0  0  0  0  0  0  0  0  0  0
    4.4690   69.0980   63.2490 C   0  0  0  0  0  0  0  0  0  0  0  0
    3.1300   68.8480   63.4580 C   0  0  0  0  0  0  0  0  0  0  0  0
    2.5760   68.9050   64.7200 C   0  0  0  0  0  0  0  0  0  0  0  0
    3.3020   69.2120   65.8460 C   0  0  0  0  0  0  0  0  0  0  0  0
    1.2520   68.6080   64.5670 N   0  0  0  0  0  0  0  0  0  0  0  0
    1.0250   68.3760   63.2310 C   0  0  0  0  0  0  0  0  0  0  0  0
   -0.0590   68.0830   62.7480 O   0  0  0  0  0  0  0  0  0  0  0  0
    2.2020   68.5200   62.4830 O   0  0  0  0  0  0  0  0  0  0  0  0
    6.3164   69.6234   64.2497 H   0  0  0  0  0  0  0  0  0  0  0  0
    4.9106   69.0502   62.2427 H   0  0  0  0  0  0  0  0  0  0  0  0
    2.8385   69.2521   66.8428 H   0  0  0  0  0  0  0  0  0  0  0  0
    0.5488   68.5654   65.3184 H   0  0  0  0  0  0  0  0  0  0  0  0
  2  1  1  0
  3  2  2  0
  4  3  1  0
  5  4  2  0
  6  5  1  0
  7  6  2  0
  7  2  1  0
  8  6  1  0
  9  8  1  0
 10  9  2  0
 11  9  1  0
 11  5  1  0
  3 12  1  0
  4 13  1  0
  7 14  1  0
  8 15  1  0
M  END
>  <score>  (4) 
-6.757

$$$$
=
     RDKit          3D

 15 16  0  0  0  0  0  0  0  0999 V2000
    6.5680   70.4400   67.0770 Cl  0  0  0  0  0  0  0  0  0  0  0  0
    4.9020   70.0100   67.1450 C   0  0  0  0  0  0  0  0  0  0  0  0
    4.1770   70.2440   68.3320 C   0  0  0  0  0  0  0  0  0  0  0  0
    2.8220   69.9050   68.4180 C   0  0  0  0  0  0  0  0  0  0  0  0
    2.2410   69.3410   67.3040 C   0  0  0  0  0  0  0  0  0  0  0  0
    2.9650   69.1190   66.1500 C   0  0  0  0  0  0  0  0  0  0  0  0
    4.2970   69.4370   66.0260 C   0  0  0  0  0  0  0  0  0  0  0  0
    2.0970   68.5570   65.2590 N   0  0  0  0  0  0  0  0  0  0  0  0
    0.8730   68.4480   65.8770 C   0  0  0  0  0  0  0  0  0  0  0  0
   -0.1320   67.9850   65.3580 O   0  0  0  0  0  0  0  0  0  0  0  0
    0.9210   68.9390   67.1900 O   0  0  0  0  0  0  0  0  0  0  0  0
    4.6814   70.6972   69.1982 H   0  0  0  0  0  0  0  0  0  0  0  0
    2.2447   70.0817   69.3375 H   0  0  0  0  0  0  0  0  0  0  0  0
    4.8545   69.2500   65.0964 H   0  0  0  0  0  0  0  0  0  0  0  0
    2.3189   68.2665   64.2961 H   0  0  0  0  0  0  0  0  0  0  0  0
  2  1  1  0
  3  2  2  0
  4  3  1  0
  5  4  2  0
  6  5  1  0
  7  6  2  0
  7  2  1  0
  8  6  1  0
  9  8  1  0
 10  9  2  0
 11  9  1  0
 11  5  1  0
  3 12  1  0
  4 13  1  0
  7 14  1  0
  8 15  1  0
M  END
>  <score>  (5) 
-6.689

$$$$
=
     RDKit          3D

 15 16  0  0  0  0  0  0  0  0999 V2000
    3.1850   68.1900   62.8150 Cl  0  0  0  0  0  0  0  0  0  0  0  0
    3.7510   68.8280   64.3110 C   0  0  0  0  0  0  0  0  0  0  0  0
    5.0970   69.2370   64.4220 C   0  0  0  0  0  0  0  0  0  0  0  0
    5.5860   69.7590   65.6240 C   0  0  0  0  0  0  0  0  0  0  0  0
    4.7030   69.8520   66.6770 C   0  0  0  0  0  0  0  0  0  0  0  0
    3.3900   69.4470   66.5520 C   0  0  0  0  0  0  0  0  0  0  0  0
    2.8700   68.9290   65.3890 C   0  0  0  0  0  0  0  0  0  0  0  0
    2.8050   69.6750   67.7640 N   0  0  0  0  0  0  0  0  0  0  0  0
    3.7600   70.2080   68.5980 C   0  0  0  0  0  0  0  0  0  0  0  0
    3.5700   70.5290   69.7610 O   0  0  0  0  0  0  0  0  0  0  0  0
    4.9920   70.3380   67.9410 O   0  0  0  0  0  0  0  0  0  0  0  0
    5.7679   69.1444   63.5552 H   0  0  0  0  0  0  0  0  0  0  0  0
    6.6327   70.0820   65.7242 H   0  0  0  0  0  0  0  0  0  0  0  0
    1.8194   68.6122   65.3126 H   0  0  0  0  0  0  0  0  0  0  0  0
    1.8236   69.4823   68.0101 H   0  0  0  0  0  0  0  0  0  0  0  0
  2  1  1  0
  3  2  2  0
  4  3  1  0
  5  4  2  0
  6  5  1  0
  7  6  2  0
  7  2  1  0
  8  6  1  0
  9  8  1  0
 10  9  2  0
 11  9  1  0
 11  5  1  0
  3 12  1  0
  4 13  1  0
  7 14  1  0
  8 15  1  0
M  END
>  <score>  (6) 
-6.647

$$$$
=
     RDKit          3D

 15 16  0  0  0  0  0  0  0  0999 V2000
    3.1570   69.9830   69.1530 Cl  0  0  0  0  0  0  0  0  0  0  0  0
    3.8770   69.8510   67.5950 C   0  0  0  0  0  0  0  0  0  0  0  0
    5.2220   70.2420   67.4200 C   0  0  0  0  0  0  0  0  0  0  0  0
    5.8350   70.1470   66.1660 C   0  0  0  0  0  0  0  0  0  0  0  0
    5.0720   69.6590   65.1280 C   0  0  0  0  0  0  0  0  0  0  0  0
    3.7590   69.2810   65.3150 C   0  0  0  0  0  0  0  0  0  0  0  0
    3.1200   69.3590   66.5300 C   0  0  0  0  0  0  0  0  0  0  0  0
    3.3100   68.8520   64.0990 N   0  0  0  0  0  0  0  0  0  0  0  0
    4.3450   68.9750   63.2020 C   0  0  0  0  0  0  0  0  0  0  0  0
    4.2810   68.6790   62.0180 O   0  0  0  0  0  0  0  0  0  0  0  0
    5.4940   69.4900   63.8190 O   0  0  0  0  0  0  0  0  0  0  0  0
    5.7938   70.6252   68.2780 H   0  0  0  0  0  0  0  0  0  0  0  0
    6.8819   70.4492   66.0153 H   0  0  0  0  0  0  0  0  0  0  0  0
    2.0715   69.0511   66.6558 H   0  0  0  0  0  0  0  0  0  0  0  0
    2.3649   68.4993   63.8908 H   0  0  0  0  0  0  0  0  0  0  0  0
  2  1  1  0
  3  2  2  0
  4  3  1  0
  5  4  2  0
  6  5  1  0
  7  6  2  0
  7  2  1  0
  8  6  1  0
  9  8  1  0
 10  9  2  0
 11  9  1  0
 11  5  1  0
  3 12  1  0
  4 13  1  0
  7 14  1  0
  8 15  1  0
M  END
>  <score>  (7) 
-6.635

$$$$
=
     RDKit          3D

 15 16  0  0  0  0  0  0  0  0999 V2000
    5.6990   69.6590   66.1580 Cl  0  0  0  0  0  0  0  0  0  0  0  0
    4.0750   69.2890   65.7230 C   0  0  0  0  0  0  0  0  0  0  0  0
    3.0960   69.1830   66.7340 C   0  0  0  0  0  0  0  0  0  0  0  0
    1.7680   68.8840   66.4110 C   0  0  0  0  0  0  0  0  0  0  0  0
    1.4690   68.7010   65.0790 C   0  0  0  0  0  0  0  0  0  0  0  0
    2.4380   68.8090   64.1030 C   0  0  0  0  0  0  0  0  0  0  0  0
    3.7520   69.1010   64.3780 C   0  0  0  0  0  0  0  0  0  0  0  0
    1.8080   68.5730   62.9150 N   0  0  0  0  0  0  0  0  0  0  0  0
    0.4810   68.3280   63.1840 C   0  0  0  0  0  0  0  0  0  0  0  0
   -0.3670   68.0790   62.3410 O   0  0  0  0  0  0  0  0  0  0  0  0
    0.2210   68.4000   64.5600 O   0  0  0  0  0  0  0  0  0  0  0  0
    3.3797   69.3369   67.7856 H   0  0  0  0  0  0  0  0  0  0  0  0
    0.9947   68.7986   67.1886 H   0  0  0  0  0  0  0  0  0  0  0  0
    4.5075   69.1821   63.5826 H   0  0  0  0  0  0  0  0  0  0  0  0
    2.2476   68.5775   61.9835 H   0  0  0  0  0  0  0  0  0  0  0  0
  2  1  1  0
  3  2  2  0
  4  3  1  0
  5  4  2  0
  6  5  1  0
  7  6  2  0
  7  2  1  0
  8  6  1  0
  9  8  1  0
 10  9  2  0
 11  9  1  0
 11  5  1  0
  3 12  1  0
  4 13  1  0
  7 14  1  0
  8 15  1  0
M  END
>  <score>  (8) 
-6.509

$$$$
=
     RDKit          3D

 15 16  0  0  0  0  0  0  0  0999 V2000
    5.2320   69.8100   65.3620 Cl  0  0  0  0  0  0  0  0  0  0  0  0
    3.7570   69.3580   66.1300 C   0  0  0  0  0  0  0  0  0  0  0  0
    3.5250   69.7530   67.4640 C   0  0  0  0  0  0  0  0  0  0  0  0
    2.3370   69.4020   68.1150 C   0  0  0  0  0  0  0  0  0  0  0  0
    1.4210   68.6630   67.3980 C   0  0  0  0  0  0  0  0  0  0  0  0
    1.6640   68.2850   66.0940 C   0  0  0  0  0  0  0  0  0  0  0  0
    2.8170   68.6100   65.4200 C   0  0  0  0  0  0  0  0  0  0  0  0
    0.5680   67.5770   65.6930 N   0  0  0  0  0  0  0  0  0  0  0  0
   -0.3140   67.5360   66.7470 C   0  0  0  0  0  0  0  0  0  0  0  0
   -1.4010   66.9780   66.7260 O   0  0  0  0  0  0  0  0  0  0  0  0
    0.1930   68.2200   67.8610 O   0  0  0  0  0  0  0  0  0  0  0  0
    4.2850   70.3425   67.9977 H   0  0  0  0  0  0  0  0  0  0  0  0
    2.1425   69.7032   69.1549 H   0  0  0  0  0  0  0  0  0  0  0  0
    2.9891   68.2980   64.3793 H   0  0  0  0  0  0  0  0  0  0  0  0
    0.4269   67.1498   64.7664 H   0  0  0  0  0  0  0  0  0  0  0  0
  2  1  1  0
  3  2  2  0
  4  3  1  0
  5  4  2  0
  6  5  1  0
  7  6  2  0
  7  2  1  0
  8  6  1  0
  9  8  1  0
 10  9  2  0
 11  9  1  0
 11  5  1  0
  3 12  1  0
  4 13  1  0
  7 14  1  0
  8 15  1  0
M  END
>  <score>  (9) 
-6.401

$$$$
