=
     RDKit          3D

 75 79  0  0  0  0  0  0  0  0999 V2000
   -0.3630   68.0180   66.5020 N   0  0  0  0  0  4  0  0  0  0  0  0
   -1.3860   67.3410   67.4120 C   0  0  0  0  0  0  0  0  0  0  0  0
   -0.6990   66.4240   68.4480 C   0  0  0  0  0  0  0  0  0  0  0  0
    0.3900   67.1390   69.2350 N   0  0  0  0  0  4  0  0  0  0  0  0
    1.3580   67.9490   68.3800 C   0  0  0  0  0  0  0  0  0  0  0  0
    0.6460   68.8230   67.3200 C   0  0  0  0  0  0  0  0  0  0  0  0
   -1.0620   68.8840   65.4450 C   0  0  0  0  0  0  0  0  0  0  0  0
   -0.2980   68.8990   64.1280 C   0  0  0  0  0  0  0  0  0  0  0  0
    0.8460   67.8820   64.1150 C   0  0  0  0  0  0  0  0  0  0  0  0
    1.4260   69.0150   61.9830 C   0  0  0  0  0  0  0  0  0  0  0  0
    1.8850   68.3290   63.1910 N   0  0  0  0  0  0  0  0  0  0  0  0
    3.0860   68.7600   63.7770 C   0  0  0  0  0  0  0  0  0  0  0  0
    3.2170   69.0260   65.1500 C   0  0  0  0  0  0  0  0  0  0  0  0
    4.4280   69.4590   65.7030 C   0  0  0  0  0  0  0  0  0  0  0  0
    5.5400   69.6510   64.8910 C   0  0  0  0  0  0  0  0  0  0  0  0
    5.4380   69.4150   63.5260 C   0  0  0  0  0  0  0  0  0  0  0  0
    4.2250   68.9790   62.9810 C   0  0  0  0  0  0  0  0  0  0  0  0
    1.1190   66.2410   70.2660 C   0  0  0  0  0  0  0  0  0  0  0  0
    0.3290   65.0480   70.8720 C   0  0  0  0  0  0  0  0  0  0  0  0
    0.6080   63.7480   70.2460 N   0  0  0  0  0  0  0  0  0  0  0  0
    1.1870   62.6790   70.9470 C   0  0  0  0  0  0  0  0  0  0  0  0
    2.5560   62.4430   70.7350 C   0  0  0  0  0  0  0  0  0  0  0  0
    3.4630   63.3570   69.9470 C   0  0  0  0  0  0  0  0  0  0  0  0
    4.8520   63.4680   70.5820 C   0  0  0  0  0  0  0  0  0  0  0  0
    5.4080   62.1590   71.1590 C   0  0  0  0  0  0  0  0  0  0  0  0
    4.5370   60.9350   70.8880 C   0  0  0  0  0  0  0  0  0  0  0  0
    3.0900   61.2400   71.1820 C   0  0  0  0  0  0  0  0  0  0  0  0
    2.3530   60.3060   71.8170 N   0  0  0  0  0  0  0  0  0  0  0  0
    1.1520   60.6680   72.2850 C   0  0  0  0  0  0  0  0  0  0  0  0
    0.5230   61.8750   71.9100 C   0  0  0  0  0  0  0  0  0  0  0  0
   -0.7130   62.2000   72.5250 C   0  0  0  0  0  0  0  0  0  0  0  0
   -1.3390   61.3250   73.4110 C   0  0  0  0  0  0  0  0  0  0  0  0
   -0.7350   60.1150   73.7160 C   0  0  0  0  0  0  0  0  0  0  0  0
    0.5050   59.8040   73.1580 C   0  0  0  0  0  0  0  0  0  0  0  0
    0.1621   67.2863   66.0023 H   0  0  0  0  0  0  0  0  0  0  0  0
   -1.9596   68.1146   67.9435 H   0  0  0  0  0  0  0  0  0  0  0  0
   -2.0488   66.7231   66.7884 H   0  0  0  0  0  0  0  0  0  0  0  0
   -1.4598   66.0578   69.1530 H   0  0  0  0  0  0  0  0  0  0  0  0
   -0.2236   65.5988   67.8975 H   0  0  0  0  0  0  0  0  0  0  0  0
   -0.1326   67.8333   69.7879 H   0  0  0  0  0  0  0  0  0  0  0  0
    1.9427   68.6063   69.0404 H   0  0  0  0  0  0  0  0  0  0  0  0
    1.9965   67.2340   67.8405 H   0  0  0  0  0  0  0  0  0  0  0  0
    0.1175   69.6415   67.8307 H   0  0  0  0  0  0  0  0  0  0  0  0
    1.4097   69.2130   66.6310 H   0  0  0  0  0  0  0  0  0  0  0  0
   -2.0705   68.4826   65.2666 H   0  0  0  0  0  0  0  0  0  0  0  0
   -1.1073   69.9154   65.8248 H   0  0  0  0  0  0  0  0  0  0  0  0
   -0.9946   68.6599   63.3110 H   0  0  0  0  0  0  0  0  0  0  0  0
    0.1377   69.9009   64.0002 H   0  0  0  0  0  0  0  0  0  0  0  0
    1.2687   67.7928   65.1266 H   0  0  0  0  0  0  0  0  0  0  0  0
    0.4628   66.9035   63.7899 H   0  0  0  0  0  0  0  0  0  0  0  0
    0.8348   69.8986   62.2653 H   0  0  0  0  0  0  0  0  0  0  0  0
    2.2955   69.3305   61.3877 H   0  0  0  0  0  0  0  0  0  0  0  0
    0.8026   68.3316   61.3877 H   0  0  0  0  0  0  0  0  0  0  0  0
    2.3457   68.8906   65.8076 H   0  0  0  0  0  0  0  0  0  0  0  0
    4.5000   69.6481   66.7842 H   0  0  0  0  0  0  0  0  0  0  0  0
    6.4928   69.9871   65.3259 H   0  0  0  0  0  0  0  0  0  0  0  0
    6.3100   69.5707   62.8738 H   0  0  0  0  0  0  0  0  0  0  0  0
    4.1602   68.8022   61.8972 H   0  0  0  0  0  0  0  0  0  0  0  0
    2.0092   65.8272   69.7697 H   0  0  0  0  0  0  0  0  0  0  0  0
    1.3185   66.9046   71.1203 H   0  0  0  0  0  0  0  0  0  0  0  0
    0.5824   64.9759   71.9400 H   0  0  0  0  0  0  0  0  0  0  0  0
   -0.7362   65.2572   70.6943 H   0  0  0  0  0  0  0  0  0  0  0  0
    0.3690   63.6162   69.2528 H   0  0  0  0  0  0  0  0  0  0  0  0
    3.5690   62.9598   68.9267 H   0  0  0  0  0  0  0  0  0  0  0  0
    3.0114   64.3600   69.9368 H   0  0  0  0  0  0  0  0  0  0  0  0
    5.5515   63.8259   69.8122 H   0  0  0  0  0  0  0  0  0  0  0  0
    4.7472   64.1585   71.4319 H   0  0  0  0  0  0  0  0  0  0  0  0
    6.3996   61.9812   70.7173 H   0  0  0  0  0  0  0  0  0  0  0  0
    5.4439   62.2854   72.2511 H   0  0  0  0  0  0  0  0  0  0  0  0
    4.6384   60.6455   69.8316 H   0  0  0  0  0  0  0  0  0  0  0  0
    4.8665   60.1128   71.5403 H   0  0  0  0  0  0  0  0  0  0  0  0
   -1.1887   63.1653   72.2974 H   0  0  0  0  0  0  0  0  0  0  0  0
   -2.3047   61.5924   73.8647 H   0  0  0  0  0  0  0  0  0  0  0  0
   -1.2306   59.4045   74.3939 H   0  0  0  0  0  0  0  0  0  0  0  0
    0.9834   58.8479   73.4168 H   0  0  0  0  0  0  0  0  0  0  0  0
  2  1  1  0
  3  2  1  0
  4  3  1  0
  5  4  1  0
  6  5  1  0
  6  1  1  0
  7  1  1  0
  8  7  1  0
  9  8  1  0
 11 10  1  0
 11  9  1  0
 12 11  1  0
 13 12  2  0
 14 13  1  0
 15 14  2  0
 16 15  1  0
 17 16  2  0
 17 12  1  0
 18  4  1  0
 19 18  1  0
 20 19  1  0
 21 20  1  0
 22 21  1  0
 23 22  1  0
 24 23  1  0
 25 24  1  0
 26 25  1  0
 27 22  2  0
 27 26  1  0
 28 27  1  0
 29 28  2  0
 30 29  1  0
 30 21  2  0
 31 30  1  0
 32 31  2  0
 33 32  1  0
 34 33  2  0
 34 29  1  0
  1 35  1  0
  2 36  1  0
  2 37  1  0
  3 38  1  0
  3 39  1  0
  4 40  1  0
  5 41  1  0
  5 42  1  0
  6 43  1  0
  6 44  1  0
  7 45  1  0
  7 46  1  0
  8 47  1  0
  8 48  1  0
  9 49  1  0
  9 50  1  0
 10 51  1  0
 10 52  1  0
 10 53  1  0
 13 54  1  0
 14 55  1  0
 15 56  1  0
 16 57  1  0
 17 58  1  0
 18 59  1  0
 18 60  1  0
 19 61  1  0
 19 62  1  0
 20 63  1  0
 23 64  1  0
 23 65  1  0
 24 66  1  0
 24 67  1  0
 25 68  1  0
 25 69  1  0
 26 70  1  0
 26 71  1  0
 31 72  1  0
 32 73  1  0
 33 74  1  0
 34 75  1  0
M  CHG  2   1   1   4   1
M  END
>  <score>  (1) 
-11.488

$$$$
=
     RDKit          3D

 75 79  0  0  0  0  0  0  0  0999 V2000
    0.3630   68.2370   66.9430 N   0  0  0  0  0  4  0  0  0  0  0  0
    1.6080   67.6580   67.6120 C   0  0  0  0  0  0  0  0  0  0  0  0
    1.3080   67.1880   69.0520 C   0  0  0  0  0  0  0  0  0  0  0  0
    0.1200   66.2400   69.1250 N   0  0  0  0  0  4  0  0  0  0  0  0
   -1.1080   66.7060   68.3520 C   0  0  0  0  0  0  0  0  0  0  0  0
   -0.7730   67.2150   66.9290 C   0  0  0  0  0  0  0  0  0  0  0  0
    0.6890   68.7470   65.5330 C   0  0  0  0  0  0  0  0  0  0  0  0
    1.9790   68.1420   64.9940 C   0  0  0  0  0  0  0  0  0  0  0  0
    3.0320   69.2120   64.6930 C   0  0  0  0  0  0  0  0  0  0  0  0
    5.2830   68.2670   64.2390 C   0  0  0  0  0  0  0  0  0  0  0  0
    4.3250   68.7840   65.2180 N   0  0  0  0  0  0  0  0  0  0  0  0
    4.8260   69.5250   66.3010 C   0  0  0  0  0  0  0  0  0  0  0  0
    6.1590   69.9610   66.3790 C   0  0  0  0  0  0  0  0  0  0  0  0
    6.6290   70.6940   67.4760 C   0  0  0  0  0  0  0  0  0  0  0  0
    5.7780   70.9980   68.5320 C   0  0  0  0  0  0  0  0  0  0  0  0
    4.4590   70.5640   68.4930 C   0  0  0  0  0  0  0  0  0  0  0  0
    3.9950   69.8350   67.3930 C   0  0  0  0  0  0  0  0  0  0  0  0
   -0.2270   65.7690   70.5600 C   0  0  0  0  0  0  0  0  0  0  0  0
    0.7070   64.7190   71.2220 C   0  0  0  0  0  0  0  0  0  0  0  0
    0.5550   63.3510   70.7020 N   0  0  0  0  0  0  0  0  0  0  0  0
    1.1910   62.2450   71.2880 C   0  0  0  0  0  0  0  0  0  0  0  0
    2.5450   62.0470   70.9730 C   0  0  0  0  0  0  0  0  0  0  0  0
    3.3890   63.0300   70.1980 C   0  0  0  0  0  0  0  0  0  0  0  0
    4.8140   63.1180   70.7510 C   0  0  0  0  0  0  0  0  0  0  0  0
    5.4220   61.7810   71.1950 C   0  0  0  0  0  0  0  0  0  0  0  0
    4.5500   60.5650   70.8920 C   0  0  0  0  0  0  0  0  0  0  0  0
    3.1210   60.8240   71.2980 C   0  0  0  0  0  0  0  0  0  0  0  0
    2.4380   59.8360   71.9090 N   0  0  0  0  0  0  0  0  0  0  0  0
    1.2650   60.1440   72.4760 C   0  0  0  0  0  0  0  0  0  0  0  0
    0.5980   61.3640   72.2300 C   0  0  0  0  0  0  0  0  0  0  0  0
   -0.5990   61.6240   72.9430 C   0  0  0  0  0  0  0  0  0  0  0  0
   -1.1570   60.6780   73.8020 C   0  0  0  0  0  0  0  0  0  0  0  0
   -0.5200   59.4600   73.9800 C   0  0  0  0  0  0  0  0  0  0  0  0
    0.6850   59.2090   73.3250 C   0  0  0  0  0  0  0  0  0  0  0  0
    0.0423   69.0445   67.4961 H   0  0  0  0  0  0  0  0  0  0  0  0
    1.9646   66.8003   67.0228 H   0  0  0  0  0  0  0  0  0  0  0  0
    2.3740   68.4461   67.6580 H   0  0  0  0  0  0  0  0  0  0  0  0
    2.1956   66.6708   69.4454 H   0  0  0  0  0  0  0  0  0  0  0  0
    1.0590   68.0790   69.6471 H   0  0  0  0  0  0  0  0  0  0  0  0
    0.4538   65.4021   68.6277 H   0  0  0  0  0  0  0  0  0  0  0  0
   -1.8085   65.8623   68.2661 H   0  0  0  0  0  0  0  0  0  0  0  0
   -1.5447   67.5491   68.9075 H   0  0  0  0  0  0  0  0  0  0  0  0
   -0.4738   66.3590   66.3062 H   0  0  0  0  0  0  0  0  0  0  0  0
   -1.6692   67.7065   66.5226 H   0  0  0  0  0  0  0  0  0  0  0  0
   -0.1379   68.4803   64.8584 H   0  0  0  0  0  0  0  0  0  0  0  0
    0.8207   69.8377   65.5871 H   0  0  0  0  0  0  0  0  0  0  0  0
    2.3844   67.4453   65.7425 H   0  0  0  0  0  0  0  0  0  0  0  0
    1.7437   67.6225   64.0534 H   0  0  0  0  0  0  0  0  0  0  0  0
    3.1076   69.3562   63.6051 H   0  0  0  0  0  0  0  0  0  0  0  0
    2.7385   70.1592   65.1691 H   0  0  0  0  0  0  0  0  0  0  0  0
    6.1332   67.8082   64.7649 H   0  0  0  0  0  0  0  0  0  0  0  0
    4.7912   67.5118   63.6083 H   0  0  0  0  0  0  0  0  0  0  0  0
    5.6443   69.0926   63.6083 H   0  0  0  0  0  0  0  0  0  0  0  0
    6.8508   69.7208   65.5582 H   0  0  0  0  0  0  0  0  0  0  0  0
    7.6760   71.0305   67.5019 H   0  0  0  0  0  0  0  0  0  0  0  0
    6.1459   71.5775   69.3915 H   0  0  0  0  0  0  0  0  0  0  0  0
    3.7795   70.7936   69.3270 H   0  0  0  0  0  0  0  0  0  0  0  0
    2.9493   69.4940   67.3815 H   0  0  0  0  0  0  0  0  0  0  0  0
   -0.2301   66.6593   71.2060 H   0  0  0  0  0  0  0  0  0  0  0  0
   -1.1939   65.2547   70.4572 H   0  0  0  0  0  0  0  0  0  0  0  0
    1.7481   65.0345   71.0590 H   0  0  0  0  0  0  0  0  0  0  0  0
    0.4296   64.6812   72.2858 H   0  0  0  0  0  0  0  0  0  0  0  0
   -0.0412   63.1988   69.8760 H   0  0  0  0  0  0  0  0  0  0  0  0
    3.4345   62.7087   69.1469 H   0  0  0  0  0  0  0  0  0  0  0  0
    2.9257   64.0235   70.2888 H   0  0  0  0  0  0  0  0  0  0  0  0
    5.4585   63.5421   69.9670 H   0  0  0  0  0  0  0  0  0  0  0  0
    4.7548   63.7433   71.6541 H   0  0  0  0  0  0  0  0  0  0  0  0
    6.3850   61.6519   70.6793 H   0  0  0  0  0  0  0  0  0  0  0  0
    5.5271   61.8296   72.2889 H   0  0  0  0  0  0  0  0  0  0  0  0
    4.5869   60.3532   69.8132 H   0  0  0  0  0  0  0  0  0  0  0  0
    4.9306   59.7042   71.4613 H   0  0  0  0  0  0  0  0  0  0  0  0
   -1.0997   62.5951   72.8157 H   0  0  0  0  0  0  0  0  0  0  0  0
   -2.0948   60.8965   74.3339 H   0  0  0  0  0  0  0  0  0  0  0  0
   -0.9629   58.6951   74.6348 H   0  0  0  0  0  0  0  0  0  0  0  0
    1.1902   58.2450   73.4845 H   0  0  0  0  0  0  0  0  0  0  0  0
  2  1  1  0
  3  2  1  0
  4  3  1  0
  5  4  1  0
  6  5  1  0
  6  1  1  0
  7  1  1  0
  8  7  1  0
  9  8  1  0
 11 10  1  0
 11  9  1  0
 12 11  1  0
 13 12  2  0
 14 13  1  0
 15 14  2  0
 16 15  1  0
 17 16  2  0
 17 12  1  0
 18  4  1  0
 19 18  1  0
 20 19  1  0
 21 20  1  0
 22 21  1  0
 23 22  1  0
 24 23  1  0
 25 24  1  0
 26 25  1  0
 27 22  2  0
 27 26  1  0
 28 27  1  0
 29 28  2  0
 30 29  1  0
 30 21  2  0
 31 30  1  0
 32 31  2  0
 33 32  1  0
 34 33  2  0
 34 29  1  0
  1 35  1  0
  2 36  1  0
  2 37  1  0
  3 38  1  0
  3 39  1  0
  4 40  1  0
  5 41  1  0
  5 42  1  0
  6 43  1  0
  6 44  1  0
  7 45  1  0
  7 46  1  0
  8 47  1  0
  8 48  1  0
  9 49  1  0
  9 50  1  0
 10 51  1  0
 10 52  1  0
 10 53  1  0
 13 54  1  0
 14 55  1  0
 15 56  1  0
 16 57  1  0
 17 58  1  0
 18 59  1  0
 18 60  1  0
 19 61  1  0
 19 62  1  0
 20 63  1  0
 23 64  1  0
 23 65  1  0
 24 66  1  0
 24 67  1  0
 25 68  1  0
 25 69  1  0
 26 70  1  0
 26 71  1  0
 31 72  1  0
 32 73  1  0
 33 74  1  0
 34 75  1  0
M  CHG  2   1   1   4   1
M  END
>  <score>  (2) 
-11.26

$$$$
=
     RDKit          3D

 75 79  0  0  0  0  0  0  0  0999 V2000
    1.3090   63.4490   72.3390 N   0  0  0  0  0  4  0  0  0  0  0  0
    0.0040   64.2170   72.1380 C   0  0  0  0  0  0  0  0  0  0  0  0
    0.2540   65.5900   71.4750 C   0  0  0  0  0  0  0  0  0  0  0  0
    1.0650   65.4840   70.1920 N   0  0  0  0  0  4  0  0  0  0  0  0
    2.3080   64.6080   70.3010 C   0  0  0  0  0  0  0  0  0  0  0  0
    2.0390   63.2590   71.0100 C   0  0  0  0  0  0  0  0  0  0  0  0
    1.0510   62.1110   73.0450 C   0  0  0  0  0  0  0  0  0  0  0  0
    2.0540   61.8560   74.1620 C   0  0  0  0  0  0  0  0  0  0  0  0
    2.2030   60.3640   74.4710 C   0  0  0  0  0  0  0  0  0  0  0  0
    4.0370   58.7100   74.7330 C   0  0  0  0  0  0  0  0  0  0  0  0
    3.5330   59.9140   74.0700 N   0  0  0  0  0  0  0  0  0  0  0  0
    3.8690   60.1120   72.7200 C   0  0  0  0  0  0  0  0  0  0  0  0
    3.2170   59.4550   71.6640 C   0  0  0  0  0  0  0  0  0  0  0  0
    3.5790   59.6710   70.3290 C   0  0  0  0  0  0  0  0  0  0  0  0
    4.6160   60.5420   70.0160 C   0  0  0  0  0  0  0  0  0  0  0  0
    5.2940   61.1920   71.0400 C   0  0  0  0  0  0  0  0  0  0  0  0
    4.9240   60.9750   72.3720 C   0  0  0  0  0  0  0  0  0  0  0  0
    1.3570   66.8450   69.5140 C   0  0  0  0  0  0  0  0  0  0  0  0
    0.3890   67.3190   68.3950 C   0  0  0  0  0  0  0  0  0  0  0  0
    0.6490   68.6770   67.8950 N   0  0  0  0  0  0  0  0  0  0  0  0
    1.7510   68.9860   67.0820 C   0  0  0  0  0  0  0  0  0  0  0  0
    1.6160   68.7410   65.7060 C   0  0  0  0  0  0  0  0  0  0  0  0
    0.3250   68.3360   65.0370 C   0  0  0  0  0  0  0  0  0  0  0  0
    0.1550   69.0070   63.6710 C   0  0  0  0  0  0  0  0  0  0  0  0
    1.4400   69.1150   62.8370 C   0  0  0  0  0  0  0  0  0  0  0  0
    2.6490   68.4190   63.4580 C   0  0  0  0  0  0  0  0  0  0  0  0
    2.7640   68.7630   64.9210 C   0  0  0  0  0  0  0  0  0  0  0  0
    3.9870   69.0210   65.4260 N   0  0  0  0  0  0  0  0  0  0  0  0
    4.0590   69.5540   66.6520 C   0  0  0  0  0  0  0  0  0  0  0  0
    2.9510   69.5980   67.5270 C   0  0  0  0  0  0  0  0  0  0  0  0
    3.1130   70.2550   68.7730 C   0  0  0  0  0  0  0  0  0  0  0  0
    4.3450   70.7730   69.1700 C   0  0  0  0  0  0  0  0  0  0  0  0
    5.4370   70.6620   68.3230 C   0  0  0  0  0  0  0  0  0  0  0  0
    5.2810   70.0630   67.0730 C   0  0  0  0  0  0  0  0  0  0  0  0
    1.9237   64.0058   72.9498 H   0  0  0  0  0  0  0  0  0  0  0  0
   -0.6640   63.6253   71.4948 H   0  0  0  0  0  0  0  0  0  0  0  0
   -0.4530   64.3869   73.1241 H   0  0  0  0  0  0  0  0  0  0  0  0
   -0.7175   66.0494   71.2402 H   0  0  0  0  0  0  0  0  0  0  0  0
    0.8323   66.2007   72.1839 H   0  0  0  0  0  0  0  0  0  0  0  0
    0.4331   64.9820   69.5521 H   0  0  0  0  0  0  0  0  0  0  0  0
    2.6815   64.4023   69.2870 H   0  0  0  0  0  0  0  0  0  0  0  0
    3.0439   65.1564   70.9073 H   0  0  0  0  0  0  0  0  0  0  0  0
    1.4223   62.6285   70.3526 H   0  0  0  0  0  0  0  0  0  0  0  0
    3.0091   62.7844   71.2189 H   0  0  0  0  0  0  0  0  0  0  0  0
    0.0378   62.1243   73.4730 H   0  0  0  0  0  0  0  0  0  0  0  0
    1.1568   61.3072   72.3016 H   0  0  0  0  0  0  0  0  0  0  0  0
    3.0329   62.2550   73.8579 H   0  0  0  0  0  0  0  0  0  0  0  0
    1.6848   62.3553   75.0700 H   0  0  0  0  0  0  0  0  0  0  0  0
    2.0697   60.1980   75.5502 H   0  0  0  0  0  0  0  0  0  0  0  0
    1.4413   59.7969   73.9158 H   0  0  0  0  0  0  0  0  0  0  0  0
    3.9819   58.8417   75.8237 H   0  0  0  0  0  0  0  0  0  0  0  0
    3.4254   57.8450   74.4367 H   0  0  0  0  0  0  0  0  0  0  0  0
    5.0824   58.5386   74.4367 H   0  0  0  0  0  0  0  0  0  0  0  0
    2.4013   58.7530   71.8915 H   0  0  0  0  0  0  0  0  0  0  0  0
    3.0404   59.1491   69.5243 H   0  0  0  0  0  0  0  0  0  0  0  0
    4.8975   60.7152   68.9668 H   0  0  0  0  0  0  0  0  0  0  0  0
    6.1215   61.8771   70.8036 H   0  0  0  0  0  0  0  0  0  0  0  0
    5.4743   61.4945   73.1703 H   0  0  0  0  0  0  0  0  0  0  0  0
    1.3487   67.6126   70.3019 H   0  0  0  0  0  0  0  0  0  0  0  0
    2.3205   66.6993   69.0036 H   0  0  0  0  0  0  0  0  0  0  0  0
    0.4734   66.6202   67.5497 H   0  0  0  0  0  0  0  0  0  0  0  0
   -0.6166   67.3382   68.8404 H   0  0  0  0  0  0  0  0  0  0  0  0
   -0.0034   69.4317   68.1514 H   0  0  0  0  0  0  0  0  0  0  0  0
    0.3226   67.2446   64.8999 H   0  0  0  0  0  0  0  0  0  0  0  0
   -0.5077   68.6566   65.6804 H   0  0  0  0  0  0  0  0  0  0  0  0
   -0.5786   68.4251   63.0938 H   0  0  0  0  0  0  0  0  0  0  0  0
   -0.1681   70.0389   63.8732 H   0  0  0  0  0  0  0  0  0  0  0  0
    1.2508   68.6642   61.8516 H   0  0  0  0  0  0  0  0  0  0  0  0
    1.6881   70.1849   62.7753 H   0  0  0  0  0  0  0  0  0  0  0  0
    2.5345   67.3303   63.3503 H   0  0  0  0  0  0  0  0  0  0  0  0
    3.5586   68.7583   62.9408 H   0  0  0  0  0  0  0  0  0  0  0  0
    2.2462   70.3584   69.4422 H   0  0  0  0  0  0  0  0  0  0  0  0
    4.4498   71.2660   70.1477 H   0  0  0  0  0  0  0  0  0  0  0  0
    6.4203   71.0439   68.6348 H   0  0  0  0  0  0  0  0  0  0  0  0
    6.1497   69.9917   66.4020 H   0  0  0  0  0  0  0  0  0  0  0  0
  2  1  1  0
  3  2  1  0
  4  3  1  0
  5  4  1  0
  6  5  1  0
  6  1  1  0
  7  1  1  0
  8  7  1  0
  9  8  1  0
 11 10  1  0
 11  9  1  0
 12 11  1  0
 13 12  2  0
 14 13  1  0
 15 14  2  0
 16 15  1  0
 17 16  2  0
 17 12  1  0
 18  4  1  0
 19 18  1  0
 20 19  1  0
 21 20  1  0
 22 21  1  0
 23 22  1  0
 24 23  1  0
 25 24  1  0
 26 25  1  0
 27 22  2  0
 27 26  1  0
 28 27  1  0
 29 28  2  0
 30 29  1  0
 30 21  2  0
 31 30  1  0
 32 31  2  0
 33 32  1  0
 34 33  2  0
 34 29  1  0
  1 35  1  0
  2 36  1  0
  2 37  1  0
  3 38  1  0
  3 39  1  0
  4 40  1  0
  5 41  1  0
  5 42  1  0
  6 43  1  0
  6 44  1  0
  7 45  1  0
  7 46  1  0
  8 47  1  0
  8 48  1  0
  9 49  1  0
  9 50  1  0
 10 51  1  0
 10 52  1  0
 10 53  1  0
 13 54  1  0
 14 55  1  0
 15 56  1  0
 16 57  1  0
 17 58  1  0
 18 59  1  0
 18 60  1  0
 19 61  1  0
 19 62  1  0
 20 63  1  0
 23 64  1  0
 23 65  1  0
 24 66  1  0
 24 67  1  0
 25 68  1  0
 25 69  1  0
 26 70  1  0
 26 71  1  0
 31 72  1  0
 32 73  1  0
 33 74  1  0
 34 75  1  0
M  CHG  2   1   1   4   1
M  END
>  <score>  (3) 
-11.253

$$$$
=
     RDKit          3D

 75 79  0  0  0  0  0  0  0  0999 V2000
    1.6980   63.6870   72.2990 N   0  0  0  0  0  4  0  0  0  0  0  0
    0.2540   64.1820   72.3540 C   0  0  0  0  0  0  0  0  0  0  0  0
    0.0620   65.4570   71.5040 C   0  0  0  0  0  0  0  0  0  0  0  0
    0.5600   65.2920   70.0760 N   0  0  0  0  0  4  0  0  0  0  0  0
    1.9470   64.6680   69.9600 C   0  0  0  0  0  0  0  0  0  0  0  0
    2.1270   63.4200   70.8570 C   0  0  0  0  0  0  0  0  0  0  0  0
    1.8860   62.4520   73.1890 C   0  0  0  0  0  0  0  0  0  0  0  0
    3.2380   61.7890   72.9630 C   0  0  0  0  0  0  0  0  0  0  0  0
    3.2640   60.3470   73.4780 C   0  0  0  0  0  0  0  0  0  0  0  0
    3.5560   58.9560   71.4420 C   0  0  0  0  0  0  0  0  0  0  0  0
    2.6620   59.4640   72.4840 N   0  0  0  0  0  0  0  0  0  0  0  0
    1.6440   58.6150   72.9500 C   0  0  0  0  0  0  0  0  0  0  0  0
    0.4670   59.0890   73.5510 C   0  0  0  0  0  0  0  0  0  0  0  0
   -0.5270   58.2160   74.0100 C   0  0  0  0  0  0  0  0  0  0  0  0
   -0.3620   56.8420   73.8910 C   0  0  0  0  0  0  0  0  0  0  0  0
    0.8000   56.3410   73.3170 C   0  0  0  0  0  0  0  0  0  0  0  0
    1.7880   57.2190   72.8580 C   0  0  0  0  0  0  0  0  0  0  0  0
    0.4070   66.5610   69.2010 C   0  0  0  0  0  0  0  0  0  0  0  0
    1.5200   67.6420   69.2940 C   0  0  0  0  0  0  0  0  0  0  0  0
    1.3460   68.7790   68.3790 N   0  0  0  0  0  0  0  0  0  0  0  0
    2.2190   69.0280   67.3080 C   0  0  0  0  0  0  0  0  0  0  0  0
    1.7500   68.7240   66.0190 C   0  0  0  0  0  0  0  0  0  0  0  0
    0.3300   68.3170   65.7060 C   0  0  0  0  0  0  0  0  0  0  0  0
   -0.1620   68.9290   64.3920 C   0  0  0  0  0  0  0  0  0  0  0  0
    0.8800   68.9730   63.2660 C   0  0  0  0  0  0  0  0  0  0  0  0
    2.1980   68.2810   63.6060 C   0  0  0  0  0  0  0  0  0  0  0  0
    2.6710   68.6870   64.9790 C   0  0  0  0  0  0  0  0  0  0  0  0
    3.9820   68.9430   65.1570 N   0  0  0  0  0  0  0  0  0  0  0  0
    4.3570   69.5280   66.3010 C   0  0  0  0  0  0  0  0  0  0  0  0
    3.4970   69.6350   67.4170 C   0  0  0  0  0  0  0  0  0  0  0  0
    3.9650   70.3440   68.5510 C   0  0  0  0  0  0  0  0  0  0  0  0
    5.2610   70.8540   68.6100 C   0  0  0  0  0  0  0  0  0  0  0  0
    6.1110   70.6810   67.5290 C   0  0  0  0  0  0  0  0  0  0  0  0
    5.6490   70.0300   66.3850 C   0  0  0  0  0  0  0  0  0  0  0  0
    2.3104   64.4280   72.6690 H   0  0  0  0  0  0  0  0  0  0  0  0
   -0.4095   63.3930   71.9704 H   0  0  0  0  0  0  0  0  0  0  0  0
    0.0106   64.4232   73.3993 H   0  0  0  0  0  0  0  0  0  0  0  0
   -1.0097   65.7034   71.4765 H   0  0  0  0  0  0  0  0  0  0  0  0
    0.6524   66.2592   71.9708 H   0  0  0  0  0  0  0  0  0  0  0  0
   -0.0874   64.5972   69.6771 H   0  0  0  0  0  0  0  0  0  0  0  0
    2.1122   64.3737   68.9131 H   0  0  0  0  0  0  0  0  0  0  0  0
    2.6751   65.4213   70.2953 H   0  0  0  0  0  0  0  0  0  0  0  0
    1.5173   62.5994   70.4509 H   0  0  0  0  0  0  0  0  0  0  0  0
    3.1948   63.1559   70.8628 H   0  0  0  0  0  0  0  0  0  0  0  0
    1.8121   62.7586   74.2428 H   0  0  0  0  0  0  0  0  0  0  0  0
    1.1024   61.7242   72.9316 H   0  0  0  0  0  0  0  0  0  0  0  0
    3.4555   61.7848   71.8847 H   0  0  0  0  0  0  0  0  0  0  0  0
    3.9942   62.3619   73.5197 H   0  0  0  0  0  0  0  0  0  0  0  0
    4.3051   60.0407   73.6579 H   0  0  0  0  0  0  0  0  0  0  0  0
    2.6952   60.2830   74.4174 H   0  0  0  0  0  0  0  0  0  0  0  0
    4.4217   58.4641   71.9095 H   0  0  0  0  0  0  0  0  0  0  0  0
    3.0153   58.2302   70.8168 H   0  0  0  0  0  0  0  0  0  0  0  0
    3.9027   59.7920   70.8168 H   0  0  0  0  0  0  0  0  0  0  0  0
    0.3220   60.1735   73.6642 H   0  0  0  0  0  0  0  0  0  0  0  0
   -1.4425   58.6201   74.4668 H   0  0  0  0  0  0  0  0  0  0  0  0
   -1.1445   56.1563   74.2481 H   0  0  0  0  0  0  0  0  0  0  0  0
    0.9431   55.2544   73.2235 H   0  0  0  0  0  0  0  0  0  0  0  0
    2.7044   56.8052   72.4120 H   0  0  0  0  0  0  0  0  0  0  0  0
    0.3550   66.2326   68.1525 H   0  0  0  0  0  0  0  0  0  0  0  0
   -0.4954   67.0575   69.5872 H   0  0  0  0  0  0  0  0  0  0  0  0
    1.5370   68.0294   70.3234 H   0  0  0  0  0  0  0  0  0  0  0  0
    2.4592   67.1486   69.0034 H   0  0  0  0  0  0  0  0  0  0  0  0
    0.5525   69.4182   68.5294 H   0  0  0  0  0  0  0  0  0  0  0  0
    0.2832   67.2208   65.6274 H   0  0  0  0  0  0  0  0  0  0  0  0
   -0.3167   68.6840   66.5166 H   0  0  0  0  0  0  0  0  0  0  0  0
   -1.0197   68.3370   64.0401 H   0  0  0  0  0  0  0  0  0  0  0  0
   -0.4158   69.9755   64.6166 H   0  0  0  0  0  0  0  0  0  0  0  0
    0.4513   68.4823   62.3798 H   0  0  0  0  0  0  0  0  0  0  0  0
    1.1149   70.0337   63.0938 H   0  0  0  0  0  0  0  0  0  0  0  0
    2.0510   67.1911   63.5817 H   0  0  0  0  0  0  0  0  0  0  0  0
    2.9563   68.5789   62.8669 H   0  0  0  0  0  0  0  0  0  0  0  0
    3.2892   70.4957   69.4056 H   0  0  0  0  0  0  0  0  0  0  0  0
    5.6062   71.3892   69.5069 H   0  0  0  0  0  0  0  0  0  0  0  0
    7.1445   71.0551   67.5729 H   0  0  0  0  0  0  0  0  0  0  0  0
    6.3263   69.9111   65.5264 H   0  0  0  0  0  0  0  0  0  0  0  0
  2  1  1  0
  3  2  1  0
  4  3  1  0
  5  4  1  0
  6  5  1  0
  6  1  1  0
  7  1  1  0
  8  7  1  0
  9  8  1  0
 11 10  1  0
 11  9  1  0
 12 11  1  0
 13 12  2  0
 14 13  1  0
 15 14  2  0
 16 15  1  0
 17 16  2  0
 17 12  1  0
 18  4  1  0
 19 18  1  0
 20 19  1  0
 21 20  1  0
 22 21  1  0
 23 22  1  0
 24 23  1  0
 25 24  1  0
 26 25  1  0
 27 22  2  0
 27 26  1  0
 28 27  1  0
 29 28  2  0
 30 29  1  0
 30 21  2  0
 31 30  1  0
 32 31  2  0
 33 32  1  0
 34 33  2  0
 34 29  1  0
  1 35  1  0
  2 36  1  0
  2 37  1  0
  3 38  1  0
  3 39  1  0
  4 40  1  0
  5 41  1  0
  5 42  1  0
  6 43  1  0
  6 44  1  0
  7 45  1  0
  7 46  1  0
  8 47  1  0
  8 48  1  0
  9 49  1  0
  9 50  1  0
 10 51  1  0
 10 52  1  0
 10 53  1  0
 13 54  1  0
 14 55  1  0
 15 56  1  0
 16 57  1  0
 17 58  1  0
 18 59  1  0
 18 60  1  0
 19 61  1  0
 19 62  1  0
 20 63  1  0
 23 64  1  0
 23 65  1  0
 24 66  1  0
 24 67  1  0
 25 68  1  0
 25 69  1  0
 26 70  1  0
 26 71  1  0
 31 72  1  0
 32 73  1  0
 33 74  1  0
 34 75  1  0
M  CHG  2   1   1   4   1
M  END
>  <score>  (4) 
-10.887

$$$$
=
     RDKit          3D

 75 79  0  0  0  0  0  0  0  0999 V2000
    0.3330   68.1540   67.3290 N   0  0  0  0  0  4  0  0  0  0  0  0
    1.6180   67.5910   67.9350 C   0  0  0  0  0  0  0  0  0  0  0  0
    1.3790   67.0540   69.3630 C   0  0  0  0  0  0  0  0  0  0  0  0
    0.2260   66.0640   69.4340 N   0  0  0  0  0  4  0  0  0  0  0  0
   -1.0420   66.5200   68.7190 C   0  0  0  0  0  0  0  0  0  0  0  0
   -0.7690   67.0960   67.3090 C   0  0  0  0  0  0  0  0  0  0  0  0
    0.5960   68.7310   65.9320 C   0  0  0  0  0  0  0  0  0  0  0  0
    1.8180   68.1000   65.2780 C   0  0  0  0  0  0  0  0  0  0  0  0
    2.8320   69.1520   64.8210 C   0  0  0  0  0  0  0  0  0  0  0  0
    5.0740   68.2780   64.2080 C   0  0  0  0  0  0  0  0  0  0  0  0
    4.1710   68.7600   65.2530 N   0  0  0  0  0  0  0  0  0  0  0  0
    4.7220   69.5090   66.3060 C   0  0  0  0  0  0  0  0  0  0  0  0
    6.0650   69.9180   66.3330 C   0  0  0  0  0  0  0  0  0  0  0  0
    6.5860   70.6610   67.4000 C   0  0  0  0  0  0  0  0  0  0  0  0
    5.7770   71.0010   68.4780 C   0  0  0  0  0  0  0  0  0  0  0  0
    4.4480   70.5940   68.4890 C   0  0  0  0  0  0  0  0  0  0  0  0
    3.9330   69.8550   67.4180 C   0  0  0  0  0  0  0  0  0  0  0  0
   -0.0590   65.5250   70.8580 C   0  0  0  0  0  0  0  0  0  0  0  0
   -0.1350   63.9850   71.0470 C   0  0  0  0  0  0  0  0  0  0  0  0
    0.8740   63.4290   71.9610 N   0  0  0  0  0  0  0  0  0  0  0  0
    1.2570   62.0790   71.9340 C   0  0  0  0  0  0  0  0  0  0  0  0
    0.5970   61.2110   72.8190 C   0  0  0  0  0  0  0  0  0  0  0  0
   -0.5950   61.6000   73.6590 C   0  0  0  0  0  0  0  0  0  0  0  0
   -1.6230   60.4680   73.7480 C   0  0  0  0  0  0  0  0  0  0  0  0
   -1.0280   59.0600   73.8810 C   0  0  0  0  0  0  0  0  0  0  0  0
    0.4910   59.0340   74.0320 C   0  0  0  0  0  0  0  0  0  0  0  0
    1.1390   59.9470   73.0220 C   0  0  0  0  0  0  0  0  0  0  0  0
    2.2550   59.5230   72.3960 N   0  0  0  0  0  0  0  0  0  0  0  0
    2.6860   60.2240   71.3400 C   0  0  0  0  0  0  0  0  0  0  0  0
    2.1940   61.5120   71.0310 C   0  0  0  0  0  0  0  0  0  0  0  0
    2.6590   62.1340   69.8460 C   0  0  0  0  0  0  0  0  0  0  0  0
    3.6340   61.5420   69.0450 C   0  0  0  0  0  0  0  0  0  0  0  0
    4.1520   60.3070   69.4010 C   0  0  0  0  0  0  0  0  0  0  0  0
    3.6670   59.6580   70.5370 C   0  0  0  0  0  0  0  0  0  0  0  0
    0.0043   68.9275   67.9244 H   0  0  0  0  0  0  0  0  0  0  0  0
    1.9833   66.7702   67.3004 H   0  0  0  0  0  0  0  0  0  0  0  0
    2.3594   68.4018   67.9895 H   0  0  0  0  0  0  0  0  0  0  0  0
    2.2951   66.5522   69.7079 H   0  0  0  0  0  0  0  0  0  0  0  0
    1.1194   67.9118   70.0008 H   0  0  0  0  0  0  0  0  0  0  0  0
    0.5707   65.2581   68.8930 H   0  0  0  0  0  0  0  0  0  0  0  0
   -1.7178   65.6577   68.6203 H   0  0  0  0  0  0  0  0  0  0  0  0
   -1.4875   67.3250   69.3219 H   0  0  0  0  0  0  0  0  0  0  0  0
   -0.4625   66.2759   66.6431 H   0  0  0  0  0  0  0  0  0  0  0  0
   -1.6932   67.5733   66.9511 H   0  0  0  0  0  0  0  0  0  0  0  0
   -0.2833   68.5432   65.2983 H   0  0  0  0  0  0  0  0  0  0  0  0
    0.7849   69.8094   66.0385 H   0  0  0  0  0  0  0  0  0  0  0  0
    2.3033   67.4308   66.0037 H   0  0  0  0  0  0  0  0  0  0  0  0
    1.4798   67.5461   64.3899 H   0  0  0  0  0  0  0  0  0  0  0  0
    2.8093   69.2305   63.7240 H   0  0  0  0  0  0  0  0  0  0  0  0
    2.5747   70.1252   65.2645 H   0  0  0  0  0  0  0  0  0  0  0  0
    5.9539   67.8083   64.6718 H   0  0  0  0  0  0  0  0  0  0  0  0
    4.5506   67.5393   63.5832 H   0  0  0  0  0  0  0  0  0  0  0  0
    5.3965   69.1240   63.5832 H   0  0  0  0  0  0  0  0  0  0  0  0
    6.7246   69.6481   65.4951 H   0  0  0  0  0  0  0  0  0  0  0  0
    7.6396   70.9767   67.3848 H   0  0  0  0  0  0  0  0  0  0  0  0
    6.1849   71.5869   69.3149 H   0  0  0  0  0  0  0  0  0  0  0  0
    3.8008   70.8529   69.3399 H   0  0  0  0  0  0  0  0  0  0  0  0
    2.8808   69.5355   67.4465 H   0  0  0  0  0  0  0  0  0  0  0  0
    0.7400   65.8974   71.5159 H   0  0  0  0  0  0  0  0  0  0  0  0
   -1.0721   65.8835   71.0926 H   0  0  0  0  0  0  0  0  0  0  0  0
   -1.1306   63.7369   71.4434 H   0  0  0  0  0  0  0  0  0  0  0  0
    0.0601   63.5402   70.0601 H   0  0  0  0  0  0  0  0  0  0  0  0
    1.3172   64.0552   72.6483 H   0  0  0  0  0  0  0  0  0  0  0  0
   -0.2498   61.8478   74.6736 H   0  0  0  0  0  0  0  0  0  0  0  0
   -1.0801   62.4653   73.1836 H   0  0  0  0  0  0  0  0  0  0  0  0
   -2.2597   60.6536   74.6256 H   0  0  0  0  0  0  0  0  0  0  0  0
   -2.1756   60.4794   72.7969 H   0  0  0  0  0  0  0  0  0  0  0  0
   -1.4709   58.5806   74.7664 H   0  0  0  0  0  0  0  0  0  0  0  0
   -1.2618   58.5286   72.9467 H   0  0  0  0  0  0  0  0  0  0  0  0
    0.7596   59.3670   75.0454 H   0  0  0  0  0  0  0  0  0  0  0  0
    0.8473   58.0072   73.8627 H   0  0  0  0  0  0  0  0  0  0  0  0
    2.2405   63.1076   69.5510 H   0  0  0  0  0  0  0  0  0  0  0  0
    3.9896   62.0513   68.1371 H   0  0  0  0  0  0  0  0  0  0  0  0
    4.9406   59.8412   68.7918 H   0  0  0  0  0  0  0  0  0  0  0  0
    4.0730   58.6710   70.8036 H   0  0  0  0  0  0  0  0  0  0  0  0
  2  1  1  0
  3  2  1  0
  4  3  1  0
  5  4  1  0
  6  5  1  0
  6  1  1  0
  7  1  1  0
  8  7  1  0
  9  8  1  0
 11 10  1  0
 11  9  1  0
 12 11  1  0
 13 12  2  0
 14 13  1  0
 15 14  2  0
 16 15  1  0
 17 16  2  0
 17 12  1  0
 18  4  1  0
 19 18  1  0
 20 19  1  0
 21 20  1  0
 22 21  1  0
 23 22  1  0
 24 23  1  0
 25 24  1  0
 26 25  1  0
 27 22  2  0
 27 26  1  0
 28 27  1  0
 29 28  2  0
 30 29  1  0
 30 21  2  0
 31 30  1  0
 32 31  2  0
 33 32  1  0
 34 33  2  0
 34 29  1  0
  1 35  1  0
  2 36  1  0
  2 37  1  0
  3 38  1  0
  3 39  1  0
  4 40  1  0
  5 41  1  0
  5 42  1  0
  6 43  1  0
  6 44  1  0
  7 45  1  0
  7 46  1  0
  8 47  1  0
  8 48  1  0
  9 49  1  0
  9 50  1  0
 10 51  1  0
 10 52  1  0
 10 53  1  0
 13 54  1  0
 14 55  1  0
 15 56  1  0
 16 57  1  0
 17 58  1  0
 18 59  1  0
 18 60  1  0
 19 61  1  0
 19 62  1  0
 20 63  1  0
 23 64  1  0
 23 65  1  0
 24 66  1  0
 24 67  1  0
 25 68  1  0
 25 69  1  0
 26 70  1  0
 26 71  1  0
 31 72  1  0
 32 73  1  0
 33 74  1  0
 34 75  1  0
M  CHG  2   1   1   4   1
M  END
>  <score>  (5) 
-10.576

$$$$
=
     RDKit          3D

 75 79  0  0  0  0  0  0  0  0999 V2000
   -0.0790   68.3030   66.6770 N   0  0  0  0  0  4  0  0  0  0  0  0
    1.3310   67.9320   67.1320 C   0  0  0  0  0  0  0  0  0  0  0  0
    1.3570   67.5460   68.6280 C   0  0  0  0  0  0  0  0  0  0  0  0
    0.3370   66.4710   68.9750 N   0  0  0  0  0  4  0  0  0  0  0  0
   -1.0610   66.7260   68.4200 C   0  0  0  0  0  0  0  0  0  0  0  0
   -1.0550   67.1550   66.9340 C   0  0  0  0  0  0  0  0  0  0  0  0
   -0.0810   68.7350   65.2040 C   0  0  0  0  0  0  0  0  0  0  0  0
    1.3310   68.9140   64.6640 C   0  0  0  0  0  0  0  0  0  0  0  0
    1.6430   67.9280   63.5340 C   0  0  0  0  0  0  0  0  0  0  0  0
    3.9570   68.7630   63.8780 C   0  0  0  0  0  0  0  0  0  0  0  0
    3.0770   67.6520   63.5100 N   0  0  0  0  0  0  0  0  0  0  0  0
    3.4620   66.3550   63.8860 C   0  0  0  0  0  0  0  0  0  0  0  0
    2.9030   65.6790   64.9830 C   0  0  0  0  0  0  0  0  0  0  0  0
    3.3120   64.3870   65.3360 C   0  0  0  0  0  0  0  0  0  0  0  0
    4.3030   63.7420   64.6060 C   0  0  0  0  0  0  0  0  0  0  0  0
    4.8880   64.3920   63.5260 C   0  0  0  0  0  0  0  0  0  0  0  0
    4.4730   65.6810   63.1770 C   0  0  0  0  0  0  0  0  0  0  0  0
    0.3170   66.0790   70.4730 C   0  0  0  0  0  0  0  0  0  0  0  0
    0.0090   64.5980   70.8280 C   0  0  0  0  0  0  0  0  0  0  0  0
    0.9340   63.9960   71.7990 N   0  0  0  0  0  0  0  0  0  0  0  0
    1.3050   62.6420   71.7530 C   0  0  0  0  0  0  0  0  0  0  0  0
    0.6360   61.7670   72.6240 C   0  0  0  0  0  0  0  0  0  0  0  0
   -0.5550   62.1540   73.4670 C   0  0  0  0  0  0  0  0  0  0  0  0
   -1.5930   61.0310   73.5370 C   0  0  0  0  0  0  0  0  0  0  0  0
   -1.0110   59.6150   73.6500 C   0  0  0  0  0  0  0  0  0  0  0  0
    0.5070   59.5730   73.8030 C   0  0  0  0  0  0  0  0  0  0  0  0
    1.1650   60.4950   72.8080 C   0  0  0  0  0  0  0  0  0  0  0  0
    2.2790   60.0700   72.1780 N   0  0  0  0  0  0  0  0  0  0  0  0
    2.7180   60.7840   71.1340 C   0  0  0  0  0  0  0  0  0  0  0  0
    2.2380   62.0800   70.8430 C   0  0  0  0  0  0  0  0  0  0  0  0
    2.7110   62.7170   69.6680 C   0  0  0  0  0  0  0  0  0  0  0  0
    3.6820   62.1280   68.8600 C   0  0  0  0  0  0  0  0  0  0  0  0
    4.1880   60.8820   69.1980 C   0  0  0  0  0  0  0  0  0  0  0  0
    3.6950   60.2210   70.3230 C   0  0  0  0  0  0  0  0  0  0  0  0
   -0.3991   69.1078   67.2345 H   0  0  0  0  0  0  0  0  0  0  0  0
    1.6866   67.0786   66.5359 H   0  0  0  0  0  0  0  0  0  0  0  0
    1.9826   68.8066   66.9886 H   0  0  0  0  0  0  0  0  0  0  0  0
    2.3610   67.1722   68.8776 H   0  0  0  0  0  0  0  0  0  0  0  0
    1.1021   68.4454   69.2077 H   0  0  0  0  0  0  0  0  0  0  0  0
    0.6836   65.6413   68.4727 H   0  0  0  0  0  0  0  0  0  0  0  0
   -1.6494   65.8015   68.5151 H   0  0  0  0  0  0  0  0  0  0  0  0
   -1.4976   67.5535   68.9985 H   0  0  0  0  0  0  0  0  0  0  0  0
   -0.7616   66.2935   66.3162 H   0  0  0  0  0  0  0  0  0  0  0  0
   -2.0661   67.5022   66.6749 H   0  0  0  0  0  0  0  0  0  0  0  0
   -0.5949   67.9661   64.6084 H   0  0  0  0  0  0  0  0  0  0  0  0
   -0.5989   69.7029   65.1329 H   0  0  0  0  0  0  0  0  0  0  0  0
    1.4369   69.9393   64.2799 H   0  0  0  0  0  0  0  0  0  0  0  0
    2.0359   68.7221   65.4864 H   0  0  0  0  0  0  0  0  0  0  0  0
    1.0921   66.9909   63.7027 H   0  0  0  0  0  0  0  0  0  0  0  0
    1.3378   68.3650   62.5718 H   0  0  0  0  0  0  0  0  0  0  0  0
    4.0155   68.8369   64.9740 H   0  0  0  0  0  0  0  0  0  0  0  0
    4.9623   68.5857   63.4682 H   0  0  0  0  0  0  0  0  0  0  0  0
    3.5542   69.7010   63.4682 H   0  0  0  0  0  0  0  0  0  0  0  0
    2.1245   66.1769   65.5797 H   0  0  0  0  0  0  0  0  0  0  0  0
    2.8469   63.8807   66.1947 H   0  0  0  0  0  0  0  0  0  0  0  0
    4.6217   62.7256   64.8807 H   0  0  0  0  0  0  0  0  0  0  0  0
    5.6776   63.8925   62.9455 H   0  0  0  0  0  0  0  0  0  0  0  0
    4.9512   66.1828   62.3229 H   0  0  0  0  0  0  0  0  0  0  0  0
    1.3074   66.3172   70.8882 H   0  0  0  0  0  0  0  0  0  0  0  0
   -0.5235   66.6473   70.8979 H   0  0  0  0  0  0  0  0  0  0  0  0
   -1.0070   64.5498   71.2467 H   0  0  0  0  0  0  0  0  0  0  0  0
    0.1193   64.0247   69.8957 H   0  0  0  0  0  0  0  0  0  0  0  0
    1.3258   64.5909   72.5430 H   0  0  0  0  0  0  0  0  0  0  0  0
   -0.2101   62.3836   74.4860 H   0  0  0  0  0  0  0  0  0  0  0  0
   -1.0312   63.0303   73.0030 H   0  0  0  0  0  0  0  0  0  0  0  0
   -2.2297   61.2093   74.4161 H   0  0  0  0  0  0  0  0  0  0  0  0
   -2.1435   61.0618   72.5852 H   0  0  0  0  0  0  0  0  0  0  0  0
   -1.4598   59.1265   74.5275 H   0  0  0  0  0  0  0  0  0  0  0  0
   -1.2481   59.0996   72.7076 H   0  0  0  0  0  0  0  0  0  0  0  0
    0.7768   59.8883   74.8217 H   0  0  0  0  0  0  0  0  0  0  0  0
    0.8543   58.5456   73.6189 H   0  0  0  0  0  0  0  0  0  0  0  0
    2.3021   63.6989   69.3875 H   0  0  0  0  0  0  0  0  0  0  0  0
    4.0443   62.6478   67.9608 H   0  0  0  0  0  0  0  0  0  0  0  0
    4.9731   60.4179   68.5830 H   0  0  0  0  0  0  0  0  0  0  0  0
    4.0910   59.2261   70.5749 H   0  0  0  0  0  0  0  0  0  0  0  0
  2  1  1  0
  3  2  1  0
  4  3  1  0
  5  4  1  0
  6  5  1  0
  6  1  1  0
  7  1  1  0
  8  7  1  0
  9  8  1  0
 11 10  1  0
 11  9  1  0
 12 11  1  0
 13 12  2  0
 14 13  1  0
 15 14  2  0
 16 15  1  0
 17 16  2  0
 17 12  1  0
 18  4  1  0
 19 18  1  0
 20 19  1  0
 21 20  1  0
 22 21  1  0
 23 22  1  0
 24 23  1  0
 25 24  1  0
 26 25  1  0
 27 22  2  0
 27 26  1  0
 28 27  1  0
 29 28  2  0
 30 29  1  0
 30 21  2  0
 31 30  1  0
 32 31  2  0
 33 32  1  0
 34 33  2  0
 34 29  1  0
  1 35  1  0
  2 36  1  0
  2 37  1  0
  3 38  1  0
  3 39  1  0
  4 40  1  0
  5 41  1  0
  5 42  1  0
  6 43  1  0
  6 44  1  0
  7 45  1  0
  7 46  1  0
  8 47  1  0
  8 48  1  0
  9 49  1  0
  9 50  1  0
 10 51  1  0
 10 52  1  0
 10 53  1  0
 13 54  1  0
 14 55  1  0
 15 56  1  0
 16 57  1  0
 17 58  1  0
 18 59  1  0
 18 60  1  0
 19 61  1  0
 19 62  1  0
 20 63  1  0
 23 64  1  0
 23 65  1  0
 24 66  1  0
 24 67  1  0
 25 68  1  0
 25 69  1  0
 26 70  1  0
 26 71  1  0
 31 72  1  0
 32 73  1  0
 33 74  1  0
 34 75  1  0
M  CHG  2   1   1   4   1
M  END
>  <score>  (6) 
-10.423

$$$$
=
     RDKit          3D

 75 79  0  0  0  0  0  0  0  0999 V2000
    0.2060   66.0480   70.5590 N   0  0  0  0  0  4  0  0  0  0  0  0
   -0.8310   65.6460   69.5120 C   0  0  0  0  0  0  0  0  0  0  0  0
   -1.0730   66.7810   68.4930 C   0  0  0  0  0  0  0  0  0  0  0  0
    0.2160   67.2890   67.8620 N   0  0  0  0  0  4  0  0  0  0  0  0
    1.3360   67.5720   68.8570 C   0  0  0  0  0  0  0  0  0  0  0  0
    1.5260   66.4400   69.8950 C   0  0  0  0  0  0  0  0  0  0  0  0
    0.3970   64.9310   71.5940 C   0  0  0  0  0  0  0  0  0  0  0  0
    0.6480   63.5820   70.9340 C   0  0  0  0  0  0  0  0  0  0  0  0
    0.3550   62.4160   71.8820 C   0  0  0  0  0  0  0  0  0  0  0  0
    1.3180   61.6180   74.0270 C   0  0  0  0  0  0  0  0  0  0  0  0
    1.5470   62.1180   72.6710 N   0  0  0  0  0  0  0  0  0  0  0  0
    2.6460   61.6110   71.9590 C   0  0  0  0  0  0  0  0  0  0  0  0
    2.6830   60.3100   71.4320 C   0  0  0  0  0  0  0  0  0  0  0  0
    3.7970   59.8320   70.7300 C   0  0  0  0  0  0  0  0  0  0  0  0
    4.9110   60.6420   70.5490 C   0  0  0  0  0  0  0  0  0  0  0  0
    4.9130   61.9280   71.0750 C   0  0  0  0  0  0  0  0  0  0  0  0
    3.7960   62.4000   71.7730 C   0  0  0  0  0  0  0  0  0  0  0  0
    0.0130   68.4470   66.8540 C   0  0  0  0  0  0  0  0  0  0  0  0
    0.8100   68.3930   65.5210 C   0  0  0  0  0  0  0  0  0  0  0  0
    2.1600   67.8210   65.6370 N   0  0  0  0  0  0  0  0  0  0  0  0
    3.3210   68.5590   65.3590 C   0  0  0  0  0  0  0  0  0  0  0  0
    3.7780   68.5520   64.0310 C   0  0  0  0  0  0  0  0  0  0  0  0
    3.0150   67.9540   62.8730 C   0  0  0  0  0  0  0  0  0  0  0  0
    3.1470   68.8020   61.6050 C   0  0  0  0  0  0  0  0  0  0  0  0
    4.5390   69.4020   61.3670 C   0  0  0  0  0  0  0  0  0  0  0  0
    5.5960   68.9470   62.3700 C   0  0  0  0  0  0  0  0  0  0  0  0
    5.0600   69.0250   63.7770 C   0  0  0  0  0  0  0  0  0  0  0  0
    5.8680   69.4980   64.7470 N   0  0  0  0  0  0  0  0  0  0  0  0
    5.3190   69.7880   65.9330 C   0  0  0  0  0  0  0  0  0  0  0  0
    4.0180   69.3710   66.2910 C   0  0  0  0  0  0  0  0  0  0  0  0
    3.5020   69.8000   67.5390 C   0  0  0  0  0  0  0  0  0  0  0  0
    4.2740   70.5410   68.4330 C   0  0  0  0  0  0  0  0  0  0  0  0
    5.5720   70.8850   68.0900 C   0  0  0  0  0  0  0  0  0  0  0  0
    6.0770   70.5140   66.8430 C   0  0  0  0  0  0  0  0  0  0  0  0
   -0.1426   66.8767   71.0615 H   0  0  0  0  0  0  0  0  0  0  0  0
   -0.4718   64.7549   68.9764 H   0  0  0  0  0  0  0  0  0  0  0  0
   -1.7797   65.4359   70.0276 H   0  0  0  0  0  0  0  0  0  0  0  0
   -1.7303   66.4038   67.6957 H   0  0  0  0  0  0  0  0  0  0  0  0
   -1.5314   67.6215   69.0346 H   0  0  0  0  0  0  0  0  0  0  0  0
    0.5415   66.4862   67.3048 H   0  0  0  0  0  0  0  0  0  0  0  0
    2.2760   67.6974   68.2997 H   0  0  0  0  0  0  0  0  0  0  0  0
    1.0610   68.4819   69.4105 H   0  0  0  0  0  0  0  0  0  0  0  0
    1.9442   65.5584   69.3872 H   0  0  0  0  0  0  0  0  0  0  0  0
    2.2060   66.8063   70.6782 H   0  0  0  0  0  0  0  0  0  0  0  0
    1.2578   65.1805   72.2317 H   0  0  0  0  0  0  0  0  0  0  0  0
   -0.5265   64.8539   72.1866 H   0  0  0  0  0  0  0  0  0  0  0  0
   -0.0009   63.4928   70.0503 H   0  0  0  0  0  0  0  0  0  0  0  0
    1.7107   63.5333   70.6540 H   0  0  0  0  0  0  0  0  0  0  0  0
   -0.4711   62.6894   72.5549 H   0  0  0  0  0  0  0  0  0  0  0  0
    0.0726   61.5292   71.2957 H   0  0  0  0  0  0  0  0  0  0  0  0
    1.6608   62.3665   74.7566 H   0  0  0  0  0  0  0  0  0  0  0  0
    0.2439   61.4298   74.1719 H   0  0  0  0  0  0  0  0  0  0  0  0
    1.8771   60.6818   74.1719 H   0  0  0  0  0  0  0  0  0  0  0  0
    1.8151   59.6493   71.5740 H   0  0  0  0  0  0  0  0  0  0  0  0
    3.7897   58.8111   70.3204 H   0  0  0  0  0  0  0  0  0  0  0  0
    5.7841   60.2684   69.9939 H   0  0  0  0  0  0  0  0  0  0  0  0
    5.7927   62.5750   70.9427 H   0  0  0  0  0  0  0  0  0  0  0  0
    3.8176   63.4182   72.1887 H   0  0  0  0  0  0  0  0  0  0  0  0
   -1.0561   68.4747   66.5966 H   0  0  0  0  0  0  0  0  0  0  0  0
    0.3986   69.3373   67.3723 H   0  0  0  0  0  0  0  0  0  0  0  0
    0.2396   67.7834   64.8048 H   0  0  0  0  0  0  0  0  0  0  0  0
    0.9402   69.4350   65.1935 H   0  0  0  0  0  0  0  0  0  0  0  0
    2.2573   66.8396   65.9341 H   0  0  0  0  0  0  0  0  0  0  0  0
    3.4081   66.9469   62.6700 H   0  0  0  0  0  0  0  0  0  0  0  0
    1.9508   67.9156   63.1488 H   0  0  0  0  0  0  0  0  0  0  0  0
    2.8974   68.1667   60.7424 H   0  0  0  0  0  0  0  0  0  0  0  0
    2.4632   69.6541   61.7330 H   0  0  0  0  0  0  0  0  0  0  0  0
    4.8720   69.1121   60.3595 H   0  0  0  0  0  0  0  0  0  0  0  0
    4.4385   70.4910   61.4856 H   0  0  0  0  0  0  0  0  0  0  0  0
    5.8809   67.9079   62.1487 H   0  0  0  0  0  0  0  0  0  0  0  0
    6.4718   69.6074   62.2868 H   0  0  0  0  0  0  0  0  0  0  0  0
    2.4673   69.5422   67.8091 H   0  0  0  0  0  0  0  0  0  0  0  0
    3.8562   70.8500   69.4025 H   0  0  0  0  0  0  0  0  0  0  0  0
    6.2004   71.4471   68.7965 H   0  0  0  0  0  0  0  0  0  0  0  0
    7.1032   70.8044   66.5734 H   0  0  0  0  0  0  0  0  0  0  0  0
  2  1  1  0
  3  2  1  0
  4  3  1  0
  5  4  1  0
  6  5  1  0
  6  1  1  0
  7  1  1  0
  8  7  1  0
  9  8  1  0
 11 10  1  0
 11  9  1  0
 12 11  1  0
 13 12  2  0
 14 13  1  0
 15 14  2  0
 16 15  1  0
 17 16  2  0
 17 12  1  0
 18  4  1  0
 19 18  1  0
 20 19  1  0
 21 20  1  0
 22 21  1  0
 23 22  1  0
 24 23  1  0
 25 24  1  0
 26 25  1  0
 27 22  2  0
 27 26  1  0
 28 27  1  0
 29 28  2  0
 30 29  1  0
 30 21  2  0
 31 30  1  0
 32 31  2  0
 33 32  1  0
 34 33  2  0
 34 29  1  0
  1 35  1  0
  2 36  1  0
  2 37  1  0
  3 38  1  0
  3 39  1  0
  4 40  1  0
  5 41  1  0
  5 42  1  0
  6 43  1  0
  6 44  1  0
  7 45  1  0
  7 46  1  0
  8 47  1  0
  8 48  1  0
  9 49  1  0
  9 50  1  0
 10 51  1  0
 10 52  1  0
 10 53  1  0
 13 54  1  0
 14 55  1  0
 15 56  1  0
 16 57  1  0
 17 58  1  0
 18 59  1  0
 18 60  1  0
 19 61  1  0
 19 62  1  0
 20 63  1  0
 23 64  1  0
 23 65  1  0
 24 66  1  0
 24 67  1  0
 25 68  1  0
 25 69  1  0
 26 70  1  0
 26 71  1  0
 31 72  1  0
 32 73  1  0
 33 74  1  0
 34 75  1  0
M  CHG  2   1   1   4   1
M  END
>  <score>  (7) 
-10.407

$$$$
=
     RDKit          3D

 75 79  0  0  0  0  0  0  0  0999 V2000
    0.9800   63.8290   71.9060 N   0  0  0  0  0  4  0  0  0  0  0  0
   -0.1970   64.7890   71.7410 C   0  0  0  0  0  0  0  0  0  0  0  0
    0.2450   66.1140   71.0810 C   0  0  0  0  0  0  0  0  0  0  0  0
    1.0000   65.8980   69.7780 N   0  0  0  0  0  4  0  0  0  0  0  0
    2.0970   64.8420   69.8520 C   0  0  0  0  0  0  0  0  0  0  0  0
    1.6430   63.5430   70.5590 C   0  0  0  0  0  0  0  0  0  0  0  0
    0.5380   62.5400   72.6100 C   0  0  0  0  0  0  0  0  0  0  0  0
    1.4730   62.1660   73.7510 C   0  0  0  0  0  0  0  0  0  0  0  0
    1.7100   60.6550   73.8290 C   0  0  0  0  0  0  0  0  0  0  0  0
    3.7040   59.2730   74.3590 C   0  0  0  0  0  0  0  0  0  0  0  0
    3.1210   60.3690   73.5850 N   0  0  0  0  0  0  0  0  0  0  0  0
    3.5680   60.5540   72.2660 C   0  0  0  0  0  0  0  0  0  0  0  0
    4.4590   61.5750   71.8960 C   0  0  0  0  0  0  0  0  0  0  0  0
    4.8830   61.7360   70.5710 C   0  0  0  0  0  0  0  0  0  0  0  0
    4.4130   60.8860   69.5770 C   0  0  0  0  0  0  0  0  0  0  0  0
    3.5150   59.8780   69.9080 C   0  0  0  0  0  0  0  0  0  0  0  0
    3.0980   59.7210   71.2350 C   0  0  0  0  0  0  0  0  0  0  0  0
    1.4810   67.2060   69.1020 C   0  0  0  0  0  0  0  0  0  0  0  0
    0.4930   67.9330   68.1490 C   0  0  0  0  0  0  0  0  0  0  0  0
    1.1020   68.9880   67.3250 N   0  0  0  0  0  0  0  0  0  0  0  0
    2.3930   68.8770   66.7860 C   0  0  0  0  0  0  0  0  0  0  0  0
    3.3940   69.6790   67.3590 C   0  0  0  0  0  0  0  0  0  0  0  0
    3.2070   70.5080   68.6070 C   0  0  0  0  0  0  0  0  0  0  0  0
    4.4530   70.4860   69.4980 C   0  0  0  0  0  0  0  0  0  0  0  0
    5.7900   70.5370   68.7460 C   0  0  0  0  0  0  0  0  0  0  0  0
    5.6530   70.7300   67.2380 C   0  0  0  0  0  0  0  0  0  0  0  0
    4.6000   69.8080   66.6790 C   0  0  0  0  0  0  0  0  0  0  0  0
    4.8460   69.1870   65.5080 N   0  0  0  0  0  0  0  0  0  0  0  0
    4.0230   68.1970   65.1390 C   0  0  0  0  0  0  0  0  0  0  0  0
    2.7810   67.9650   65.7710 C   0  0  0  0  0  0  0  0  0  0  0  0
    2.0240   66.8420   65.3560 C   0  0  0  0  0  0  0  0  0  0  0  0
    2.4390   66.0300   64.3020 C   0  0  0  0  0  0  0  0  0  0  0  0
    3.6300   66.3130   63.6510 C   0  0  0  0  0  0  0  0  0  0  0  0
    4.4120   67.3850   64.0810 C   0  0  0  0  0  0  0  0  0  0  0  0
    1.6859   64.2800   72.5053 H   0  0  0  0  0  0  0  0  0  0  0  0
   -0.9618   64.3125   71.1101 H   0  0  0  0  0  0  0  0  0  0  0  0
   -0.6006   65.0168   72.7386 H   0  0  0  0  0  0  0  0  0  0  0  0
   -0.6498   66.7191   70.8731 H   0  0  0  0  0  0  0  0  0  0  0  0
    0.9264   66.6218   71.7794 H   0  0  0  0  0  0  0  0  0  0  0  0
    0.2846   65.5044   69.1501 H   0  0  0  0  0  0  0  0  0  0  0  0
    2.4114   64.5916   68.8281 H   0  0  0  0  0  0  0  0  0  0  0  0
    2.9212   65.2665   70.4440 H   0  0  0  0  0  0  0  0  0  0  0  0
    0.9235   63.0192   69.9126 H   0  0  0  0  0  0  0  0  0  0  0  0
    2.5345   62.9252   70.7422 H   0  0  0  0  0  0  0  0  0  0  0  0
   -0.4750   62.6848   73.0135 H   0  0  0  0  0  0  0  0  0  0  0  0
    0.5586   61.7247   71.8718 H   0  0  0  0  0  0  0  0  0  0  0  0
    2.4390   62.6692   73.5976 H   0  0  0  0  0  0  0  0  0  0  0  0
    1.0026   62.4845   74.6930 H   0  0  0  0  0  0  0  0  0  0  0  0
    1.4300   60.2913   74.8287 H   0  0  0  0  0  0  0  0  0  0  0  0
    1.0971   60.1486   73.0688 H   0  0  0  0  0  0  0  0  0  0  0  0
    3.5924   59.4827   75.4330 H   0  0  0  0  0  0  0  0  0  0  0  0
    3.1860   58.3343   74.1130 H   0  0  0  0  0  0  0  0  0  0  0  0
    4.7719   59.1779   74.1130 H   0  0  0  0  0  0  0  0  0  0  0  0
    4.8331   62.2654   72.6663 H   0  0  0  0  0  0  0  0  0  0  0  0
    5.5909   62.5384   70.3160 H   0  0  0  0  0  0  0  0  0  0  0  0
    4.7489   61.0099   68.5369 H   0  0  0  0  0  0  0  0  0  0  0  0
    3.1322   59.2040   69.1275 H   0  0  0  0  0  0  0  0  0  0  0  0
    2.3816   58.9226   71.4785 H   0  0  0  0  0  0  0  0  0  0  0  0
    1.7440   67.9122   69.9033 H   0  0  0  0  0  0  0  0  0  0  0  0
    2.3129   66.8937   68.4537 H   0  0  0  0  0  0  0  0  0  0  0  0
    0.0515   67.1835   67.4756 H   0  0  0  0  0  0  0  0  0  0  0  0
   -0.2511   68.4284   68.7900 H   0  0  0  0  0  0  0  0  0  0  0  0
    0.5592   69.8427   67.1359 H   0  0  0  0  0  0  0  0  0  0  0  0
    2.9963   71.5475   68.3154 H   0  0  0  0  0  0  0  0  0  0  0  0
    2.3706   70.0800   69.1791 H   0  0  0  0  0  0  0  0  0  0  0  0
    4.4067   71.3551   70.1707 H   0  0  0  0  0  0  0  0  0  0  0  0
    4.4350   69.5219   70.0274 H   0  0  0  0  0  0  0  0  0  0  0  0
    6.3805   71.3733   69.1485 H   0  0  0  0  0  0  0  0  0  0  0  0
    6.2749   69.5612   68.8969 H   0  0  0  0  0  0  0  0  0  0  0  0
    5.3678   71.7721   67.0313 H   0  0  0  0  0  0  0  0  0  0  0  0
    6.6169   70.4978   66.7616 H   0  0  0  0  0  0  0  0  0  0  0  0
    1.0855   66.6049   65.8785 H   0  0  0  0  0  0  0  0  0  0  0  0
    1.8266   65.1715   63.9891 H   0  0  0  0  0  0  0  0  0  0  0  0
    3.9562   65.6960   62.8007 H   0  0  0  0  0  0  0  0  0  0  0  0
    5.3627   67.5932   63.5684 H   0  0  0  0  0  0  0  0  0  0  0  0
  2  1  1  0
  3  2  1  0
  4  3  1  0
  5  4  1  0
  6  5  1  0
  6  1  1  0
  7  1  1  0
  8  7  1  0
  9  8  1  0
 11 10  1  0
 11  9  1  0
 12 11  1  0
 13 12  2  0
 14 13  1  0
 15 14  2  0
 16 15  1  0
 17 16  2  0
 17 12  1  0
 18  4  1  0
 19 18  1  0
 20 19  1  0
 21 20  1  0
 22 21  1  0
 23 22  1  0
 24 23  1  0
 25 24  1  0
 26 25  1  0
 27 22  2  0
 27 26  1  0
 28 27  1  0
 29 28  2  0
 30 29  1  0
 30 21  2  0
 31 30  1  0
 32 31  2  0
 33 32  1  0
 34 33  2  0
 34 29  1  0
  1 35  1  0
  2 36  1  0
  2 37  1  0
  3 38  1  0
  3 39  1  0
  4 40  1  0
  5 41  1  0
  5 42  1  0
  6 43  1  0
  6 44  1  0
  7 45  1  0
  7 46  1  0
  8 47  1  0
  8 48  1  0
  9 49  1  0
  9 50  1  0
 10 51  1  0
 10 52  1  0
 10 53  1  0
 13 54  1  0
 14 55  1  0
 15 56  1  0
 16 57  1  0
 17 58  1  0
 18 59  1  0
 18 60  1  0
 19 61  1  0
 19 62  1  0
 20 63  1  0
 23 64  1  0
 23 65  1  0
 24 66  1  0
 24 67  1  0
 25 68  1  0
 25 69  1  0
 26 70  1  0
 26 71  1  0
 31 72  1  0
 32 73  1  0
 33 74  1  0
 34 75  1  0
M  CHG  2   1   1   4   1
M  END
>  <score>  (8) 
-9.938

$$$$
=
     RDKit          3D

 75 79  0  0  0  0  0  0  0  0999 V2000
    1.3770   62.6820   71.7740 N   0  0  0  0  0  4  0  0  0  0  0  0
    2.6330   63.3500   71.2180 C   0  0  0  0  0  0  0  0  0  0  0  0
    2.2830   64.3960   70.1360 C   0  0  0  0  0  0  0  0  0  0  0  0
    1.2530   65.4100   70.6100 N   0  0  0  0  0  4  0  0  0  0  0  0
    0.0400   64.8000   71.3030 C   0  0  0  0  0  0  0  0  0  0  0  0
    0.4160   63.7220   72.3490 C   0  0  0  0  0  0  0  0  0  0  0  0
    1.7420   61.6100   72.8090 C   0  0  0  0  0  0  0  0  0  0  0  0
    1.0840   61.8730   74.1560 C   0  0  0  0  0  0  0  0  0  0  0  0
    0.7760   60.5750   74.9090 C   0  0  0  0  0  0  0  0  0  0  0  0
    0.5320   58.4280   73.6860 C   0  0  0  0  0  0  0  0  0  0  0  0
   -0.0530   59.7130   74.0720 N   0  0  0  0  0  0  0  0  0  0  0  0
   -1.4350   59.7590   74.3180 C   0  0  0  0  0  0  0  0  0  0  0  0
   -2.2430   60.8470   73.9480 C   0  0  0  0  0  0  0  0  0  0  0  0
   -3.6180   60.8650   74.2130 C   0  0  0  0  0  0  0  0  0  0  0  0
   -4.2190   59.7980   74.8690 C   0  0  0  0  0  0  0  0  0  0  0  0
   -3.4440   58.7150   75.2650 C   0  0  0  0  0  0  0  0  0  0  0  0
   -2.0710   58.7020   74.9950 C   0  0  0  0  0  0  0  0  0  0  0  0
    0.8590   66.4590   69.5410 C   0  0  0  0  0  0  0  0  0  0  0  0
    1.7240   67.7460   69.4370 C   0  0  0  0  0  0  0  0  0  0  0  0
    1.3110   68.6770   68.3760 N   0  0  0  0  0  0  0  0  0  0  0  0
    2.1090   68.9470   67.2540 C   0  0  0  0  0  0  0  0  0  0  0  0
    1.5480   68.6860   65.9940 C   0  0  0  0  0  0  0  0  0  0  0  0
    0.1050   68.3030   65.7700 C   0  0  0  0  0  0  0  0  0  0  0  0
   -0.4700   68.9570   64.5100 C   0  0  0  0  0  0  0  0  0  0  0  0
    0.4920   69.0230   63.3160 C   0  0  0  0  0  0  0  0  0  0  0  0
    1.8210   68.3080   63.5430 C   0  0  0  0  0  0  0  0  0  0  0  0
    2.3940   68.6690   64.8910 C   0  0  0  0  0  0  0  0  0  0  0  0
    3.7180   68.9060   64.9830 N   0  0  0  0  0  0  0  0  0  0  0  0
    4.1780   69.4540   66.1150 C   0  0  0  0  0  0  0  0  0  0  0  0
    3.3990   69.5370   67.2900 C   0  0  0  0  0  0  0  0  0  0  0  0
    3.9540   70.2080   68.4090 C   0  0  0  0  0  0  0  0  0  0  0  0
    5.2580   70.7020   68.3910 C   0  0  0  0  0  0  0  0  0  0  0  0
    6.0280   70.5530   67.2490 C   0  0  0  0  0  0  0  0  0  0  0  0
    5.4790   69.9400   66.1230 C   0  0  0  0  0  0  0  0  0  0  0  0
    0.8903   62.2092   70.9991 H   0  0  0  0  0  0  0  0  0  0  0  0
    3.1662   63.8500   72.0400 H   0  0  0  0  0  0  0  0  0  0  0  0
    3.2633   62.5743   70.7587 H   0  0  0  0  0  0  0  0  0  0  0  0
    3.2014   64.9324   69.8552 H   0  0  0  0  0  0  0  0  0  0  0  0
    1.8489   63.8567   69.2812 H   0  0  0  0  0  0  0  0  0  0  0  0
    1.7531   65.9321   71.3437 H   0  0  0  0  0  0  0  0  0  0  0  0
   -0.5133   65.6033   71.8116 H   0  0  0  0  0  0  0  0  0  0  0  0
   -0.5669   64.3079   70.5287 H   0  0  0  0  0  0  0  0  0  0  0  0
    0.8955   64.2126   73.2089 H   0  0  0  0  0  0  0  0  0  0  0  0
   -0.5060   63.2041   72.6519 H   0  0  0  0  0  0  0  0  0  0  0  0
    1.4106   60.6293   72.4370 H   0  0  0  0  0  0  0  0  0  0  0  0
    2.8324   61.6325   72.9525 H   0  0  0  0  0  0  0  0  0  0  0  0
    1.7616   62.4862   74.7682 H   0  0  0  0  0  0  0  0  0  0  0  0
    0.1321   62.3928   73.9727 H   0  0  0  0  0  0  0  0  0  0  0  0
    1.7168   60.0582   75.1492 H   0  0  0  0  0  0  0  0  0  0  0  0
    0.2389   60.8093   75.8399 H   0  0  0  0  0  0  0  0  0  0  0  0
    0.7919   57.8572   74.5897 H   0  0  0  0  0  0  0  0  0  0  0  0
   -0.1955   57.8584   73.0891 H   0  0  0  0  0  0  0  0  0  0  0  0
    1.4393   58.6027   73.0891 H   0  0  0  0  0  0  0  0  0  0  0  0
   -1.7841   61.7064   73.4373 H   0  0  0  0  0  0  0  0  0  0  0  0
   -4.2247   61.7276   73.9004 H   0  0  0  0  0  0  0  0  0  0  0  0
   -5.2998   59.8105   75.0733 H   0  0  0  0  0  0  0  0  0  0  0  0
   -3.9095   57.8682   75.7905 H   0  0  0  0  0  0  0  0  0  0  0  0
   -1.4710   57.8398   75.3217 H   0  0  0  0  0  0  0  0  0  0  0  0
    0.8949   65.9593   68.5617 H   0  0  0  0  0  0  0  0  0  0  0  0
   -0.1330   66.8160   69.8548 H   0  0  0  0  0  0  0  0  0  0  0  0
    1.6679   68.2758   70.3994 H   0  0  0  0  0  0  0  0  0  0  0  0
    2.7429   67.4173   69.1842 H   0  0  0  0  0  0  0  0  0  0  0  0
    0.3997   69.1496   68.4600 H   0  0  0  0  0  0  0  0  0  0  0  0
    0.0392   67.2100   65.6651 H   0  0  0  0  0  0  0  0  0  0  0  0
   -0.4791   68.6541   66.6335 H   0  0  0  0  0  0  0  0  0  0  0  0
   -1.3567   68.3834   64.2023 H   0  0  0  0  0  0  0  0  0  0  0  0
   -0.6957   69.9991   64.7805 H   0  0  0  0  0  0  0  0  0  0  0  0
   -0.0033   68.5631   62.4481 H   0  0  0  0  0  0  0  0  0  0  0  0
    0.7278   70.0858   63.1585 H   0  0  0  0  0  0  0  0  0  0  0  0
    1.6590   67.2209   63.4983 H   0  0  0  0  0  0  0  0  0  0  0  0
    2.5295   68.6193   62.7613 H   0  0  0  0  0  0  0  0  0  0  0  0
    3.3415   70.3421   69.3128 H   0  0  0  0  0  0  0  0  0  0  0  0
    5.6720   71.2061   69.2767 H   0  0  0  0  0  0  0  0  0  0  0  0
    7.0662   70.9160   67.2305 H   0  0  0  0  0  0  0  0  0  0  0  0
    6.0934   69.8386   65.2162 H   0  0  0  0  0  0  0  0  0  0  0  0
  2  1  1  0
  3  2  1  0
  4  3  1  0
  5  4  1  0
  6  5  1  0
  6  1  1  0
  7  1  1  0
  8  7  1  0
  9  8  1  0
 11 10  1  0
 11  9  1  0
 12 11  1  0
 13 12  2  0
 14 13  1  0
 15 14  2  0
 16 15  1  0
 17 16  2  0
 17 12  1  0
 18  4  1  0
 19 18  1  0
 20 19  1  0
 21 20  1  0
 22 21  1  0
 23 22  1  0
 24 23  1  0
 25 24  1  0
 26 25  1  0
 27 22  2  0
 27 26  1  0
 28 27  1  0
 29 28  2  0
 30 29  1  0
 30 21  2  0
 31 30  1  0
 32 31  2  0
 33 32  1  0
 34 33  2  0
 34 29  1  0
  1 35  1  0
  2 36  1  0
  2 37  1  0
  3 38  1  0
  3 39  1  0
  4 40  1  0
  5 41  1  0
  5 42  1  0
  6 43  1  0
  6 44  1  0
  7 45  1  0
  7 46  1  0
  8 47  1  0
  8 48  1  0
  9 49  1  0
  9 50  1  0
 10 51  1  0
 10 52  1  0
 10 53  1  0
 13 54  1  0
 14 55  1  0
 15 56  1  0
 16 57  1  0
 17 58  1  0
 18 59  1  0
 18 60  1  0
 19 61  1  0
 19 62  1  0
 20 63  1  0
 23 64  1  0
 23 65  1  0
 24 66  1  0
 24 67  1  0
 25 68  1  0
 25 69  1  0
 26 70  1  0
 26 71  1  0
 31 72  1  0
 32 73  1  0
 33 74  1  0
 34 75  1  0
M  CHG  2   1   1   4   1
M  END
>  <score>  (9) 
-9.734

$$$$
