=
     RDKit          3D

 27 28  0  0  0  0  0  0  0  0999 V2000
    2.3400   59.3060   71.9680 O   0  0  0  0  0  0  0  0  0  0  0  0
    2.9130   60.0840   71.2220 C   0  0  0  0  0  0  0  0  0  0  0  0
    3.5070   59.7170   69.8770 C   0  0  0  0  0  0  0  0  0  0  0  0
    3.9790   61.1280   69.4440 C   0  0  2  0  0  0  0  0  0  0  0  0
    4.4940   61.7790   70.7590 C   0  0  0  0  0  0  0  0  0  0  0  0
    3.1280   61.5810   71.4710 C   0  0  2  0  0  0  0  0  0  0  0  0
    3.0170   62.0020   72.9160 C   0  0  0  0  0  0  0  0  0  0  0  0
    2.1110   62.2480   70.5150 C   0  0  0  0  0  0  0  0  0  0  0  0
    2.7090   61.9560   69.1210 C   0  0  0  0  0  0  0  0  0  0  0  0
    5.6760   61.0350   71.4150 C   0  0  0  0  0  0  0  0  0  0  0  0
    4.9360   63.2460   70.5950 C   0  0  0  0  0  0  0  0  0  0  0  0
    4.3447   59.0105   69.9724 H   0  0  0  0  0  0  0  0  0  0  0  0
    2.8294   59.2039   69.1787 H   0  0  0  0  0  0  0  0  0  0  0  0
    4.6981   61.0897   68.6125 H   0  0  0  0  0  0  0  0  0  0  0  0
    3.2432   61.1441   73.5663 H   0  0  0  0  0  0  0  0  0  0  0  0
    3.7319   62.8134   73.1175 H   0  0  0  0  0  0  0  0  0  0  0  0
    1.9950   62.3554   73.1175 H   0  0  0  0  0  0  0  0  0  0  0  0
    1.1133   61.7969   70.6205 H   0  0  0  0  0  0  0  0  0  0  0  0
    1.9678   63.3208   70.7113 H   0  0  0  0  0  0  0  0  0  0  0  0
    2.0066   61.3758   68.5046 H   0  0  0  0  0  0  0  0  0  0  0  0
    2.9248   62.8683   68.5455 H   0  0  0  0  0  0  0  0  0  0  0  0
    5.5837   61.0931   72.5096 H   0  0  0  0  0  0  0  0  0  0  0  0
    5.6650   59.9807   71.1015 H   0  0  0  0  0  0  0  0  0  0  0  0
    6.6219   61.5009   71.1015 H   0  0  0  0  0  0  0  0  0  0  0  0
    5.0730   63.7008   71.5872 H   0  0  0  0  0  0  0  0  0  0  0  0
    5.8852   63.2831   70.0404 H   0  0  0  0  0  0  0  0  0  0  0  0
    4.1653   63.8013   70.0404 H   0  0  0  0  0  0  0  0  0  0  0  0
  2  1  2  0
  3  2  1  0
  4  3  1  0
  5  4  1  0
  6  5  1  0
  6  2  1  0
  6  7  1  1
  8  6  1  0
  9  8  1  0
  9  4  1  0
 10  5  1  0
 11  5  1  0
  3 12  1  0
  3 13  1  0
  4 14  1  6
  7 15  1  0
  7 16  1  0
  7 17  1  0
  8 18  1  0
  8 19  1  0
  9 20  1  0
  9 21  1  0
 10 22  1  0
 10 23  1  0
 10 24  1  0
 11 25  1  0
 11 26  1  0
 11 27  1  0
M  END
>  <score>  (1) 
-6.717

$$$$
=
     RDKit          3D

 27 28  0  0  0  0  0  0  0  0999 V2000
    2.7220   62.2380   68.5780 O   0  0  0  0  0  0  0  0  0  0  0  0
    3.1530   61.7100   69.5920 C   0  0  0  0  0  0  0  0  0  0  0  0
    3.5220   60.2450   69.7160 C   0  0  0  0  0  0  0  0  0  0  0  0
    4.0560   60.2670   71.1700 C   0  0  2  0  0  0  0  0  0  0  0  0
    3.1080   61.2530   71.9100 C   0  0  0  0  0  0  0  0  0  0  0  0
    3.4320   62.4100   70.9260 C   0  0  2  0  0  0  0  0  0  0  0  0
    2.7090   63.7210   71.1140 C   0  0  0  0  0  0  0  0  0  0  0  0
    4.9760   62.5030   70.9590 C   0  0  0  0  0  0  0  0  0  0  0  0
    5.4050   61.0310   71.1500 C   0  0  0  0  0  0  0  0  0  0  0  0
    1.6280   60.8180   71.9260 C   0  0  0  0  0  0  0  0  0  0  0  0
    3.5050   61.5140   73.3760 C   0  0  0  0  0  0  0  0  0  0  0  0
    2.6480   59.5863   69.6050 H   0  0  0  0  0  0  0  0  0  0  0  0
    4.2187   59.8612   68.9562 H   0  0  0  0  0  0  0  0  0  0  0  0
    4.1324   59.2580   71.6014 H   0  0  0  0  0  0  0  0  0  0  0  0
    2.5957   63.9264   72.1887 H   0  0  0  0  0  0  0  0  0  0  0  0
    3.2886   64.5299   70.6452 H   0  0  0  0  0  0  0  0  0  0  0  0
    1.7156   63.6624   70.6452 H   0  0  0  0  0  0  0  0  0  0  0  0
    5.3684   62.9106   70.0157 H   0  0  0  0  0  0  0  0  0  0  0  0
    5.3547   63.1720   71.7458 H   0  0  0  0  0  0  0  0  0  0  0  0
    6.0370   60.6931   70.3155 H   0  0  0  0  0  0  0  0  0  0  0  0
    6.0041   60.8713   72.0586 H   0  0  0  0  0  0  0  0  0  0  0  0
    1.2866   60.7176   72.9668 H   0  0  0  0  0  0  0  0  0  0  0  0
    1.0178   61.5748   71.4113 H   0  0  0  0  0  0  0  0  0  0  0  0
    1.5243   59.8514   71.4113 H   0  0  0  0  0  0  0  0  0  0  0  0
    2.7751   61.0341   74.0445 H   0  0  0  0  0  0  0  0  0  0  0  0
    4.5050   61.0966   73.5649 H   0  0  0  0  0  0  0  0  0  0  0  0
    3.5183   62.5976   73.5649 H   0  0  0  0  0  0  0  0  0  0  0  0
  2  1  2  0
  3  2  1  0
  4  3  1  0
  5  4  1  0
  6  5  1  0
  6  2  1  0
  6  7  1  1
  8  6  1  0
  9  8  1  0
  9  4  1  0
 10  5  1  0
 11  5  1  0
  3 12  1  0
  3 13  1  0
  4 14  1  1
  7 15  1  0
  7 16  1  0
  7 17  1  0
  8 18  1  0
  8 19  1  0
  9 20  1  0
  9 21  1  0
 10 22  1  0
 10 23  1  0
 10 24  1  0
 11 25  1  0
 11 26  1  0
 11 27  1  0
M  END
>  <score>  (2) 
-6.434

$$$$
=
     RDKit          3D

 27 28  0  0  0  0  0  0  0  0999 V2000
    3.7650   61.5930   73.5740 O   0  0  0  0  0  0  0  0  0  0  0  0
    4.0230   61.5120   72.3830 C   0  0  0  0  0  0  0  0  0  0  0  0
    5.2620   60.8560   71.8070 C   0  0  0  0  0  0  0  0  0  0  0  0
    4.9280   61.0190   70.3040 C   0  0  2  0  0  0  0  0  0  0  0  0
    4.2510   62.4160   70.2120 C   0  0  0  0  0  0  0  0  0  0  0  0
    3.1490   62.0240   71.2330 C   0  0  2  0  0  0  0  0  0  0  0  0
    2.1430   63.0780   71.6270 C   0  0  0  0  0  0  0  0  0  0  0  0
    2.5430   60.7270   70.6460 C   0  0  0  0  0  0  0  0  0  0  0  0
    3.7630   60.0470   69.9850 C   0  0  0  0  0  0  0  0  0  0  0  0
    5.1510   63.5880   70.6550 C   0  0  0  0  0  0  0  0  0  0  0  0
    3.7370   62.7660   68.8020 C   0  0  0  0  0  0  0  0  0  0  0  0
    6.1822   61.3894   72.0876 H   0  0  0  0  0  0  0  0  0  0  0  0
    5.4596   59.8278   72.1443 H   0  0  0  0  0  0  0  0  0  0  0  0
    5.8094   60.8682   69.6633 H   0  0  0  0  0  0  0  0  0  0  0  0
    2.0855   63.1382   72.7238 H   0  0  0  0  0  0  0  0  0  0  0  0
    2.4549   64.0521   71.2221 H   0  0  0  0  0  0  0  0  0  0  0  0
    1.1554   62.8118   71.2221 H   0  0  0  0  0  0  0  0  0  0  0  0
    2.1182   60.0940   71.4390 H   0  0  0  0  0  0  0  0  0  0  0  0
    1.7151   60.9116   69.9456 H   0  0  0  0  0  0  0  0  0  0  0  0
    3.9464   59.0547   70.4228 H   0  0  0  0  0  0  0  0  0  0  0  0
    3.6286   59.8747   68.9069 H   0  0  0  0  0  0  0  0  0  0  0  0
    5.1835   63.6304   71.7537 H   0  0  0  0  0  0  0  0  0  0  0  0
    6.1680   63.4376   70.2636 H   0  0  0  0  0  0  0  0  0  0  0  0
    4.7433   64.5317   70.2636 H   0  0  0  0  0  0  0  0  0  0  0  0
    2.8304   63.3834   68.8850 H   0  0  0  0  0  0  0  0  0  0  0  0
    4.5124   63.3246   68.2573 H   0  0  0  0  0  0  0  0  0  0  0  0
    3.5014   61.8399   68.2573 H   0  0  0  0  0  0  0  0  0  0  0  0
  2  1  2  0
  3  2  1  0
  4  3  1  0
  5  4  1  0
  6  5  1  0
  6  2  1  0
  6  7  1  1
  8  6  1  0
  9  8  1  0
  9  4  1  0
 10  5  1  0
 11  5  1  0
  3 12  1  0
  3 13  1  0
  4 14  1  6
  7 15  1  0
  7 16  1  0
  7 17  1  0
  8 18  1  0
  8 19  1  0
  9 20  1  0
  9 21  1  0
 10 22  1  0
 10 23  1  0
 10 24  1  0
 11 25  1  0
 11 26  1  0
 11 27  1  0
M  END
>  <score>  (3) 
-6.383

$$$$
=
     RDKit          3D

 27 28  0  0  0  0  0  0  0  0999 V2000
    5.8300   60.7010   71.0370 O   0  0  0  0  0  0  0  0  0  0  0  0
    4.9200   61.5050   70.9030 C   0  0  0  0  0  0  0  0  0  0  0  0
    5.0780   63.0110   70.9630 C   0  0  0  0  0  0  0  0  0  0  0  0
    3.6160   63.4070   70.6390 C   0  0  2  0  0  0  0  0  0  0  0  0
    2.7590   62.3380   71.3750 C   0  0  0  0  0  0  0  0  0  0  0  0
    3.4510   61.1680   70.6240 C   0  0  2  0  0  0  0  0  0  0  0  0
    3.0480   59.7600   70.9840 C   0  0  0  0  0  0  0  0  0  0  0  0
    3.2830   61.5360   69.1300 C   0  0  0  0  0  0  0  0  0  0  0  0
    3.3730   63.0780   69.1440 C   0  0  0  0  0  0  0  0  0  0  0  0
    2.9460   62.3190   72.9060 C   0  0  0  0  0  0  0  0  0  0  0  0
    1.2460   62.4710   71.1190 C   0  0  0  0  0  0  0  0  0  0  0  0
    5.3898   63.3558   71.9599 H   0  0  0  0  0  0  0  0  0  0  0  0
    5.8467   63.4378   70.3020 H   0  0  0  0  0  0  0  0  0  0  0  0
    3.4018   64.4551   70.8950 H   0  0  0  0  0  0  0  0  0  0  0  0
    3.0181   59.6557   72.0786 H   0  0  0  0  0  0  0  0  0  0  0  0
    2.0525   59.5458   70.5680 H   0  0  0  0  0  0  0  0  0  0  0  0
    3.7794   59.0515   70.5680 H   0  0  0  0  0  0  0  0  0  0  0  0
    4.0877   61.0978   68.5213 H   0  0  0  0  0  0  0  0  0  0  0  0
    2.3473   61.1588   68.6916 H   0  0  0  0  0  0  0  0  0  0  0  0
    4.2094   63.4296   68.5221 H   0  0  0  0  0  0  0  0  0  0  0  0
    2.4752   63.5655   68.7362 H   0  0  0  0  0  0  0  0  0  0  0  0
    1.9664   62.4185   73.3963 H   0  0  0  0  0  0  0  0  0  0  0  0
    3.4117   61.3689   73.2067 H   0  0  0  0  0  0  0  0  0  0  0  0
    3.5933   63.1560   73.2067 H   0  0  0  0  0  0  0  0  0  0  0  0
    0.7141   62.5178   72.0807 H   0  0  0  0  0  0  0  0  0  0  0  0
    1.0503   63.3898   70.5467 H   0  0  0  0  0  0  0  0  0  0  0  0
    0.8930   61.6004   70.5467 H   0  0  0  0  0  0  0  0  0  0  0  0
  2  1  2  0
  3  2  1  0
  4  3  1  0
  5  4  1  0
  6  5  1  0
  6  2  1  0
  6  7  1  6
  8  6  1  0
  9  8  1  0
  9  4  1  0
 10  5  1  0
 11  5  1  0
  3 12  1  0
  3 13  1  0
  4 14  1  6
  7 15  1  0
  7 16  1  0
  7 17  1  0
  8 18  1  0
  8 19  1  0
  9 20  1  0
  9 21  1  0
 10 22  1  0
 10 23  1  0
 10 24  1  0
 11 25  1  0
 11 26  1  0
 11 27  1  0
M  END
>  <score>  (4) 
-6.38

$$$$
=
     RDKit          3D

 27 28  0  0  0  0  0  0  0  0999 V2000
    1.2230   63.0020   69.8810 O   0  0  0  0  0  0  0  0  0  0  0  0
    2.0950   62.6080   70.6390 C   0  0  0  0  0  0  0  0  0  0  0  0
    2.2760   63.0750   72.0700 C   0  0  0  0  0  0  0  0  0  0  0  0
    3.4560   62.1520   72.4630 C   0  0  2  0  0  0  0  0  0  0  0  0
    4.3360   62.0890   71.1830 C   0  0  0  0  0  0  0  0  0  0  0  0
    3.1610   61.5540   70.3200 C   0  0  2  0  0  0  0  0  0  0  0  0
    3.4080   61.3340   68.8480 C   0  0  0  0  0  0  0  0  0  0  0  0
    2.6690   60.3090   71.0950 C   0  0  0  0  0  0  0  0  0  0  0  0
    2.8940   60.7110   72.5690 C   0  0  0  0  0  0  0  0  0  0  0  0
    4.8970   63.4540   70.7310 C   0  0  0  0  0  0  0  0  0  0  0  0
    5.5420   61.1370   71.3030 C   0  0  0  0  0  0  0  0  0  0  0  0
    2.5453   64.1400   72.1278 H   0  0  0  0  0  0  0  0  0  0  0  0
    1.3842   63.0105   72.7107 H   0  0  0  0  0  0  0  0  0  0  0  0
    3.9627   62.4915   73.3784 H   0  0  0  0  0  0  0  0  0  0  0  0
    4.2236   60.6075   68.7176 H   0  0  0  0  0  0  0  0  0  0  0  0
    2.4929   60.9464   68.3766 H   0  0  0  0  0  0  0  0  0  0  0  0
    3.6876   62.2877   68.3766 H   0  0  0  0  0  0  0  0  0  0  0  0
    1.6050   60.1135   70.8958 H   0  0  0  0  0  0  0  0  0  0  0  0
    3.1935   59.3846   70.8113 H   0  0  0  0  0  0  0  0  0  0  0  0
    1.9480   60.6971   73.1302 H   0  0  0  0  0  0  0  0  0  0  0  0
    3.5663   60.0248   73.1049 H   0  0  0  0  0  0  0  0  0  0  0  0
    5.1457   64.0592   71.6152 H   0  0  0  0  0  0  0  0  0  0  0  0
    5.8033   63.2964   70.1278 H   0  0  0  0  0  0  0  0  0  0  0  0
    4.1418   63.9792   70.1278 H   0  0  0  0  0  0  0  0  0  0  0  0
    5.7655   60.9605   72.3655 H   0  0  0  0  0  0  0  0  0  0  0  0
    5.3041   60.1805   70.8146 H   0  0  0  0  0  0  0  0  0  0  0  0
    6.4171   61.5905   70.8146 H   0  0  0  0  0  0  0  0  0  0  0  0
  2  1  2  0
  3  2  1  0
  4  3  1  0
  5  4  1  0
  6  5  1  0
  6  2  1  0
  6  7  1  6
  8  6  1  0
  9  8  1  0
  9  4  1  0
 10  5  1  0
 11  5  1  0
  3 12  1  0
  3 13  1  0
  4 14  1  1
  7 15  1  0
  7 16  1  0
  7 17  1  0
  8 18  1  0
  8 19  1  0
  9 20  1  0
  9 21  1  0
 10 22  1  0
 10 23  1  0
 10 24  1  0
 11 25  1  0
 11 26  1  0
 11 27  1  0
M  END
>  <score>  (5) 
-5.953

$$$$
=
     RDKit          3D

 27 28  0  0  0  0  0  0  0  0999 V2000
    3.2110   61.7910   73.3190 O   0  0  0  0  0  0  0  0  0  0  0  0
    2.8850   62.0210   72.1650 C   0  0  0  0  0  0  0  0  0  0  0  0
    1.4740   61.9080   71.6240 C   0  0  0  0  0  0  0  0  0  0  0  0
    1.7430   62.4040   70.1810 C   0  0  2  0  0  0  0  0  0  0  0  0
    3.1330   61.8060   69.8240 C   0  0  0  0  0  0  0  0  0  0  0  0
    3.8150   62.4900   71.0410 C   0  0  2  0  0  0  0  0  0  0  0  0
    5.2790   62.2140   71.2780 C   0  0  0  0  0  0  0  0  0  0  0  0
    3.4470   63.9840   70.8790 C   0  0  0  0  0  0  0  0  0  0  0  0
    2.0310   63.9250   70.2660 C   0  0  0  0  0  0  0  0  0  0  0  0
    3.1840   60.2640   69.8420 C   0  0  0  0  0  0  0  0  0  0  0  0
    3.6650   62.2470   68.4470 C   0  0  0  0  0  0  0  0  0  0  0  0
    1.1037   60.8724   71.6444 H   0  0  0  0  0  0  0  0  0  0  0  0
    0.7020   62.4575   72.1826 H   0  0  0  0  0  0  0  0  0  0  0  0
    0.9208   62.1533   69.4946 H   0  0  0  0  0  0  0  0  0  0  0  0
    5.4747   62.1771   72.3598 H   0  0  0  0  0  0  0  0  0  0  0  0
    5.5485   61.2492   70.8235 H   0  0  0  0  0  0  0  0  0  0  0  0
    5.8813   63.0144   70.8235 H   0  0  0  0  0  0  0  0  0  0  0  0
    3.4361   64.4968   71.8521 H   0  0  0  0  0  0  0  0  0  0  0  0
    4.1649   64.5441   70.2619 H   0  0  0  0  0  0  0  0  0  0  0  0
    1.2994   64.4291   70.9146 H   0  0  0  0  0  0  0  0  0  0  0  0
    1.9618   64.4316   69.2920 H   0  0  0  0  0  0  0  0  0  0  0  0
    3.1957   59.9097   70.8833 H   0  0  0  0  0  0  0  0  0  0  0  0
    2.2987   59.8618   69.3278 H   0  0  0  0  0  0  0  0  0  0  0  0
    4.0940   59.9212   69.3278 H   0  0  0  0  0  0  0  0  0  0  0  0
    4.5052   62.9435   68.5844 H   0  0  0  0  0  0  0  0  0  0  0  0
    4.0080   61.3647   67.8867 H   0  0  0  0  0  0  0  0  0  0  0  0
    2.8616   62.7476   67.8867 H   0  0  0  0  0  0  0  0  0  0  0  0
  2  1  2  0
  3  2  1  0
  4  3  1  0
  5  4  1  0
  6  5  1  0
  6  2  1  0
  6  7  1  1
  8  6  1  0
  9  8  1  0
  9  4  1  0
 10  5  1  0
 11  5  1  0
  3 12  1  0
  3 13  1  0
  4 14  1  6
  7 15  1  0
  7 16  1  0
  7 17  1  0
  8 18  1  0
  8 19  1  0
  9 20  1  0
  9 21  1  0
 10 22  1  0
 10 23  1  0
 10 24  1  0
 11 25  1  0
 11 26  1  0
 11 27  1  0
M  END
>  <score>  (6) 
-5.932

$$$$
=
     RDKit          3D

 27 28  0  0  0  0  0  0  0  0999 V2000
    2.6050   66.0880   65.5110 O   0  0  0  0  0  0  0  0  0  0  0  0
    3.0100   67.1310   65.0210 C   0  0  0  0  0  0  0  0  0  0  0  0
    2.5600   68.5170   65.4400 C   0  0  0  0  0  0  0  0  0  0  0  0
    3.4900   69.3460   64.5190 C   0  0  2  0  0  0  0  0  0  0  0  0
    3.5380   68.5330   63.1940 C   0  0  0  0  0  0  0  0  0  0  0  0
    4.0610   67.2610   63.9150 C   0  0  2  0  0  0  0  0  0  0  0  0
    4.2640   66.0140   63.0890 C   0  0  0  0  0  0  0  0  0  0  0  0
    5.3150   67.7540   64.6750 C   0  0  0  0  0  0  0  0  0  0  0  0
    4.9310   69.1980   65.0710 C   0  0  0  0  0  0  0  0  0  0  0  0
    2.1700   68.3640   62.5030 C   0  0  0  0  0  0  0  0  0  0  0  0
    4.4940   69.1230   62.1380 C   0  0  0  0  0  0  0  0  0  0  0  0
    1.4963   68.6917   65.2209 H   0  0  0  0  0  0  0  0  0  0  0  0
    2.6303   68.7383   66.5152 H   0  0  0  0  0  0  0  0  0  0  0  0
    3.1632   70.3925   64.4295 H   0  0  0  0  0  0  0  0  0  0  0  0
    4.4045   65.1510   63.7564 H   0  0  0  0  0  0  0  0  0  0  0  0
    3.3812   65.8468   62.4543 H   0  0  0  0  0  0  0  0  0  0  0  0
    5.1542   66.1355   62.4543 H   0  0  0  0  0  0  0  0  0  0  0  0
    5.5067   67.1369   65.5652 H   0  0  0  0  0  0  0  0  0  0  0  0
    6.2365   67.6973   64.0770 H   0  0  0  0  0  0  0  0  0  0  0  0
    4.9499   69.3256   66.1634 H   0  0  0  0  0  0  0  0  0  0  0  0
    5.6248   69.9532   64.6731 H   0  0  0  0  0  0  0  0  0  0  0  0
    1.3834   68.2668   63.2658 H   0  0  0  0  0  0  0  0  0  0  0  0
    1.9652   69.2437   61.8751 H   0  0  0  0  0  0  0  0  0  0  0  0
    2.1854   67.4609   61.8751 H   0  0  0  0  0  0  0  0  0  0  0  0
    5.3258   69.6364   62.6425 H   0  0  0  0  0  0  0  0  0  0  0  0
    4.8908   68.3125   61.5090 H   0  0  0  0  0  0  0  0  0  0  0  0
    3.9474   69.8411   61.5090 H   0  0  0  0  0  0  0  0  0  0  0  0
  2  1  2  0
  3  2  1  0
  4  3  1  0
  5  4  1  0
  6  5  1  0
  6  2  1  0
  6  7  1  6
  8  6  1  0
  9  8  1  0
  9  4  1  0
 10  5  1  0
 11  5  1  0
  3 12  1  0
  3 13  1  0
  4 14  1  6
  7 15  1  0
  7 16  1  0
  7 17  1  0
  8 18  1  0
  8 19  1  0
  9 20  1  0
  9 21  1  0
 10 22  1  0
 10 23  1  0
 10 24  1  0
 11 25  1  0
 11 26  1  0
 11 27  1  0
M  END
>  <score>  (7) 
-5.899

$$$$
=
     RDKit          3D

 27 28  0  0  0  0  0  0  0  0999 V2000
    4.1480   66.5290   61.6420 O   0  0  0  0  0  0  0  0  0  0  0  0
    3.6970   67.3530   62.4230 C   0  0  0  0  0  0  0  0  0  0  0  0
    2.9470   68.6080   62.0220 C   0  0  0  0  0  0  0  0  0  0  0  0
    2.5990   69.1280   63.4390 C   0  0  2  0  0  0  0  0  0  0  0  0
    3.8590   68.7960   64.2880 C   0  0  0  0  0  0  0  0  0  0  0  0
    3.7690   67.2820   63.9520 C   0  0  2  0  0  0  0  0  0  0  0  0
    4.8470   66.3730   64.4900 C   0  0  0  0  0  0  0  0  0  0  0  0
    2.3260   66.8980   64.3560 C   0  0  0  0  0  0  0  0  0  0  0  0
    1.5240   68.1760   64.0240 C   0  0  0  0  0  0  0  0  0  0  0  0
    5.1510   69.4860   63.8040 C   0  0  0  0  0  0  0  0  0  0  0  0
    3.7100   69.1410   65.7820 C   0  0  0  0  0  0  0  0  0  0  0  0
    3.5839   69.3122   61.4666 H   0  0  0  0  0  0  0  0  0  0  0  0
    2.0936   68.4592   61.3441 H   0  0  0  0  0  0  0  0  0  0  0  0
    2.2891   70.1834   63.4314 H   0  0  0  0  0  0  0  0  0  0  0  0
    4.8263   66.3905   65.5897 H   0  0  0  0  0  0  0  0  0  0  0  0
    4.6712   65.3464   64.1362 H   0  0  0  0  0  0  0  0  0  0  0  0
    5.8292   66.7196   64.1362 H   0  0  0  0  0  0  0  0  0  0  0  0
    1.9654   66.0406   63.7688 H   0  0  0  0  0  0  0  0  0  0  0  0
    2.2366   66.5896   65.4081 H   0  0  0  0  0  0  0  0  0  0  0  0
    0.7377   67.9669   63.2838 H   0  0  0  0  0  0  0  0  0  0  0  0
    1.0040   68.5975   64.8969 H   0  0  0  0  0  0  0  0  0  0  0  0
    5.7451   69.8033   64.6737 H   0  0  0  0  0  0  0  0  0  0  0  0
    5.7377   68.7811   63.1966 H   0  0  0  0  0  0  0  0  0  0  0  0
    4.8915   70.3656   63.1966 H   0  0  0  0  0  0  0  0  0  0  0  0
    4.0733   68.2998   66.3906 H   0  0  0  0  0  0  0  0  0  0  0  0
    4.2997   70.0409   66.0111 H   0  0  0  0  0  0  0  0  0  0  0  0
    2.6506   69.3287   66.0111 H   0  0  0  0  0  0  0  0  0  0  0  0
  2  1  2  0
  3  2  1  0
  4  3  1  0
  5  4  1  0
  6  5  1  0
  6  2  1  0
  6  7  1  6
  8  6  1  0
  9  8  1  0
  9  4  1  0
 10  5  1  0
 11  5  1  0
  3 12  1  0
  3 13  1  0
  4 14  1  6
  7 15  1  0
  7 16  1  0
  7 17  1  0
  8 18  1  0
  8 19  1  0
  9 20  1  0
  9 21  1  0
 10 22  1  0
 10 23  1  0
 10 24  1  0
 11 25  1  0
 11 26  1  0
 11 27  1  0
M  END
>  <score>  (8) 
-5.859

$$$$
=
     RDKit          3D

 27 28  0  0  0  0  0  0  0  0999 V2000
    0.9790   62.4060   71.1970 O   0  0  0  0  0  0  0  0  0  0  0  0
    2.0840   62.1540   70.7420 C   0  0  0  0  0  0  0  0  0  0  0  0
    2.3700   61.8370   69.2870 C   0  0  0  0  0  0  0  0  0  0  0  0
    3.9120   61.7130   69.3800 C   0  0  2  0  0  0  0  0  0  0  0  0
    4.1570   61.0200   70.7500 C   0  0  0  0  0  0  0  0  0  0  0  0
    3.4010   62.1330   71.5250 C   0  0  2  0  0  0  0  0  0  0  0  0
    3.2430   61.9720   73.0180 C   0  0  0  0  0  0  0  0  0  0  0  0
    4.1000   63.4380   71.0770 C   0  0  0  0  0  0  0  0  0  0  0  0
    4.4730   63.1410   69.6070 C   0  0  0  0  0  0  0  0  0  0  0  0
    3.5340   59.6140   70.8710 C   0  0  0  0  0  0  0  0  0  0  0  0
    5.6470   60.8720   71.1130 C   0  0  0  0  0  0  0  0  0  0  0  0
    1.8969   60.8971   68.9665 H   0  0  0  0  0  0  0  0  0  0  0  0
    1.9919   62.5660   68.5552 H   0  0  0  0  0  0  0  0  0  0  0  0
    4.3435   61.2095   68.5023 H   0  0  0  0  0  0  0  0  0  0  0  0
    3.9229   62.6648   73.5355 H   0  0  0  0  0  0  0  0  0  0  0  0
    2.2045   62.1960   73.3031 H   0  0  0  0  0  0  0  0  0  0  0  0
    3.4865   60.9379   73.3031 H   0  0  0  0  0  0  0  0  0  0  0  0
    3.4166   64.2972   71.1463 H   0  0  0  0  0  0  0  0  0  0  0  0
    4.9665   63.7035   71.7005 H   0  0  0  0  0  0  0  0  0  0  0  0
    3.9993   63.8636   68.9262 H   0  0  0  0  0  0  0  0  0  0  0  0
    5.5531   63.2158   69.4127 H   0  0  0  0  0  0  0  0  0  0  0  0
    3.4189   59.3542   71.9337 H   0  0  0  0  0  0  0  0  0  0  0  0
    2.5483   59.6065   70.3828 H   0  0  0  0  0  0  0  0  0  0  0  0
    4.1906   58.8788   70.3828 H   0  0  0  0  0  0  0  0  0  0  0  0
    5.7584   60.8609   72.2073 H   0  0  0  0  0  0  0  0  0  0  0  0
    6.0344   59.9310   70.6954 H   0  0  0  0  0  0  0  0  0  0  0  0
    6.2120   61.7184   70.6954 H   0  0  0  0  0  0  0  0  0  0  0  0
  2  1  2  0
  3  2  1  0
  4  3  1  0
  5  4  1  0
  6  5  1  0
  6  2  1  0
  6  7  1  1
  8  6  1  0
  9  8  1  0
  9  4  1  0
 10  5  1  0
 11  5  1  0
  3 12  1  0
  3 13  1  0
  4 14  1  6
  7 15  1  0
  7 16  1  0
  7 17  1  0
  8 18  1  0
  8 19  1  0
  9 20  1  0
  9 21  1  0
 10 22  1  0
 10 23  1  0
 10 24  1  0
 11 25  1  0
 11 26  1  0
 11 27  1  0
M  END
>  <score>  (9) 
-5.811

$$$$
