=
     RDKit          3D

 31 32  0  0  0  0  0  0  0  0999 V2000
    1.2170   64.3240   70.4350 C   0  0  0  0  0  0  0  0  0  0  0  0
    1.2660   65.6170   70.5270 N   0  0  0  0  0  0  0  0  0  0  0  0
    5.2720   61.0700   71.6260 Br  0  0  0  0  0  0  0  0  0  0  0  0
    3.6660   61.9660   72.0610 C   0  0  0  0  0  0  0  0  0  0  0  0
    3.0560   62.7880   71.1140 C   0  0  0  0  0  0  0  0  0  0  0  0
    1.8650   63.4520   71.4360 C   0  0  0  0  0  0  0  0  0  0  0  0
    1.2940   63.2890   72.7010 C   0  0  0  0  0  0  0  0  0  0  0  0
    1.9190   62.4600   73.6400 C   0  0  0  0  0  0  0  0  0  0  0  0
    3.1040   61.7960   73.3250 C   0  0  0  0  0  0  0  0  0  0  0  0
    1.2270   62.2470   75.2070 Cl  0  0  0  0  0  0  0  0  0  0  0  0
    0.1300   63.9400   73.0120 O   0  0  0  0  0  0  0  0  0  0  0  0
    0.6120   66.3310   69.5170 C   0  0  0  0  0  0  0  0  0  0  0  0
    1.3030   67.2930   68.7710 C   0  0  0  0  0  0  0  0  0  0  0  0
    0.6590   67.9930   67.7480 C   0  0  0  0  0  0  0  0  0  0  0  0
   -0.6850   67.7230   67.4730 C   0  0  0  0  0  0  0  0  0  0  0  0
   -1.3790   66.7470   68.1920 C   0  0  0  0  0  0  0  0  0  0  0  0
   -0.7250   66.0530   69.2130 C   0  0  0  0  0  0  0  0  0  0  0  0
   -1.4980   68.6070   66.1690 S   0  0  0  0  0  6  0  0  0  0  0  0
   -2.8870   68.2130   66.1400 O   0  0  0  0  0  0  0  0  0  0  0  0
   -0.6540   68.5770   64.9980 O   0  0  0  0  0  0  0  0  0  0  0  0
   -1.4880   70.1800   66.7750 N   0  0  0  0  0  0  0  0  0  0  0  0
    0.6800   63.8659   69.5913 H   0  0  0  0  0  0  0  0  0  0  0  0
    3.5077   62.9145   70.1190 H   0  0  0  0  0  0  0  0  0  0  0  0
    3.5902   61.1448   74.0664 H   0  0  0  0  0  0  0  0  0  0  0  0
   -0.2767   63.8263   73.9074 H   0  0  0  0  0  0  0  0  0  0  0  0
    2.3607   67.4992   68.9919 H   0  0  0  0  0  0  0  0  0  0  0  0
    1.2041   68.7495   67.1643 H   0  0  0  0  0  0  0  0  0  0  0  0
   -2.4307   66.5269   67.9565 H   0  0  0  0  0  0  0  0  0  0  0  0
   -1.2653   65.2822   69.7821 H   0  0  0  0  0  0  0  0  0  0  0  0
   -1.4882   70.1513   67.8046 H   0  0  0  0  0  0  0  0  0  0  0  0
   -0.6439   70.6696   66.4453 H   0  0  0  0  0  0  0  0  0  0  0  0
  2  1  2  0
  4  3  1  0
  5  4  2  0
  6  1  1  0
  6  5  1  0
  7  6  2  0
  8  7  1  0
  9  8  2  0
  9  4  1  0
 10  8  1  0
 11  7  1  0
 12  2  1  0
 13 12  2  0
 14 13  1  0
 15 14  2  0
 16 15  1  0
 17 16  2  0
 17 12  1  0
 18 15  1  0
 19 18  2  0
 20 18  2  0
 21 18  1  0
  1 22  1  0
  5 23  1  0
  9 24  1  0
 11 25  1  0
 13 26  1  0
 14 27  1  0
 16 28  1  0
 17 29  1  0
 21 30  1  0
 21 31  1  0
M  END
>  <score>  (1) 
-7.963

$$$$
=
     RDKit          3D

 31 32  0  0  0  0  0  0  0  0999 V2000
   -0.3280   66.4550   68.8820 C   0  0  0  0  0  0  0  0  0  0  0  0
    0.8360   66.0660   69.3030 N   0  0  0  0  0  0  0  0  0  0  0  0
    2.0410   68.7840   64.7080 Br  0  0  0  0  0  0  0  0  0  0  0  0
    0.5140   68.3420   65.7300 C   0  0  0  0  0  0  0  0  0  0  0  0
    0.6560   67.5850   66.8920 C   0  0  0  0  0  0  0  0  0  0  0  0
   -0.4750   67.2570   67.6500 C   0  0  0  0  0  0  0  0  0  0  0  0
   -1.7400   67.6890   67.2400 C   0  0  0  0  0  0  0  0  0  0  0  0
   -1.8650   68.4480   66.0700 C   0  0  0  0  0  0  0  0  0  0  0  0
   -0.7420   68.7770   65.3120 C   0  0  0  0  0  0  0  0  0  0  0  0
   -3.4190   68.9890   65.5490 Cl  0  0  0  0  0  0  0  0  0  0  0  0
   -2.8440   67.3660   67.9830 O   0  0  0  0  0  0  0  0  0  0  0  0
    0.8430   65.3110   70.4820 C   0  0  0  0  0  0  0  0  0  0  0  0
   -0.0080   65.6480   71.5400 C   0  0  0  0  0  0  0  0  0  0  0  0
   -0.0190   64.8850   72.7100 C   0  0  0  0  0  0  0  0  0  0  0  0
    0.8280   63.7780   72.8140 C   0  0  0  0  0  0  0  0  0  0  0  0
    1.6630   63.4140   71.7550 C   0  0  0  0  0  0  0  0  0  0  0  0
    1.6650   64.1850   70.5900 C   0  0  0  0  0  0  0  0  0  0  0  0
    0.8070   62.8060   74.2980 S   0  0  0  0  0  6  0  0  0  0  0  0
    1.7460   61.7180   74.1490 O   0  0  0  0  0  0  0  0  0  0  0  0
   -0.5660   62.6030   74.6940 O   0  0  0  0  0  0  0  0  0  0  0  0
    1.5150   63.8650   75.4010 N   0  0  0  0  0  0  0  0  0  0  0  0
   -1.2259   66.1814   69.4555 H   0  0  0  0  0  0  0  0  0  0  0  0
    1.6525   67.2466   67.2122 H   0  0  0  0  0  0  0  0  0  0  0  0
   -0.8464   69.3736   64.3938 H   0  0  0  0  0  0  0  0  0  0  0  0
   -3.7409   67.6706   67.6950 H   0  0  0  0  0  0  0  0  0  0  0  0
   -0.6729   66.5197   71.4499 H   0  0  0  0  0  0  0  0  0  0  0  0
   -0.6877   65.1527   73.5414 H   0  0  0  0  0  0  0  0  0  0  0  0
    2.3120   62.5297   71.8375 H   0  0  0  0  0  0  0  0  0  0  0  0
    2.3185   63.9040   69.7509 H   0  0  0  0  0  0  0  0  0  0  0  0
    1.3060   63.5523   76.3599 H   0  0  0  0  0  0  0  0  0  0  0  0
    2.5350   63.8776   75.2587 H   0  0  0  0  0  0  0  0  0  0  0  0
  2  1  2  0
  4  3  1  0
  5  4  2  0
  6  1  1  0
  6  5  1  0
  7  6  2  0
  8  7  1  0
  9  8  2  0
  9  4  1  0
 10  8  1  0
 11  7  1  0
 12  2  1  0
 13 12  2  0
 14 13  1  0
 15 14  2  0
 16 15  1  0
 17 16  2  0
 17 12  1  0
 18 15  1  0
 19 18  2  0
 20 18  2  0
 21 18  1  0
  1 22  1  0
  5 23  1  0
  9 24  1  0
 11 25  1  0
 13 26  1  0
 14 27  1  0
 16 28  1  0
 17 29  1  0
 21 30  1  0
 21 31  1  0
M  END
>  <score>  (2) 
-7.908

$$$$
=
     RDKit          3D

 31 32  0  0  0  0  0  0  0  0999 V2000
    1.4470   64.3070   70.3600 C   0  0  0  0  0  0  0  0  0  0  0  0
    1.6580   65.5870   70.3930 N   0  0  0  0  0  0  0  0  0  0  0  0
    1.5130   61.6970   75.0120 Br  0  0  0  0  0  0  0  0  0  0  0  0
    2.2750   62.1630   73.3470 C   0  0  0  0  0  0  0  0  0  0  0  0
    1.5980   63.0360   72.4970 C   0  0  0  0  0  0  0  0  0  0  0  0
    2.1620   63.3820   71.2630 C   0  0  0  0  0  0  0  0  0  0  0  0
    3.4010   62.8530   70.8890 C   0  0  0  0  0  0  0  0  0  0  0  0
    4.0680   61.9770   71.7530 C   0  0  0  0  0  0  0  0  0  0  0  0
    3.5100   61.6300   72.9830 C   0  0  0  0  0  0  0  0  0  0  0  0
    5.5980   61.3140   71.3060 Cl  0  0  0  0  0  0  0  0  0  0  0  0
    3.9500   63.1930   69.6800 O   0  0  0  0  0  0  0  0  0  0  0  0
    0.9170   66.3560   69.4880 C   0  0  0  0  0  0  0  0  0  0  0  0
    1.5340   67.3780   68.7600 C   0  0  0  0  0  0  0  0  0  0  0  0
    0.8030   68.1340   67.8410 C   0  0  0  0  0  0  0  0  0  0  0  0
   -0.5550   67.8590   67.6530 C   0  0  0  0  0  0  0  0  0  0  0  0
   -1.1780   66.8230   68.3540 C   0  0  0  0  0  0  0  0  0  0  0  0
   -0.4350   66.0740   69.2700 C   0  0  0  0  0  0  0  0  0  0  0  0
   -1.4800   68.8150   66.4810 S   0  0  0  0  0  6  0  0  0  0  0  0
   -1.0930   68.4120   65.1480 O   0  0  0  0  0  0  0  0  0  0  0  0
   -1.4800   70.1930   66.9090 O   0  0  0  0  0  0  0  0  0  0  0  0
   -3.0350   68.2030   66.7030 N   0  0  0  0  0  0  0  0  0  0  0  0
    0.7185   63.9012   69.6427 H   0  0  0  0  0  0  0  0  0  0  0  0
    0.6240   63.4517   72.7946 H   0  0  0  0  0  0  0  0  0  0  0  0
    4.0394   60.9425   73.6591 H   0  0  0  0  0  0  0  0  0  0  0  0
    4.8271   62.8201   69.4123 H   0  0  0  0  0  0  0  0  0  0  0  0
    2.6030   67.5881   68.9122 H   0  0  0  0  0  0  0  0  0  0  0  0
    1.2909   68.9381   67.2705 H   0  0  0  0  0  0  0  0  0  0  0  0
   -2.2420   66.5996   68.1864 H   0  0  0  0  0  0  0  0  0  0  0  0
   -0.9177   65.2556   69.8243 H   0  0  0  0  0  0  0  0  0  0  0  0
   -3.2327   68.1252   67.7109 H   0  0  0  0  0  0  0  0  0  0  0  0
   -3.7192   68.8375   66.2669 H   0  0  0  0  0  0  0  0  0  0  0  0
  2  1  2  0
  4  3  1  0
  5  4  2  0
  6  1  1  0
  6  5  1  0
  7  6  2  0
  8  7  1  0
  9  8  2  0
  9  4  1  0
 10  8  1  0
 11  7  1  0
 12  2  1  0
 13 12  2  0
 14 13  1  0
 15 14  2  0
 16 15  1  0
 17 16  2  0
 17 12  1  0
 18 15  1  0
 19 18  2  0
 20 18  2  0
 21 18  1  0
  1 22  1  0
  5 23  1  0
  9 24  1  0
 11 25  1  0
 13 26  1  0
 14 27  1  0
 16 28  1  0
 17 29  1  0
 21 30  1  0
 21 31  1  0
M  END
>  <score>  (3) 
-7.867

$$$$
=
     RDKit          3D

 31 32  0  0  0  0  0  0  0  0999 V2000
   -0.3210   66.1000   68.7400 C   0  0  0  0  0  0  0  0  0  0  0  0
    0.7300   66.2760   69.4810 N   0  0  0  0  0  0  0  0  0  0  0  0
   -4.0650   68.8730   66.1430 Br  0  0  0  0  0  0  0  0  0  0  0  0
   -2.2790   68.3090   66.3970 C   0  0  0  0  0  0  0  0  0  0  0  0
   -1.9720   67.4400   67.4430 C   0  0  0  0  0  0  0  0  0  0  0  0
   -0.6490   67.0210   67.6330 C   0  0  0  0  0  0  0  0  0  0  0  0
    0.3560   67.4740   66.7740 C   0  0  0  0  0  0  0  0  0  0  0  0
    0.0310   68.3470   65.7290 C   0  0  0  0  0  0  0  0  0  0  0  0
   -1.2840   68.7660   65.5360 C   0  0  0  0  0  0  0  0  0  0  0  0
    1.2610   68.9160   64.6590 Cl  0  0  0  0  0  0  0  0  0  0  0  0
    1.6500   67.0630   66.9620 O   0  0  0  0  0  0  0  0  0  0  0  0
    0.9310   65.3350   70.4970 C   0  0  0  0  0  0  0  0  0  0  0  0
    2.0190   64.4580   70.4410 C   0  0  0  0  0  0  0  0  0  0  0  0
    2.2350   63.5310   71.4640 C   0  0  0  0  0  0  0  0  0  0  0  0
    1.3530   63.4880   72.5480 C   0  0  0  0  0  0  0  0  0  0  0  0
    0.2780   64.3760   72.6300 C   0  0  0  0  0  0  0  0  0  0  0  0
    0.0730   65.2990   71.6010 C   0  0  0  0  0  0  0  0  0  0  0  0
    1.6340   62.3160   73.8490 S   0  0  0  0  0  6  0  0  0  0  0  0
    2.9650   61.7740   73.7020 O   0  0  0  0  0  0  0  0  0  0  0  0
    0.4610   61.4830   73.9770 O   0  0  0  0  0  0  0  0  0  0  0  0
    1.7030   63.3250   75.1970 N   0  0  0  0  0  0  0  0  0  0  0  0
   -0.9830   65.2448   68.9412 H   0  0  0  0  0  0  0  0  0  0  0  0
   -2.7658   67.0847   68.1166 H   0  0  0  0  0  0  0  0  0  0  0  0
   -1.5337   69.4507   64.7121 H   0  0  0  0  0  0  0  0  0  0  0  0
    2.3639   67.3823   66.3550 H   0  0  0  0  0  0  0  0  0  0  0  0
    2.7095   64.4983   69.5857 H   0  0  0  0  0  0  0  0  0  0  0  0
    3.0909   62.8416   71.4169 H   0  0  0  0  0  0  0  0  0  0  0  0
   -0.4002   64.3491   73.4956 H   0  0  0  0  0  0  0  0  0  0  0  0
   -0.7701   66.0031   71.6597 H   0  0  0  0  0  0  0  0  0  0  0  0
    1.6641   62.7556   76.0544 H   0  0  0  0  0  0  0  0  0  0  0  0
    2.5826   63.8607   75.1802 H   0  0  0  0  0  0  0  0  0  0  0  0
  2  1  2  0
  4  3  1  0
  5  4  2  0
  6  1  1  0
  6  5  1  0
  7  6  2  0
  8  7  1  0
  9  8  2  0
  9  4  1  0
 10  8  1  0
 11  7  1  0
 12  2  1  0
 13 12  2  0
 14 13  1  0
 15 14  2  0
 16 15  1  0
 17 16  2  0
 17 12  1  0
 18 15  1  0
 19 18  2  0
 20 18  2  0
 21 18  1  0
  1 22  1  0
  5 23  1  0
  9 24  1  0
 11 25  1  0
 13 26  1  0
 14 27  1  0
 16 28  1  0
 17 29  1  0
 21 30  1  0
 21 31  1  0
M  END
>  <score>  (4) 
-7.18

$$$$
=
     RDKit          3D

 31 32  0  0  0  0  0  0  0  0999 V2000
    0.6000   65.9110   69.8650 C   0  0  0  0  0  0  0  0  0  0  0  0
    1.5920   65.0900   70.0270 N   0  0  0  0  0  0  0  0  0  0  0  0
    3.5030   70.1550   68.4450 Br  0  0  0  0  0  0  0  0  0  0  0  0
    1.9700   69.0580   68.3090 C   0  0  0  0  0  0  0  0  0  0  0  0
    1.8580   67.9250   69.1140 C   0  0  0  0  0  0  0  0  0  0  0  0
    0.7220   67.1120   69.0140 C   0  0  0  0  0  0  0  0  0  0  0  0
   -0.2930   67.4390   68.1100 C   0  0  0  0  0  0  0  0  0  0  0  0
   -0.1650   68.5790   67.3100 C   0  0  0  0  0  0  0  0  0  0  0  0
    0.9630   69.3920   67.4050 C   0  0  0  0  0  0  0  0  0  0  0  0
   -1.4100   68.9970   66.1890 Cl  0  0  0  0  0  0  0  0  0  0  0  0
   -1.4030   66.6410   68.0150 O   0  0  0  0  0  0  0  0  0  0  0  0
    1.3510   63.9890   70.8570 C   0  0  0  0  0  0  0  0  0  0  0  0
    0.2910   64.0120   71.7700 C   0  0  0  0  0  0  0  0  0  0  0  0
    0.0350   62.9080   72.5850 C   0  0  0  0  0  0  0  0  0  0  0  0
    0.8470   61.7740   72.4790 C   0  0  0  0  0  0  0  0  0  0  0  0
    1.8920   61.7280   71.5530 C   0  0  0  0  0  0  0  0  0  0  0  0
    2.1380   62.8390   70.7440 C   0  0  0  0  0  0  0  0  0  0  0  0
    0.5140   60.3700   73.5100 S   0  0  0  0  0  6  0  0  0  0  0  0
   -0.8550   59.9590   73.3030 O   0  0  0  0  0  0  0  0  0  0  0  0
    1.0630   60.6220   74.8210 O   0  0  0  0  0  0  0  0  0  0  0  0
    1.4580   59.1840   72.7720 N   0  0  0  0  0  0  0  0  0  0  0  0
   -0.3540   65.7076   70.3734 H   0  0  0  0  0  0  0  0  0  0  0  0
    2.6584   67.6708   69.8245 H   0  0  0  0  0  0  0  0  0  0  0  0
    1.0576   70.2876   66.7734 H   0  0  0  0  0  0  0  0  0  0  0  0
   -2.1237   66.8695   67.3759 H   0  0  0  0  0  0  0  0  0  0  0  0
   -0.3450   64.9063   71.8461 H   0  0  0  0  0  0  0  0  0  0  0  0
   -0.7974   62.9296   73.3038 H   0  0  0  0  0  0  0  0  0  0  0  0
    2.5146   60.8257   71.4622 H   0  0  0  0  0  0  0  0  0  0  0  0
    2.9580   62.8093   70.0114 H   0  0  0  0  0  0  0  0  0  0  0  0
    1.9150   58.6099   73.4948 H   0  0  0  0  0  0  0  0  0  0  0  0
    0.8599   58.5850   72.1852 H   0  0  0  0  0  0  0  0  0  0  0  0
  2  1  2  0
  4  3  1  0
  5  4  2  0
  6  1  1  0
  6  5  1  0
  7  6  2  0
  8  7  1  0
  9  8  2  0
  9  4  1  0
 10  8  1  0
 11  7  1  0
 12  2  1  0
 13 12  2  0
 14 13  1  0
 15 14  2  0
 16 15  1  0
 17 16  2  0
 17 12  1  0
 18 15  1  0
 19 18  2  0
 20 18  2  0
 21 18  1  0
  1 22  1  0
  5 23  1  0
  9 24  1  0
 11 25  1  0
 13 26  1  0
 14 27  1  0
 16 28  1  0
 17 29  1  0
 21 30  1  0
 21 31  1  0
M  END
>  <score>  (5) 
-7.167

$$$$
=
     RDKit          3D

 31 32  0  0  0  0  0  0  0  0999 V2000
    1.1590   60.8750   72.4810 C   0  0  0  0  0  0  0  0  0  0  0  0
    1.7310   59.7170   72.3600 N   0  0  0  0  0  0  0  0  0  0  0  0
    0.2170   65.6930   70.3940 Br  0  0  0  0  0  0  0  0  0  0  0  0
    1.3710   64.2710   70.8610 C   0  0  0  0  0  0  0  0  0  0  0  0
    0.8520   63.1340   71.4790 C   0  0  0  0  0  0  0  0  0  0  0  0
    1.7070   62.0800   71.8260 C   0  0  0  0  0  0  0  0  0  0  0  0
    3.0740   62.1710   71.5510 C   0  0  0  0  0  0  0  0  0  0  0  0
    3.5800   63.3200   70.9310 C   0  0  0  0  0  0  0  0  0  0  0  0
    2.7330   64.3710   70.5840 C   0  0  0  0  0  0  0  0  0  0  0  0
    5.2660   63.4480   70.5850 Cl  0  0  0  0  0  0  0  0  0  0  0  0
    3.9080   61.1390   71.8920 O   0  0  0  0  0  0  0  0  0  0  0  0
    1.1150   58.6530   73.0270 C   0  0  0  0  0  0  0  0  0  0  0  0
   -0.0830   58.8540   73.7220 C   0  0  0  0  0  0  0  0  0  0  0  0
   -0.7130   57.7900   74.3720 C   0  0  0  0  0  0  0  0  0  0  0  0
   -0.1360   56.5180   74.3210 C   0  0  0  0  0  0  0  0  0  0  0  0
    1.0460   56.2970   73.6090 C   0  0  0  0  0  0  0  0  0  0  0  0
    1.6660   57.3690   72.9630 C   0  0  0  0  0  0  0  0  0  0  0  0
   -0.9400   55.1670   75.1410 S   0  0  0  0  0  6  0  0  0  0  0  0
   -2.3640   55.4110   75.1430 O   0  0  0  0  0  0  0  0  0  0  0  0
   -0.2020   54.8520   76.3410 O   0  0  0  0  0  0  0  0  0  0  0  0
   -0.6980   53.9150   74.0390 N   0  0  0  0  0  0  0  0  0  0  0  0
    0.2442   60.9615   73.0857 H   0  0  0  0  0  0  0  0  0  0  0  0
   -0.2247   63.0649   71.6933 H   0  0  0  0  0  0  0  0  0  0  0  0
    3.1358   65.2709   70.0961 H   0  0  0  0  0  0  0  0  0  0  0  0
    4.8769   61.2009   71.6983 H   0  0  0  0  0  0  0  0  0  0  0  0
   -0.5320   59.8576   73.7567 H   0  0  0  0  0  0  0  0  0  0  0  0
   -1.6538   57.9517   74.9185 H   0  0  0  0  0  0  0  0  0  0  0  0
    1.4836   55.2891   73.5578 H   0  0  0  0  0  0  0  0  0  0  0  0
    2.5956   57.2020   72.3991 H   0  0  0  0  0  0  0  0  0  0  0  0
   -0.5282   53.0365   74.5493 H   0  0  0  0  0  0  0  0  0  0  0  0
   -1.5347   53.8121   73.4471 H   0  0  0  0  0  0  0  0  0  0  0  0
  2  1  2  0
  4  3  1  0
  5  4  2  0
  6  1  1  0
  6  5  1  0
  7  6  2  0
  8  7  1  0
  9  8  2  0
  9  4  1  0
 10  8  1  0
 11  7  1  0
 12  2  1  0
 13 12  2  0
 14 13  1  0
 15 14  2  0
 16 15  1  0
 17 16  2  0
 17 12  1  0
 18 15  1  0
 19 18  2  0
 20 18  2  0
 21 18  1  0
  1 22  1  0
  5 23  1  0
  9 24  1  0
 11 25  1  0
 13 26  1  0
 14 27  1  0
 16 28  1  0
 17 29  1  0
 21 30  1  0
 21 31  1  0
M  END
>  <score>  (6) 
-6.991

$$$$
=
     RDKit          3D

 31 32  0  0  0  0  0  0  0  0999 V2000
    1.4420   58.6320   73.1210 C   0  0  0  0  0  0  0  0  0  0  0  0
    1.7800   57.4550   72.6920 N   0  0  0  0  0  0  0  0  0  0  0  0
    0.7100   63.6160   71.3650 Br  0  0  0  0  0  0  0  0  0  0  0  0
    1.8050   62.1240   71.7510 C   0  0  0  0  0  0  0  0  0  0  0  0
    1.2340   60.9660   72.2770 C   0  0  0  0  0  0  0  0  0  0  0  0
    2.0450   59.8600   72.5640 C   0  0  0  0  0  0  0  0  0  0  0  0
    3.4200   59.9220   72.3210 C   0  0  0  0  0  0  0  0  0  0  0  0
    3.9770   61.0920   71.7930 C   0  0  0  0  0  0  0  0  0  0  0  0
    3.1750   62.1950   71.5060 C   0  0  0  0  0  0  0  0  0  0  0  0
    5.6740   61.1840   71.4870 Cl  0  0  0  0  0  0  0  0  0  0  0  0
    4.2100   58.8380   72.6030 O   0  0  0  0  0  0  0  0  0  0  0  0
    1.1370   56.3710   73.3000 C   0  0  0  0  0  0  0  0  0  0  0  0
   -0.2400   56.4120   73.5420 C   0  0  0  0  0  0  0  0  0  0  0  0
   -0.8890   55.3240   74.1300 C   0  0  0  0  0  0  0  0  0  0  0  0
   -0.1500   54.1890   74.4740 C   0  0  0  0  0  0  0  0  0  0  0  0
    1.2220   54.1230   74.2130 C   0  0  0  0  0  0  0  0  0  0  0  0
    1.8590   55.2180   73.6250 C   0  0  0  0  0  0  0  0  0  0  0  0
   -0.9760   52.8050   75.2130 S   0  0  0  0  0  6  0  0  0  0  0  0
   -2.1520   53.2850   75.9030 O   0  0  0  0  0  0  0  0  0  0  0  0
    0.0120   51.9640   75.8460 O   0  0  0  0  0  0  0  0  0  0  0  0
   -1.5520   51.9940   73.8520 N   0  0  0  0  0  0  0  0  0  0  0  0
    0.6888   58.7173   73.9181 H   0  0  0  0  0  0  0  0  0  0  0  0
    0.1513   60.9208   72.4659 H   0  0  0  0  0  0  0  0  0  0  0  0
    3.6186   63.1118   71.0905 H   0  0  0  0  0  0  0  0  0  0  0  0
    5.1844   58.8778   72.4324 H   0  0  0  0  0  0  0  0  0  0  0  0
   -0.8161   57.3079   73.2672 H   0  0  0  0  0  0  0  0  0  0  0  0
   -1.9718   55.3602   74.3205 H   0  0  0  0  0  0  0  0  0  0  0  0
    1.7935   53.2184   74.4680 H   0  0  0  0  0  0  0  0  0  0  0  0
    2.9380   55.1733   73.4156 H   0  0  0  0  0  0  0  0  0  0  0  0
   -2.1233   51.1896   74.1478 H   0  0  0  0  0  0  0  0  0  0  0  0
   -2.1280   52.6354   73.2883 H   0  0  0  0  0  0  0  0  0  0  0  0
  2  1  2  0
  4  3  1  0
  5  4  2  0
  6  1  1  0
  6  5  1  0
  7  6  2  0
  8  7  1  0
  9  8  2  0
  9  4  1  0
 10  8  1  0
 11  7  1  0
 12  2  1  0
 13 12  2  0
 14 13  1  0
 15 14  2  0
 16 15  1  0
 17 16  2  0
 17 12  1  0
 18 15  1  0
 19 18  2  0
 20 18  2  0
 21 18  1  0
  1 22  1  0
  5 23  1  0
  9 24  1  0
 11 25  1  0
 13 26  1  0
 14 27  1  0
 16 28  1  0
 17 29  1  0
 21 30  1  0
 21 31  1  0
M  END
>  <score>  (7) 
-6.99

$$$$
=
     RDKit          3D

 31 32  0  0  0  0  0  0  0  0999 V2000
    0.7110   60.2990   72.8860 C   0  0  0  0  0  0  0  0  0  0  0  0
    1.3560   59.1740   72.8910 N   0  0  0  0  0  0  0  0  0  0  0  0
    4.9370   62.6570   70.6400 Br  0  0  0  0  0  0  0  0  0  0  0  0
    3.1440   62.6590   71.2380 C   0  0  0  0  0  0  0  0  0  0  0  0
    2.6090   61.5120   71.8230 C   0  0  0  0  0  0  0  0  0  0  0  0
    1.2800   61.5130   72.2660 C   0  0  0  0  0  0  0  0  0  0  0  0
    0.4970   62.6620   72.1210 C   0  0  0  0  0  0  0  0  0  0  0  0
    1.0490   63.8050   71.5300 C   0  0  0  0  0  0  0  0  0  0  0  0
    2.3710   63.8090   71.0880 C   0  0  0  0  0  0  0  0  0  0  0  0
    0.0950   65.2320   71.3430 Cl  0  0  0  0  0  0  0  0  0  0  0  0
   -0.8030   62.6600   72.5550 O   0  0  0  0  0  0  0  0  0  0  0  0
    0.7100   58.0970   73.5090 C   0  0  0  0  0  0  0  0  0  0  0  0
   -0.4950   58.2950   74.1930 C   0  0  0  0  0  0  0  0  0  0  0  0
   -1.1540   57.2200   74.7930 C   0  0  0  0  0  0  0  0  0  0  0  0
   -0.5990   55.9400   74.7030 C   0  0  0  0  0  0  0  0  0  0  0  0
    0.5890   55.7230   74.0010 C   0  0  0  0  0  0  0  0  0  0  0  0
    1.2380   56.8070   73.4040 C   0  0  0  0  0  0  0  0  0  0  0  0
   -1.4410   54.5740   75.4600 S   0  0  0  0  0  6  0  0  0  0  0  0
   -1.2870   54.6750   76.8930 O   0  0  0  0  0  0  0  0  0  0  0  0
   -1.1240   53.3740   74.7230 O   0  0  0  0  0  0  0  0  0  0  0  0
   -3.0520   54.9620   75.1500 N   0  0  0  0  0  0  0  0  0  0  0  0
   -0.2830   60.3504   73.3544 H   0  0  0  0  0  0  0  0  0  0  0  0
    3.2281   60.6098   71.9362 H   0  0  0  0  0  0  0  0  0  0  0  0
    2.7997   64.7104   70.6256 H   0  0  0  0  0  0  0  0  0  0  0  0
   -1.3599   63.4722   72.4537 H   0  0  0  0  0  0  0  0  0  0  0  0
   -0.9261   59.3049   74.2584 H   0  0  0  0  0  0  0  0  0  0  0  0
   -2.1002   57.3787   75.3310 H   0  0  0  0  0  0  0  0  0  0  0  0
    1.0091   54.7097   73.9190 H   0  0  0  0  0  0  0  0  0  0  0  0
    2.1722   56.6438   72.8467 H   0  0  0  0  0  0  0  0  0  0  0  0
   -3.5537   55.0828   76.0414 H   0  0  0  0  0  0  0  0  0  0  0  0
   -3.0964   55.8377   74.6096 H   0  0  0  0  0  0  0  0  0  0  0  0
  2  1  2  0
  4  3  1  0
  5  4  2  0
  6  1  1  0
  6  5  1  0
  7  6  2  0
  8  7  1  0
  9  8  2  0
  9  4  1  0
 10  8  1  0
 11  7  1  0
 12  2  1  0
 13 12  2  0
 14 13  1  0
 15 14  2  0
 16 15  1  0
 17 16  2  0
 17 12  1  0
 18 15  1  0
 19 18  2  0
 20 18  2  0
 21 18  1  0
  1 22  1  0
  5 23  1  0
  9 24  1  0
 11 25  1  0
 13 26  1  0
 14 27  1  0
 16 28  1  0
 17 29  1  0
 21 30  1  0
 21 31  1  0
M  END
>  <score>  (8) 
-6.622

$$$$
=
     RDKit          3D

 31 32  0  0  0  0  0  0  0  0999 V2000
    0.0500   62.2120   72.7040 C   0  0  0  0  0  0  0  0  0  0  0  0
   -0.0350   60.9260   72.5570 N   0  0  0  0  0  0  0  0  0  0  0  0
    0.7740   66.5440   69.6750 Br  0  0  0  0  0  0  0  0  0  0  0  0
    1.3930   64.9620   70.5040 C   0  0  0  0  0  0  0  0  0  0  0  0
    0.5180   64.1970   71.2740 C   0  0  0  0  0  0  0  0  0  0  0  0
    0.9760   63.0250   71.8880 C   0  0  0  0  0  0  0  0  0  0  0  0
    2.3060   62.6270   71.7270 C   0  0  0  0  0  0  0  0  0  0  0  0
    3.1720   63.4060   70.9520 C   0  0  0  0  0  0  0  0  0  0  0  0
    2.7210   64.5740   70.3380 C   0  0  0  0  0  0  0  0  0  0  0  0
    4.8180   62.9280   70.7440 Cl  0  0  0  0  0  0  0  0  0  0  0  0
    2.7510   61.4790   72.3300 O   0  0  0  0  0  0  0  0  0  0  0  0
   -0.9490   60.2710   73.3890 C   0  0  0  0  0  0  0  0  0  0  0  0
   -0.6310   59.0290   73.9480 C   0  0  0  0  0  0  0  0  0  0  0  0
   -1.5320   58.3810   74.7960 C   0  0  0  0  0  0  0  0  0  0  0  0
   -2.7590   58.9870   75.0830 C   0  0  0  0  0  0  0  0  0  0  0  0
   -3.0790   60.2390   74.5530 C   0  0  0  0  0  0  0  0  0  0  0  0
   -2.1690   60.8770   73.7070 C   0  0  0  0  0  0  0  0  0  0  0  0
   -3.8990   58.1670   76.1660 S   0  0  0  0  0  6  0  0  0  0  0  0
   -4.9330   57.5510   75.3660 O   0  0  0  0  0  0  0  0  0  0  0  0
   -4.1890   59.0420   77.2760 O   0  0  0  0  0  0  0  0  0  0  0  0
   -2.9560   56.8940   76.7410 N   0  0  0  0  0  0  0  0  0  0  0  0
   -0.5824   62.7094   73.4541 H   0  0  0  0  0  0  0  0  0  0  0  0
   -0.5282   64.5130   71.3987 H   0  0  0  0  0  0  0  0  0  0  0  0
    3.4061   65.1824   69.7293 H   0  0  0  0  0  0  0  0  0  0  0  0
    3.6925   61.1940   72.2181 H   0  0  0  0  0  0  0  0  0  0  0  0
    0.3364   58.5588   73.7179 H   0  0  0  0  0  0  0  0  0  0  0  0
   -1.2789   57.4040   75.2336 H   0  0  0  0  0  0  0  0  0  0  0  0
   -4.0382   60.7178   74.7994 H   0  0  0  0  0  0  0  0  0  0  0  0
   -2.4137   61.8640   73.2874 H   0  0  0  0  0  0  0  0  0  0  0  0
   -2.9611   56.9009   77.7710 H   0  0  0  0  0  0  0  0  0  0  0  0
   -3.3411   56.0010   76.4017 H   0  0  0  0  0  0  0  0  0  0  0  0
  2  1  2  0
  4  3  1  0
  5  4  2  0
  6  1  1  0
  6  5  1  0
  7  6  2  0
  8  7  1  0
  9  8  2  0
  9  4  1  0
 10  8  1  0
 11  7  1  0
 12  2  1  0
 13 12  2  0
 14 13  1  0
 15 14  2  0
 16 15  1  0
 17 16  2  0
 17 12  1  0
 18 15  1  0
 19 18  2  0
 20 18  2  0
 21 18  1  0
  1 22  1  0
  5 23  1  0
  9 24  1  0
 11 25  1  0
 13 26  1  0
 14 27  1  0
 16 28  1  0
 17 29  1  0
 21 30  1  0
 21 31  1  0
M  END
>  <score>  (9) 
-6.528

$$$$
