=
     RDKit          3D

 19 19  0  0  0  0  0  0  0  0999 V2000
    3.5910   68.9970   64.9120 C   0  0  0  0  0  0  0  0  0  0  0  0
    4.9390   69.3570   64.8040 C   0  0  0  0  0  0  0  0  0  0  0  0
    5.6190   69.9220   65.8860 C   0  0  0  0  0  0  0  0  0  0  0  0
    4.9500   70.0990   67.0980 C   0  0  0  0  0  0  0  0  0  0  0  0
    3.6260   69.6810   67.2450 C   0  0  0  0  0  0  0  0  0  0  0  0
    2.9590   69.1170   66.1550 C   0  0  0  0  0  0  0  0  0  0  0  0
    2.9590   68.3200   63.8650 N   0  0  0  0  0  0  0  0  0  0  0  0
    5.7980   70.8050   68.4840 S   0  0  0  0  0  6  0  0  0  0  0  0
    7.1980   70.4580   68.3950 O   0  0  0  0  0  0  0  0  0  0  0  0
    5.0130   70.5720   69.6720 O   0  0  0  0  0  0  0  0  0  0  0  0
    5.7180   72.4490   68.1220 N   0  0  0  0  0  0  0  0  0  0  0  0
    5.4702   69.1930   63.8548 H   0  0  0  0  0  0  0  0  0  0  0  0
    6.6716   70.2244   65.7835 H   0  0  0  0  0  0  0  0  0  0  0  0
    3.1125   69.7949   68.2111 H   0  0  0  0  0  0  0  0  0  0  0  0
    1.9245   68.7629   66.2750 H   0  0  0  0  0  0  0  0  0  0  0  0
    1.9667   68.0562   63.9470 H   0  0  0  0  0  0  0  0  0  0  0  0
    3.4856   68.0850   63.0115 H   0  0  0  0  0  0  0  0  0  0  0  0
    5.6916   72.9923   68.9967 H   0  0  0  0  0  0  0  0  0  0  0  0
    6.5468   72.7206   67.5740 H   0  0  0  0  0  0  0  0  0  0  0  0
  2  1  2  0
  3  2  1  0
  4  3  2  0
  5  4  1  0
  6  1  1  0
  6  5  2  0
  7  1  1  0
  8  4  1  0
  9  8  2  0
 10  8  2  0
 11  8  1  0
  2 12  1  0
  3 13  1  0
  5 14  1  0
  6 15  1  0
  7 16  1  0
  7 17  1  0
 11 18  1  0
 11 19  1  0
M  END
>  <score>  (1) 
-6.684

$$$$
=
     RDKit          3D

 19 19  0  0  0  0  0  0  0  0999 V2000
    2.1670   69.0380   67.0940 C   0  0  0  0  0  0  0  0  0  0  0  0
    2.2730   69.6650   68.3410 C   0  0  0  0  0  0  0  0  0  0  0  0
    3.4670   70.2730   68.7380 C   0  0  0  0  0  0  0  0  0  0  0  0
    4.5550   70.2800   67.8640 C   0  0  0  0  0  0  0  0  0  0  0  0
    4.4450   69.7200   66.5900 C   0  0  0  0  0  0  0  0  0  0  0  0
    3.2450   69.1160   66.2060 C   0  0  0  0  0  0  0  0  0  0  0  0
    0.9340   68.5430   66.6600 N   0  0  0  0  0  0  0  0  0  0  0  0
    6.0750   71.0550   68.3460 S   0  0  0  0  0  6  0  0  0  0  0  0
    6.4520   70.5580   69.6490 O   0  0  0  0  0  0  0  0  0  0  0  0
    5.9890   72.4630   68.0440 O   0  0  0  0  0  0  0  0  0  0  0  0
    7.1620   70.3560   67.2650 N   0  0  0  0  0  0  0  0  0  0  0  0
    1.4054   69.6793   69.0171 H   0  0  0  0  0  0  0  0  0  0  0  0
    3.5485   70.7416   69.7299 H   0  0  0  0  0  0  0  0  0  0  0  0
    5.2962   69.7540   65.8940 H   0  0  0  0  0  0  0  0  0  0  0  0
    3.1469   68.6970   65.1937 H   0  0  0  0  0  0  0  0  0  0  0  0
    0.8584   68.0820   65.7420 H   0  0  0  0  0  0  0  0  0  0  0  0
    0.1010   68.6392   67.2581 H   0  0  0  0  0  0  0  0  0  0  0  0
    7.9076   69.8766   67.7896 H   0  0  0  0  0  0  0  0  0  0  0  0
    6.6666   69.6747   66.6723 H   0  0  0  0  0  0  0  0  0  0  0  0
  2  1  2  0
  3  2  1  0
  4  3  2  0
  5  4  1  0
  6  1  1  0
  6  5  2  0
  7  1  1  0
  8  4  1  0
  9  8  2  0
 10  8  2  0
 11  8  1  0
  2 12  1  0
  3 13  1  0
  5 14  1  0
  6 15  1  0
  7 16  1  0
  7 17  1  0
 11 18  1  0
 11 19  1  0
M  END
>  <score>  (2) 
-6.477

$$$$
=
     RDKit          3D

 19 19  0  0  0  0  0  0  0  0999 V2000
    3.3850   70.0040   68.3070 C   0  0  0  0  0  0  0  0  0  0  0  0
    4.6700   70.2250   67.8000 C   0  0  0  0  0  0  0  0  0  0  0  0
    5.0130   69.8110   66.5100 C   0  0  0  0  0  0  0  0  0  0  0  0
    4.0480   69.1980   65.7090 C   0  0  0  0  0  0  0  0  0  0  0  0
    2.7420   69.0320   66.1730 C   0  0  0  0  0  0  0  0  0  0  0  0
    2.4140   69.4520   67.4650 C   0  0  0  0  0  0  0  0  0  0  0  0
    3.0190   70.5320   69.5480 N   0  0  0  0  0  0  0  0  0  0  0  0
    4.4610   68.6750   64.0670 S   0  0  0  0  0  6  0  0  0  0  0  0
    3.4080   69.0950   63.1710 O   0  0  0  0  0  0  0  0  0  0  0  0
    4.9380   67.3140   64.1230 O   0  0  0  0  0  0  0  0  0  0  0  0
    5.7740   69.6720   63.7200 N   0  0  0  0  0  0  0  0  0  0  0  0
    5.4204   70.7313   68.4250 H   0  0  0  0  0  0  0  0  0  0  0  0
    6.0333   69.9667   66.1296 H   0  0  0  0  0  0  0  0  0  0  0  0
    1.9777   68.5747   65.5274 H   0  0  0  0  0  0  0  0  0  0  0  0
    1.3796   69.3472   67.8241 H   0  0  0  0  0  0  0  0  0  0  0  0
    2.0722   70.3676   69.9186 H   0  0  0  0  0  0  0  0  0  0  0  0
    3.6961   71.0856   70.0921 H   0  0  0  0  0  0  0  0  0  0  0  0
    6.2009   69.9961   64.5996 H   0  0  0  0  0  0  0  0  0  0  0  0
    6.4705   69.1449   63.1741 H   0  0  0  0  0  0  0  0  0  0  0  0
  2  1  2  0
  3  2  1  0
  4  3  2  0
  5  4  1  0
  6  1  1  0
  6  5  2  0
  7  1  1  0
  8  4  1  0
  9  8  2  0
 10  8  2  0
 11  8  1  0
  2 12  1  0
  3 13  1  0
  5 14  1  0
  6 15  1  0
  7 16  1  0
  7 17  1  0
 11 18  1  0
 11 19  1  0
M  END
>  <score>  (3) 
-6.447

$$$$
=
     RDKit          3D

 19 19  0  0  0  0  0  0  0  0999 V2000
    4.3800   69.3850   65.3050 C   0  0  0  0  0  0  0  0  0  0  0  0
    3.5220   69.0150   64.2630 C   0  0  0  0  0  0  0  0  0  0  0  0
    2.1920   68.6720   64.5170 C   0  0  0  0  0  0  0  0  0  0  0  0
    1.7070   68.7320   65.8240 C   0  0  0  0  0  0  0  0  0  0  0  0
    2.5290   69.1660   66.8660 C   0  0  0  0  0  0  0  0  0  0  0  0
    3.8570   69.5070   66.5970 C   0  0  0  0  0  0  0  0  0  0  0  0
    5.6700   69.8440   65.0230 N   0  0  0  0  0  0  0  0  0  0  0  0
    0.0200   68.3110   66.1650 S   0  0  0  0  0  6  0  0  0  0  0  0
   -0.4780   69.1960   67.1930 O   0  0  0  0  0  0  0  0  0  0  0  0
   -0.0860   66.8750   66.2570 O   0  0  0  0  0  0  0  0  0  0  0  0
   -0.7390   68.7980   64.7430 N   0  0  0  0  0  0  0  0  0  0  0  0
    3.9001   68.9940   63.2302 H   0  0  0  0  0  0  0  0  0  0  0  0
    1.5330   68.3575   63.6943 H   0  0  0  0  0  0  0  0  0  0  0  0
    2.1343   69.2388   67.8902 H   0  0  0  0  0  0  0  0  0  0  0  0
    4.4989   69.8757   67.4106 H   0  0  0  0  0  0  0  0  0  0  0  0
    6.2995   70.1157   65.7917 H   0  0  0  0  0  0  0  0  0  0  0  0
    5.9910   69.9105   64.0466 H   0  0  0  0  0  0  0  0  0  0  0  0
   -1.5840   69.3402   64.9731 H   0  0  0  0  0  0  0  0  0  0  0  0
   -0.0945   69.3837   64.1930 H   0  0  0  0  0  0  0  0  0  0  0  0
  2  1  2  0
  3  2  1  0
  4  3  2  0
  5  4  1  0
  6  1  1  0
  6  5  2  0
  7  1  1  0
  8  4  1  0
  9  8  2  0
 10  8  2  0
 11  8  1  0
  2 12  1  0
  3 13  1  0
  5 14  1  0
  6 15  1  0
  7 16  1  0
  7 17  1  0
 11 18  1  0
 11 19  1  0
M  END
>  <score>  (4) 
-6.386

$$$$
=
     RDKit          3D

 19 19  0  0  0  0  0  0  0  0999 V2000
    5.4040   70.0430   66.6010 C   0  0  0  0  0  0  0  0  0  0  0  0
    4.8240   69.4640   65.4680 C   0  0  0  0  0  0  0  0  0  0  0  0
    3.5190   68.9660   65.5060 C   0  0  0  0  0  0  0  0  0  0  0  0
    2.7780   69.0770   66.6840 C   0  0  0  0  0  0  0  0  0  0  0  0
    3.3170   69.7140   67.8030 C   0  0  0  0  0  0  0  0  0  0  0  0
    4.6230   70.2090   67.7490 C   0  0  0  0  0  0  0  0  0  0  0  0
    6.6620   70.6480   66.5140 N   0  0  0  0  0  0  0  0  0  0  0  0
    1.1180   68.4600   66.7500 S   0  0  0  0  0  6  0  0  0  0  0  0
    1.1500   67.1040   67.2480 O   0  0  0  0  0  0  0  0  0  0  0  0
    0.4430   68.8240   65.5280 O   0  0  0  0  0  0  0  0  0  0  0  0
    0.4680   69.3840   67.9980 N   0  0  0  0  0  0  0  0  0  0  0  0
    5.4026   69.3997   64.5347 H   0  0  0  0  0  0  0  0  0  0  0  0
    3.0797   68.4911   64.6163 H   0  0  0  0  0  0  0  0  0  0  0  0
    2.7190   69.8255   68.7195 H   0  0  0  0  0  0  0  0  0  0  0  0
    5.0413   70.7353   68.6197 H   0  0  0  0  0  0  0  0  0  0  0  0
    7.0875   71.0739   67.3497 H   0  0  0  0  0  0  0  0  0  0  0  0
    7.1629   70.6676   65.6142 H   0  0  0  0  0  0  0  0  0  0  0  0
    0.7497   68.9836   68.9042 H   0  0  0  0  0  0  0  0  0  0  0  0
    0.8162   70.3507   67.9267 H   0  0  0  0  0  0  0  0  0  0  0  0
  2  1  2  0
  3  2  1  0
  4  3  2  0
  5  4  1  0
  6  1  1  0
  6  5  2  0
  7  1  1  0
  8  4  1  0
  9  8  2  0
 10  8  2  0
 11  8  1  0
  2 12  1  0
  3 13  1  0
  5 14  1  0
  6 15  1  0
  7 16  1  0
  7 17  1  0
 11 18  1  0
 11 19  1  0
M  END
>  <score>  (5) 
-6.331

$$$$
=
     RDKit          3D

 19 19  0  0  0  0  0  0  0  0999 V2000
    3.6280   70.1700   68.2560 C   0  0  0  0  0  0  0  0  0  0  0  0
    2.6650   69.5130   67.4830 C   0  0  0  0  0  0  0  0  0  0  0  0
    2.9620   69.0730   66.1910 C   0  0  0  0  0  0  0  0  0  0  0  0
    4.2460   69.2640   65.6810 C   0  0  0  0  0  0  0  0  0  0  0  0
    5.2390   69.8550   66.4630 C   0  0  0  0  0  0  0  0  0  0  0  0
    4.9280   70.2900   67.7540 C   0  0  0  0  0  0  0  0  0  0  0  0
    3.3570   70.4940   69.5890 N   0  0  0  0  0  0  0  0  0  0  0  0
    4.6450   68.7040   64.0470 S   0  0  0  0  0  6  0  0  0  0  0  0
    5.0090   67.3070   64.1150 O   0  0  0  0  0  0  0  0  0  0  0  0
    5.4770   69.6960   63.4110 O   0  0  0  0  0  0  0  0  0  0  0  0
    3.1330   68.7400   63.3040 N   0  0  0  0  0  0  0  0  0  0  0  0
    1.6609   69.3406   67.8979 H   0  0  0  0  0  0  0  0  0  0  0  0
    2.1903   68.5803   65.5813 H   0  0  0  0  0  0  0  0  0  0  0  0
    6.2578   69.9774   66.0667 H   0  0  0  0  0  0  0  0  0  0  0  0
    5.7148   70.7320   68.3829 H   0  0  0  0  0  0  0  0  0  0  0  0
    4.0678   70.9778   70.1561 H   0  0  0  0  0  0  0  0  0  0  0  0
    2.4466   70.2489   70.0037 H   0  0  0  0  0  0  0  0  0  0  0  0
    2.3969   68.7575   64.0242 H   0  0  0  0  0  0  0  0  0  0  0  0
    3.0590   69.5830   62.7168 H   0  0  0  0  0  0  0  0  0  0  0  0
  2  1  2  0
  3  2  1  0
  4  3  2  0
  5  4  1  0
  6  1  1  0
  6  5  2  0
  7  1  1  0
  8  4  1  0
  9  8  2  0
 10  8  2  0
 11  8  1  0
  2 12  1  0
  3 13  1  0
  5 14  1  0
  6 15  1  0
  7 16  1  0
  7 17  1  0
 11 18  1  0
 11 19  1  0
M  END
>  <score>  (6) 
-6.324

$$$$
=
     RDKit          3D

 19 19  0  0  0  0  0  0  0  0999 V2000
    4.5370   69.3940   64.3980 C   0  0  0  0  0  0  0  0  0  0  0  0
    4.5170   69.5860   65.7840 C   0  0  0  0  0  0  0  0  0  0  0  0
    3.3690   69.3050   66.5300 C   0  0  0  0  0  0  0  0  0  0  0  0
    2.2400   68.7980   65.8840 C   0  0  0  0  0  0  0  0  0  0  0  0
    2.2650   68.5360   64.5130 C   0  0  0  0  0  0  0  0  0  0  0  0
    3.4210   68.8200   63.7800 C   0  0  0  0  0  0  0  0  0  0  0  0
    5.7270   69.5610   63.6840 N   0  0  0  0  0  0  0  0  0  0  0  0
    0.7780   68.4270   66.8140 S   0  0  0  0  0  6  0  0  0  0  0  0
    0.9590   67.1520   67.4700 O   0  0  0  0  0  0  0  0  0  0  0  0
   -0.3740   68.7260   65.9980 O   0  0  0  0  0  0  0  0  0  0  0  0
    0.8600   69.5810   68.0390 N   0  0  0  0  0  0  0  0  0  0  0  0
    5.4164   69.9629   66.2929 H   0  0  0  0  0  0  0  0  0  0  0  0
    3.3552   69.4816   67.6156 H   0  0  0  0  0  0  0  0  0  0  0  0
    1.3825   68.1096   64.0137 H   0  0  0  0  0  0  0  0  0  0  0  0
    3.4534   68.5895   62.7049 H   0  0  0  0  0  0  0  0  0  0  0  0
    5.7397   69.4192   62.6639 H   0  0  0  0  0  0  0  0  0  0  0  0
    6.5911   69.8258   64.1780 H   0  0  0  0  0  0  0  0  0  0  0  0
    0.8267   69.1119   68.9554 H   0  0  0  0  0  0  0  0  0  0  0  0
    1.7406   70.1087   67.9552 H   0  0  0  0  0  0  0  0  0  0  0  0
  2  1  2  0
  3  2  1  0
  4  3  2  0
  5  4  1  0
  6  1  1  0
  6  5  2  0
  7  1  1  0
  8  4  1  0
  9  8  2  0
 10  8  2  0
 11  8  1  0
  2 12  1  0
  3 13  1  0
  5 14  1  0
  6 15  1  0
  7 16  1  0
  7 17  1  0
 11 18  1  0
 11 19  1  0
M  END
>  <score>  (7) 
-6.157

$$$$
=
     RDKit          3D

 19 19  0  0  0  0  0  0  0  0999 V2000
   -0.0850   68.7280   64.2380 C   0  0  0  0  0  0  0  0  0  0  0  0
    1.1110   68.4660   64.9170 C   0  0  0  0  0  0  0  0  0  0  0  0
    2.3180   68.3530   64.2230 C   0  0  0  0  0  0  0  0  0  0  0  0
    2.3330   68.5340   62.8400 C   0  0  0  0  0  0  0  0  0  0  0  0
    1.1620   68.8640   62.1560 C   0  0  0  0  0  0  0  0  0  0  0  0
   -0.0380   68.9760   62.8620 C   0  0  0  0  0  0  0  0  0  0  0  0
   -1.2620   68.9620   64.9550 N   0  0  0  0  0  0  0  0  0  0  0  0
    3.8560   68.4030   61.9440 S   0  0  0  0  0  6  0  0  0  0  0  0
    4.1210   67.0060   61.6860 O   0  0  0  0  0  0  0  0  0  0  0  0
    4.8260   69.2790   62.5550 O   0  0  0  0  0  0  0  0  0  0  0  0
    3.4250   69.0630   60.4550 N   0  0  0  0  0  0  0  0  0  0  0  0
    1.1001   68.3477   66.0106 H   0  0  0  0  0  0  0  0  0  0  0  0
    3.2487   68.1232   64.7625 H   0  0  0  0  0  0  0  0  0  0  0  0
    1.1840   69.0345   61.0695 H   0  0  0  0  0  0  0  0  0  0  0  0
   -0.9570   69.2626   62.3297 H   0  0  0  0  0  0  0  0  0  0  0  0
   -2.1408   69.1546   64.4536 H   0  0  0  0  0  0  0  0  0  0  0  0
   -1.2504   68.9418   65.9847 H   0  0  0  0  0  0  0  0  0  0  0  0
    2.8679   69.9161   60.6059 H   0  0  0  0  0  0  0  0  0  0  0  0
    4.2759   69.2980   59.9244 H   0  0  0  0  0  0  0  0  0  0  0  0
  2  1  2  0
  3  2  1  0
  4  3  2  0
  5  4  1  0
  6  1  1  0
  6  5  2  0
  7  1  1  0
  8  4  1  0
  9  8  2  0
 10  8  2  0
 11  8  1  0
  2 12  1  0
  3 13  1  0
  5 14  1  0
  6 15  1  0
  7 16  1  0
  7 17  1  0
 11 18  1  0
 11 19  1  0
M  END
>  <score>  (8) 
-6.11

$$$$
=
     RDKit          3D

 19 19  0  0  0  0  0  0  0  0999 V2000
    1.5740   68.8280   62.2980 C   0  0  0  0  0  0  0  0  0  0  0  0
    0.1960   69.0450   62.4130 C   0  0  0  0  0  0  0  0  0  0  0  0
   -0.4490   68.9220   63.6460 C   0  0  0  0  0  0  0  0  0  0  0  0
    0.3000   68.6080   64.7810 C   0  0  0  0  0  0  0  0  0  0  0  0
    1.6850   68.4560   64.6980 C   0  0  0  0  0  0  0  0  0  0  0  0
    2.3160   68.5830   63.4580 C   0  0  0  0  0  0  0  0  0  0  0  0
    2.2250   69.0750   61.0860 N   0  0  0  0  0  0  0  0  0  0  0  0
   -0.4990   68.4570   66.3570 S   0  0  0  0  0  6  0  0  0  0  0  0
    0.2690   69.1920   67.3350 O   0  0  0  0  0  0  0  0  0  0  0  0
   -0.8860   67.0790   66.5460 O   0  0  0  0  0  0  0  0  0  0  0  0
   -1.8980   69.3610   66.1090 N   0  0  0  0  0  0  0  0  0  0  0  0
   -0.3869   69.3161   61.5204 H   0  0  0  0  0  0  0  0  0  0  0  0
   -1.5362   69.0711   63.7216 H   0  0  0  0  0  0  0  0  0  0  0  0
    2.2744   68.2382   65.6008 H   0  0  0  0  0  0  0  0  0  0  0  0
    3.4101   68.4891   63.3932 H   0  0  0  0  0  0  0  0  0  0  0  0
    3.2391   68.9145   61.0041 H   0  0  0  0  0  0  0  0  0  0  0  0
    1.6906   69.4175   60.2748 H   0  0  0  0  0  0  0  0  0  0  0  0
   -2.3033   69.6229   67.0189 H   0  0  0  0  0  0  0  0  0  0  0  0
   -1.6667   70.2129   65.5782 H   0  0  0  0  0  0  0  0  0  0  0  0
  2  1  2  0
  3  2  1  0
  4  3  2  0
  5  4  1  0
  6  1  1  0
  6  5  2  0
  7  1  1  0
  8  4  1  0
  9  8  2  0
 10  8  2  0
 11  8  1  0
  2 12  1  0
  3 13  1  0
  5 14  1  0
  6 15  1  0
  7 16  1  0
  7 17  1  0
 11 18  1  0
 11 19  1  0
M  END
>  <score>  (9) 
-6.053

$$$$
