=
     RDKit          3D

 58 61  0  0  0  0  0  0  0  0999 V2000
    0.8680   66.0250   70.5850 C   0  0  0  0  0  0  0  0  0  0  0  0
    2.8370   61.4980   73.3070 C   0  0  0  0  0  0  0  0  0  0  0  0
    1.8040   62.4350   73.4230 C   0  0  0  0  0  0  0  0  0  0  0  0
    1.3430   63.0360   72.2640 C   0  0  0  0  0  0  0  0  0  0  0  0
    1.8540   62.7580   71.0040 C   0  0  0  0  0  0  0  0  0  0  0  0
    2.8710   61.8320   70.8710 C   0  0  0  0  0  0  0  0  0  0  0  0
    3.3580   61.1940   72.0230 C   0  0  0  0  0  0  0  0  0  0  0  0
    1.1600   63.5300   69.9260 C   0  0  0  0  0  0  0  0  0  0  0  0
    0.3330   64.5860   70.6950 C   0  0  1  0  0  0  0  0  0  0  0  0
    0.3520   64.0970   72.1310 C   0  0  0  0  0  0  0  0  0  0  0  0
   -0.2900   64.5490   73.0620 O   0  0  0  0  0  0  0  0  0  0  0  0
    2.7800   59.7400   74.9190 C   0  0  0  0  0  0  0  0  0  0  0  0
    3.4290   60.8880   74.3820 O   0  0  0  0  0  0  0  0  0  0  0  0
    4.3970   60.3260   71.7910 O   0  0  0  0  0  0  0  0  0  0  0  0
    5.5940   60.9640   71.3470 C   0  0  0  0  0  0  0  0  0  0  0  0
    0.5330   66.7510   69.2980 C   0  0  0  0  0  0  0  0  0  0  0  0
   -0.6790   66.5010   68.6420 C   0  0  0  0  0  0  0  0  0  0  0  0
   -1.0360   67.2210   67.5010 C   0  0  0  0  0  0  0  0  0  0  0  0
   -0.1790   68.2000   66.9830 C   0  0  0  0  0  0  0  0  0  0  0  0
    1.0460   68.4360   67.6250 C   0  0  0  0  0  0  0  0  0  0  0  0
    1.3990   67.7140   68.7680 C   0  0  0  0  0  0  0  0  0  0  0  0
   -0.5620   68.9820   65.7550 C   0  0  0  0  0  0  0  0  0  0  0  0
   -0.0180   68.3760   64.4770 N   0  0  0  0  0  4  0  0  0  0  0  0
    1.4690   68.6210   64.3470 C   0  0  0  0  0  0  0  0  0  0  0  0
    1.9160   68.3470   62.9220 C   0  0  0  0  0  0  0  0  0  0  0  0
    1.2450   69.2990   61.9340 C   0  0  0  0  0  0  0  0  0  0  0  0
   -0.1230   69.7830   62.4130 C   0  0  0  0  0  0  0  0  0  0  0  0
   -0.8330   68.7260   63.2440 C   0  0  0  0  0  0  0  0  0  0  0  0
    0.4501   66.6063   71.4202 H   0  0  0  0  0  0  0  0  0  0  0  0
    1.9646   65.9410   70.6066 H   0  0  0  0  0  0  0  0  0  0  0  0
    1.3723   62.6859   74.4032 H   0  0  0  0  0  0  0  0  0  0  0  0
    3.2911   61.5991   69.8814 H   0  0  0  0  0  0  0  0  0  0  0  0
    1.8896   64.0139   69.2601 H   0  0  0  0  0  0  0  0  0  0  0  0
    0.5373   62.8916   69.2821 H   0  0  0  0  0  0  0  0  0  0  0  0
   -0.6778   64.6655   70.2684 H   0  0  0  0  0  0  0  0  0  0  0  0
    2.8054   59.7849   76.0178 H   0  0  0  0  0  0  0  0  0  0  0  0
    1.7348   59.7161   74.5770 H   0  0  0  0  0  0  0  0  0  0  0  0
    3.2985   58.8321   74.5770 H   0  0  0  0  0  0  0  0  0  0  0  0
    6.1862   61.2797   72.2186 H   0  0  0  0  0  0  0  0  0  0  0  0
    6.1816   60.2594   70.7401 H   0  0  0  0  0  0  0  0  0  0  0  0
    5.3367   61.8446   70.7401 H   0  0  0  0  0  0  0  0  0  0  0  0
   -1.3578   65.7277   69.0309 H   0  0  0  0  0  0  0  0  0  0  0  0
   -1.9968   67.0182   67.0053 H   0  0  0  0  0  0  0  0  0  0  0  0
    1.7340   69.1955   67.2253 H   0  0  0  0  0  0  0  0  0  0  0  0
    2.3665   67.9043   69.2557 H   0  0  0  0  0  0  0  0  0  0  0  0
   -1.6595   69.0155   65.6882 H   0  0  0  0  0  0  0  0  0  0  0  0
   -0.1273   69.9875   65.8549 H   0  0  0  0  0  0  0  0  0  0  0  0
   -0.1308   67.3546   64.5471 H   0  0  0  0  0  0  0  0  0  0  0  0
    1.6899   69.6676   64.6035 H   0  0  0  0  0  0  0  0  0  0  0  0
    2.0077   67.9485   65.0308 H   0  0  0  0  0  0  0  0  0  0  0  0
    3.0066   68.4755   62.8582 H   0  0  0  0  0  0  0  0  0  0  0  0
    1.6279   67.3180   62.6609 H   0  0  0  0  0  0  0  0  0  0  0  0
    1.8967   70.1735   61.7909 H   0  0  0  0  0  0  0  0  0  0  0  0
    1.0906   68.7468   60.9953 H   0  0  0  0  0  0  0  0  0  0  0  0
    0.0127   70.6865   63.0256 H   0  0  0  0  0  0  0  0  0  0  0  0
   -0.7408   69.9964   61.5283 H   0  0  0  0  0  0  0  0  0  0  0  0
   -1.8143   69.1119   63.5573 H   0  0  0  0  0  0  0  0  0  0  0  0
   -0.9568   67.8198   62.6328 H   0  0  0  0  0  0  0  0  0  0  0  0
  3  2  2  0
  4  3  1  0
  5  4  2  0
  6  5  1  0
  7  6  2  0
  7  2  1  0
  8  5  1  0
  9  8  1  0
  9  1  1  0
 10  9  1  0
 10  4  1  0
 11 10  2  0
 13 12  1  0
 13  2  1  0
 14  7  1  0
 15 14  1  0
 16  1  1  0
 17 16  2  0
 18 17  1  0
 19 18  2  0
 20 19  1  0
 21 20  2  0
 21 16  1  0
 22 19  1  0
 23 22  1  0
 24 23  1  0
 25 24  1  0
 26 25  1  0
 27 26  1  0
 28 27  1  0
 28 23  1  0
  1 29  1  0
  1 30  1  0
  3 31  1  0
  6 32  1  0
  8 33  1  0
  8 34  1  0
  9 35  1  6
 12 36  1  0
 12 37  1  0
 12 38  1  0
 15 39  1  0
 15 40  1  0
 15 41  1  0
 17 42  1  0
 18 43  1  0
 20 44  1  0
 21 45  1  0
 22 46  1  0
 22 47  1  0
 23 48  1  0
 24 49  1  0
 24 50  1  0
 25 51  1  0
 25 52  1  0
 26 53  1  0
 26 54  1  0
 27 55  1  0
 27 56  1  0
 28 57  1  0
 28 58  1  0
M  CHG  1  23   1
M  END
>  <score>  (1) 
-9.831

$$$$
=
     RDKit          3D

 58 61  0  0  0  0  0  0  0  0999 V2000
   -0.3660   66.0890   69.6710 C   0  0  0  0  0  0  0  0  0  0  0  0
    1.1810   61.2780   72.1690 C   0  0  0  0  0  0  0  0  0  0  0  0
    1.6880   62.2020   71.2480 C   0  0  0  0  0  0  0  0  0  0  0  0
    1.2380   63.5090   71.3280 C   0  0  0  0  0  0  0  0  0  0  0  0
    0.3140   63.9430   72.2690 C   0  0  0  0  0  0  0  0  0  0  0  0
   -0.1920   63.0460   73.1890 C   0  0  0  0  0  0  0  0  0  0  0  0
    0.2480   61.7130   73.1450 C   0  0  0  0  0  0  0  0  0  0  0  0
    0.0220   65.4050   72.1460 C   0  0  0  0  0  0  0  0  0  0  0  0
    0.6510   65.8000   70.7890 C   0  0  1  0  0  0  0  0  0  0  0  0
    1.5400   64.6230   70.4370 C   0  0  0  0  0  0  0  0  0  0  0  0
    2.3350   64.5610   69.5160 O   0  0  0  0  0  0  0  0  0  0  0  0
    2.8700   59.5940   72.1770 C   0  0  0  0  0  0  0  0  0  0  0  0
    1.4900   59.9430   72.1500 O   0  0  0  0  0  0  0  0  0  0  0  0
   -0.3480   60.8920   74.0710 O   0  0  0  0  0  0  0  0  0  0  0  0
   -1.7010   60.5610   73.7630 C   0  0  0  0  0  0  0  0  0  0  0  0
    0.1530   66.9130   68.5100 C   0  0  0  0  0  0  0  0  0  0  0  0
    1.3080   67.6920   68.6590 C   0  0  0  0  0  0  0  0  0  0  0  0
    1.8420   68.3920   67.5760 C   0  0  0  0  0  0  0  0  0  0  0  0
    1.2240   68.3370   66.3210 C   0  0  0  0  0  0  0  0  0  0  0  0
    0.0540   67.5770   66.1750 C   0  0  0  0  0  0  0  0  0  0  0  0
   -0.4770   66.8760   67.2620 C   0  0  0  0  0  0  0  0  0  0  0  0
    1.8000   69.0860   65.1500 C   0  0  0  0  0  0  0  0  0  0  0  0
    3.0790   68.4650   64.6240 N   0  0  0  0  0  4  0  0  0  0  0  0
    4.2460   69.4170   64.7660 C   0  0  0  0  0  0  0  0  0  0  0  0
    5.4100   68.9410   63.9150 C   0  0  0  0  0  0  0  0  0  0  0  0
    5.0490   68.9350   62.4300 C   0  0  0  0  0  0  0  0  0  0  0  0
    3.5550   68.7240   62.1850 C   0  0  0  0  0  0  0  0  0  0  0  0
    2.9300   67.8390   63.2500 C   0  0  0  0  0  0  0  0  0  0  0  0
   -0.7139   65.1245   69.2725 H   0  0  0  0  0  0  0  0  0  0  0  0
   -1.1606   66.6913   70.1357 H   0  0  0  0  0  0  0  0  0  0  0  0
    2.4205   61.8995   70.4851 H   0  0  0  0  0  0  0  0  0  0  0  0
   -0.9258   63.3694   73.9420 H   0  0  0  0  0  0  0  0  0  0  0  0
   -1.0627   65.5880   72.1421 H   0  0  0  0  0  0  0  0  0  0  0  0
    0.4261   65.9893   72.9858 H   0  0  0  0  0  0  0  0  0  0  0  0
    1.1941   66.7521   70.8810 H   0  0  0  0  0  0  0  0  0  0  0  0
    3.2063   59.5089   73.2209 H   0  0  0  0  0  0  0  0  0  0  0  0
    3.0147   58.6310   71.6655 H   0  0  0  0  0  0  0  0  0  0  0  0
    3.4552   60.3724   71.6655 H   0  0  0  0  0  0  0  0  0  0  0  0
   -2.2663   60.4227   74.6965 H   0  0  0  0  0  0  0  0  0  0  0  0
   -2.1534   61.3749   73.1775 H   0  0  0  0  0  0  0  0  0  0  0  0
   -1.7266   59.6301   73.1775 H   0  0  0  0  0  0  0  0  0  0  0  0
    1.7997   67.7526   69.6411 H   0  0  0  0  0  0  0  0  0  0  0  0
    2.7548   68.9911   67.7095 H   0  0  0  0  0  0  0  0  0  0  0  0
   -0.4495   67.5322   65.1980 H   0  0  0  0  0  0  0  0  0  0  0  0
   -1.3990   66.2898   67.1343 H   0  0  0  0  0  0  0  0  0  0  0  0
    1.0560   69.0967   64.3399 H   0  0  0  0  0  0  0  0  0  0  0  0
    2.0438   70.1015   65.4953 H   0  0  0  0  0  0  0  0  0  0  0  0
    3.2989   67.6569   65.2236 H   0  0  0  0  0  0  0  0  0  0  0  0
    3.9398   70.4207   64.4360 H   0  0  0  0  0  0  0  0  0  0  0  0
    4.5589   69.4506   65.8200 H   0  0  0  0  0  0  0  0  0  0  0  0
    6.2667   69.6128   64.0724 H   0  0  0  0  0  0  0  0  0  0  0  0
    5.6603   67.9126   64.2147 H   0  0  0  0  0  0  0  0  0  0  0  0
    5.3441   69.9002   61.9926 H   0  0  0  0  0  0  0  0  0  0  0  0
    5.5834   68.0949   61.9624 H   0  0  0  0  0  0  0  0  0  0  0  0
    3.0509   69.7017   62.1932 H   0  0  0  0  0  0  0  0  0  0  0  0
    3.4343   68.2262   61.2116 H   0  0  0  0  0  0  0  0  0  0  0  0
    1.8609   67.7069   63.0276 H   0  0  0  0  0  0  0  0  0  0  0  0
    3.4439   66.8664   63.2473 H   0  0  0  0  0  0  0  0  0  0  0  0
  3  2  2  0
  4  3  1  0
  5  4  2  0
  6  5  1  0
  7  6  2  0
  7  2  1  0
  8  5  1  0
  9  8  1  0
  9  1  1  0
 10  9  1  0
 10  4  1  0
 11 10  2  0
 13 12  1  0
 13  2  1  0
 14  7  1  0
 15 14  1  0
 16  1  1  0
 17 16  2  0
 18 17  1  0
 19 18  2  0
 20 19  1  0
 21 20  2  0
 21 16  1  0
 22 19  1  0
 23 22  1  0
 24 23  1  0
 25 24  1  0
 26 25  1  0
 27 26  1  0
 28 27  1  0
 28 23  1  0
  1 29  1  0
  1 30  1  0
  3 31  1  0
  6 32  1  0
  8 33  1  0
  8 34  1  0
  9 35  1  1
 12 36  1  0
 12 37  1  0
 12 38  1  0
 15 39  1  0
 15 40  1  0
 15 41  1  0
 17 42  1  0
 18 43  1  0
 20 44  1  0
 21 45  1  0
 22 46  1  0
 22 47  1  0
 23 48  1  0
 24 49  1  0
 24 50  1  0
 25 51  1  0
 25 52  1  0
 26 53  1  0
 26 54  1  0
 27 55  1  0
 27 56  1  0
 28 57  1  0
 28 58  1  0
M  CHG  1  23   1
M  END
>  <score>  (2) 
-8.826

$$$$
=
     RDKit          3D

 58 61  0  0  0  0  0  0  0  0999 V2000
    1.5630   62.3410   72.7220 C   0  0  0  0  0  0  0  0  0  0  0  0
    0.2480   57.4290   75.1550 C   0  0  0  0  0  0  0  0  0  0  0  0
   -0.3960   58.5200   74.5610 C   0  0  0  0  0  0  0  0  0  0  0  0
    0.3020   59.2420   73.6080 C   0  0  0  0  0  0  0  0  0  0  0  0
    1.5990   58.9390   73.2180 C   0  0  0  0  0  0  0  0  0  0  0  0
    2.2470   57.8620   73.7900 C   0  0  0  0  0  0  0  0  0  0  0  0
    1.5680   57.1000   74.7550 C   0  0  0  0  0  0  0  0  0  0  0  0
    2.1040   59.8650   72.1560 C   0  0  0  0  0  0  0  0  0  0  0  0
    1.0650   61.0100   72.1320 C   0  0  1  0  0  0  0  0  0  0  0  0
   -0.1090   60.4600   72.9190 C   0  0  0  0  0  0  0  0  0  0  0  0
   -1.2080   60.9710   73.0400 O   0  0  0  0  0  0  0  0  0  0  0  0
   -1.2320   55.6670   75.7840 C   0  0  0  0  0  0  0  0  0  0  0  0
   -0.3050   56.6800   76.1610 O   0  0  0  0  0  0  0  0  0  0  0  0
    2.3140   56.0810   75.2950 O   0  0  0  0  0  0  0  0  0  0  0  0
    2.2260   54.8550   74.5700 C   0  0  0  0  0  0  0  0  0  0  0  0
    1.4090   63.5530   71.8260 C   0  0  0  0  0  0  0  0  0  0  0  0
    0.3070   64.4050   71.9750 C   0  0  0  0  0  0  0  0  0  0  0  0
    0.1950   65.5680   71.2110 C   0  0  0  0  0  0  0  0  0  0  0  0
    1.1770   65.8960   70.2690 C   0  0  0  0  0  0  0  0  0  0  0  0
    2.2690   65.0320   70.1010 C   0  0  0  0  0  0  0  0  0  0  0  0
    2.3800   63.8700   70.8690 C   0  0  0  0  0  0  0  0  0  0  0  0
    1.0620   67.1510   69.4470 C   0  0  0  0  0  0  0  0  0  0  0  0
    0.6170   66.8850   68.0220 N   0  0  0  0  0  4  0  0  0  0  0  0
    1.5190   67.5850   67.0300 C   0  0  0  0  0  0  0  0  0  0  0  0
    0.8570   67.6180   65.6640 C   0  0  0  0  0  0  0  0  0  0  0  0
   -0.4420   68.4210   65.6920 C   0  0  0  0  0  0  0  0  0  0  0  0
   -1.1170   68.4070   67.0640 C   0  0  0  0  0  0  0  0  0  0  0  0
   -0.8680   67.1010   67.7990 C   0  0  0  0  0  0  0  0  0  0  0  0
    1.0014   62.5316   73.6485 H   0  0  0  0  0  0  0  0  0  0  0  0
    2.6451   62.2159   72.8753 H   0  0  0  0  0  0  0  0  0  0  0  0
   -1.4233   58.7950   74.8420 H   0  0  0  0  0  0  0  0  0  0  0  0
    3.2754   57.6057   73.4955 H   0  0  0  0  0  0  0  0  0  0  0  0
    3.1022   60.2483   72.4140 H   0  0  0  0  0  0  0  0  0  0  0  0
    2.2111   59.3704   71.1793 H   0  0  0  0  0  0  0  0  0  0  0  0
    0.8148   61.2790   71.0951 H   0  0  0  0  0  0  0  0  0  0  0  0
   -1.6561   55.2036   76.6870 H   0  0  0  0  0  0  0  0  0  0  0  0
   -2.0406   56.1138   75.1869 H   0  0  0  0  0  0  0  0  0  0  0  0
   -0.7154   54.9011   75.1869 H   0  0  0  0  0  0  0  0  0  0  0  0
    2.1657   54.0145   75.2770 H   0  0  0  0  0  0  0  0  0  0  0  0
    1.3264   54.8671   73.9371 H   0  0  0  0  0  0  0  0  0  0  0  0
    3.1181   54.7385   73.9371 H   0  0  0  0  0  0  0  0  0  0  0  0
   -0.4792   64.1547   72.7025 H   0  0  0  0  0  0  0  0  0  0  0  0
   -0.6713   66.2315   71.3503 H   0  0  0  0  0  0  0  0  0  0  0  0
    3.0445   65.2712   69.3584 H   0  0  0  0  0  0  0  0  0  0  0  0
    3.2383   63.1983   70.7202 H   0  0  0  0  0  0  0  0  0  0  0  0
    0.3289   67.8175   69.9249 H   0  0  0  0  0  0  0  0  0  0  0  0
    2.0616   67.6077   69.4006 H   0  0  0  0  0  0  0  0  0  0  0  0
    0.7320   65.8768   67.8452 H   0  0  0  0  0  0  0  0  0  0  0  0
    1.7057   68.6144   67.3699 H   0  0  0  0  0  0  0  0  0  0  0  0
    2.4712   67.0389   66.9581 H   0  0  0  0  0  0  0  0  0  0  0  0
    1.5475   68.0799   64.9430 H   0  0  0  0  0  0  0  0  0  0  0  0
    0.6185   66.5851   65.3705 H   0  0  0  0  0  0  0  0  0  0  0  0
   -0.2170   69.4632   65.4215 H   0  0  0  0  0  0  0  0  0  0  0  0
   -1.1354   67.9547   64.9766 H   0  0  0  0  0  0  0  0  0  0  0  0
   -0.7181   69.2367   67.6661 H   0  0  0  0  0  0  0  0  0  0  0  0
   -2.2014   68.5149   66.9140 H   0  0  0  0  0  0  0  0  0  0  0  0
   -1.3785   67.1319   68.7729 H   0  0  0  0  0  0  0  0  0  0  0  0
   -1.2579   66.2726   67.1894 H   0  0  0  0  0  0  0  0  0  0  0  0
  3  2  2  0
  4  3  1  0
  5  4  2  0
  6  5  1  0
  7  6  2  0
  7  2  1  0
  8  5  1  0
  9  8  1  0
  9  1  1  0
 10  9  1  0
 10  4  1  0
 11 10  2  0
 13 12  1  0
 13  2  1  0
 14  7  1  0
 15 14  1  0
 16  1  1  0
 17 16  2  0
 18 17  1  0
 19 18  2  0
 20 19  1  0
 21 20  2  0
 21 16  1  0
 22 19  1  0
 23 22  1  0
 24 23  1  0
 25 24  1  0
 26 25  1  0
 27 26  1  0
 28 27  1  0
 28 23  1  0
  1 29  1  0
  1 30  1  0
  3 31  1  0
  6 32  1  0
  8 33  1  0
  8 34  1  0
  9 35  1  6
 12 36  1  0
 12 37  1  0
 12 38  1  0
 15 39  1  0
 15 40  1  0
 15 41  1  0
 17 42  1  0
 18 43  1  0
 20 44  1  0
 21 45  1  0
 22 46  1  0
 22 47  1  0
 23 48  1  0
 24 49  1  0
 24 50  1  0
 25 51  1  0
 25 52  1  0
 26 53  1  0
 26 54  1  0
 27 55  1  0
 27 56  1  0
 28 57  1  0
 28 58  1  0
M  CHG  1  23   1
M  END
>  <score>  (3) 
-8.707

$$$$
=
     RDKit          3D

 58 61  0  0  0  0  0  0  0  0999 V2000
   -0.4830   66.8200   68.4520 C   0  0  0  0  0  0  0  0  0  0  0  0
    1.2230   68.5240   63.3560 C   0  0  0  0  0  0  0  0  0  0  0  0
    0.2800   68.8770   64.3280 C   0  0  0  0  0  0  0  0  0  0  0  0
    0.5600   68.5580   65.6460 C   0  0  0  0  0  0  0  0  0  0  0  0
    1.7190   67.9080   66.0460 C   0  0  0  0  0  0  0  0  0  0  0  0
    2.6630   67.5570   65.1000 C   0  0  0  0  0  0  0  0  0  0  0  0
    2.4190   67.8730   63.7540 C   0  0  0  0  0  0  0  0  0  0  0  0
    1.7760   67.7080   67.5280 C   0  0  0  0  0  0  0  0  0  0  0  0
    0.3440   68.0400   68.0060 C   0  0  1  0  0  0  0  0  0  0  0  0
   -0.2920   68.7340   66.8170 C   0  0  0  0  0  0  0  0  0  0  0  0
   -1.3750   69.2920   66.7920 O   0  0  0  0  0  0  0  0  0  0  0  0
    0.1130   69.7330   61.6250 C   0  0  0  0  0  0  0  0  0  0  0  0
    1.0340   68.7180   62.0130 O   0  0  0  0  0  0  0  0  0  0  0  0
    3.3940   67.4430   62.8880 O   0  0  0  0  0  0  0  0  0  0  0  0
    4.2970   66.4970   63.4600 C   0  0  0  0  0  0  0  0  0  0  0  0
    0.2040   65.8840   69.4250 C   0  0  0  0  0  0  0  0  0  0  0  0
   -0.4600   64.7440   69.8950 C   0  0  0  0  0  0  0  0  0  0  0  0
    0.1890   63.8310   70.7270 C   0  0  0  0  0  0  0  0  0  0  0  0
    1.5160   64.0460   71.1200 C   0  0  0  0  0  0  0  0  0  0  0  0
    2.1750   65.2000   70.6690 C   0  0  0  0  0  0  0  0  0  0  0  0
    1.5230   66.1110   69.8340 C   0  0  0  0  0  0  0  0  0  0  0  0
    2.2200   63.0620   72.0130 C   0  0  0  0  0  0  0  0  0  0  0  0
    3.2800   62.2580   71.2850 N   0  0  0  0  0  4  0  0  0  0  0  0
    2.7120   61.6060   70.0440 C   0  0  0  0  0  0  0  0  0  0  0  0
    3.6590   60.5290   69.5460 C   0  0  0  0  0  0  0  0  0  0  0  0
    3.8200   59.4100   70.5730 C   0  0  0  0  0  0  0  0  0  0  0  0
    3.6130   59.8900   72.0090 C   0  0  0  0  0  0  0  0  0  0  0  0
    4.0670   61.3290   72.1910 C   0  0  0  0  0  0  0  0  0  0  0  0
   -1.4018   67.1904   68.9301 H   0  0  0  0  0  0  0  0  0  0  0  0
   -0.6625   66.2291   67.5417 H   0  0  0  0  0  0  0  0  0  0  0  0
   -0.6531   69.3910   64.0539 H   0  0  0  0  0  0  0  0  0  0  0  0
    3.5878   67.0400   65.3958 H   0  0  0  0  0  0  0  0  0  0  0  0
    2.0384   66.6681   67.7723 H   0  0  0  0  0  0  0  0  0  0  0  0
    2.5395   68.3358   68.0107 H   0  0  0  0  0  0  0  0  0  0  0  0
    0.3779   68.6605   68.9136 H   0  0  0  0  0  0  0  0  0  0  0  0
   -0.3139   70.2035   62.5230 H   0  0  0  0  0  0  0  0  0  0  0  0
    0.6360   70.4932   61.0262 H   0  0  0  0  0  0  0  0  0  0  0  0
   -0.6943   69.2861   61.0262 H   0  0  0  0  0  0  0  0  0  0  0  0
    4.2420   66.5546   64.5571 H   0  0  0  0  0  0  0  0  0  0  0  0
    4.0228   65.4835   63.1318 H   0  0  0  0  0  0  0  0  0  0  0  0
    5.3221   66.7238   63.1318 H   0  0  0  0  0  0  0  0  0  0  0  0
   -1.5060   64.5662   69.6047 H   0  0  0  0  0  0  0  0  0  0  0  0
   -0.3456   62.9356   71.0769 H   0  0  0  0  0  0  0  0  0  0  0  0
    3.2143   65.3891   70.9757 H   0  0  0  0  0  0  0  0  0  0  0  0
    2.0510   67.0145   69.4951 H   0  0  0  0  0  0  0  0  0  0  0  0
    2.7006   63.6144   72.8339 H   0  0  0  0  0  0  0  0  0  0  0  0
    1.4647   62.3534   72.3836 H   0  0  0  0  0  0  0  0  0  0  0  0
    3.9968   62.9196   70.9542 H   0  0  0  0  0  0  0  0  0  0  0  0
    1.7384   61.1534   70.2830 H   0  0  0  0  0  0  0  0  0  0  0  0
    2.5859   62.3676   69.2604 H   0  0  0  0  0  0  0  0  0  0  0  0
    3.2591   60.1041   68.6135 H   0  0  0  0  0  0  0  0  0  0  0  0
    4.6446   60.9866   69.3753 H   0  0  0  0  0  0  0  0  0  0  0  0
    3.0817   58.6242   70.3552 H   0  0  0  0  0  0  0  0  0  0  0  0
    4.8509   59.0343   70.4947 H   0  0  0  0  0  0  0  0  0  0  0  0
    2.5439   59.8192   72.2581 H   0  0  0  0  0  0  0  0  0  0  0  0
    4.2153   59.2534   72.6738 H   0  0  0  0  0  0  0  0  0  0  0  0
    3.9104   61.6274   73.2381 H   0  0  0  0  0  0  0  0  0  0  0  0
    5.1332   61.3994   71.9297 H   0  0  0  0  0  0  0  0  0  0  0  0
  3  2  2  0
  4  3  1  0
  5  4  2  0
  6  5  1  0
  7  6  2  0
  7  2  1  0
  8  5  1  0
  9  8  1  0
  9  1  1  0
 10  9  1  0
 10  4  1  0
 11 10  2  0
 13 12  1  0
 13  2  1  0
 14  7  1  0
 15 14  1  0
 16  1  1  0
 17 16  2  0
 18 17  1  0
 19 18  2  0
 20 19  1  0
 21 20  2  0
 21 16  1  0
 22 19  1  0
 23 22  1  0
 24 23  1  0
 25 24  1  0
 26 25  1  0
 27 26  1  0
 28 27  1  0
 28 23  1  0
  1 29  1  0
  1 30  1  0
  3 31  1  0
  6 32  1  0
  8 33  1  0
  8 34  1  0
  9 35  1  1
 12 36  1  0
 12 37  1  0
 12 38  1  0
 15 39  1  0
 15 40  1  0
 15 41  1  0
 17 42  1  0
 18 43  1  0
 20 44  1  0
 21 45  1  0
 22 46  1  0
 22 47  1  0
 23 48  1  0
 24 49  1  0
 24 50  1  0
 25 51  1  0
 25 52  1  0
 26 53  1  0
 26 54  1  0
 27 55  1  0
 27 56  1  0
 28 57  1  0
 28 58  1  0
M  CHG  1  23   1
M  END
>  <score>  (4) 
-8.685

$$$$
=
     RDKit          3D

 58 61  0  0  0  0  0  0  0  0999 V2000
    2.9990   61.7630   71.2300 C   0  0  0  0  0  0  0  0  0  0  0  0
   -1.5700   60.3580   74.2180 C   0  0  0  0  0  0  0  0  0  0  0  0
   -0.4490   59.7430   73.6490 C   0  0  0  0  0  0  0  0  0  0  0  0
    0.6940   60.5070   73.4860 C   0  0  0  0  0  0  0  0  0  0  0  0
    0.7810   61.8420   73.8550 C   0  0  0  0  0  0  0  0  0  0  0  0
   -0.3140   62.4630   74.4240 C   0  0  0  0  0  0  0  0  0  0  0  0
   -1.4900   61.7180   74.6140 C   0  0  0  0  0  0  0  0  0  0  0  0
    2.1360   62.4190   73.5900 C   0  0  0  0  0  0  0  0  0  0  0  0
    2.8280   61.3560   72.7050 C   0  0  1  0  0  0  0  0  0  0  0  0
    1.9470   60.1300   72.8420 C   0  0  0  0  0  0  0  0  0  0  0  0
    2.1860   59.0110   72.4230 O   0  0  0  0  0  0  0  0  0  0  0  0
   -2.8140   58.5570   75.1660 C   0  0  0  0  0  0  0  0  0  0  0  0
   -2.7810   59.7350   74.3670 O   0  0  0  0  0  0  0  0  0  0  0  0
   -2.5330   62.4370   75.1430 O   0  0  0  0  0  0  0  0  0  0  0  0
   -2.1980   63.1530   76.3310 C   0  0  0  0  0  0  0  0  0  0  0  0
    2.1900   62.9630   70.7830 C   0  0  0  0  0  0  0  0  0  0  0  0
    0.8100   62.8440   70.5720 C   0  0  0  0  0  0  0  0  0  0  0  0
    0.0390   63.9590   70.2380 C   0  0  0  0  0  0  0  0  0  0  0  0
    0.6370   65.2170   70.0950 C   0  0  0  0  0  0  0  0  0  0  0  0
    2.0220   65.3340   70.2820 C   0  0  0  0  0  0  0  0  0  0  0  0
    2.7900   64.2160   70.6180 C   0  0  0  0  0  0  0  0  0  0  0  0
   -0.1910   66.4220   69.7400 C   0  0  0  0  0  0  0  0  0  0  0  0
   -0.1350   66.7630   68.2640 N   0  0  0  0  0  4  0  0  0  0  0  0
    0.6250   68.0500   68.0300 C   0  0  0  0  0  0  0  0  0  0  0  0
    0.3560   68.5620   66.6260 C   0  0  0  0  0  0  0  0  0  0  0  0
   -1.1200   68.9030   66.4300 C   0  0  0  0  0  0  0  0  0  0  0  0
   -2.0430   68.0730   67.3210 C   0  0  0  0  0  0  0  0  0  0  0  0
   -1.4820   66.6820   67.5700 C   0  0  0  0  0  0  0  0  0  0  0  0
    4.0622   61.9907   71.0630 H   0  0  0  0  0  0  0  0  0  0  0  0
    2.6273   60.9131   70.6388 H   0  0  0  0  0  0  0  0  0  0  0  0
   -0.4752   58.6872   73.3414 H   0  0  0  0  0  0  0  0  0  0  0  0
   -0.2661   63.5206   74.7226 H   0  0  0  0  0  0  0  0  0  0  0  0
    2.0553   63.3784   73.0580 H   0  0  0  0  0  0  0  0  0  0  0  0
    2.6947   62.6300   74.5138 H   0  0  0  0  0  0  0  0  0  0  0  0
    3.8637   61.1947   73.0385 H   0  0  0  0  0  0  0  0  0  0  0  0
   -2.8062   58.8354   76.2302 H   0  0  0  0  0  0  0  0  0  0  0  0
   -3.7284   57.9879   74.9426 H   0  0  0  0  0  0  0  0  0  0  0  0
   -1.9329   57.9376   74.9426 H   0  0  0  0  0  0  0  0  0  0  0  0
   -2.4778   62.5549   77.2108 H   0  0  0  0  0  0  0  0  0  0  0  0
   -1.1155   63.3474   76.3490 H   0  0  0  0  0  0  0  0  0  0  0  0
   -2.7425   64.1086   76.3490 H   0  0  0  0  0  0  0  0  0  0  0  0
    0.3282   61.8601   70.6707 H   0  0  0  0  0  0  0  0  0  0  0  0
   -1.0449   63.8485   70.0863 H   0  0  0  0  0  0  0  0  0  0  0  0
    2.5077   66.3138   70.1632 H   0  0  0  0  0  0  0  0  0  0  0  0
    3.8764   64.3221   70.7540 H   0  0  0  0  0  0  0  0  0  0  0  0
   -1.2373   66.2220   70.0144 H   0  0  0  0  0  0  0  0  0  0  0  0
    0.2207   67.2795   70.2925 H   0  0  0  0  0  0  0  0  0  0  0  0
    0.4101   66.0242   67.7972 H   0  0  0  0  0  0  0  0  0  0  0  0
    0.2992   68.8040   68.7617 H   0  0  0  0  0  0  0  0  0  0  0  0
    1.7023   67.8602   68.1457 H   0  0  0  0  0  0  0  0  0  0  0  0
    0.9581   69.4662   66.4534 H   0  0  0  0  0  0  0  0  0  0  0  0
    0.6262   67.7706   65.9114 H   0  0  0  0  0  0  0  0  0  0  0  0
   -1.2689   69.9673   66.6645 H   0  0  0  0  0  0  0  0  0  0  0  0
   -1.3764   68.6756   65.3847 H   0  0  0  0  0  0  0  0  0  0  0  0
   -2.1637   68.5868   68.2861 H   0  0  0  0  0  0  0  0  0  0  0  0
   -3.0101   67.9661   66.8079 H   0  0  0  0  0  0  0  0  0  0  0  0
   -2.1819   66.1187   68.2047 H   0  0  0  0  0  0  0  0  0  0  0  0
   -1.3514   66.1751   66.6026 H   0  0  0  0  0  0  0  0  0  0  0  0
  3  2  2  0
  4  3  1  0
  5  4  2  0
  6  5  1  0
  7  6  2  0
  7  2  1  0
  8  5  1  0
  9  8  1  0
  9  1  1  0
 10  9  1  0
 10  4  1  0
 11 10  2  0
 13 12  1  0
 13  2  1  0
 14  7  1  0
 15 14  1  0
 16  1  1  0
 17 16  2  0
 18 17  1  0
 19 18  2  0
 20 19  1  0
 21 20  2  0
 21 16  1  0
 22 19  1  0
 23 22  1  0
 24 23  1  0
 25 24  1  0
 26 25  1  0
 27 26  1  0
 28 27  1  0
 28 23  1  0
  1 29  1  0
  1 30  1  0
  3 31  1  0
  6 32  1  0
  8 33  1  0
  8 34  1  0
  9 35  1  1
 12 36  1  0
 12 37  1  0
 12 38  1  0
 15 39  1  0
 15 40  1  0
 15 41  1  0
 17 42  1  0
 18 43  1  0
 20 44  1  0
 21 45  1  0
 22 46  1  0
 22 47  1  0
 23 48  1  0
 24 49  1  0
 24 50  1  0
 25 51  1  0
 25 52  1  0
 26 53  1  0
 26 54  1  0
 27 55  1  0
 27 56  1  0
 28 57  1  0
 28 58  1  0
M  CHG  1  23   1
M  END
>  <score>  (5) 
-8.595

$$$$
=
     RDKit          3D

 58 61  0  0  0  0  0  0  0  0999 V2000
   -0.1040   64.8790   69.6580 C   0  0  0  0  0  0  0  0  0  0  0  0
    0.6660   68.6000   65.4940 C   0  0  0  0  0  0  0  0  0  0  0  0
   -0.3750   68.0940   66.2800 C   0  0  0  0  0  0  0  0  0  0  0  0
   -0.0600   67.6170   67.5410 C   0  0  0  0  0  0  0  0  0  0  0  0
    1.2280   67.6140   68.0580 C   0  0  0  0  0  0  0  0  0  0  0  0
    2.2670   68.1160   67.2970 C   0  0  0  0  0  0  0  0  0  0  0  0
    1.9850   68.6170   66.0160 C   0  0  0  0  0  0  0  0  0  0  0  0
    1.2820   67.0650   69.4480 C   0  0  0  0  0  0  0  0  0  0  0  0
   -0.1080   66.4180   69.6500 C   0  0  1  0  0  0  0  0  0  0  0  0
   -0.9390   66.9630   68.5040 C   0  0  0  0  0  0  0  0  0  0  0  0
   -2.1390   66.8270   68.3460 O   0  0  0  0  0  0  0  0  0  0  0  0
   -0.7900   68.8670   63.6240 C   0  0  0  0  0  0  0  0  0  0  0  0
    0.4990   69.0340   64.2050 O   0  0  0  0  0  0  0  0  0  0  0  0
    3.0890   69.0500   65.3240 O   0  0  0  0  0  0  0  0  0  0  0  0
    4.1660   69.4720   66.1610 C   0  0  0  0  0  0  0  0  0  0  0  0
    1.0400   64.2300   70.4100 C   0  0  0  0  0  0  0  0  0  0  0  0
    0.8000   63.5600   71.6170 C   0  0  0  0  0  0  0  0  0  0  0  0
    1.8310   62.8900   72.2780 C   0  0  0  0  0  0  0  0  0  0  0  0
    3.1290   62.8890   71.7530 C   0  0  0  0  0  0  0  0  0  0  0  0
    3.3750   63.5800   70.5570 C   0  0  0  0  0  0  0  0  0  0  0  0
    2.3410   64.2480   69.8960 C   0  0  0  0  0  0  0  0  0  0  0  0
    4.2410   62.1640   72.4600 C   0  0  0  0  0  0  0  0  0  0  0  0
    4.4010   60.7300   71.9940 N   0  0  0  0  0  4  0  0  0  0  0  0
    3.6550   60.4910   70.7010 C   0  0  0  0  0  0  0  0  0  0  0  0
    3.5150   58.9990   70.4520 C   0  0  0  0  0  0  0  0  0  0  0  0
    2.6880   58.3270   71.5460 C   0  0  0  0  0  0  0  0  0  0  0  0
    2.7800   59.0520   72.8880 C   0  0  0  0  0  0  0  0  0  0  0  0
    4.1380   59.7050   73.0820 C   0  0  0  0  0  0  0  0  0  0  0  0
   -1.0450   64.5408   70.1163 H   0  0  0  0  0  0  0  0  0  0  0  0
    0.0151   64.5735   68.6080 H   0  0  0  0  0  0  0  0  0  0  0  0
   -1.4101   68.0757   65.9082 H   0  0  0  0  0  0  0  0  0  0  0  0
    3.2953   68.1229   67.6876 H   0  0  0  0  0  0  0  0  0  0  0  0
    2.0800   66.3136   69.5407 H   0  0  0  0  0  0  0  0  0  0  0  0
    1.5023   67.8374   70.1996 H   0  0  0  0  0  0  0  0  0  0  0  0
   -0.5070   66.6688   70.6439 H   0  0  0  0  0  0  0  0  0  0  0  0
   -1.5417   68.7696   64.4212 H   0  0  0  0  0  0  0  0  0  0  0  0
   -1.0275   69.7419   63.0010 H   0  0  0  0  0  0  0  0  0  0  0  0
   -0.7967   67.9605   63.0010 H   0  0  0  0  0  0  0  0  0  0  0  0
    3.8765   69.3586   67.2161 H   0  0  0  0  0  0  0  0  0  0  0  0
    5.0533   68.8550   65.9558 H   0  0  0  0  0  0  0  0  0  0  0  0
    4.3979   70.5275   65.9558 H   0  0  0  0  0  0  0  0  0  0  0  0
   -0.2119   63.5620   72.0484 H   0  0  0  0  0  0  0  0  0  0  0  0
    1.6221   62.3589   73.2183 H   0  0  0  0  0  0  0  0  0  0  0  0
    4.3911   63.5960   70.1359 H   0  0  0  0  0  0  0  0  0  0  0  0
    2.5517   64.7925   68.9638 H   0  0  0  0  0  0  0  0  0  0  0  0
    5.1833   62.7004   72.2745 H   0  0  0  0  0  0  0  0  0  0  0  0
    3.9890   62.1369   73.5304 H   0  0  0  0  0  0  0  0  0  0  0  0
    5.3972   60.5851   71.7761 H   0  0  0  0  0  0  0  0  0  0  0  0
    2.6552   60.9449   70.7677 H   0  0  0  0  0  0  0  0  0  0  0  0
    4.2155   60.9453   69.8707 H   0  0  0  0  0  0  0  0  0  0  0  0
    3.0200   58.8429   69.4822 H   0  0  0  0  0  0  0  0  0  0  0  0
    4.5200   58.5518   70.4536 H   0  0  0  0  0  0  0  0  0  0  0  0
    1.6350   58.3076   71.2286 H   0  0  0  0  0  0  0  0  0  0  0  0
    3.0900   57.3131   71.6892 H   0  0  0  0  0  0  0  0  0  0  0  0
    2.0021   59.8287   72.9276 H   0  0  0  0  0  0  0  0  0  0  0  0
    2.6384   58.3110   73.6885 H   0  0  0  0  0  0  0  0  0  0  0  0
    4.1618   60.2043   74.0618 H   0  0  0  0  0  0  0  0  0  0  0  0
    4.9146   58.9277   73.0306 H   0  0  0  0  0  0  0  0  0  0  0  0
  3  2  2  0
  4  3  1  0
  5  4  2  0
  6  5  1  0
  7  6  2  0
  7  2  1  0
  8  5  1  0
  9  8  1  0
  9  1  1  0
 10  9  1  0
 10  4  1  0
 11 10  2  0
 13 12  1  0
 13  2  1  0
 14  7  1  0
 15 14  1  0
 16  1  1  0
 17 16  2  0
 18 17  1  0
 19 18  2  0
 20 19  1  0
 21 20  2  0
 21 16  1  0
 22 19  1  0
 23 22  1  0
 24 23  1  0
 25 24  1  0
 26 25  1  0
 27 26  1  0
 28 27  1  0
 28 23  1  0
  1 29  1  0
  1 30  1  0
  3 31  1  0
  6 32  1  0
  8 33  1  0
  8 34  1  0
  9 35  1  1
 12 36  1  0
 12 37  1  0
 12 38  1  0
 15 39  1  0
 15 40  1  0
 15 41  1  0
 17 42  1  0
 18 43  1  0
 20 44  1  0
 21 45  1  0
 22 46  1  0
 22 47  1  0
 23 48  1  0
 24 49  1  0
 24 50  1  0
 25 51  1  0
 25 52  1  0
 26 53  1  0
 26 54  1  0
 27 55  1  0
 27 56  1  0
 28 57  1  0
 28 58  1  0
M  CHG  1  23   1
M  END
>  <score>  (6) 
-8.522

$$$$
=
     RDKit          3D

 58 61  0  0  0  0  0  0  0  0999 V2000
    1.6580   61.4670   71.7710 C   0  0  0  0  0  0  0  0  0  0  0  0
    1.0440   56.8980   75.0160 C   0  0  0  0  0  0  0  0  0  0  0  0
    1.8660   58.0270   74.9250 C   0  0  0  0  0  0  0  0  0  0  0  0
    1.3390   59.1640   74.3350 C   0  0  0  0  0  0  0  0  0  0  0  0
    0.0470   59.2360   73.8330 C   0  0  0  0  0  0  0  0  0  0  0  0
   -0.7790   58.1330   73.9200 C   0  0  0  0  0  0  0  0  0  0  0  0
   -0.2830   56.9640   74.5200 C   0  0  0  0  0  0  0  0  0  0  0  0
   -0.2690   60.5870   73.2720 C   0  0  0  0  0  0  0  0  0  0  0  0
    1.1040   61.2930   73.1960 C   0  0  1  0  0  0  0  0  0  0  0  0
    2.0140   60.4230   74.0420 C   0  0  0  0  0  0  0  0  0  0  0  0
    3.1590   60.6740   74.3750 O   0  0  0  0  0  0  0  0  0  0  0  0
    2.2090   54.8520   74.6320 C   0  0  0  0  0  0  0  0  0  0  0  0
    1.4670   55.6920   75.5110 O   0  0  0  0  0  0  0  0  0  0  0  0
   -1.1650   55.9110   74.5170 O   0  0  0  0  0  0  0  0  0  0  0  0
   -2.1910   56.0140   75.5040 C   0  0  0  0  0  0  0  0  0  0  0  0
    1.4600   62.8360   71.1530 C   0  0  0  0  0  0  0  0  0  0  0  0
    0.1680   63.3370   70.9510 C   0  0  0  0  0  0  0  0  0  0  0  0
   -0.0280   64.6280   70.4580 C   0  0  0  0  0  0  0  0  0  0  0  0
    1.0670   65.4420   70.1420 C   0  0  0  0  0  0  0  0  0  0  0  0
    2.3620   64.9320   70.3210 C   0  0  0  0  0  0  0  0  0  0  0  0
    2.5540   63.6400   70.8170 C   0  0  0  0  0  0  0  0  0  0  0  0
    0.8600   66.8360   69.6150 C   0  0  0  0  0  0  0  0  0  0  0  0
    0.5190   66.8630   68.1380 N   0  0  0  0  0  4  0  0  0  0  0  0
    1.3000   67.9390   67.4180 C   0  0  0  0  0  0  0  0  0  0  0  0
    0.6870   68.1980   66.0530 C   0  0  0  0  0  0  0  0  0  0  0  0
   -0.7420   68.7260   66.1750 C   0  0  0  0  0  0  0  0  0  0  0  0
   -1.4430   68.2480   67.4450 C   0  0  0  0  0  0  0  0  0  0  0  0
   -0.9740   66.8630   67.8590 C   0  0  0  0  0  0  0  0  0  0  0  0
    2.7384   61.2625   71.8009 H   0  0  0  0  0  0  0  0  0  0  0  0
    1.0895   60.7677   71.1403 H   0  0  0  0  0  0  0  0  0  0  0  0
    2.8966   58.0119   75.3093 H   0  0  0  0  0  0  0  0  0  0  0  0
   -1.8057   58.1691   73.5270 H   0  0  0  0  0  0  0  0  0  0  0  0
   -0.7191   60.4993   72.2721 H   0  0  0  0  0  0  0  0  0  0  0  0
   -0.9952   61.1401   73.8857 H   0  0  0  0  0  0  0  0  0  0  0  0
    1.0230   62.3291   73.5565 H   0  0  0  0  0  0  0  0  0  0  0  0
    2.8237   54.1561   75.2218 H   0  0  0  0  0  0  0  0  0  0  0  0
    1.5150   54.2810   73.9977 H   0  0  0  0  0  0  0  0  0  0  0  0
    2.8613   55.4702   73.9977 H   0  0  0  0  0  0  0  0  0  0  0  0
   -1.7410   55.9688   76.5067 H   0  0  0  0  0  0  0  0  0  0  0  0
   -2.7216   56.9699   75.3829 H   0  0  0  0  0  0  0  0  0  0  0  0
   -2.9010   55.1826   75.3829 H   0  0  0  0  0  0  0  0  0  0  0  0
   -0.7024   62.7059   71.1835 H   0  0  0  0  0  0  0  0  0  0  0  0
   -1.0502   65.0090   70.3166 H   0  0  0  0  0  0  0  0  0  0  0  0
    3.2331   65.5545   70.0687 H   0  0  0  0  0  0  0  0  0  0  0  0
    3.5752   63.2515   70.9444 H   0  0  0  0  0  0  0  0  0  0  0  0
    0.0364   67.3041   70.1741 H   0  0  0  0  0  0  0  0  0  0  0  0
    1.8056   67.3825   69.7458 H   0  0  0  0  0  0  0  0  0  0  0  0
    0.8303   65.9687   67.7328 H   0  0  0  0  0  0  0  0  0  0  0  0
    1.2755   68.8655   68.0104 H   0  0  0  0  0  0  0  0  0  0  0  0
    2.3407   67.6064   67.2900 H   0  0  0  0  0  0  0  0  0  0  0  0
    1.2990   68.9412   65.5209 H   0  0  0  0  0  0  0  0  0  0  0  0
    0.6590   67.2476   65.4999 H   0  0  0  0  0  0  0  0  0  0  0  0
   -0.7109   69.8255   66.1833 H   0  0  0  0  0  0  0  0  0  0  0  0
   -1.3120   68.3404   65.3169 H   0  0  0  0  0  0  0  0  0  0  0  0
   -1.2271   68.9555   68.2591 H   0  0  0  0  0  0  0  0  0  0  0  0
   -2.5230   68.1978   67.2422 H   0  0  0  0  0  0  0  0  0  0  0  0
   -1.5113   66.5567   68.7686 H   0  0  0  0  0  0  0  0  0  0  0  0
   -1.1805   66.1598   67.0387 H   0  0  0  0  0  0  0  0  0  0  0  0
  3  2  2  0
  4  3  1  0
  5  4  2  0
  6  5  1  0
  7  6  2  0
  7  2  1  0
  8  5  1  0
  9  8  1  0
  9  1  1  0
 10  9  1  0
 10  4  1  0
 11 10  2  0
 13 12  1  0
 13  2  1  0
 14  7  1  0
 15 14  1  0
 16  1  1  0
 17 16  2  0
 18 17  1  0
 19 18  2  0
 20 19  1  0
 21 20  2  0
 21 16  1  0
 22 19  1  0
 23 22  1  0
 24 23  1  0
 25 24  1  0
 26 25  1  0
 27 26  1  0
 28 27  1  0
 28 23  1  0
  1 29  1  0
  1 30  1  0
  3 31  1  0
  6 32  1  0
  8 33  1  0
  8 34  1  0
  9 35  1  1
 12 36  1  0
 12 37  1  0
 12 38  1  0
 15 39  1  0
 15 40  1  0
 15 41  1  0
 17 42  1  0
 18 43  1  0
 20 44  1  0
 21 45  1  0
 22 46  1  0
 22 47  1  0
 23 48  1  0
 24 49  1  0
 24 50  1  0
 25 51  1  0
 25 52  1  0
 26 53  1  0
 26 54  1  0
 27 55  1  0
 27 56  1  0
 28 57  1  0
 28 58  1  0
M  CHG  1  23   1
M  END
>  <score>  (7) 
-8.293

$$$$
=
     RDKit          3D

 58 61  0  0  0  0  0  0  0  0999 V2000
   -0.1640   64.9970   69.5030 C   0  0  0  0  0  0  0  0  0  0  0  0
    0.6190   68.6840   65.3110 C   0  0  0  0  0  0  0  0  0  0  0  0
   -0.4230   68.1890   66.1020 C   0  0  0  0  0  0  0  0  0  0  0  0
   -0.1090   67.7190   67.3660 C   0  0  0  0  0  0  0  0  0  0  0  0
    1.1800   67.7140   67.8810 C   0  0  0  0  0  0  0  0  0  0  0  0
    2.2200   68.2050   67.1160 C   0  0  0  0  0  0  0  0  0  0  0  0
    1.9390   68.6990   65.8310 C   0  0  0  0  0  0  0  0  0  0  0  0
    1.2330   67.1750   69.2760 C   0  0  0  0  0  0  0  0  0  0  0  0
   -0.1600   66.5360   69.4830 C   0  0  1  0  0  0  0  0  0  0  0  0
   -0.9900   67.0770   68.3340 C   0  0  0  0  0  0  0  0  0  0  0  0
   -2.1910   66.9450   68.1780 O   0  0  0  0  0  0  0  0  0  0  0  0
   -0.8350   68.9370   63.4370 C   0  0  0  0  0  0  0  0  0  0  0  0
    0.4530   69.1100   64.0190 O   0  0  0  0  0  0  0  0  0  0  0  0
    3.0450   69.1210   65.1350 O   0  0  0  0  0  0  0  0  0  0  0  0
    4.1360   69.5130   65.9670 C   0  0  0  0  0  0  0  0  0  0  0  0
    0.5440   64.3550   70.6780 C   0  0  0  0  0  0  0  0  0  0  0  0
    0.0490   64.5270   71.9780 C   0  0  0  0  0  0  0  0  0  0  0  0
    0.6440   63.8760   73.0600 C   0  0  0  0  0  0  0  0  0  0  0  0
    1.7580   63.0490   72.8670 C   0  0  0  0  0  0  0  0  0  0  0  0
    2.2690   62.8950   71.5700 C   0  0  0  0  0  0  0  0  0  0  0  0
    1.6690   63.5470   70.4880 C   0  0  0  0  0  0  0  0  0  0  0  0
    2.3980   62.3420   74.0300 C   0  0  0  0  0  0  0  0  0  0  0  0
    1.7710   60.9920   74.3180 N   0  0  0  0  0  4  0  0  0  0  0  0
    1.4060   60.2760   73.0370 C   0  0  0  0  0  0  0  0  0  0  0  0
    0.4620   59.1260   73.3380 C   0  0  0  0  0  0  0  0  0  0  0  0
   -0.8540   59.6250   73.9310 C   0  0  0  0  0  0  0  0  0  0  0  0
   -0.6980   60.9380   74.6960 C   0  0  0  0  0  0  0  0  0  0  0  0
    0.6660   61.0450   75.3570 C   0  0  0  0  0  0  0  0  0  0  0  0
   -1.2116   64.6616   69.5150 H   0  0  0  0  0  0  0  0  0  0  0  0
    0.3938   64.6834   68.6083 H   0  0  0  0  0  0  0  0  0  0  0  0
   -1.4587   68.1736   65.7318 H   0  0  0  0  0  0  0  0  0  0  0  0
    3.2488   68.2092   67.5054 H   0  0  0  0  0  0  0  0  0  0  0  0
    2.0277   66.4207   69.3739 H   0  0  0  0  0  0  0  0  0  0  0  0
    1.4577   67.9517   70.0218 H   0  0  0  0  0  0  0  0  0  0  0  0
   -0.5568   66.7961   70.4754 H   0  0  0  0  0  0  0  0  0  0  0  0
   -1.5868   68.8360   64.2336 H   0  0  0  0  0  0  0  0  0  0  0  0
   -1.0762   69.8108   62.8139 H   0  0  0  0  0  0  0  0  0  0  0  0
   -0.8370   68.0305   62.8139 H   0  0  0  0  0  0  0  0  0  0  0  0
    3.8473   69.4093   67.0233 H   0  0  0  0  0  0  0  0  0  0  0  0
    5.0046   68.8707   65.7595 H   0  0  0  0  0  0  0  0  0  0  0  0
    4.3972   70.5612   65.7595 H   0  0  0  0  0  0  0  0  0  0  0  0
   -0.8181   65.1823   72.1475 H   0  0  0  0  0  0  0  0  0  0  0  0
    0.2350   64.0135   74.0718 H   0  0  0  0  0  0  0  0  0  0  0  0
    3.1488   62.2563   71.4025 H   0  0  0  0  0  0  0  0  0  0  0  0
    2.0862   63.4229   69.4778 H   0  0  0  0  0  0  0  0  0  0  0  0
    3.4646   62.1929   73.8062 H   0  0  0  0  0  0  0  0  0  0  0  0
    2.2503   62.9710   74.9203 H   0  0  0  0  0  0  0  0  0  0  0  0
    2.4881   60.4090   74.7727 H   0  0  0  0  0  0  0  0  0  0  0  0
    0.9137   60.9821   72.3522 H   0  0  0  0  0  0  0  0  0  0  0  0
    2.3203   59.8809   72.5702 H   0  0  0  0  0  0  0  0  0  0  0  0
    0.2508   58.5829   72.4050 H   0  0  0  0  0  0  0  0  0  0  0  0
    0.9446   58.4658   74.0737 H   0  0  0  0  0  0  0  0  0  0  0  0
   -1.5727   59.7783   73.1124 H   0  0  0  0  0  0  0  0  0  0  0  0
   -1.2049   58.8653   74.6449 H   0  0  0  0  0  0  0  0  0  0  0  0
   -0.8207   61.7761   73.9942 H   0  0  0  0  0  0  0  0  0  0  0  0
   -1.4644   60.9684   75.4845 H   0  0  0  0  0  0  0  0  0  0  0  0
    0.7290   61.9979   75.9029 H   0  0  0  0  0  0  0  0  0  0  0  0
    0.7908   60.1996   76.0496 H   0  0  0  0  0  0  0  0  0  0  0  0
  3  2  2  0
  4  3  1  0
  5  4  2  0
  6  5  1  0
  7  6  2  0
  7  2  1  0
  8  5  1  0
  9  8  1  0
  9  1  1  0
 10  9  1  0
 10  4  1  0
 11 10  2  0
 13 12  1  0
 13  2  1  0
 14  7  1  0
 15 14  1  0
 16  1  1  0
 17 16  2  0
 18 17  1  0
 19 18  2  0
 20 19  1  0
 21 20  2  0
 21 16  1  0
 22 19  1  0
 23 22  1  0
 24 23  1  0
 25 24  1  0
 26 25  1  0
 27 26  1  0
 28 27  1  0
 28 23  1  0
  1 29  1  0
  1 30  1  0
  3 31  1  0
  6 32  1  0
  8 33  1  0
  8 34  1  0
  9 35  1  1
 12 36  1  0
 12 37  1  0
 12 38  1  0
 15 39  1  0
 15 40  1  0
 15 41  1  0
 17 42  1  0
 18 43  1  0
 20 44  1  0
 21 45  1  0
 22 46  1  0
 22 47  1  0
 23 48  1  0
 24 49  1  0
 24 50  1  0
 25 51  1  0
 25 52  1  0
 26 53  1  0
 26 54  1  0
 27 55  1  0
 27 56  1  0
 28 57  1  0
 28 58  1  0
M  CHG  1  23   1
M  END
>  <score>  (8) 
-8.281

$$$$
=
     RDKit          3D

 58 61  0  0  0  0  0  0  0  0999 V2000
    0.9130   62.2130   72.2980 C   0  0  0  0  0  0  0  0  0  0  0  0
    2.1810   57.1370   74.3970 C   0  0  0  0  0  0  0  0  0  0  0  0
    2.3440   57.8610   73.2110 C   0  0  0  0  0  0  0  0  0  0  0  0
    2.3820   59.2420   73.2970 C   0  0  0  0  0  0  0  0  0  0  0  0
    2.2650   59.9370   74.4920 C   0  0  0  0  0  0  0  0  0  0  0  0
    2.1100   59.2380   75.6730 C   0  0  0  0  0  0  0  0  0  0  0  0
    2.0760   57.8350   75.6270 C   0  0  0  0  0  0  0  0  0  0  0  0
    2.3630   61.4180   74.3000 C   0  0  0  0  0  0  0  0  0  0  0  0
    2.2470   61.6060   72.7700 C   0  0  1  0  0  0  0  0  0  0  0  0
    2.4500   60.2120   72.2090 C   0  0  0  0  0  0  0  0  0  0  0  0
    2.5750   59.9100   71.0360 O   0  0  0  0  0  0  0  0  0  0  0  0
    0.7790   55.2260   74.1240 C   0  0  0  0  0  0  0  0  0  0  0  0
    2.0550   55.7730   74.4400 O   0  0  0  0  0  0  0  0  0  0  0  0
    1.8720   57.2360   76.8460 O   0  0  0  0  0  0  0  0  0  0  0  0
    3.0650   57.0600   77.6100 C   0  0  0  0  0  0  0  0  0  0  0  0
    1.0180   63.5340   71.5650 C   0  0  0  0  0  0  0  0  0  0  0  0
    2.0680   63.7610   70.6660 C   0  0  0  0  0  0  0  0  0  0  0  0
    2.1310   64.9420   69.9250 C   0  0  0  0  0  0  0  0  0  0  0  0
    1.1500   65.9300   70.0780 C   0  0  0  0  0  0  0  0  0  0  0  0
    0.1110   65.7150   70.9960 C   0  0  0  0  0  0  0  0  0  0  0  0
    0.0500   64.5300   71.7340 C   0  0  0  0  0  0  0  0  0  0  0  0
    1.2130   67.2030   69.2780 C   0  0  0  0  0  0  0  0  0  0  0  0
    0.7410   67.0240   67.8480 N   0  0  0  0  0  4  0  0  0  0  0  0
    1.5810   67.8380   66.8900 C   0  0  0  0  0  0  0  0  0  0  0  0
    0.8800   67.9440   65.5480 C   0  0  0  0  0  0  0  0  0  0  0  0
   -0.4520   68.6810   65.6700 C   0  0  0  0  0  0  0  0  0  0  0  0
   -1.0860   68.5330   67.0530 C   0  0  0  0  0  0  0  0  0  0  0  0
   -0.7590   67.1870   67.6790 C   0  0  0  0  0  0  0  0  0  0  0  0
    0.4316   61.4893   71.6238 H   0  0  0  0  0  0  0  0  0  0  0  0
    0.3371   62.4210   73.2118 H   0  0  0  0  0  0  0  0  0  0  0  0
    2.4389   57.3495   72.2418 H   0  0  0  0  0  0  0  0  0  0  0  0
    2.0150   59.7700   76.6311 H   0  0  0  0  0  0  0  0  0  0  0  0
    1.5432   61.9347   74.8206 H   0  0  0  0  0  0  0  0  0  0  0  0
    3.2946   61.8368   74.7083 H   0  0  0  0  0  0  0  0  0  0  0  0
    2.9895   62.3364   72.4163 H   0  0  0  0  0  0  0  0  0  0  0  0
    0.2388   54.9944   75.0538 H   0  0  0  0  0  0  0  0  0  0  0  0
    0.2023   55.9560   73.5370 H   0  0  0  0  0  0  0  0  0  0  0  0
    0.9100   54.3050   73.5370 H   0  0  0  0  0  0  0  0  0  0  0  0
    2.8223   57.0958   78.6823 H   0  0  0  0  0  0  0  0  0  0  0  0
    3.5149   56.0858   77.3682 H   0  0  0  0  0  0  0  0  0  0  0  0
    3.7770   57.8628   77.3682 H   0  0  0  0  0  0  0  0  0  0  0  0
    2.8521   62.9995   70.5426 H   0  0  0  0  0  0  0  0  0  0  0  0
    2.9571   65.0981   69.2156 H   0  0  0  0  0  0  0  0  0  0  0  0
   -0.6617   66.4853   71.1359 H   0  0  0  0  0  0  0  0  0  0  0  0
   -0.7670   64.3787   72.4548 H   0  0  0  0  0  0  0  0  0  0  0  0
    0.5771   67.9563   69.7660 H   0  0  0  0  0  0  0  0  0  0  0  0
    2.2661   67.5187   69.2415 H   0  0  0  0  0  0  0  0  0  0  0  0
    0.8973   66.0385   67.5925 H   0  0  0  0  0  0  0  0  0  0  0  0
    1.7314   68.8462   67.3033 H   0  0  0  0  0  0  0  0  0  0  0  0
    2.5537   67.3432   66.7518 H   0  0  0  0  0  0  0  0  0  0  0  0
    1.5286   68.4911   64.8480 H   0  0  0  0  0  0  0  0  0  0  0  0
    0.6795   66.9264   65.1816 H   0  0  0  0  0  0  0  0  0  0  0  0
   -0.2815   69.7499   65.4740 H   0  0  0  0  0  0  0  0  0  0  0  0
   -1.1442   68.2376   64.9390 H   0  0  0  0  0  0  0  0  0  0  0  0
   -0.7064   69.3321   67.7068 H   0  0  0  0  0  0  0  0  0  0  0  0
   -2.1779   68.6027   66.9394 H   0  0  0  0  0  0  0  0  0  0  0  0
   -1.2428   67.1201   68.6646 H   0  0  0  0  0  0  0  0  0  0  0  0
   -1.1290   66.3900   67.0173 H   0  0  0  0  0  0  0  0  0  0  0  0
  3  2  2  0
  4  3  1  0
  5  4  2  0
  6  5  1  0
  7  6  2  0
  7  2  1  0
  8  5  1  0
  9  8  1  0
  9  1  1  0
 10  9  1  0
 10  4  1  0
 11 10  2  0
 13 12  1  0
 13  2  1  0
 14  7  1  0
 15 14  1  0
 16  1  1  0
 17 16  2  0
 18 17  1  0
 19 18  2  0
 20 19  1  0
 21 20  2  0
 21 16  1  0
 22 19  1  0
 23 22  1  0
 24 23  1  0
 25 24  1  0
 26 25  1  0
 27 26  1  0
 28 27  1  0
 28 23  1  0
  1 29  1  0
  1 30  1  0
  3 31  1  0
  6 32  1  0
  8 33  1  0
  8 34  1  0
  9 35  1  6
 12 36  1  0
 12 37  1  0
 12 38  1  0
 15 39  1  0
 15 40  1  0
 15 41  1  0
 17 42  1  0
 18 43  1  0
 20 44  1  0
 21 45  1  0
 22 46  1  0
 22 47  1  0
 23 48  1  0
 24 49  1  0
 24 50  1  0
 25 51  1  0
 25 52  1  0
 26 53  1  0
 26 54  1  0
 27 55  1  0
 27 56  1  0
 28 57  1  0
 28 58  1  0
M  CHG  1  23   1
M  END
>  <score>  (9) 
-8.177

$$$$
