=
     RDKit          3D

126128  0  0  0  0  0  0  0  0999 V2000
    1.6640   58.5310   79.1010 C   0  0  1  0  0  0  0  0  0  0  0  0
    1.2750   59.5520   78.1350 O   0  0  0  0  0  0  0  0  0  0  0  0
   -0.0760   59.7780   78.0820 C   0  0  0  0  0  0  0  0  0  0  0  0
   -0.9040   59.0690   78.6400 O   0  0  0  0  0  0  0  0  0  0  0  0
   -0.4080   60.9960   77.2430 C   0  0  2  0  0  0  0  0  0  0  0  0
   -0.7440   62.1610   78.1700 C   0  0  0  0  0  0  0  0  0  0  0  0
   -1.5290   60.6130   76.2410 C   0  0  2  0  0  0  0  0  0  0  0  0
   -1.3880   61.2990   74.8450 C   0  0  2  0  0  0  0  0  0  0  0  0
   -2.6650   61.1470   73.9930 C   0  0  0  0  0  0  0  0  0  0  0  0
   -0.1440   60.9260   73.9730 C   0  0  2  0  0  0  0  0  0  0  0  0
    0.4010   59.4490   73.9790 C   0  0  2  0  0  0  0  0  0  0  0  0
    1.5530   59.3200   72.9490 C   0  0  0  0  0  0  0  0  0  0  0  0
    2.2800   57.9520   72.8660 C   0  0  2  0  0  0  0  0  0  0  0  0
    3.2170   57.6520   74.0580 C   0  0  0  0  0  0  0  0  0  0  0  0
    2.5610   57.0230   75.2780 N   0  0  2  0  0  4  0  0  0  0  0  0
    3.4260   57.1970   76.5630 C   0  0  1  0  0  0  0  0  0  0  0  0
    2.8640   56.4750   77.8410 C   0  0  2  0  0  0  0  0  0  0  0  0
    1.5740   57.0800   78.4760 C   0  0  1  0  0  0  0  0  0  0  0  0
    1.0720   56.1100   79.5700 C   0  0  0  0  0  0  0  0  0  0  0  0
    4.8720   56.7350   76.2840 C   0  0  0  0  0  0  0  0  0  0  0  0
    2.1100   55.6100   75.0130 C   0  0  0  0  0  0  0  0  0  0  0  0
    3.1400   57.9650   71.5870 C   0  0  0  0  0  0  0  0  0  0  0  0
   -0.6800   58.4080   73.6750 C   0  0  0  0  0  0  0  0  0  0  0  0
    3.6950   60.0980   78.8900 C   0  0  0  0  0  0  0  0  0  0  0  0
    3.0000   59.0110   79.6960 C   0  0  0  0  0  0  0  0  0  0  0  0
    0.5610   57.0470   77.4460 O   0  0  0  0  0  0  0  0  0  0  0  0
    3.9020   56.3540   78.8190 O   0  0  0  0  0  0  0  0  0  0  0  0
    0.9870   59.1620   75.2520 O   0  0  0  0  0  0  0  0  0  0  0  0
   -2.7970   61.0310   76.7790 O   0  0  0  0  0  0  0  0  0  0  0  0
   -3.7540   59.9730   76.9180 C   0  0  2  0  0  0  0  0  0  0  0  0
   -3.2590   58.7810   76.3120 O   0  0  0  0  0  0  0  0  0  0  0  0
   -4.2620   57.8580   75.8610 C   0  0  1  0  0  0  0  0  0  0  0  0
   -3.6560   56.4610   75.9580 C   0  0  0  0  0  0  0  0  0  0  0  0
   -5.5680   57.9850   76.6600 C   0  0  1  0  0  0  0  0  0  0  0  0
   -6.1760   59.4030   76.4420 C   0  0  2  0  0  0  0  0  0  0  0  0
   -5.0510   60.4420   76.2690 C   0  0  0  0  0  0  0  0  0  0  0  0
   -7.0800   59.7350   77.6390 C   0  0  0  0  0  0  0  0  0  0  0  0
   -6.9490   59.3090   75.2200 O   0  0  0  0  0  0  0  0  0  0  0  0
   -6.5940   60.2070   74.1740 C   0  0  0  0  0  0  0  0  0  0  0  0
   -6.5120   56.9810   76.2920 O   0  0  0  0  0  0  0  0  0  0  0  0
    0.9460   61.8020   74.3880 O   0  0  0  0  0  0  0  0  0  0  0  0
    1.3880   62.6380   73.3020 C   0  0  2  0  0  0  0  0  0  0  0  0
    0.3790   62.6750   72.2960 O   0  0  0  0  0  0  0  0  0  0  0  0
    0.7090   63.5230   71.1900 C   0  0  2  0  0  0  0  0  0  0  0  0
   -0.4860   63.5410   70.2470 C   0  0  0  0  0  0  0  0  0  0  0  0
    1.9650   63.0010   70.4800 C   0  0  0  0  0  0  0  0  0  0  0  0
    3.0880   62.8880   71.5030 C   0  0  1  0  0  0  0  0  0  0  0  0
    2.6650   62.0220   72.7040 C   0  0  1  0  0  0  0  0  0  0  0  0
    4.4060   62.3640   70.9270 N   0  0  0  0  0  4  0  0  0  0  0  0
    5.2290   63.4340   70.2580 C   0  0  0  0  0  0  0  0  0  0  0  0
    4.3290   61.1240   70.0850 C   0  0  0  0  0  0  0  0  0  0  0  0
    3.7610   61.9760   73.6260 O   0  0  0  0  0  0  0  0  0  0  0  0
    0.9750   58.4108   79.9500 H   0  0  0  0  0  0  0  0  0  0  0  0
    0.4447   61.3343   76.6360 H   0  0  0  0  0  0  0  0  0  0  0  0
   -0.6502   61.8356   79.2166 H   0  0  0  0  0  0  0  0  0  0  0  0
   -0.0490   62.9924   77.9808 H   0  0  0  0  0  0  0  0  0  0  0  0
   -1.7750   62.4946   77.9808 H   0  0  0  0  0  0  0  0  0  0  0  0
   -1.4531   59.5246   76.1009 H   0  0  0  0  0  0  0  0  0  0  0  0
   -1.2222   62.3467   75.1364 H   0  0  0  0  0  0  0  0  0  0  0  0
   -3.5373   61.0432   74.6551 H   0  0  0  0  0  0  0  0  0  0  0  0
   -2.7903   62.0366   73.3582 H   0  0  0  0  0  0  0  0  0  0  0  0
   -2.5780   60.2529   73.3582 H   0  0  0  0  0  0  0  0  0  0  0  0
   -0.5075   61.0469   72.9419 H   0  0  0  0  0  0  0  0  0  0  0  0
    1.1332   59.5325   71.9547 H   0  0  0  0  0  0  0  0  0  0  0  0
    2.3209   60.0288   73.2923 H   0  0  0  0  0  0  0  0  0  0  0  0
    1.5025   57.1739   72.8717 H   0  0  0  0  0  0  0  0  0  0  0  0
    4.0011   56.9656   73.7057 H   0  0  0  0  0  0  0  0  0  0  0  0
    3.5933   58.6296   74.3937 H   0  0  0  0  0  0  0  0  0  0  0  0
    1.6939   57.5441   75.4717 H   0  0  0  0  0  0  0  0  0  0  0  0
    3.3959   58.2708   76.7999 H   0  0  0  0  0  0  0  0  0  0  0  0
    2.5333   55.4890   77.4825 H   0  0  0  0  0  0  0  0  0  0  0  0
    1.2903   56.5317   80.5622 H   0  0  0  0  0  0  0  0  0  0  0  0
   -0.0134   55.9668   79.4631 H   0  0  0  0  0  0  0  0  0  0  0  0
    1.5819   55.1412   79.4631 H   0  0  0  0  0  0  0  0  0  0  0  0
    5.3941   56.5682   77.2377 H   0  0  0  0  0  0  0  0  0  0  0  0
    4.8529   55.7982   75.7077 H   0  0  0  0  0  0  0  0  0  0  0  0
    5.3996   57.5093   75.7077 H   0  0  0  0  0  0  0  0  0  0  0  0
    1.9448   55.0924   75.9694 H   0  0  0  0  0  0  0  0  0  0  0  0
    1.1724   55.6261   74.4380 H   0  0  0  0  0  0  0  0  0  0  0  0
    2.8836   55.0799   74.4380 H   0  0  0  0  0  0  0  0  0  0  0  0
    4.2051   57.9811   71.8615 H   0  0  0  0  0  0  0  0  0  0  0  0
    2.9279   57.0635   70.9934 H   0  0  0  0  0  0  0  0  0  0  0  0
    2.9008   58.8596   70.9934 H   0  0  0  0  0  0  0  0  0  0  0  0
   -1.0872   58.0159   74.6187 H   0  0  0  0  0  0  0  0  0  0  0  0
   -1.4877   58.8771   73.0940 H   0  0  0  0  0  0  0  0  0  0  0  0
   -0.2417   57.5832   73.0940 H   0  0  0  0  0  0  0  0  0  0  0  0
    4.1585   60.8229   79.5753 H   0  0  0  0  0  0  0  0  0  0  0  0
    4.4712   59.6447   78.2559 H   0  0  0  0  0  0  0  0  0  0  0  0
    2.9578   60.6123   78.2559 H   0  0  0  0  0  0  0  0  0  0  0  0
    2.8056   59.4028   80.7053 H   0  0  0  0  0  0  0  0  0  0  0  0
    3.6736   58.1414   79.6946 H   0  0  0  0  0  0  0  0  0  0  0  0
   -0.3353   57.0178   77.8654 H   0  0  0  0  0  0  0  0  0  0  0  0
    3.5078   56.3999   79.7260 H   0  0  0  0  0  0  0  0  0  0  0  0
    0.3762   59.4611   75.9714 H   0  0  0  0  0  0  0  0  0  0  0  0
   -3.9371   59.7385   77.9770 H   0  0  0  0  0  0  0  0  0  0  0  0
   -4.5464   58.0780   74.8214 H   0  0  0  0  0  0  0  0  0  0  0  0
   -3.5366   56.1858   77.0163 H   0  0  0  0  0  0  0  0  0  0  0  0
   -4.3212   55.7376   75.4638 H   0  0  0  0  0  0  0  0  0  0  0  0
   -2.6733   56.4525   75.4638 H   0  0  0  0  0  0  0  0  0  0  0  0
   -5.3337   57.8417   77.7252 H   0  0  0  0  0  0  0  0  0  0  0  0
   -4.8755   60.6036   75.1952 H   0  0  0  0  0  0  0  0  0  0  0  0
   -5.3646   61.3756   76.7589 H   0  0  0  0  0  0  0  0  0  0  0  0
   -6.5372   59.5357   78.5748 H   0  0  0  0  0  0  0  0  0  0  0  0
   -7.3654   60.7966   77.5996 H   0  0  0  0  0  0  0  0  0  0  0  0
   -7.9846   59.1104   77.5996 H   0  0  0  0  0  0  0  0  0  0  0  0
   -6.2224   61.1470   74.6081 H   0  0  0  0  0  0  0  0  0  0  0  0
   -5.8074   59.7538   73.5528 H   0  0  0  0  0  0  0  0  0  0  0  0
   -7.4779   60.4142   73.5528 H   0  0  0  0  0  0  0  0  0  0  0  0
   -6.8953   56.5733   77.1086 H   0  0  0  0  0  0  0  0  0  0  0  0
    1.5855   63.6573   73.6652 H   0  0  0  0  0  0  0  0  0  0  0  0
    0.9274   64.5447   71.5340 H   0  0  0  0  0  0  0  0  0  0  0  0
   -1.4161   63.5550   70.8340 H   0  0  0  0  0  0  0  0  0  0  0  0
   -0.4391   64.4385   69.6128 H   0  0  0  0  0  0  0  0  0  0  0  0
   -0.4662   62.6425   69.6128 H   0  0  0  0  0  0  0  0  0  0  0  0
    1.7603   62.0124   70.0433 H   0  0  0  0  0  0  0  0  0  0  0  0
    2.2570   63.6917   69.6752 H   0  0  0  0  0  0  0  0  0  0  0  0
    3.2755   63.9196   71.8358 H   0  0  0  0  0  0  0  0  0  0  0  0
    2.4313   60.9845   72.4229 H   0  0  0  0  0  0  0  0  0  0  0  0
    4.9008   62.0581   71.7770 H   0  0  0  0  0  0  0  0  0  0  0  0
    5.7101   64.0594   71.0244 H   0  0  0  0  0  0  0  0  0  0  0  0
    6.0008   62.9643   69.6306 H   0  0  0  0  0  0  0  0  0  0  0  0
    4.5770   64.0595   69.6306 H   0  0  0  0  0  0  0  0  0  0  0  0
    4.2741   60.2403   70.7378 H   0  0  0  0  0  0  0  0  0  0  0  0
    3.4318   61.1671   69.4500 H   0  0  0  0  0  0  0  0  0  0  0  0
    5.2246   61.0557   69.4500 H   0  0  0  0  0  0  0  0  0  0  0  0
    3.4134   61.9906   74.5528 H   0  0  0  0  0  0  0  0  0  0  0  0
  2  1  1  0
  3  2  1  0
  4  3  2  0
  5  3  1  0
  6  5  1  0
  7  5  1  0
  8  7  1  0
  9  8  1  0
 10  8  1  0
 11 10  1  0
 12 11  1  0
 13 12  1  0
 14 13  1  0
 15 14  1  0
 16 15  1  0
 17 16  1  0
 18 17  1  0
 18  1  1  0
 19 18  1  0
 20 16  1  0
 21 15  1  0
 22 13  1  0
 23 11  1  0
 25  1  1  0
 25 24  1  0
 18 26  1  6
 27 17  1  0
 11 28  1  1
 29  7  1  0
 30 29  1  0
 31 30  1  0
 32 31  1  0
 33 32  1  0
 34 32  1  0
 35 34  1  0
 36 35  1  0
 36 30  1  0
 37 35  1  0
 35 38  1  6
 39 38  1  0
 40 34  1  0
 41 10  1  0
 42 41  1  0
 43 42  1  0
 44 43  1  0
 45 44  1  0
 46 44  1  0
 47 46  1  0
 48 47  1  0
 48 42  1  0
 49 47  1  0
 50 49  1  0
 51 49  1  0
 52 48  1  0
  1 53  1  1
  5 54  1  6
  6 55  1  0
  6 56  1  0
  6 57  1  0
  7 58  1  6
  8 59  1  1
  9 60  1  0
  9 61  1  0
  9 62  1  0
 10 63  1  6
 12 64  1  0
 12 65  1  0
 13 66  1  6
 14 67  1  0
 14 68  1  0
 15 69  1  1
 16 70  1  1
 17 71  1  6
 19 72  1  0
 19 73  1  0
 19 74  1  0
 20 75  1  0
 20 76  1  0
 20 77  1  0
 21 78  1  0
 21 79  1  0
 21 80  1  0
 22 81  1  0
 22 82  1  0
 22 83  1  0
 23 84  1  0
 23 85  1  0
 23 86  1  0
 24 87  1  0
 24 88  1  0
 24 89  1  0
 25 90  1  0
 25 91  1  0
 26 92  1  0
 27 93  1  0
 28 94  1  0
 30 95  1  1
 32 96  1  6
 33 97  1  0
 33 98  1  0
 33 99  1  0
 34100  1  1
 36101  1  0
 36102  1  0
 37103  1  0
 37104  1  0
 37105  1  0
 39106  1  0
 39107  1  0
 39108  1  0
 40109  1  0
 42110  1  1
 44111  1  1
 45112  1  0
 45113  1  0
 45114  1  0
 46115  1  0
 46116  1  0
 47117  1  1
 48118  1  6
 49119  1  0
 50120  1  0
 50121  1  0
 50122  1  0
 51123  1  0
 51124  1  0
 51125  1  0
 52126  1  0
M  CHG  2  15   1  49   1
M  END
>  <score>  (1) 
-7.199

$$$$
=
     RDKit          3D

126128  0  0  0  0  0  0  0  0999 V2000
   -0.7590   63.4260   77.8750 C   0  0  1  0  0  0  0  0  0  0  0  0
   -0.1890   62.1070   77.6290 O   0  0  0  0  0  0  0  0  0  0  0  0
    0.7830   62.0950   76.6610 C   0  0  0  0  0  0  0  0  0  0  0  0
    1.0240   63.0480   75.9310 O   0  0  0  0  0  0  0  0  0  0  0  0
    1.5010   60.7610   76.6050 C   0  0  2  0  0  0  0  0  0  0  0  0
    2.8630   60.9020   77.2800 C   0  0  0  0  0  0  0  0  0  0  0  0
    1.5490   60.2900   75.1270 C   0  0  2  0  0  0  0  0  0  0  0  0
    1.3970   58.7460   74.9530 C   0  0  2  0  0  0  0  0  0  0  0  0
    1.7570   58.2850   73.5260 C   0  0  0  0  0  0  0  0  0  0  0  0
    0.0370   58.0970   75.3710 C   0  0  2  0  0  0  0  0  0  0  0  0
   -1.3110   58.8700   75.1160 C   0  0  2  0  0  0  0  0  0  0  0  0
   -2.5080   57.9660   75.5080 C   0  0  0  0  0  0  0  0  0  0  0  0
   -3.9270   58.5830   75.4050 C   0  0  2  0  0  0  0  0  0  0  0  0
   -4.2560   59.6160   76.5060 C   0  0  0  0  0  0  0  0  0  0  0  0
   -3.8130   61.0450   76.2310 N   0  0  2  0  0  4  0  0  0  0  0  0
   -3.7380   61.8960   77.5350 C   0  0  1  0  0  0  0  0  0  0  0  0
   -3.3930   63.4140   77.3160 C   0  0  2  0  0  0  0  0  0  0  0  0
   -1.9370   63.7440   76.8670 C   0  0  1  0  0  0  0  0  0  0  0  0
   -1.8710   65.2440   76.5000 C   0  0  0  0  0  0  0  0  0  0  0  0
   -5.0560   61.7590   78.3250 C   0  0  0  0  0  0  0  0  0  0  0  0
   -4.6030   61.6790   75.1150 C   0  0  0  0  0  0  0  0  0  0  0  0
   -4.9410   57.4290   75.5280 C   0  0  0  0  0  0  0  0  0  0  0  0
   -1.4710   59.3360   73.6660 C   0  0  0  0  0  0  0  0  0  0  0  0
   -0.9710   62.1370   80.0920 C   0  0  0  0  0  0  0  0  0  0  0  0
   -1.0300   63.4850   79.3890 C   0  0  0  0  0  0  0  0  0  0  0  0
   -1.7270   63.0400   75.6220 O   0  0  0  0  0  0  0  0  0  0  0  0
   -3.7450   64.1590   78.4860 O   0  0  0  0  0  0  0  0  0  0  0  0
   -1.3830   60.0030   75.9860 O   0  0  0  0  0  0  0  0  0  0  0  0
    2.8270   60.6440   74.5680 O   0  0  0  0  0  0  0  0  0  0  0  0
    2.7520   61.5300   73.4440 C   0  0  2  0  0  0  0  0  0  0  0  0
    1.3910   61.7410   73.0760 O   0  0  0  0  0  0  0  0  0  0  0  0
    1.1720   62.0920   71.7000 C   0  0  1  0  0  0  0  0  0  0  0  0
   -0.0820   62.9590   71.6580 C   0  0  0  0  0  0  0  0  0  0  0  0
    2.3900   62.7950   71.0820 C   0  0  1  0  0  0  0  0  0  0  0  0
    3.6070   61.8220   71.0770 C   0  0  2  0  0  0  0  0  0  0  0  0
    3.5540   60.8990   72.3110 C   0  0  0  0  0  0  0  0  0  0  0  0
    4.8980   62.6540   71.0410 C   0  0  0  0  0  0  0  0  0  0  0  0
    3.4660   61.0330   69.8690 O   0  0  0  0  0  0  0  0  0  0  0  0
    3.4730   59.6190   70.0310 C   0  0  0  0  0  0  0  0  0  0  0  0
    2.1190   63.2540   69.7580 O   0  0  0  0  0  0  0  0  0  0  0  0
    0.1200   57.8130   76.8000 O   0  0  0  0  0  0  0  0  0  0  0  0
    0.5240   56.4520   77.0410 C   0  0  2  0  0  0  0  0  0  0  0  0
    0.8820   55.8420   75.8050 O   0  0  0  0  0  0  0  0  0  0  0  0
    1.3440   54.4930   75.9480 C   0  0  2  0  0  0  0  0  0  0  0  0
    1.7780   54.0040   74.5740 C   0  0  0  0  0  0  0  0  0  0  0  0
    0.2280   53.6120   76.5220 C   0  0  0  0  0  0  0  0  0  0  0  0
   -0.2470   54.2240   77.8330 C   0  0  1  0  0  0  0  0  0  0  0  0
   -0.6710   55.6920   77.6440 C   0  0  1  0  0  0  0  0  0  0  0  0
   -1.3760   53.4440   78.5130 N   0  0  0  0  0  4  0  0  0  0  0  0
   -0.8900   52.5210   79.6000 C   0  0  0  0  0  0  0  0  0  0  0  0
   -2.3610   52.7590   77.6120 C   0  0  0  0  0  0  0  0  0  0  0  0
   -1.0870   56.2020   78.9160 O   0  0  0  0  0  0  0  0  0  0  0  0
   -0.0888   64.2686   77.6497 H   0  0  0  0  0  0  0  0  0  0  0  0
    0.9719   59.9737   77.1620 H   0  0  0  0  0  0  0  0  0  0  0  0
    2.7340   60.8886   78.3723 H   0  0  0  0  0  0  0  0  0  0  0  0
    3.5107   60.0661   76.9770 H   0  0  0  0  0  0  0  0  0  0  0  0
    3.3257   61.8528   76.9770 H   0  0  0  0  0  0  0  0  0  0  0  0
    0.7027   60.7796   74.6230 H   0  0  0  0  0  0  0  0  0  0  0  0
    2.1240   58.3749   75.6904 H   0  0  0  0  0  0  0  0  0  0  0  0
    2.4332   57.4191   73.5801 H   0  0  0  0  0  0  0  0  0  0  0  0
    0.8394   58.0008   72.9901 H   0  0  0  0  0  0  0  0  0  0  0  0
    2.2552   59.1063   72.9901 H   0  0  0  0  0  0  0  0  0  0  0  0
   -0.0490   57.2295   74.7002 H   0  0  0  0  0  0  0  0  0  0  0  0
   -2.4833   57.0823   74.8534 H   0  0  0  0  0  0  0  0  0  0  0  0
   -2.3668   57.7580   76.5789 H   0  0  0  0  0  0  0  0  0  0  0  0
   -3.9764   59.1176   74.4449 H   0  0  0  0  0  0  0  0  0  0  0  0
   -5.3470   59.6226   76.6466 H   0  0  0  0  0  0  0  0  0  0  0  0
   -3.6907   59.2950   77.3934 H   0  0  0  0  0  0  0  0  0  0  0  0
   -2.8447   61.0108   75.8817 H   0  0  0  0  0  0  0  0  0  0  0  0
   -2.8933   61.4867   78.1085 H   0  0  0  0  0  0  0  0  0  0  0  0
   -3.9998   63.7162   76.4497 H   0  0  0  0  0  0  0  0  0  0  0  0
   -1.8445   65.8458   77.4204 H   0  0  0  0  0  0  0  0  0  0  0  0
   -0.9635   65.4374   75.9092 H   0  0  0  0  0  0  0  0  0  0  0  0
   -2.7580   65.5163   75.9092 H   0  0  0  0  0  0  0  0  0  0  0  0
   -4.8410   61.7813   79.4036 H   0  0  0  0  0  0  0  0  0  0  0  0
   -5.7262   62.5923   78.0674 H   0  0  0  0  0  0  0  0  0  0  0  0
   -5.5405   60.8057   78.0674 H   0  0  0  0  0  0  0  0  0  0  0  0
   -5.3941   62.3139   75.5405 H   0  0  0  0  0  0  0  0  0  0  0  0
   -3.9336   62.2934   74.4950 H   0  0  0  0  0  0  0  0  0  0  0  0
   -5.0579   60.8925   74.4950 H   0  0  0  0  0  0  0  0  0  0  0  0
   -5.1276   57.2166   76.5910 H   0  0  0  0  0  0  0  0  0  0  0  0
   -5.8843   57.7162   75.0404 H   0  0  0  0  0  0  0  0  0  0  0  0
   -4.5349   56.5305   75.0404 H   0  0  0  0  0  0  0  0  0  0  0  0
   -1.8282   60.3763   73.6525 H   0  0  0  0  0  0  0  0  0  0  0  0
   -0.5004   59.2749   73.1520 H   0  0  0  0  0  0  0  0  0  0  0  0
   -2.1993   58.6915   73.1520 H   0  0  0  0  0  0  0  0  0  0  0  0
   -0.9777   62.2909   81.1812 H   0  0  0  0  0  0  0  0  0  0  0  0
   -1.8436   61.5335   79.8016 H   0  0  0  0  0  0  0  0  0  0  0  0
   -0.0490   61.6120   79.8016 H   0  0  0  0  0  0  0  0  0  0  0  0
   -0.2788   64.1450   79.8473 H   0  0  0  0  0  0  0  0  0  0  0  0
   -2.0584   63.8565   79.5092 H   0  0  0  0  0  0  0  0  0  0  0  0
   -1.4493   62.1090   75.8121 H   0  0  0  0  0  0  0  0  0  0  0  0
   -3.5002   63.6408   79.2932 H   0  0  0  0  0  0  0  0  0  0  0  0
   -1.3636   59.6978   76.9276 H   0  0  0  0  0  0  0  0  0  0  0  0
    3.1724   62.5172   73.6862 H   0  0  0  0  0  0  0  0  0  0  0  0
    1.0297   61.1880   71.0897 H   0  0  0  0  0  0  0  0  0  0  0  0
   -0.4070   63.1837   72.6846 H   0  0  0  0  0  0  0  0  0  0  0  0
    0.1390   63.8981   71.1296 H   0  0  0  0  0  0  0  0  0  0  0  0
   -0.8825   62.4206   71.1296 H   0  0  0  0  0  0  0  0  0  0  0  0
    2.6241   63.6776   71.6954 H   0  0  0  0  0  0  0  0  0  0  0  0
    3.0825   59.9470   72.0258 H   0  0  0  0  0  0  0  0  0  0  0  0
    4.5825   60.7347   72.6648 H   0  0  0  0  0  0  0  0  0  0  0  0
    5.2265   62.8657   72.0692 H   0  0  0  0  0  0  0  0  0  0  0  0
    5.6824   62.0910   70.5140 H   0  0  0  0  0  0  0  0  0  0  0  0
    4.7094   63.6009   70.5140 H   0  0  0  0  0  0  0  0  0  0  0  0
    3.4742   59.3728   71.1031 H   0  0  0  0  0  0  0  0  0  0  0  0
    2.5770   59.1913   69.5576 H   0  0  0  0  0  0  0  0  0  0  0  0
    4.3732   59.2001   69.5576 H   0  0  0  0  0  0  0  0  0  0  0  0
    1.6161   64.1057   69.8005 H   0  0  0  0  0  0  0  0  0  0  0  0
    1.3832   56.4274   77.7274 H   0  0  0  0  0  0  0  0  0  0  0  0
    2.1931   54.4426   76.6455 H   0  0  0  0  0  0  0  0  0  0  0  0
    2.5042   53.1858   74.6885 H   0  0  0  0  0  0  0  0  0  0  0  0
    0.9000   53.6402   74.0201 H   0  0  0  0  0  0  0  0  0  0  0  0
    2.2435   54.8325   74.0201 H   0  0  0  0  0  0  0  0  0  0  0  0
   -0.6094   53.5639   75.8104 H   0  0  0  0  0  0  0  0  0  0  0  0
    0.6051   52.5936   76.6971 H   0  0  0  0  0  0  0  0  0  0  0  0
    0.6235   54.1715   78.5035 H   0  0  0  0  0  0  0  0  0  0  0  0
   -1.5197   55.8075   76.9538 H   0  0  0  0  0  0  0  0  0  0  0  0
   -1.9212   54.2009   78.9497 H   0  0  0  0  0  0  0  0  0  0  0  0
   -1.1203   52.9585   80.5826 H   0  0  0  0  0  0  0  0  0  0  0  0
   -1.3921   51.5469   79.5055 H   0  0  0  0  0  0  0  0  0  0  0  0
    0.1973   52.3838   79.5055 H   0  0  0  0  0  0  0  0  0  0  0  0
   -3.1130   52.2360   78.2211 H   0  0  0  0  0  0  0  0  0  0  0  0
   -2.8589   53.5068   76.9772 H   0  0  0  0  0  0  0  0  0  0  0  0
   -1.8333   52.0320   76.9772 H   0  0  0  0  0  0  0  0  0  0  0  0
   -0.6589   55.6771   79.6380 H   0  0  0  0  0  0  0  0  0  0  0  0
  2  1  1  0
  3  2  1  0
  4  3  2  0
  5  3  1  0
  6  5  1  0
  7  5  1  0
  8  7  1  0
  9  8  1  0
 10  8  1  0
 11 10  1  0
 12 11  1  0
 13 12  1  0
 14 13  1  0
 15 14  1  0
 16 15  1  0
 17 16  1  0
 18 17  1  0
 18  1  1  0
 19 18  1  0
 20 16  1  0
 21 15  1  0
 22 13  1  0
 23 11  1  0
 25  1  1  0
 25 24  1  0
 18 26  1  6
 27 17  1  0
 11 28  1  1
 29  7  1  0
 30 29  1  0
 31 30  1  0
 32 31  1  0
 33 32  1  0
 34 32  1  0
 35 34  1  0
 36 35  1  0
 36 30  1  0
 37 35  1  0
 35 38  1  6
 39 38  1  0
 40 34  1  0
 41 10  1  0
 42 41  1  0
 43 42  1  0
 44 43  1  0
 45 44  1  0
 46 44  1  0
 47 46  1  0
 48 47  1  0
 48 42  1  0
 49 47  1  0
 50 49  1  0
 51 49  1  0
 52 48  1  0
  1 53  1  1
  5 54  1  1
  6 55  1  0
  6 56  1  0
  6 57  1  0
  7 58  1  6
  8 59  1  1
  9 60  1  0
  9 61  1  0
  9 62  1  0
 10 63  1  6
 12 64  1  0
 12 65  1  0
 13 66  1  6
 14 67  1  0
 14 68  1  0
 15 69  1  6
 16 70  1  1
 17 71  1  6
 19 72  1  0
 19 73  1  0
 19 74  1  0
 20 75  1  0
 20 76  1  0
 20 77  1  0
 21 78  1  0
 21 79  1  0
 21 80  1  0
 22 81  1  0
 22 82  1  0
 22 83  1  0
 23 84  1  0
 23 85  1  0
 23 86  1  0
 24 87  1  0
 24 88  1  0
 24 89  1  0
 25 90  1  0
 25 91  1  0
 26 92  1  0
 27 93  1  0
 28 94  1  0
 30 95  1  1
 32 96  1  6
 33 97  1  0
 33 98  1  0
 33 99  1  0
 34100  1  1
 36101  1  0
 36102  1  0
 37103  1  0
 37104  1  0
 37105  1  0
 39106  1  0
 39107  1  0
 39108  1  0
 40109  1  0
 42110  1  1
 44111  1  1
 45112  1  0
 45113  1  0
 45114  1  0
 46115  1  0
 46116  1  0
 47117  1  1
 48118  1  6
 49119  1  0
 50120  1  0
 50121  1  0
 50122  1  0
 51123  1  0
 51124  1  0
 51125  1  0
 52126  1  0
M  CHG  2  15   1  49   1
M  END
>  <score>  (2) 
-7.178

$$$$
=
     RDKit          3D

126128  0  0  0  0  0  0  0  0999 V2000
    1.2870   61.2690   78.7690 C   0  0  1  0  0  0  0  0  0  0  0  0
    1.3740   59.9510   78.1510 O   0  0  0  0  0  0  0  0  0  0  0  0
    2.1580   59.9180   77.0260 C   0  0  0  0  0  0  0  0  0  0  0  0
    2.5900   60.9200   76.4710 O   0  0  0  0  0  0  0  0  0  0  0  0
    2.4050   58.4970   76.5580 C   0  0  2  0  0  0  0  0  0  0  0  0
    3.8170   58.0800   76.9600 C   0  0  0  0  0  0  0  0  0  0  0  0
    2.1080   58.4220   75.0370 C   0  0  2  0  0  0  0  0  0  0  0  0
    1.4560   57.0760   74.5880 C   0  0  2  0  0  0  0  0  0  0  0  0
    1.4630   56.9120   73.0540 C   0  0  0  0  0  0  0  0  0  0  0  0
    0.0270   56.7450   75.1300 C   0  0  2  0  0  0  0  0  0  0  0  0
   -1.0290   57.8980   75.3130 C   0  0  2  0  0  0  0  0  0  0  0  0
   -2.3890   57.2900   75.7460 C   0  0  0  0  0  0  0  0  0  0  0  0
   -3.5410   58.2810   76.0580 C   0  0  2  0  0  0  0  0  0  0  0  0
   -3.3810   59.0500   77.3880 C   0  0  0  0  0  0  0  0  0  0  0  0
   -2.5490   60.3220   77.3250 N   0  0  2  0  0  4  0  0  0  0  0  0
   -2.0400   60.7590   78.7320 C   0  0  1  0  0  0  0  0  0  0  0  0
   -1.2660   62.1270   78.7590 C   0  0  2  0  0  0  0  0  0  0  0  0
    0.1480   62.1450   78.1040 C   0  0  1  0  0  0  0  0  0  0  0  0
    0.6360   63.6110   78.0420 C   0  0  0  0  0  0  0  0  0  0  0  0
   -3.2200   60.7960   79.7260 C   0  0  0  0  0  0  0  0  0  0  0  0
   -3.2370   61.4110   76.5420 C   0  0  0  0  0  0  0  0  0  0  0  0
   -4.8420   57.4590   76.1460 C   0  0  0  0  0  0  0  0  0  0  0  0
   -1.2220   58.7420   74.0490 C   0  0  0  0  0  0  0  0  0  0  0  0
    1.1690   59.5460   80.6770 C   0  0  0  0  0  0  0  0  0  0  0  0
    1.2480   61.0140   80.2860 C   0  0  0  0  0  0  0  0  0  0  0  0
   -0.0380   61.7500   76.7260 O   0  0  0  0  0  0  0  0  0  0  0  0
   -1.2090   62.6180   80.1030 O   0  0  0  0  0  0  0  0  0  0  0  0
   -0.6260   58.7480   76.3900 O   0  0  0  0  0  0  0  0  0  0  0  0
    3.3480   58.5390   74.3150 O   0  0  0  0  0  0  0  0  0  0  0  0
    3.4430   59.7100   73.4940 C   0  0  2  0  0  0  0  0  0  0  0  0
    2.1430   60.2440   73.2510 O   0  0  0  0  0  0  0  0  0  0  0  0
    2.0070   61.0080   72.0420 C   0  0  1  0  0  0  0  0  0  0  0  0
    0.9220   62.0500   72.2950 C   0  0  0  0  0  0  0  0  0  0  0  0
    3.3370   61.6420   71.6060 C   0  0  1  0  0  0  0  0  0  0  0  0
    4.3670   60.5200   71.2780 C   0  0  2  0  0  0  0  0  0  0  0  0
    4.1390   59.3050   72.2000 C   0  0  0  0  0  0  0  0  0  0  0  0
    5.7820   61.0970   71.4340 C   0  0  0  0  0  0  0  0  0  0  0  0
    4.1090   60.1470   69.9020 O   0  0  0  0  0  0  0  0  0  0  0  0
    3.4440   58.9050   69.6950 C   0  0  0  0  0  0  0  0  0  0  0  0
    3.1670   62.5000   70.4780 O   0  0  0  0  0  0  0  0  0  0  0  0
    0.2020   56.0960   76.4250 O   0  0  0  0  0  0  0  0  0  0  0  0
    0.7110   54.7570   76.2760 C   0  0  2  0  0  0  0  0  0  0  0  0
   -0.0540   54.0700   75.2900 O   0  0  0  0  0  0  0  0  0  0  0  0
    0.4090   52.7380   75.0360 C   0  0  2  0  0  0  0  0  0  0  0  0
   -0.4330   52.1640   73.9050 C   0  0  0  0  0  0  0  0  0  0  0  0
    0.2850   51.8860   76.3060 C   0  0  0  0  0  0  0  0  0  0  0  0
    1.0430   52.5790   77.4300 C   0  0  1  0  0  0  0  0  0  0  0  0
    0.5590   54.0270   77.6230 C   0  0  1  0  0  0  0  0  0  0  0  0
    0.9930   51.8360   78.7680 N   0  0  0  0  0  4  0  0  0  0  0  0
   -0.3300   51.9730   79.4750 C   0  0  0  0  0  0  0  0  0  0  0  0
    2.1430   52.0570   79.7070 C   0  0  0  0  0  0  0  0  0  0  0  0
    1.3250   54.6160   78.6800 O   0  0  0  0  0  0  0  0  0  0  0  0
    2.1537   61.9221   78.5893 H   0  0  0  0  0  0  0  0  0  0  0  0
    1.7323   57.7717   77.0391 H   0  0  0  0  0  0  0  0  0  0  0  0
    3.8942   58.0572   78.0570 H   0  0  0  0  0  0  0  0  0  0  0  0
    4.0328   57.0798   76.5563 H   0  0  0  0  0  0  0  0  0  0  0  0
    4.5416   58.8025   76.5563 H   0  0  0  0  0  0  0  0  0  0  0  0
    1.4009   59.2373   74.8241 H   0  0  0  0  0  0  0  0  0  0  0  0
    2.1181   56.3436   75.0730 H   0  0  0  0  0  0  0  0  0  0  0  0
    1.5086   55.8428   72.7998 H   0  0  0  0  0  0  0  0  0  0  0  0
    0.5453   57.3499   72.6342 H   0  0  0  0  0  0  0  0  0  0  0  0
    2.3400   57.4265   72.6342 H   0  0  0  0  0  0  0  0  0  0  0  0
   -0.4158   56.1358   74.3282 H   0  0  0  0  0  0  0  0  0  0  0  0
   -2.7303   56.6307   74.9343 H   0  0  0  0  0  0  0  0  0  0  0  0
   -2.1827   56.7850   76.7012 H   0  0  0  0  0  0  0  0  0  0  0  0
   -3.5434   59.0345   75.2566 H   0  0  0  0  0  0  0  0  0  0  0  0
   -4.3860   59.3221   77.7428 H   0  0  0  0  0  0  0  0  0  0  0  0
   -2.8358   58.3711   78.0602 H   0  0  0  0  0  0  0  0  0  0  0  0
   -1.6949   60.1117   76.7891 H   0  0  0  0  0  0  0  0  0  0  0  0
   -1.3006   60.0010   79.0301 H   0  0  0  0  0  0  0  0  0  0  0  0
   -1.8539   62.7938   78.1112 H   0  0  0  0  0  0  0  0  0  0  0  0
    0.7648   63.9981   79.0636 H   0  0  0  0  0  0  0  0  0  0  0  0
    1.5973   63.6552   77.5092 H   0  0  0  0  0  0  0  0  0  0  0  0
   -0.1070   64.2226   77.5092 H   0  0  0  0  0  0  0  0  0  0  0  0
   -2.8327   60.7839   80.7555 H   0  0  0  0  0  0  0  0  0  0  0  0
   -3.8060   61.7130   79.5655 H   0  0  0  0  0  0  0  0  0  0  0  0
   -3.8623   59.9176   79.5655 H   0  0  0  0  0  0  0  0  0  0  0  0
   -3.6921   62.1313   77.2378 H   0  0  0  0  0  0  0  0  0  0  0  0
   -2.5012   61.9279   75.9084 H   0  0  0  0  0  0  0  0  0  0  0  0
   -4.0198   60.9685   75.9084 H   0  0  0  0  0  0  0  0  0  0  0  0
   -5.1014   57.2951   77.2023 H   0  0  0  0  0  0  0  0  0  0  0  0
   -5.6562   58.0069   75.6492 H   0  0  0  0  0  0  0  0  0  0  0  0
   -4.6968   56.4884   75.6492 H   0  0  0  0  0  0  0  0  0  0  0  0
   -1.4589   59.7781   74.3326 H   0  0  0  0  0  0  0  0  0  0  0  0
   -0.2973   58.7272   73.4535 H   0  0  0  0  0  0  0  0  0  0  0  0
   -2.0484   58.3267   73.4535 H   0  0  0  0  0  0  0  0  0  0  0  0
    1.1643   59.4583   81.7735 H   0  0  0  0  0  0  0  0  0  0  0  0
    0.2459   59.1073   80.2701 H   0  0  0  0  0  0  0  0  0  0  0  0
    2.0396   59.0108   80.2701 H   0  0  0  0  0  0  0  0  0  0  0  0
    2.1605   61.4390   80.7294 H   0  0  0  0  0  0  0  0  0  0  0  0
    0.3278   61.4872   80.6593 H   0  0  0  0  0  0  0  0  0  0  0  0
   -0.4595   60.8548   76.6933 H   0  0  0  0  0  0  0  0  0  0  0  0
   -1.2969   61.8610   80.7349 H   0  0  0  0  0  0  0  0  0  0  0  0
   -0.8342   58.3089   77.2526 H   0  0  0  0  0  0  0  0  0  0  0  0
    4.0242   60.5000   73.9921 H   0  0  0  0  0  0  0  0  0  0  0  0
    1.7189   60.3555   71.2046 H   0  0  0  0  0  0  0  0  0  0  0  0
    0.7853   62.1813   73.3785 H   0  0  0  0  0  0  0  0  0  0  0  0
    1.2213   63.0078   71.8444 H   0  0  0  0  0  0  0  0  0  0  0  0
   -0.0229   61.7122   71.8444 H   0  0  0  0  0  0  0  0  0  0  0  0
    3.7119   62.2580   72.4367 H   0  0  0  0  0  0  0  0  0  0  0  0
    3.5143   58.5686   71.6733 H   0  0  0  0  0  0  0  0  0  0  0  0
    5.1192   58.8756   72.4546 H   0  0  0  0  0  0  0  0  0  0  0  0
    6.0222   61.1950   72.5030 H   0  0  0  0  0  0  0  0  0  0  0  0
    6.5077   60.4230   70.9554 H   0  0  0  0  0  0  0  0  0  0  0  0
    5.8294   62.0863   70.9554 H   0  0  0  0  0  0  0  0  0  0  0  0
    3.2016   58.4523   70.6678 H   0  0  0  0  0  0  0  0  0  0  0  0
    2.5166   59.0756   69.1287 H   0  0  0  0  0  0  0  0  0  0  0  0
    4.1001   58.2277   69.1287 H   0  0  0  0  0  0  0  0  0  0  0  0
    2.9843   63.4219   70.7892 H   0  0  0  0  0  0  0  0  0  0  0  0
    1.7673   54.7855   75.9704 H   0  0  0  0  0  0  0  0  0  0  0  0
    1.4699   52.7410   74.7455 H   0  0  0  0  0  0  0  0  0  0  0  0
   -1.2724   51.5918   74.3268 H   0  0  0  0  0  0  0  0  0  0  0  0
   -0.8234   52.9849   73.2855 H   0  0  0  0  0  0  0  0  0  0  0  0
    0.1884   51.5006   73.2855 H   0  0  0  0  0  0  0  0  0  0  0  0
   -0.7749   51.7834   76.5817 H   0  0  0  0  0  0  0  0  0  0  0  0
    0.7052   50.8848   76.1301 H   0  0  0  0  0  0  0  0  0  0  0  0
    2.0940   52.5783   77.1054 H   0  0  0  0  0  0  0  0  0  0  0  0
   -0.4995   54.0890   77.9158 H   0  0  0  0  0  0  0  0  0  0  0  0
    1.1007   50.8564   78.4685 H   0  0  0  0  0  0  0  0  0  0  0  0
   -0.1679   51.9562   80.5629 H   0  0  0  0  0  0  0  0  0  0  0  0
   -0.8016   52.9248   79.1892 H   0  0  0  0  0  0  0  0  0  0  0  0
   -0.9866   51.1381   79.1892 H   0  0  0  0  0  0  0  0  0  0  0  0
    1.7868   51.9885   80.7455 H   0  0  0  0  0  0  0  0  0  0  0  0
    2.9120   51.2902   79.5318 H   0  0  0  0  0  0  0  0  0  0  0  0
    2.5730   53.0542   79.5318 H   0  0  0  0  0  0  0  0  0  0  0  0
    0.9554   54.3318   79.5533 H   0  0  0  0  0  0  0  0  0  0  0  0
  2  1  1  0
  3  2  1  0
  4  3  2  0
  5  3  1  0
  6  5  1  0
  7  5  1  0
  8  7  1  0
  9  8  1  0
 10  8  1  0
 11 10  1  0
 12 11  1  0
 13 12  1  0
 14 13  1  0
 15 14  1  0
 16 15  1  0
 17 16  1  0
 18 17  1  0
 18  1  1  0
 19 18  1  0
 20 16  1  0
 21 15  1  0
 22 13  1  0
 23 11  1  0
 25  1  1  0
 25 24  1  0
 18 26  1  6
 27 17  1  0
 11 28  1  1
 29  7  1  0
 30 29  1  0
 31 30  1  0
 32 31  1  0
 33 32  1  0
 34 32  1  0
 35 34  1  0
 36 35  1  0
 36 30  1  0
 37 35  1  0
 35 38  1  6
 39 38  1  0
 40 34  1  0
 41 10  1  0
 42 41  1  0
 43 42  1  0
 44 43  1  0
 45 44  1  0
 46 44  1  0
 47 46  1  0
 48 47  1  0
 48 42  1  0
 49 47  1  0
 50 49  1  0
 51 49  1  0
 52 48  1  0
  1 53  1  1
  5 54  1  1
  6 55  1  0
  6 56  1  0
  6 57  1  0
  7 58  1  6
  8 59  1  1
  9 60  1  0
  9 61  1  0
  9 62  1  0
 10 63  1  6
 12 64  1  0
 12 65  1  0
 13 66  1  6
 14 67  1  0
 14 68  1  0
 15 69  1  6
 16 70  1  1
 17 71  1  6
 19 72  1  0
 19 73  1  0
 19 74  1  0
 20 75  1  0
 20 76  1  0
 20 77  1  0
 21 78  1  0
 21 79  1  0
 21 80  1  0
 22 81  1  0
 22 82  1  0
 22 83  1  0
 23 84  1  0
 23 85  1  0
 23 86  1  0
 24 87  1  0
 24 88  1  0
 24 89  1  0
 25 90  1  0
 25 91  1  0
 26 92  1  0
 27 93  1  0
 28 94  1  0
 30 95  1  1
 32 96  1  6
 33 97  1  0
 33 98  1  0
 33 99  1  0
 34100  1  1
 36101  1  0
 36102  1  0
 37103  1  0
 37104  1  0
 37105  1  0
 39106  1  0
 39107  1  0
 39108  1  0
 40109  1  0
 42110  1  6
 44111  1  6
 45112  1  0
 45113  1  0
 45114  1  0
 46115  1  0
 46116  1  0
 47117  1  6
 48118  1  1
 49119  1  0
 50120  1  0
 50121  1  0
 50122  1  0
 51123  1  0
 51124  1  0
 51125  1  0
 52126  1  0
M  CHG  2  15   1  49   1
M  END
>  <score>  (3) 
-7.019

$$$$
=
     RDKit          3D

126128  0  0  0  0  0  0  0  0999 V2000
    2.5190   56.5830   76.3580 C   0  0  1  0  0  0  0  0  0  0  0  0
    1.3900   57.4730   76.1140 O   0  0  0  0  0  0  0  0  0  0  0  0
    1.4130   58.0710   74.8800 C   0  0  0  0  0  0  0  0  0  0  0  0
    2.3750   58.0270   74.1240 O   0  0  0  0  0  0  0  0  0  0  0  0
    0.1140   58.7960   74.5850 C   0  0  2  0  0  0  0  0  0  0  0  0
   -0.7150   57.9540   73.6200 C   0  0  0  0  0  0  0  0  0  0  0  0
    0.4520   60.2250   74.0830 C   0  0  2  0  0  0  0  0  0  0  0  0
   -0.5580   61.3160   74.5610 C   0  0  2  0  0  0  0  0  0  0  0  0
   -0.3770   62.6460   73.8030 C   0  0  0  0  0  0  0  0  0  0  0  0
   -0.6390   61.6090   76.0960 C   0  0  2  0  0  0  0  0  0  0  0  0
    0.6700   61.5720   76.9700 C   0  0  2  0  0  0  0  0  0  0  0  0
    0.3360   62.0120   78.4190 C   0  0  0  0  0  0  0  0  0  0  0  0
    1.4860   61.9610   79.4590 C   0  0  2  0  0  0  0  0  0  0  0  0
    1.8790   60.5350   79.9070 C   0  0  0  0  0  0  0  0  0  0  0  0
    2.8890   59.8150   79.0260 N   0  0  2  0  0  4  0  0  0  0  0  0
    2.8660   58.2730   79.2490 C   0  0  1  0  0  0  0  0  0  0  0  0
    3.9600   57.4730   78.4530 C   0  0  2  0  0  0  0  0  0  0  0  0
    3.7730   57.3790   76.9080 C   0  0  1  0  0  0  0  0  0  0  0  0
    5.0500   56.7510   76.3020 C   0  0  0  0  0  0  0  0  0  0  0  0
    2.9720   57.9620   80.7570 C   0  0  0  0  0  0  0  0  0  0  0  0
    4.2590   60.4390   79.1070 C   0  0  0  0  0  0  0  0  0  0  0  0
    1.0120   62.7300   80.7070 C   0  0  0  0  0  0  0  0  0  0  0  0
    1.7920   62.4510   76.4100 C   0  0  0  0  0  0  0  0  0  0  0  0
    0.4710   55.5240   77.5000 C   0  0  0  0  0  0  0  0  0  0  0  0
    1.9540   55.4120   77.1810 C   0  0  0  0  0  0  0  0  0  0  0  0
    3.7490   58.7390   76.4180 O   0  0  0  0  0  0  0  0  0  0  0  0
    4.1140   56.1700   79.0260 O   0  0  0  0  0  0  0  0  0  0  0  0
    1.1350   60.2230   77.0740 O   0  0  0  0  0  0  0  0  0  0  0  0
    0.4160   60.2330   72.6440 O   0  0  0  0  0  0  0  0  0  0  0  0
    1.6710   60.5460   72.0260 C   0  0  2  0  0  0  0  0  0  0  0  0
    2.7080   60.5640   73.0040 O   0  0  0  0  0  0  0  0  0  0  0  0
    3.8390   61.3900   72.6870 C   0  0  1  0  0  0  0  0  0  0  0  0
    5.0530   60.7580   73.3590 C   0  0  0  0  0  0  0  0  0  0  0  0
    4.0290   61.5530   71.1710 C   0  0  1  0  0  0  0  0  0  0  0  0
    2.7940   62.2850   70.5670 C   0  0  2  0  0  0  0  0  0  0  0  0
    1.5170   61.8970   71.3380 C   0  0  0  0  0  0  0  0  0  0  0  0
    2.6930   61.9230   69.0770 C   0  0  0  0  0  0  0  0  0  0  0  0
    3.0590   63.6990   70.7380 O   0  0  0  0  0  0  0  0  0  0  0  0
    1.9370   64.5710   70.6540 C   0  0  0  0  0  0  0  0  0  0  0  0
    5.2250   62.2670   70.8630 O   0  0  0  0  0  0  0  0  0  0  0  0
   -1.5790   60.6510   76.6640 O   0  0  0  0  0  0  0  0  0  0  0  0
   -2.8160   60.6280   75.9270 C   0  0  2  0  0  0  0  0  0  0  0  0
   -3.5360   61.8310   76.1800 O   0  0  0  0  0  0  0  0  0  0  0  0
   -4.7650   61.9230   75.4500 C   0  0  2  0  0  0  0  0  0  0  0  0
   -5.3760   63.2860   75.7410 C   0  0  0  0  0  0  0  0  0  0  0  0
   -5.7130   60.7910   75.8680 C   0  0  0  0  0  0  0  0  0  0  0  0
   -4.9980   59.4620   75.6700 C   0  0  1  0  0  0  0  0  0  0  0  0
   -3.6530   59.4330   76.4180 C   0  0  1  0  0  0  0  0  0  0  0  0
   -5.8320   58.2400   76.0620 N   0  0  0  0  0  4  0  0  0  0  0  0
   -6.7020   57.7300   74.9430 C   0  0  0  0  0  0  0  0  0  0  0  0
   -6.5950   58.3290   77.3520 C   0  0  0  0  0  0  0  0  0  0  0  0
   -3.0340   58.1650   76.1720 O   0  0  0  0  0  0  0  0  0  0  0  0
    2.9611   56.1381   75.4543 H   0  0  0  0  0  0  0  0  0  0  0  0
   -0.5108   58.9244   75.4812 H   0  0  0  0  0  0  0  0  0  0  0  0
   -1.3745   57.2842   74.1913 H   0  0  0  0  0  0  0  0  0  0  0  0
   -1.3241   58.6155   72.9864 H   0  0  0  0  0  0  0  0  0  0  0  0
   -0.0441   57.3552   72.9864 H   0  0  0  0  0  0  0  0  0  0  0  0
    1.4429   60.4663   74.4953 H   0  0  0  0  0  0  0  0  0  0  0  0
   -1.5193   60.8418   74.3139 H   0  0  0  0  0  0  0  0  0  0  0  0
   -0.2652   63.4677   74.5257 H   0  0  0  0  0  0  0  0  0  0  0  0
    0.5216   62.5886   73.1712 H   0  0  0  0  0  0  0  0  0  0  0  0
   -1.2583   62.8308   73.1712 H   0  0  0  0  0  0  0  0  0  0  0  0
   -0.9298   62.6689   76.1401 H   0  0  0  0  0  0  0  0  0  0  0  0
   -0.0241   63.0504   78.3747 H   0  0  0  0  0  0  0  0  0  0  0  0
   -0.4010   61.2772   78.7754 H   0  0  0  0  0  0  0  0  0  0  0  0
    2.3742   62.3976   78.9789 H   0  0  0  0  0  0  0  0  0  0  0  0
    2.3044   60.6052   80.9190 H   0  0  0  0  0  0  0  0  0  0  0  0
    0.9557   59.9400   79.8478 H   0  0  0  0  0  0  0  0  0  0  0  0
    2.5985   59.9443   78.0463 H   0  0  0  0  0  0  0  0  0  0  0  0
    1.9030   57.9282   78.8444 H   0  0  0  0  0  0  0  0  0  0  0  0
    4.8772   58.0704   78.5621 H   0  0  0  0  0  0  0  0  0  0  0  0
    5.7173   56.4228   77.1125 H   0  0  0  0  0  0  0  0  0  0  0  0
    4.7741   55.8858   75.6813 H   0  0  0  0  0  0  0  0  0  0  0  0
    5.5668   57.4977   75.6813 H   0  0  0  0  0  0  0  0  0  0  0  0
    2.6703   58.8473   81.3360 H   0  0  0  0  0  0  0  0  0  0  0  0
    2.3105   57.1188   81.0049 H   0  0  0  0  0  0  0  0  0  0  0  0
    4.0108   57.6983   81.0049 H   0  0  0  0  0  0  0  0  0  0  0  0
    4.5415   60.5677   80.1623 H   0  0  0  0  0  0  0  0  0  0  0  0
    4.9898   59.7850   78.6089 H   0  0  0  0  0  0  0  0  0  0  0  0
    4.2453   61.4197   78.6089 H   0  0  0  0  0  0  0  0  0  0  0  0
    1.3400   62.1979   81.6121 H   0  0  0  0  0  0  0  0  0  0  0  0
    1.4434   63.7419   80.7000 H   0  0  0  0  0  0  0  0  0  0  0  0
   -0.0858   62.7993   80.7000 H   0  0  0  0  0  0  0  0  0  0  0  0
    2.3592   62.8953   77.2412 H   0  0  0  0  0  0  0  0  0  0  0  0
    2.4653   61.8375   75.7933 H   0  0  0  0  0  0  0  0  0  0  0  0
    1.3575   63.2515   75.7933 H   0  0  0  0  0  0  0  0  0  0  0  0
    0.3304   55.5346   78.5909 H   0  0  0  0  0  0  0  0  0  0  0  0
    0.0727   56.4548   77.0699 H   0  0  0  0  0  0  0  0  0  0  0  0
   -0.0626   54.6636   77.0699 H   0  0  0  0  0  0  0  0  0  0  0  0
    2.1143   54.4838   76.6129 H   0  0  0  0  0  0  0  0  0  0  0  0
    2.4834   55.4226   78.1451 H   0  0  0  0  0  0  0  0  0  0  0  0
    3.7379   59.3657   77.1843 H   0  0  0  0  0  0  0  0  0  0  0  0
    4.1057   56.2406   80.0134 H   0  0  0  0  0  0  0  0  0  0  0  0
    1.2201   59.9760   78.0289 H   0  0  0  0  0  0  0  0  0  0  0  0
    1.9494   59.7851   71.2820 H   0  0  0  0  0  0  0  0  0  0  0  0
    3.6860   62.4123   73.0632 H   0  0  0  0  0  0  0  0  0  0  0  0
    4.9395   60.8171   74.4515 H   0  0  0  0  0  0  0  0  0  0  0  0
    5.1329   59.7038   73.0551 H   0  0  0  0  0  0  0  0  0  0  0  0
    5.9624   61.2971   73.0551 H   0  0  0  0  0  0  0  0  0  0  0  0
    4.1197   60.5507   70.7270 H   0  0  0  0  0  0  0  0  0  0  0  0
    1.3112   62.6645   72.0987 H   0  0  0  0  0  0  0  0  0  0  0  0
    0.6870   61.8267   70.6195 H   0  0  0  0  0  0  0  0  0  0  0  0
    2.3987   60.8680   68.9751 H   0  0  0  0  0  0  0  0  0  0  0  0
    1.9389   62.5623   68.5946 H   0  0  0  0  0  0  0  0  0  0  0  0
    3.6691   62.0796   68.5946 H   0  0  0  0  0  0  0  0  0  0  0  0
    1.5997   64.8332   71.6676 H   0  0  0  0  0  0  0  0  0  0  0  0
    2.2233   65.4860   70.1147 H   0  0  0  0  0  0  0  0  0  0  0  0
    1.1210   64.0677   70.1147 H   0  0  0  0  0  0  0  0  0  0  0  0
    5.6747   62.5355   71.7031 H   0  0  0  0  0  0  0  0  0  0  0  0
   -2.6128   60.5381   74.8497 H   0  0  0  0  0  0  0  0  0  0  0  0
   -4.5860   61.8189   74.3697 H   0  0  0  0  0  0  0  0  0  0  0  0
   -5.4421   63.4334   76.8291 H   0  0  0  0  0  0  0  0  0  0  0  0
   -4.7442   64.0723   75.3021 H   0  0  0  0  0  0  0  0  0  0  0  0
   -6.3833   63.3375   75.3021 H   0  0  0  0  0  0  0  0  0  0  0  0
   -5.9883   60.9098   76.9263 H   0  0  0  0  0  0  0  0  0  0  0  0
   -6.6272   60.8210   75.2569 H   0  0  0  0  0  0  0  0  0  0  0  0
   -4.8229   59.3925   74.5862 H   0  0  0  0  0  0  0  0  0  0  0  0
   -3.7669   59.5336   77.5075 H   0  0  0  0  0  0  0  0  0  0  0  0
   -5.1015   57.5388   76.2508 H   0  0  0  0  0  0  0  0  0  0  0  0
   -7.5784   57.2163   75.3649 H   0  0  0  0  0  0  0  0  0  0  0  0
   -7.0357   58.5755   74.3235 H   0  0  0  0  0  0  0  0  0  0  0  0
   -6.1272   57.0258   74.3235 H   0  0  0  0  0  0  0  0  0  0  0  0
   -5.8963   58.2475   78.1977 H   0  0  0  0  0  0  0  0  0  0  0  0
   -7.1198   59.2945   77.4017 H   0  0  0  0  0  0  0  0  0  0  0  0
   -7.3279   57.5103   77.4017 H   0  0  0  0  0  0  0  0  0  0  0  0
   -2.8211   57.7288   77.0348 H   0  0  0  0  0  0  0  0  0  0  0  0
  2  1  1  0
  3  2  1  0
  4  3  2  0
  5  3  1  0
  6  5  1  0
  7  5  1  0
  8  7  1  0
  9  8  1  0
 10  8  1  0
 11 10  1  0
 12 11  1  0
 13 12  1  0
 14 13  1  0
 15 14  1  0
 16 15  1  0
 17 16  1  0
 18 17  1  0
 18  1  1  0
 19 18  1  0
 20 16  1  0
 21 15  1  0
 22 13  1  0
 23 11  1  0
 25  1  1  0
 25 24  1  0
 18 26  1  6
 27 17  1  0
 11 28  1  1
 29  7  1  0
 30 29  1  0
 31 30  1  0
 32 31  1  0
 33 32  1  0
 34 32  1  0
 35 34  1  0
 36 35  1  0
 36 30  1  0
 37 35  1  0
 35 38  1  6
 39 38  1  0
 40 34  1  0
 41 10  1  0
 42 41  1  0
 43 42  1  0
 44 43  1  0
 45 44  1  0
 46 44  1  0
 47 46  1  0
 48 47  1  0
 48 42  1  0
 49 47  1  0
 50 49  1  0
 51 49  1  0
 52 48  1  0
  1 53  1  6
  5 54  1  1
  6 55  1  0
  6 56  1  0
  6 57  1  0
  7 58  1  6
  8 59  1  6
  9 60  1  0
  9 61  1  0
  9 62  1  0
 10 63  1  6
 12 64  1  0
 12 65  1  0
 13 66  1  6
 14 67  1  0
 14 68  1  0
 15 69  1  6
 16 70  1  6
 17 71  1  6
 19 72  1  0
 19 73  1  0
 19 74  1  0
 20 75  1  0
 20 76  1  0
 20 77  1  0
 21 78  1  0
 21 79  1  0
 21 80  1  0
 22 81  1  0
 22 82  1  0
 22 83  1  0
 23 84  1  0
 23 85  1  0
 23 86  1  0
 24 87  1  0
 24 88  1  0
 24 89  1  0
 25 90  1  0
 25 91  1  0
 26 92  1  0
 27 93  1  0
 28 94  1  0
 30 95  1  6
 32 96  1  1
 33 97  1  0
 33 98  1  0
 33 99  1  0
 34100  1  6
 36101  1  0
 36102  1  0
 37103  1  0
 37104  1  0
 37105  1  0
 39106  1  0
 39107  1  0
 39108  1  0
 40109  1  0
 42110  1  6
 44111  1  6
 45112  1  0
 45113  1  0
 45114  1  0
 46115  1  0
 46116  1  0
 47117  1  6
 48118  1  1
 49119  1  0
 50120  1  0
 50121  1  0
 50122  1  0
 51123  1  0
 51124  1  0
 51125  1  0
 52126  1  0
M  CHG  2  15   1  49   1
M  END
>  <score>  (4) 
-6.755

$$$$
=
     RDKit          3D

126128  0  0  0  0  0  0  0  0999 V2000
   -0.4330   57.0430   74.1920 C   0  0  1  0  0  0  0  0  0  0  0  0
   -0.8890   58.2840   74.8060 O   0  0  0  0  0  0  0  0  0  0  0  0
   -0.7200   59.3900   74.0130 C   0  0  0  0  0  0  0  0  0  0  0  0
   -0.0760   59.3840   72.9710 O   0  0  0  0  0  0  0  0  0  0  0  0
   -1.4140   60.6070   74.5920 C   0  0  2  0  0  0  0  0  0  0  0  0
   -2.7070   60.8550   73.8200 C   0  0  0  0  0  0  0  0  0  0  0  0
   -0.4120   61.7910   74.5900 C   0  0  2  0  0  0  0  0  0  0  0  0
   -0.5500   62.7360   75.8270 C   0  0  2  0  0  0  0  0  0  0  0  0
    0.2310   64.0530   75.6410 C   0  0  0  0  0  0  0  0  0  0  0  0
   -0.2200   62.1410   77.2350 C   0  0  2  0  0  0  0  0  0  0  0  0
    0.9550   61.1050   77.3930 C   0  0  2  0  0  0  0  0  0  0  0  0
    1.1480   60.7670   78.8940 C   0  0  0  0  0  0  0  0  0  0  0  0
    2.2110   59.6940   79.2480 C   0  0  2  0  0  0  0  0  0  0  0  0
    1.7980   58.2460   78.9030 C   0  0  0  0  0  0  0  0  0  0  0  0
    2.0830   57.7950   77.4780 N   0  0  2  0  0  4  0  0  0  0  0  0
    1.2310   56.5530   77.0760 C   0  0  1  0  0  0  0  0  0  0  0  0
    1.5530   55.9630   75.6550 C   0  0  2  0  0  0  0  0  0  0  0  0
    1.1160   56.8170   74.4260 C   0  0  1  0  0  0  0  0  0  0  0  0
    1.7120   56.1750   73.1520 C   0  0  0  0  0  0  0  0  0  0  0  0
    1.3700   55.4550   78.1520 C   0  0  0  0  0  0  0  0  0  0  0  0
    3.5600   57.6540   77.2130 C   0  0  0  0  0  0  0  0  0  0  0  0
    2.4450   59.7640   80.7700 C   0  0  0  0  0  0  0  0  0  0  0  0
    2.2780   61.6020   76.8030 C   0  0  0  0  0  0  0  0  0  0  0  0
   -2.3800   56.4100   75.7510 C   0  0  0  0  0  0  0  0  0  0  0  0
   -1.4270   55.9620   74.6530 C   0  0  0  0  0  0  0  0  0  0  0  0
    1.7870   58.0910   74.5580 O   0  0  0  0  0  0  0  0  0  0  0  0
    1.0330   54.6320   75.5600 O   0  0  0  0  0  0  0  0  0  0  0  0
    0.5920   59.8730   76.7640 O   0  0  0  0  0  0  0  0  0  0  0  0
   -0.6530   62.6020   73.4250 O   0  0  0  0  0  0  0  0  0  0  0  0
    0.5370   63.0290   72.7490 C   0  0  2  0  0  0  0  0  0  0  0  0
    0.2280   64.0700   71.8250 O   0  0  0  0  0  0  0  0  0  0  0  0
    1.1280   64.1910   70.7110 C   0  0  1  0  0  0  0  0  0  0  0  0
    1.1330   65.6600   70.3030 C   0  0  0  0  0  0  0  0  0  0  0  0
    2.5340   63.6720   71.0450 C   0  0  1  0  0  0  0  0  0  0  0  0
    2.4660   62.1490   71.3640 C   0  0  2  0  0  0  0  0  0  0  0  0
    1.1290   61.8100   72.0520 C   0  0  0  0  0  0  0  0  0  0  0  0
    3.6710   61.7800   72.2430 C   0  0  0  0  0  0  0  0  0  0  0  0
    2.5390   61.4810   70.0800 O   0  0  0  0  0  0  0  0  0  0  0  0
    3.4400   60.3830   69.9860 C   0  0  0  0  0  0  0  0  0  0  0  0
    3.4520   63.9120   69.9790 O   0  0  0  0  0  0  0  0  0  0  0  0
   -1.4380   61.5070   77.7260 O   0  0  0  0  0  0  0  0  0  0  0  0
   -2.5840   62.3610   77.5460 C   0  0  2  0  0  0  0  0  0  0  0  0
   -2.4940   63.4640   78.4440 O   0  0  0  0  0  0  0  0  0  0  0  0
   -3.5700   64.3990   78.3070 C   0  0  2  0  0  0  0  0  0  0  0  0
   -3.2970   65.5610   79.2520 C   0  0  0  0  0  0  0  0  0  0  0  0
   -4.9050   63.7190   78.6370 C   0  0  0  0  0  0  0  0  0  0  0  0
   -5.0590   62.4950   77.7450 C   0  0  1  0  0  0  0  0  0  0  0  0
   -3.8500   61.5510   77.8760 C   0  0  1  0  0  0  0  0  0  0  0  0
   -6.3540   61.7120   77.9790 N   0  0  0  0  0  4  0  0  0  0  0  0
   -7.5920   62.4830   77.6050 C   0  0  0  0  0  0  0  0  0  0  0  0
   -6.5060   61.0440   79.3150 C   0  0  0  0  0  0  0  0  0  0  0  0
   -4.0580   60.4370   77.0000 O   0  0  0  0  0  0  0  0  0  0  0  0
   -0.4584   57.0351   73.0923 H   0  0  0  0  0  0  0  0  0  0  0  0
   -1.7164   60.4621   75.6396 H   0  0  0  0  0  0  0  0  0  0  0  0
   -3.5328   61.0134   74.5292 H   0  0  0  0  0  0  0  0  0  0  0  0
   -2.5909   61.7472   73.1872 H   0  0  0  0  0  0  0  0  0  0  0  0
   -2.9292   59.9831   73.1872 H   0  0  0  0  0  0  0  0  0  0  0  0
    0.5914   61.3407   74.6081 H   0  0  0  0  0  0  0  0  0  0  0  0
   -1.6356   62.9130   75.8428 H   0  0  0  0  0  0  0  0  0  0  0  0
    0.4805   64.4736   76.6263 H   0  0  0  0  0  0  0  0  0  0  0  0
    1.1573   63.8542   75.0820 H   0  0  0  0  0  0  0  0  0  0  0  0
   -0.3878   64.7704   75.0820 H   0  0  0  0  0  0  0  0  0  0  0  0
    0.1462   63.0105   77.8006 H   0  0  0  0  0  0  0  0  0  0  0  0
    1.4321   61.6967   79.4087 H   0  0  0  0  0  0  0  0  0  0  0  0
    0.1891   60.3320   79.2123 H   0  0  0  0  0  0  0  0  0  0  0  0
    3.1061   59.9179   78.6491 H   0  0  0  0  0  0  0  0  0  0  0  0
    2.3363   57.5706   79.5842 H   0  0  0  0  0  0  0  0  0  0  0  0
    0.7038   58.2147   79.0118 H   0  0  0  0  0  0  0  0  0  0  0  0
    1.7724   58.5445   76.8434 H   0  0  0  0  0  0  0  0  0  0  0  0
    0.1927   56.9108   77.0131 H   0  0  0  0  0  0  0  0  0  0  0  0
    2.6511   55.9712   75.5911 H   0  0  0  0  0  0  0  0  0  0  0  0
    2.4348   55.3965   73.4375 H   0  0  0  0  0  0  0  0  0  0  0  0
    0.9044   55.7248   72.5561 H   0  0  0  0  0  0  0  0  0  0  0  0
    2.2209   56.9470   72.5561 H   0  0  0  0  0  0  0  0  0  0  0  0
    1.3122   55.9114   79.1512 H   0  0  0  0  0  0  0  0  0  0  0  0
    0.5574   54.7228   78.0358 H   0  0  0  0  0  0  0  0  0  0  0  0
    2.3394   54.9484   78.0358 H   0  0  0  0  0  0  0  0  0  0  0  0
    4.1008   57.6024   78.1695 H   0  0  0  0  0  0  0  0  0  0  0  0
    3.7432   56.7343   76.6381 H   0  0  0  0  0  0  0  0  0  0  0  0
    3.9139   58.5224   76.6381 H   0  0  0  0  0  0  0  0  0  0  0  0
    1.5196   59.4872   81.2964 H   0  0  0  0  0  0  0  0  0  0  0  0
    3.2486   59.0669   81.0499 H   0  0  0  0  0  0  0  0  0  0  0  0
    2.7338   60.7879   81.0499 H   0  0  0  0  0  0  0  0  0  0  0  0
    2.9688   61.8615   77.6188 H   0  0  0  0  0  0  0  0  0  0  0  0
    2.7236   60.8100   76.1832 H   0  0  0  0  0  0  0  0  0  0  0  0
    2.0919   62.4915   76.1832 H   0  0  0  0  0  0  0  0  0  0  0  0
   -1.9323   56.1995   76.7335 H   0  0  0  0  0  0  0  0  0  0  0  0
   -2.5663   57.4900   75.6567 H   0  0  0  0  0  0  0  0  0  0  0  0
   -3.3305   55.8644   75.6567 H   0  0  0  0  0  0  0  0  0  0  0  0
   -2.0255   55.6520   73.7837 H   0  0  0  0  0  0  0  0  0  0  0  0
   -0.8259   55.1429   75.0747 H   0  0  0  0  0  0  0  0  0  0  0  0
    1.9004   58.3064   75.5176 H   0  0  0  0  0  0  0  0  0  0  0  0
    0.8906   54.2676   76.4694 H   0  0  0  0  0  0  0  0  0  0  0  0
    0.3922   59.1949   77.4571 H   0  0  0  0  0  0  0  0  0  0  0  0
    1.2721   63.4396   73.4569 H   0  0  0  0  0  0  0  0  0  0  0  0
    0.7894   63.5648   69.8724 H   0  0  0  0  0  0  0  0  0  0  0  0
    1.1351   66.2908   71.2041 H   0  0  0  0  0  0  0  0  0  0  0  0
    2.0319   65.8715   69.7052 H   0  0  0  0  0  0  0  0  0  0  0  0
    0.2356   65.8776   69.7052 H   0  0  0  0  0  0  0  0  0  0  0  0
    2.9006   64.2191   71.9261 H   0  0  0  0  0  0  0  0  0  0  0  0
    0.4175   61.4506   71.2939 H   0  0  0  0  0  0  0  0  0  0  0  0
    1.3166   61.0352   72.8100 H   0  0  0  0  0  0  0  0  0  0  0  0
    3.3913   61.8657   73.3034 H   0  0  0  0  0  0  0  0  0  0  0  0
    3.9792   60.7463   72.0275 H   0  0  0  0  0  0  0  0  0  0  0  0
    4.5052   62.4639   72.0275 H   0  0  0  0  0  0  0  0  0  0  0  0
    3.7155   60.0472   70.9966 H   0  0  0  0  0  0  0  0  0  0  0  0
    2.9561   59.5569   69.4444 H   0  0  0  0  0  0  0  0  0  0  0  0
    4.3447   60.6964   69.4444 H   0  0  0  0  0  0  0  0  0  0  0  0
    4.3388   64.1438   70.3531 H   0  0  0  0  0  0  0  0  0  0  0  0
   -2.6224   62.7298   76.5104 H   0  0  0  0  0  0  0  0  0  0  0  0
   -3.6371   64.7685   77.2731 H   0  0  0  0  0  0  0  0  0  0  0  0
   -3.3785   65.2142   80.2927 H   0  0  0  0  0  0  0  0  0  0  0  0
   -2.2833   65.9488   79.0730 H   0  0  0  0  0  0  0  0  0  0  0  0
   -4.0320   66.3596   79.0730 H   0  0  0  0  0  0  0  0  0  0  0  0
   -4.9134   63.4115   79.6931 H   0  0  0  0  0  0  0  0  0  0  0  0
   -5.7363   64.4181   78.4633 H   0  0  0  0  0  0  0  0  0  0  0  0
   -5.1097   62.8934   76.7209 H   0  0  0  0  0  0  0  0  0  0  0  0
   -3.7298   61.1474   78.8922 H   0  0  0  0  0  0  0  0  0  0  0  0
   -6.2487   60.9292   77.3178 H   0  0  0  0  0  0  0  0  0  0  0  0
   -8.1122   62.8069   78.5185 H   0  0  0  0  0  0  0  0  0  0  0  0
   -7.3094   63.3651   77.0116 H   0  0  0  0  0  0  0  0  0  0  0  0
   -8.2590   61.8403   77.0116 H   0  0  0  0  0  0  0  0  0  0  0  0
   -6.3384   61.7807   80.1145 H   0  0  0  0  0  0  0  0  0  0  0  0
   -7.5213   60.6302   79.4047 H   0  0  0  0  0  0  0  0  0  0  0  0
   -5.7697   60.2317   79.4047 H   0  0  0  0  0  0  0  0  0  0  0  0
   -4.2107   59.6192   77.5367 H   0  0  0  0  0  0  0  0  0  0  0  0
  2  1  1  0
  3  2  1  0
  4  3  2  0
  5  3  1  0
  6  5  1  0
  7  5  1  0
  8  7  1  0
  9  8  1  0
 10  8  1  0
 11 10  1  0
 12 11  1  0
 13 12  1  0
 14 13  1  0
 15 14  1  0
 16 15  1  0
 17 16  1  0
 18 17  1  0
 18  1  1  0
 19 18  1  0
 20 16  1  0
 21 15  1  0
 22 13  1  0
 23 11  1  0
 25  1  1  0
 25 24  1  0
 18 26  1  1
 27 17  1  0
 11 28  1  6
 29  7  1  0
 30 29  1  0
 31 30  1  0
 32 31  1  0
 33 32  1  0
 34 32  1  0
 35 34  1  0
 36 35  1  0
 36 30  1  0
 37 35  1  0
 35 38  1  6
 39 38  1  0
 40 34  1  0
 41 10  1  0
 42 41  1  0
 43 42  1  0
 44 43  1  0
 45 44  1  0
 46 44  1  0
 47 46  1  0
 48 47  1  0
 48 42  1  0
 49 47  1  0
 50 49  1  0
 51 49  1  0
 52 48  1  0
  1 53  1  6
  5 54  1  1
  6 55  1  0
  6 56  1  0
  6 57  1  0
  7 58  1  6
  8 59  1  1
  9 60  1  0
  9 61  1  0
  9 62  1  0
 10 63  1  1
 12 64  1  0
 12 65  1  0
 13 66  1  6
 14 67  1  0
 14 68  1  0
 15 69  1  6
 16 70  1  6
 17 71  1  1
 19 72  1  0
 19 73  1  0
 19 74  1  0
 20 75  1  0
 20 76  1  0
 20 77  1  0
 21 78  1  0
 21 79  1  0
 21 80  1  0
 22 81  1  0
 22 82  1  0
 22 83  1  0
 23 84  1  0
 23 85  1  0
 23 86  1  0
 24 87  1  0
 24 88  1  0
 24 89  1  0
 25 90  1  0
 25 91  1  0
 26 92  1  0
 27 93  1  0
 28 94  1  0
 30 95  1  1
 32 96  1  6
 33 97  1  0
 33 98  1  0
 33 99  1  0
 34100  1  1
 36101  1  0
 36102  1  0
 37103  1  0
 37104  1  0
 37105  1  0
 39106  1  0
 39107  1  0
 39108  1  0
 40109  1  0
 42110  1  6
 44111  1  6
 45112  1  0
 45113  1  0
 45114  1  0
 46115  1  0
 46116  1  0
 47117  1  6
 48118  1  1
 49119  1  0
 50120  1  0
 50121  1  0
 50122  1  0
 51123  1  0
 51124  1  0
 51125  1  0
 52126  1  0
M  CHG  2  15   1  49   1
M  END
>  <score>  (5) 
-6.678

$$$$
=
     RDKit          3D

126128  0  0  0  0  0  0  0  0999 V2000
   -1.1160   56.4000   74.7810 C   0  0  1  0  0  0  0  0  0  0  0  0
   -1.1820   57.8150   75.1290 O   0  0  0  0  0  0  0  0  0  0  0  0
   -0.7340   58.6500   74.1380 C   0  0  0  0  0  0  0  0  0  0  0  0
   -0.1530   58.2590   73.1340 O   0  0  0  0  0  0  0  0  0  0  0  0
   -1.0360   60.1030   74.4510 C   0  0  2  0  0  0  0  0  0  0  0  0
   -2.2320   60.5520   73.6150 C   0  0  0  0  0  0  0  0  0  0  0  0
    0.2580   60.9310   74.2390 C   0  0  2  0  0  0  0  0  0  0  0  0
    0.4340   62.0980   75.2630 C   0  0  2  0  0  0  0  0  0  0  0  0
    1.5480   63.0770   74.8410 C   0  0  0  0  0  0  0  0  0  0  0  0
    0.6290   61.7210   76.7690 C   0  0  2  0  0  0  0  0  0  0  0  0
    1.4690   60.4450   77.1540 C   0  0  2  0  0  0  0  0  0  0  0  0
    1.6080   60.3660   78.6970 C   0  0  0  0  0  0  0  0  0  0  0  0
    2.3370   59.1270   79.2800 C   0  0  2  0  0  0  0  0  0  0  0  0
    1.5200   57.8170   79.2160 C   0  0  0  0  0  0  0  0  0  0  0  0
    1.6180   57.0350   77.9150 N   0  0  2  0  0  4  0  0  0  0  0  0
    0.4380   56.0310   77.7440 C   0  0  1  0  0  0  0  0  0  0  0  0
    0.5330   55.1090   76.4750 C   0  0  2  0  0  0  0  0  0  0  0  0
    0.3130   55.7950   75.0920 C   0  0  1  0  0  0  0  0  0  0  0  0
    0.6610   54.7750   73.9840 C   0  0  0  0  0  0  0  0  0  0  0  0
    0.2960   55.1710   79.0180 C   0  0  0  0  0  0  0  0  0  0  0  0
    2.9860   56.4320   77.7180 C   0  0  0  0  0  0  0  0  0  0  0  0
    2.6310   59.4230   80.7630 C   0  0  0  0  0  0  0  0  0  0  0  0
    2.8570   60.4230   76.5100 C   0  0  0  0  0  0  0  0  0  0  0  0
   -3.0660   56.6340   76.4440 C   0  0  0  0  0  0  0  0  0  0  0  0
   -2.3590   55.7570   75.4220 C   0  0  0  0  0  0  0  0  0  0  0  0
    1.3210   56.8270   74.9880 O   0  0  0  0  0  0  0  0  0  0  0  0
   -0.3450   53.9880   76.6300 O   0  0  0  0  0  0  0  0  0  0  0  0
    0.7510   59.2690   76.7710 O   0  0  0  0  0  0  0  0  0  0  0  0
    0.2180   61.5330   72.9330 O   0  0  0  0  0  0  0  0  0  0  0  0
    1.1450   60.9700   71.9960 C   0  0  2  0  0  0  0  0  0  0  0  0
    1.8360   59.8730   72.5910 O   0  0  0  0  0  0  0  0  0  0  0  0
    3.1350   59.5940   72.0430 C   0  0  1  0  0  0  0  0  0  0  0  0
    3.3740   58.0970   72.2090 C   0  0  0  0  0  0  0  0  0  0  0  0
    3.2550   60.0480   70.5800 C   0  0  1  0  0  0  0  0  0  0  0  0
    3.0910   61.5950   70.4990 C   0  0  2  0  0  0  0  0  0  0  0  0
    2.1010   62.0810   71.5760 C   0  0  0  0  0  0  0  0  0  0  0  0
    2.6180   61.9610   69.0830 C   0  0  0  0  0  0  0  0  0  0  0  0
    4.4070   62.1390   70.7620 O   0  0  0  0  0  0  0  0  0  0  0  0
    4.5550   63.5470   70.6080 C   0  0  0  0  0  0  0  0  0  0  0  0
    4.5010   59.6540   70.0070 O   0  0  0  0  0  0  0  0  0  0  0  0
   -0.7010   61.5660   77.3450 O   0  0  0  0  0  0  0  0  0  0  0  0
   -1.3150   62.8440   77.5980 C   0  0  2  0  0  0  0  0  0  0  0  0
   -1.1420   63.1850   78.9710 O   0  0  0  0  0  0  0  0  0  0  0  0
   -1.6800   64.4690   79.3110 C   0  0  2  0  0  0  0  0  0  0  0  0
   -1.3430   64.7400   80.7700 C   0  0  0  0  0  0  0  0  0  0  0  0
   -3.1980   64.4800   79.0820 C   0  0  0  0  0  0  0  0  0  0  0  0
   -3.4740   64.0790   77.6400 C   0  0  1  0  0  0  0  0  0  0  0  0
   -2.8210   62.7270   77.3000 C   0  0  1  0  0  0  0  0  0  0  0  0
   -4.9600   64.0400   77.2760 N   0  0  0  0  0  4  0  0  0  0  0  0
   -5.2930   64.8410   76.0450 C   0  0  0  0  0  0  0  0  0  0  0  0
   -5.9330   64.3120   78.3860 C   0  0  0  0  0  0  0  0  0  0  0  0
   -3.1080   62.4260   75.9300 O   0  0  0  0  0  0  0  0  0  0  0  0
   -1.1794   56.1849   73.7041 H   0  0  0  0  0  0  0  0  0  0  0  0
   -1.3306   60.2561   75.4997 H   0  0  0  0  0  0  0  0  0  0  0  0
   -3.0509   60.8594   74.2820 H   0  0  0  0  0  0  0  0  0  0  0  0
   -1.9377   61.4009   72.9803 H   0  0  0  0  0  0  0  0  0  0  0  0
   -2.5691   59.7192   72.9803 H   0  0  0  0  0  0  0  0  0  0  0  0
    1.0935   60.2272   74.3680 H   0  0  0  0  0  0  0  0  0  0  0  0
   -0.5567   62.5740   75.2179 H   0  0  0  0  0  0  0  0  0  0  0  0
    2.0261   63.4972   75.7381 H   0  0  0  0  0  0  0  0  0  0  0  0
    2.2992   62.5415   74.2419 H   0  0  0  0  0  0  0  0  0  0  0  0
    1.1134   63.8908   74.2419 H   0  0  0  0  0  0  0  0  0  0  0  0
    1.2432   62.5442   77.1627 H   0  0  0  0  0  0  0  0  0  0  0  0
    2.1590   61.2594   79.0259 H   0  0  0  0  0  0  0  0  0  0  0  0
    0.5764   60.2906   79.0714 H   0  0  0  0  0  0  0  0  0  0  0  0
    3.2390   58.9673   78.6710 H   0  0  0  0  0  0  0  0  0  0  0  0
    1.8678   57.1630   80.0292 H   0  0  0  0  0  0  0  0  0  0  0  0
    0.4659   58.1194   79.3025 H   0  0  0  0  0  0  0  0  0  0  0  0
    1.5098   57.7036   77.1390 H   0  0  0  0  0  0  0  0  0  0  0  0
   -0.4585   56.6486   77.5864 H   0  0  0  0  0  0  0  0  0  0  0  0
    1.5861   54.7935   76.4377 H   0  0  0  0  0  0  0  0  0  0  0  0
    0.9836   53.8294   74.4443 H   0  0  0  0  0  0  0  0  0  0  0  0
   -0.2265   54.5948   73.3596 H   0  0  0  0  0  0  0  0  0  0  0  0
    1.4736   55.1748   73.3596 H   0  0  0  0  0  0  0  0  0  0  0  0
    0.4017   55.8112   79.9062 H   0  0  0  0  0  0  0  0  0  0  0  0
   -0.6936   54.6908   79.0278 H   0  0  0  0  0  0  0  0  0  0  0  0
    1.0787   54.3982   79.0278 H   0  0  0  0  0  0  0  0  0  0  0  0
    3.4426   56.2307   78.6983 H   0  0  0  0  0  0  0  0  0  0  0  0
    2.8944   55.4909   77.1560 H   0  0  0  0  0  0  0  0  0  0  0  0
    3.6189   57.1345   77.1560 H   0  0  0  0  0  0  0  0  0  0  0  0
    1.9974   58.7851   81.3968 H   0  0  0  0  0  0  0  0  0  0  0  0
    3.6900   59.2147   80.9755 H   0  0  0  0  0  0  0  0  0  0  0  0
    2.4155   60.4805   80.9755 H   0  0  0  0  0  0  0  0  0  0  0  0
    3.6260   60.4108   77.2965 H   0  0  0  0  0  0  0  0  0  0  0  0
    2.9571   59.5232   75.8853 H   0  0  0  0  0  0  0  0  0  0  0  0
    2.9856   61.3192   75.8853 H   0  0  0  0  0  0  0  0  0  0  0  0
   -2.7991   56.3029   77.4585 H   0  0  0  0  0  0  0  0  0  0  0  0
   -2.7559   57.6804   76.3063 H   0  0  0  0  0  0  0  0  0  0  0  0
   -4.1543   56.5530   76.3063 H   0  0  0  0  0  0  0  0  0  0  0  0
   -3.0740   55.5180   74.6210 H   0  0  0  0  0  0  0  0  0  0  0  0
   -2.0069   54.8667   75.9636 H   0  0  0  0  0  0  0  0  0  0  0  0
    1.5979   57.1105   75.8952 H   0  0  0  0  0  0  0  0  0  0  0  0
   -0.4850   53.8092   77.5936 H   0  0  0  0  0  0  0  0  0  0  0  0
    0.4551   58.7843   77.5819 H   0  0  0  0  0  0  0  0  0  0  0  0
    0.6268   60.5769   71.1089 H   0  0  0  0  0  0  0  0  0  0  0  0
    3.9094   60.1635   72.5778 H   0  0  0  0  0  0  0  0  0  0  0  0
    3.4137   57.8486   73.2798 H   0  0  0  0  0  0  0  0  0  0  0  0
    2.5534   57.5397   71.7334 H   0  0  0  0  0  0  0  0  0  0  0  0
    4.3273   57.8229   71.7334 H   0  0  0  0  0  0  0  0  0  0  0  0
    2.4561   59.5599   70.0026 H   0  0  0  0  0  0  0  0  0  0  0  0
    2.6674   62.4175   72.4569 H   0  0  0  0  0  0  0  0  0  0  0  0
    1.5084   62.9060   71.1539 H   0  0  0  0  0  0  0  0  0  0  0  0
    1.7496   62.6330   69.1487 H   0  0  0  0  0  0  0  0  0  0  0  0
    3.4326   62.4663   68.5435 H   0  0  0  0  0  0  0  0  0  0  0  0
    2.3333   61.0457   68.5435 H   0  0  0  0  0  0  0  0  0  0  0  0
    4.6048   64.0210   71.5994 H   0  0  0  0  0  0  0  0  0  0  0  0
    5.4805   63.7599   70.0528 H   0  0  0  0  0  0  0  0  0  0  0  0
    3.6940   63.9476   70.0528 H   0  0  0  0  0  0  0  0  0  0  0  0
    5.1465   59.4499   70.7293 H   0  0  0  0  0  0  0  0  0  0  0  0
   -0.8557   63.6167   76.9640 H   0  0  0  0  0  0  0  0  0  0  0  0
   -1.2459   65.2562   78.6771 H   0  0  0  0  0  0  0  0  0  0  0  0
   -2.0367   64.1822   81.4163 H   0  0  0  0  0  0  0  0  0  0  0  0
   -0.3115   64.4169   80.9742 H   0  0  0  0  0  0  0  0  0  0  0  0
   -1.4372   65.8168   80.9742 H   0  0  0  0  0  0  0  0  0  0  0  0
   -3.6810   63.7652   79.7644 H   0  0  0  0  0  0  0  0  0  0  0  0
   -3.6003   65.4852   79.2763 H   0  0  0  0  0  0  0  0  0  0  0  0
   -3.0195   64.8752   77.0322 H   0  0  0  0  0  0  0  0  0  0  0  0
   -3.2153   61.8972   77.9050 H   0  0  0  0  0  0  0  0  0  0  0  0
   -5.0972   63.0423   77.0599 H   0  0  0  0  0  0  0  0  0  0  0  0
   -5.6995   65.8188   76.3427 H   0  0  0  0  0  0  0  0  0  0  0  0
   -4.3820   64.9894   75.4466 H   0  0  0  0  0  0  0  0  0  0  0  0
   -6.0407   64.2999   75.4466 H   0  0  0  0  0  0  0  0  0  0  0  0
   -5.4320   64.1720   79.3552 H   0  0  0  0  0  0  0  0  0  0  0  0
   -6.2982   65.3467   78.3081 H   0  0  0  0  0  0  0  0  0  0  0  0
   -6.7818   63.6167   78.3081 H   0  0  0  0  0  0  0  0  0  0  0  0
   -3.7905   61.7102   75.8854 H   0  0  0  0  0  0  0  0  0  0  0  0
  2  1  1  0
  3  2  1  0
  4  3  2  0
  5  3  1  0
  6  5  1  0
  7  5  1  0
  8  7  1  0
  9  8  1  0
 10  8  1  0
 11 10  1  0
 12 11  1  0
 13 12  1  0
 14 13  1  0
 15 14  1  0
 16 15  1  0
 17 16  1  0
 18 17  1  0
 18  1  1  0
 19 18  1  0
 20 16  1  0
 21 15  1  0
 22 13  1  0
 23 11  1  0
 25  1  1  0
 25 24  1  0
 18 26  1  1
 27 17  1  0
 11 28  1  6
 29  7  1  0
 30 29  1  0
 31 30  1  0
 32 31  1  0
 33 32  1  0
 34 32  1  0
 35 34  1  0
 36 35  1  0
 36 30  1  0
 37 35  1  0
 35 38  1  1
 39 38  1  0
 40 34  1  0
 41 10  1  0
 42 41  1  0
 43 42  1  0
 44 43  1  0
 45 44  1  0
 46 44  1  0
 47 46  1  0
 48 47  1  0
 48 42  1  0
 49 47  1  0
 50 49  1  0
 51 49  1  0
 52 48  1  0
  1 53  1  6
  5 54  1  1
  6 55  1  0
  6 56  1  0
  6 57  1  0
  7 58  1  6
  8 59  1  1
  9 60  1  0
  9 61  1  0
  9 62  1  0
 10 63  1  1
 12 64  1  0
 12 65  1  0
 13 66  1  6
 14 67  1  0
 14 68  1  0
 15 69  1  6
 16 70  1  6
 17 71  1  6
 19 72  1  0
 19 73  1  0
 19 74  1  0
 20 75  1  0
 20 76  1  0
 20 77  1  0
 21 78  1  0
 21 79  1  0
 21 80  1  0
 22 81  1  0
 22 82  1  0
 22 83  1  0
 23 84  1  0
 23 85  1  0
 23 86  1  0
 24 87  1  0
 24 88  1  0
 24 89  1  0
 25 90  1  0
 25 91  1  0
 26 92  1  0
 27 93  1  0
 28 94  1  0
 30 95  1  6
 32 96  1  1
 33 97  1  0
 33 98  1  0
 33 99  1  0
 34100  1  6
 36101  1  0
 36102  1  0
 37103  1  0
 37104  1  0
 37105  1  0
 39106  1  0
 39107  1  0
 39108  1  0
 40109  1  0
 42110  1  6
 44111  1  6
 45112  1  0
 45113  1  0
 45114  1  0
 46115  1  0
 46116  1  0
 47117  1  6
 48118  1  1
 49119  1  0
 50120  1  0
 50121  1  0
 50122  1  0
 51123  1  0
 51124  1  0
 51125  1  0
 52126  1  0
M  CHG  2  15   1  49   1
M  END
>  <score>  (6) 
-6.55

$$$$
=
     RDKit          3D

126128  0  0  0  0  0  0  0  0999 V2000
    2.4490   61.5220   72.6900 C   0  0  1  0  0  0  0  0  0  0  0  0
    1.1690   61.5880   73.3850 O   0  0  0  0  0  0  0  0  0  0  0  0
    1.1960   62.3460   74.5270 C   0  0  0  0  0  0  0  0  0  0  0  0
    2.2270   62.7720   75.0330 O   0  0  0  0  0  0  0  0  0  0  0  0
   -0.1960   62.5740   75.0830 C   0  0  2  0  0  0  0  0  0  0  0  0
   -0.6420   63.9920   74.7370 C   0  0  0  0  0  0  0  0  0  0  0  0
   -0.1810   62.2430   76.5990 C   0  0  2  0  0  0  0  0  0  0  0  0
   -1.4950   61.5720   77.1100 C   0  0  2  0  0  0  0  0  0  0  0  0
   -1.5700   61.5440   78.6500 C   0  0  0  0  0  0  0  0  0  0  0  0
   -1.8510   60.1540   76.5550 C   0  0  2  0  0  0  0  0  0  0  0  0
   -0.7050   59.1090   76.2830 C   0  0  2  0  0  0  0  0  0  0  0  0
   -1.3300   57.7560   75.8550 C   0  0  0  0  0  0  0  0  0  0  0  0
   -0.3540   56.6170   75.4600 C   0  0  2  0  0  0  0  0  0  0  0  0
    0.3360   56.8120   74.0910 C   0  0  0  0  0  0  0  0  0  0  0  0
    1.6050   57.6500   74.1000 N   0  0  2  0  0  4  0  0  0  0  0  0
    1.9580   58.1920   72.6810 C   0  0  1  0  0  0  0  0  0  0  0  0
    3.3180   58.9750   72.5920 C   0  0  2  0  0  0  0  0  0  0  0  0
    3.3670   60.3750   73.2780 C   0  0  1  0  0  0  0  0  0  0  0  0
    4.8320   60.8700   73.2650 C   0  0  0  0  0  0  0  0  0  0  0  0
    1.9420   57.0350   71.6610 C   0  0  0  0  0  0  0  0  0  0  0  0
    2.7410   56.9510   74.8020 C   0  0  0  0  0  0  0  0  0  0  0  0
   -1.1730   55.3130   75.3910 C   0  0  0  0  0  0  0  0  0  0  0  0
    0.2120   58.8940   77.4900 C   0  0  0  0  0  0  0  0  0  0  0  0
    1.5000   62.8120   70.6760 C   0  0  0  0  0  0  0  0  0  0  0  0
    2.1060   61.5160   71.1900 C   0  0  0  0  0  0  0  0  0  0  0  0
    3.0530   60.1550   74.6720 O   0  0  0  0  0  0  0  0  0  0  0  0
    3.7300   59.0650   71.2240 O   0  0  0  0  0  0  0  0  0  0  0  0
    0.0790   59.5420   75.1670 O   0  0  0  0  0  0  0  0  0  0  0  0
   -0.0280   63.4670   77.3400 O   0  0  0  0  0  0  0  0  0  0  0  0
    0.9420   63.4000   78.3930 C   0  0  2  0  0  0  0  0  0  0  0  0
    1.8410   64.5030   78.3020 O   0  0  0  0  0  0  0  0  0  0  0  0
    3.1420   64.2840   78.8690 C   0  0  1  0  0  0  0  0  0  0  0  0
    3.6490   65.6390   79.3530 C   0  0  0  0  0  0  0  0  0  0  0  0
    3.1160   63.2360   79.9910 C   0  0  1  0  0  0  0  0  0  0  0  0
    2.6780   61.8590   79.4070 C   0  0  2  0  0  0  0  0  0  0  0  0
    1.6670   62.0660   78.2620 C   0  0  0  0  0  0  0  0  0  0  0  0
    2.0860   61.0130   80.5460 C   0  0  0  0  0  0  0  0  0  0  0  0
    3.8880   61.2550   78.8890 O   0  0  0  0  0  0  0  0  0  0  0  0
    3.8010   59.8860   78.5070 C   0  0  0  0  0  0  0  0  0  0  0  0
    4.3850   63.1170   80.6330 O   0  0  0  0  0  0  0  0  0  0  0  0
   -2.5740   60.3540   75.3050 O   0  0  0  0  0  0  0  0  0  0  0  0
   -3.9970   60.2530   75.5000 C   0  0  2  0  0  0  0  0  0  0  0  0
   -4.4960   59.1410   74.7620 O   0  0  0  0  0  0  0  0  0  0  0  0
   -5.9030   58.9300   74.9310 C   0  0  2  0  0  0  0  0  0  0  0  0
   -6.2760   57.6660   74.1690 C   0  0  0  0  0  0  0  0  0  0  0  0
   -6.6850   60.1420   74.4080 C   0  0  0  0  0  0  0  0  0  0  0  0
   -6.1770   61.3890   75.1190 C   0  0  1  0  0  0  0  0  0  0  0  0
   -4.6530   61.5400   74.9660 C   0  0  1  0  0  0  0  0  0  0  0  0
   -6.8700   62.6820   74.6810 N   0  0  0  0  0  4  0  0  0  0  0  0
   -7.3620   63.5140   75.8370 C   0  0  0  0  0  0  0  0  0  0  0  0
   -7.9150   62.5580   73.6100 C   0  0  0  0  0  0  0  0  0  0  0  0
   -4.2490   62.7190   75.6710 O   0  0  0  0  0  0  0  0  0  0  0  0
    3.1085   62.3877   72.8503 H   0  0  0  0  0  0  0  0  0  0  0  0
   -0.9452   61.9075   74.6309 H   0  0  0  0  0  0  0  0  0  0  0  0
   -0.8197   64.5569   75.6640 H   0  0  0  0  0  0  0  0  0  0  0  0
    0.1429   64.4900   74.1488 H   0  0  0  0  0  0  0  0  0  0  0  0
   -1.5706   63.9511   74.1488 H   0  0  0  0  0  0  0  0  0  0  0  0
    0.6487   61.5366   76.7491 H   0  0  0  0  0  0  0  0  0  0  0  0
   -2.2576   62.2400   76.6831 H   0  0  0  0  0  0  0  0  0  0  0  0
   -0.6176   61.8996   79.0700 H   0  0  0  0  0  0  0  0  0  0  0  0
   -2.3871   62.1976   78.9893 H   0  0  0  0  0  0  0  0  0  0  0  0
   -1.7588   60.5148   78.9893 H   0  0  0  0  0  0  0  0  0  0  0  0
   -2.4120   59.6897   77.3794 H   0  0  0  0  0  0  0  0  0  0  0  0
   -1.9396   57.3926   76.6954 H   0  0  0  0  0  0  0  0  0  0  0  0
   -1.8899   57.9809   74.9353 H   0  0  0  0  0  0  0  0  0  0  0  0
    0.4448   56.6008   76.2161 H   0  0  0  0  0  0  0  0  0  0  0  0
    0.5920   55.8170   73.6979 H   0  0  0  0  0  0  0  0  0  0  0  0
   -0.3833   57.3679   73.4717 H   0  0  0  0  0  0  0  0  0  0  0  0
    1.4217   58.4902   74.6668 H   0  0  0  0  0  0  0  0  0  0  0  0
    1.1808   58.9333   72.4435 H   0  0  0  0  0  0  0  0  0  0  0  0
    4.0245   58.3769   73.1862 H   0  0  0  0  0  0  0  0  0  0  0  0
    5.1876   60.9902   74.2990 H   0  0  0  0  0  0  0  0  0  0  0  0
    5.4627   60.1351   72.7434 H   0  0  0  0  0  0  0  0  0  0  0  0
    4.8877   61.8369   72.7434 H   0  0  0  0  0  0  0  0  0  0  0  0
    1.9287   56.0742   72.1965 H   0  0  0  0  0  0  0  0  0  0  0  0
    1.0449   57.1153   71.0295 H   0  0  0  0  0  0  0  0  0  0  0  0
    2.8410   57.0904   71.0295 H   0  0  0  0  0  0  0  0  0  0  0  0
    2.6060   57.0341   75.8905 H   0  0  0  0  0  0  0  0  0  0  0  0
    2.7524   55.8895   74.5139 H   0  0  0  0  0  0  0  0  0  0  0  0
    3.6937   57.4193   74.5139 H   0  0  0  0  0  0  0  0  0  0  0  0
   -1.3925   54.9635   76.4106 H   0  0  0  0  0  0  0  0  0  0  0  0
   -2.1161   55.5002   74.8566 H   0  0  0  0  0  0  0  0  0  0  0  0
   -0.5949   54.5448   74.8566 H   0  0  0  0  0  0  0  0  0  0  0  0
   -0.3644   59.0291   78.4171 H   0  0  0  0  0  0  0  0  0  0  0  0
    0.6246   57.8748   77.4601 H   0  0  0  0  0  0  0  0  0  0  0  0
    1.0347   59.6236   77.4601 H   0  0  0  0  0  0  0  0  0  0  0  0
    1.2053   63.4422   71.5280 H   0  0  0  0  0  0  0  0  0  0  0  0
    2.2417   63.3462   70.0640 H   0  0  0  0  0  0  0  0  0  0  0  0
    0.6145   62.5853   70.0640 H   0  0  0  0  0  0  0  0  0  0  0  0
    3.0309   61.3223   70.6270 H   0  0  0  0  0  0  0  0  0  0  0  0
    1.3436   60.7361   71.0469 H   0  0  0  0  0  0  0  0  0  0  0  0
    3.7184   60.6212   75.2377 H   0  0  0  0  0  0  0  0  0  0  0  0
    4.6964   59.2761   71.1836 H   0  0  0  0  0  0  0  0  0  0  0  0
    0.8970   59.9938   75.4938 H   0  0  0  0  0  0  0  0  0  0  0  0
    0.4623   63.4615   79.3810 H   0  0  0  0  0  0  0  0  0  0  0  0
    3.8254   63.8695   78.1133 H   0  0  0  0  0  0  0  0  0  0  0  0
    3.6556   65.6565   80.4528 H   0  0  0  0  0  0  0  0  0  0  0  0
    4.6697   65.8040   78.9776 H   0  0  0  0  0  0  0  0  0  0  0  0
    2.9873   66.4335   78.9776 H   0  0  0  0  0  0  0  0  0  0  0  0
    2.3918   63.5655   80.7505 H   0  0  0  0  0  0  0  0  0  0  0  0
    2.2040   62.0436   77.3023 H   0  0  0  0  0  0  0  0  0  0  0  0
    0.9197   61.2603   78.3109 H   0  0  0  0  0  0  0  0  0  0  0  0
    2.3853   61.4408   81.5142 H   0  0  0  0  0  0  0  0  0  0  0  0
    0.9887   61.0114   80.4694 H   0  0  0  0  0  0  0  0  0  0  0  0
    2.4604   59.9815   80.4694 H   0  0  0  0  0  0  0  0  0  0  0  0
    3.7610   59.2558   79.4077 H   0  0  0  0  0  0  0  0  0  0  0  0
    2.8911   59.7293   77.9091 H   0  0  0  0  0  0  0  0  0  0  0  0
    4.6838   59.6153   77.9091 H   0  0  0  0  0  0  0  0  0  0  0  0
    4.2604   63.1287   81.6151 H   0  0  0  0  0  0  0  0  0  0  0  0
   -4.2235   60.1191   76.5681 H   0  0  0  0  0  0  0  0  0  0  0  0
   -6.1551   58.8114   75.9951 H   0  0  0  0  0  0  0  0  0  0  0  0
   -6.5128   56.8637   74.8833 H   0  0  0  0  0  0  0  0  0  0  0  0
   -7.1538   57.8647   73.5366 H   0  0  0  0  0  0  0  0  0  0  0  0
   -5.4310   57.3563   73.5366 H   0  0  0  0  0  0  0  0  0  0  0  0
   -6.5297   60.2439   73.3238 H   0  0  0  0  0  0  0  0  0  0  0  0
   -7.7596   60.0092   74.6021 H   0  0  0  0  0  0  0  0  0  0  0  0
   -6.4304   61.2353   76.1783 H   0  0  0  0  0  0  0  0  0  0  0  0
   -4.3383   61.6631   73.9192 H   0  0  0  0  0  0  0  0  0  0  0  0
   -6.0999   63.1888   74.2216 H   0  0  0  0  0  0  0  0  0  0  0  0
   -7.0767   63.0316   76.7835 H   0  0  0  0  0  0  0  0  0  0  0  0
   -6.9111   64.5160   75.7857 H   0  0  0  0  0  0  0  0  0  0  0  0
   -8.4573   63.6017   75.7857 H   0  0  0  0  0  0  0  0  0  0  0  0
   -8.9048   62.4406   74.0753 H   0  0  0  0  0  0  0  0  0  0  0  0
   -7.9087   63.4632   72.9850 H   0  0  0  0  0  0  0  0  0  0  0  0
   -7.6971   61.6794   72.9850 H   0  0  0  0  0  0  0  0  0  0  0  0
   -4.3049   62.5560   76.6459 H   0  0  0  0  0  0  0  0  0  0  0  0
  2  1  1  0
  3  2  1  0
  4  3  2  0
  5  3  1  0
  6  5  1  0
  7  5  1  0
  8  7  1  0
  9  8  1  0
 10  8  1  0
 11 10  1  0
 12 11  1  0
 13 12  1  0
 14 13  1  0
 15 14  1  0
 16 15  1  0
 17 16  1  0
 18 17  1  0
 18  1  1  0
 19 18  1  0
 20 16  1  0
 21 15  1  0
 22 13  1  0
 23 11  1  0
 25  1  1  0
 25 24  1  0
 18 26  1  1
 27 17  1  0
 11 28  1  6
 29  7  1  0
 30 29  1  0
 31 30  1  0
 32 31  1  0
 33 32  1  0
 34 32  1  0
 35 34  1  0
 36 35  1  0
 36 30  1  0
 37 35  1  0
 35 38  1  6
 39 38  1  0
 40 34  1  0
 41 10  1  0
 42 41  1  0
 43 42  1  0
 44 43  1  0
 45 44  1  0
 46 44  1  0
 47 46  1  0
 48 47  1  0
 48 42  1  0
 49 47  1  0
 50 49  1  0
 51 49  1  0
 52 48  1  0
  1 53  1  6
  5 54  1  6
  6 55  1  0
  6 56  1  0
  6 57  1  0
  7 58  1  6
  8 59  1  6
  9 60  1  0
  9 61  1  0
  9 62  1  0
 10 63  1  1
 12 64  1  0
 12 65  1  0
 13 66  1  1
 14 67  1  0
 14 68  1  0
 15 69  1  1
 16 70  1  6
 17 71  1  1
 19 72  1  0
 19 73  1  0
 19 74  1  0
 20 75  1  0
 20 76  1  0
 20 77  1  0
 21 78  1  0
 21 79  1  0
 21 80  1  0
 22 81  1  0
 22 82  1  0
 22 83  1  0
 23 84  1  0
 23 85  1  0
 23 86  1  0
 24 87  1  0
 24 88  1  0
 24 89  1  0
 25 90  1  0
 25 91  1  0
 26 92  1  0
 27 93  1  0
 28 94  1  0
 30 95  1  1
 32 96  1  6
 33 97  1  0
 33 98  1  0
 33 99  1  0
 34100  1  1
 36101  1  0
 36102  1  0
 37103  1  0
 37104  1  0
 37105  1  0
 39106  1  0
 39107  1  0
 39108  1  0
 40109  1  0
 42110  1  1
 44111  1  1
 45112  1  0
 45113  1  0
 45114  1  0
 46115  1  0
 46116  1  0
 47117  1  1
 48118  1  6
 49119  1  0
 50120  1  0
 50121  1  0
 50122  1  0
 51123  1  0
 51124  1  0
 51125  1  0
 52126  1  0
M  CHG  2  15   1  49   1
M  END
>  <score>  (7) 
-6.52

$$$$
=
     RDKit          3D

126128  0  0  0  0  0  0  0  0999 V2000
   -0.4760   62.2900   73.6610 C   0  0  1  0  0  0  0  0  0  0  0  0
   -1.3280   61.1890   74.0950 O   0  0  0  0  0  0  0  0  0  0  0  0
   -2.3580   61.5740   74.9140 C   0  0  0  0  0  0  0  0  0  0  0  0
   -2.4540   62.6940   75.4000 O   0  0  0  0  0  0  0  0  0  0  0  0
   -3.3410   60.4440   75.1480 C   0  0  2  0  0  0  0  0  0  0  0  0
   -4.5820   60.6810   74.2910 C   0  0  0  0  0  0  0  0  0  0  0  0
   -3.6100   60.3330   76.6720 C   0  0  2  0  0  0  0  0  0  0  0  0
   -3.7990   58.8660   77.1720 C   0  0  2  0  0  0  0  0  0  0  0  0
   -4.3650   58.8110   78.6060 C   0  0  0  0  0  0  0  0  0  0  0  0
   -2.5740   57.8990   77.0700 C   0  0  2  0  0  0  0  0  0  0  0  0
   -1.1210   58.4450   77.3320 C   0  0  2  0  0  0  0  0  0  0  0  0
   -0.1110   57.2690   77.2860 C   0  0  0  0  0  0  0  0  0  0  0  0
    1.3930   57.6190   77.4410 C   0  0  2  0  0  0  0  0  0  0  0  0
    2.0210   58.3000   76.2040 C   0  0  0  0  0  0  0  0  0  0  0  0
    1.8640   59.8110   76.1260 N   0  0  2  0  0  4  0  0  0  0  0  0
    2.0780   60.3480   74.6780 C   0  0  1  0  0  0  0  0  0  0  0  0
    2.0410   61.9130   74.5410 C   0  0  2  0  0  0  0  0  0  0  0  0
    0.6540   62.6000   74.7250 C   0  0  1  0  0  0  0  0  0  0  0  0
    0.8720   64.1300   74.7700 C   0  0  0  0  0  0  0  0  0  0  0  0
    3.4000   59.7950   74.1060 C   0  0  0  0  0  0  0  0  0  0  0  0
    2.6740   60.5200   77.1810 C   0  0  0  0  0  0  0  0  0  0  0  0
    2.1490   56.2990   77.6820 C   0  0  0  0  0  0  0  0  0  0  0  0
   -0.9890   59.1850   78.6660 C   0  0  0  0  0  0  0  0  0  0  0  0
    0.0080   63.1620   71.2890 C   0  0  0  0  0  0  0  0  0  0  0  0
   -0.0740   61.9570   72.2140 C   0  0  0  0  0  0  0  0  0  0  0  0
    0.1980   62.2440   76.0500 O   0  0  0  0  0  0  0  0  0  0  0  0
    2.6380   62.3000   73.2980 O   0  0  0  0  0  0  0  0  0  0  0  0
   -0.7410   59.3210   76.2680 O   0  0  0  0  0  0  0  0  0  0  0  0
   -4.8280   61.0340   76.9820 O   0  0  0  0  0  0  0  0  0  0  0  0
   -4.6520   62.1660   77.8440 C   0  0  2  0  0  0  0  0  0  0  0  0
   -4.9840   63.3660   77.1490 O   0  0  0  0  0  0  0  0  0  0  0  0
   -4.3370   64.5550   77.6310 C   0  0  1  0  0  0  0  0  0  0  0  0
   -5.2820   65.7190   77.3510 C   0  0  0  0  0  0  0  0  0  0  0  0
   -3.9660   64.4490   79.1180 C   0  0  1  0  0  0  0  0  0  0  0  0
   -2.9310   63.3000   79.3160 C   0  0  2  0  0  0  0  0  0  0  0  0
   -3.2010   62.1640   78.3100 C   0  0  0  0  0  0  0  0  0  0  0  0
   -3.0200   62.8090   80.7700 C   0  0  0  0  0  0  0  0  0  0  0  0
   -1.6370   63.8940   79.0490 O   0  0  0  0  0  0  0  0  0  0  0  0
   -0.4980   63.1160   79.3980 C   0  0  0  0  0  0  0  0  0  0  0  0
   -3.4400   65.6770   79.6200 O   0  0  0  0  0  0  0  0  0  0  0  0
   -2.5950   57.3240   75.7290 O   0  0  0  0  0  0  0  0  0  0  0  0
   -2.8720   55.9110   75.7690 C   0  0  2  0  0  0  0  0  0  0  0  0
   -3.2190   55.5370   77.1000 O   0  0  0  0  0  0  0  0  0  0  0  0
   -3.5590   54.1520   77.2320 C   0  0  2  0  0  0  0  0  0  0  0  0
   -3.9960   53.9180   78.6710 C   0  0  0  0  0  0  0  0  0  0  0  0
   -2.3520   53.2760   76.8710 C   0  0  0  0  0  0  0  0  0  0  0  0
   -1.8860   53.6470   75.4690 C   0  0  1  0  0  0  0  0  0  0  0  0
   -1.5960   55.1550   75.3570 C   0  0  1  0  0  0  0  0  0  0  0  0
   -0.6720   52.8500   74.9840 N   0  0  0  0  0  4  0  0  0  0  0  0
   -1.0120   51.8340   73.9250 C   0  0  0  0  0  0  0  0  0  0  0  0
    0.2170   52.2640   76.0420 C   0  0  0  0  0  0  0  0  0  0  0  0
   -1.1820   55.4290   74.0130 O   0  0  0  0  0  0  0  0  0  0  0  0
   -0.9709   63.2717   73.6240 H   0  0  0  0  0  0  0  0  0  0  0  0
   -2.9432   59.4676   74.8341 H   0  0  0  0  0  0  0  0  0  0  0  0
   -5.4519   60.8471   74.9434 H   0  0  0  0  0  0  0  0  0  0  0  0
   -4.4257   61.5655   73.6560 H   0  0  0  0  0  0  0  0  0  0  0  0
   -4.7626   59.8011   73.6560 H   0  0  0  0  0  0  0  0  0  0  0  0
   -2.7255   60.7573   77.1695 H   0  0  0  0  0  0  0  0  0  0  0  0
   -4.5231   58.4811   76.4388 H   0  0  0  0  0  0  0  0  0  0  0  0
   -3.5400   58.8912   79.3291 H   0  0  0  0  0  0  0  0  0  0  0  0
   -5.0662   59.6452   78.7557 H   0  0  0  0  0  0  0  0  0  0  0  0
   -4.8924   57.8574   78.7557 H   0  0  0  0  0  0  0  0  0  0  0  0
   -2.7269   57.2028   77.9078 H   0  0  0  0  0  0  0  0  0  0  0  0
   -0.3745   56.5746   78.0975 H   0  0  0  0  0  0  0  0  0  0  0  0
   -0.2027   56.8562   76.2705 H   0  0  0  0  0  0  0  0  0  0  0  0
    1.4733   58.3358   78.2715 H   0  0  0  0  0  0  0  0  0  0  0  0
    3.0972   58.0726   76.2041 H   0  0  0  0  0  0  0  0  0  0  0  0
    1.4777   57.8991   75.3356 H   0  0  0  0  0  0  0  0  0  0  0  0
    0.8840   60.0359   76.3496 H   0  0  0  0  0  0  0  0  0  0  0  0
    1.2177   59.9857   74.0960 H   0  0  0  0  0  0  0  0  0  0  0  0
    2.6227   62.2818   75.3987 H   0  0  0  0  0  0  0  0  0  0  0  0
    0.9194   64.4630   75.8173 H   0  0  0  0  0  0  0  0  0  0  0  0
    1.8150   64.3811   74.2623 H   0  0  0  0  0  0  0  0  0  0  0  0
    0.0367   64.6345   74.2623 H   0  0  0  0  0  0  0  0  0  0  0  0
    4.0688   59.5152   74.9333 H   0  0  0  0  0  0  0  0  0  0  0  0
    3.1902   58.9092   73.4885 H   0  0  0  0  0  0  0  0  0  0  0  0
    3.8834   60.5663   73.4885 H   0  0  0  0  0  0  0  0  0  0  0  0
    2.3248   60.2144   78.1783 H   0  0  0  0  0  0  0  0  0  0  0  0
    3.7357   60.2557   77.0673 H   0  0  0  0  0  0  0  0  0  0  0  0
    2.5526   61.6074   77.0673 H   0  0  0  0  0  0  0  0  0  0  0  0
    2.2483   56.1256   78.7637 H   0  0  0  0  0  0  0  0  0  0  0  0
    1.5899   55.4680   77.2272 H   0  0  0  0  0  0  0  0  0  0  0  0
    3.1487   56.3607   77.2272 H   0  0  0  0  0  0  0  0  0  0  0  0
   -1.1161   58.4727   79.4946 H   0  0  0  0  0  0  0  0  0  0  0  0
    0.0061   59.6492   78.7309 H   0  0  0  0  0  0  0  0  0  0  0  0
   -1.7622   59.9647   78.7309 H   0  0  0  0  0  0  0  0  0  0  0  0
    0.0706   64.0816   71.8894 H   0  0  0  0  0  0  0  0  0  0  0  0
    0.9024   63.0769   70.6544 H   0  0  0  0  0  0  0  0  0  0  0  0
   -0.8897   63.1988   70.6544 H   0  0  0  0  0  0  0  0  0  0  0  0
    0.9130   61.4718   72.2346 H   0  0  0  0  0  0  0  0  0  0  0  0
   -0.8645   61.3067   71.8114 H   0  0  0  0  0  0  0  0  0  0  0  0
    0.7682   62.6891   76.7259 H   0  0  0  0  0  0  0  0  0  0  0  0
    3.4553   62.8298   73.4753 H   0  0  0  0  0  0  0  0  0  0  0  0
   -0.3768   60.1605   76.6458 H   0  0  0  0  0  0  0  0  0  0  0  0
   -5.3178   62.1094   78.7178 H   0  0  0  0  0  0  0  0  0  0  0  0
   -3.3794   64.7091   77.1121 H   0  0  0  0  0  0  0  0  0  0  0  0
   -5.6292   66.1466   78.3032 H   0  0  0  0  0  0  0  0  0  0  0  0
   -4.7519   66.4910   76.7740 H   0  0  0  0  0  0  0  0  0  0  0  0
   -6.1465   65.3588   76.7740 H   0  0  0  0  0  0  0  0  0  0  0  0
   -4.8821   64.2261   79.6846 H   0  0  0  0  0  0  0  0  0  0  0  0
   -2.5447   62.2957   77.4371 H   0  0  0  0  0  0  0  0  0  0  0  0
   -2.9994   61.2048   78.8092 H   0  0  0  0  0  0  0  0  0  0  0  0
   -2.8663   63.6571   81.4535 H   0  0  0  0  0  0  0  0  0  0  0  0
   -4.0125   62.3695   80.9485 H   0  0  0  0  0  0  0  0  0  0  0  0
   -2.2450   62.0491   80.9485 H   0  0  0  0  0  0  0  0  0  0  0  0
   -0.4145   63.0590   80.4933 H   0  0  0  0  0  0  0  0  0  0  0  0
   -0.6060   62.1021   78.9852 H   0  0  0  0  0  0  0  0  0  0  0  0
    0.4071   63.5854   78.9852 H   0  0  0  0  0  0  0  0  0  0  0  0
   -3.4476   65.6592   80.6098 H   0  0  0  0  0  0  0  0  0  0  0  0
   -3.7014   55.6685   75.0883 H   0  0  0  0  0  0  0  0  0  0  0  0
   -4.3762   53.8832   76.5465 H   0  0  0  0  0  0  0  0  0  0  0  0
   -3.2369   54.3245   79.3554 H   0  0  0  0  0  0  0  0  0  0  0  0
   -4.9575   54.4220   78.8488 H   0  0  0  0  0  0  0  0  0  0  0  0
   -4.1095   52.8384   78.8488 H   0  0  0  0  0  0  0  0  0  0  0  0
   -1.5385   53.4508   77.5905 H   0  0  0  0  0  0  0  0  0  0  0  0
   -2.6346   52.2135   76.9048 H   0  0  0  0  0  0  0  0  0  0  0  0
   -2.7248   53.3796   74.8096 H   0  0  0  0  0  0  0  0  0  0  0  0
   -0.7850   55.4857   76.0225 H   0  0  0  0  0  0  0  0  0  0  0  0
   -0.0952   53.5864   74.5529 H   0  0  0  0  0  0  0  0  0  0  0  0
   -1.3261   50.8953   74.4048 H   0  0  0  0  0  0  0  0  0  0  0  0
   -1.8308   52.2174   73.2984 H   0  0  0  0  0  0  0  0  0  0  0  0
   -0.1274   51.6474   73.2984 H   0  0  0  0  0  0  0  0  0  0  0  0
   -0.1762   52.5232   77.0361 H   0  0  0  0  0  0  0  0  0  0  0  0
    0.2450   51.1698   75.9326 H   0  0  0  0  0  0  0  0  0  0  0  0
    1.2336   52.6696   75.9326 H   0  0  0  0  0  0  0  0  0  0  0  0
   -0.3565   55.9753   74.0269 H   0  0  0  0  0  0  0  0  0  0  0  0
  2  1  1  0
  3  2  1  0
  4  3  2  0
  5  3  1  0
  6  5  1  0
  7  5  1  0
  8  7  1  0
  9  8  1  0
 10  8  1  0
 11 10  1  0
 12 11  1  0
 13 12  1  0
 14 13  1  0
 15 14  1  0
 16 15  1  0
 17 16  1  0
 18 17  1  0
 18  1  1  0
 19 18  1  0
 20 16  1  0
 21 15  1  0
 22 13  1  0
 23 11  1  0
 25  1  1  0
 25 24  1  0
 18 26  1  1
 27 17  1  0
 11 28  1  6
 29  7  1  0
 30 29  1  0
 31 30  1  0
 32 31  1  0
 33 32  1  0
 34 32  1  0
 35 34  1  0
 36 35  1  0
 36 30  1  0
 37 35  1  0
 35 38  1  6
 39 38  1  0
 40 34  1  0
 41 10  1  0
 42 41  1  0
 43 42  1  0
 44 43  1  0
 45 44  1  0
 46 44  1  0
 47 46  1  0
 48 47  1  0
 48 42  1  0
 49 47  1  0
 50 49  1  0
 51 49  1  0
 52 48  1  0
  1 53  1  6
  5 54  1  6
  6 55  1  0
  6 56  1  0
  6 57  1  0
  7 58  1  1
  8 59  1  6
  9 60  1  0
  9 61  1  0
  9 62  1  0
 10 63  1  1
 12 64  1  0
 12 65  1  0
 13 66  1  1
 14 67  1  0
 14 68  1  0
 15 69  1  1
 16 70  1  6
 17 71  1  1
 19 72  1  0
 19 73  1  0
 19 74  1  0
 20 75  1  0
 20 76  1  0
 20 77  1  0
 21 78  1  0
 21 79  1  0
 21 80  1  0
 22 81  1  0
 22 82  1  0
 22 83  1  0
 23 84  1  0
 23 85  1  0
 23 86  1  0
 24 87  1  0
 24 88  1  0
 24 89  1  0
 25 90  1  0
 25 91  1  0
 26 92  1  0
 27 93  1  0
 28 94  1  0
 30 95  1  1
 32 96  1  6
 33 97  1  0
 33 98  1  0
 33 99  1  0
 34100  1  1
 36101  1  0
 36102  1  0
 37103  1  0
 37104  1  0
 37105  1  0
 39106  1  0
 39107  1  0
 39108  1  0
 40109  1  0
 42110  1  6
 44111  1  6
 45112  1  0
 45113  1  0
 45114  1  0
 46115  1  0
 46116  1  0
 47117  1  6
 48118  1  1
 49119  1  0
 50120  1  0
 50121  1  0
 50122  1  0
 51123  1  0
 51124  1  0
 51125  1  0
 52126  1  0
M  CHG  2  15   1  49   1
M  END
>  <score>  (8) 
-6.184

$$$$
=
     RDKit          3D

126128  0  0  0  0  0  0  0  0999 V2000
    0.8580   60.0710   79.5660 C   0  0  1  0  0  0  0  0  0  0  0  0
    1.0360   60.5930   78.2160 O   0  0  0  0  0  0  0  0  0  0  0  0
   -0.0510   61.2800   77.7400 C   0  0  0  0  0  0  0  0  0  0  0  0
   -1.1400   61.2980   78.3000 O   0  0  0  0  0  0  0  0  0  0  0  0
    0.2630   61.9950   76.4400 C   0  0  2  0  0  0  0  0  0  0  0  0
    0.4630   63.4800   76.7260 C   0  0  0  0  0  0  0  0  0  0  0  0
   -0.8570   61.6700   75.4180 C   0  0  2  0  0  0  0  0  0  0  0  0
   -0.3460   61.5200   73.9490 C   0  0  2  0  0  0  0  0  0  0  0  0
   -1.5040   61.5090   72.9300 C   0  0  0  0  0  0  0  0  0  0  0  0
    0.6220   60.3310   73.6350 C   0  0  2  0  0  0  0  0  0  0  0  0
    0.4160   58.9440   74.3500 C   0  0  2  0  0  0  0  0  0  0  0  0
    1.4250   57.9140   73.7770 C   0  0  0  0  0  0  0  0  0  0  0  0
    1.4350   56.5000   74.4170 C   0  0  2  0  0  0  0  0  0  0  0  0
    2.0660   56.4410   75.8260 C   0  0  0  0  0  0  0  0  0  0  0  0
    1.1340   56.7600   76.9860 N   0  0  2  0  0  4  0  0  0  0  0  0
    1.9170   57.1480   78.2760 C   0  0  1  0  0  0  0  0  0  0  0  0
    1.0230   57.3830   79.5470 C   0  0  2  0  0  0  0  0  0  0  0  0
    0.1340   58.6640   79.5510 C   0  0  1  0  0  0  0  0  0  0  0  0
   -0.8140   58.5920   80.7700 C   0  0  0  0  0  0  0  0  0  0  0  0
    2.9940   56.0830   78.5730 C   0  0  0  0  0  0  0  0  0  0  0  0
    0.0910   55.6910   77.1850 C   0  0  0  0  0  0  0  0  0  0  0  0
    2.2620   55.5850   73.4950 C   0  0  0  0  0  0  0  0  0  0  0  0
   -1.0090   58.4010   74.2100 C   0  0  0  0  0  0  0  0  0  0  0  0
    3.3880   60.4510   79.2860 C   0  0  0  0  0  0  0  0  0  0  0  0
    2.2330   60.2000   80.2440 C   0  0  0  0  0  0  0  0  0  0  0  0
   -0.7280   58.5630   78.3940 O   0  0  0  0  0  0  0  0  0  0  0  0
    1.8370   57.3270   80.7240 O   0  0  0  0  0  0  0  0  0  0  0  0
    0.7400   59.0700   75.7370 O   0  0  0  0  0  0  0  0  0  0  0  0
   -1.8100   62.7490   75.4130 O   0  0  0  0  0  0  0  0  0  0  0  0
   -3.0880   62.4080   75.9620 C   0  0  2  0  0  0  0  0  0  0  0  0
   -3.8330   61.6320   75.0260 O   0  0  0  0  0  0  0  0  0  0  0  0
   -5.2610   61.7090   75.1600 C   0  0  1  0  0  0  0  0  0  0  0  0
   -5.8250   60.3770   74.6780 C   0  0  0  0  0  0  0  0  0  0  0  0
   -5.6900   62.0390   76.5980 C   0  0  1  0  0  0  0  0  0  0  0  0
   -5.1560   63.4490   76.9910 C   0  0  2  0  0  0  0  0  0  0  0  0
   -3.7990   63.7120   76.3090 C   0  0  0  0  0  0  0  0  0  0  0  0
   -5.0500   63.5210   78.5220 C   0  0  0  0  0  0  0  0  0  0  0  0
   -6.1430   64.3880   76.4960 O   0  0  0  0  0  0  0  0  0  0  0  0
   -5.6930   65.3300   75.5280 C   0  0  0  0  0  0  0  0  0  0  0  0
   -7.1080   61.9880   76.7510 O   0  0  0  0  0  0  0  0  0  0  0  0
    1.9730   60.7900   73.9380 O   0  0  0  0  0  0  0  0  0  0  0  0
    2.3910   61.8260   73.0290 C   0  0  2  0  0  0  0  0  0  0  0  0
    1.2750   62.6550   72.7160 O   0  0  0  0  0  0  0  0  0  0  0  0
    1.6030   63.7480   71.8500 C   0  0  2  0  0  0  0  0  0  0  0  0
    0.3500   64.5950   71.6780 C   0  0  0  0  0  0  0  0  0  0  0  0
    2.1030   63.2200   70.4990 C   0  0  0  0  0  0  0  0  0  0  0  0
    3.2760   62.2820   70.7500 C   0  0  1  0  0  0  0  0  0  0  0  0
    2.8970   61.1630   71.7360 C   0  0  1  0  0  0  0  0  0  0  0  0
    3.8700   61.6710   69.4780 N   0  0  0  0  0  4  0  0  0  0  0  0
    3.7420   62.5660   68.2730 C   0  0  0  0  0  0  0  0  0  0  0  0
    3.4710   60.2600   69.1580 C   0  0  0  0  0  0  0  0  0  0  0  0
    4.0500   60.3350   71.9350 O   0  0  0  0  0  0  0  0  0  0  0  0
    0.1519   60.6368   80.1915 H   0  0  0  0  0  0  0  0  0  0  0  0
    1.2036   61.6504   75.9856 H   0  0  0  0  0  0  0  0  0  0  0  0
    0.4851   63.6442   77.8134 H   0  0  0  0  0  0  0  0  0  0  0  0
    1.4142   63.8134   76.2854 H   0  0  0  0  0  0  0  0  0  0  0  0
   -0.3661   64.0532   76.2854 H   0  0  0  0  0  0  0  0  0  0  0  0
   -1.2883   60.7089   75.7348 H   0  0  0  0  0  0  0  0  0  0  0  0
    0.2724   62.4235   73.8427 H   0  0  0  0  0  0  0  0  0  0  0  0
   -2.4643   61.4999   73.4664 H   0  0  0  0  0  0  0  0  0  0  0  0
   -1.4453   62.4077   72.2985 H   0  0  0  0  0  0  0  0  0  0  0  0
   -1.4282   60.6115   72.2985 H   0  0  0  0  0  0  0  0  0  0  0  0
    0.4063   60.0953   72.5824 H   0  0  0  0  0  0  0  0  0  0  0  0
    1.2013   57.7915   72.7070 H   0  0  0  0  0  0  0  0  0  0  0  0
    2.4169   58.3337   74.0007 H   0  0  0  0  0  0  0  0  0  0  0  0
    0.3858   56.1887   74.5277 H   0  0  0  0  0  0  0  0  0  0  0  0
    2.4570   55.4241   75.9778 H   0  0  0  0  0  0  0  0  0  0  0  0
    2.8372   57.2253   75.8397 H   0  0  0  0  0  0  0  0  0  0  0  0
    0.6008   57.6052   76.7366 H   0  0  0  0  0  0  0  0  0  0  0  0
    2.3785   58.1233   78.0620 H   0  0  0  0  0  0  0  0  0  0  0  0
    0.2891   56.5639   79.5267 H   0  0  0  0  0  0  0  0  0  0  0  0
   -0.2234   58.6369   81.6969 H   0  0  0  0  0  0  0  0  0  0  0  0
   -1.5146   59.4395   80.7402 H   0  0  0  0  0  0  0  0  0  0  0  0
   -1.3785   57.6484   80.7402 H   0  0  0  0  0  0  0  0  0  0  0  0
    3.1079   55.9703   79.6613 H   0  0  0  0  0  0  0  0  0  0  0  0
    2.6893   55.1212   78.1347 H   0  0  0  0  0  0  0  0  0  0  0  0
    3.9523   56.3985   78.1347 H   0  0  0  0  0  0  0  0  0  0  0  0
   -0.0672   55.5289   78.2614 H   0  0  0  0  0  0  0  0  0  0  0  0
   -0.8535   56.0091   76.7194 H   0  0  0  0  0  0  0  0  0  0  0  0
    0.4322   54.7546   76.7194 H   0  0  0  0  0  0  0  0  0  0  0  0
    2.8753   54.9065   74.1061 H   0  0  0  0  0  0  0  0  0  0  0  0
    1.5844   54.9952   72.8601 H   0  0  0  0  0  0  0  0  0  0  0  0
    2.9171   56.1997   72.8601 H   0  0  0  0  0  0  0  0  0  0  0  0
   -1.4388   58.2372   75.2092 H   0  0  0  0  0  0  0  0  0  0  0  0
   -1.6257   59.1271   73.6601 H   0  0  0  0  0  0  0  0  0  0  0  0
   -0.9861   57.4486   73.6601 H   0  0  0  0  0  0  0  0  0  0  0  0
    4.3045   60.6502   79.8608 H   0  0  0  0  0  0  0  0  0  0  0  0
    3.5380   59.5645   78.6523 H   0  0  0  0  0  0  0  0  0  0  0  0
    3.1566   61.3198   78.6523 H   0  0  0  0  0  0  0  0  0  0  0  0
    2.1881   61.0381   80.9551 H   0  0  0  0  0  0  0  0  0  0  0  0
    2.4340   59.2338   80.7299 H   0  0  0  0  0  0  0  0  0  0  0  0
   -1.6663   58.4531   78.6901 H   0  0  0  0  0  0  0  0  0  0  0  0
    1.2593   57.3667   81.5270 H   0  0  0  0  0  0  0  0  0  0  0  0
   -0.0290   58.7709   76.2840 H   0  0  0  0  0  0  0  0  0  0  0  0
   -2.9805   61.7951   76.8691 H   0  0  0  0  0  0  0  0  0  0  0  0
   -5.6603   62.5333   74.5509 H   0  0  0  0  0  0  0  0  0  0  0  0
   -6.0885   59.7548   75.5460 H   0  0  0  0  0  0  0  0  0  0  0  0
   -6.7238   60.5578   74.0701 H   0  0  0  0  0  0  0  0  0  0  0  0
   -5.0697   59.8574   74.0701 H   0  0  0  0  0  0  0  0  0  0  0  0
   -5.2588   61.2796   77.2669 H   0  0  0  0  0  0  0  0  0  0  0  0
   -3.9679   64.2843   75.3849 H   0  0  0  0  0  0  0  0  0  0  0  0
   -3.1643   64.2768   77.0077 H   0  0  0  0  0  0  0  0  0  0  0  0
   -5.8796   62.9575   78.9739 H   0  0  0  0  0  0  0  0  0  0  0  0
   -4.0926   63.0856   78.8441 H   0  0  0  0  0  0  0  0  0  0  0  0
   -5.1019   64.5715   78.8441 H   0  0  0  0  0  0  0  0  0  0  0  0
   -5.2732   66.2089   76.0392 H   0  0  0  0  0  0  0  0  0  0  0  0
   -4.9187   64.8673   74.8985 H   0  0  0  0  0  0  0  0  0  0  0  0
   -6.5395   65.6416   74.8985 H   0  0  0  0  0  0  0  0  0  0  0  0
   -7.3359   61.9798   77.7144 H   0  0  0  0  0  0  0  0  0  0  0  0
    3.1859   62.4330   73.4869 H   0  0  0  0  0  0  0  0  0  0  0  0
    2.4092   64.3593   72.2818 H   0  0  0  0  0  0  0  0  0  0  0  0
   -0.0489   64.8647   72.6670 H   0  0  0  0  0  0  0  0  0  0  0  0
    0.5997   65.5103   71.1213 H   0  0  0  0  0  0  0  0  0  0  0  0
   -0.4063   64.0221   71.1213 H   0  0  0  0  0  0  0  0  0  0  0  0
    1.2938   62.6744   69.9915 H   0  0  0  0  0  0  0  0  0  0  0  0
    2.4209   64.0582   69.8615 H   0  0  0  0  0  0  0  0  0  0  0  0
    4.0582   62.9169   71.1916 H   0  0  0  0  0  0  0  0  0  0  0  0
    2.0918   60.5156   71.3585 H   0  0  0  0  0  0  0  0  0  0  0  0
    4.8676   61.5994   69.7242 H   0  0  0  0  0  0  0  0  0  0  0  0
    3.5934   63.6050   68.6021 H   0  0  0  0  0  0  0  0  0  0  0  0
    4.6587   62.5004   67.6685 H   0  0  0  0  0  0  0  0  0  0  0  0
    2.8805   62.2461   67.6685 H   0  0  0  0  0  0  0  0  0  0  0  0
    3.3134   59.7025   70.0931 H   0  0  0  0  0  0  0  0  0  0  0  0
    2.5394   60.2661   68.5732 H   0  0  0  0  0  0  0  0  0  0  0  0
    4.2679   59.7773   68.5732 H   0  0  0  0  0  0  0  0  0  0  0  0
    4.2102   60.2200   72.9052 H   0  0  0  0  0  0  0  0  0  0  0  0
  2  1  1  0
  3  2  1  0
  4  3  2  0
  5  3  1  0
  6  5  1  0
  7  5  1  0
  8  7  1  0
  9  8  1  0
 10  8  1  0
 11 10  1  0
 12 11  1  0
 13 12  1  0
 14 13  1  0
 15 14  1  0
 16 15  1  0
 17 16  1  0
 18 17  1  0
 18  1  1  0
 19 18  1  0
 20 16  1  0
 21 15  1  0
 22 13  1  0
 23 11  1  0
 25  1  1  0
 25 24  1  0
 18 26  1  6
 27 17  1  0
 11 28  1  1
 29  7  1  0
 30 29  1  0
 31 30  1  0
 32 31  1  0
 33 32  1  0
 34 32  1  0
 35 34  1  0
 36 35  1  0
 36 30  1  0
 37 35  1  0
 35 38  1  6
 39 38  1  0
 40 34  1  0
 41 10  1  0
 42 41  1  0
 43 42  1  0
 44 43  1  0
 45 44  1  0
 46 44  1  0
 47 46  1  0
 48 47  1  0
 48 42  1  0
 49 47  1  0
 50 49  1  0
 51 49  1  0
 52 48  1  0
  1 53  1  1
  5 54  1  6
  6 55  1  0
  6 56  1  0
  6 57  1  0
  7 58  1  1
  8 59  1  6
  9 60  1  0
  9 61  1  0
  9 62  1  0
 10 63  1  6
 12 64  1  0
 12 65  1  0
 13 66  1  1
 14 67  1  0
 14 68  1  0
 15 69  1  6
 16 70  1  6
 17 71  1  1
 19 72  1  0
 19 73  1  0
 19 74  1  0
 20 75  1  0
 20 76  1  0
 20 77  1  0
 21 78  1  0
 21 79  1  0
 21 80  1  0
 22 81  1  0
 22 82  1  0
 22 83  1  0
 23 84  1  0
 23 85  1  0
 23 86  1  0
 24 87  1  0
 24 88  1  0
 24 89  1  0
 25 90  1  0
 25 91  1  0
 26 92  1  0
 27 93  1  0
 28 94  1  0
 30 95  1  1
 32 96  1  6
 33 97  1  0
 33 98  1  0
 33 99  1  0
 34100  1  1
 36101  1  0
 36102  1  0
 37103  1  0
 37104  1  0
 37105  1  0
 39106  1  0
 39107  1  0
 39108  1  0
 40109  1  0
 42110  1  1
 44111  1  1
 45112  1  0
 45113  1  0
 45114  1  0
 46115  1  0
 46116  1  0
 47117  1  1
 48118  1  6
 49119  1  0
 50120  1  0
 50121  1  0
 50122  1  0
 51123  1  0
 51124  1  0
 51125  1  0
 52126  1  0
M  CHG  2  15   1  49   1
M  END
>  <score>  (9) 
-5.886

$$$$
