=
     RDKit          3D

 51 56  0  0  0  0  0  0  0  0999 V2000
    3.8170   68.0620   62.6260 C   0  0  1  0  0  0  0  0  0  0  0  0
    2.8610   68.7440   61.6720 C   0  0  0  0  0  0  0  0  0  0  0  0
    1.6440   69.1560   62.0510 C   0  0  0  0  0  0  0  0  0  0  0  0
    0.5150   69.6680   61.2040 C   0  0  0  0  0  0  0  0  0  0  0  0
   -0.7170   69.6010   62.1320 C   0  0  0  0  0  0  0  0  0  0  0  0
   -0.3050   68.6750   63.2490 N   0  0  1  0  0  4  0  0  0  0  0  0
    1.1480   68.9450   63.4330 C   0  0  1  0  0  0  0  0  0  0  0  0
    1.7970   67.7720   64.1650 C   0  0  1  0  0  0  0  0  0  0  0  0
    3.3300   67.9960   64.1170 C   0  0  2  0  0  0  0  0  0  0  0  0
    1.1070   67.6230   65.5200 C   0  0  0  0  0  0  0  0  0  0  0  0
    1.7610   66.9980   66.5950 C   0  0  0  0  0  0  0  0  0  0  0  0
    1.0760   66.8540   67.7840 C   0  0  0  0  0  0  0  0  0  0  0  0
    1.5660   66.2820   68.9140 O   0  0  0  0  0  0  0  0  0  0  0  0
    0.4320   66.4060   69.8000 C   0  0  0  0  0  0  0  0  0  0  0  0
   -0.7030   67.0500   69.1810 O   0  0  0  0  0  0  0  0  0  0  0  0
   -0.2170   67.2890   67.9350 C   0  0  0  0  0  0  0  0  0  0  0  0
   -0.9080   67.8930   66.9080 C   0  0  0  0  0  0  0  0  0  0  0  0
   -0.2540   68.0600   65.6750 C   0  0  0  0  0  0  0  0  0  0  0  0
   -1.0130   68.7580   64.5570 C   0  0  0  0  0  0  0  0  0  0  0  0
    3.9220   66.7300   62.1310 O   0  0  0  0  0  0  0  0  0  0  0  0
    3.6350   69.2210   64.8190 O   0  0  0  0  0  0  0  0  0  0  0  0
    4.8230   69.2100   65.4820 C   0  0  0  0  0  0  0  0  0  0  0  0
    5.8790   68.8270   65.0050 O   0  0  0  0  0  0  0  0  0  0  0  0
    4.6740   69.7610   66.8520 C   0  0  0  0  0  0  0  0  0  0  0  0
    3.4450   69.7650   67.5270 C   0  0  0  0  0  0  0  0  0  0  0  0
    3.3600   70.2930   68.8180 C   0  0  0  0  0  0  0  0  0  0  0  0
    4.4960   70.8130   69.4380 C   0  0  0  0  0  0  0  0  0  0  0  0
    5.7220   70.8050   68.7730 C   0  0  0  0  0  0  0  0  0  0  0  0
    5.8130   70.2780   67.4840 C   0  0  0  0  0  0  0  0  0  0  0  0
    4.7574   68.6318   62.6565 H   0  0  0  0  0  0  0  0  0  0  0  0
    3.1763   68.9072   60.6309 H   0  0  0  0  0  0  0  0  0  0  0  0
    0.7061   70.7028   60.8837 H   0  0  0  0  0  0  0  0  0  0  0  0
    0.3805   69.0818   60.2830 H   0  0  0  0  0  0  0  0  0  0  0  0
   -0.9610   70.5988   62.5254 H   0  0  0  0  0  0  0  0  0  0  0  0
   -1.6152   69.2450   61.6062 H   0  0  0  0  0  0  0  0  0  0  0  0
   -0.5597   67.7209   62.9563 H   0  0  0  0  0  0  0  0  0  0  0  0
    1.3825   69.8198   64.0573 H   0  0  0  0  0  0  0  0  0  0  0  0
    1.6602   66.7812   63.7071 H   0  0  0  0  0  0  0  0  0  0  0  0
    3.8545   67.1598   64.6024 H   0  0  0  0  0  0  0  0  0  0  0  0
    2.7933   66.6326   66.4913 H   0  0  0  0  0  0  0  0  0  0  0  0
    0.1294   65.3994   70.1243 H   0  0  0  0  0  0  0  0  0  0  0  0
    0.7445   67.0350   70.6466 H   0  0  0  0  0  0  0  0  0  0  0  0
   -1.9438   68.2355   67.0489 H   0  0  0  0  0  0  0  0  0  0  0  0
   -1.1383   69.8178   64.8237 H   0  0  0  0  0  0  0  0  0  0  0  0
   -1.9832   68.2519   64.4448 H   0  0  0  0  0  0  0  0  0  0  0  0
    3.9718   66.0983   62.8916 H   0  0  0  0  0  0  0  0  0  0  0  0
    2.5485   69.3529   67.0407 H   0  0  0  0  0  0  0  0  0  0  0  0
    2.3952   70.2985   69.3463 H   0  0  0  0  0  0  0  0  0  0  0  0
    4.4249   71.2302   70.4533 H   0  0  0  0  0  0  0  0  0  0  0  0
    6.6171   71.2140   69.2645 H   0  0  0  0  0  0  0  0  0  0  0  0
    6.7815   70.2684   66.9625 H   0  0  0  0  0  0  0  0  0  0  0  0
  2  1  1  0
  3  2  2  0
  4  3  1  0
  5  4  1  0
  6  5  1  0
  7  6  1  0
  7  3  1  0
  8  7  1  0
  9  8  1  0
  9  1  1  0
 10  8  1  0
 11 10  2  0
 12 11  1  0
 13 12  1  0
 14 13  1  0
 15 14  1  0
 16 15  1  0
 16 12  2  0
 17 16  1  0
 18 17  2  0
 18 10  1  0
 19  6  1  0
 19 18  1  0
 20  1  1  0
 21  9  1  0
 22 21  1  0
 23 22  2  0
 24 22  1  0
 25 24  2  0
 26 25  1  0
 27 26  2  0
 28 27  1  0
 29 24  1  0
 29 28  2  0
  1 30  1  1
  2 31  1  0
  4 32  1  0
  4 33  1  0
  5 34  1  0
  5 35  1  0
  6 36  1  6
  7 37  1  1
  8 38  1  6
  9 39  1  1
 11 40  1  0
 14 41  1  0
 14 42  1  0
 17 43  1  0
 19 44  1  0
 19 45  1  0
 20 46  1  0
 25 47  1  0
 26 48  1  0
 27 49  1  0
 28 50  1  0
 29 51  1  0
M  CHG  1   6   1
M  END
>  <score>  (1) 
-11.895

$$$$
=
     RDKit          3D

 51 56  0  0  0  0  0  0  0  0999 V2000
    4.7600   67.6270   64.3460 C   0  0  1  0  0  0  0  0  0  0  0  0
    4.9020   68.0770   62.9080 C   0  0  0  0  0  0  0  0  0  0  0  0
    3.9010   68.6650   62.2400 C   0  0  0  0  0  0  0  0  0  0  0  0
    3.8090   68.9950   60.7780 C   0  0  0  0  0  0  0  0  0  0  0  0
    2.3100   69.2820   60.5480 C   0  0  0  0  0  0  0  0  0  0  0  0
    1.6160   68.6850   61.7470 N   0  0  1  0  0  4  0  0  0  0  0  0
    2.5760   68.8920   62.8660 C   0  0  1  0  0  0  0  0  0  0  0  0
    2.2450   67.9310   64.0080 C   0  0  1  0  0  0  0  0  0  0  0  0
    3.4050   68.0210   65.0320 C   0  0  2  0  0  0  0  0  0  0  0  0
    0.8180   68.2230   64.4680 C   0  0  0  0  0  0  0  0  0  0  0  0
    0.3980   67.8830   65.7650 C   0  0  0  0  0  0  0  0  0  0  0  0
   -0.9140   68.1310   66.1140 C   0  0  0  0  0  0  0  0  0  0  0  0
   -1.4720   67.8700   67.3250 O   0  0  0  0  0  0  0  0  0  0  0  0
   -2.8270   68.3210   67.1070 C   0  0  0  0  0  0  0  0  0  0  0  0
   -3.0430   68.8430   65.7780 O   0  0  0  0  0  0  0  0  0  0  0  0
   -1.8090   68.6830   65.2330 C   0  0  0  0  0  0  0  0  0  0  0  0
   -1.4520   69.0190   63.9450 C   0  0  0  0  0  0  0  0  0  0  0  0
   -0.1270   68.7820   63.5400 C   0  0  0  0  0  0  0  0  0  0  0  0
    0.2660   69.1860   62.1270 C   0  0  0  0  0  0  0  0  0  0  0  0
    4.8300   66.2050   64.2820 O   0  0  0  0  0  0  0  0  0  0  0  0
    3.4550   69.3710   65.5470 O   0  0  0  0  0  0  0  0  0  0  0  0
    3.3840   69.4610   66.9020 C   0  0  0  0  0  0  0  0  0  0  0  0
    2.4210   69.1190   67.5690 O   0  0  0  0  0  0  0  0  0  0  0  0
    4.6480   69.9950   67.4680 C   0  0  0  0  0  0  0  0  0  0  0  0
    5.8320   70.0660   66.7200 C   0  0  0  0  0  0  0  0  0  0  0  0
    6.9940   70.5810   67.3000 C   0  0  0  0  0  0  0  0  0  0  0  0
    6.9770   71.0290   68.6210 C   0  0  0  0  0  0  0  0  0  0  0  0
    5.8010   70.9660   69.3670 C   0  0  0  0  0  0  0  0  0  0  0  0
    4.6360   70.4530   68.7920 C   0  0  0  0  0  0  0  0  0  0  0  0
    5.5402   68.1134   64.9499 H   0  0  0  0  0  0  0  0  0  0  0  0
    5.8608   67.9155   62.3935 H   0  0  0  0  0  0  0  0  0  0  0  0
    4.4168   69.8801   60.5389 H   0  0  0  0  0  0  0  0  0  0  0  0
    4.1854   68.1831   60.1384 H   0  0  0  0  0  0  0  0  0  0  0  0
    2.1266   70.3652   60.4935 H   0  0  0  0  0  0  0  0  0  0  0  0
    1.9456   68.8555   59.6018 H   0  0  0  0  0  0  0  0  0  0  0  0
    1.3935   67.7078   61.5093 H   0  0  0  0  0  0  0  0  0  0  0  0
    2.5411   69.8895   63.3283 H   0  0  0  0  0  0  0  0  0  0  0  0
    2.2076   66.8631   63.7467 H   0  0  0  0  0  0  0  0  0  0  0  0
    3.2371   67.3207   65.8635 H   0  0  0  0  0  0  0  0  0  0  0  0
    1.0971   67.4307   66.4839 H   0  0  0  0  0  0  0  0  0  0  0  0
   -3.5083   67.4719   67.2647 H   0  0  0  0  0  0  0  0  0  0  0  0
   -3.0185   69.1397   67.8163 H   0  0  0  0  0  0  0  0  0  0  0  0
   -2.1840   69.4606   63.2528 H   0  0  0  0  0  0  0  0  0  0  0  0
    0.2653   70.2840   62.0606 H   0  0  0  0  0  0  0  0  0  0  0  0
   -0.4638   68.7394   61.4357 H   0  0  0  0  0  0  0  0  0  0  0  0
    4.8483   65.8339   65.1996 H   0  0  0  0  0  0  0  0  0  0  0  0
    5.8459   69.7164   65.6771 H   0  0  0  0  0  0  0  0  0  0  0  0
    7.9236   70.6333   66.7142 H   0  0  0  0  0  0  0  0  0  0  0  0
    7.8938   71.4330   69.0752 H   0  0  0  0  0  0  0  0  0  0  0  0
    5.7905   71.3202   70.4083 H   0  0  0  0  0  0  0  0  0  0  0  0
    3.7073   70.4085   69.3798 H   0  0  0  0  0  0  0  0  0  0  0  0
  2  1  1  0
  3  2  2  0
  4  3  1  0
  5  4  1  0
  6  5  1  0
  7  6  1  0
  7  3  1  0
  8  7  1  0
  9  8  1  0
  9  1  1  0
 10  8  1  0
 11 10  2  0
 12 11  1  0
 13 12  1  0
 14 13  1  0
 15 14  1  0
 16 15  1  0
 16 12  2  0
 17 16  1  0
 18 17  2  0
 18 10  1  0
 19  6  1  0
 19 18  1  0
 20  1  1  0
 21  9  1  0
 22 21  1  0
 23 22  2  0
 24 22  1  0
 25 24  2  0
 26 25  1  0
 27 26  2  0
 28 27  1  0
 29 24  1  0
 29 28  2  0
  1 30  1  1
  2 31  1  0
  4 32  1  0
  4 33  1  0
  5 34  1  0
  5 35  1  0
  6 36  1  6
  7 37  1  1
  8 38  1  6
  9 39  1  1
 11 40  1  0
 14 41  1  0
 14 42  1  0
 17 43  1  0
 19 44  1  0
 19 45  1  0
 20 46  1  0
 25 47  1  0
 26 48  1  0
 27 49  1  0
 28 50  1  0
 29 51  1  0
M  CHG  1   6   1
M  END
>  <score>  (2) 
-10.658

$$$$
=
     RDKit          3D

 51 56  0  0  0  0  0  0  0  0999 V2000
   -0.5850   68.5690   67.1820 C   0  0  1  0  0  0  0  0  0  0  0  0
   -0.6720   68.2180   65.7130 C   0  0  0  0  0  0  0  0  0  0  0  0
    0.4120   68.1460   64.9290 C   0  0  0  0  0  0  0  0  0  0  0  0
    0.4890   68.0020   63.4360 C   0  0  0  0  0  0  0  0  0  0  0  0
    1.9480   68.3710   63.0940 C   0  0  0  0  0  0  0  0  0  0  0  0
    2.4550   69.1020   64.3130 N   0  0  1  0  0  4  0  0  0  0  0  0
    1.7700   68.4310   65.4530 C   0  0  1  0  0  0  0  0  0  0  0  0
    1.7950   69.3480   66.6750 C   0  0  1  0  0  0  0  0  0  0  0  0
    0.8730   68.7090   67.7440 C   0  0  2  0  0  0  0  0  0  0  0  0
    3.2560   69.6280   67.0220 C   0  0  0  0  0  0  0  0  0  0  0  0
    3.6270   70.0040   68.3230 C   0  0  0  0  0  0  0  0  0  0  0  0
    4.9550   70.2860   68.5710 C   0  0  0  0  0  0  0  0  0  0  0  0
    5.4740   70.6540   69.7710 O   0  0  0  0  0  0  0  0  0  0  0  0
    6.8690   70.8150   69.4300 C   0  0  0  0  0  0  0  0  0  0  0  0
    7.1480   70.5360   68.0410 O   0  0  0  0  0  0  0  0  0  0  0  0
    5.9070   70.2210   67.5850 C   0  0  0  0  0  0  0  0  0  0  0  0
    5.5940   69.8740   66.2890 C   0  0  0  0  0  0  0  0  0  0  0  0
    4.2530   69.5810   65.9860 C   0  0  0  0  0  0  0  0  0  0  0  0
    3.9220   69.1670   64.5610 C   0  0  0  0  0  0  0  0  0  0  0  0
   -1.2260   69.8380   67.2820 O   0  0  0  0  0  0  0  0  0  0  0  0
    1.4170   67.4200   68.1060 O   0  0  0  0  0  0  0  0  0  0  0  0
    1.6150   67.2460   69.4400 C   0  0  0  0  0  0  0  0  0  0  0  0
    1.9730   68.1240   70.2080 O   0  0  0  0  0  0  0  0  0  0  0  0
    1.3030   65.8530   69.8490 C   0  0  0  0  0  0  0  0  0  0  0  0
   -0.0080   65.3540   69.8640 C   0  0  0  0  0  0  0  0  0  0  0  0
   -0.2470   64.0340   70.2540 C   0  0  0  0  0  0  0  0  0  0  0  0
    0.8160   63.2100   70.6240 C   0  0  0  0  0  0  0  0  0  0  0  0
    2.1210   63.7000   70.6040 C   0  0  0  0  0  0  0  0  0  0  0  0
    2.3660   65.0180   70.2150 C   0  0  0  0  0  0  0  0  0  0  0  0
   -1.0422   67.7593   67.7697 H   0  0  0  0  0  0  0  0  0  0  0  0
   -1.6596   68.0148   65.2733 H   0  0  0  0  0  0  0  0  0  0  0  0
    0.2666   66.9685   63.1319 H   0  0  0  0  0  0  0  0  0  0  0  0
   -0.2399   68.6389   62.9134 H   0  0  0  0  0  0  0  0  0  0  0  0
    2.5440   67.4651   62.9093 H   0  0  0  0  0  0  0  0  0  0  0  0
    2.0195   68.9828   62.1826 H   0  0  0  0  0  0  0  0  0  0  0  0
    2.2430   70.1003   64.1741 H   0  0  0  0  0  0  0  0  0  0  0  0
    2.2459   67.5013   65.7983 H   0  0  0  0  0  0  0  0  0  0  0  0
    1.3759   70.3550   66.5325 H   0  0  0  0  0  0  0  0  0  0  0  0
    0.8258   69.3471   68.6388 H   0  0  0  0  0  0  0  0  0  0  0  0
    2.8773   70.0721   69.1251 H   0  0  0  0  0  0  0  0  0  0  0  0
    7.1645   71.8525   69.6450 H   0  0  0  0  0  0  0  0  0  0  0  0
    7.4394   70.0915   70.0311 H   0  0  0  0  0  0  0  0  0  0  0  0
    6.3720   69.8275   65.5128 H   0  0  0  0  0  0  0  0  0  0  0  0
    4.3562   68.1741   64.3721 H   0  0  0  0  0  0  0  0  0  0  0  0
    4.3421   69.9269   63.8857 H   0  0  0  0  0  0  0  0  0  0  0  0
   -1.3449   70.0734   68.2362 H   0  0  0  0  0  0  0  0  0  0  0  0
   -0.8469   66.0014   69.5690 H   0  0  0  0  0  0  0  0  0  0  0  0
   -1.2753   63.6437   70.2693 H   0  0  0  0  0  0  0  0  0  0  0  0
    0.6242   62.1716   70.9321 H   0  0  0  0  0  0  0  0  0  0  0  0
    2.9578   63.0479   70.8948 H   0  0  0  0  0  0  0  0  0  0  0  0
    3.3967   65.4017   70.1959 H   0  0  0  0  0  0  0  0  0  0  0  0
  2  1  1  0
  3  2  2  0
  4  3  1  0
  5  4  1  0
  6  5  1  0
  7  6  1  0
  7  3  1  0
  8  7  1  0
  9  8  1  0
  9  1  1  0
 10  8  1  0
 11 10  2  0
 12 11  1  0
 13 12  1  0
 14 13  1  0
 15 14  1  0
 16 15  1  0
 16 12  2  0
 17 16  1  0
 18 17  2  0
 18 10  1  0
 19  6  1  0
 19 18  1  0
 20  1  1  0
 21  9  1  0
 22 21  1  0
 23 22  2  0
 24 22  1  0
 25 24  2  0
 26 25  1  0
 27 26  2  0
 28 27  1  0
 29 24  1  0
 29 28  2  0
  1 30  1  1
  2 31  1  0
  4 32  1  0
  4 33  1  0
  5 34  1  0
  5 35  1  0
  6 36  1  6
  7 37  1  1
  8 38  1  6
  9 39  1  1
 11 40  1  0
 14 41  1  0
 14 42  1  0
 17 43  1  0
 19 44  1  0
 19 45  1  0
 20 46  1  0
 25 47  1  0
 26 48  1  0
 27 49  1  0
 28 50  1  0
 29 51  1  0
M  CHG  1   6   1
M  END
>  <score>  (3) 
-10.128

$$$$
=
     RDKit          3D

 51 56  0  0  0  0  0  0  0  0999 V2000
    0.7220   68.3620   63.6650 C   0  0  1  0  0  0  0  0  0  0  0  0
    1.6090   67.9910   62.4960 C   0  0  0  0  0  0  0  0  0  0  0  0
    2.9440   67.9440   62.5980 C   0  0  0  0  0  0  0  0  0  0  0  0
    3.9680   67.7860   61.5110 C   0  0  0  0  0  0  0  0  0  0  0  0
    5.2970   68.1970   62.1790 C   0  0  0  0  0  0  0  0  0  0  0  0
    4.8860   68.9560   63.4160 N   0  0  1  0  0  4  0  0  0  0  0  0
    3.6390   68.2770   63.8650 C   0  0  1  0  0  0  0  0  0  0  0  0
    2.8550   69.2080   64.7890 C   0  0  1  0  0  0  0  0  0  0  0  0
    1.4710   68.5530   65.0300 C   0  0  2  0  0  0  0  0  0  0  0  0
    3.7430   69.5380   65.9880 C   0  0  0  0  0  0  0  0  0  0  0  0
    3.1810   69.9400   67.2100 C   0  0  0  0  0  0  0  0  0  0  0  0
    4.0310   70.2650   68.2470 C   0  0  0  0  0  0  0  0  0  0  0  0
    3.6480   70.6620   69.4880 O   0  0  0  0  0  0  0  0  0  0  0  0
    4.9300   70.8630   70.1220 C   0  0  0  0  0  0  0  0  0  0  0  0
    6.0450   70.5770   69.2480 O   0  0  0  0  0  0  0  0  0  0  0  0
    5.3950   70.2190   68.1090 C   0  0  0  0  0  0  0  0  0  0  0  0
    5.9980   69.8480   66.9270 C   0  0  0  0  0  0  0  0  0  0  0  0
    5.1730   69.5100   65.8400 C   0  0  0  0  0  0  0  0  0  0  0  0
    5.8460   69.0700   64.5490 C   0  0  0  0  0  0  0  0  0  0  0  0
    0.1470   69.6120   63.2920 O   0  0  0  0  0  0  0  0  0  0  0  0
    1.6750   67.2860   65.6940 O   0  0  0  0  0  0  0  0  0  0  0  0
    1.1270   67.2050   66.9370 C   0  0  0  0  0  0  0  0  0  0  0  0
    1.7320   66.8630   67.9400 O   0  0  0  0  0  0  0  0  0  0  0  0
   -0.2970   67.6240   66.9200 C   0  0  0  0  0  0  0  0  0  0  0  0
   -0.6920   68.9200   66.5580 C   0  0  0  0  0  0  0  0  0  0  0  0
   -2.0470   69.2620   66.5550 C   0  0  0  0  0  0  0  0  0  0  0  0
   -3.0080   68.3150   66.9090 C   0  0  0  0  0  0  0  0  0  0  0  0
   -2.6210   67.0230   67.2630 C   0  0  0  0  0  0  0  0  0  0  0  0
   -1.2680   66.6760   67.2670 C   0  0  0  0  0  0  0  0  0  0  0  0
    0.0066   67.5455   63.8425 H   0  0  0  0  0  0  0  0  0  0  0  0
    1.1414   67.7518   61.5295 H   0  0  0  0  0  0  0  0  0  0  0  0
    4.0117   66.7427   61.1651 H   0  0  0  0  0  0  0  0  0  0  0  0
    3.7372   68.3938   60.6237 H   0  0  0  0  0  0  0  0  0  0  0  0
    5.8871   67.3084   62.4475 H   0  0  0  0  0  0  0  0  0  0  0  0
    5.9288   68.8010   61.5112 H   0  0  0  0  0  0  0  0  0  0  0  0
    4.7967   69.9456   63.1445 H   0  0  0  0  0  0  0  0  0  0  0  0
    3.7953   67.3665   64.4620 H   0  0  0  0  0  0  0  0  0  0  0  0
    2.6103   70.1999   64.3812 H   0  0  0  0  0  0  0  0  0  0  0  0
    0.8468   69.1990   65.6649 H   0  0  0  0  0  0  0  0  0  0  0  0
    2.0898   69.9945   67.3376 H   0  0  0  0  0  0  0  0  0  0  0  0
    4.9995   71.9117   70.4467 H   0  0  0  0  0  0  0  0  0  0  0  0
    4.9900   70.1648   70.9699 H   0  0  0  0  0  0  0  0  0  0  0  0
    7.0938   69.8171   66.8364 H   0  0  0  0  0  0  0  0  0  0  0  0
    6.3165   68.0893   64.7128 H   0  0  0  0  0  0  0  0  0  0  0  0
    6.5894   69.8354   64.2817 H   0  0  0  0  0  0  0  0  0  0  0  0
   -0.0882   70.1232   64.1065 H   0  0  0  0  0  0  0  0  0  0  0  0
    0.0646   69.6672   66.2765 H   0  0  0  0  0  0  0  0  0  0  0  0
   -2.3561   70.2793   66.2731 H   0  0  0  0  0  0  0  0  0  0  0  0
   -4.0736   68.5880   66.9089 H   0  0  0  0  0  0  0  0  0  0  0  0
   -3.3810   66.2772   67.5390 H   0  0  0  0  0  0  0  0  0  0  0  0
   -0.9642   65.6555   67.5434 H   0  0  0  0  0  0  0  0  0  0  0  0
  2  1  1  0
  3  2  2  0
  4  3  1  0
  5  4  1  0
  6  5  1  0
  7  6  1  0
  7  3  1  0
  8  7  1  0
  9  8  1  0
  9  1  1  0
 10  8  1  0
 11 10  2  0
 12 11  1  0
 13 12  1  0
 14 13  1  0
 15 14  1  0
 16 15  1  0
 16 12  2  0
 17 16  1  0
 18 17  2  0
 18 10  1  0
 19  6  1  0
 19 18  1  0
 20  1  1  0
 21  9  1  0
 22 21  1  0
 23 22  2  0
 24 22  1  0
 25 24  2  0
 26 25  1  0
 27 26  2  0
 28 27  1  0
 29 24  1  0
 29 28  2  0
  1 30  1  1
  2 31  1  0
  4 32  1  0
  4 33  1  0
  5 34  1  0
  5 35  1  0
  6 36  1  6
  7 37  1  1
  8 38  1  6
  9 39  1  1
 11 40  1  0
 14 41  1  0
 14 42  1  0
 17 43  1  0
 19 44  1  0
 19 45  1  0
 20 46  1  0
 25 47  1  0
 26 48  1  0
 27 49  1  0
 28 50  1  0
 29 51  1  0
M  CHG  1   6   1
M  END
>  <score>  (4) 
-9.277

$$$$
=
     RDKit          3D

 51 56  0  0  0  0  0  0  0  0999 V2000
    2.9190   57.4680   74.0290 C   0  0  1  0  0  0  0  0  0  0  0  0
    1.6990   56.7610   74.5780 C   0  0  0  0  0  0  0  0  0  0  0  0
    0.4590   57.2450   74.4200 C   0  0  0  0  0  0  0  0  0  0  0  0
   -0.8220   56.7820   75.0520 C   0  0  0  0  0  0  0  0  0  0  0  0
   -1.8080   57.9430   74.8050 C   0  0  0  0  0  0  0  0  0  0  0  0
   -0.9340   59.1220   74.4570 N   0  0  1  0  0  4  0  0  0  0  0  0
    0.2090   58.5240   73.7120 C   0  0  1  0  0  0  0  0  0  0  0  0
    1.3900   59.4930   73.7240 C   0  0  1  0  0  0  0  0  0  0  0  0
    2.6120   58.7310   73.1500 C   0  0  2  0  0  0  0  0  0  0  0  0
    0.9390   60.7910   73.0550 C   0  0  0  0  0  0  0  0  0  0  0  0
    1.8750   61.6640   72.4760 C   0  0  0  0  0  0  0  0  0  0  0  0
    1.4160   62.8420   71.9230 C   0  0  0  0  0  0  0  0  0  0  0  0
    2.1870   63.7840   71.3210 O   0  0  0  0  0  0  0  0  0  0  0  0
    1.1900   64.7630   70.9530 C   0  0  0  0  0  0  0  0  0  0  0  0
   -0.1480   64.3810   71.3400 O   0  0  0  0  0  0  0  0  0  0  0  0
    0.0880   63.1820   71.9370 C   0  0  0  0  0  0  0  0  0  0  0  0
   -0.8680   62.3700   72.5060 C   0  0  0  0  0  0  0  0  0  0  0  0
   -0.4500   61.1590   73.0860 C   0  0  0  0  0  0  0  0  0  0  0  0
   -1.5160   60.2540   73.6830 C   0  0  0  0  0  0  0  0  0  0  0  0
    3.6340   57.8920   75.1860 O   0  0  0  0  0  0  0  0  0  0  0  0
    2.3170   58.3570   71.7860 O   0  0  0  0  0  0  0  0  0  0  0  0
    3.4020   58.3120   70.9660 C   0  0  0  0  0  0  0  0  0  0  0  0
    3.8820   57.2880   70.5070 O   0  0  0  0  0  0  0  0  0  0  0  0
    3.9070   59.6770   70.6730 C   0  0  0  0  0  0  0  0  0  0  0  0
    4.8990   60.2910   71.4500 C   0  0  0  0  0  0  0  0  0  0  0  0
    5.3420   61.5770   71.1290 C   0  0  0  0  0  0  0  0  0  0  0  0
    4.8000   62.2490   70.0330 C   0  0  0  0  0  0  0  0  0  0  0  0
    3.8180   61.6410   69.2530 C   0  0  0  0  0  0  0  0  0  0  0  0
    3.3730   60.3550   69.5700 C   0  0  0  0  0  0  0  0  0  0  0  0
    3.4606   56.7799   73.3632 H   0  0  0  0  0  0  0  0  0  0  0  0
    1.8344   55.8168   75.1259 H   0  0  0  0  0  0  0  0  0  0  0  0
   -1.1804   55.8578   74.5751 H   0  0  0  0  0  0  0  0  0  0  0  0
   -0.7043   56.5497   76.1207 H   0  0  0  0  0  0  0  0  0  0  0  0
   -2.4869   57.7047   73.9729 H   0  0  0  0  0  0  0  0  0  0  0  0
   -2.4442   58.1413   75.6802 H   0  0  0  0  0  0  0  0  0  0  0  0
   -0.7064   59.5969   75.3422 H   0  0  0  0  0  0  0  0  0  0  0  0
    0.0202   58.3362   72.6447 H   0  0  0  0  0  0  0  0  0  0  0  0
    1.7299   59.8288   74.7148 H   0  0  0  0  0  0  0  0  0  0  0  0
    3.5053   59.3726   73.1653 H   0  0  0  0  0  0  0  0  0  0  0  0
    2.9464   61.4149   72.4638 H   0  0  0  0  0  0  0  0  0  0  0  0
    1.4376   65.7162   71.4429 H   0  0  0  0  0  0  0  0  0  0  0  0
    1.2028   64.8485   69.8564 H   0  0  0  0  0  0  0  0  0  0  0  0
   -1.9289   62.6606   72.5067 H   0  0  0  0  0  0  0  0  0  0  0  0
   -2.1293   59.8449   72.8666 H   0  0  0  0  0  0  0  0  0  0  0  0
   -2.1183   60.8590   74.3767 H   0  0  0  0  0  0  0  0  0  0  0  0
    3.1476   57.6036   75.9986 H   0  0  0  0  0  0  0  0  0  0  0  0
    5.3288   59.7606   72.3125 H   0  0  0  0  0  0  0  0  0  0  0  0
    6.1184   62.0596   71.7408 H   0  0  0  0  0  0  0  0  0  0  0  0
    5.1489   63.2620   69.7837 H   0  0  0  0  0  0  0  0  0  0  0  0
    3.3937   62.1730   68.3887 H   0  0  0  0  0  0  0  0  0  0  0  0
    2.6011   59.8737   68.9515 H   0  0  0  0  0  0  0  0  0  0  0  0
  2  1  1  0
  3  2  2  0
  4  3  1  0
  5  4  1  0
  6  5  1  0
  7  6  1  0
  7  3  1  0
  8  7  1  0
  9  8  1  0
  9  1  1  0
 10  8  1  0
 11 10  2  0
 12 11  1  0
 13 12  1  0
 14 13  1  0
 15 14  1  0
 16 15  1  0
 16 12  2  0
 17 16  1  0
 18 17  2  0
 18 10  1  0
 19  6  1  0
 19 18  1  0
 20  1  1  0
 21  9  1  0
 22 21  1  0
 23 22  2  0
 24 22  1  0
 25 24  2  0
 26 25  1  0
 27 26  2  0
 28 27  1  0
 29 24  1  0
 29 28  2  0
  1 30  1  6
  2 31  1  0
  4 32  1  0
  4 33  1  0
  5 34  1  0
  5 35  1  0
  6 36  1  1
  7 37  1  6
  8 38  1  1
  9 39  1  6
 11 40  1  0
 14 41  1  0
 14 42  1  0
 17 43  1  0
 19 44  1  0
 19 45  1  0
 20 46  1  0
 25 47  1  0
 26 48  1  0
 27 49  1  0
 28 50  1  0
 29 51  1  0
M  CHG  1   6   1
M  END
>  <score>  (5) 
-9.01

$$$$
=
     RDKit          3D

 51 56  0  0  0  0  0  0  0  0999 V2000
    4.4000   60.0400   71.5190 C   0  0  1  0  0  0  0  0  0  0  0  0
    4.4990   61.3960   70.8550 C   0  0  0  0  0  0  0  0  0  0  0  0
    3.5460   62.3290   70.9870 C   0  0  0  0  0  0  0  0  0  0  0  0
    3.3940   63.6320   70.2570 C   0  0  0  0  0  0  0  0  0  0  0  0
    1.9390   64.0600   70.5440 C   0  0  0  0  0  0  0  0  0  0  0  0
    1.2570   62.8030   71.0260 N   0  0  1  0  0  4  0  0  0  0  0  0
    2.3180   62.0770   71.7790 C   0  0  1  0  0  0  0  0  0  0  0  0
    1.9370   60.6020   71.9030 C   0  0  1  0  0  0  0  0  0  0  0  0
    3.1700   59.8600   72.4770 C   0  0  2  0  0  0  0  0  0  0  0  0
    0.6050   60.5220   72.6460 C   0  0  0  0  0  0  0  0  0  0  0  0
    0.2370   59.3560   73.3380 C   0  0  0  0  0  0  0  0  0  0  0  0
   -0.9950   59.3230   73.9570 C   0  0  0  0  0  0  0  0  0  0  0  0
   -1.4940   58.2790   74.6690 O   0  0  0  0  0  0  0  0  0  0  0  0
   -2.7820   58.8020   75.0600 C   0  0  0  0  0  0  0  0  0  0  0  0
   -3.0190   60.1430   74.5780 O   0  0  0  0  0  0  0  0  0  0  0  0
   -1.8640   60.3830   73.9030 C   0  0  0  0  0  0  0  0  0  0  0  0
   -1.5600   61.5420   73.2240 C   0  0  0  0  0  0  0  0  0  0  0  0
   -0.3160   61.6240   72.5730 C   0  0  0  0  0  0  0  0  0  0  0  0
    0.0250   62.9200   71.8550 C   0  0  0  0  0  0  0  0  0  0  0  0
    4.2610   59.1240   70.4360 O   0  0  0  0  0  0  0  0  0  0  0  0
    3.4520   60.3900   73.7910 O   0  0  0  0  0  0  0  0  0  0  0  0
    3.5230   59.4520   74.7740 C   0  0  0  0  0  0  0  0  0  0  0  0
    4.3930   58.6000   74.8570 O   0  0  0  0  0  0  0  0  0  0  0  0
    2.4230   59.6230   75.7550 C   0  0  0  0  0  0  0  0  0  0  0  0
    1.8860   60.8800   76.0660 C   0  0  0  0  0  0  0  0  0  0  0  0
    0.8480   60.9860   76.9950 C   0  0  0  0  0  0  0  0  0  0  0  0
    0.3410   59.8410   77.6110 C   0  0  0  0  0  0  0  0  0  0  0  0
    0.8680   58.5880   77.3010 C   0  0  0  0  0  0  0  0  0  0  0  0
    1.9050   58.4770   76.3720 C   0  0  0  0  0  0  0  0  0  0  0  0
    5.2838   59.8896   72.1563 H   0  0  0  0  0  0  0  0  0  0  0  0
    5.3839   61.6239   70.2427 H   0  0  0  0  0  0  0  0  0  0  0  0
    4.1035   64.3795   70.6415 H   0  0  0  0  0  0  0  0  0  0  0  0
    3.6009   63.5383   69.1807 H   0  0  0  0  0  0  0  0  0  0  0  0
    1.9099   64.8390   71.3201 H   0  0  0  0  0  0  0  0  0  0  0  0
    1.4479   64.4854   69.6564 H   0  0  0  0  0  0  0  0  0  0  0  0
    0.8794   62.3277   70.1939 H   0  0  0  0  0  0  0  0  0  0  0  0
    2.4624   62.4105   72.8173 H   0  0  0  0  0  0  0  0  0  0  0  0
    1.7269   60.0751   70.9605 H   0  0  0  0  0  0  0  0  0  0  0  0
    2.9646   58.7823   72.5571 H   0  0  0  0  0  0  0  0  0  0  0  0
    0.9147   58.4908   73.3849 H   0  0  0  0  0  0  0  0  0  0  0  0
   -3.5647   58.1420   74.6578 H   0  0  0  0  0  0  0  0  0  0  0  0
   -2.8005   58.8404   76.1592 H   0  0  0  0  0  0  0  0  0  0  0  0
   -2.2709   62.3808   73.1917 H   0  0  0  0  0  0  0  0  0  0  0  0
    0.1778   63.7098   72.6053 H   0  0  0  0  0  0  0  0  0  0  0  0
   -0.8108   63.1600   71.1814 H   0  0  0  0  0  0  0  0  0  0  0  0
    4.1224   58.2107   70.7920 H   0  0  0  0  0  0  0  0  0  0  0  0
    2.2820   61.7831   75.5785 H   0  0  0  0  0  0  0  0  0  0  0  0
    0.4298   61.9732   77.2412 H   0  0  0  0  0  0  0  0  0  0  0  0
   -0.4760   59.9272   78.3425 H   0  0  0  0  0  0  0  0  0  0  0  0
    0.4671   57.6869   77.7881 H   0  0  0  0  0  0  0  0  0  0  0  0
    2.3160   57.4872   76.1242 H   0  0  0  0  0  0  0  0  0  0  0  0
  2  1  1  0
  3  2  2  0
  4  3  1  0
  5  4  1  0
  6  5  1  0
  7  6  1  0
  7  3  1  0
  8  7  1  0
  9  8  1  0
  9  1  1  0
 10  8  1  0
 11 10  2  0
 12 11  1  0
 13 12  1  0
 14 13  1  0
 15 14  1  0
 16 15  1  0
 16 12  2  0
 17 16  1  0
 18 17  2  0
 18 10  1  0
 19  6  1  0
 19 18  1  0
 20  1  1  0
 21  9  1  0
 22 21  1  0
 23 22  2  0
 24 22  1  0
 25 24  2  0
 26 25  1  0
 27 26  2  0
 28 27  1  0
 29 24  1  0
 29 28  2  0
  1 30  1  1
  2 31  1  0
  4 32  1  0
  4 33  1  0
  5 34  1  0
  5 35  1  0
  6 36  1  6
  7 37  1  1
  8 38  1  6
  9 39  1  1
 11 40  1  0
 14 41  1  0
 14 42  1  0
 17 43  1  0
 19 44  1  0
 19 45  1  0
 20 46  1  0
 25 47  1  0
 26 48  1  0
 27 49  1  0
 28 50  1  0
 29 51  1  0
M  CHG  1   6   1
M  END
>  <score>  (6) 
-8.91

$$$$
