=
     RDKit          3D

 38 40  0  0  0  0  0  0  0  0999 V2000
    0.3110   68.6120   63.2510 C   0  0  1  0  0  0  0  0  0  0  0  0
    1.6530   67.9670   62.8840 C   0  0  0  0  0  0  0  0  0  0  0  0
    2.8010   68.5530   63.6980 C   0  0  0  0  0  0  0  0  0  0  0  0
    2.5990   68.3140   65.2080 C   0  0  2  0  0  0  0  0  0  0  0  0
    1.1530   68.5140   65.6640 C   0  0  0  0  0  0  0  0  0  0  0  0
    0.0830   68.6040   64.7470 C   0  0  0  0  0  0  0  0  0  0  0  0
   -1.2380   68.7180   65.2290 C   0  0  0  0  0  0  0  0  0  0  0  0
   -1.4980   68.7290   66.5970 C   0  0  0  0  0  0  0  0  0  0  0  0
   -0.4510   68.6170   67.5020 C   0  0  0  0  0  0  0  0  0  0  0  0
    0.8600   68.4980   67.0410 C   0  0  0  0  0  0  0  0  0  0  0  0
    3.6370   69.1340   65.9680 C   0  0  0  0  0  0  0  0  0  0  0  0
    4.8770   69.4720   65.4040 C   0  0  0  0  0  0  0  0  0  0  0  0
    5.8150   70.2090   66.1350 C   0  0  0  0  0  0  0  0  0  0  0  0
    5.5330   70.6140   67.4430 C   0  0  0  0  0  0  0  0  0  0  0  0
    4.3050   70.2790   68.0200 C   0  0  0  0  0  0  0  0  0  0  0  0
    3.3660   69.5440   67.2850 C   0  0  0  0  0  0  0  0  0  0  0  0
    3.8820   70.7350   69.6310 Cl  0  0  0  0  0  0  0  0  0  0  0  0
    6.7410   71.5150   68.2830 Cl  0  0  0  0  0  0  0  0  0  0  0  0
   -0.0130   70.2040   61.2940 C   0  0  0  0  0  0  0  0  0  0  0  0
    0.2340   70.0270   62.7480 N   0  0  0  0  0  4  0  0  0  0  0  0
   -0.4737   68.0116   62.7676 H   0  0  0  0  0  0  0  0  0  0  0  0
    1.5939   66.8858   63.0779 H   0  0  0  0  0  0  0  0  0  0  0  0
    1.8499   68.1662   61.8203 H   0  0  0  0  0  0  0  0  0  0  0  0
    3.7420   68.0782   63.3832 H   0  0  0  0  0  0  0  0  0  0  0  0
    2.8330   69.6381   63.5203 H   0  0  0  0  0  0  0  0  0  0  0  0
    2.7718   67.2535   65.4436 H   0  0  0  0  0  0  0  0  0  0  0  0
   -2.0719   68.7991   64.5162 H   0  0  0  0  0  0  0  0  0  0  0  0
   -2.5317   68.8263   66.9602 H   0  0  0  0  0  0  0  0  0  0  0  0
   -0.6555   68.6221   68.5828 H   0  0  0  0  0  0  0  0  0  0  0  0
    1.6798   68.3897   67.7664 H   0  0  0  0  0  0  0  0  0  0  0  0
    5.1135   69.1545   64.3777 H   0  0  0  0  0  0  0  0  0  0  0  0
    6.7804   70.4714   65.6777 H   0  0  0  0  0  0  0  0  0  0  0  0
    2.4016   69.2836   67.7455 H   0  0  0  0  0  0  0  0  0  0  0  0
   -0.8991   70.8390   61.1472 H   0  0  0  0  0  0  0  0  0  0  0  0
    0.8618   70.6821   60.8290 H   0  0  0  0  0  0  0  0  0  0  0  0
   -0.1845   69.2220   60.8290 H   0  0  0  0  0  0  0  0  0  0  0  0
    1.1281   70.4870   62.9712 H   0  0  0  0  0  0  0  0  0  0  0  0
   -0.5878   70.4365   63.2147 H   0  0  0  0  0  0  0  0  0  0  0  0
  2  1  1  0
  3  2  1  0
  4  3  1  0
  5  4  1  0
  6  1  1  0
  6  5  2  0
  7  6  1  0
  8  7  2  0
  9  8  1  0
 10  9  2  0
 10  5  1  0
 11  4  1  0
 12 11  2  0
 13 12  1  0
 14 13  2  0
 15 14  1  0
 16 15  2  0
 16 11  1  0
 17 15  1  0
 18 14  1  0
 20 19  1  0
 20  1  1  0
  1 21  1  6
  2 22  1  0
  2 23  1  0
  3 24  1  0
  3 25  1  0
  4 26  1  6
  7 27  1  0
  8 28  1  0
  9 29  1  0
 10 30  1  0
 12 31  1  0
 13 32  1  0
 16 33  1  0
 19 34  1  0
 19 35  1  0
 19 36  1  0
 20 37  1  0
 20 38  1  0
M  CHG  1  20   1
M  END
>  <score>  (1) 
-10.249

$$$$
=
     RDKit          3D

 38 40  0  0  0  0  0  0  0  0999 V2000
    4.0930   68.2080   62.2990 C   0  0  1  0  0  0  0  0  0  0  0  0
    2.7360   68.6660   61.7520 C   0  0  0  0  0  0  0  0  0  0  0  0
    1.6030   68.3520   62.7220 C   0  0  0  0  0  0  0  0  0  0  0  0
    1.7990   69.0760   64.0700 C   0  0  2  0  0  0  0  0  0  0  0  0
    3.2500   69.0700   64.5540 C   0  0  0  0  0  0  0  0  0  0  0  0
    4.3220   68.7100   63.7080 C   0  0  0  0  0  0  0  0  0  0  0  0
    5.6450   68.7900   64.1900 C   0  0  0  0  0  0  0  0  0  0  0  0
    5.9060   69.2330   65.4840 C   0  0  0  0  0  0  0  0  0  0  0  0
    4.8570   69.6110   66.3110 C   0  0  0  0  0  0  0  0  0  0  0  0
    3.5430   69.5430   65.8480 C   0  0  0  0  0  0  0  0  0  0  0  0
    0.7820   68.5260   65.0640 C   0  0  0  0  0  0  0  0  0  0  0  0
    1.1400   67.6060   66.0630 C   0  0  0  0  0  0  0  0  0  0  0  0
    0.1780   67.1060   66.9470 C   0  0  0  0  0  0  0  0  0  0  0  0
   -1.1560   67.5090   66.8440 C   0  0  0  0  0  0  0  0  0  0  0  0
   -1.5290   68.4190   65.8510 C   0  0  0  0  0  0  0  0  0  0  0  0
   -0.5630   68.9220   64.9690 C   0  0  0  0  0  0  0  0  0  0  0  0
   -3.1560   68.9620   65.6530 Cl  0  0  0  0  0  0  0  0  0  0  0  0
   -2.2850   66.8440   67.9670 Cl  0  0  0  0  0  0  0  0  0  0  0  0
    4.1670   66.0260   63.6050 C   0  0  0  0  0  0  0  0  0  0  0  0
    4.2040   66.7080   62.2860 N   0  0  0  0  0  4  0  0  0  0  0  0
    4.8625   68.6356   61.6394 H   0  0  0  0  0  0  0  0  0  0  0  0
    2.7685   69.7522   61.5812 H   0  0  0  0  0  0  0  0  0  0  0  0
    2.5441   68.1254   60.8135 H   0  0  0  0  0  0  0  0  0  0  0  0
    0.6507   68.6760   62.2769 H   0  0  0  0  0  0  0  0  0  0  0  0
    1.5978   67.2680   62.9089 H   0  0  0  0  0  0  0  0  0  0  0  0
    1.5998   70.1509   63.9482 H   0  0  0  0  0  0  0  0  0  0  0  0
    6.4803   68.4991   63.5361 H   0  0  0  0  0  0  0  0  0  0  0  0
    6.9419   69.2834   65.8505 H   0  0  0  0  0  0  0  0  0  0  0  0
    5.0622   69.9644   67.3323 H   0  0  0  0  0  0  0  0  0  0  0  0
    2.7213   69.8644   66.5049 H   0  0  0  0  0  0  0  0  0  0  0  0
    2.1856   67.2759   66.1510 H   0  0  0  0  0  0  0  0  0  0  0  0
    0.4737   66.3907   67.7286 H   0  0  0  0  0  0  0  0  0  0  0  0
   -0.8624   69.6383   64.1898 H   0  0  0  0  0  0  0  0  0  0  0  0
    4.2078   66.7772   64.4075 H   0  0  0  0  0  0  0  0  0  0  0  0
    3.2361   65.4465   63.6922 H   0  0  0  0  0  0  0  0  0  0  0  0
    5.0297   65.3492   63.6922 H   0  0  0  0  0  0  0  0  0  0  0  0
    5.0968   66.4648   61.8336 H   0  0  0  0  0  0  0  0  0  0  0  0
    3.3656   66.3784   61.7867 H   0  0  0  0  0  0  0  0  0  0  0  0
  2  1  1  0
  3  2  1  0
  4  3  1  0
  5  4  1  0
  6  1  1  0
  6  5  2  0
  7  6  1  0
  8  7  2  0
  9  8  1  0
 10  9  2  0
 10  5  1  0
 11  4  1  0
 12 11  2  0
 13 12  1  0
 14 13  2  0
 15 14  1  0
 16 15  2  0
 16 11  1  0
 17 15  1  0
 18 14  1  0
 20 19  1  0
 20  1  1  0
  1 21  1  6
  2 22  1  0
  2 23  1  0
  3 24  1  0
  3 25  1  0
  4 26  1  6
  7 27  1  0
  8 28  1  0
  9 29  1  0
 10 30  1  0
 12 31  1  0
 13 32  1  0
 16 33  1  0
 19 34  1  0
 19 35  1  0
 19 36  1  0
 20 37  1  0
 20 38  1  0
M  CHG  1  20   1
M  END
>  <score>  (2) 
-10.151

$$$$
=
     RDKit          3D

 38 40  0  0  0  0  0  0  0  0999 V2000
    2.2290   66.5430   64.5800 C   0  0  1  0  0  0  0  0  0  0  0  0
    1.4420   67.5060   65.4770 C   0  0  0  0  0  0  0  0  0  0  0  0
    2.3650   68.3030   66.3920 C   0  0  0  0  0  0  0  0  0  0  0  0
    3.3520   69.1670   65.5810 C   0  0  2  0  0  0  0  0  0  0  0  0
    3.9180   68.4490   64.3550 C   0  0  0  0  0  0  0  0  0  0  0  0
    3.3590   67.2490   63.8630 C   0  0  0  0  0  0  0  0  0  0  0  0
    3.8800   66.6700   62.6880 C   0  0  0  0  0  0  0  0  0  0  0  0
    4.9290   67.2750   62.0000 C   0  0  0  0  0  0  0  0  0  0  0  0
    5.4660   68.4670   62.4660 C   0  0  0  0  0  0  0  0  0  0  0  0
    4.9580   69.0560   63.6240 C   0  0  0  0  0  0  0  0  0  0  0  0
    4.3950   69.7330   66.5380 C   0  0  0  0  0  0  0  0  0  0  0  0
    5.7470   69.8550   66.1800 C   0  0  0  0  0  0  0  0  0  0  0  0
    6.6820   70.3600   67.0890 C   0  0  0  0  0  0  0  0  0  0  0  0
    6.2850   70.7440   68.3730 C   0  0  0  0  0  0  0  0  0  0  0  0
    4.9440   70.6220   68.7470 C   0  0  0  0  0  0  0  0  0  0  0  0
    4.0090   70.1190   67.8340 C   0  0  0  0  0  0  0  0  0  0  0  0
    4.3740   71.0680   70.3150 Cl  0  0  0  0  0  0  0  0  0  0  0  0
    7.4970   71.3520   69.4400 Cl  0  0  0  0  0  0  0  0  0  0  0  0
    3.4260   64.2980   64.6040 C   0  0  0  0  0  0  0  0  0  0  0  0
    2.7890   65.3960   65.3760 N   0  0  0  0  0  4  0  0  0  0  0  0
    1.5215   66.1552   63.8323 H   0  0  0  0  0  0  0  0  0  0  0  0
    0.8785   68.2053   64.8418 H   0  0  0  0  0  0  0  0  0  0  0  0
    0.7631   66.9121   66.1065 H   0  0  0  0  0  0  0  0  0  0  0  0
    1.7560   68.9595   67.0309 H   0  0  0  0  0  0  0  0  0  0  0  0
    2.9450   67.5942   67.0013 H   0  0  0  0  0  0  0  0  0  0  0  0
    2.8183   70.0153   65.1275 H   0  0  0  0  0  0  0  0  0  0  0  0
    3.4530   65.7293   62.3101 H   0  0  0  0  0  0  0  0  0  0  0  0
    5.3314   66.8088   61.0886 H   0  0  0  0  0  0  0  0  0  0  0  0
    6.2925   68.9475   61.9219 H   0  0  0  0  0  0  0  0  0  0  0  0
    5.3770   70.0115   63.9725 H   0  0  0  0  0  0  0  0  0  0  0  0
    6.0740   69.5504   65.1748 H   0  0  0  0  0  0  0  0  0  0  0  0
    7.7367   70.4557   66.7916 H   0  0  0  0  0  0  0  0  0  0  0  0
    2.9554   70.0243   68.1355 H   0  0  0  0  0  0  0  0  0  0  0  0
    3.8536   63.5609   65.2996 H   0  0  0  0  0  0  0  0  0  0  0  0
    2.6711   63.8094   63.9704 H   0  0  0  0  0  0  0  0  0  0  0  0
    4.2249   64.7108   63.9704 H   0  0  0  0  0  0  0  0  0  0  0  0
    2.0164   64.9873   65.9209 H   0  0  0  0  0  0  0  0  0  0  0  0
    3.5460   65.8035   65.9432 H   0  0  0  0  0  0  0  0  0  0  0  0
  2  1  1  0
  3  2  1  0
  4  3  1  0
  5  4  1  0
  6  1  1  0
  6  5  2  0
  7  6  1  0
  8  7  2  0
  9  8  1  0
 10  9  2  0
 10  5  1  0
 11  4  1  0
 12 11  2  0
 13 12  1  0
 14 13  2  0
 15 14  1  0
 16 15  2  0
 16 11  1  0
 17 15  1  0
 18 14  1  0
 20 19  1  0
 20  1  1  0
  1 21  1  6
  2 22  1  0
  2 23  1  0
  3 24  1  0
  3 25  1  0
  4 26  1  6
  7 27  1  0
  8 28  1  0
  9 29  1  0
 10 30  1  0
 12 31  1  0
 13 32  1  0
 16 33  1  0
 19 34  1  0
 19 35  1  0
 19 36  1  0
 20 37  1  0
 20 38  1  0
M  CHG  1  20   1
M  END
>  <score>  (3) 
-10.127

$$$$
=
     RDKit          3D

 38 40  0  0  0  0  0  0  0  0999 V2000
    4.3510   68.8500   63.9900 C   0  0  1  0  0  0  0  0  0  0  0  0
    2.8730   68.9440   63.5940 C   0  0  0  0  0  0  0  0  0  0  0  0
    1.9650   68.3410   64.6590 C   0  0  0  0  0  0  0  0  0  0  0  0
    2.1060   69.0830   66.0040 C   0  0  2  0  0  0  0  0  0  0  0  0
    3.5520   69.4490   66.3440 C   0  0  0  0  0  0  0  0  0  0  0  0
    4.5870   69.3850   65.3860 C   0  0  0  0  0  0  0  0  0  0  0  0
    5.8870   69.8020   65.7380 C   0  0  0  0  0  0  0  0  0  0  0  0
    6.1570   70.2900   67.0150 C   0  0  0  0  0  0  0  0  0  0  0  0
    5.1370   70.3770   67.9520 C   0  0  0  0  0  0  0  0  0  0  0  0
    3.8450   69.9730   67.6180 C   0  0  0  0  0  0  0  0  0  0  0  0
    1.3730   68.2810   67.0750 C   0  0  0  0  0  0  0  0  0  0  0  0
    1.9910   67.9060   68.2780 C   0  0  0  0  0  0  0  0  0  0  0  0
    1.2960   67.1530   69.2300 C   0  0  0  0  0  0  0  0  0  0  0  0
   -0.0230   66.7570   68.9950 C   0  0  0  0  0  0  0  0  0  0  0  0
   -0.6500   67.1170   67.7990 C   0  0  0  0  0  0  0  0  0  0  0  0
    0.0470   67.8730   66.8470 C   0  0  0  0  0  0  0  0  0  0  0  0
   -2.2730   66.6610   67.4280 Cl  0  0  0  0  0  0  0  0  0  0  0  0
   -0.8120   65.8260   70.2150 Cl  0  0  0  0  0  0  0  0  0  0  0  0
    4.4300   66.6440   62.7250 C   0  0  0  0  0  0  0  0  0  0  0  0
    4.8430   67.4300   63.9160 N   0  0  0  0  0  4  0  0  0  0  0  0
    4.9123   69.4670   63.2728 H   0  0  0  0  0  0  0  0  0  0  0  0
    2.6073   70.0026   63.4567 H   0  0  0  0  0  0  0  0  0  0  0  0
    2.7310   68.3779   62.6616 H   0  0  0  0  0  0  0  0  0  0  0  0
    0.9208   68.4098   64.3199 H   0  0  0  0  0  0  0  0  0  0  0  0
    2.2578   67.2915   64.8100 H   0  0  0  0  0  0  0  0  0  0  0  0
    1.6257   70.0703   65.9367 H   0  0  0  0  0  0  0  0  0  0  0  0
    6.6971   69.7414   64.9963 H   0  0  0  0  0  0  0  0  0  0  0  0
    7.1769   70.6057   67.2799 H   0  0  0  0  0  0  0  0  0  0  0  0
    5.3481   70.7651   68.9594 H   0  0  0  0  0  0  0  0  0  0  0  0
    3.0405   70.0651   68.3625 H   0  0  0  0  0  0  0  0  0  0  0  0
    3.0308   68.2068   68.4738 H   0  0  0  0  0  0  0  0  0  0  0  0
    1.7915   66.8705   70.1706 H   0  0  0  0  0  0  0  0  0  0  0  0
   -0.4511   68.1516   65.9066 H   0  0  0  0  0  0  0  0  0  0  0  0
    3.9413   65.7140   63.0509 H   0  0  0  0  0  0  0  0  0  0  0  0
    3.7264   67.2358   62.1211 H   0  0  0  0  0  0  0  0  0  0  0  0
    5.3165   66.4003   62.1211 H   0  0  0  0  0  0  0  0  0  0  0  0
    4.4982   66.9359   64.7514 H   0  0  0  0  0  0  0  0  0  0  0  0
    5.8686   67.5010   63.8522 H   0  0  0  0  0  0  0  0  0  0  0  0
  2  1  1  0
  3  2  1  0
  4  3  1  0
  5  4  1  0
  6  1  1  0
  6  5  2  0
  7  6  1  0
  8  7  2  0
  9  8  1  0
 10  9  2  0
 10  5  1  0
 11  4  1  0
 12 11  2  0
 13 12  1  0
 14 13  2  0
 15 14  1  0
 16 15  2  0
 16 11  1  0
 17 15  1  0
 18 14  1  0
 20 19  1  0
 20  1  1  0
  1 21  1  6
  2 22  1  0
  2 23  1  0
  3 24  1  0
  3 25  1  0
  4 26  1  6
  7 27  1  0
  8 28  1  0
  9 29  1  0
 10 30  1  0
 12 31  1  0
 13 32  1  0
 16 33  1  0
 19 34  1  0
 19 35  1  0
 19 36  1  0
 20 37  1  0
 20 38  1  0
M  CHG  1  20   1
M  END
>  <score>  (4) 
-9.81

$$$$
=
     RDKit          3D

 38 40  0  0  0  0  0  0  0  0999 V2000
    4.6280   67.6710   62.8150 C   0  0  1  0  0  0  0  0  0  0  0  0
    4.5150   68.9480   63.6560 C   0  0  0  0  0  0  0  0  0  0  0  0
    3.1470   69.0700   64.3160 C   0  0  0  0  0  0  0  0  0  0  0  0
    2.8770   67.8910   65.2730 C   0  0  2  0  0  0  0  0  0  0  0  0
    3.3470   66.5440   64.7200 C   0  0  0  0  0  0  0  0  0  0  0  0
    4.2040   66.4500   63.6020 C   0  0  0  0  0  0  0  0  0  0  0  0
    4.6600   65.1840   63.1810 C   0  0  0  0  0  0  0  0  0  0  0  0
    4.2870   64.0280   63.8640 C   0  0  0  0  0  0  0  0  0  0  0  0
    3.4650   64.1190   64.9780 C   0  0  0  0  0  0  0  0  0  0  0  0
    3.0090   65.3640   65.4110 C   0  0  0  0  0  0  0  0  0  0  0  0
    1.4130   67.9400   65.6970 C   0  0  0  0  0  0  0  0  0  0  0  0
    0.4410   68.6150   64.9410 C   0  0  0  0  0  0  0  0  0  0  0  0
   -0.8900   68.6590   65.3680 C   0  0  0  0  0  0  0  0  0  0  0  0
   -1.2710   68.0370   66.5600 C   0  0  0  0  0  0  0  0  0  0  0  0
   -0.3150   67.3670   67.3270 C   0  0  0  0  0  0  0  0  0  0  0  0
    1.0170   67.3220   66.8960 C   0  0  0  0  0  0  0  0  0  0  0  0
   -0.7020   66.5790   68.8140 Cl  0  0  0  0  0  0  0  0  0  0  0  0
   -2.9310   68.1380   67.0240 Cl  0  0  0  0  0  0  0  0  0  0  0  0
    3.6830   69.1120   60.9440 C   0  0  0  0  0  0  0  0  0  0  0  0
    3.7930   67.7690   61.5680 N   0  0  0  0  0  4  0  0  0  0  0  0
    5.6868   67.5648   62.5362 H   0  0  0  0  0  0  0  0  0  0  0  0
    5.2878   68.9288   64.4386 H   0  0  0  0  0  0  0  0  0  0  0  0
    4.6512   69.8112   62.9880 H   0  0  0  0  0  0  0  0  0  0  0  0
    3.1071   70.0100   64.8859 H   0  0  0  0  0  0  0  0  0  0  0  0
    2.3799   69.0588   63.5277 H   0  0  0  0  0  0  0  0  0  0  0  0
    3.4918   67.9988   66.1787 H   0  0  0  0  0  0  0  0  0  0  0  0
    5.3181   65.1079   62.3029 H   0  0  0  0  0  0  0  0  0  0  0  0
    4.6435   63.0456   63.5207 H   0  0  0  0  0  0  0  0  0  0  0  0
    3.1725   63.2079   65.5205 H   0  0  0  0  0  0  0  0  0  0  0  0
    2.3745   65.4254   66.3075 H   0  0  0  0  0  0  0  0  0  0  0  0
    0.7293   69.1139   64.0040 H   0  0  0  0  0  0  0  0  0  0  0  0
   -1.6415   69.1863   64.7620 H   0  0  0  0  0  0  0  0  0  0  0  0
    1.7654   66.7945   67.5056 H   0  0  0  0  0  0  0  0  0  0  0  0
    3.6203   69.8780   61.7310 H   0  0  0  0  0  0  0  0  0  0  0  0
    4.5688   69.2998   60.3194 H   0  0  0  0  0  0  0  0  0  0  0  0
    2.7785   69.1531   60.3194 H   0  0  0  0  0  0  0  0  0  0  0  0
    2.8408   67.4555   61.8044 H   0  0  0  0  0  0  0  0  0  0  0  0
    4.2770   67.1851   60.8711 H   0  0  0  0  0  0  0  0  0  0  0  0
  2  1  1  0
  3  2  1  0
  4  3  1  0
  5  4  1  0
  6  1  1  0
  6  5  2  0
  7  6  1  0
  8  7  2  0
  9  8  1  0
 10  9  2  0
 10  5  1  0
 11  4  1  0
 12 11  2  0
 13 12  1  0
 14 13  2  0
 15 14  1  0
 16 15  2  0
 16 11  1  0
 17 15  1  0
 18 14  1  0
 20 19  1  0
 20  1  1  0
  1 21  1  6
  2 22  1  0
  2 23  1  0
  3 24  1  0
  3 25  1  0
  4 26  1  1
  7 27  1  0
  8 28  1  0
  9 29  1  0
 10 30  1  0
 12 31  1  0
 13 32  1  0
 16 33  1  0
 19 34  1  0
 19 35  1  0
 19 36  1  0
 20 37  1  0
 20 38  1  0
M  CHG  1  20   1
M  END
>  <score>  (5) 
-9.281

$$$$
=
     RDKit          3D

 38 40  0  0  0  0  0  0  0  0999 V2000
    2.0070   66.9710   64.5470 C   0  0  1  0  0  0  0  0  0  0  0  0
    1.1920   67.8410   65.5110 C   0  0  0  0  0  0  0  0  0  0  0  0
    2.0730   68.4780   66.5790 C   0  0  0  0  0  0  0  0  0  0  0  0
    3.1400   69.4000   65.9520 C   0  0  2  0  0  0  0  0  0  0  0  0
    3.7660   68.8230   64.6810 C   0  0  0  0  0  0  0  0  0  0  0  0
    3.2040   67.7190   64.0030 C   0  0  0  0  0  0  0  0  0  0  0  0
    3.7860   67.2750   62.7970 C   0  0  0  0  0  0  0  0  0  0  0  0
    4.8980   67.9220   62.2620 C   0  0  0  0  0  0  0  0  0  0  0  0
    5.4380   69.0220   62.9130 C   0  0  0  0  0  0  0  0  0  0  0  0
    4.8710   69.4770   64.1040 C   0  0  0  0  0  0  0  0  0  0  0  0
    4.1320   69.7960   67.0400 C   0  0  0  0  0  0  0  0  0  0  0  0
    3.7160   70.1650   68.3290 C   0  0  0  0  0  0  0  0  0  0  0  0
    4.6510   70.5430   69.2980 C   0  0  0  0  0  0  0  0  0  0  0  0
    6.0150   70.5670   68.9940 C   0  0  0  0  0  0  0  0  0  0  0  0
    6.4440   70.2090   67.7130 C   0  0  0  0  0  0  0  0  0  0  0  0
    5.5060   69.8280   66.7450 C   0  0  0  0  0  0  0  0  0  0  0  0
    8.1090   70.2190   67.2550 Cl  0  0  0  0  0  0  0  0  0  0  0  0
    7.1070   71.0490   70.2400 Cl  0  0  0  0  0  0  0  0  0  0  0  0
    3.3190   64.7960   64.4080 C   0  0  0  0  0  0  0  0  0  0  0  0
    2.4770   65.7110   65.2210 N   0  0  0  0  0  4  0  0  0  0  0  0
    1.3407   66.7097   63.7117 H   0  0  0  0  0  0  0  0  0  0  0  0
    0.6943   68.6373   64.9382 H   0  0  0  0  0  0  0  0  0  0  0  0
    0.4554   67.1972   66.0139 H   0  0  0  0  0  0  0  0  0  0  0  0
    1.4415   69.0708   67.2571 H   0  0  0  0  0  0  0  0  0  0  0  0
    2.5879   67.6753   67.1272 H   0  0  0  0  0  0  0  0  0  0  0  0
    2.6657   70.3202   65.5800 H   0  0  0  0  0  0  0  0  0  0  0  0
    3.3570   66.4081   62.2731 H   0  0  0  0  0  0  0  0  0  0  0  0
    5.3472   67.5613   61.3249 H   0  0  0  0  0  0  0  0  0  0  0  0
    6.3138   69.5357   62.4898 H   0  0  0  0  0  0  0  0  0  0  0  0
    5.2949   70.3622   64.6007 H   0  0  0  0  0  0  0  0  0  0  0  0
    2.6449   70.1568   68.5792 H   0  0  0  0  0  0  0  0  0  0  0  0
    4.3107   70.8232   70.3058 H   0  0  0  0  0  0  0  0  0  0  0  0
    5.8500   69.5494   65.7380 H   0  0  0  0  0  0  0  0  0  0  0  0
    3.9111   64.1526   65.0754 H   0  0  0  0  0  0  0  0  0  0  0  0
    2.6738   64.1708   63.7733 H   0  0  0  0  0  0  0  0  0  0  0  0
    3.9956   65.3872   63.7733 H   0  0  0  0  0  0  0  0  0  0  0  0
    1.6424   65.1859   65.5187 H   0  0  0  0  0  0  0  0  0  0  0  0
    3.0837   66.0254   65.9917 H   0  0  0  0  0  0  0  0  0  0  0  0
  2  1  1  0
  3  2  1  0
  4  3  1  0
  5  4  1  0
  6  1  1  0
  6  5  2  0
  7  6  1  0
  8  7  2  0
  9  8  1  0
 10  9  2  0
 10  5  1  0
 11  4  1  0
 12 11  2  0
 13 12  1  0
 14 13  2  0
 15 14  1  0
 16 15  2  0
 16 11  1  0
 17 15  1  0
 18 14  1  0
 20 19  1  0
 20  1  1  0
  1 21  1  6
  2 22  1  0
  2 23  1  0
  3 24  1  0
  3 25  1  0
  4 26  1  6
  7 27  1  0
  8 28  1  0
  9 29  1  0
 10 30  1  0
 12 31  1  0
 13 32  1  0
 16 33  1  0
 19 34  1  0
 19 35  1  0
 19 36  1  0
 20 37  1  0
 20 38  1  0
M  CHG  1  20   1
M  END
>  <score>  (6) 
-9.095

$$$$
=
     RDKit          3D

 38 40  0  0  0  0  0  0  0  0999 V2000
    2.1490   57.8050   74.5310 C   0  0  1  0  0  0  0  0  0  0  0  0
    3.4960   58.5240   74.6670 C   0  0  0  0  0  0  0  0  0  0  0  0
    3.8110   59.3700   73.4390 C   0  0  0  0  0  0  0  0  0  0  0  0
    2.7480   60.4670   73.2230 C   0  0  2  0  0  0  0  0  0  0  0  0
    1.3190   59.9830   73.4790 C   0  0  0  0  0  0  0  0  0  0  0  0
    1.0460   58.7620   74.1340 C   0  0  0  0  0  0  0  0  0  0  0  0
   -0.2900   58.4020   74.4040 C   0  0  0  0  0  0  0  0  0  0  0  0
   -1.3410   59.2430   74.0460 C   0  0  0  0  0  0  0  0  0  0  0  0
   -1.0750   60.4560   73.4240 C   0  0  0  0  0  0  0  0  0  0  0  0
    0.2410   60.8290   73.1540 C   0  0  0  0  0  0  0  0  0  0  0  0
    2.9820   61.1010   71.8570 C   0  0  0  0  0  0  0  0  0  0  0  0
    3.5930   60.4010   70.8050 C   0  0  0  0  0  0  0  0  0  0  0  0
    3.8100   61.0190   69.5690 C   0  0  0  0  0  0  0  0  0  0  0  0
    3.4290   62.3480   69.3660 C   0  0  0  0  0  0  0  0  0  0  0  0
    2.8260   63.0610   70.4050 C   0  0  0  0  0  0  0  0  0  0  0  0
    2.6060   62.4390   71.6410 C   0  0  0  0  0  0  0  0  0  0  0  0
    2.3320   64.7070   70.2370 Cl  0  0  0  0  0  0  0  0  0  0  0  0
    3.7350   63.0430   67.8160 Cl  0  0  0  0  0  0  0  0  0  0  0  0
    1.8760   55.3330   73.9940 C   0  0  0  0  0  0  0  0  0  0  0  0
    2.2280   56.6960   73.5180 N   0  0  0  0  0  4  0  0  0  0  0  0
    1.9132   57.3807   75.5181 H   0  0  0  0  0  0  0  0  0  0  0  0
    3.4633   59.1776   75.5511 H   0  0  0  0  0  0  0  0  0  0  0  0
    4.2824   57.7616   74.7686 H   0  0  0  0  0  0  0  0  0  0  0  0
    4.7936   59.8456   73.5746 H   0  0  0  0  0  0  0  0  0  0  0  0
    3.8138   58.7124   72.5572 H   0  0  0  0  0  0  0  0  0  0  0  0
    2.8655   61.2546   73.9818 H   0  0  0  0  0  0  0  0  0  0  0  0
   -0.5050   57.4457   74.9033 H   0  0  0  0  0  0  0  0  0  0  0  0
   -2.3795   58.9471   74.2555 H   0  0  0  0  0  0  0  0  0  0  0  0
   -1.9036   61.1232   73.1441 H   0  0  0  0  0  0  0  0  0  0  0  0
    0.4407   61.8008   72.6789 H   0  0  0  0  0  0  0  0  0  0  0  0
    3.9042   59.3565   70.9539 H   0  0  0  0  0  0  0  0  0  0  0  0
    4.2835   60.4553   68.7517 H   0  0  0  0  0  0  0  0  0  0  0  0
    2.1316   63.0061   72.4555 H   0  0  0  0  0  0  0  0  0  0  0  0
    1.8722   55.3183   75.0939 H   0  0  0  0  0  0  0  0  0  0  0  0
    0.8780   55.0604   73.6202 H   0  0  0  0  0  0  0  0  0  0  0  0
    2.6172   54.6113   73.6202 H   0  0  0  0  0  0  0  0  0  0  0  0
    3.1951   56.6636   73.1651 H   0  0  0  0  0  0  0  0  0  0  0  0
    1.5191   56.9267   72.8073 H   0  0  0  0  0  0  0  0  0  0  0  0
  2  1  1  0
  3  2  1  0
  4  3  1  0
  5  4  1  0
  6  1  1  0
  6  5  2  0
  7  6  1  0
  8  7  2  0
  9  8  1  0
 10  9  2  0
 10  5  1  0
 11  4  1  0
 12 11  2  0
 13 12  1  0
 14 13  2  0
 15 14  1  0
 16 15  2  0
 16 11  1  0
 17 15  1  0
 18 14  1  0
 20 19  1  0
 20  1  1  0
  1 21  1  1
  2 22  1  0
  2 23  1  0
  3 24  1  0
  3 25  1  0
  4 26  1  1
  7 27  1  0
  8 28  1  0
  9 29  1  0
 10 30  1  0
 12 31  1  0
 13 32  1  0
 16 33  1  0
 19 34  1  0
 19 35  1  0
 19 36  1  0
 20 37  1  0
 20 38  1  0
M  CHG  1  20   1
M  END
>  <score>  (7) 
-8.508

$$$$
=
     RDKit          3D

 38 40  0  0  0  0  0  0  0  0999 V2000
    3.6850   68.7150   64.1160 C   0  0  1  0  0  0  0  0  0  0  0  0
    2.1780   68.7100   63.8310 C   0  0  0  0  0  0  0  0  0  0  0  0
    1.3950   68.0400   64.9540 C   0  0  0  0  0  0  0  0  0  0  0  0
    1.5850   68.7820   66.2930 C   0  0  2  0  0  0  0  0  0  0  0  0
    3.0240   69.2450   66.5290 C   0  0  0  0  0  0  0  0  0  0  0  0
    3.9870   69.2570   65.4960 C   0  0  0  0  0  0  0  0  0  0  0  0
    5.2790   69.7610   65.7560 C   0  0  0  0  0  0  0  0  0  0  0  0
    5.6100   70.2580   67.0140 C   0  0  0  0  0  0  0  0  0  0  0  0
    4.6590   70.2700   68.0250 C   0  0  0  0  0  0  0  0  0  0  0  0
    3.3750   69.7810   67.7830 C   0  0  0  0  0  0  0  0  0  0  0  0
    0.9900   67.9260   67.4060 C   0  0  0  0  0  0  0  0  0  0  0  0
   -0.3940   67.8500   67.6280 C   0  0  0  0  0  0  0  0  0  0  0  0
   -0.9050   67.0710   68.6710 C   0  0  0  0  0  0  0  0  0  0  0  0
   -0.0450   66.3620   69.5140 C   0  0  0  0  0  0  0  0  0  0  0  0
    1.3360   66.4330   69.3100 C   0  0  0  0  0  0  0  0  0  0  0  0
    1.8460   67.2120   68.2630 C   0  0  0  0  0  0  0  0  0  0  0  0
    2.4660   65.5940   70.3100 Cl  0  0  0  0  0  0  0  0  0  0  0  0
   -0.7510   65.4270   70.7810 Cl  0  0  0  0  0  0  0  0  0  0  0  0
    4.5010   66.8330   62.6120 C   0  0  0  0  0  0  0  0  0  0  0  0
    4.2650   67.3330   63.9910 N   0  0  0  0  0  4  0  0  0  0  0  0
    4.1484   69.3727   63.3659 H   0  0  0  0  0  0  0  0  0  0  0  0
    1.8316   69.7487   63.7251 H   0  0  0  0  0  0  0  0  0  0  0  0
    2.0056   68.1411   62.9055 H   0  0  0  0  0  0  0  0  0  0  0  0
    0.3262   68.0390   64.6939 H   0  0  0  0  0  0  0  0  0  0  0  0
    1.7691   67.0123   65.0716 H   0  0  0  0  0  0  0  0  0  0  0  0
    1.0350   69.7344   66.2723 H   0  0  0  0  0  0  0  0  0  0  0  0
    6.0336   69.7613   64.9556 H   0  0  0  0  0  0  0  0  0  0  0  0
    6.6233   70.6404   67.2062 H   0  0  0  0  0  0  0  0  0  0  0  0
    4.9181   70.6655   69.0182 H   0  0  0  0  0  0  0  0  0  0  0  0
    2.6237   69.8147   68.5857 H   0  0  0  0  0  0  0  0  0  0  0  0
   -1.0824   68.4079   66.9761 H   0  0  0  0  0  0  0  0  0  0  0  0
   -1.9922   67.0159   68.8290 H   0  0  0  0  0  0  0  0  0  0  0  0
    2.9338   67.2659   68.1090 H   0  0  0  0  0  0  0  0  0  0  0  0
    4.9701   65.8391   62.6576 H   0  0  0  0  0  0  0  0  0  0  0  0
    3.5416   66.7615   62.0787 H   0  0  0  0  0  0  0  0  0  0  0  0
    5.1660   67.5282   62.0787 H   0  0  0  0  0  0  0  0  0  0  0  0
    3.6175   66.6793   64.4539 H   0  0  0  0  0  0  0  0  0  0  0  0
    5.1984   67.3901   64.4227 H   0  0  0  0  0  0  0  0  0  0  0  0
  2  1  1  0
  3  2  1  0
  4  3  1  0
  5  4  1  0
  6  1  1  0
  6  5  2  0
  7  6  1  0
  8  7  2  0
  9  8  1  0
 10  9  2  0
 10  5  1  0
 11  4  1  0
 12 11  2  0
 13 12  1  0
 14 13  2  0
 15 14  1  0
 16 15  2  0
 16 11  1  0
 17 15  1  0
 18 14  1  0
 20 19  1  0
 20  1  1  0
  1 21  1  6
  2 22  1  0
  2 23  1  0
  3 24  1  0
  3 25  1  0
  4 26  1  6
  7 27  1  0
  8 28  1  0
  9 29  1  0
 10 30  1  0
 12 31  1  0
 13 32  1  0
 16 33  1  0
 19 34  1  0
 19 35  1  0
 19 36  1  0
 20 37  1  0
 20 38  1  0
M  CHG  1  20   1
M  END
>  <score>  (8) 
-8.463

$$$$
=
     RDKit          3D

 38 40  0  0  0  0  0  0  0  0999 V2000
    3.2200   61.5480   70.4110 C   0  0  1  0  0  0  0  0  0  0  0  0
    3.6830   60.1140   70.1310 C   0  0  0  0  0  0  0  0  0  0  0  0
    3.8080   59.3010   71.4140 C   0  0  0  0  0  0  0  0  0  0  0  0
    2.4530   59.1900   72.1440 C   0  0  2  0  0  0  0  0  0  0  0  0
    1.6520   60.4930   72.1340 C   0  0  0  0  0  0  0  0  0  0  0  0
    1.9870   61.5730   71.2870 C   0  0  0  0  0  0  0  0  0  0  0  0
    1.1690   62.7220   71.2710 C   0  0  0  0  0  0  0  0  0  0  0  0
    0.0310   62.7980   72.0700 C   0  0  0  0  0  0  0  0  0  0  0  0
   -0.3140   61.7290   72.8850 C   0  0  0  0  0  0  0  0  0  0  0  0
    0.4800   60.5830   72.9080 C   0  0  0  0  0  0  0  0  0  0  0  0
    2.6990   58.5920   73.5250 C   0  0  0  0  0  0  0  0  0  0  0  0
    3.6180   59.1520   74.4270 C   0  0  0  0  0  0  0  0  0  0  0  0
    3.8340   58.5660   75.6780 C   0  0  0  0  0  0  0  0  0  0  0  0
    3.1420   57.4090   76.0480 C   0  0  0  0  0  0  0  0  0  0  0  0
    2.2300   56.8360   75.1590 C   0  0  0  0  0  0  0  0  0  0  0  0
    2.0120   57.4260   73.9060 C   0  0  0  0  0  0  0  0  0  0  0  0
    1.3410   55.4040   75.5350 Cl  0  0  0  0  0  0  0  0  0  0  0  0
    3.4670   56.7430   77.6060 Cl  0  0  0  0  0  0  0  0  0  0  0  0
    4.8730   63.4780   70.2860 C   0  0  0  0  0  0  0  0  0  0  0  0
    4.3090   62.3490   71.0700 N   0  0  0  0  0  4  0  0  0  0  0  0
    2.9739   61.9985   69.4381 H   0  0  0  0  0  0  0  0  0  0  0  0
    2.9518   59.6261   69.4697 H   0  0  0  0  0  0  0  0  0  0  0  0
    4.6744   60.1604   69.6566 H   0  0  0  0  0  0  0  0  0  0  0  0
    4.1639   58.2906   71.1643 H   0  0  0  0  0  0  0  0  0  0  0  0
    4.5193   59.8117   72.0798 H   0  0  0  0  0  0  0  0  0  0  0  0
    1.7891   58.5056   71.5955 H   0  0  0  0  0  0  0  0  0  0  0  0
    1.4332   63.5681   70.6196 H   0  0  0  0  0  0  0  0  0  0  0  0
   -0.5933   63.7036   72.0552 H   0  0  0  0  0  0  0  0  0  0  0  0
   -1.2149   61.7858   73.5136 H   0  0  0  0  0  0  0  0  0  0  0  0
    0.1851   59.7341   73.5424 H   0  0  0  0  0  0  0  0  0  0  0  0
    4.1728   60.0596   74.1470 H   0  0  0  0  0  0  0  0  0  0  0  0
    4.5536   59.0186   76.3761 H   0  0  0  0  0  0  0  0  0  0  0  0
    1.2924   56.9696   73.2103 H   0  0  0  0  0  0  0  0  0  0  0  0
    5.2568   64.2462   70.9735 H   0  0  0  0  0  0  0  0  0  0  0  0
    5.6934   63.1105   69.6520 H   0  0  0  0  0  0  0  0  0  0  0  0
    4.0864   63.9132   69.6520 H   0  0  0  0  0  0  0  0  0  0  0  0
    5.0818   61.7043   71.2894 H   0  0  0  0  0  0  0  0  0  0  0  0
    3.8661   62.7841   71.8918 H   0  0  0  0  0  0  0  0  0  0  0  0
  2  1  1  0
  3  2  1  0
  4  3  1  0
  5  4  1  0
  6  1  1  0
  6  5  2  0
  7  6  1  0
  8  7  2  0
  9  8  1  0
 10  9  2  0
 10  5  1  0
 11  4  1  0
 12 11  2  0
 13 12  1  0
 14 13  2  0
 15 14  1  0
 16 15  2  0
 16 11  1  0
 17 15  1  0
 18 14  1  0
 20 19  1  0
 20  1  1  0
  1 21  1  6
  2 22  1  0
  2 23  1  0
  3 24  1  0
  3 25  1  0
  4 26  1  6
  7 27  1  0
  8 28  1  0
  9 29  1  0
 10 30  1  0
 12 31  1  0
 13 32  1  0
 16 33  1  0
 19 34  1  0
 19 35  1  0
 19 36  1  0
 20 37  1  0
 20 38  1  0
M  CHG  1  20   1
M  END
>  <score>  (9) 
-8.284

$$$$
