=
     RDKit          3D

 39 41  0  0  0  0  0  0  0  0999 V2000
    0.9060   67.2670   66.0530 C   0  0  0  0  0  0  0  0  0  0  0  0
    0.9470   67.8770   64.6730 C   0  0  0  0  0  0  0  0  0  0  0  0
   -0.1160   68.6680   64.3640 N   0  0  0  0  0  0  0  0  0  0  0  0
   -0.1430   69.2450   63.1490 C   0  0  0  0  0  0  0  0  0  0  0  0
    0.8380   69.0700   62.1940 C   0  0  0  0  0  0  0  0  0  0  0  0
    1.9160   68.2440   62.4990 C   0  0  0  0  0  0  0  0  0  0  0  0
    1.9760   67.6100   63.7540 C   0  0  0  0  0  0  0  0  0  0  0  0
    3.1150   66.6910   64.1050 C   0  0  0  0  0  0  0  0  0  0  0  0
    2.9460   67.9770   61.6350 O   0  0  0  0  0  0  0  0  0  0  0  0
    3.7990   69.0620   61.2560 C   0  0  0  0  0  0  0  0  0  0  0  0
    5.0140   69.1270   62.1690 C   0  0  0  0  0  0  0  0  0  0  0  0
    5.5890   67.9150   62.3290 F   0  0  0  0  0  0  0  0  0  0  0  0
    4.7000   69.6080   63.3920 F   0  0  0  0  0  0  0  0  0  0  0  0
    5.9510   69.9510   61.6420 F   0  0  0  0  0  0  0  0  0  0  0  0
    0.2880   67.6900   68.7830 O   0  0  0  0  0  1  0  0  0  0  0  0
    0.5400   68.4970   67.3460 S   0  0  0  0  0  3  0  0  0  0  0  0
    2.2020   69.1750   67.5050 C   0  0  0  0  0  0  0  0  0  0  0  0
    3.1240   69.1930   66.5670 N   0  0  0  0  0  0  0  0  0  0  0  0
    4.2150   69.7900   67.1500 C   0  0  0  0  0  0  0  0  0  0  0  0
    3.9480   70.1410   68.4700 C   0  0  0  0  0  0  0  0  0  0  0  0
    2.6540   69.7400   68.6670 N   0  0  0  0  0  0  0  0  0  0  0  0
    4.8820   70.7590   69.3040 C   0  0  0  0  0  0  0  0  0  0  0  0
    6.1390   71.0240   68.7470 C   0  0  0  0  0  0  0  0  0  0  0  0
    6.4360   70.6830   67.4240 C   0  0  0  0  0  0  0  0  0  0  0  0
    5.4790   70.0630   66.6100 C   0  0  0  0  0  0  0  0  0  0  0  0
    0.1267   66.4909   66.0731 H   0  0  0  0  0  0  0  0  0  0  0  0
    1.9002   66.8457   66.2629 H   0  0  0  0  0  0  0  0  0  0  0  0
   -0.9963   69.8938   62.9024 H   0  0  0  0  0  0  0  0  0  0  0  0
    0.7697   69.5705   61.2168 H   0  0  0  0  0  0  0  0  0  0  0  0
    3.2043   66.6190   65.1990 H   0  0  0  0  0  0  0  0  0  0  0  0
    2.9226   65.6922   63.6863 H   0  0  0  0  0  0  0  0  0  0  0  0
    4.0506   67.0902   63.6863 H   0  0  0  0  0  0  0  0  0  0  0  0
    4.1331   68.9147   60.2184 H   0  0  0  0  0  0  0  0  0  0  0  0
    3.2374   70.0038   61.3428 H   0  0  0  0  0  0  0  0  0  0  0  0
    2.1144   69.8451   69.5380 H   0  0  0  0  0  0  0  0  0  0  0  0
    4.6427   71.0239   70.3445 H   0  0  0  0  0  0  0  0  0  0  0  0
    6.9092   71.5108   69.3634 H   0  0  0  0  0  0  0  0  0  0  0  0
    7.4337   70.9043   67.0171 H   0  0  0  0  0  0  0  0  0  0  0  0
    5.7148   69.7962   65.5692 H   0  0  0  0  0  0  0  0  0  0  0  0
  2  1  1  0
  3  2  2  0
  4  3  1  0
  5  4  2  0
  6  5  1  0
  7  6  2  0
  7  2  1  0
  8  7  1  0
  9  6  1  0
 10  9  1  0
 11 10  1  0
 12 11  1  0
 13 11  1  0
 14 11  1  0
 16 15  1  1
 16  1  1  0
 17 16  1  0
 18 17  2  0
 19 18  1  0
 20 19  2  0
 21 20  1  0
 21 17  1  0
 22 20  1  0
 23 22  2  0
 24 23  1  0
 25 19  1  0
 25 24  2  0
  1 26  1  0
  1 27  1  0
  4 28  1  0
  5 29  1  0
  8 30  1  0
  8 31  1  0
  8 32  1  0
 10 33  1  0
 10 34  1  0
 21 35  1  0
 22 36  1  0
 23 37  1  0
 24 38  1  0
 25 39  1  0
M  CHG  2  15  -1  16   1
M  END
>  <score>  (1) 
-9.866

$$$$
=
     RDKit          3D

 39 41  0  0  0  0  0  0  0  0999 V2000
    3.1230   69.0570   64.1700 C   0  0  0  0  0  0  0  0  0  0  0  0
    3.5590   69.3910   65.5760 C   0  0  0  0  0  0  0  0  0  0  0  0
    2.5670   69.3650   66.5060 N   0  0  0  0  0  0  0  0  0  0  0  0
    2.8860   69.6530   67.7810 C   0  0  0  0  0  0  0  0  0  0  0  0
    4.1600   69.9840   68.1970 C   0  0  0  0  0  0  0  0  0  0  0  0
    5.1730   70.0320   67.2450 C   0  0  0  0  0  0  0  0  0  0  0  0
    4.8790   69.7520   65.8970 C   0  0  0  0  0  0  0  0  0  0  0  0
    5.9480   69.8200   64.8390 C   0  0  0  0  0  0  0  0  0  0  0  0
    6.4740   70.3610   67.5250 O   0  0  0  0  0  0  0  0  0  0  0  0
    6.7080   71.4270   68.4530 C   0  0  0  0  0  0  0  0  0  0  0  0
    7.6470   70.9720   69.5590 C   0  0  0  0  0  0  0  0  0  0  0  0
    6.9730   70.5830   70.6630 F   0  0  0  0  0  0  0  0  0  0  0  0
    8.5140   71.9440   69.9160 F   0  0  0  0  0  0  0  0  0  0  0  0
    8.3810   69.9120   69.1420 F   0  0  0  0  0  0  0  0  0  0  0  0
    3.4450   66.3740   65.0160 O   0  0  0  0  0  1  0  0  0  0  0  0
    2.5270   67.3430   64.0170 S   0  0  0  0  0  3  0  0  0  0  0  0
    0.9740   67.5510   64.9070 C   0  0  0  0  0  0  0  0  0  0  0  0
   -0.0030   68.3670   64.5790 N   0  0  0  0  0  0  0  0  0  0  0  0
   -0.9580   68.1890   65.5490 C   0  0  0  0  0  0  0  0  0  0  0  0
   -0.5510   67.2440   66.4860 C   0  0  0  0  0  0  0  0  0  0  0  0
    0.6850   66.8510   66.0480 N   0  0  0  0  0  0  0  0  0  0  0  0
   -1.3250   66.8710   67.5870 C   0  0  0  0  0  0  0  0  0  0  0  0
   -2.5690   67.5000   67.7200 C   0  0  0  0  0  0  0  0  0  0  0  0
   -3.0050   68.4520   66.7940 C   0  0  0  0  0  0  0  0  0  0  0  0
   -2.2070   68.8080   65.6990 C   0  0  0  0  0  0  0  0  0  0  0  0
    2.3114   69.7405   63.8800 H   0  0  0  0  0  0  0  0  0  0  0  0
    3.9976   69.1680   63.5122 H   0  0  0  0  0  0  0  0  0  0  0  0
    2.0858   69.6230   68.5351 H   0  0  0  0  0  0  0  0  0  0  0  0
    4.3687   70.2042   69.2543 H   0  0  0  0  0  0  0  0  0  0  0  0
    6.9357   69.8828   65.3192 H   0  0  0  0  0  0  0  0  0  0  0  0
    5.9017   68.9171   64.2124 H   0  0  0  0  0  0  0  0  0  0  0  0
    5.7877   70.7098   64.2124 H   0  0  0  0  0  0  0  0  0  0  0  0
    7.1597   72.2775   67.9213 H   0  0  0  0  0  0  0  0  0  0  0  0
    5.7489   71.7266   68.9007 H   0  0  0  0  0  0  0  0  0  0  0  0
    1.2918   66.1509   66.4981 H   0  0  0  0  0  0  0  0  0  0  0  0
   -0.9754   66.1216   68.3124 H   0  0  0  0  0  0  0  0  0  0  0  0
   -3.2163   67.2396   68.5705 H   0  0  0  0  0  0  0  0  0  0  0  0
   -3.9878   68.9280   66.9268 H   0  0  0  0  0  0  0  0  0  0  0  0
   -2.5531   69.5575   64.9721 H   0  0  0  0  0  0  0  0  0  0  0  0
  2  1  1  0
  3  2  2  0
  4  3  1  0
  5  4  2  0
  6  5  1  0
  7  6  2  0
  7  2  1  0
  8  7  1  0
  9  6  1  0
 10  9  1  0
 11 10  1  0
 12 11  1  0
 13 11  1  0
 14 11  1  0
 16 15  1  1
 16  1  1  0
 17 16  1  0
 18 17  2  0
 19 18  1  0
 20 19  2  0
 21 20  1  0
 21 17  1  0
 22 20  1  0
 23 22  2  0
 24 23  1  0
 25 19  1  0
 25 24  2  0
  1 26  1  0
  1 27  1  0
  4 28  1  0
  5 29  1  0
  8 30  1  0
  8 31  1  0
  8 32  1  0
 10 33  1  0
 10 34  1  0
 21 35  1  0
 22 36  1  0
 23 37  1  0
 24 38  1  0
 25 39  1  0
M  CHG  2  15  -1  16   1
M  END
>  <score>  (2) 
-8.807

$$$$
=
     RDKit          3D

 39 41  0  0  0  0  0  0  0  0999 V2000
    4.3510   67.1410   63.1160 C   0  0  0  0  0  0  0  0  0  0  0  0
    2.9900   67.7750   62.9620 C   0  0  0  0  0  0  0  0  0  0  0  0
    2.8600   68.6000   61.8880 N   0  0  0  0  0  0  0  0  0  0  0  0
    1.6710   69.1990   61.6900 C   0  0  0  0  0  0  0  0  0  0  0  0
    0.5810   69.0340   62.5200 C   0  0  0  0  0  0  0  0  0  0  0  0
    0.7170   68.2070   63.6310 C   0  0  0  0  0  0  0  0  0  0  0  0
    1.9480   67.5720   63.8830 C   0  0  0  0  0  0  0  0  0  0  0  0
    2.1350   66.6930   65.0900 C   0  0  0  0  0  0  0  0  0  0  0  0
   -0.2820   67.9730   64.5390 O   0  0  0  0  0  0  0  0  0  0  0  0
   -0.4710   68.9290   65.5880 C   0  0  0  0  0  0  0  0  0  0  0  0
   -0.7680   68.2250   66.9030 C   0  0  0  0  0  0  0  0  0  0  0  0
    0.1050   68.5800   67.8710 F   0  0  0  0  0  0  0  0  0  0  0  0
   -0.7310   66.8820   66.7750 F   0  0  0  0  0  0  0  0  0  0  0  0
   -2.0070   68.5540   67.3390 F   0  0  0  0  0  0  0  0  0  0  0  0
    5.3000   69.6400   62.1840 O   0  0  0  0  0  1  0  0  0  0  0  0
    5.6870   68.3750   63.2000 S   0  0  0  0  0  3  0  0  0  0  0  0
    5.3240   69.0060   64.8490 C   0  0  0  0  0  0  0  0  0  0  0  0
    4.1390   69.0550   65.4150 N   0  0  0  0  0  0  0  0  0  0  0  0
    4.3550   69.6190   66.6480 C   0  0  0  0  0  0  0  0  0  0  0  0
    5.7020   69.9180   66.8330 C   0  0  0  0  0  0  0  0  0  0  0  0
    6.2960   69.5120   65.6690 N   0  0  0  0  0  0  0  0  0  0  0  0
    6.2050   70.5060   67.9950 C   0  0  0  0  0  0  0  0  0  0  0  0
    5.2770   70.7920   69.0050 C   0  0  0  0  0  0  0  0  0  0  0  0
    3.9190   70.5010   68.8480 C   0  0  0  0  0  0  0  0  0  0  0  0
    3.4420   69.9120   67.6710 C   0  0  0  0  0  0  0  0  0  0  0  0
    4.3609   66.5463   64.0414 H   0  0  0  0  0  0  0  0  0  0  0  0
    4.5302   66.5129   62.2309 H   0  0  0  0  0  0  0  0  0  0  0  0
    1.5619   69.8581   60.8161 H   0  0  0  0  0  0  0  0  0  0  0  0
   -0.3710   69.5431   62.3089 H   0  0  0  0  0  0  0  0  0  0  0  0
    2.0075   67.2925   66.0034 H   0  0  0  0  0  0  0  0  0  0  0  0
    1.3886   65.8851   65.0744 H   0  0  0  0  0  0  0  0  0  0  0  0
    3.1456   66.2589   65.0744 H   0  0  0  0  0  0  0  0  0  0  0  0
    0.4430   69.5311   65.6981 H   0  0  0  0  0  0  0  0  0  0  0  0
   -1.3225   69.5760   65.3306 H   0  0  0  0  0  0  0  0  0  0  0  0
    7.3000   69.5761   65.4483 H   0  0  0  0  0  0  0  0  0  0  0  0
    7.2750   70.7331   68.1116 H   0  0  0  0  0  0  0  0  0  0  0  0
    5.6242   71.2549   69.9405 H   0  0  0  0  0  0  0  0  0  0  0  0
    3.2158   70.7379   69.6600 H   0  0  0  0  0  0  0  0  0  0  0  0
    2.3726   69.6837   67.5512 H   0  0  0  0  0  0  0  0  0  0  0  0
  2  1  1  0
  3  2  2  0
  4  3  1  0
  5  4  2  0
  6  5  1  0
  7  6  2  0
  7  2  1  0
  8  7  1  0
  9  6  1  0
 10  9  1  0
 11 10  1  0
 12 11  1  0
 13 11  1  0
 14 11  1  0
 16 15  1  6
 16  1  1  0
 17 16  1  0
 18 17  2  0
 19 18  1  0
 20 19  2  0
 21 20  1  0
 21 17  1  0
 22 20  1  0
 23 22  2  0
 24 23  1  0
 25 19  1  0
 25 24  2  0
  1 26  1  0
  1 27  1  0
  4 28  1  0
  5 29  1  0
  8 30  1  0
  8 31  1  0
  8 32  1  0
 10 33  1  0
 10 34  1  0
 21 35  1  0
 22 36  1  0
 23 37  1  0
 24 38  1  0
 25 39  1  0
M  CHG  2  15  -1  16   1
M  END
>  <score>  (3) 
-8.698

$$$$
=
     RDKit          3D

 39 41  0  0  0  0  0  0  0  0999 V2000
    2.1960   64.1860   71.3840 C   0  0  0  0  0  0  0  0  0  0  0  0
    2.6850   62.9080   70.7470 C   0  0  0  0  0  0  0  0  0  0  0  0
    2.6710   62.9030   69.3870 N   0  0  0  0  0  0  0  0  0  0  0  0
    3.0950   61.7940   68.7530 C   0  0  0  0  0  0  0  0  0  0  0  0
    3.5310   60.6570   69.4040 C   0  0  0  0  0  0  0  0  0  0  0  0
    3.5270   60.6520   70.7960 C   0  0  0  0  0  0  0  0  0  0  0  0
    3.0770   61.7860   71.4970 C   0  0  0  0  0  0  0  0  0  0  0  0
    3.0360   61.8010   73.0020 C   0  0  0  0  0  0  0  0  0  0  0  0
    3.9200   59.5830   71.5590 O   0  0  0  0  0  0  0  0  0  0  0  0
    3.2040   58.3530   71.4060 C   0  0  0  0  0  0  0  0  0  0  0  0
    2.2620   58.1350   72.5800 C   0  0  0  0  0  0  0  0  0  0  0  0
    1.2270   59.0030   72.5630 F   0  0  0  0  0  0  0  0  0  0  0  0
    2.8970   58.2620   73.7650 F   0  0  0  0  0  0  0  0  0  0  0  0
    1.7400   56.8860   72.5350 F   0  0  0  0  0  0  0  0  0  0  0  0
   -0.1680   65.1480   72.6110 O   0  0  0  0  0  1  0  0  0  0  0  0
    0.3920   64.3900   71.2350 S   0  0  0  0  0  3  0  0  0  0  0  0
    0.4030   65.6910   69.9880 C   0  0  0  0  0  0  0  0  0  0  0  0
    1.3620   66.5700   69.7950 N   0  0  0  0  0  0  0  0  0  0  0  0
    0.9230   67.3560   68.7580 C   0  0  0  0  0  0  0  0  0  0  0  0
   -0.3300   66.9440   68.3130 C   0  0  0  0  0  0  0  0  0  0  0  0
   -0.6340   65.8770   69.1140 N   0  0  0  0  0  0  0  0  0  0  0  0
   -1.0190   67.5700   67.2720 C   0  0  0  0  0  0  0  0  0  0  0  0
   -0.3840   68.6620   66.6680 C   0  0  0  0  0  0  0  0  0  0  0  0
    0.8750   69.0980   67.0930 C   0  0  0  0  0  0  0  0  0  0  0  0
    1.5430   68.4520   68.1410 C   0  0  0  0  0  0  0  0  0  0  0  0
    2.4632   64.1736   72.4510 H   0  0  0  0  0  0  0  0  0  0  0  0
    2.6731   65.0265   70.8588 H   0  0  0  0  0  0  0  0  0  0  0  0
    3.0941   61.7934   67.6530 H   0  0  0  0  0  0  0  0  0  0  0  0
    3.8726   59.7782   68.8374 H   0  0  0  0  0  0  0  0  0  0  0  0
    3.9996   61.4485   73.3986 H   0  0  0  0  0  0  0  0  0  0  0  0
    2.8478   62.8262   73.3535 H   0  0  0  0  0  0  0  0  0  0  0  0
    2.2307   61.1393   73.3535 H   0  0  0  0  0  0  0  0  0  0  0  0
    2.6196   58.3878   70.4747 H   0  0  0  0  0  0  0  0  0  0  0  0
    3.9256   57.5235   71.3703 H   0  0  0  0  0  0  0  0  0  0  0  0
   -1.4939   65.3119   69.0674 H   0  0  0  0  0  0  0  0  0  0  0  0
   -2.0098   67.2230   66.9434 H   0  0  0  0  0  0  0  0  0  0  0  0
   -0.8857   69.1877   65.8422 H   0  0  0  0  0  0  0  0  0  0  0  0
    1.3468   69.9595   66.5978 H   0  0  0  0  0  0  0  0  0  0  0  0
    2.5332   68.7972   68.4731 H   0  0  0  0  0  0  0  0  0  0  0  0
  2  1  1  0
  3  2  2  0
  4  3  1  0
  5  4  2  0
  6  5  1  0
  7  6  2  0
  7  2  1  0
  8  7  1  0
  9  6  1  0
 10  9  1  0
 11 10  1  0
 12 11  1  0
 13 11  1  0
 14 11  1  0
 16 15  1  1
 16  1  1  0
 17 16  1  0
 18 17  2  0
 19 18  1  0
 20 19  2  0
 21 20  1  0
 21 17  1  0
 22 20  1  0
 23 22  2  0
 24 23  1  0
 25 19  1  0
 25 24  2  0
  1 26  1  0
  1 27  1  0
  4 28  1  0
  5 29  1  0
  8 30  1  0
  8 31  1  0
  8 32  1  0
 10 33  1  0
 10 34  1  0
 21 35  1  0
 22 36  1  0
 23 37  1  0
 24 38  1  0
 25 39  1  0
M  CHG  2  15  -1  16   1
M  END
>  <score>  (4) 
-8.163

$$$$
=
     RDKit          3D

 39 41  0  0  0  0  0  0  0  0999 V2000
   -0.4100   69.3060   65.3750 C   0  0  0  0  0  0  0  0  0  0  0  0
   -0.7030   68.3150   66.4750 C   0  0  0  0  0  0  0  0  0  0  0  0
   -1.9410   67.7520   66.4240 N   0  0  0  0  0  0  0  0  0  0  0  0
   -2.2690   66.8580   67.3750 C   0  0  0  0  0  0  0  0  0  0  0  0
   -1.4270   66.4880   68.4050 C   0  0  0  0  0  0  0  0  0  0  0  0
   -0.1680   67.0780   68.4710 C   0  0  0  0  0  0  0  0  0  0  0  0
    0.2100   68.0290   67.5040 C   0  0  0  0  0  0  0  0  0  0  0  0
    1.5540   68.7040   67.5630 C   0  0  0  0  0  0  0  0  0  0  0  0
    0.7540   66.8100   69.4490 O   0  0  0  0  0  0  0  0  0  0  0  0
    0.3050   66.1140   70.6180 C   0  0  0  0  0  0  0  0  0  0  0  0
    0.8850   64.7090   70.6550 C   0  0  0  0  0  0  0  0  0  0  0  0
    1.0580   64.2700   71.9220 F   0  0  0  0  0  0  0  0  0  0  0  0
    2.0740   64.6370   70.0190 F   0  0  0  0  0  0  0  0  0  0  0  0
    0.0460   63.8410   70.0400 F   0  0  0  0  0  0  0  0  0  0  0  0
   -0.8440   69.5530   62.5880 O   0  0  0  0  0  1  0  0  0  0  0  0
   -0.2510   68.5090   63.7450 S   0  0  0  0  0  3  0  0  0  0  0  0
    1.5390   68.6450   63.5880 C   0  0  0  0  0  0  0  0  0  0  0  0
    2.2480   68.3380   62.5240 N   0  0  0  0  0  0  0  0  0  0  0  0
    3.5500   68.5910   62.8770 C   0  0  0  0  0  0  0  0  0  0  0  0
    3.6330   69.0620   64.1850 C   0  0  0  0  0  0  0  0  0  0  0  0
    2.3320   69.0900   64.6110 N   0  0  0  0  0  0  0  0  0  0  0  0
    4.8380   69.3940   64.8070 C   0  0  0  0  0  0  0  0  0  0  0  0
    6.0010   69.2330   64.0440 C   0  0  0  0  0  0  0  0  0  0  0  0
    5.9490   68.7630   62.7290 C   0  0  0  0  0  0  0  0  0  0  0  0
    4.7260   68.4370   62.1300 C   0  0  0  0  0  0  0  0  0  0  0  0
   -1.2299   70.0380   65.3316 H   0  0  0  0  0  0  0  0  0  0  0  0
    0.5506   69.7893   65.6067 H   0  0  0  0  0  0  0  0  0  0  0  0
   -3.2658   66.3951   67.3291 H   0  0  0  0  0  0  0  0  0  0  0  0
   -1.7429   65.7465   69.1536 H   0  0  0  0  0  0  0  0  0  0  0  0
    1.8451   68.8502   68.6137 H   0  0  0  0  0  0  0  0  0  0  0  0
    2.3027   68.0750   67.0592 H   0  0  0  0  0  0  0  0  0  0  0  0
    1.4965   69.6802   67.0592 H   0  0  0  0  0  0  0  0  0  0  0  0
    0.6296   66.6636   71.5139 H   0  0  0  0  0  0  0  0  0  0  0  0
   -0.7926   66.0459   70.5927 H   0  0  0  0  0  0  0  0  0  0  0  0
    2.0066   69.3933   65.5400 H   0  0  0  0  0  0  0  0  0  0  0  0
    4.8720   69.7629   65.8427 H   0  0  0  0  0  0  0  0  0  0  0  0
    6.9758   69.4816   64.4889 H   0  0  0  0  0  0  0  0  0  0  0  0
    6.8813   68.6476   62.1568 H   0  0  0  0  0  0  0  0  0  0  0  0
    4.6889   68.0677   61.0945 H   0  0  0  0  0  0  0  0  0  0  0  0
  2  1  1  0
  3  2  2  0
  4  3  1  0
  5  4  2  0
  6  5  1  0
  7  6  2  0
  7  2  1  0
  8  7  1  0
  9  6  1  0
 10  9  1  0
 11 10  1  0
 12 11  1  0
 13 11  1  0
 14 11  1  0
 16 15  1  6
 16  1  1  0
 17 16  1  0
 18 17  2  0
 19 18  1  0
 20 19  2  0
 21 20  1  0
 21 17  1  0
 22 20  1  0
 23 22  2  0
 24 23  1  0
 25 19  1  0
 25 24  2  0
  1 26  1  0
  1 27  1  0
  4 28  1  0
  5 29  1  0
  8 30  1  0
  8 31  1  0
  8 32  1  0
 10 33  1  0
 10 34  1  0
 21 35  1  0
 22 36  1  0
 23 37  1  0
 24 38  1  0
 25 39  1  0
M  CHG  2  15  -1  16   1
M  END
>  <score>  (5) 
-7.805

$$$$
=
     RDKit          3D

 39 41  0  0  0  0  0  0  0  0999 V2000
    0.7040   69.1070   65.7840 C   0  0  0  0  0  0  0  0  0  0  0  0
    0.1300   68.1650   66.8130 C   0  0  0  0  0  0  0  0  0  0  0  0
   -1.0600   67.6000   66.4740 N   0  0  0  0  0  0  0  0  0  0  0  0
   -1.6290   66.7470   67.3460 C   0  0  0  0  0  0  0  0  0  0  0  0
   -1.0800   66.4230   68.5700 C   0  0  0  0  0  0  0  0  0  0  0  0
    0.1280   67.0150   68.9300 C   0  0  0  0  0  0  0  0  0  0  0  0
    0.7480   67.9230   68.0520 C   0  0  0  0  0  0  0  0  0  0  0  0
    2.0410   68.6000   68.4220 C   0  0  0  0  0  0  0  0  0  0  0  0
    0.7680   66.7900   70.1200 O   0  0  0  0  0  0  0  0  0  0  0  0
    0.3180   65.6930   70.9240 C   0  0  0  0  0  0  0  0  0  0  0  0
    1.1800   64.4650   70.6790 C   0  0  0  0  0  0  0  0  0  0  0  0
    2.2690   64.7550   69.9340 F   0  0  0  0  0  0  0  0  0  0  0  0
    0.4940   63.4830   70.0550 F   0  0  0  0  0  0  0  0  0  0  0  0
    1.6210   63.9610   71.8560 F   0  0  0  0  0  0  0  0  0  0  0  0
    1.0860   69.6390   63.0290 O   0  0  0  0  0  1  0  0  0  0  0  0
    0.4940   68.4900   64.0830 S   0  0  0  0  0  3  0  0  0  0  0  0
    1.7800   67.2280   64.1290 C   0  0  0  0  0  0  0  0  0  0  0  0
    2.9690   67.3150   63.5750 N   0  0  0  0  0  0  0  0  0  0  0  0
    3.5850   66.1210   63.8610 C   0  0  0  0  0  0  0  0  0  0  0  0
    2.7500   65.2930   64.6050 C   0  0  0  0  0  0  0  0  0  0  0  0
    1.6060   66.0280   64.7640 N   0  0  0  0  0  0  0  0  0  0  0  0
    3.1170   64.0140   65.0290 C   0  0  0  0  0  0  0  0  0  0  0  0
    4.3990   63.5790   64.6710 C   0  0  0  0  0  0  0  0  0  0  0  0
    5.2600   64.3900   63.9250 C   0  0  0  0  0  0  0  0  0  0  0  0
    4.8650   65.6680   63.5120 C   0  0  0  0  0  0  0  0  0  0  0  0
    0.1960   70.0787   65.8724 H   0  0  0  0  0  0  0  0  0  0  0  0
    1.7832   69.1970   65.9770 H   0  0  0  0  0  0  0  0  0  0  0  0
   -2.5860   66.2817   67.0672 H   0  0  0  0  0  0  0  0  0  0  0  0
   -1.5839   65.7149   69.2443 H   0  0  0  0  0  0  0  0  0  0  0  0
    2.1301   68.6466   69.5174 H   0  0  0  0  0  0  0  0  0  0  0  0
    2.8854   68.0283   68.0095 H   0  0  0  0  0  0  0  0  0  0  0  0
    2.0522   69.6196   68.0095 H   0  0  0  0  0  0  0  0  0  0  0  0
    0.3802   65.9730   71.9860 H   0  0  0  0  0  0  0  0  0  0  0  0
   -0.7221   65.4573   70.6544 H   0  0  0  0  0  0  0  0  0  0  0  0
    0.7615   65.7299   65.2728 H   0  0  0  0  0  0  0  0  0  0  0  0
    2.4340   63.3807   65.6142 H   0  0  0  0  0  0  0  0  0  0  0  0
    4.7355   62.5793   64.9829 H   0  0  0  0  0  0  0  0  0  0  0  0
    6.2608   64.0189   63.6592 H   0  0  0  0  0  0  0  0  0  0  0  0
    5.5449   66.3036   62.9258 H   0  0  0  0  0  0  0  0  0  0  0  0
  2  1  1  0
  3  2  2  0
  4  3  1  0
  5  4  2  0
  6  5  1  0
  7  6  2  0
  7  2  1  0
  8  7  1  0
  9  6  1  0
 10  9  1  0
 11 10  1  0
 12 11  1  0
 13 11  1  0
 14 11  1  0
 16 15  1  6
 16  1  1  0
 17 16  1  0
 18 17  2  0
 19 18  1  0
 20 19  2  0
 21 20  1  0
 21 17  1  0
 22 20  1  0
 23 22  2  0
 24 23  1  0
 25 19  1  0
 25 24  2  0
  1 26  1  0
  1 27  1  0
  4 28  1  0
  5 29  1  0
  8 30  1  0
  8 31  1  0
  8 32  1  0
 10 33  1  0
 10 34  1  0
 21 35  1  0
 22 36  1  0
 23 37  1  0
 24 38  1  0
 25 39  1  0
M  CHG  2  15  -1  16   1
M  END
>  <score>  (6) 
-7.737

$$$$
=
     RDKit          3D

 39 41  0  0  0  0  0  0  0  0999 V2000
   -0.0010   63.9760   70.3700 C   0  0  0  0  0  0  0  0  0  0  0  0
    0.5220   62.8700   71.2540 C   0  0  0  0  0  0  0  0  0  0  0  0
   -0.0620   62.7920   72.4810 N   0  0  0  0  0  0  0  0  0  0  0  0
    0.3560   61.8280   73.3210 C   0  0  0  0  0  0  0  0  0  0  0  0
    1.3510   60.9210   73.0150 C   0  0  0  0  0  0  0  0  0  0  0  0
    1.9650   61.0120   71.7690 C   0  0  0  0  0  0  0  0  0  0  0  0
    1.5670   62.0150   70.8650 C   0  0  0  0  0  0  0  0  0  0  0  0
    2.2290   62.1550   69.5210 C   0  0  0  0  0  0  0  0  0  0  0  0
    2.9730   60.1840   71.3490 O   0  0  0  0  0  0  0  0  0  0  0  0
    4.2360   60.2760   72.0190 C   0  0  0  0  0  0  0  0  0  0  0  0
    5.2130   61.1060   71.2000 C   0  0  0  0  0  0  0  0  0  0  0  0
    6.4960   60.8350   71.5230 F   0  0  0  0  0  0  0  0  0  0  0  0
    5.0090   62.4310   71.3620 F   0  0  0  0  0  0  0  0  0  0  0  0
    5.0650   60.8350   69.8810 F   0  0  0  0  0  0  0  0  0  0  0  0
    2.4830   65.3330   70.3070 O   0  0  0  0  0  1  0  0  0  0  0  0
    0.8660   65.5540   70.6460 S   0  0  0  0  0  3  0  0  0  0  0  0
    0.2280   66.4300   69.2060 C   0  0  0  0  0  0  0  0  0  0  0  0
    0.9410   67.1070   68.3340 N   0  0  0  0  0  0  0  0  0  0  0  0
    0.0300   67.6030   67.4340 C   0  0  0  0  0  0  0  0  0  0  0  0
   -1.2650   67.2170   67.7690 C   0  0  0  0  0  0  0  0  0  0  0  0
   -1.1060   66.4660   68.9020 N   0  0  0  0  0  0  0  0  0  0  0  0
   -2.3910   67.5850   67.0300 C   0  0  0  0  0  0  0  0  0  0  0  0
   -2.1660   68.3820   65.9000 C   0  0  0  0  0  0  0  0  0  0  0  0
   -0.8770   68.7840   65.5390 C   0  0  0  0  0  0  0  0  0  0  0  0
    0.2350   68.4000   66.2990 C   0  0  0  0  0  0  0  0  0  0  0  0
    0.1303   63.6800   69.3187 H   0  0  0  0  0  0  0  0  0  0  0  0
   -1.0622   64.1288   70.6162 H   0  0  0  0  0  0  0  0  0  0  0  0
   -0.1227   61.7583   74.3089 H   0  0  0  0  0  0  0  0  0  0  0  0
    1.6506   60.1469   73.7368 H   0  0  0  0  0  0  0  0  0  0  0  0
    3.2966   62.3808   69.6599 H   0  0  0  0  0  0  0  0  0  0  0  0
    2.1230   61.2146   68.9603 H   0  0  0  0  0  0  0  0  0  0  0  0
    1.7513   62.9720   68.9603 H   0  0  0  0  0  0  0  0  0  0  0  0
    4.0915   60.7508   73.0007 H   0  0  0  0  0  0  0  0  0  0  0  0
    4.6470   59.2635   72.1450 H   0  0  0  0  0  0  0  0  0  0  0  0
   -1.8596   66.0074   69.4337 H   0  0  0  0  0  0  0  0  0  0  0  0
   -3.4028   67.2656   67.3201 H   0  0  0  0  0  0  0  0  0  0  0  0
   -3.0212   68.6978   65.2844 H   0  0  0  0  0  0  0  0  0  0  0  0
   -0.7340   69.4103   64.6461 H   0  0  0  0  0  0  0  0  0  0  0  0
    1.2482   68.7172   66.0113 H   0  0  0  0  0  0  0  0  0  0  0  0
  2  1  1  0
  3  2  2  0
  4  3  1  0
  5  4  2  0
  6  5  1  0
  7  6  2  0
  7  2  1  0
  8  7  1  0
  9  6  1  0
 10  9  1  0
 11 10  1  0
 12 11  1  0
 13 11  1  0
 14 11  1  0
 16 15  1  6
 16  1  1  0
 17 16  1  0
 18 17  2  0
 19 18  1  0
 20 19  2  0
 21 20  1  0
 21 17  1  0
 22 20  1  0
 23 22  2  0
 24 23  1  0
 25 19  1  0
 25 24  2  0
  1 26  1  0
  1 27  1  0
  4 28  1  0
  5 29  1  0
  8 30  1  0
  8 31  1  0
  8 32  1  0
 10 33  1  0
 10 34  1  0
 21 35  1  0
 22 36  1  0
 23 37  1  0
 24 38  1  0
 25 39  1  0
M  CHG  2  15  -1  16   1
M  END
>  <score>  (7) 
-7.597

$$$$
=
     RDKit          3D

 39 41  0  0  0  0  0  0  0  0999 V2000
    0.2300   64.1340   70.9760 C   0  0  0  0  0  0  0  0  0  0  0  0
    0.5350   63.5560   72.3360 C   0  0  0  0  0  0  0  0  0  0  0  0
    0.0670   64.2820   73.3870 N   0  0  0  0  0  0  0  0  0  0  0  0
    0.3040   63.8230   74.6290 C   0  0  0  0  0  0  0  0  0  0  0  0
    1.0040   62.6650   74.9000 C   0  0  0  0  0  0  0  0  0  0  0  0
    1.5020   61.9300   73.8280 C   0  0  0  0  0  0  0  0  0  0  0  0
    1.2900   62.3830   72.5120 C   0  0  0  0  0  0  0  0  0  0  0  0
    1.8380   61.6250   71.3320 C   0  0  0  0  0  0  0  0  0  0  0  0
    2.2260   60.7740   73.9610 O   0  0  0  0  0  0  0  0  0  0  0  0
    1.5950   59.6620   74.6060 C   0  0  0  0  0  0  0  0  0  0  0  0
    0.8030   58.8420   73.5990 C   0  0  0  0  0  0  0  0  0  0  0  0
   -0.3180   59.4830   73.2000 F   0  0  0  0  0  0  0  0  0  0  0  0
    0.4440   57.6400   74.0990 F   0  0  0  0  0  0  0  0  0  0  0  0
    1.5500   58.6120   72.4930 F   0  0  0  0  0  0  0  0  0  0  0  0
    2.5790   64.3940   69.4160 O   0  0  0  0  0  1  0  0  0  0  0  0
    1.5370   65.2590   70.3900 S   0  0  0  0  0  3  0  0  0  0  0  0
    0.5330   66.2060   69.2310 C   0  0  0  0  0  0  0  0  0  0  0  0
   -0.7500   66.0370   69.0020 N   0  0  0  0  0  0  0  0  0  0  0  0
   -1.0680   66.9680   68.0430 C   0  0  0  0  0  0  0  0  0  0  0  0
    0.0490   67.7180   67.6840 C   0  0  0  0  0  0  0  0  0  0  0  0
    1.0550   67.2110   68.4620 N   0  0  0  0  0  0  0  0  0  0  0  0
    0.0170   68.7320   66.7250 C   0  0  0  0  0  0  0  0  0  0  0  0
   -1.2200   68.9800   66.1170 C   0  0  0  0  0  0  0  0  0  0  0  0
   -2.3590   68.2440   66.4580 C   0  0  0  0  0  0  0  0  0  0  0  0
   -2.2970   67.2310   67.4230 C   0  0  0  0  0  0  0  0  0  0  0  0
    0.1260   63.3084   70.2566 H   0  0  0  0  0  0  0  0  0  0  0  0
   -0.7000   64.7155   71.0598 H   0  0  0  0  0  0  0  0  0  0  0  0
   -0.0829   64.4049   75.4785 H   0  0  0  0  0  0  0  0  0  0  0  0
    1.1642   62.3316   75.9359 H   0  0  0  0  0  0  0  0  0  0  0  0
    2.4476   60.7818   71.6889 H   0  0  0  0  0  0  0  0  0  0  0  0
    1.0055   61.2435   70.7225 H   0  0  0  0  0  0  0  0  0  0  0  0
    2.4612   62.2959   70.7225 H   0  0  0  0  0  0  0  0  0  0  0  0
    2.3652   59.0253   75.0657 H   0  0  0  0  0  0  0  0  0  0  0  0
    0.9072   60.0407   75.3764 H   0  0  0  0  0  0  0  0  0  0  0  0
    2.0343   67.5302   68.4677 H   0  0  0  0  0  0  0  0  0  0  0  0
    0.9170   69.3066   66.4605 H   0  0  0  0  0  0  0  0  0  0  0  0
   -1.2972   69.7700   65.3555 H   0  0  0  0  0  0  0  0  0  0  0  0
   -3.3159   68.4635   65.9619 H   0  0  0  0  0  0  0  0  0  0  0  0
   -3.1947   66.6535   67.6889 H   0  0  0  0  0  0  0  0  0  0  0  0
  2  1  1  0
  3  2  2  0
  4  3  1  0
  5  4  2  0
  6  5  1  0
  7  6  2  0
  7  2  1  0
  8  7  1  0
  9  6  1  0
 10  9  1  0
 11 10  1  0
 12 11  1  0
 13 11  1  0
 14 11  1  0
 16 15  1  6
 16  1  1  0
 17 16  1  0
 18 17  2  0
 19 18  1  0
 20 19  2  0
 21 20  1  0
 21 17  1  0
 22 20  1  0
 23 22  2  0
 24 23  1  0
 25 19  1  0
 25 24  2  0
  1 26  1  0
  1 27  1  0
  4 28  1  0
  5 29  1  0
  8 30  1  0
  8 31  1  0
  8 32  1  0
 10 33  1  0
 10 34  1  0
 21 35  1  0
 22 36  1  0
 23 37  1  0
 24 38  1  0
 25 39  1  0
M  CHG  2  15  -1  16   1
M  END
>  <score>  (8) 
-7.382

$$$$
=
     RDKit          3D

 39 41  0  0  0  0  0  0  0  0999 V2000
    0.7800   59.6750   75.3670 C   0  0  0  0  0  0  0  0  0  0  0  0
    0.6970   61.1510   75.0640 C   0  0  0  0  0  0  0  0  0  0  0  0
    1.1170   61.9680   76.0680 N   0  0  0  0  0  0  0  0  0  0  0  0
    1.0710   63.2970   75.8650 C   0  0  0  0  0  0  0  0  0  0  0  0
    0.6100   63.8800   74.7020 C   0  0  0  0  0  0  0  0  0  0  0  0
    0.1600   63.0490   73.6810 C   0  0  0  0  0  0  0  0  0  0  0  0
    0.1780   61.6530   73.8580 C   0  0  0  0  0  0  0  0  0  0  0  0
   -0.3250   60.7270   72.7830 C   0  0  0  0  0  0  0  0  0  0  0  0
   -0.3340   63.5020   72.4860 O   0  0  0  0  0  0  0  0  0  0  0  0
    0.4210   64.4940   71.7820 C   0  0  0  0  0  0  0  0  0  0  0  0
    1.5830   63.8520   71.0410 C   0  0  0  0  0  0  0  0  0  0  0  0
    1.2180   62.7010   70.4330 F   0  0  0  0  0  0  0  0  0  0  0  0
    2.6190   63.5830   71.8640 F   0  0  0  0  0  0  0  0  0  0  0  0
    2.0410   64.6870   70.0770 F   0  0  0  0  0  0  0  0  0  0  0  0
    2.4930   57.4220   75.4210 O   0  0  0  0  0  1  0  0  0  0  0  0
    2.4990   59.0880   75.4920 S   0  0  0  0  0  3  0  0  0  0  0  0
    3.0440   59.5970   73.8510 C   0  0  0  0  0  0  0  0  0  0  0  0
    2.6450   59.0830   72.7090 N   0  0  0  0  0  0  0  0  0  0  0  0
    3.3360   59.7750   71.7450 C   0  0  0  0  0  0  0  0  0  0  0  0
    4.1720   60.7300   72.3160 C   0  0  0  0  0  0  0  0  0  0  0  0
    3.9610   60.5960   73.6620 N   0  0  0  0  0  0  0  0  0  0  0  0
    4.9970   61.5740   71.5690 C   0  0  0  0  0  0  0  0  0  0  0  0
    4.9510   61.4230   70.1780 C   0  0  0  0  0  0  0  0  0  0  0  0
    4.1200   60.4730   69.5760 C   0  0  0  0  0  0  0  0  0  0  0  0
    3.3040   59.6390   70.3500 C   0  0  0  0  0  0  0  0  0  0  0  0
    0.2701   59.4812   76.3222 H   0  0  0  0  0  0  0  0  0  0  0  0
    0.3005   59.1347   74.5374 H   0  0  0  0  0  0  0  0  0  0  0  0
    1.4209   63.9571   76.6724 H   0  0  0  0  0  0  0  0  0  0  0  0
    0.5987   64.9737   74.5854 H   0  0  0  0  0  0  0  0  0  0  0  0
   -0.8010   59.8507   73.2472 H   0  0  0  0  0  0  0  0  0  0  0  0
   -1.0600   61.2555   72.1582 H   0  0  0  0  0  0  0  0  0  0  0  0
    0.5185   60.3981   72.1582 H   0  0  0  0  0  0  0  0  0  0  0  0
   -0.2339   65.0013   71.0583 H   0  0  0  0  0  0  0  0  0  0  0  0
    0.8186   65.2195   72.5070 H   0  0  0  0  0  0  0  0  0  0  0  0
    4.4132   61.1501   74.4032 H   0  0  0  0  0  0  0  0  0  0  0  0
    5.6491   62.3187   72.0488 H   0  0  0  0  0  0  0  0  0  0  0  0
    5.5816   62.0650   69.5454 H   0  0  0  0  0  0  0  0  0  0  0  0
    4.1072   60.3797   68.4800 H   0  0  0  0  0  0  0  0  0  0  0  0
    2.6514   58.8926   69.8735 H   0  0  0  0  0  0  0  0  0  0  0  0
  2  1  1  0
  3  2  2  0
  4  3  1  0
  5  4  2  0
  6  5  1  0
  7  6  2  0
  7  2  1  0
  8  7  1  0
  9  6  1  0
 10  9  1  0
 11 10  1  0
 12 11  1  0
 13 11  1  0
 14 11  1  0
 16 15  1  6
 16  1  1  0
 17 16  1  0
 18 17  2  0
 19 18  1  0
 20 19  2  0
 21 20  1  0
 21 17  1  0
 22 20  1  0
 23 22  2  0
 24 23  1  0
 25 19  1  0
 25 24  2  0
  1 26  1  0
  1 27  1  0
  4 28  1  0
  5 29  1  0
  8 30  1  0
  8 31  1  0
  8 32  1  0
 10 33  1  0
 10 34  1  0
 21 35  1  0
 22 36  1  0
 23 37  1  0
 24 38  1  0
 25 39  1  0
M  CHG  2  15  -1  16   1
M  END
>  <score>  (9) 
-7.351

$$$$
