=
     RDKit          3D

 53 56  0  0  0  0  0  0  0  0999 V2000
    3.5220   60.6520   71.5150 C   0  0  0  0  0  0  0  0  0  0  0  0
    2.2080   61.1210   71.5520 C   0  0  0  0  0  0  0  0  0  0  0  0
    1.9780   62.4190   71.1230 C   0  0  0  0  0  0  0  0  0  0  0  0
    2.9890   63.2640   70.6620 C   0  0  0  0  0  0  0  0  0  0  0  0
    4.2980   62.8130   70.6200 C   0  0  0  0  0  0  0  0  0  0  0  0
    4.5520   61.5040   71.0490 C   0  0  0  0  0  0  0  0  0  0  0  0
    2.4570   64.6070   70.2650 C   0  0  0  0  0  0  0  0  0  0  0  0
    0.9760   64.4960   70.5320 C   0  0  0  0  0  0  0  0  0  0  0  0
   -0.0190   65.3820   70.3660 C   0  0  0  0  0  0  0  0  0  0  0  0
    0.6970   63.1270   71.0690 C   0  0  0  0  0  0  0  0  0  0  0  0
   -0.3880   62.6920   71.4000 O   0  0  0  0  0  0  0  0  0  0  0  0
    0.1230   66.7880   69.8420 C   0  0  0  0  0  0  0  0  0  0  0  0
    1.6050   67.1980   69.8600 C   0  0  0  0  0  0  0  0  0  0  0  0
    1.9050   68.2440   68.8000 C   0  0  0  0  0  0  0  0  0  0  0  0
    1.6620   67.6620   67.4200 N   0  0  0  0  0  4  0  0  0  0  0  0
    0.5410   66.6450   67.3490 C   0  0  0  0  0  0  0  0  0  0  0  0
   -0.4890   66.9110   68.4360 C   0  0  0  0  0  0  0  0  0  0  0  0
    1.5430   68.7320   66.3510 C   0  0  0  0  0  0  0  0  0  0  0  0
    2.8300   68.9690   65.6080 C   0  0  0  0  0  0  0  0  0  0  0  0
    2.9130   68.7230   64.2290 C   0  0  0  0  0  0  0  0  0  0  0  0
    4.0980   68.9760   63.5370 C   0  0  0  0  0  0  0  0  0  0  0  0
    5.2100   69.4730   64.2130 C   0  0  0  0  0  0  0  0  0  0  0  0
    5.1410   69.7170   65.5830 C   0  0  0  0  0  0  0  0  0  0  0  0
    3.9580   69.4660   66.2790 C   0  0  0  0  0  0  0  0  0  0  0  0
    3.3960   58.2920   71.1750 C   0  0  0  0  0  0  0  0  0  0  0  0
    3.9140   59.3980   71.9030 O   0  0  0  0  0  0  0  0  0  0  0  0
    5.8360   61.0250   71.0200 O   0  0  0  0  0  0  0  0  0  0  0  0
    1.3851   60.4841   71.9085 H   0  0  0  0  0  0  0  0  0  0  0  0
    5.1111   63.4613   70.2616 H   0  0  0  0  0  0  0  0  0  0  0  0
    2.9073   65.4037   70.8753 H   0  0  0  0  0  0  0  0  0  0  0  0
    2.6845   64.8646   69.2201 H   0  0  0  0  0  0  0  0  0  0  0  0
   -1.0322   65.0509   70.6377 H   0  0  0  0  0  0  0  0  0  0  0  0
   -0.4321   67.4779   70.4946 H   0  0  0  0  0  0  0  0  0  0  0  0
    1.8498   67.6112   70.8496 H   0  0  0  0  0  0  0  0  0  0  0  0
    2.2129   66.3062   69.6474 H   0  0  0  0  0  0  0  0  0  0  0  0
    1.2492   69.1143   68.9499 H   0  0  0  0  0  0  0  0  0  0  0  0
    2.9572   68.5539   68.8832 H   0  0  0  0  0  0  0  0  0  0  0  0
    2.5143   67.1211   67.2153 H   0  0  0  0  0  0  0  0  0  0  0  0
    0.0540   66.7111   66.3649 H   0  0  0  0  0  0  0  0  0  0  0  0
    0.9626   65.6398   67.4967 H   0  0  0  0  0  0  0  0  0  0  0  0
   -0.8874   67.9283   68.3084 H   0  0  0  0  0  0  0  0  0  0  0  0
   -1.2877   66.1604   68.3428 H   0  0  0  0  0  0  0  0  0  0  0  0
    0.7737   68.4214   65.6287 H   0  0  0  0  0  0  0  0  0  0  0  0
    1.2775   69.6725   66.8560 H   0  0  0  0  0  0  0  0  0  0  0  0
    2.0388   68.3284   63.6904 H   0  0  0  0  0  0  0  0  0  0  0  0
    4.1542   68.7826   62.4556 H   0  0  0  0  0  0  0  0  0  0  0  0
    6.1427   69.6728   63.6651 H   0  0  0  0  0  0  0  0  0  0  0  0
    6.0200   70.1079   66.1165 H   0  0  0  0  0  0  0  0  0  0  0  0
    3.9092   69.6590   67.3608 H   0  0  0  0  0  0  0  0  0  0  0  0
    3.0372   57.5259   71.8781 H   0  0  0  0  0  0  0  0  0  0  0  0
    2.5617   58.6282   70.5418 H   0  0  0  0  0  0  0  0  0  0  0  0
    4.1884   57.8663   70.5418 H   0  0  0  0  0  0  0  0  0  0  0  0
    6.0267   60.1013   71.3209 H   0  0  0  0  0  0  0  0  0  0  0  0
  2  1  2  0
  3  2  1  0
  4  3  2  0
  5  4  1  0
  6  5  2  0
  6  1  1  0
  7  4  1  0
  8  7  1  0
  9  8  2  0
 10  8  1  0
 10  3  1  0
 11 10  2  0
 12  9  1  0
 13 12  1  0
 14 13  1  0
 15 14  1  0
 16 15  1  0
 17 16  1  0
 17 12  1  0
 18 15  1  0
 19 18  1  0
 20 19  2  0
 21 20  1  0
 22 21  2  0
 23 22  1  0
 24 23  2  0
 24 19  1  0
 26 25  1  0
 26  1  1  0
 27  6  1  0
  2 28  1  0
  5 29  1  0
  7 30  1  0
  7 31  1  0
  9 32  1  0
 12 33  1  0
 13 34  1  0
 13 35  1  0
 14 36  1  0
 14 37  1  0
 15 38  1  0
 16 39  1  0
 16 40  1  0
 17 41  1  0
 17 42  1  0
 18 43  1  0
 18 44  1  0
 20 45  1  0
 21 46  1  0
 22 47  1  0
 23 48  1  0
 24 49  1  0
 25 50  1  0
 25 51  1  0
 25 52  1  0
 27 53  1  0
M  CHG  1  15   1
M  END
>  <score>  (1) 
-10.076

$$$$
=
     RDKit          3D

 53 56  0  0  0  0  0  0  0  0999 V2000
    1.3550   68.7080   63.5330 C   0  0  0  0  0  0  0  0  0  0  0  0
    0.3040   68.3020   64.3570 C   0  0  0  0  0  0  0  0  0  0  0  0
    0.6120   67.9310   65.6560 C   0  0  0  0  0  0  0  0  0  0  0  0
    1.9110   67.9440   66.1680 C   0  0  0  0  0  0  0  0  0  0  0  0
    2.9650   68.3440   65.3640 C   0  0  0  0  0  0  0  0  0  0  0  0
    2.6740   68.7240   64.0470 C   0  0  0  0  0  0  0  0  0  0  0  0
    1.9530   67.4930   67.5960 C   0  0  0  0  0  0  0  0  0  0  0  0
    0.5080   67.1970   67.9180 C   0  0  0  0  0  0  0  0  0  0  0  0
   -0.0720   66.7630   69.0480 C   0  0  0  0  0  0  0  0  0  0  0  0
   -0.3110   67.4730   66.6960 C   0  0  0  0  0  0  0  0  0  0  0  0
   -1.5140   67.3370   66.5910 O   0  0  0  0  0  0  0  0  0  0  0  0
    0.6320   66.4440   70.3420 C   0  0  0  0  0  0  0  0  0  0  0  0
   -0.3940   65.9630   71.3820 C   0  0  0  0  0  0  0  0  0  0  0  0
    0.2440   65.0410   72.4060 C   0  0  0  0  0  0  0  0  0  0  0  0
    0.7480   63.7840   71.7230 N   0  0  0  0  0  4  0  0  0  0  0  0
    1.2430   63.9880   70.3050 C   0  0  0  0  0  0  0  0  0  0  0  0
    1.7480   65.4090   70.1170 C   0  0  0  0  0  0  0  0  0  0  0  0
    1.7380   63.0150   72.5780 C   0  0  0  0  0  0  0  0  0  0  0  0
    2.7020   62.1910   71.7680 C   0  0  0  0  0  0  0  0  0  0  0  0
    3.9730   62.6910   71.4460 C   0  0  0  0  0  0  0  0  0  0  0  0
    4.8760   61.9110   70.7230 C   0  0  0  0  0  0  0  0  0  0  0  0
    4.5200   60.6280   70.3140 C   0  0  0  0  0  0  0  0  0  0  0  0
    3.2600   60.1230   70.6230 C   0  0  0  0  0  0  0  0  0  0  0  0
    2.3530   60.8980   71.3460 C   0  0  0  0  0  0  0  0  0  0  0  0
    0.0230   69.7890   61.8720 C   0  0  0  0  0  0  0  0  0  0  0  0
    1.2170   69.1050   62.2290 O   0  0  0  0  0  0  0  0  0  0  0  0
    3.6940   69.1250   63.2240 O   0  0  0  0  0  0  0  0  0  0  0  0
   -0.7320   68.2775   63.9882 H   0  0  0  0  0  0  0  0  0  0  0  0
    3.9962   68.3628   65.7463 H   0  0  0  0  0  0  0  0  0  0  0  0
    2.5723   66.5904   67.7047 H   0  0  0  0  0  0  0  0  0  0  0  0
    2.3955   68.2430   68.2681 H   0  0  0  0  0  0  0  0  0  0  0  0
   -1.1634   66.6274   69.0278 H   0  0  0  0  0  0  0  0  0  0  0  0
    1.1131   67.3545   70.7286 H   0  0  0  0  0  0  0  0  0  0  0  0
   -0.8143   66.8373   71.9007 H   0  0  0  0  0  0  0  0  0  0  0  0
   -1.1823   65.4037   70.8569 H   0  0  0  0  0  0  0  0  0  0  0  0
    1.0872   65.5580   72.8875 H   0  0  0  0  0  0  0  0  0  0  0  0
   -0.5047   64.7669   73.1639 H   0  0  0  0  0  0  0  0  0  0  0  0
   -0.0894   63.1929   71.6217 H   0  0  0  0  0  0  0  0  0  0  0  0
    2.0626   63.2828   70.1027 H   0  0  0  0  0  0  0  0  0  0  0  0
    0.4102   63.8113   69.6085 H   0  0  0  0  0  0  0  0  0  0  0  0
    2.5589   65.5972   70.8360 H   0  0  0  0  0  0  0  0  0  0  0  0
    2.1070   65.5113   69.0823 H   0  0  0  0  0  0  0  0  0  0  0  0
    2.3124   63.7338   73.1808 H   0  0  0  0  0  0  0  0  0  0  0  0
    1.1597   62.3208   73.2054 H   0  0  0  0  0  0  0  0  0  0  0  0
    4.2591   63.7039   71.7655 H   0  0  0  0  0  0  0  0  0  0  0  0
    5.8708   62.3099   70.4755 H   0  0  0  0  0  0  0  0  0  0  0  0
    5.2346   60.0136   69.7467 H   0  0  0  0  0  0  0  0  0  0  0  0
    2.9791   59.1109   70.2964 H   0  0  0  0  0  0  0  0  0  0  0  0
    1.3587   60.4939   71.5869 H   0  0  0  0  0  0  0  0  0  0  0  0
   -0.5109   70.0949   62.7838 H   0  0  0  0  0  0  0  0  0  0  0  0
    0.2745   70.6800   61.2780 H   0  0  0  0  0  0  0  0  0  0  0  0
   -0.6184   69.1214   61.2780 H   0  0  0  0  0  0  0  0  0  0  0  0
    3.5004   69.3957   62.2916 H   0  0  0  0  0  0  0  0  0  0  0  0
  2  1  2  0
  3  2  1  0
  4  3  2  0
  5  4  1  0
  6  5  2  0
  6  1  1  0
  7  4  1  0
  8  7  1  0
  9  8  2  0
 10  8  1  0
 10  3  1  0
 11 10  2  0
 12  9  1  0
 13 12  1  0
 14 13  1  0
 15 14  1  0
 16 15  1  0
 17 16  1  0
 17 12  1  0
 18 15  1  0
 19 18  1  0
 20 19  2  0
 21 20  1  0
 22 21  2  0
 23 22  1  0
 24 23  2  0
 24 19  1  0
 26 25  1  0
 26  1  1  0
 27  6  1  0
  2 28  1  0
  5 29  1  0
  7 30  1  0
  7 31  1  0
  9 32  1  0
 12 33  1  0
 13 34  1  0
 13 35  1  0
 14 36  1  0
 14 37  1  0
 15 38  1  0
 16 39  1  0
 16 40  1  0
 17 41  1  0
 17 42  1  0
 18 43  1  0
 18 44  1  0
 20 45  1  0
 21 46  1  0
 22 47  1  0
 23 48  1  0
 24 49  1  0
 25 50  1  0
 25 51  1  0
 25 52  1  0
 27 53  1  0
M  CHG  1  15   1
M  END
>  <score>  (2) 
-9.742

$$$$
=
     RDKit          3D

 53 56  0  0  0  0  0  0  0  0999 V2000
    2.7290   61.1810   74.0600 C   0  0  0  0  0  0  0  0  0  0  0  0
    1.7200   62.1430   73.9900 C   0  0  0  0  0  0  0  0  0  0  0  0
    1.5820   62.8440   72.8020 C   0  0  0  0  0  0  0  0  0  0  0  0
    2.3980   62.6320   71.6900 C   0  0  0  0  0  0  0  0  0  0  0  0
    3.4040   61.6820   71.7430 C   0  0  0  0  0  0  0  0  0  0  0  0
    3.5600   60.9620   72.9350 C   0  0  0  0  0  0  0  0  0  0  0  0
    2.0270   63.5280   70.5470 C   0  0  0  0  0  0  0  0  0  0  0  0
    0.8670   64.3290   71.0840 C   0  0  0  0  0  0  0  0  0  0  0  0
    0.1180   65.2870   70.5160 C   0  0  0  0  0  0  0  0  0  0  0  0
    0.6060   63.8910   72.4930 C   0  0  0  0  0  0  0  0  0  0  0  0
   -0.2510   64.3270   73.2340 O   0  0  0  0  0  0  0  0  0  0  0  0
    0.2750   65.8220   69.1160 C   0  0  0  0  0  0  0  0  0  0  0  0
   -0.8700   66.8020   68.8080 C   0  0  0  0  0  0  0  0  0  0  0  0
   -0.4560   67.8310   67.7710 C   0  0  0  0  0  0  0  0  0  0  0  0
    0.6720   68.6860   68.3160 N   0  0  0  0  0  4  0  0  0  0  0  0
    1.6180   67.9640   69.2540 C   0  0  0  0  0  0  0  0  0  0  0  0
    1.6540   66.4790   68.9330 C   0  0  0  0  0  0  0  0  0  0  0  0
    1.4040   69.4470   67.2260 C   0  0  0  0  0  0  0  0  0  0  0  0
    2.8120   69.8150   67.6070 C   0  0  0  0  0  0  0  0  0  0  0  0
    3.8840   69.5110   66.7550 C   0  0  0  0  0  0  0  0  0  0  0  0
    5.1850   69.8840   67.0960 C   0  0  0  0  0  0  0  0  0  0  0  0
    5.4280   70.5600   68.2900 C   0  0  0  0  0  0  0  0  0  0  0  0
    4.3720   70.8620   69.1470 C   0  0  0  0  0  0  0  0  0  0  0  0
    3.0700   70.4920   68.8100 C   0  0  0  0  0  0  0  0  0  0  0  0
    1.9390   59.6010   75.6660 C   0  0  0  0  0  0  0  0  0  0  0  0
    2.9950   60.4060   75.1580 O   0  0  0  0  0  0  0  0  0  0  0  0
    4.5460   60.0140   73.0220 O   0  0  0  0  0  0  0  0  0  0  0  0
    1.0581   62.3379   74.8467 H   0  0  0  0  0  0  0  0  0  0  0  0
    4.0588   61.4986   70.8783 H   0  0  0  0  0  0  0  0  0  0  0  0
    2.8659   64.1857   70.2756 H   0  0  0  0  0  0  0  0  0  0  0  0
    1.7741   62.9710   69.6328 H   0  0  0  0  0  0  0  0  0  0  0  0
   -0.6849   65.7220   71.1293 H   0  0  0  0  0  0  0  0  0  0  0  0
    0.2188   64.9891   68.3997 H   0  0  0  0  0  0  0  0  0  0  0  0
   -1.7323   66.2359   68.4258 H   0  0  0  0  0  0  0  0  0  0  0  0
   -1.1306   67.3319   69.7361 H   0  0  0  0  0  0  0  0  0  0  0  0
   -0.1162   67.3155   66.8607 H   0  0  0  0  0  0  0  0  0  0  0  0
   -1.3166   68.4738   67.5341 H   0  0  0  0  0  0  0  0  0  0  0  0
    0.2018   69.3839   68.9100 H   0  0  0  0  0  0  0  0  0  0  0  0
    2.6288   68.3833   69.1423 H   0  0  0  0  0  0  0  0  0  0  0  0
    1.2650   68.0965   70.2874 H   0  0  0  0  0  0  0  0  0  0  0  0
    1.9753   66.3479   67.8892 H   0  0  0  0  0  0  0  0  0  0  0  0
    2.3579   65.9959   69.6266 H   0  0  0  0  0  0  0  0  0  0  0  0
    1.4383   68.8193   66.3233 H   0  0  0  0  0  0  0  0  0  0  0  0
    0.8547   70.3846   67.0550 H   0  0  0  0  0  0  0  0  0  0  0  0
    3.6982   68.9754   65.8124 H   0  0  0  0  0  0  0  0  0  0  0  0
    6.0198   69.6440   66.4211 H   0  0  0  0  0  0  0  0  0  0  0  0
    6.4537   70.8552   68.5559 H   0  0  0  0  0  0  0  0  0  0  0  0
    4.5652   71.3930   70.0908 H   0  0  0  0  0  0  0  0  0  0  0  0
    2.2401   70.7320   69.4909 H   0  0  0  0  0  0  0  0  0  0  0  0
    1.9614   59.6180   76.7656 H   0  0  0  0  0  0  0  0  0  0  0  0
    0.9748   59.9953   75.3127 H   0  0  0  0  0  0  0  0  0  0  0  0
    2.0638   58.5668   75.3127 H   0  0  0  0  0  0  0  0  0  0  0  0
    4.6653   59.4993   73.8592 H   0  0  0  0  0  0  0  0  0  0  0  0
  2  1  2  0
  3  2  1  0
  4  3  2  0
  5  4  1  0
  6  5  2  0
  6  1  1  0
  7  4  1  0
  8  7  1  0
  9  8  2  0
 10  8  1  0
 10  3  1  0
 11 10  2  0
 12  9  1  0
 13 12  1  0
 14 13  1  0
 15 14  1  0
 16 15  1  0
 17 16  1  0
 17 12  1  0
 18 15  1  0
 19 18  1  0
 20 19  2  0
 21 20  1  0
 22 21  2  0
 23 22  1  0
 24 23  2  0
 24 19  1  0
 26 25  1  0
 26  1  1  0
 27  6  1  0
  2 28  1  0
  5 29  1  0
  7 30  1  0
  7 31  1  0
  9 32  1  0
 12 33  1  0
 13 34  1  0
 13 35  1  0
 14 36  1  0
 14 37  1  0
 15 38  1  0
 16 39  1  0
 16 40  1  0
 17 41  1  0
 17 42  1  0
 18 43  1  0
 18 44  1  0
 20 45  1  0
 21 46  1  0
 22 47  1  0
 23 48  1  0
 24 49  1  0
 25 50  1  0
 25 51  1  0
 25 52  1  0
 27 53  1  0
M  CHG  1  15   1
M  END
>  <score>  (3) 
-9.62

$$$$
=
     RDKit          3D

 53 56  0  0  0  0  0  0  0  0999 V2000
    0.4180   55.9400   74.0690 C   0  0  0  0  0  0  0  0  0  0  0  0
   -0.3600   57.0980   74.0500 C   0  0  0  0  0  0  0  0  0  0  0  0
    0.2360   58.2650   73.5990 C   0  0  0  0  0  0  0  0  0  0  0  0
    1.5630   58.3300   73.1700 C   0  0  0  0  0  0  0  0  0  0  0  0
    2.3480   57.1900   73.1820 C   0  0  0  0  0  0  0  0  0  0  0  0
    1.7640   56.0000   73.6340 C   0  0  0  0  0  0  0  0  0  0  0  0
    1.9430   59.7140   72.7390 C   0  0  0  0  0  0  0  0  0  0  0  0
    0.6800   60.5120   72.9500 C   0  0  0  0  0  0  0  0  0  0  0  0
    0.4100   61.8100   72.7370 C   0  0  0  0  0  0  0  0  0  0  0  0
   -0.3720   59.5930   73.4890 C   0  0  0  0  0  0  0  0  0  0  0  0
   -1.5110   59.8970   73.7820 O   0  0  0  0  0  0  0  0  0  0  0  0
    1.3720   62.8400   72.2040 C   0  0  0  0  0  0  0  0  0  0  0  0
    1.5080   62.6810   70.6800 C   0  0  0  0  0  0  0  0  0  0  0  0
    1.8840   63.9940   70.0160 C   0  0  0  0  0  0  0  0  0  0  0  0
    0.7750   65.0090   70.2190 N   0  0  0  0  0  4  0  0  0  0  0  0
    0.0290   64.8780   71.5320 C   0  0  0  0  0  0  0  0  0  0  0  0
    0.9240   64.2600   72.5930 C   0  0  0  0  0  0  0  0  0  0  0  0
    1.2330   66.4300   69.9510 C   0  0  0  0  0  0  0  0  0  0  0  0
    0.5050   67.0790   68.8050 C   0  0  0  0  0  0  0  0  0  0  0  0
    1.1160   68.0950   68.0550 C   0  0  0  0  0  0  0  0  0  0  0  0
    0.4500   68.6710   66.9730 C   0  0  0  0  0  0  0  0  0  0  0  0
   -0.8300   68.2410   66.6290 C   0  0  0  0  0  0  0  0  0  0  0  0
   -1.4480   67.2360   67.3690 C   0  0  0  0  0  0  0  0  0  0  0  0
   -0.7870   66.6560   68.4520 C   0  0  0  0  0  0  0  0  0  0  0  0
   -0.3920   54.5710   75.8490 C   0  0  0  0  0  0  0  0  0  0  0  0
   -0.0220   54.7110   74.4840 O   0  0  0  0  0  0  0  0  0  0  0  0
    2.5130   54.8520   73.6600 O   0  0  0  0  0  0  0  0  0  0  0  0
   -1.4089   57.0851   74.3811 H   0  0  0  0  0  0  0  0  0  0  0  0
    3.3956   57.2178   72.8477 H   0  0  0  0  0  0  0  0  0  0  0  0
    2.7633   60.1065   73.3579 H   0  0  0  0  0  0  0  0  0  0  0  0
    2.3047   59.7537   71.7009 H   0  0  0  0  0  0  0  0  0  0  0  0
   -0.6079   62.1532   72.9736 H   0  0  0  0  0  0  0  0  0  0  0  0
    2.3619   62.6802   72.6562 H   0  0  0  0  0  0  0  0  0  0  0  0
    2.2884   61.9358   70.4664 H   0  0  0  0  0  0  0  0  0  0  0  0
    0.5368   62.3562   70.2783 H   0  0  0  0  0  0  0  0  0  0  0  0
    2.8143   64.3755   70.4621 H   0  0  0  0  0  0  0  0  0  0  0  0
    2.0306   63.8271   68.9387 H   0  0  0  0  0  0  0  0  0  0  0  0
    0.0755   64.7745   69.5003 H   0  0  0  0  0  0  0  0  0  0  0  0
   -0.2933   65.8752   71.8663 H   0  0  0  0  0  0  0  0  0  0  0  0
   -0.8453   64.2277   71.3812 H   0  0  0  0  0  0  0  0  0  0  0  0
    1.8150   64.8925   72.7202 H   0  0  0  0  0  0  0  0  0  0  0  0
    0.3502   64.1939   73.5292 H   0  0  0  0  0  0  0  0  0  0  0  0
    1.0634   67.0293   70.8577 H   0  0  0  0  0  0  0  0  0  0  0  0
    2.2981   66.3855   69.6797 H   0  0  0  0  0  0  0  0  0  0  0  0
    2.1261   68.4394   68.3216 H   0  0  0  0  0  0  0  0  0  0  0  0
    0.9366   69.4667   66.3899 H   0  0  0  0  0  0  0  0  0  0  0  0
   -1.3519   68.6950   65.7737 H   0  0  0  0  0  0  0  0  0  0  0  0
   -2.4596   66.8988   67.0989 H   0  0  0  0  0  0  0  0  0  0  0  0
   -1.2805   65.8628   69.0328 H   0  0  0  0  0  0  0  0  0  0  0  0
    0.4442   54.8874   76.4899 H   0  0  0  0  0  0  0  0  0  0  0  0
   -1.2711   55.1986   76.0568 H   0  0  0  0  0  0  0  0  0  0  0  0
   -0.6354   53.5186   76.0568 H   0  0  0  0  0  0  0  0  0  0  0  0
    2.1102   54.0053   73.9776 H   0  0  0  0  0  0  0  0  0  0  0  0
  2  1  2  0
  3  2  1  0
  4  3  2  0
  5  4  1  0
  6  5  2  0
  6  1  1  0
  7  4  1  0
  8  7  1  0
  9  8  2  0
 10  8  1  0
 10  3  1  0
 11 10  2  0
 12  9  1  0
 13 12  1  0
 14 13  1  0
 15 14  1  0
 16 15  1  0
 17 16  1  0
 17 12  1  0
 18 15  1  0
 19 18  1  0
 20 19  2  0
 21 20  1  0
 22 21  2  0
 23 22  1  0
 24 23  2  0
 24 19  1  0
 26 25  1  0
 26  1  1  0
 27  6  1  0
  2 28  1  0
  5 29  1  0
  7 30  1  0
  7 31  1  0
  9 32  1  0
 12 33  1  0
 13 34  1  0
 13 35  1  0
 14 36  1  0
 14 37  1  0
 15 38  1  0
 16 39  1  0
 16 40  1  0
 17 41  1  0
 17 42  1  0
 18 43  1  0
 18 44  1  0
 20 45  1  0
 21 46  1  0
 22 47  1  0
 23 48  1  0
 24 49  1  0
 25 50  1  0
 25 51  1  0
 25 52  1  0
 27 53  1  0
M  CHG  1  15   1
M  END
>  <score>  (4) 
-9.546

$$$$
=
     RDKit          3D

 53 56  0  0  0  0  0  0  0  0999 V2000
    0.7180   56.0700   73.7620 C   0  0  0  0  0  0  0  0  0  0  0  0
    1.5870   56.7100   72.8770 C   0  0  0  0  0  0  0  0  0  0  0  0
    1.5520   58.0950   72.8320 C   0  0  0  0  0  0  0  0  0  0  0  0
    0.6970   58.8660   73.6220 C   0  0  0  0  0  0  0  0  0  0  0  0
   -0.1710   58.2460   74.5040 C   0  0  0  0  0  0  0  0  0  0  0  0
   -0.1520   56.8460   74.5660 C   0  0  0  0  0  0  0  0  0  0  0  0
    0.8710   60.3320   73.3670 C   0  0  0  0  0  0  0  0  0  0  0  0
    1.9510   60.3850   72.3150 C   0  0  0  0  0  0  0  0  0  0  0  0
    2.5300   61.4260   71.6960 C   0  0  0  0  0  0  0  0  0  0  0  0
    2.3610   58.9810   71.9920 C   0  0  0  0  0  0  0  0  0  0  0  0
    3.2030   58.6460   71.1830 O   0  0  0  0  0  0  0  0  0  0  0  0
    2.2110   62.8810   71.9220 C   0  0  0  0  0  0  0  0  0  0  0  0
    2.9400   63.7380   70.8730 C   0  0  0  0  0  0  0  0  0  0  0  0
    2.2020   65.0380   70.6070 C   0  0  0  0  0  0  0  0  0  0  0  0
    0.8390   64.7430   70.0110 N   0  0  0  0  0  4  0  0  0  0  0  0
    0.1970   63.4600   70.5010 C   0  0  0  0  0  0  0  0  0  0  0  0
    0.6910   63.1180   71.8970 C   0  0  0  0  0  0  0  0  0  0  0  0
   -0.1020   65.9310   70.0950 C   0  0  0  0  0  0  0  0  0  0  0  0
   -0.0950   66.7780   68.8510 C   0  0  0  0  0  0  0  0  0  0  0  0
    1.0450   67.5160   68.4970 C   0  0  0  0  0  0  0  0  0  0  0  0
    1.0590   68.2750   67.3260 C   0  0  0  0  0  0  0  0  0  0  0  0
   -0.0620   68.3050   66.4990 C   0  0  0  0  0  0  0  0  0  0  0  0
   -1.2000   67.5800   66.8430 C   0  0  0  0  0  0  0  0  0  0  0  0
   -1.2200   66.8200   68.0120 C   0  0  0  0  0  0  0  0  0  0  0  0
    1.6580   54.0720   74.6680 C   0  0  0  0  0  0  0  0  0  0  0  0
    0.6300   54.7130   73.9250 O   0  0  0  0  0  0  0  0  0  0  0  0
   -0.9980   56.2000   75.4280 O   0  0  0  0  0  0  0  0  0  0  0  0
    2.2747   56.1362   72.2384 H   0  0  0  0  0  0  0  0  0  0  0  0
   -0.8537   58.8331   75.1359 H   0  0  0  0  0  0  0  0  0  0  0  0
   -0.0624   60.7790   72.9941 H   0  0  0  0  0  0  0  0  0  0  0  0
    1.1319   60.8952   74.2752 H   0  0  0  0  0  0  0  0  0  0  0  0
    3.3096   61.1953   70.9551 H   0  0  0  0  0  0  0  0  0  0  0  0
    2.5664   63.1803   72.9191 H   0  0  0  0  0  0  0  0  0  0  0  0
    3.9508   63.9693   71.2401 H   0  0  0  0  0  0  0  0  0  0  0  0
    2.9859   63.1684   69.9331 H   0  0  0  0  0  0  0  0  0  0  0  0
    2.0762   65.5864   71.5522 H   0  0  0  0  0  0  0  0  0  0  0  0
    2.7834   65.6472   69.8993 H   0  0  0  0  0  0  0  0  0  0  0  0
    1.0263   64.5736   69.0124 H   0  0  0  0  0  0  0  0  0  0  0  0
   -0.8953   63.5877   70.5245 H   0  0  0  0  0  0  0  0  0  0  0  0
    0.4682   62.6423   69.8170 H   0  0  0  0  0  0  0  0  0  0  0  0
    0.4490   63.9503   72.5744 H   0  0  0  0  0  0  0  0  0  0  0  0
    0.1946   62.1904   72.2181 H   0  0  0  0  0  0  0  0  0  0  0  0
   -1.1237   65.5576   70.2587 H   0  0  0  0  0  0  0  0  0  0  0  0
    0.2426   66.5646   70.9255 H   0  0  0  0  0  0  0  0  0  0  0  0
    1.9327   67.4961   69.1463 H   0  0  0  0  0  0  0  0  0  0  0  0
    1.9565   68.8505   67.0554 H   0  0  0  0  0  0  0  0  0  0  0  0
   -0.0480   68.9012   65.5747 H   0  0  0  0  0  0  0  0  0  0  0  0
   -2.0855   67.6069   66.1909 H   0  0  0  0  0  0  0  0  0  0  0  0
   -2.1224   66.2501   68.2784 H   0  0  0  0  0  0  0  0  0  0  0  0
    1.4631   54.1935   75.7438 H   0  0  0  0  0  0  0  0  0  0  0  0
    1.6781   53.0011   74.4177 H   0  0  0  0  0  0  0  0  0  0  0  0
    2.6285   54.5253   74.4177 H   0  0  0  0  0  0  0  0  0  0  0  0
   -0.9923   55.2113   75.4793 H   0  0  0  0  0  0  0  0  0  0  0  0
  2  1  2  0
  3  2  1  0
  4  3  2  0
  5  4  1  0
  6  5  2  0
  6  1  1  0
  7  4  1  0
  8  7  1  0
  9  8  2  0
 10  8  1  0
 10  3  1  0
 11 10  2  0
 12  9  1  0
 13 12  1  0
 14 13  1  0
 15 14  1  0
 16 15  1  0
 17 16  1  0
 17 12  1  0
 18 15  1  0
 19 18  1  0
 20 19  2  0
 21 20  1  0
 22 21  2  0
 23 22  1  0
 24 23  2  0
 24 19  1  0
 26 25  1  0
 26  1  1  0
 27  6  1  0
  2 28  1  0
  5 29  1  0
  7 30  1  0
  7 31  1  0
  9 32  1  0
 12 33  1  0
 13 34  1  0
 13 35  1  0
 14 36  1  0
 14 37  1  0
 15 38  1  0
 16 39  1  0
 16 40  1  0
 17 41  1  0
 17 42  1  0
 18 43  1  0
 18 44  1  0
 20 45  1  0
 21 46  1  0
 22 47  1  0
 23 48  1  0
 24 49  1  0
 25 50  1  0
 25 51  1  0
 25 52  1  0
 27 53  1  0
M  CHG  1  15   1
M  END
>  <score>  (5) 
-9.522

$$$$
=
     RDKit          3D

 53 56  0  0  0  0  0  0  0  0999 V2000
    1.3670   68.7780   63.5680 C   0  0  0  0  0  0  0  0  0  0  0  0
    0.3050   68.3800   64.3820 C   0  0  0  0  0  0  0  0  0  0  0  0
    0.6030   67.9610   65.6690 C   0  0  0  0  0  0  0  0  0  0  0  0
    1.9020   67.9210   66.1780 C   0  0  0  0  0  0  0  0  0  0  0  0
    2.9670   68.3120   65.3840 C   0  0  0  0  0  0  0  0  0  0  0  0
    2.6870   68.7390   64.0800 C   0  0  0  0  0  0  0  0  0  0  0  0
    1.9320   67.4280   67.5930 C   0  0  0  0  0  0  0  0  0  0  0  0
    0.4800   67.1660   67.9090 C   0  0  0  0  0  0  0  0  0  0  0  0
   -0.1130   66.7170   69.0260 C   0  0  0  0  0  0  0  0  0  0  0  0
   -0.3330   67.5020   66.6970 C   0  0  0  0  0  0  0  0  0  0  0  0
   -1.5390   67.4050   66.5910 O   0  0  0  0  0  0  0  0  0  0  0  0
    0.5830   66.3400   70.3100 C   0  0  0  0  0  0  0  0  0  0  0  0
   -0.4650   66.0420   71.3960 C   0  0  0  0  0  0  0  0  0  0  0  0
    0.0700   65.0700   72.4320 C   0  0  0  0  0  0  0  0  0  0  0  0
    0.3660   63.7330   71.7780 N   0  0  0  0  0  4  0  0  0  0  0  0
    0.8360   63.8210   70.3400 C   0  0  0  0  0  0  0  0  0  0  0  0
    1.5310   65.1490   70.0880 C   0  0  0  0  0  0  0  0  0  0  0  0
    1.2650   62.8560   72.6300 C   0  0  0  0  0  0  0  0  0  0  0  0
    0.6300   61.5440   73.0020 C   0  0  0  0  0  0  0  0  0  0  0  0
    1.3890   60.3640   73.0210 C   0  0  0  0  0  0  0  0  0  0  0  0
    0.8040   59.1550   73.3980 C   0  0  0  0  0  0  0  0  0  0  0  0
   -0.5410   59.1110   73.7570 C   0  0  0  0  0  0  0  0  0  0  0  0
   -1.3060   60.2750   73.7370 C   0  0  0  0  0  0  0  0  0  0  0  0
   -0.7260   61.4860   73.3610 C   0  0  0  0  0  0  0  0  0  0  0  0
    0.0020   69.8050   61.9010 C   0  0  0  0  0  0  0  0  0  0  0  0
    1.2400   69.2160   62.2770 O   0  0  0  0  0  0  0  0  0  0  0  0
    3.7170   69.1330   63.2670 O   0  0  0  0  0  0  0  0  0  0  0  0
   -0.7318   68.3983   64.0149 H   0  0  0  0  0  0  0  0  0  0  0  0
    3.9987   68.2880   65.7649 H   0  0  0  0  0  0  0  0  0  0  0  0
    2.5244   66.5047   67.6746 H   0  0  0  0  0  0  0  0  0  0  0  0
    2.3972   68.1451   68.2854 H   0  0  0  0  0  0  0  0  0  0  0  0
   -1.2080   66.6144   69.0031 H   0  0  0  0  0  0  0  0  0  0  0  0
    1.2015   67.1836   70.6503 H   0  0  0  0  0  0  0  0  0  0  0  0
   -0.7392   66.9826   71.8961 H   0  0  0  0  0  0  0  0  0  0  0  0
   -1.3420   65.5853   70.9140 H   0  0  0  0  0  0  0  0  0  0  0  0
    0.9943   65.4750   72.8697 H   0  0  0  0  0  0  0  0  0  0  0  0
   -0.6832   64.9294   73.2212 H   0  0  0  0  0  0  0  0  0  0  0  0
   -0.5500   63.2653   71.7217 H   0  0  0  0  0  0  0  0  0  0  0  0
    1.5397   63.0000   70.1382 H   0  0  0  0  0  0  0  0  0  0  0  0
   -0.0368   63.7441   69.6749 H   0  0  0  0  0  0  0  0  0  0  0  0
    2.3848   65.2403   70.7755 H   0  0  0  0  0  0  0  0  0  0  0  0
    1.8643   65.1675   69.0399 H   0  0  0  0  0  0  0  0  0  0  0  0
    2.1883   62.6511   72.0682 H   0  0  0  0  0  0  0  0  0  0  0  0
    1.4635   63.4007   73.5648 H   0  0  0  0  0  0  0  0  0  0  0  0
    2.4513   60.3924   72.7370 H   0  0  0  0  0  0  0  0  0  0  0  0
    1.4062   58.2346   73.4118 H   0  0  0  0  0  0  0  0  0  0  0  0
   -0.9993   58.1569   74.0564 H   0  0  0  0  0  0  0  0  0  0  0  0
   -2.3688   60.2388   74.0181 H   0  0  0  0  0  0  0  0  0  0  0  0
   -1.3349   62.4019   73.3456 H   0  0  0  0  0  0  0  0  0  0  0  0
   -0.5650   70.0748   62.8042 H   0  0  0  0  0  0  0  0  0  0  0  0
    0.1924   70.7090   61.3039 H   0  0  0  0  0  0  0  0  0  0  0  0
   -0.5793   69.0870   61.3039 H   0  0  0  0  0  0  0  0  0  0  0  0
    3.5303   69.4367   62.3434 H   0  0  0  0  0  0  0  0  0  0  0  0
  2  1  2  0
  3  2  1  0
  4  3  2  0
  5  4  1  0
  6  5  2  0
  6  1  1  0
  7  4  1  0
  8  7  1  0
  9  8  2  0
 10  8  1  0
 10  3  1  0
 11 10  2  0
 12  9  1  0
 13 12  1  0
 14 13  1  0
 15 14  1  0
 16 15  1  0
 17 16  1  0
 17 12  1  0
 18 15  1  0
 19 18  1  0
 20 19  2  0
 21 20  1  0
 22 21  2  0
 23 22  1  0
 24 23  2  0
 24 19  1  0
 26 25  1  0
 26  1  1  0
 27  6  1  0
  2 28  1  0
  5 29  1  0
  7 30  1  0
  7 31  1  0
  9 32  1  0
 12 33  1  0
 13 34  1  0
 13 35  1  0
 14 36  1  0
 14 37  1  0
 15 38  1  0
 16 39  1  0
 16 40  1  0
 17 41  1  0
 17 42  1  0
 18 43  1  0
 18 44  1  0
 20 45  1  0
 21 46  1  0
 22 47  1  0
 23 48  1  0
 24 49  1  0
 25 50  1  0
 25 51  1  0
 25 52  1  0
 27 53  1  0
M  CHG  1  15   1
M  END
>  <score>  (6) 
-9.463

$$$$
=
     RDKit          3D

 53 56  0  0  0  0  0  0  0  0999 V2000
   -5.5880   59.0630   76.0860 C   0  0  0  0  0  0  0  0  0  0  0  0
   -4.3640   58.3940   76.1100 C   0  0  0  0  0  0  0  0  0  0  0  0
   -3.3240   58.9310   75.3680 C   0  0  0  0  0  0  0  0  0  0  0  0
   -3.4480   60.0960   74.6080 C   0  0  0  0  0  0  0  0  0  0  0  0
   -4.6560   60.7710   74.5740 C   0  0  0  0  0  0  0  0  0  0  0  0
   -5.7200   60.2440   75.3170 C   0  0  0  0  0  0  0  0  0  0  0  0
   -2.1690   60.4460   73.9100 C   0  0  0  0  0  0  0  0  0  0  0  0
   -1.2210   59.3500   74.3320 C   0  0  0  0  0  0  0  0  0  0  0  0
    0.0670   59.1320   74.0270 C   0  0  0  0  0  0  0  0  0  0  0  0
   -1.9600   58.4140   75.2380 C   0  0  0  0  0  0  0  0  0  0  0  0
   -1.5090   57.4140   75.7600 O   0  0  0  0  0  0  0  0  0  0  0  0
    0.9240   59.9880   73.1290 C   0  0  0  0  0  0  0  0  0  0  0  0
    1.6150   61.0790   73.9630 C   0  0  0  0  0  0  0  0  0  0  0  0
    2.9210   61.5210   73.3260 C   0  0  0  0  0  0  0  0  0  0  0  0
    3.8960   60.3590   73.2920 N   0  0  0  0  0  4  0  0  0  0  0  0
    3.2540   58.9980   73.1110 C   0  0  0  0  0  0  0  0  0  0  0  0
    1.9390   59.1260   72.3580 C   0  0  0  0  0  0  0  0  0  0  0  0
    5.0440   60.5920   72.3270 C   0  0  0  0  0  0  0  0  0  0  0  0
    4.6420   61.3800   71.1110 C   0  0  0  0  0  0  0  0  0  0  0  0
    3.8870   60.7820   70.0900 C   0  0  0  0  0  0  0  0  0  0  0  0
    3.4880   61.5250   68.9790 C   0  0  0  0  0  0  0  0  0  0  0  0
    3.8380   62.8690   68.8740 C   0  0  0  0  0  0  0  0  0  0  0  0
    4.5910   63.4730   69.8790 C   0  0  0  0  0  0  0  0  0  0  0  0
    4.9930   62.7340   70.9920 C   0  0  0  0  0  0  0  0  0  0  0  0
   -7.3630   57.4820   76.3140 C   0  0  0  0  0  0  0  0  0  0  0  0
   -6.7100   58.6620   76.7620 O   0  0  0  0  0  0  0  0  0  0  0  0
   -6.9300   60.8870   75.3060 O   0  0  0  0  0  0  0  0  0  0  0  0
   -4.2293   57.4734   76.6968 H   0  0  0  0  0  0  0  0  0  0  0  0
   -4.7764   61.6909   73.9830 H   0  0  0  0  0  0  0  0  0  0  0  0
   -2.3055   60.4482   72.8185 H   0  0  0  0  0  0  0  0  0  0  0  0
   -1.8026   61.4503   74.1689 H   0  0  0  0  0  0  0  0  0  0  0  0
    0.5423   58.2462   74.4736 H   0  0  0  0  0  0  0  0  0  0  0  0
    0.2874   60.4803   72.3791 H   0  0  0  0  0  0  0  0  0  0  0  0
    0.9441   61.9471   74.0427 H   0  0  0  0  0  0  0  0  0  0  0  0
    1.8380   60.6648   74.9573 H   0  0  0  0  0  0  0  0  0  0  0  0
    2.7281   61.8659   72.2994 H   0  0  0  0  0  0  0  0  0  0  0  0
    3.3541   62.3410   73.9176 H   0  0  0  0  0  0  0  0  0  0  0  0
    4.2969   60.3313   74.2404 H   0  0  0  0  0  0  0  0  0  0  0  0
    3.9356   58.3489   72.5417 H   0  0  0  0  0  0  0  0  0  0  0  0
    3.0560   58.5631   74.1018 H   0  0  0  0  0  0  0  0  0  0  0  0
    2.1319   59.5912   71.3801 H   0  0  0  0  0  0  0  0  0  0  0  0
    1.5129   58.1190   72.2379 H   0  0  0  0  0  0  0  0  0  0  0  0
    5.8379   61.1418   72.8537 H   0  0  0  0  0  0  0  0  0  0  0  0
    5.3862   59.6058   71.9803 H   0  0  0  0  0  0  0  0  0  0  0  0
    3.6082   59.7207   70.1665 H   0  0  0  0  0  0  0  0  0  0  0  0
    2.8956   61.0484   68.1840 H   0  0  0  0  0  0  0  0  0  0  0  0
    3.5201   63.4535   67.9980 H   0  0  0  0  0  0  0  0  0  0  0  0
    4.8689   64.5340   69.7947 H   0  0  0  0  0  0  0  0  0  0  0  0
    5.5889   63.2154   71.7814 H   0  0  0  0  0  0  0  0  0  0  0  0
   -7.6898   56.8915   77.1826 H   0  0  0  0  0  0  0  0  0  0  0  0
   -8.2382   57.7554   75.7063 H   0  0  0  0  0  0  0  0  0  0  0  0
   -6.6665   56.8857   75.7063 H   0  0  0  0  0  0  0  0  0  0  0  0
   -7.6887   60.5231   75.8276 H   0  0  0  0  0  0  0  0  0  0  0  0
  2  1  2  0
  3  2  1  0
  4  3  2  0
  5  4  1  0
  6  5  2  0
  6  1  1  0
  7  4  1  0
  8  7  1  0
  9  8  2  0
 10  8  1  0
 10  3  1  0
 11 10  2  0
 12  9  1  0
 13 12  1  0
 14 13  1  0
 15 14  1  0
 16 15  1  0
 17 16  1  0
 17 12  1  0
 18 15  1  0
 19 18  1  0
 20 19  2  0
 21 20  1  0
 22 21  2  0
 23 22  1  0
 24 23  2  0
 24 19  1  0
 26 25  1  0
 26  1  1  0
 27  6  1  0
  2 28  1  0
  5 29  1  0
  7 30  1  0
  7 31  1  0
  9 32  1  0
 12 33  1  0
 13 34  1  0
 13 35  1  0
 14 36  1  0
 14 37  1  0
 15 38  1  0
 16 39  1  0
 16 40  1  0
 17 41  1  0
 17 42  1  0
 18 43  1  0
 18 44  1  0
 20 45  1  0
 21 46  1  0
 22 47  1  0
 23 48  1  0
 24 49  1  0
 25 50  1  0
 25 51  1  0
 25 52  1  0
 27 53  1  0
M  CHG  1  15   1
M  END
>  <score>  (7) 
-8.794

$$$$
=
     RDKit          3D

 53 56  0  0  0  0  0  0  0  0999 V2000
    1.4630   62.5410   74.6520 C   0  0  0  0  0  0  0  0  0  0  0  0
    0.7310   63.6850   74.3300 C   0  0  0  0  0  0  0  0  0  0  0  0
    0.7000   64.0740   73.0000 C   0  0  0  0  0  0  0  0  0  0  0  0
    1.3620   63.3810   71.9840 C   0  0  0  0  0  0  0  0  0  0  0  0
    2.0930   62.2450   72.2880 C   0  0  0  0  0  0  0  0  0  0  0  0
    2.1360   61.8350   73.6270 C   0  0  0  0  0  0  0  0  0  0  0  0
    1.1590   64.0230   70.6460 C   0  0  0  0  0  0  0  0  0  0  0  0
    0.2780   65.2110   70.9510 C   0  0  0  0  0  0  0  0  0  0  0  0
   -0.2360   66.1560   70.1490 C   0  0  0  0  0  0  0  0  0  0  0  0
    0.0060   65.2270   72.4230 C   0  0  0  0  0  0  0  0  0  0  0  0
   -0.6620   66.0460   73.0210 O   0  0  0  0  0  0  0  0  0  0  0  0
   -0.0390   66.2600   68.6590 C   0  0  0  0  0  0  0  0  0  0  0  0
   -1.3430   66.7370   67.9980 C   0  0  0  0  0  0  0  0  0  0  0  0
   -1.0690   67.4730   66.6980 C   0  0  0  0  0  0  0  0  0  0  0  0
   -0.2730   68.7340   66.9780 N   0  0  0  0  0  4  0  0  0  0  0  0
    0.6950   68.6270   68.1390 C   0  0  0  0  0  0  0  0  0  0  0  0
    1.1440   67.1870   68.3270 C   0  0  0  0  0  0  0  0  0  0  0  0
    0.3800   69.2980   65.7290 C   0  0  0  0  0  0  0  0  0  0  0  0
    1.6000   68.5270   65.3020 C   0  0  0  0  0  0  0  0  0  0  0  0
    2.8730   69.1130   65.3690 C   0  0  0  0  0  0  0  0  0  0  0  0
    4.0060   68.3840   65.0030 C   0  0  0  0  0  0  0  0  0  0  0  0
    3.8780   67.0680   64.5650 C   0  0  0  0  0  0  0  0  0  0  0  0
    2.6190   66.4780   64.4880 C   0  0  0  0  0  0  0  0  0  0  0  0
    1.4840   67.2020   64.8540 C   0  0  0  0  0  0  0  0  0  0  0  0
    0.4030   61.8160   76.6640 C   0  0  0  0  0  0  0  0  0  0  0  0
    1.5920   62.0270   75.9150 O   0  0  0  0  0  0  0  0  0  0  0  0
    2.8510   60.7140   73.9630 O   0  0  0  0  0  0  0  0  0  0  0  0
    0.1980   64.2571   75.1037 H   0  0  0  0  0  0  0  0  0  0  0  0
    2.6223   61.6832   71.5043 H   0  0  0  0  0  0  0  0  0  0  0  0
    2.1185   64.3460   70.2159 H   0  0  0  0  0  0  0  0  0  0  0  0
    0.7140   63.3398   69.9076 H   0  0  0  0  0  0  0  0  0  0  0  0
   -0.8599   66.9273   70.6241 H   0  0  0  0  0  0  0  0  0  0  0  0
    0.2083   65.2673   68.2547 H   0  0  0  0  0  0  0  0  0  0  0  0
   -1.9778   65.8636   67.7877 H   0  0  0  0  0  0  0  0  0  0  0  0
   -1.8474   67.4295   68.6879 H   0  0  0  0  0  0  0  0  0  0  0  0
   -0.4946   66.8210   66.0235 H   0  0  0  0  0  0  0  0  0  0  0  0
   -2.0250   67.7447   66.2265 H   0  0  0  0  0  0  0  0  0  0  0  0
   -0.9763   69.4190   67.2896 H   0  0  0  0  0  0  0  0  0  0  0  0
    1.5739   69.2567   67.9367 H   0  0  0  0  0  0  0  0  0  0  0  0
    0.1895   68.9645   69.0558 H   0  0  0  0  0  0  0  0  0  0  0  0
    1.6205   66.8382   67.3990 H   0  0  0  0  0  0  0  0  0  0  0  0
    1.8508   67.1556   69.1693 H   0  0  0  0  0  0  0  0  0  0  0  0
   -0.3534   69.2750   64.9095 H   0  0  0  0  0  0  0  0  0  0  0  0
    0.7043   70.3229   65.9623 H   0  0  0  0  0  0  0  0  0  0  0  0
    2.9790   70.1528   65.7119 H   0  0  0  0  0  0  0  0  0  0  0  0
    5.0010   68.8495   65.0606 H   0  0  0  0  0  0  0  0  0  0  0  0
    4.7721   66.4943   64.2797 H   0  0  0  0  0  0  0  0  0  0  0  0
    2.5193   65.4399   64.1382 H   0  0  0  0  0  0  0  0  0  0  0  0
    0.4918   66.7313   64.7910 H   0  0  0  0  0  0  0  0  0  0  0  0
    0.6344   61.8571   77.7386 H   0  0  0  0  0  0  0  0  0  0  0  0
   -0.3299   62.5981   76.4166 H   0  0  0  0  0  0  0  0  0  0  0  0
   -0.0160   60.8295   76.4166 H   0  0  0  0  0  0  0  0  0  0  0  0
    2.8884   60.4149   74.9060 H   0  0  0  0  0  0  0  0  0  0  0  0
  2  1  2  0
  3  2  1  0
  4  3  2  0
  5  4  1  0
  6  5  2  0
  6  1  1  0
  7  4  1  0
  8  7  1  0
  9  8  2  0
 10  8  1  0
 10  3  1  0
 11 10  2  0
 12  9  1  0
 13 12  1  0
 14 13  1  0
 15 14  1  0
 16 15  1  0
 17 16  1  0
 17 12  1  0
 18 15  1  0
 19 18  1  0
 20 19  2  0
 21 20  1  0
 22 21  2  0
 23 22  1  0
 24 23  2  0
 24 19  1  0
 26 25  1  0
 26  1  1  0
 27  6  1  0
  2 28  1  0
  5 29  1  0
  7 30  1  0
  7 31  1  0
  9 32  1  0
 12 33  1  0
 13 34  1  0
 13 35  1  0
 14 36  1  0
 14 37  1  0
 15 38  1  0
 16 39  1  0
 16 40  1  0
 17 41  1  0
 17 42  1  0
 18 43  1  0
 18 44  1  0
 20 45  1  0
 21 46  1  0
 22 47  1  0
 23 48  1  0
 24 49  1  0
 25 50  1  0
 25 51  1  0
 25 52  1  0
 27 53  1  0
M  CHG  1  15   1
M  END
>  <score>  (8) 
-8.706

$$$$
=
     RDKit          3D

 53 56  0  0  0  0  0  0  0  0999 V2000
    0.4860   65.2920   70.7730 C   0  0  0  0  0  0  0  0  0  0  0  0
    1.2200   64.3130   70.1000 C   0  0  0  0  0  0  0  0  0  0  0  0
    1.5650   63.1710   70.8060 C   0  0  0  0  0  0  0  0  0  0  0  0
    1.2140   62.9610   72.1410 C   0  0  0  0  0  0  0  0  0  0  0  0
    0.4860   63.9230   72.8220 C   0  0  0  0  0  0  0  0  0  0  0  0
    0.1270   65.0850   72.1260 C   0  0  0  0  0  0  0  0  0  0  0  0
    1.7170   61.6450   72.6500 C   0  0  0  0  0  0  0  0  0  0  0  0
    2.4280   61.0510   71.4590 C   0  0  0  0  0  0  0  0  0  0  0  0
    3.0740   59.8840   71.3090 C   0  0  0  0  0  0  0  0  0  0  0  0
    2.3250   62.0180   70.3200 C   0  0  0  0  0  0  0  0  0  0  0  0
    2.7890   61.8700   69.2080 O   0  0  0  0  0  0  0  0  0  0  0  0
    3.2560   58.8280   72.3690 C   0  0  0  0  0  0  0  0  0  0  0  0
    3.7530   59.4810   73.6690 C   0  0  0  0  0  0  0  0  0  0  0  0
    3.3400   58.6760   74.8880 C   0  0  0  0  0  0  0  0  0  0  0  0
    1.8280   58.6520   75.0010 N   0  0  0  0  0  4  0  0  0  0  0  0
    1.0930   58.6650   73.6750 C   0  0  0  0  0  0  0  0  0  0  0  0
    1.9510   58.0420   72.5860 C   0  0  0  0  0  0  0  0  0  0  0  0
    1.3320   57.5580   75.9280 C   0  0  0  0  0  0  0  0  0  0  0  0
    1.1190   56.2430   75.2280 C   0  0  0  0  0  0  0  0  0  0  0  0
    2.1960   55.3700   75.0080 C   0  0  0  0  0  0  0  0  0  0  0  0
    1.9890   54.1370   74.3880 C   0  0  0  0  0  0  0  0  0  0  0  0
    0.7100   53.7640   73.9810 C   0  0  0  0  0  0  0  0  0  0  0  0
   -0.3650   54.6250   74.1900 C   0  0  0  0  0  0  0  0  0  0  0  0
   -0.1650   55.8580   74.8100 C   0  0  0  0  0  0  0  0  0  0  0  0
    0.8290   66.9980   69.1380 C   0  0  0  0  0  0  0  0  0  0  0  0
    0.0690   66.4730   70.2180 O   0  0  0  0  0  0  0  0  0  0  0  0
   -0.5930   66.0570   72.7700 O   0  0  0  0  0  0  0  0  0  0  0  0
    1.5137   64.4433   69.0480 H   0  0  0  0  0  0  0  0  0  0  0  0
    0.1993   63.7794   73.8742 H   0  0  0  0  0  0  0  0  0  0  0  0
    2.4119   61.7888   73.4905 H   0  0  0  0  0  0  0  0  0  0  0  0
    0.9127   60.9996   73.0327 H   0  0  0  0  0  0  0  0  0  0  0  0
    3.5112   59.6793   70.3206 H   0  0  0  0  0  0  0  0  0  0  0  0
    4.0152   58.1052   72.0357 H   0  0  0  0  0  0  0  0  0  0  0  0
    4.8506   59.5470   73.6391 H   0  0  0  0  0  0  0  0  0  0  0  0
    3.3030   60.4817   73.7470 H   0  0  0  0  0  0  0  0  0  0  0  0
    3.7150   57.6466   74.7898 H   0  0  0  0  0  0  0  0  0  0  0  0
    3.7638   59.1410   75.7903 H   0  0  0  0  0  0  0  0  0  0  0  0
    1.5882   59.5531   75.4384 H   0  0  0  0  0  0  0  0  0  0  0  0
    0.1593   58.0918   73.7728 H   0  0  0  0  0  0  0  0  0  0  0  0
    0.8707   59.7069   73.4011 H   0  0  0  0  0  0  0  0  0  0  0  0
    2.2003   57.0104   72.8752 H   0  0  0  0  0  0  0  0  0  0  0  0
    1.3793   58.0612   71.6464 H   0  0  0  0  0  0  0  0  0  0  0  0
    2.0739   57.4131   76.7271 H   0  0  0  0  0  0  0  0  0  0  0  0
    0.3578   57.8804   76.3242 H   0  0  0  0  0  0  0  0  0  0  0  0
    3.2085   55.6593   75.3260 H   0  0  0  0  0  0  0  0  0  0  0  0
    2.8379   53.4579   74.2203 H   0  0  0  0  0  0  0  0  0  0  0  0
    0.5490   52.7904   73.4950 H   0  0  0  0  0  0  0  0  0  0  0  0
   -1.3741   54.3315   73.8652 H   0  0  0  0  0  0  0  0  0  0  0  0
   -1.0182   56.5330   74.9726 H   0  0  0  0  0  0  0  0  0  0  0  0
    1.6736   67.5814   69.5334 H   0  0  0  0  0  0  0  0  0  0  0  0
    1.2113   66.1705   68.5223 H   0  0  0  0  0  0  0  0  0  0  0  0
    0.1904   67.6485   68.5223 H   0  0  0  0  0  0  0  0  0  0  0  0
   -0.8522   66.8821   72.2882 H   0  0  0  0  0  0  0  0  0  0  0  0
  2  1  2  0
  3  2  1  0
  4  3  2  0
  5  4  1  0
  6  5  2  0
  6  1  1  0
  7  4  1  0
  8  7  1  0
  9  8  2  0
 10  8  1  0
 10  3  1  0
 11 10  2  0
 12  9  1  0
 13 12  1  0
 14 13  1  0
 15 14  1  0
 16 15  1  0
 17 16  1  0
 17 12  1  0
 18 15  1  0
 19 18  1  0
 20 19  2  0
 21 20  1  0
 22 21  2  0
 23 22  1  0
 24 23  2  0
 24 19  1  0
 26 25  1  0
 26  1  1  0
 27  6  1  0
  2 28  1  0
  5 29  1  0
  7 30  1  0
  7 31  1  0
  9 32  1  0
 12 33  1  0
 13 34  1  0
 13 35  1  0
 14 36  1  0
 14 37  1  0
 15 38  1  0
 16 39  1  0
 16 40  1  0
 17 41  1  0
 17 42  1  0
 18 43  1  0
 18 44  1  0
 20 45  1  0
 21 46  1  0
 22 47  1  0
 23 48  1  0
 24 49  1  0
 25 50  1  0
 25 51  1  0
 25 52  1  0
 27 53  1  0
M  CHG  1  15   1
M  END
>  <score>  (9) 
-8.56

$$$$
