=
     RDKit          3D

 12 11  0  0  0  0  0  0  0  0999 V2000
    5.5040   63.6980   63.3500 O   0  0  0  0  0  0  0  0  0  0  0  0
    4.5550   64.1040   64.0080 C   0  0  0  0  0  0  0  0  0  0  0  0
    3.9590   65.3430   63.8920 N   0  0  0  0  0  0  0  0  0  0  0  0
    2.8370   65.7250   64.7240 C   0  0  0  0  0  0  0  0  0  0  0  0
    4.4450   66.3070   62.9240 C   0  0  0  0  0  0  0  0  0  0  0  0
    4.1392   63.4182   64.7608 H   0  0  0  0  0  0  0  0  0  0  0  0
    3.1170   65.6297   65.7835 H   0  0  0  0  0  0  0  0  0  0  0  0
    2.5603   66.7680   64.5102 H   0  0  0  0  0  0  0  0  0  0  0  0
    1.9814   65.0675   64.5102 H   0  0  0  0  0  0  0  0  0  0  0  0
    4.8796   67.1690   63.4514 H   0  0  0  0  0  0  0  0  0  0  0  0
    5.2140   65.8373   62.2931 H   0  0  0  0  0  0  0  0  0  0  0  0
    3.6101   66.6460   62.2931 H   0  0  0  0  0  0  0  0  0  0  0  0
  2  1  2  0
  3  2  1  0
  4  3  1  0
  5  3  1  0
  2  6  1  0
  4  7  1  0
  4  8  1  0
  4  9  1  0
  5 10  1  0
  5 11  1  0
  5 12  1  0
M  END
>  <score>  (1) 
-3.111

$$$$
=
     RDKit          3D

 12 11  0  0  0  0  0  0  0  0999 V2000
    3.7720   70.9540   69.8840 O   0  0  0  0  0  0  0  0  0  0  0  0
    3.9210   70.4340   68.7860 C   0  0  0  0  0  0  0  0  0  0  0  0
    5.0350   70.5480   67.9800 N   0  0  0  0  0  0  0  0  0  0  0  0
    5.1070   69.8880   66.6920 C   0  0  0  0  0  0  0  0  0  0  0  0
    6.1730   71.3400   68.4020 C   0  0  0  0  0  0  0  0  0  0  0  0
    3.0909   69.8196   68.4072 H   0  0  0  0  0  0  0  0  0  0  0  0
    5.2252   68.8046   66.8413 H   0  0  0  0  0  0  0  0  0  0  0  0
    4.1824   70.0818   66.1285 H   0  0  0  0  0  0  0  0  0  0  0  0
    5.9681   70.2766   66.1285 H   0  0  0  0  0  0  0  0  0  0  0  0
    6.2130   71.3679   69.5009 H   0  0  0  0  0  0  0  0  0  0  0  0
    7.0979   70.8894   68.0127 H   0  0  0  0  0  0  0  0  0  0  0  0
    6.0718   72.3638   68.0127 H   0  0  0  0  0  0  0  0  0  0  0  0
  2  1  2  0
  3  2  1  0
  4  3  1  0
  5  3  1  0
  2  6  1  0
  4  7  1  0
  4  8  1  0
  4  9  1  0
  5 10  1  0
  5 11  1  0
  5 12  1  0
M  END
>  <score>  (2) 
-3.089

$$$$
=
     RDKit          3D

 12 11  0  0  0  0  0  0  0  0999 V2000
    3.3780   70.4990   69.5600 O   0  0  0  0  0  0  0  0  0  0  0  0
    4.5490   70.6690   69.2490 C   0  0  0  0  0  0  0  0  0  0  0  0
    5.1190   70.3590   68.0310 N   0  0  0  0  0  0  0  0  0  0  0  0
    6.5220   70.6030   67.7670 C   0  0  0  0  0  0  0  0  0  0  0  0
    4.3200   69.7750   66.9720 C   0  0  0  0  0  0  0  0  0  0  0  0
    5.2087   71.1098   70.0109 H   0  0  0  0  0  0  0  0  0  0  0  0
    7.0634   70.6972   68.7199 H   0  0  0  0  0  0  0  0  0  0  0  0
    6.9380   69.7637   67.1903 H   0  0  0  0  0  0  0  0  0  0  0  0
    6.6302   71.5334   67.1903 H   0  0  0  0  0  0  0  0  0  0  0  0
    3.5062   69.1801   67.4122 H   0  0  0  0  0  0  0  0  0  0  0  0
    3.8938   70.5759   66.3500 H   0  0  0  0  0  0  0  0  0  0  0  0
    4.9537   69.1257   66.3500 H   0  0  0  0  0  0  0  0  0  0  0  0
  2  1  2  0
  3  2  1  0
  4  3  1  0
  5  3  1  0
  2  6  1  0
  4  7  1  0
  4  8  1  0
  4  9  1  0
  5 10  1  0
  5 11  1  0
  5 12  1  0
M  END
>  <score>  (3) 
-3.025

$$$$
=
     RDKit          3D

 12 11  0  0  0  0  0  0  0  0999 V2000
    7.1370   71.5990   68.8520 O   0  0  0  0  0  0  0  0  0  0  0  0
    6.5990   70.9840   67.9410 C   0  0  0  0  0  0  0  0  0  0  0  0
    5.2970   70.5270   67.9290 N   0  0  0  0  0  0  0  0  0  0  0  0
    4.7580   69.8050   66.7950 C   0  0  0  0  0  0  0  0  0  0  0  0
    4.4250   70.7580   69.0640 C   0  0  0  0  0  0  0  0  0  0  0  0
    7.2094   70.7764   67.0498 H   0  0  0  0  0  0  0  0  0  0  0  0
    4.1358   68.9715   67.1531 H   0  0  0  0  0  0  0  0  0  0  0  0
    4.1447   70.4848   66.1853 H   0  0  0  0  0  0  0  0  0  0  0  0
    5.5841   69.4103   66.1853 H   0  0  0  0  0  0  0  0  0  0  0  0
    4.9893   70.6085   69.9963 H   0  0  0  0  0  0  0  0  0  0  0  0
    4.0420   71.7886   69.0284 H   0  0  0  0  0  0  0  0  0  0  0  0
    3.5821   70.0522   69.0284 H   0  0  0  0  0  0  0  0  0  0  0  0
  2  1  2  0
  3  2  1  0
  4  3  1  0
  5  3  1  0
  2  6  1  0
  4  7  1  0
  4  8  1  0
  4  9  1  0
  5 10  1  0
  5 11  1  0
  5 12  1  0
M  END
>  <score>  (4) 
-2.953

$$$$
=
     RDKit          3D

 12 11  0  0  0  0  0  0  0  0999 V2000
    4.9750   70.1930   66.1920 O   0  0  0  0  0  0  0  0  0  0  0  0
    5.9110   70.3770   66.9590 C   0  0  0  0  0  0  0  0  0  0  0  0
    5.8120   70.6830   68.3010 N   0  0  0  0  0  0  0  0  0  0  0  0
    6.9890   70.8810   69.1220 C   0  0  0  0  0  0  0  0  0  0  0  0
    4.5130   70.8180   68.9320 C   0  0  0  0  0  0  0  0  0  0  0  0
    6.9244   70.2905   66.5400 H   0  0  0  0  0  0  0  0  0  0  0  0
    6.7073   70.8336   70.1843 H   0  0  0  0  0  0  0  0  0  0  0  0
    7.7257   70.0942   68.9026 H   0  0  0  0  0  0  0  0  0  0  0  0
    7.4277   71.8656   68.9026 H   0  0  0  0  0  0  0  0  0  0  0  0
    4.6334   70.8055   70.0253 H   0  0  0  0  0  0  0  0  0  0  0  0
    4.0531   71.7688   68.6246 H   0  0  0  0  0  0  0  0  0  0  0  0
    3.8674   69.9821   68.6246 H   0  0  0  0  0  0  0  0  0  0  0  0
  2  1  2  0
  3  2  1  0
  4  3  1  0
  5  3  1  0
  2  6  1  0
  4  7  1  0
  4  8  1  0
  4  9  1  0
  5 10  1  0
  5 11  1  0
  5 12  1  0
M  END
>  <score>  (5) 
-2.935

$$$$
=
     RDKit          3D

 12 11  0  0  0  0  0  0  0  0999 V2000
   -0.9600   68.5480   63.1430 O   0  0  0  0  0  0  0  0  0  0  0  0
    0.0300   68.5610   62.4240 C   0  0  0  0  0  0  0  0  0  0  0  0
    1.3390   68.6570   62.8490 N   0  0  0  0  0  0  0  0  0  0  0  0
    2.4420   68.6630   61.9090 C   0  0  0  0  0  0  0  0  0  0  0  0
    1.6510   68.7570   64.2610 C   0  0  0  0  0  0  0  0  0  0  0  0
   -0.1392   68.4896   61.3394 H   0  0  0  0  0  0  0  0  0  0  0  0
    3.3937   68.6682   62.4605 H   0  0  0  0  0  0  0  0  0  0  0  0
    2.3896   67.7646   61.2765 H   0  0  0  0  0  0  0  0  0  0  0  0
    2.3798   69.5608   61.2765 H   0  0  0  0  0  0  0  0  0  0  0  0
    0.7679   68.4739   64.8526 H   0  0  0  0  0  0  0  0  0  0  0  0
    2.4851   68.0812   64.5010 H   0  0  0  0  0  0  0  0  0  0  0  0
    1.9368   69.7918   64.5010 H   0  0  0  0  0  0  0  0  0  0  0  0
  2  1  2  0
  3  2  1  0
  4  3  1  0
  5  3  1  0
  2  6  1  0
  4  7  1  0
  4  8  1  0
  4  9  1  0
  5 10  1  0
  5 11  1  0
  5 12  1  0
M  END
>  <score>  (6) 
-2.935

$$$$
=
     RDKit          3D

 12 11  0  0  0  0  0  0  0  0999 V2000
    3.0390   69.0440   60.5820 O   0  0  0  0  0  0  0  0  0  0  0  0
    2.7900   68.6410   61.7100 C   0  0  0  0  0  0  0  0  0  0  0  0
    1.5860   68.7740   62.3720 N   0  0  0  0  0  0  0  0  0  0  0  0
    1.3970   68.2580   63.7120 C   0  0  0  0  0  0  0  0  0  0  0  0
    0.4660   69.4410   61.7370 C   0  0  0  0  0  0  0  0  0  0  0  0
    3.6002   68.1251   62.2461 H   0  0  0  0  0  0  0  0  0  0  0  0
    1.6792   69.0284   64.4447 H   0  0  0  0  0  0  0  0  0  0  0  0
    0.3408   67.9858   63.8545 H   0  0  0  0  0  0  0  0  0  0  0  0
    2.0275   67.3680   63.8545 H   0  0  0  0  0  0  0  0  0  0  0  0
   -0.2074   69.8421   62.5088 H   0  0  0  0  0  0  0  0  0  0  0  0
    0.8374   70.2651   61.1102 H   0  0  0  0  0  0  0  0  0  0  0  0
   -0.0817   68.7218   61.1102 H   0  0  0  0  0  0  0  0  0  0  0  0
  2  1  2  0
  3  2  1  0
  4  3  1  0
  5  3  1  0
  2  6  1  0
  4  7  1  0
  4  8  1  0
  4  9  1  0
  5 10  1  0
  5 11  1  0
  5 12  1  0
M  END
>  <score>  (7) 
-2.825

$$$$
=
     RDKit          3D

 12 11  0  0  0  0  0  0  0  0999 V2000
    4.1700   64.9720   62.6800 O   0  0  0  0  0  0  0  0  0  0  0  0
    4.4060   66.1010   63.0900 C   0  0  0  0  0  0  0  0  0  0  0  0
    3.7310   66.7530   64.1010 N   0  0  0  0  0  0  0  0  0  0  0  0
    4.0930   68.0950   64.5100 C   0  0  0  0  0  0  0  0  0  0  0  0
    2.6300   66.1070   64.7890 C   0  0  0  0  0  0  0  0  0  0  0  0
    5.2317   66.6453   62.6083 H   0  0  0  0  0  0  0  0  0  0  0  0
    4.1084   68.1520   65.6084 H   0  0  0  0  0  0  0  0  0  0  0  0
    5.0899   68.3420   64.1160 H   0  0  0  0  0  0  0  0  0  0  0  0
    3.3556   68.8099   64.1160 H   0  0  0  0  0  0  0  0  0  0  0  0
    2.7760   66.1927   65.8759 H   0  0  0  0  0  0  0  0  0  0  0  0
    1.6849   66.5938   64.5065 H   0  0  0  0  0  0  0  0  0  0  0  0
    2.5939   65.0445   64.5065 H   0  0  0  0  0  0  0  0  0  0  0  0
  2  1  2  0
  3  2  1  0
  4  3  1  0
  5  3  1  0
  2  6  1  0
  4  7  1  0
  4  8  1  0
  4  9  1  0
  5 10  1  0
  5 11  1  0
  5 12  1  0
M  END
>  <score>  (8) 
-2.812

$$$$
=
     RDKit          3D

 12 11  0  0  0  0  0  0  0  0999 V2000
    6.1410   70.1970   67.0880 O   0  0  0  0  0  0  0  0  0  0  0  0
    4.9770   69.8640   66.9120 C   0  0  0  0  0  0  0  0  0  0  0  0
    4.4040   69.5240   65.7030 N   0  0  0  0  0  0  0  0  0  0  0  0
    3.0100   69.1440   65.6060 C   0  0  0  0  0  0  0  0  0  0  0  0
    5.1910   69.5390   64.4850 C   0  0  0  0  0  0  0  0  0  0  0  0
    4.3271   69.8326   67.7989 H   0  0  0  0  0  0  0  0  0  0  0  0
    2.5900   69.0295   66.6162 H   0  0  0  0  0  0  0  0  0  0  0  0
    2.4543   69.9234   65.0641 H   0  0  0  0  0  0  0  0  0  0  0  0
    2.9268   68.1904   65.0641 H   0  0  0  0  0  0  0  0  0  0  0  0
    6.2609   69.5594   64.7400 H   0  0  0  0  0  0  0  0  0  0  0  0
    4.9717   68.6365   63.8956 H   0  0  0  0  0  0  0  0  0  0  0  0
    4.9374   70.4325   63.8956 H   0  0  0  0  0  0  0  0  0  0  0  0
  2  1  2  0
  3  2  1  0
  4  3  1  0
  5  3  1  0
  2  6  1  0
  4  7  1  0
  4  8  1  0
  4  9  1  0
  5 10  1  0
  5 11  1  0
  5 12  1  0
M  END
>  <score>  (9) 
-2.812

$$$$
