=
     RDKit          3D

 29 29  0  0  0  0  0  0  0  0999 V2000
    1.5280   67.6880   65.1430 P   0  0  2  0  0  5  0  0  0  0  0  0
    1.4600   67.9760   63.6760 O   0  0  0  0  0  0  0  0  0  0  0  0
    0.0500   67.4790   65.7490 O   0  0  0  0  0  0  0  0  0  0  0  0
   -0.1390   67.5160   67.1490 C   0  0  0  0  0  0  0  0  0  0  0  0
    0.4240   68.8000   67.7300 C   0  0  0  0  0  0  0  0  0  0  0  0
    1.9250   68.9050   67.4780 C   0  0  0  0  0  0  0  0  0  0  0  0
    2.2230   68.8680   66.0480 N   0  0  0  0  0  0  0  0  0  0  0  0
    2.3450   66.3170   65.5190 N   0  0  0  0  0  0  0  0  0  0  0  0
    3.1370   65.7080   64.4480 C   0  0  0  0  0  0  0  0  0  0  0  0
    4.8640   63.6790   63.8880 Cl  0  0  0  0  0  0  0  0  0  0  0  0
    3.3880   64.2270   64.7170 C   0  0  0  0  0  0  0  0  0  0  0  0
    3.6410   69.1950   65.8180 C   0  0  0  0  0  0  0  0  0  0  0  0
    4.3510   69.8240   67.0240 C   0  0  0  0  0  0  0  0  0  0  0  0
    6.1160   69.8470   66.7470 Cl  0  0  0  0  0  0  0  0  0  0  0  0
   -1.2151   67.4604   67.3702 H   0  0  0  0  0  0  0  0  0  0  0  0
    0.3868   66.6618   67.6006 H   0  0  0  0  0  0  0  0  0  0  0  0
   -0.0799   69.6579   67.2609 H   0  0  0  0  0  0  0  0  0  0  0  0
    0.2515   68.7970   68.8164 H   0  0  0  0  0  0  0  0  0  0  0  0
    2.2941   69.8526   67.8973 H   0  0  0  0  0  0  0  0  0  0  0  0
    2.4205   68.0494   67.9600 H   0  0  0  0  0  0  0  0  0  0  0  0
    2.9863   66.5385   66.2940 H   0  0  0  0  0  0  0  0  0  0  0  0
    2.5939   65.8124   63.4971 H   0  0  0  0  0  0  0  0  0  0  0  0
    4.1086   66.2215   64.3999 H   0  0  0  0  0  0  0  0  0  0  0  0
    2.5305   63.6431   64.3514 H   0  0  0  0  0  0  0  0  0  0  0  0
    3.5153   64.0807   65.7998 H   0  0  0  0  0  0  0  0  0  0  0  0
    4.1693   68.2672   65.5534 H   0  0  0  0  0  0  0  0  0  0  0  0
    3.6633   69.9458   65.0144 H   0  0  0  0  0  0  0  0  0  0  0  0
    3.9903   70.8538   67.1632 H   0  0  0  0  0  0  0  0  0  0  0  0
    4.1334   69.2289   67.9231 H   0  0  0  0  0  0  0  0  0  0  0  0
  2  1  2  0
  3  1  1  0
  4  3  1  0
  5  4  1  0
  6  5  1  0
  7  1  1  0
  7  6  1  0
  1  8  1  6
  9  8  1  0
 11 10  1  0
 11  9  1  0
 12  7  1  0
 13 12  1  0
 14 13  1  0
  4 15  1  0
  4 16  1  0
  5 17  1  0
  5 18  1  0
  6 19  1  0
  6 20  1  0
  8 21  1  0
  9 22  1  0
  9 23  1  0
 11 24  1  0
 11 25  1  0
 12 26  1  0
 12 27  1  0
 13 28  1  0
 13 29  1  0
M  END
>  <score>  (1) 
-6.102

$$$$
=
     RDKit          3D

 29 29  0  0  0  0  0  0  0  0999 V2000
    1.3820   67.5120   66.1240 P   0  0  2  0  0  5  0  0  0  0  0  0
    2.2950   66.4600   65.5770 O   0  0  0  0  0  0  0  0  0  0  0  0
    0.5590   66.9470   67.3890 O   0  0  0  0  0  0  0  0  0  0  0  0
   -0.5750   67.6520   67.8510 C   0  0  0  0  0  0  0  0  0  0  0  0
   -1.5600   67.8810   66.7200 C   0  0  0  0  0  0  0  0  0  0  0  0
   -0.9360   68.7180   65.6070 C   0  0  0  0  0  0  0  0  0  0  0  0
    0.2570   68.0690   65.0670 N   0  0  0  0  0  0  0  0  0  0  0  0
    2.1560   68.8480   66.6770 N   0  0  0  0  0  0  0  0  0  0  0  0
    3.4840   69.1160   66.1230 C   0  0  0  0  0  0  0  0  0  0  0  0
    6.0610   69.8470   66.6140 Cl  0  0  0  0  0  0  0  0  0  0  0  0
    4.3540   69.8850   67.1130 C   0  0  0  0  0  0  0  0  0  0  0  0
    0.7110   68.7740   63.8560 C   0  0  0  0  0  0  0  0  0  0  0  0
   -0.3930   69.0410   62.8250 C   0  0  0  0  0  0  0  0  0  0  0  0
    0.3120   69.7620   61.3500 Cl  0  0  0  0  0  0  0  0  0  0  0  0
   -1.0650   67.0683   68.6442 H   0  0  0  0  0  0  0  0  0  0  0  0
   -0.2506   68.6280   68.2412 H   0  0  0  0  0  0  0  0  0  0  0  0
   -1.8667   66.9080   66.3086 H   0  0  0  0  0  0  0  0  0  0  0  0
   -2.4293   68.4241   67.1192 H   0  0  0  0  0  0  0  0  0  0  0  0
   -1.6714   68.8474   64.7993 H   0  0  0  0  0  0  0  0  0  0  0  0
   -0.6448   69.6932   66.0243 H   0  0  0  0  0  0  0  0  0  0  0  0
    1.5608   69.6622   66.4681 H   0  0  0  0  0  0  0  0  0  0  0  0
    3.9724   68.1596   65.8848 H   0  0  0  0  0  0  0  0  0  0  0  0
    3.3647   69.7288   65.2174 H   0  0  0  0  0  0  0  0  0  0  0  0
    4.2588   69.4270   68.1086 H   0  0  0  0  0  0  0  0  0  0  0  0
    4.0173   70.9318   67.1400 H   0  0  0  0  0  0  0  0  0  0  0  0
    1.1378   69.7409   64.1608 H   0  0  0  0  0  0  0  0  0  0  0  0
    1.4441   68.1159   63.3667 H   0  0  0  0  0  0  0  0  0  0  0  0
   -0.8876   68.0930   62.5668 H   0  0  0  0  0  0  0  0  0  0  0  0
   -1.1269   69.7393   63.2536 H   0  0  0  0  0  0  0  0  0  0  0  0
  2  1  2  0
  3  1  1  0
  4  3  1  0
  5  4  1  0
  6  5  1  0
  7  1  1  0
  7  6  1  0
  1  8  1  1
  9  8  1  0
 11 10  1  0
 11  9  1  0
 12  7  1  0
 13 12  1  0
 14 13  1  0
  4 15  1  0
  4 16  1  0
  5 17  1  0
  5 18  1  0
  6 19  1  0
  6 20  1  0
  8 21  1  0
  9 22  1  0
  9 23  1  0
 11 24  1  0
 11 25  1  0
 12 26  1  0
 12 27  1  0
 13 28  1  0
 13 29  1  0
M  END
>  <score>  (2) 
-6.066

$$$$
=
     RDKit          3D

 29 29  0  0  0  0  0  0  0  0999 V2000
    1.5020   67.7020   64.8670 P   0  0  2  0  0  5  0  0  0  0  0  0
    1.0970   66.4780   65.6280 O   0  0  0  0  0  0  0  0  0  0  0  0
    0.2230   68.3810   64.1610 O   0  0  0  0  0  0  0  0  0  0  0  0
    0.4180   69.3430   63.1450 C   0  0  0  0  0  0  0  0  0  0  0  0
    1.3140   68.7920   62.0510 C   0  0  0  0  0  0  0  0  0  0  0  0
    2.6920   68.4320   62.5980 C   0  0  0  0  0  0  0  0  0  0  0  0
    2.5920   67.4400   63.6670 N   0  0  0  0  0  0  0  0  0  0  0  0
    2.1580   68.8830   65.7960 N   0  0  0  0  0  0  0  0  0  0  0  0
    1.9690   68.7620   67.2430 C   0  0  0  0  0  0  0  0  0  0  0  0
    4.4390   69.9070   67.2490 Cl  0  0  0  0  0  0  0  0  0  0  0  0
    2.8340   69.7660   68.0010 C   0  0  0  0  0  0  0  0  0  0  0  0
    3.9330   66.9440   64.0230 C   0  0  0  0  0  0  0  0  0  0  0  0
    4.2360   65.5230   63.5310 C   0  0  0  0  0  0  0  0  0  0  0  0
    3.7210   64.3320   64.7590 Cl  0  0  0  0  0  0  0  0  0  0  0  0
   -0.5563   69.6137   62.7119 H   0  0  0  0  0  0  0  0  0  0  0  0
    0.8993   70.2293   63.5841 H   0  0  0  0  0  0  0  0  0  0  0  0
    0.8492   67.8899   61.6265 H   0  0  0  0  0  0  0  0  0  0  0  0
    1.4363   69.5647   61.2777 H   0  0  0  0  0  0  0  0  0  0  0  0
    3.3058   68.0210   61.7829 H   0  0  0  0  0  0  0  0  0  0  0  0
    3.1533   69.3423   63.0086 H   0  0  0  0  0  0  0  0  0  0  0  0
    3.1716   68.8969   65.6136 H   0  0  0  0  0  0  0  0  0  0  0  0
    0.9115   68.9469   67.4830 H   0  0  0  0  0  0  0  0  0  0  0  0
    2.2656   67.7477   67.5484 H   0  0  0  0  0  0  0  0  0  0  0  0
    2.9511   69.4286   69.0414 H   0  0  0  0  0  0  0  0  0  0  0  0
    2.3422   70.7495   67.9717 H   0  0  0  0  0  0  0  0  0  0  0  0
    4.6784   67.6251   63.5866 H   0  0  0  0  0  0  0  0  0  0  0  0
    3.9730   66.9102   65.1218 H   0  0  0  0  0  0  0  0  0  0  0  0
    3.6922   65.3381   62.5929 H   0  0  0  0  0  0  0  0  0  0  0  0
    5.3179   65.4219   63.3596 H   0  0  0  0  0  0  0  0  0  0  0  0
  2  1  2  0
  3  1  1  0
  4  3  1  0
  5  4  1  0
  6  5  1  0
  7  1  1  0
  7  6  1  0
  1  8  1  1
  9  8  1  0
 11 10  1  0
 11  9  1  0
 12  7  1  0
 13 12  1  0
 14 13  1  0
  4 15  1  0
  4 16  1  0
  5 17  1  0
  5 18  1  0
  6 19  1  0
  6 20  1  0
  8 21  1  0
  9 22  1  0
  9 23  1  0
 11 24  1  0
 11 25  1  0
 12 26  1  0
 12 27  1  0
 13 28  1  0
 13 29  1  0
M  END
>  <score>  (3) 
-5.858

$$$$
=
     RDKit          3D

 29 29  0  0  0  0  0  0  0  0999 V2000
    4.2110   66.7540   63.0740 P   0  0  2  0  0  5  0  0  0  0  0  0
    4.0580   67.3340   61.7030 O   0  0  0  0  0  0  0  0  0  0  0  0
    4.9040   65.3010   63.0010 O   0  0  0  0  0  0  0  0  0  0  0  0
    4.8520   64.4490   64.1270 C   0  0  0  0  0  0  0  0  0  0  0  0
    3.4180   64.2570   64.5860 C   0  0  0  0  0  0  0  0  0  0  0  0
    2.7910   65.5850   65.0010 C   0  0  0  0  0  0  0  0  0  0  0  0
    2.8060   66.5420   63.8960 N   0  0  0  0  0  0  0  0  0  0  0  0
    5.1670   67.6370   64.0720 N   0  0  0  0  0  0  0  0  0  0  0  0
    5.1650   69.0870   63.8710 C   0  0  0  0  0  0  0  0  0  0  0  0
    4.2140   69.4600   66.3950 Cl  0  0  0  0  0  0  0  0  0  0  0  0
    5.4540   69.8280   65.1740 C   0  0  0  0  0  0  0  0  0  0  0  0
    2.0020   67.7270   64.2430 C   0  0  0  0  0  0  0  0  0  0  0  0
    1.1870   68.3050   63.0790 C   0  0  0  0  0  0  0  0  0  0  0  0
   -0.3230   69.0330   63.6960 Cl  0  0  0  0  0  0  0  0  0  0  0  0
    5.2803   63.4714   63.8607 H   0  0  0  0  0  0  0  0  0  0  0  0
    5.4278   64.9067   64.9449 H   0  0  0  0  0  0  0  0  0  0  0  0
    2.8317   63.8251   63.7615 H   0  0  0  0  0  0  0  0  0  0  0  0
    3.4170   63.5835   65.4557 H   0  0  0  0  0  0  0  0  0  0  0  0
    1.7501   65.4097   65.3104 H   0  0  0  0  0  0  0  0  0  0  0  0
    3.3765   66.0029   65.8332 H   0  0  0  0  0  0  0  0  0  0  0  0
    4.8611   67.4554   65.0386 H   0  0  0  0  0  0  0  0  0  0  0  0
    5.9370   69.3474   63.1319 H   0  0  0  0  0  0  0  0  0  0  0  0
    4.1684   69.3868   63.5148 H   0  0  0  0  0  0  0  0  0  0  0  0
    5.4596   70.9107   64.9800 H   0  0  0  0  0  0  0  0  0  0  0  0
    6.4333   69.5035   65.5556 H   0  0  0  0  0  0  0  0  0  0  0  0
    1.3038   67.4458   65.0452 H   0  0  0  0  0  0  0  0  0  0  0  0
    2.7128   68.5097   64.5467 H   0  0  0  0  0  0  0  0  0  0  0  0
    1.7804   69.0760   62.5658 H   0  0  0  0  0  0  0  0  0  0  0  0
    0.9381   67.4972   62.3750 H   0  0  0  0  0  0  0  0  0  0  0  0
  2  1  2  0
  3  1  1  0
  4  3  1  0
  5  4  1  0
  6  5  1  0
  7  1  1  0
  7  6  1  0
  1  8  1  1
  9  8  1  0
 11 10  1  0
 11  9  1  0
 12  7  1  0
 13 12  1  0
 14 13  1  0
  4 15  1  0
  4 16  1  0
  5 17  1  0
  5 18  1  0
  6 19  1  0
  6 20  1  0
  8 21  1  0
  9 22  1  0
  9 23  1  0
 11 24  1  0
 11 25  1  0
 12 26  1  0
 12 27  1  0
 13 28  1  0
 13 29  1  0
M  END
>  <score>  (4) 
-5.837

$$$$
=
     RDKit          3D

 29 29  0  0  0  0  0  0  0  0999 V2000
    3.1500   67.8750   64.3090 P   0  0  2  0  0  5  0  0  0  0  0  0
    2.6650   66.7610   65.1830 O   0  0  0  0  0  0  0  0  0  0  0  0
    3.6350   67.3060   62.8810 O   0  0  0  0  0  0  0  0  0  0  0  0
    4.4180   68.1250   62.0370 C   0  0  0  0  0  0  0  0  0  0  0  0
    5.6420   68.6370   62.7730 C   0  0  0  0  0  0  0  0  0  0  0  0
    5.2440   69.4860   63.9760 C   0  0  0  0  0  0  0  0  0  0  0  0
    4.4200   68.7220   64.9110 N   0  0  0  0  0  0  0  0  0  0  0  0
    2.0080   68.9980   63.9590 N   0  0  0  0  0  0  0  0  0  0  0  0
    0.9370   68.5850   63.0490 C   0  0  0  0  0  0  0  0  0  0  0  0
   -0.5570   68.7310   65.3210 Cl  0  0  0  0  0  0  0  0  0  0  0  0
   -0.4310   69.0180   63.5700 C   0  0  0  0  0  0  0  0  0  0  0  0
    4.2380   69.4810   66.1600 C   0  0  0  0  0  0  0  0  0  0  0  0
    5.5440   69.9310   66.8270 C   0  0  0  0  0  0  0  0  0  0  0  0
    5.1870   70.7460   68.3760 Cl  0  0  0  0  0  0  0  0  0  0  0  0
    4.7404   67.5396   61.1633 H   0  0  0  0  0  0  0  0  0  0  0  0
    3.8118   68.9853   61.7168 H   0  0  0  0  0  0  0  0  0  0  0  0
    6.2376   67.7796   63.1196 H   0  0  0  0  0  0  0  0  0  0  0  0
    6.2286   69.2616   62.0833 H   0  0  0  0  0  0  0  0  0  0  0  0
    6.1538   69.8247   64.4932 H   0  0  0  0  0  0  0  0  0  0  0  0
    4.6593   70.3462   63.6179 H   0  0  0  0  0  0  0  0  0  0  0  0
    1.5705   69.2853   64.8461 H   0  0  0  0  0  0  0  0  0  0  0  0
    1.1070   69.0439   62.0639 H   0  0  0  0  0  0  0  0  0  0  0  0
    0.9487   67.4876   62.9743 H   0  0  0  0  0  0  0  0  0  0  0  0
   -1.2130   68.4428   63.0527 H   0  0  0  0  0  0  0  0  0  0  0  0
   -0.5582   70.0936   63.3780 H   0  0  0  0  0  0  0  0  0  0  0  0
    3.6413   70.3770   65.9337 H   0  0  0  0  0  0  0  0  0  0  0  0
    3.7423   68.8019   66.8693 H   0  0  0  0  0  0  0  0  0  0  0  0
    6.1789   69.0526   67.0150 H   0  0  0  0  0  0  0  0  0  0  0  0
    6.0674   70.6328   66.1610 H   0  0  0  0  0  0  0  0  0  0  0  0
  2  1  2  0
  3  1  1  0
  4  3  1  0
  5  4  1  0
  6  5  1  0
  7  1  1  0
  7  6  1  0
  1  8  1  6
  9  8  1  0
 11 10  1  0
 11  9  1  0
 12  7  1  0
 13 12  1  0
 14 13  1  0
  4 15  1  0
  4 16  1  0
  5 17  1  0
  5 18  1  0
  6 19  1  0
  6 20  1  0
  8 21  1  0
  9 22  1  0
  9 23  1  0
 11 24  1  0
 11 25  1  0
 12 26  1  0
 12 27  1  0
 13 28  1  0
 13 29  1  0
M  END
>  <score>  (5) 
-5.604

$$$$
=
     RDKit          3D

 29 29  0  0  0  0  0  0  0  0999 V2000
    1.6590   67.7030   65.3830 P   0  0  2  0  0  5  0  0  0  0  0  0
    1.6360   66.2710   64.9480 O   0  0  0  0  0  0  0  0  0  0  0  0
    3.1580   68.1560   65.7640 O   0  0  0  0  0  0  0  0  0  0  0  0
    3.3590   69.3490   66.4940 C   0  0  0  0  0  0  0  0  0  0  0  0
    2.5380   69.3390   67.7710 C   0  0  0  0  0  0  0  0  0  0  0  0
    1.0460   69.2480   67.4640 C   0  0  0  0  0  0  0  0  0  0  0  0
    0.7390   68.0410   66.6990 N   0  0  0  0  0  0  0  0  0  0  0  0
    1.1700   68.7610   64.2290 N   0  0  0  0  0  0  0  0  0  0  0  0
    1.0790   68.2470   62.8620 C   0  0  0  0  0  0  0  0  0  0  0  0
    3.6420   67.6220   62.1880 Cl  0  0  0  0  0  0  0  0  0  0  0  0
    2.2550   68.7210   62.0110 C   0  0  0  0  0  0  0  0  0  0  0  0
   -0.7200   67.8580   66.6090 C   0  0  0  0  0  0  0  0  0  0  0  0
   -1.5190   69.1640   66.5140 C   0  0  0  0  0  0  0  0  0  0  0  0
   -3.0560   68.8760   65.6480 Cl  0  0  0  0  0  0  0  0  0  0  0  0
    4.4248   69.4408   66.7502 H   0  0  0  0  0  0  0  0  0  0  0  0
    3.0416   70.2011   65.8751 H   0  0  0  0  0  0  0  0  0  0  0  0
    2.8328   68.4723   68.3809 H   0  0  0  0  0  0  0  0  0  0  0  0
    2.7263   70.2764   68.3149 H   0  0  0  0  0  0  0  0  0  0  0  0
    0.4852   69.2261   68.4101 H   0  0  0  0  0  0  0  0  0  0  0  0
    0.7585   70.1243   66.8644 H   0  0  0  0  0  0  0  0  0  0  0  0
    0.2364   69.1045   64.4960 H   0  0  0  0  0  0  0  0  0  0  0  0
    1.0788   67.1474   62.8920 H   0  0  0  0  0  0  0  0  0  0  0  0
    0.1496   68.6245   62.4105 H   0  0  0  0  0  0  0  0  0  0  0  0
    2.5505   69.7303   62.3335 H   0  0  0  0  0  0  0  0  0  0  0  0
    1.9457   68.7330   60.9555 H   0  0  0  0  0  0  0  0  0  0  0  0
   -0.9365   67.2566   65.7138 H   0  0  0  0  0  0  0  0  0  0  0  0
   -1.0324   67.3667   67.5423 H   0  0  0  0  0  0  0  0  0  0  0  0
   -1.7351   69.5338   67.5272 H   0  0  0  0  0  0  0  0  0  0  0  0
   -0.9279   69.9107   65.9636 H   0  0  0  0  0  0  0  0  0  0  0  0
  2  1  2  0
  3  1  1  0
  4  3  1  0
  5  4  1  0
  6  5  1  0
  7  1  1  0
  7  6  1  0
  1  8  1  6
  9  8  1  0
 11 10  1  0
 11  9  1  0
 12  7  1  0
 13 12  1  0
 14 13  1  0
  4 15  1  0
  4 16  1  0
  5 17  1  0
  5 18  1  0
  6 19  1  0
  6 20  1  0
  8 21  1  0
  9 22  1  0
  9 23  1  0
 11 24  1  0
 11 25  1  0
 12 26  1  0
 12 27  1  0
 13 28  1  0
 13 29  1  0
M  END
>  <score>  (6) 
-5.536

$$$$
=
     RDKit          3D

 29 29  0  0  0  0  0  0  0  0999 V2000
    2.7380   62.0110   72.3200 P   0  0  2  0  0  5  0  0  0  0  0  0
    2.0690   62.2710   73.6330 O   0  0  0  0  0  0  0  0  0  0  0  0
    4.3330   61.8780   72.5110 O   0  0  0  0  0  0  0  0  0  0  0  0
    5.1770   61.9530   71.3800 C   0  0  0  0  0  0  0  0  0  0  0  0
    4.9080   63.2240   70.5960 C   0  0  0  0  0  0  0  0  0  0  0  0
    3.4710   63.2610   70.0840 C   0  0  0  0  0  0  0  0  0  0  0  0
    2.5170   63.1800   71.1890 N   0  0  0  0  0  0  0  0  0  0  0  0
    2.2740   60.6150   71.5960 N   0  0  0  0  0  0  0  0  0  0  0  0
    2.8350   59.3760   72.1360 C   0  0  0  0  0  0  0  0  0  0  0  0
    3.5030   59.3890   69.4960 Cl  0  0  0  0  0  0  0  0  0  0  0  0
    3.3920   58.4880   71.0260 C   0  0  0  0  0  0  0  0  0  0  0  0
    1.1530   63.4420   70.6970 C   0  0  0  0  0  0  0  0  0  0  0  0
    0.5010   64.7060   71.2730 C   0  0  0  0  0  0  0  0  0  0  0  0
    0.9330   66.1220   70.2730 Cl  0  0  0  0  0  0  0  0  0  0  0  0
    6.2261   61.9475   71.7108 H   0  0  0  0  0  0  0  0  0  0  0  0
    4.9780   61.0873   70.7311 H   0  0  0  0  0  0  0  0  0  0  0  0
    5.0787   64.0921   71.2497 H   0  0  0  0  0  0  0  0  0  0  0  0
    5.5874   63.2510   69.7313 H   0  0  0  0  0  0  0  0  0  0  0  0
    3.3085   64.2015   69.5371 H   0  0  0  0  0  0  0  0  0  0  0  0
    3.3133   62.3969   69.4219 H   0  0  0  0  0  0  0  0  0  0  0  0
    1.2486   60.5513   71.6695 H   0  0  0  0  0  0  0  0  0  0  0  0
    3.6460   59.6253   72.8361 H   0  0  0  0  0  0  0  0  0  0  0  0
    2.0321   58.8267   72.6494 H   0  0  0  0  0  0  0  0  0  0  0  0
    2.7271   57.6226   70.8880 H   0  0  0  0  0  0  0  0  0  0  0  0
    4.3997   58.1531   71.3131 H   0  0  0  0  0  0  0  0  0  0  0  0
    1.1964   63.5459   69.6028 H   0  0  0  0  0  0  0  0  0  0  0  0
    0.5339   62.5936   71.0241 H   0  0  0  0  0  0  0  0  0  0  0  0
   -0.5921   64.5828   71.2780 H   0  0  0  0  0  0  0  0  0  0  0  0
    0.8619   64.8640   72.3000 H   0  0  0  0  0  0  0  0  0  0  0  0
  2  1  2  0
  3  1  1  0
  4  3  1  0
  5  4  1  0
  6  5  1  0
  7  1  1  0
  7  6  1  0
  1  8  1  6
  9  8  1  0
 11 10  1  0
 11  9  1  0
 12  7  1  0
 13 12  1  0
 14 13  1  0
  4 15  1  0
  4 16  1  0
  5 17  1  0
  5 18  1  0
  6 19  1  0
  6 20  1  0
  8 21  1  0
  9 22  1  0
  9 23  1  0
 11 24  1  0
 11 25  1  0
 12 26  1  0
 12 27  1  0
 13 28  1  0
 13 29  1  0
M  END
>  <score>  (7) 
-5.32

$$$$
=
     RDKit          3D

 29 29  0  0  0  0  0  0  0  0999 V2000
    3.2690   67.7020   64.2610 P   0  0  2  0  0  5  0  0  0  0  0  0
    3.1140   66.2280   64.0470 O   0  0  0  0  0  0  0  0  0  0  0  0
    4.6980   68.2070   63.7150 O   0  0  0  0  0  0  0  0  0  0  0  0
    5.1790   69.4790   64.1010 C   0  0  0  0  0  0  0  0  0  0  0  0
    5.1860   69.6110   65.6130 C   0  0  0  0  0  0  0  0  0  0  0  0
    3.7780   69.4740   66.1830 C   0  0  0  0  0  0  0  0  0  0  0  0
    3.1890   68.1840   65.8280 N   0  0  0  0  0  0  0  0  0  0  0  0
    2.1590   68.6140   63.4710 N   0  0  0  0  0  0  0  0  0  0  0  0
    2.1760   68.5500   62.0080 C   0  0  0  0  0  0  0  0  0  0  0  0
   -0.3580   69.4650   62.3960 Cl  0  0  0  0  0  0  0  0  0  0  0  0
    1.1150   69.4630   61.4000 C   0  0  0  0  0  0  0  0  0  0  0  0
    1.9320   67.9810   66.5690 C   0  0  0  0  0  0  0  0  0  0  0  0
    1.6530   69.0370   67.6470 C   0  0  0  0  0  0  0  0  0  0  0  0
   -0.0750   69.4920   67.6200 Cl  0  0  0  0  0  0  0  0  0  0  0  0
    6.2035   69.6084   63.7220 H   0  0  0  0  0  0  0  0  0  0  0  0
    4.5176   70.2509   63.6806 H   0  0  0  0  0  0  0  0  0  0  0  0
    5.8244   68.8232   66.0394 H   0  0  0  0  0  0  0  0  0  0  0  0
    5.5734   70.6067   65.8748 H   0  0  0  0  0  0  0  0  0  0  0  0
    3.8244   69.5582   67.2788 H   0  0  0  0  0  0  0  0  0  0  0  0
    3.1508   70.2724   65.7597 H   0  0  0  0  0  0  0  0  0  0  0  0
    1.2259   68.3120   63.7858 H   0  0  0  0  0  0  0  0  0  0  0  0
    3.1670   68.8627   61.6473 H   0  0  0  0  0  0  0  0  0  0  0  0
    1.9592   67.5155   61.7035 H   0  0  0  0  0  0  0  0  0  0  0  0
    0.8672   69.1057   60.3896 H   0  0  0  0  0  0  0  0  0  0  0  0
    1.5133   70.4874   61.3556 H   0  0  0  0  0  0  0  0  0  0  0  0
    1.1013   67.9977   65.8481 H   0  0  0  0  0  0  0  0  0  0  0  0
    2.0279   67.0176   67.0912 H   0  0  0  0  0  0  0  0  0  0  0  0
    1.9064   68.6253   68.6351 H   0  0  0  0  0  0  0  0  0  0  0  0
    2.2654   69.9287   67.4475 H   0  0  0  0  0  0  0  0  0  0  0  0
  2  1  2  0
  3  1  1  0
  4  3  1  0
  5  4  1  0
  6  5  1  0
  7  1  1  0
  7  6  1  0
  1  8  1  6
  9  8  1  0
 11 10  1  0
 11  9  1  0
 12  7  1  0
 13 12  1  0
 14 13  1  0
  4 15  1  0
  4 16  1  0
  5 17  1  0
  5 18  1  0
  6 19  1  0
  6 20  1  0
  8 21  1  0
  9 22  1  0
  9 23  1  0
 11 24  1  0
 11 25  1  0
 12 26  1  0
 12 27  1  0
 13 28  1  0
 13 29  1  0
M  END
>  <score>  (8) 
-5.163

$$$$
=
     RDKit          3D

 29 29  0  0  0  0  0  0  0  0999 V2000
    2.7220   68.2210   65.1970 P   0  0  2  0  0  5  0  0  0  0  0  0
    2.7200   69.1140   66.3970 O   0  0  0  0  0  0  0  0  0  0  0  0
    2.2520   66.7320   65.5970 O   0  0  0  0  0  0  0  0  0  0  0  0
    2.4860   65.6650   64.7000 C   0  0  0  0  0  0  0  0  0  0  0  0
    3.9530   65.6010   64.3160 C   0  0  0  0  0  0  0  0  0  0  0  0
    4.3930   66.8810   63.6120 C   0  0  0  0  0  0  0  0  0  0  0  0
    4.1810   68.0500   64.4640 N   0  0  0  0  0  0  0  0  0  0  0  0
    1.6940   68.6920   64.0090 N   0  0  0  0  0  0  0  0  0  0  0  0
    0.2670   68.6940   64.3370 C   0  0  0  0  0  0  0  0  0  0  0  0
    0.4170   69.6360   61.7870 Cl  0  0  0  0  0  0  0  0  0  0  0  0
   -0.5850   68.9870   63.1050 C   0  0  0  0  0  0  0  0  0  0  0  0
    4.8140   69.2360   63.8610 C   0  0  0  0  0  0  0  0  0  0  0  0
    5.2680   69.0440   62.4090 C   0  0  0  0  0  0  0  0  0  0  0  0
    3.8670   69.1890   61.3090 Cl  0  0  0  0  0  0  0  0  0  0  0  0
    2.1966   64.7188   65.1806 H   0  0  0  0  0  0  0  0  0  0  0  0
    1.8886   65.8288   63.7910 H   0  0  0  0  0  0  0  0  0  0  0  0
    4.5568   65.4655   65.2254 H   0  0  0  0  0  0  0  0  0  0  0  0
    4.0971   64.7560   63.6267 H   0  0  0  0  0  0  0  0  0  0  0  0
    5.4622   66.8057   63.3649 H   0  0  0  0  0  0  0  0  0  0  0  0
    3.7925   67.0012   62.6983 H   0  0  0  0  0  0  0  0  0  0  0  0
    1.9525   69.6505   63.7344 H   0  0  0  0  0  0  0  0  0  0  0  0
   -0.0099   67.7077   64.7378 H   0  0  0  0  0  0  0  0  0  0  0  0
    0.0831   69.4824   65.0817 H   0  0  0  0  0  0  0  0  0  0  0  0
   -1.3579   69.7244   63.3676 H   0  0  0  0  0  0  0  0  0  0  0  0
   -1.0507   68.0498   62.7663 H   0  0  0  0  0  0  0  0  0  0  0  0
    4.0897   70.0635   63.8882 H   0  0  0  0  0  0  0  0  0  0  0  0
    5.7213   69.4398   64.4486 H   0  0  0  0  0  0  0  0  0  0  0  0
    6.0123   69.8131   62.1549 H   0  0  0  0  0  0  0  0  0  0  0  0
    5.7134   68.0443   62.2981 H   0  0  0  0  0  0  0  0  0  0  0  0
  2  1  2  0
  3  1  1  0
  4  3  1  0
  5  4  1  0
  6  5  1  0
  7  1  1  0
  7  6  1  0
  1  8  1  6
  9  8  1  0
 11 10  1  0
 11  9  1  0
 12  7  1  0
 13 12  1  0
 14 13  1  0
  4 15  1  0
  4 16  1  0
  5 17  1  0
  5 18  1  0
  6 19  1  0
  6 20  1  0
  8 21  1  0
  9 22  1  0
  9 23  1  0
 11 24  1  0
 11 25  1  0
 12 26  1  0
 12 27  1  0
 13 28  1  0
 13 29  1  0
M  END
>  <score>  (9) 
-5.141

$$$$
