=
     RDKit          3D

 50 53  0  0  0  0  0  0  0  0999 V2000
    0.2980   67.5830   68.3880 C   0  0  0  0  0  0  0  0  0  0  0  0
    1.6810   68.2460   68.5420 C   0  0  0  0  0  0  0  0  0  0  0  0
    2.0120   69.0900   67.3220 C   0  0  0  0  0  0  0  0  0  0  0  0
    2.1520   68.2060   66.1040 N   0  0  0  0  0  4  0  0  0  0  0  0
    1.3350   66.9310   66.1530 C   0  0  0  0  0  0  0  0  0  0  0  0
    0.0470   67.1450   66.9310 C   0  0  0  0  0  0  0  0  0  0  0  0
    0.1430   66.4490   69.4270 C   0  0  0  0  0  0  0  0  0  0  0  0
    1.4220   66.0070   70.1560 C   0  0  0  0  0  0  0  0  0  0  0  0
    3.0340   60.8460   70.2730 C   0  0  0  0  0  0  0  0  0  0  0  0
    3.5380   61.8130   69.3880 C   0  0  0  0  0  0  0  0  0  0  0  0
    3.0710   63.1370   69.4130 C   0  0  0  0  0  0  0  0  0  0  0  0
    2.0830   63.4770   70.3510 C   0  0  0  0  0  0  0  0  0  0  0  0
    1.6100   62.4970   71.2070 C   0  0  0  0  0  0  0  0  0  0  0  0
    2.0460   61.1750   71.2120 C   0  0  0  0  0  0  0  0  0  0  0  0
    0.6680   63.0320   72.0270 O   0  0  0  0  0  0  0  0  0  0  0  0
    0.4990   64.3750   71.7290 N   0  0  0  0  0  0  0  0  0  0  0  0
    1.3490   64.6330   70.7240 C   0  0  0  0  0  0  0  0  0  0  0  0
    3.9420   58.4170   70.1850 N   0  0  0  0  0  0  0  0  0  0  0  0
    3.5390   59.5040   70.2210 C   0  0  0  0  0  0  0  0  0  0  0  0
    1.9650   69.0010   64.8250 C   0  0  0  0  0  0  0  0  0  0  0  0
    3.1850   68.9910   63.9440 C   0  0  0  0  0  0  0  0  0  0  0  0
    4.4370   69.3680   64.4530 C   0  0  0  0  0  0  0  0  0  0  0  0
    5.5610   69.3780   63.6260 C   0  0  0  0  0  0  0  0  0  0  0  0
    5.4490   69.0100   62.2880 C   0  0  0  0  0  0  0  0  0  0  0  0
    4.2130   68.6260   61.7730 C   0  0  0  0  0  0  0  0  0  0  0  0
    3.0860   68.6140   62.5940 C   0  0  0  0  0  0  0  0  0  0  0  0
   -0.4933   68.3161   68.6037 H   0  0  0  0  0  0  0  0  0  0  0  0
    1.6758   68.8886   69.4348 H   0  0  0  0  0  0  0  0  0  0  0  0
    2.4414   67.4576   68.6431 H   0  0  0  0  0  0  0  0  0  0  0  0
    1.2049   69.8180   67.1529 H   0  0  0  0  0  0  0  0  0  0  0  0
    2.9610   69.6185   67.4954 H   0  0  0  0  0  0  0  0  0  0  0  0
    3.1230   67.8624   66.1100 H   0  0  0  0  0  0  0  0  0  0  0  0
    1.0891   66.6206   65.1268 H   0  0  0  0  0  0  0  0  0  0  0  0
    1.9263   66.1524   66.6572 H   0  0  0  0  0  0  0  0  0  0  0  0
   -0.5439   67.9235   66.4263 H   0  0  0  0  0  0  0  0  0  0  0  0
   -0.4873   66.1839   66.9602 H   0  0  0  0  0  0  0  0  0  0  0  0
   -0.5749   66.7889   70.1880 H   0  0  0  0  0  0  0  0  0  0  0  0
   -0.1828   65.5698   68.8518 H   0  0  0  0  0  0  0  0  0  0  0  0
    2.2576   66.0423   69.4415 H   0  0  0  0  0  0  0  0  0  0  0  0
    1.5606   66.6953   71.0028 H   0  0  0  0  0  0  0  0  0  0  0  0
    4.3132   61.5278   68.6615 H   0  0  0  0  0  0  0  0  0  0  0  0
    3.4690   63.8887   68.7155 H   0  0  0  0  0  0  0  0  0  0  0  0
    1.6388   60.4310   71.9125 H   0  0  0  0  0  0  0  0  0  0  0  0
    1.1234   68.5692   64.2635 H   0  0  0  0  0  0  0  0  0  0  0  0
    1.7739   70.0457   65.1114 H   0  0  0  0  0  0  0  0  0  0  0  0
    4.5331   69.6573   65.5099 H   0  0  0  0  0  0  0  0  0  0  0  0
    6.5383   69.6775   64.0325 H   0  0  0  0  0  0  0  0  0  0  0  0
    6.3362   69.0225   61.6378 H   0  0  0  0  0  0  0  0  0  0  0  0
    4.1259   68.3317   60.7167 H   0  0  0  0  0  0  0  0  0  0  0  0
    2.1132   68.3074   62.1822 H   0  0  0  0  0  0  0  0  0  0  0  0
  2  1  1  0
  3  2  1  0
  4  3  1  0
  5  4  1  0
  6  5  1  0
  6  1  1  0
  7  1  1  0
  8  7  1  0
 10  9  2  0
 11 10  1  0
 12 11  2  0
 13 12  1  0
 14  9  1  0
 14 13  2  0
 15 13  1  0
 16 15  1  0
 17 12  1  0
 17 16  2  0
 17  8  1  0
 19 18  3  0
 19  9  1  0
 20  4  1  0
 21 20  1  0
 22 21  2  0
 23 22  1  0
 24 23  2  0
 25 24  1  0
 26 25  2  0
 26 21  1  0
  1 27  1  0
  2 28  1  0
  2 29  1  0
  3 30  1  0
  3 31  1  0
  4 32  1  0
  5 33  1  0
  5 34  1  0
  6 35  1  0
  6 36  1  0
  7 37  1  0
  7 38  1  0
  8 39  1  0
  8 40  1  0
 10 41  1  0
 11 42  1  0
 14 43  1  0
 20 44  1  0
 20 45  1  0
 22 46  1  0
 23 47  1  0
 24 48  1  0
 25 49  1  0
 26 50  1  0
M  CHG  1   4   1
M  END
>  <score>  (1) 
-9.944

$$$$
=
     RDKit          3D

 50 53  0  0  0  0  0  0  0  0999 V2000
    0.7750   66.1090   70.3410 C   0  0  0  0  0  0  0  0  0  0  0  0
   -0.2870   65.6480   71.3580 C   0  0  0  0  0  0  0  0  0  0  0  0
    0.3410   64.7870   72.4410 C   0  0  0  0  0  0  0  0  0  0  0  0
    0.8690   63.5030   71.8400 N   0  0  0  0  0  4  0  0  0  0  0  0
    1.2830   63.6120   70.3860 C   0  0  0  0  0  0  0  0  0  0  0  0
    1.8160   65.0020   70.0790 C   0  0  0  0  0  0  0  0  0  0  0  0
    0.0830   66.6430   69.0660 C   0  0  0  0  0  0  0  0  0  0  0  0
    0.7200   67.8760   68.4050 C   0  0  0  0  0  0  0  0  0  0  0  0
    3.9830   68.8270   64.1980 C   0  0  0  0  0  0  0  0  0  0  0  0
    4.1500   69.3910   65.4720 C   0  0  0  0  0  0  0  0  0  0  0  0
    3.2610   69.1000   66.5200 C   0  0  0  0  0  0  0  0  0  0  0  0
    2.1950   68.2230   66.2650 C   0  0  0  0  0  0  0  0  0  0  0  0
    2.0620   67.6860   64.9960 C   0  0  0  0  0  0  0  0  0  0  0  0
    2.9210   67.9510   63.9320 C   0  0  0  0  0  0  0  0  0  0  0  0
    0.9750   66.8710   64.9630 O   0  0  0  0  0  0  0  0  0  0  0  0
    0.3690   66.8540   66.2090 N   0  0  0  0  0  0  0  0  0  0  0  0
    1.1040   67.6670   66.9820 C   0  0  0  0  0  0  0  0  0  0  0  0
    5.6680   69.4050   62.3120 N   0  0  0  0  0  0  0  0  0  0  0  0
    4.9140   69.1430   63.1530 C   0  0  0  0  0  0  0  0  0  0  0  0
    1.9260   62.8760   72.7300 C   0  0  0  0  0  0  0  0  0  0  0  0
    2.7750   61.8640   72.0080 C   0  0  0  0  0  0  0  0  0  0  0  0
    4.0600   62.2000   71.5590 C   0  0  0  0  0  0  0  0  0  0  0  0
    4.8350   61.2650   70.8700 C   0  0  0  0  0  0  0  0  0  0  0  0
    4.3360   59.9880   70.6270 C   0  0  0  0  0  0  0  0  0  0  0  0
    3.0650   59.6390   71.0750 C   0  0  0  0  0  0  0  0  0  0  0  0
    2.2860   60.5690   71.7630 C   0  0  0  0  0  0  0  0  0  0  0  0
    1.3514   66.9475   70.7589 H   0  0  0  0  0  0  0  0  0  0  0  0
   -0.7491   66.5316   71.8225 H   0  0  0  0  0  0  0  0  0  0  0  0
   -1.0459   65.0522   70.8297 H   0  0  0  0  0  0  0  0  0  0  0  0
    1.1700   65.3379   72.9093 H   0  0  0  0  0  0  0  0  0  0  0  0
   -0.4206   64.5453   73.1970 H   0  0  0  0  0  0  0  0  0  0  0  0
    0.0719   62.8514   71.8085 H   0  0  0  0  0  0  0  0  0  0  0  0
    2.0686   62.8706   70.1782 H   0  0  0  0  0  0  0  0  0  0  0  0
    0.4025   63.4246   69.7538 H   0  0  0  0  0  0  0  0  0  0  0  0
    2.6960   65.1893   70.7119 H   0  0  0  0  0  0  0  0  0  0  0  0
    2.0710   65.0317   69.0094 H   0  0  0  0  0  0  0  0  0  0  0  0
    0.0777   65.8312   68.3237 H   0  0  0  0  0  0  0  0  0  0  0  0
   -0.9152   66.9706   69.3921 H   0  0  0  0  0  0  0  0  0  0  0  0
   -0.0015   68.7051   68.4508 H   0  0  0  0  0  0  0  0  0  0  0  0
    1.6466   68.0914   68.9573 H   0  0  0  0  0  0  0  0  0  0  0  0
    4.9930   70.0739   65.6535 H   0  0  0  0  0  0  0  0  0  0  0  0
    3.3968   69.5481   67.5154 H   0  0  0  0  0  0  0  0  0  0  0  0
    2.7746   67.4989   62.9399 H   0  0  0  0  0  0  0  0  0  0  0  0
    2.5799   63.6732   73.1133 H   0  0  0  0  0  0  0  0  0  0  0  0
    1.4035   62.3491   73.5420 H   0  0  0  0  0  0  0  0  0  0  0  0
    4.4601   63.2065   71.7507 H   0  0  0  0  0  0  0  0  0  0  0  0
    5.8411   61.5376   70.5187 H   0  0  0  0  0  0  0  0  0  0  0  0
    4.9467   59.2542   70.0805 H   0  0  0  0  0  0  0  0  0  0  0  0
    2.6745   58.6282   70.8861 H   0  0  0  0  0  0  0  0  0  0  0  0
    1.2829   60.2875   72.1160 H   0  0  0  0  0  0  0  0  0  0  0  0
  2  1  1  0
  3  2  1  0
  4  3  1  0
  5  4  1  0
  6  5  1  0
  6  1  1  0
  7  1  1  0
  8  7  1  0
 10  9  2  0
 11 10  1  0
 12 11  2  0
 13 12  1  0
 14  9  1  0
 14 13  2  0
 15 13  1  0
 16 15  1  0
 17 12  1  0
 17 16  2  0
 17  8  1  0
 19 18  3  0
 19  9  1  0
 20  4  1  0
 21 20  1  0
 22 21  2  0
 23 22  1  0
 24 23  2  0
 25 24  1  0
 26 25  2  0
 26 21  1  0
  1 27  1  0
  2 28  1  0
  2 29  1  0
  3 30  1  0
  3 31  1  0
  4 32  1  0
  5 33  1  0
  5 34  1  0
  6 35  1  0
  6 36  1  0
  7 37  1  0
  7 38  1  0
  8 39  1  0
  8 40  1  0
 10 41  1  0
 11 42  1  0
 14 43  1  0
 20 44  1  0
 20 45  1  0
 22 46  1  0
 23 47  1  0
 24 48  1  0
 25 49  1  0
 26 50  1  0
M  CHG  1   4   1
M  END
>  <score>  (2) 
-9.694

$$$$
=
     RDKit          3D

 50 53  0  0  0  0  0  0  0  0999 V2000
   -0.0980   67.3560   68.3890 C   0  0  0  0  0  0  0  0  0  0  0  0
    1.3640   67.7650   68.6560 C   0  0  0  0  0  0  0  0  0  0  0  0
    1.8570   68.7280   67.5890 C   0  0  0  0  0  0  0  0  0  0  0  0
    1.8990   68.0360   66.2450 N   0  0  0  0  0  4  0  0  0  0  0  0
    0.8970   66.9110   66.0850 C   0  0  0  0  0  0  0  0  0  0  0  0
   -0.3670   67.1970   66.8790 C   0  0  0  0  0  0  0  0  0  0  0  0
   -0.4550   66.1100   69.2310 C   0  0  0  0  0  0  0  0  0  0  0  0
    0.3140   65.9310   70.5500 C   0  0  0  0  0  0  0  0  0  0  0  0
    1.0430   60.8860   72.3590 C   0  0  0  0  0  0  0  0  0  0  0  0
   -0.0600   61.6920   72.6850 C   0  0  0  0  0  0  0  0  0  0  0  0
   -0.1830   62.9970   72.1790 C   0  0  0  0  0  0  0  0  0  0  0  0
    0.8260   63.4800   71.3310 C   0  0  0  0  0  0  0  0  0  0  0  0
    1.8980   62.6560   71.0320 C   0  0  0  0  0  0  0  0  0  0  0  0
    2.0560   61.3590   71.5140 C   0  0  0  0  0  0  0  0  0  0  0  0
    2.7520   63.3110   70.2020 O   0  0  0  0  0  0  0  0  0  0  0  0
    2.2620   64.5800   69.9380 N   0  0  0  0  0  0  0  0  0  0  0  0
    1.1100   64.6740   70.6180 C   0  0  0  0  0  0  0  0  0  0  0  0
    1.1980   58.4800   73.3170 N   0  0  0  0  0  0  0  0  0  0  0  0
    1.1320   59.5560   72.8910 C   0  0  0  0  0  0  0  0  0  0  0  0
    1.8740   69.0420   65.1090 C   0  0  0  0  0  0  0  0  0  0  0  0
    3.1330   69.0280   64.2860 C   0  0  0  0  0  0  0  0  0  0  0  0
    3.0960   68.6770   62.9280 C   0  0  0  0  0  0  0  0  0  0  0  0
    4.2700   68.6440   62.1740 C   0  0  0  0  0  0  0  0  0  0  0  0
    5.4890   68.9630   62.7650 C   0  0  0  0  0  0  0  0  0  0  0  0
    5.5390   69.3220   64.1100 C   0  0  0  0  0  0  0  0  0  0  0  0
    4.3690   69.3570   64.8690 C   0  0  0  0  0  0  0  0  0  0  0  0
   -0.7753   68.1591   68.7149 H   0  0  0  0  0  0  0  0  0  0  0  0
    1.4283   68.2527   69.6398 H   0  0  0  0  0  0  0  0  0  0  0  0
    1.9926   66.8626   68.6349 H   0  0  0  0  0  0  0  0  0  0  0  0
    1.1756   69.5897   67.5336 H   0  0  0  0  0  0  0  0  0  0  0  0
    2.8697   69.0684   67.8509 H   0  0  0  0  0  0  0  0  0  0  0  0
    2.8061   67.5502   66.2005 H   0  0  0  0  0  0  0  0  0  0  0  0
    0.6386   66.8069   65.0209 H   0  0  0  0  0  0  0  0  0  0  0  0
    1.3476   65.9812   66.4624 H   0  0  0  0  0  0  0  0  0  0  0  0
   -0.8166   68.1273   66.5018 H   0  0  0  0  0  0  0  0  0  0  0  0
   -1.0417   66.3378   66.7504 H   0  0  0  0  0  0  0  0  0  0  0  0
   -1.5264   66.1662   69.4736 H   0  0  0  0  0  0  0  0  0  0  0  0
   -0.1723   65.2475   68.6095 H   0  0  0  0  0  0  0  0  0  0  0  0
    1.0001   66.7825   70.6693 H   0  0  0  0  0  0  0  0  0  0  0  0
   -0.4363   65.8779   71.3527 H   0  0  0  0  0  0  0  0  0  0  0  0
   -0.8419   61.2943   73.3486 H   0  0  0  0  0  0  0  0  0  0  0  0
   -1.0479   63.6242   72.4407 H   0  0  0  0  0  0  0  0  0  0  0  0
    2.9260   60.7413   71.2468 H   0  0  0  0  0  0  0  0  0  0  0  0
    1.0229   68.8086   64.4523 H   0  0  0  0  0  0  0  0  0  0  0  0
    1.7837   70.0427   65.5566 H   0  0  0  0  0  0  0  0  0  0  0  0
    2.1353   68.4262   62.4545 H   0  0  0  0  0  0  0  0  0  0  0  0
    4.2318   68.3653   61.1106 H   0  0  0  0  0  0  0  0  0  0  0  0
    6.4135   68.9316   62.1697 H   0  0  0  0  0  0  0  0  0  0  0  0
    6.5026   69.5783   64.5744 H   0  0  0  0  0  0  0  0  0  0  0  0
    4.4140   69.6438   65.9300 H   0  0  0  0  0  0  0  0  0  0  0  0
  2  1  1  0
  3  2  1  0
  4  3  1  0
  5  4  1  0
  6  5  1  0
  6  1  1  0
  7  1  1  0
  8  7  1  0
 10  9  2  0
 11 10  1  0
 12 11  2  0
 13 12  1  0
 14  9  1  0
 14 13  2  0
 15 13  1  0
 16 15  1  0
 17 12  1  0
 17 16  2  0
 17  8  1  0
 19 18  3  0
 19  9  1  0
 20  4  1  0
 21 20  1  0
 22 21  2  0
 23 22  1  0
 24 23  2  0
 25 24  1  0
 26 25  2  0
 26 21  1  0
  1 27  1  0
  2 28  1  0
  2 29  1  0
  3 30  1  0
  3 31  1  0
  4 32  1  0
  5 33  1  0
  5 34  1  0
  6 35  1  0
  6 36  1  0
  7 37  1  0
  7 38  1  0
  8 39  1  0
  8 40  1  0
 10 41  1  0
 11 42  1  0
 14 43  1  0
 20 44  1  0
 20 45  1  0
 22 46  1  0
 23 47  1  0
 24 48  1  0
 25 49  1  0
 26 50  1  0
M  CHG  1   4   1
M  END
>  <score>  (3) 
-9.463

$$$$
=
     RDKit          3D

 50 53  0  0  0  0  0  0  0  0999 V2000
    0.8230   66.1400   69.9840 C   0  0  0  0  0  0  0  0  0  0  0  0
   -0.3110   65.7480   70.9510 C   0  0  0  0  0  0  0  0  0  0  0  0
    0.2400   64.9930   72.1490 C   0  0  0  0  0  0  0  0  0  0  0  0
    0.8280   63.6730   71.7040 N   0  0  0  0  0  4  0  0  0  0  0  0
    1.3530   63.6640   70.2830 C   0  0  0  0  0  0  0  0  0  0  0  0
    1.8930   65.0330   69.9000 C   0  0  0  0  0  0  0  0  0  0  0  0
    0.2280   66.5500   68.6170 C   0  0  0  0  0  0  0  0  0  0  0  0
    0.2840   68.0460   68.2670 C   0  0  0  0  0  0  0  0  0  0  0  0
    5.0080   70.6800   68.2110 C   0  0  0  0  0  0  0  0  0  0  0  0
    4.1300   70.6520   69.3060 C   0  0  0  0  0  0  0  0  0  0  0  0
    2.9160   69.9470   69.2500 C   0  0  0  0  0  0  0  0  0  0  0  0
    2.5980   69.2630   68.0660 C   0  0  0  0  0  0  0  0  0  0  0  0
    3.4880   69.3130   67.0070 C   0  0  0  0  0  0  0  0  0  0  0  0
    4.6990   70.0000   67.0240 C   0  0  0  0  0  0  0  0  0  0  0  0
    2.9930   68.5890   65.9680 O   0  0  0  0  0  0  0  0  0  0  0  0
    1.7670   68.0490   66.3200 N   0  0  0  0  0  0  0  0  0  0  0  0
    1.5370   68.4580   67.5770 C   0  0  0  0  0  0  0  0  0  0  0  0
    7.2390   71.9930   68.3770 N   0  0  0  0  0  0  0  0  0  0  0  0
    6.2410   71.4060   68.3070 C   0  0  0  0  0  0  0  0  0  0  0  0
    1.8180   63.1420   72.7240 C   0  0  0  0  0  0  0  0  0  0  0  0
    2.5800   61.9420   72.2320 C   0  0  0  0  0  0  0  0  0  0  0  0
    1.9480   60.6950   72.1080 C   0  0  0  0  0  0  0  0  0  0  0  0
    2.6650   59.5800   71.6720 C   0  0  0  0  0  0  0  0  0  0  0  0
    4.0150   59.6980   71.3530 C   0  0  0  0  0  0  0  0  0  0  0  0
    4.6520   60.9310   71.4630 C   0  0  0  0  0  0  0  0  0  0  0  0
    3.9410   62.0500   71.8980 C   0  0  0  0  0  0  0  0  0  0  0  0
    1.3549   67.0214   70.3717 H   0  0  0  0  0  0  0  0  0  0  0  0
   -0.8181   66.6593   71.3008 H   0  0  0  0  0  0  0  0  0  0  0  0
   -1.0197   65.0966   70.4186 H   0  0  0  0  0  0  0  0  0  0  0  0
    1.0233   65.5965   72.6308 H   0  0  0  0  0  0  0  0  0  0  0  0
   -0.5761   64.8023   72.8615 H   0  0  0  0  0  0  0  0  0  0  0  0
    0.0428   63.0074   71.6673 H   0  0  0  0  0  0  0  0  0  0  0  0
    2.1606   62.9216   70.2013 H   0  0  0  0  0  0  0  0  0  0  0  0
    0.5275   63.4069   69.6030 H   0  0  0  0  0  0  0  0  0  0  0  0
    2.7181   65.2888   70.5809 H   0  0  0  0  0  0  0  0  0  0  0  0
    2.2307   64.9762   68.8547 H   0  0  0  0  0  0  0  0  0  0  0  0
    0.7764   66.0030   67.8359 H   0  0  0  0  0  0  0  0  0  0  0  0
   -0.8425   66.3048   68.6794 H   0  0  0  0  0  0  0  0  0  0  0  0
   -0.5663   68.2798   67.6095 H   0  0  0  0  0  0  0  0  0  0  0  0
    0.2471   68.5978   69.2179 H   0  0  0  0  0  0  0  0  0  0  0  0
    4.3977   71.1926   70.2258 H   0  0  0  0  0  0  0  0  0  0  0  0
    2.2324   69.9314   70.1116 H   0  0  0  0  0  0  0  0  0  0  0  0
    5.3747   70.0089   66.1560 H   0  0  0  0  0  0  0  0  0  0  0  0
    2.5365   63.9397   72.9637 H   0  0  0  0  0  0  0  0  0  0  0  0
    1.2439   62.8281   73.6082 H   0  0  0  0  0  0  0  0  0  0  0  0
    0.8809   60.5959   72.3560 H   0  0  0  0  0  0  0  0  0  0  0  0
    2.1625   58.6058   71.5802 H   0  0  0  0  0  0  0  0  0  0  0  0
    4.5787   58.8164   71.0138 H   0  0  0  0  0  0  0  0  0  0  0  0
    5.7177   61.0232   71.2065 H   0  0  0  0  0  0  0  0  0  0  0  0
    4.4486   63.0224   71.9800 H   0  0  0  0  0  0  0  0  0  0  0  0
  2  1  1  0
  3  2  1  0
  4  3  1  0
  5  4  1  0
  6  5  1  0
  6  1  1  0
  7  1  1  0
  8  7  1  0
 10  9  2  0
 11 10  1  0
 12 11  2  0
 13 12  1  0
 14  9  1  0
 14 13  2  0
 15 13  1  0
 16 15  1  0
 17 12  1  0
 17 16  2  0
 17  8  1  0
 19 18  3  0
 19  9  1  0
 20  4  1  0
 21 20  1  0
 22 21  2  0
 23 22  1  0
 24 23  2  0
 25 24  1  0
 26 25  2  0
 26 21  1  0
  1 27  1  0
  2 28  1  0
  2 29  1  0
  3 30  1  0
  3 31  1  0
  4 32  1  0
  5 33  1  0
  5 34  1  0
  6 35  1  0
  6 36  1  0
  7 37  1  0
  7 38  1  0
  8 39  1  0
  8 40  1  0
 10 41  1  0
 11 42  1  0
 14 43  1  0
 20 44  1  0
 20 45  1  0
 22 46  1  0
 23 47  1  0
 24 48  1  0
 25 49  1  0
 26 50  1  0
M  CHG  1   4   1
M  END
>  <score>  (4) 
-8.887

$$$$
=
     RDKit          3D

 50 53  0  0  0  0  0  0  0  0999 V2000
    1.3700   65.8940   70.2770 C   0  0  0  0  0  0  0  0  0  0  0  0
    0.0310   65.5840   70.9730 C   0  0  0  0  0  0  0  0  0  0  0  0
    0.2450   64.6870   72.1800 C   0  0  0  0  0  0  0  0  0  0  0  0
    0.7610   63.3370   71.7370 N   0  0  0  0  0  4  0  0  0  0  0  0
    1.5540   63.3580   70.4460 C   0  0  0  0  0  0  0  0  0  0  0  0
    2.3070   64.6700   70.2970 C   0  0  0  0  0  0  0  0  0  0  0  0
    1.1070   66.4680   68.8660 C   0  0  0  0  0  0  0  0  0  0  0  0
    1.0700   68.0000   68.7450 C   0  0  0  0  0  0  0  0  0  0  0  0
    2.7060   68.2990   63.5980 C   0  0  0  0  0  0  0  0  0  0  0  0
    1.6450   67.4970   64.0460 C   0  0  0  0  0  0  0  0  0  0  0  0
    1.2750   67.4670   65.4000 C   0  0  0  0  0  0  0  0  0  0  0  0
    1.9930   68.2660   66.3050 C   0  0  0  0  0  0  0  0  0  0  0  0
    3.0340   69.0440   65.8260 C   0  0  0  0  0  0  0  0  0  0  0  0
    3.4310   69.1000   64.4930 C   0  0  0  0  0  0  0  0  0  0  0  0
    3.5900   69.7340   66.8560 O   0  0  0  0  0  0  0  0  0  0  0  0
    2.9300   69.4240   68.0340 N   0  0  0  0  0  0  0  0  0  0  0  0
    1.9760   68.5450   67.6960 C   0  0  0  0  0  0  0  0  0  0  0  0
    3.3390   68.3160   61.0820 N   0  0  0  0  0  0  0  0  0  0  0  0
    3.0520   68.3080   62.2060 C   0  0  0  0  0  0  0  0  0  0  0  0
    1.4640   62.6180   72.8730 C   0  0  0  0  0  0  0  0  0  0  0  0
    2.5220   61.6600   72.3950 C   0  0  0  0  0  0  0  0  0  0  0  0
    2.1690   60.4070   71.8730 C   0  0  0  0  0  0  0  0  0  0  0  0
    3.1550   59.5140   71.4520 C   0  0  0  0  0  0  0  0  0  0  0  0
    4.5000   59.8630   71.5440 C   0  0  0  0  0  0  0  0  0  0  0  0
    4.8630   61.1070   72.0530 C   0  0  0  0  0  0  0  0  0  0  0  0
    3.8820   62.0040   72.4760 C   0  0  0  0  0  0  0  0  0  0  0  0
    1.9087   66.6730   70.8364 H   0  0  0  0  0  0  0  0  0  0  0  0
   -0.4312   66.5265   71.3016 H   0  0  0  0  0  0  0  0  0  0  0  0
   -0.6250   65.0640   70.2594 H   0  0  0  0  0  0  0  0  0  0  0  0
    0.9779   65.1534   72.8549 H   0  0  0  0  0  0  0  0  0  0  0  0
   -0.7128   64.5528   72.7040 H   0  0  0  0  0  0  0  0  0  0  0  0
   -0.0699   62.7795   71.4926 H   0  0  0  0  0  0  0  0  0  0  0  0
    2.2748   62.5271   70.4518 H   0  0  0  0  0  0  0  0  0  0  0  0
    0.8566   63.2536   69.6018 H   0  0  0  0  0  0  0  0  0  0  0  0
    3.0038   64.7739   71.1418 H   0  0  0  0  0  0  0  0  0  0  0  0
    2.8374   64.6415   69.3337 H   0  0  0  0  0  0  0  0  0  0  0  0
    1.9024   66.0993   68.2016 H   0  0  0  0  0  0  0  0  0  0  0  0
    0.0950   66.1302   68.5981 H   0  0  0  0  0  0  0  0  0  0  0  0
    0.0403   68.3036   68.5051 H   0  0  0  0  0  0  0  0  0  0  0  0
    1.4164   68.4046   69.7075 H   0  0  0  0  0  0  0  0  0  0  0  0
    1.0925   66.8799   63.3222 H   0  0  0  0  0  0  0  0  0  0  0  0
    0.4437   66.8337   65.7435 H   0  0  0  0  0  0  0  0  0  0  0  0
    4.2650   69.7356   64.1606 H   0  0  0  0  0  0  0  0  0  0  0  0
    1.9378   63.3682   73.5232 H   0  0  0  0  0  0  0  0  0  0  0  0
    0.7055   62.0302   73.4108 H   0  0  0  0  0  0  0  0  0  0  0  0
    1.1082   60.1265   71.7950 H   0  0  0  0  0  0  0  0  0  0  0  0
    2.8693   58.5322   71.0465 H   0  0  0  0  0  0  0  0  0  0  0  0
    5.2755   59.1559   71.2146 H   0  0  0  0  0  0  0  0  0  0  0  0
    5.9256   61.3831   72.1217 H   0  0  0  0  0  0  0  0  0  0  0  0
    4.1748   62.9863   72.8753 H   0  0  0  0  0  0  0  0  0  0  0  0
  2  1  1  0
  3  2  1  0
  4  3  1  0
  5  4  1  0
  6  5  1  0
  6  1  1  0
  7  1  1  0
  8  7  1  0
 10  9  2  0
 11 10  1  0
 12 11  2  0
 13 12  1  0
 14  9  1  0
 14 13  2  0
 15 13  1  0
 16 15  1  0
 17 12  1  0
 17 16  2  0
 17  8  1  0
 19 18  3  0
 19  9  1  0
 20  4  1  0
 21 20  1  0
 22 21  2  0
 23 22  1  0
 24 23  2  0
 25 24  1  0
 26 25  2  0
 26 21  1  0
  1 27  1  0
  2 28  1  0
  2 29  1  0
  3 30  1  0
  3 31  1  0
  4 32  1  0
  5 33  1  0
  5 34  1  0
  6 35  1  0
  6 36  1  0
  7 37  1  0
  7 38  1  0
  8 39  1  0
  8 40  1  0
 10 41  1  0
 11 42  1  0
 14 43  1  0
 20 44  1  0
 20 45  1  0
 22 46  1  0
 23 47  1  0
 24 48  1  0
 25 49  1  0
 26 50  1  0
M  CHG  1   4   1
M  END
>  <score>  (5) 
-8.62

$$$$
=
     RDKit          3D

 50 53  0  0  0  0  0  0  0  0999 V2000
    2.1660   62.7270   71.9570 C   0  0  0  0  0  0  0  0  0  0  0  0
    2.7430   63.1770   70.6000 C   0  0  0  0  0  0  0  0  0  0  0  0
    2.3210   64.6010   70.2810 C   0  0  0  0  0  0  0  0  0  0  0  0
    0.8220   64.6670   70.0930 N   0  0  0  0  0  4  0  0  0  0  0  0
    0.0430   63.6220   70.8660 C   0  0  0  0  0  0  0  0  0  0  0  0
    0.7440   63.2830   72.1720 C   0  0  0  0  0  0  0  0  0  0  0  0
    2.2720   61.1900   72.0870 C   0  0  0  0  0  0  0  0  0  0  0  0
    1.1400   60.4880   72.8540 C   0  0  0  0  0  0  0  0  0  0  0  0
   -0.5550   55.6440   74.5630 C   0  0  0  0  0  0  0  0  0  0  0  0
   -1.2170   56.8540   74.8290 C   0  0  0  0  0  0  0  0  0  0  0  0
   -0.7180   58.0770   74.3530 C   0  0  0  0  0  0  0  0  0  0  0  0
    0.4660   58.0650   73.5980 C   0  0  0  0  0  0  0  0  0  0  0  0
    1.0910   56.8540   73.3570 C   0  0  0  0  0  0  0  0  0  0  0  0
    0.6280   55.6210   73.8110 C   0  0  0  0  0  0  0  0  0  0  0  0
    2.2090   57.0640   72.6140 O   0  0  0  0  0  0  0  0  0  0  0  0
    2.3450   58.4180   72.3510 N   0  0  0  0  0  0  0  0  0  0  0  0
    1.2990   59.0100   72.9450 C   0  0  0  0  0  0  0  0  0  0  0  0
   -1.5430   53.4190   75.4590 N   0  0  0  0  0  0  0  0  0  0  0  0
   -1.0980   54.4130   75.0610 C   0  0  0  0  0  0  0  0  0  0  0  0
    0.3060   66.0800   70.2890 C   0  0  0  0  0  0  0  0  0  0  0  0
    0.0990   66.8150   68.9920 C   0  0  0  0  0  0  0  0  0  0  0  0
   -1.1180   66.7160   68.3020 C   0  0  0  0  0  0  0  0  0  0  0  0
   -1.2980   67.3810   67.0880 C   0  0  0  0  0  0  0  0  0  0  0  0
   -0.2690   68.1520   66.5540 C   0  0  0  0  0  0  0  0  0  0  0  0
    0.9420   68.2650   67.2350 C   0  0  0  0  0  0  0  0  0  0  0  0
    1.1270   67.6030   68.4480 C   0  0  0  0  0  0  0  0  0  0  0  0
    2.7640   63.1531   72.7761 H   0  0  0  0  0  0  0  0  0  0  0  0
    3.8411   63.1265   70.6403 H   0  0  0  0  0  0  0  0  0  0  0  0
    2.3581   62.5104   69.8142 H   0  0  0  0  0  0  0  0  0  0  0  0
    2.6135   65.2619   71.1102 H   0  0  0  0  0  0  0  0  0  0  0  0
    2.8156   64.9247   69.3533 H   0  0  0  0  0  0  0  0  0  0  0  0
    0.6457   64.4120   69.1108 H   0  0  0  0  0  0  0  0  0  0  0  0
   -0.9619   64.0112   71.0865 H   0  0  0  0  0  0  0  0  0  0  0  0
   -0.0254   62.7097   70.2552 H   0  0  0  0  0  0  0  0  0  0  0  0
    0.8115   64.1956   72.7824 H   0  0  0  0  0  0  0  0  0  0  0  0
    0.1538   62.5014   72.6728 H   0  0  0  0  0  0  0  0  0  0  0  0
    2.2984   60.7695   71.0709 H   0  0  0  0  0  0  0  0  0  0  0  0
    3.1812   61.0095   72.6793 H   0  0  0  0  0  0  0  0  0  0  0  0
    1.1081   60.8964   73.8749 H   0  0  0  0  0  0  0  0  0  0  0  0
    0.2114   60.6755   72.2950 H   0  0  0  0  0  0  0  0  0  0  0  0
   -2.1438   56.8432   75.4214 H   0  0  0  0  0  0  0  0  0  0  0  0
   -1.2413   59.0208   74.5661 H   0  0  0  0  0  0  0  0  0  0  0  0
    1.1600   54.6834   73.5921 H   0  0  0  0  0  0  0  0  0  0  0  0
   -0.6551   66.0316   70.8218 H   0  0  0  0  0  0  0  0  0  0  0  0
    1.0657   66.6314   70.8624 H   0  0  0  0  0  0  0  0  0  0  0  0
   -1.9357   66.1106   68.7201 H   0  0  0  0  0  0  0  0  0  0  0  0
   -2.2548   67.2957   66.5521 H   0  0  0  0  0  0  0  0  0  0  0  0
   -0.4116   68.6718   65.5951 H   0  0  0  0  0  0  0  0  0  0  0  0
    1.7532   68.8776   66.8146 H   0  0  0  0  0  0  0  0  0  0  0  0
    2.0838   67.6983   68.9824 H   0  0  0  0  0  0  0  0  0  0  0  0
  2  1  1  0
  3  2  1  0
  4  3  1  0
  5  4  1  0
  6  5  1  0
  6  1  1  0
  7  1  1  0
  8  7  1  0
 10  9  2  0
 11 10  1  0
 12 11  2  0
 13 12  1  0
 14  9  1  0
 14 13  2  0
 15 13  1  0
 16 15  1  0
 17 12  1  0
 17 16  2  0
 17  8  1  0
 19 18  3  0
 19  9  1  0
 20  4  1  0
 21 20  1  0
 22 21  2  0
 23 22  1  0
 24 23  2  0
 25 24  1  0
 26 25  2  0
 26 21  1  0
  1 27  1  0
  2 28  1  0
  2 29  1  0
  3 30  1  0
  3 31  1  0
  4 32  1  0
  5 33  1  0
  5 34  1  0
  6 35  1  0
  6 36  1  0
  7 37  1  0
  7 38  1  0
  8 39  1  0
  8 40  1  0
 10 41  1  0
 11 42  1  0
 14 43  1  0
 20 44  1  0
 20 45  1  0
 22 46  1  0
 23 47  1  0
 24 48  1  0
 25 49  1  0
 26 50  1  0
M  CHG  1   4   1
M  END
>  <score>  (6) 
-8.415

$$$$
=
     RDKit          3D

 50 53  0  0  0  0  0  0  0  0999 V2000
    2.6110   63.0860   72.1790 C   0  0  0  0  0  0  0  0  0  0  0  0
    2.9300   63.3800   70.7000 C   0  0  0  0  0  0  0  0  0  0  0  0
    2.3540   64.7230   70.2820 C   0  0  0  0  0  0  0  0  0  0  0  0
    0.8430   64.6780   70.3390 N   0  0  0  0  0  4  0  0  0  0  0  0
    0.2800   63.7040   71.3540 C   0  0  0  0  0  0  0  0  0  0  0  0
    1.2020   63.5850   72.5570 C   0  0  0  0  0  0  0  0  0  0  0  0
    2.8550   61.5890   72.4790 C   0  0  0  0  0  0  0  0  0  0  0  0
    1.9390   60.5870   71.7580 C   0  0  0  0  0  0  0  0  0  0  0  0
   -2.5110   59.6230   74.6770 C   0  0  0  0  0  0  0  0  0  0  0  0
   -2.3070   60.7770   73.9020 C   0  0  0  0  0  0  0  0  0  0  0  0
   -1.1230   60.9620   73.1690 C   0  0  0  0  0  0  0  0  0  0  0  0
   -0.1420   59.9590   73.2260 C   0  0  0  0  0  0  0  0  0  0  0  0
   -0.3790   58.8360   74.0000 C   0  0  0  0  0  0  0  0  0  0  0  0
   -1.5370   58.6160   74.7400 C   0  0  0  0  0  0  0  0  0  0  0  0
    0.6880   57.9980   73.9150 O   0  0  0  0  0  0  0  0  0  0  0  0
    1.6490   58.5510   73.0850 N   0  0  0  0  0  0  0  0  0  0  0  0
    1.1460   59.7250   72.6770 C   0  0  0  0  0  0  0  0  0  0  0  0
   -4.7280   59.3370   75.9930 N   0  0  0  0  0  0  0  0  0  0  0  0
   -3.7360   59.4660   75.4080 C   0  0  0  0  0  0  0  0  0  0  0  0
    0.2570   66.0740   70.4420 C   0  0  0  0  0  0  0  0  0  0  0  0
    0.0780   66.7350   69.1020 C   0  0  0  0  0  0  0  0  0  0  0  0
   -1.1160   66.5790   68.3820 C   0  0  0  0  0  0  0  0  0  0  0  0
   -1.2690   67.1760   67.1300 C   0  0  0  0  0  0  0  0  0  0  0  0
   -0.2360   67.9350   66.5870 C   0  0  0  0  0  0  0  0  0  0  0  0
    0.9510   68.1050   67.2950 C   0  0  0  0  0  0  0  0  0  0  0  0
    1.1090   67.5110   68.5470 C   0  0  0  0  0  0  0  0  0  0  0  0
    3.2957   63.6519   72.8279 H   0  0  0  0  0  0  0  0  0  0  0  0
    4.0213   63.3968   70.5626 H   0  0  0  0  0  0  0  0  0  0  0  0
    2.4786   62.5930   70.0780 H   0  0  0  0  0  0  0  0  0  0  0  0
    2.7211   65.5048   70.9632 H   0  0  0  0  0  0  0  0  0  0  0  0
    2.6701   64.9469   69.2524 H   0  0  0  0  0  0  0  0  0  0  0  0
    0.5331   64.2837   69.4393 H   0  0  0  0  0  0  0  0  0  0  0  0
   -0.7052   64.0611   71.6886 H   0  0  0  0  0  0  0  0  0  0  0  0
    0.1884   62.7152   70.8808 H   0  0  0  0  0  0  0  0  0  0  0  0
    1.2938   64.5742   73.0293 H   0  0  0  0  0  0  0  0  0  0  0  0
    0.7606   62.8466   73.2425 H   0  0  0  0  0  0  0  0  0  0  0  0
    3.8924   61.3564   72.1969 H   0  0  0  0  0  0  0  0  0  0  0  0
    2.6344   61.4669   73.5497 H   0  0  0  0  0  0  0  0  0  0  0  0
    1.2400   61.1514   71.1233 H   0  0  0  0  0  0  0  0  0  0  0  0
    2.5916   59.9187   71.1771 H   0  0  0  0  0  0  0  0  0  0  0  0
   -3.0889   61.5500   73.8686 H   0  0  0  0  0  0  0  0  0  0  0  0
   -0.9684   61.8690   72.5661 H   0  0  0  0  0  0  0  0  0  0  0  0
   -1.6800   57.7049   75.3396 H   0  0  0  0  0  0  0  0  0  0  0  0
   -0.7245   66.0071   70.9341 H   0  0  0  0  0  0  0  0  0  0  0  0
    0.9643   66.6868   71.0202 H   0  0  0  0  0  0  0  0  0  0  0  0
   -1.9366   65.9824   68.8070 H   0  0  0  0  0  0  0  0  0  0  0  0
   -2.2076   67.0466   66.5711 H   0  0  0  0  0  0  0  0  0  0  0  0
   -0.3575   68.4008   65.5979 H   0  0  0  0  0  0  0  0  0  0  0  0
    1.7648   68.7083   66.8664 H   0  0  0  0  0  0  0  0  0  0  0  0
    2.0474   67.6512   69.1036 H   0  0  0  0  0  0  0  0  0  0  0  0
  2  1  1  0
  3  2  1  0
  4  3  1  0
  5  4  1  0
  6  5  1  0
  6  1  1  0
  7  1  1  0
  8  7  1  0
 10  9  2  0
 11 10  1  0
 12 11  2  0
 13 12  1  0
 14  9  1  0
 14 13  2  0
 15 13  1  0
 16 15  1  0
 17 12  1  0
 17 16  2  0
 17  8  1  0
 19 18  3  0
 19  9  1  0
 20  4  1  0
 21 20  1  0
 22 21  2  0
 23 22  1  0
 24 23  2  0
 25 24  1  0
 26 25  2  0
 26 21  1  0
  1 27  1  0
  2 28  1  0
  2 29  1  0
  3 30  1  0
  3 31  1  0
  4 32  1  0
  5 33  1  0
  5 34  1  0
  6 35  1  0
  6 36  1  0
  7 37  1  0
  7 38  1  0
  8 39  1  0
  8 40  1  0
 10 41  1  0
 11 42  1  0
 14 43  1  0
 20 44  1  0
 20 45  1  0
 22 46  1  0
 23 47  1  0
 24 48  1  0
 25 49  1  0
 26 50  1  0
M  CHG  1   4   1
M  END
>  <score>  (7) 
-8.414

$$$$
=
     RDKit          3D

 50 53  0  0  0  0  0  0  0  0999 V2000
    1.6740   62.9850   70.2420 C   0  0  0  0  0  0  0  0  0  0  0  0
    3.0140   63.7440   70.1880 C   0  0  0  0  0  0  0  0  0  0  0  0
    4.1680   62.8260   70.5540 C   0  0  0  0  0  0  0  0  0  0  0  0
    4.0430   62.3860   71.9960 N   0  0  0  0  0  4  0  0  0  0  0  0
    2.6220   62.3410   72.5190 C   0  0  0  0  0  0  0  0  0  0  0  0
    1.6490   61.9770   71.4090 C   0  0  0  0  0  0  0  0  0  0  0  0
    0.5010   63.9920   70.2500 C   0  0  0  0  0  0  0  0  0  0  0  0
    0.8080   65.3970   70.7920 C   0  0  0  0  0  0  0  0  0  0  0  0
   -1.6780   68.0410   66.7820 C   0  0  0  0  0  0  0  0  0  0  0  0
   -2.2380   66.9640   67.4870 C   0  0  0  0  0  0  0  0  0  0  0  0
   -1.5330   66.3220   68.5180 C   0  0  0  0  0  0  0  0  0  0  0  0
   -0.2460   66.7860   68.8330 C   0  0  0  0  0  0  0  0  0  0  0  0
    0.2740   67.8500   68.1160 C   0  0  0  0  0  0  0  0  0  0  0  0
   -0.3920   68.5110   67.0880 C   0  0  0  0  0  0  0  0  0  0  0  0
    1.5200   68.1380   68.5780 O   0  0  0  0  0  0  0  0  0  0  0  0
    1.8470   67.2700   69.6070 N   0  0  0  0  0  0  0  0  0  0  0  0
    0.7860   66.4630   69.7530 C   0  0  0  0  0  0  0  0  0  0  0  0
   -3.0360   69.1820   64.8890 N   0  0  0  0  0  0  0  0  0  0  0  0
   -2.4300   68.6750   65.7380 C   0  0  0  0  0  0  0  0  0  0  0  0
    4.8280   61.1130   72.2510 C   0  0  0  0  0  0  0  0  0  0  0  0
    3.9750   59.8750   72.1850 C   0  0  0  0  0  0  0  0  0  0  0  0
    3.3380   59.3840   73.3340 C   0  0  0  0  0  0  0  0  0  0  0  0
    2.5660   58.2230   73.2720 C   0  0  0  0  0  0  0  0  0  0  0  0
    2.4190   57.5440   72.0650 C   0  0  0  0  0  0  0  0  0  0  0  0
    3.0390   58.0270   70.9150 C   0  0  0  0  0  0  0  0  0  0  0  0
    3.8120   59.1870   70.9710 C   0  0  0  0  0  0  0  0  0  0  0  0
    1.5560   62.3734   69.3354 H   0  0  0  0  0  0  0  0  0  0  0  0
    3.1691   64.1302   69.1698 H   0  0  0  0  0  0  0  0  0  0  0  0
    2.9796   64.5729   70.9103 H   0  0  0  0  0  0  0  0  0  0  0  0
    4.1508   61.9413   69.9006 H   0  0  0  0  0  0  0  0  0  0  0  0
    5.1159   63.3685   70.4233 H   0  0  0  0  0  0  0  0  0  0  0  0
    4.4776   63.1291   72.5616 H   0  0  0  0  0  0  0  0  0  0  0  0
    2.5556   61.5879   73.3180 H   0  0  0  0  0  0  0  0  0  0  0  0
    2.3577   63.3357   72.9071 H   0  0  0  0  0  0  0  0  0  0  0  0
    1.9139   60.9824   71.0208 H   0  0  0  0  0  0  0  0  0  0  0  0
    0.6360   61.9896   71.8375 H   0  0  0  0  0  0  0  0  0  0  0  0
    0.1486   64.1030   69.2139 H   0  0  0  0  0  0  0  0  0  0  0  0
   -0.2419   63.5686   70.9420 H   0  0  0  0  0  0  0  0  0  0  0  0
    0.0580   65.6443   71.5577 H   0  0  0  0  0  0  0  0  0  0  0  0
    1.8305   65.3666   71.1964 H   0  0  0  0  0  0  0  0  0  0  0  0
   -3.2486   66.6162   67.2268 H   0  0  0  0  0  0  0  0  0  0  0  0
   -1.9777   65.4774   69.0646 H   0  0  0  0  0  0  0  0  0  0  0  0
    0.0636   69.3533   66.5467 H   0  0  0  0  0  0  0  0  0  0  0  0
    5.6220   61.0328   71.4939 H   0  0  0  0  0  0  0  0  0  0  0  0
    5.2382   61.1770   73.2697 H   0  0  0  0  0  0  0  0  0  0  0  0
    3.4475   59.9172   74.2899 H   0  0  0  0  0  0  0  0  0  0  0  0
    2.0724   57.8433   74.1787 H   0  0  0  0  0  0  0  0  0  0  0  0
    1.8136   56.6267   72.0198 H   0  0  0  0  0  0  0  0  0  0  0  0
    2.9189   57.4928   69.9609 H   0  0  0  0  0  0  0  0  0  0  0  0
    4.2969   59.5653   70.0590 H   0  0  0  0  0  0  0  0  0  0  0  0
  2  1  1  0
  3  2  1  0
  4  3  1  0
  5  4  1  0
  6  5  1  0
  6  1  1  0
  7  1  1  0
  8  7  1  0
 10  9  2  0
 11 10  1  0
 12 11  2  0
 13 12  1  0
 14  9  1  0
 14 13  2  0
 15 13  1  0
 16 15  1  0
 17 12  1  0
 17 16  2  0
 17  8  1  0
 19 18  3  0
 19  9  1  0
 20  4  1  0
 21 20  1  0
 22 21  2  0
 23 22  1  0
 24 23  2  0
 25 24  1  0
 26 25  2  0
 26 21  1  0
  1 27  1  0
  2 28  1  0
  2 29  1  0
  3 30  1  0
  3 31  1  0
  4 32  1  0
  5 33  1  0
  5 34  1  0
  6 35  1  0
  6 36  1  0
  7 37  1  0
  7 38  1  0
  8 39  1  0
  8 40  1  0
 10 41  1  0
 11 42  1  0
 14 43  1  0
 20 44  1  0
 20 45  1  0
 22 46  1  0
 23 47  1  0
 24 48  1  0
 25 49  1  0
 26 50  1  0
M  CHG  1   4   1
M  END
>  <score>  (8) 
-8.326

$$$$
=
     RDKit          3D

 50 53  0  0  0  0  0  0  0  0999 V2000
   -0.0860   66.5490   69.5530 C   0  0  0  0  0  0  0  0  0  0  0  0
    1.3910   66.9120   69.3000 C   0  0  0  0  0  0  0  0  0  0  0  0
    1.4990   68.1150   68.3780 C   0  0  0  0  0  0  0  0  0  0  0  0
    0.9570   67.7690   67.0090 N   0  0  0  0  0  4  0  0  0  0  0  0
   -0.1120   66.6950   67.0080 C   0  0  0  0  0  0  0  0  0  0  0  0
   -0.9370   66.7530   68.2840 C   0  0  0  0  0  0  0  0  0  0  0  0
   -0.1790   65.1290   70.1570 C   0  0  0  0  0  0  0  0  0  0  0  0
    0.6240   64.8770   71.4430 C   0  0  0  0  0  0  0  0  0  0  0  0
    1.5950   59.6590   72.4810 C   0  0  0  0  0  0  0  0  0  0  0  0
    0.4130   60.3290   72.8330 C   0  0  0  0  0  0  0  0  0  0  0  0
    0.2290   61.6890   72.5330 C   0  0  0  0  0  0  0  0  0  0  0  0
    1.2600   62.3680   71.8650 C   0  0  0  0  0  0  0  0  0  0  0  0
    2.4110   61.6740   71.5330 C   0  0  0  0  0  0  0  0  0  0  0  0
    2.6310   60.3280   71.8140 C   0  0  0  0  0  0  0  0  0  0  0  0
    3.2740   62.5100   70.8970 O   0  0  0  0  0  0  0  0  0  0  0  0
    2.7100   63.7720   70.7970 N   0  0  0  0  0  0  0  0  0  0  0  0
    1.5060   63.6790   71.3790 C   0  0  0  0  0  0  0  0  0  0  0  0
    1.8740   57.1440   73.0570 N   0  0  0  0  0  0  0  0  0  0  0  0
    1.7450   58.2680   72.8000 C   0  0  0  0  0  0  0  0  0  0  0  0
    0.5660   69.0180   66.2420 C   0  0  0  0  0  0  0  0  0  0  0  0
    0.9090   68.9390   64.7790 C   0  0  0  0  0  0  0  0  0  0  0  0
    2.2350   68.7460   64.3650 C   0  0  0  0  0  0  0  0  0  0  0  0
    2.5510   68.6950   63.0060 C   0  0  0  0  0  0  0  0  0  0  0  0
    1.5480   68.8330   62.0500 C   0  0  0  0  0  0  0  0  0  0  0  0
    0.2260   69.0170   62.4480 C   0  0  0  0  0  0  0  0  0  0  0  0
   -0.0950   69.0690   63.8040 C   0  0  0  0  0  0  0  0  0  0  0  0
   -0.5169   67.2355   70.2966 H   0  0  0  0  0  0  0  0  0  0  0  0
    1.8741   67.1482   70.2596 H   0  0  0  0  0  0  0  0  0  0  0  0
    1.8886   66.0551   68.8224 H   0  0  0  0  0  0  0  0  0  0  0  0
    0.9191   68.9496   68.7989 H   0  0  0  0  0  0  0  0  0  0  0  0
    2.5562   68.4043   68.2848 H   0  0  0  0  0  0  0  0  0  0  0  0
    1.7340   67.3279   66.4966 H   0  0  0  0  0  0  0  0  0  0  0  0
   -0.7745   66.8464   66.1430 H   0  0  0  0  0  0  0  0  0  0  0  0
    0.3766   65.7113   66.9485 H   0  0  0  0  0  0  0  0  0  0  0  0
   -1.4257   67.7367   68.3425 H   0  0  0  0  0  0  0  0  0  0  0  0
   -1.6716   65.9353   68.2419 H   0  0  0  0  0  0  0  0  0  0  0  0
   -1.2376   64.9291   70.3794 H   0  0  0  0  0  0  0  0  0  0  0  0
    0.2631   64.4620   69.4022 H   0  0  0  0  0  0  0  0  0  0  0  0
    1.2517   65.7591   71.6378 H   0  0  0  0  0  0  0  0  0  0  0  0
   -0.1066   64.6930   72.2445 H   0  0  0  0  0  0  0  0  0  0  0  0
   -0.3845   59.7787   73.3537 H   0  0  0  0  0  0  0  0  0  0  0  0
   -0.6990   62.2083   72.8143 H   0  0  0  0  0  0  0  0  0  0  0  0
    3.5636   59.8191   71.5291 H   0  0  0  0  0  0  0  0  0  0  0  0
   -0.5197   69.1647   66.3404 H   0  0  0  0  0  0  0  0  0  0  0  0
    1.1333   69.8582   66.6688 H   0  0  0  0  0  0  0  0  0  0  0  0
    3.0311   68.6341   65.1158 H   0  0  0  0  0  0  0  0  0  0  0  0
    3.5940   68.5456   62.6900 H   0  0  0  0  0  0  0  0  0  0  0  0
    1.7999   68.7967   60.9798 H   0  0  0  0  0  0  0  0  0  0  0  0
   -0.5659   69.1214   61.6917 H   0  0  0  0  0  0  0  0  0  0  0  0
   -1.1410   69.2127   64.1127 H   0  0  0  0  0  0  0  0  0  0  0  0
  2  1  1  0
  3  2  1  0
  4  3  1  0
  5  4  1  0
  6  5  1  0
  6  1  1  0
  7  1  1  0
  8  7  1  0
 10  9  2  0
 11 10  1  0
 12 11  2  0
 13 12  1  0
 14  9  1  0
 14 13  2  0
 15 13  1  0
 16 15  1  0
 17 12  1  0
 17 16  2  0
 17  8  1  0
 19 18  3  0
 19  9  1  0
 20  4  1  0
 21 20  1  0
 22 21  2  0
 23 22  1  0
 24 23  2  0
 25 24  1  0
 26 25  2  0
 26 21  1  0
  1 27  1  0
  2 28  1  0
  2 29  1  0
  3 30  1  0
  3 31  1  0
  4 32  1  0
  5 33  1  0
  5 34  1  0
  6 35  1  0
  6 36  1  0
  7 37  1  0
  7 38  1  0
  8 39  1  0
  8 40  1  0
 10 41  1  0
 11 42  1  0
 14 43  1  0
 20 44  1  0
 20 45  1  0
 22 46  1  0
 23 47  1  0
 24 48  1  0
 25 49  1  0
 26 50  1  0
M  CHG  1   4   1
M  END
>  <score>  (9) 
-8.226

$$$$
