=
     RDKit          3D

 87 89  0  0  0  0  0  0  0  0999 V2000
    2.6730   60.0670   71.6650 C   0  0  2  0  0  0  0  0  0  0  0  0
    2.9560   58.8540   70.7590 C   0  0  0  0  0  0  0  0  0  0  0  0
    3.1050   57.6060   71.6130 C   0  0  1  0  0  0  0  0  0  0  0  0
    1.7880   57.2760   72.3330 C   0  0  2  0  0  0  0  0  0  0  0  0
    1.3440   58.4710   73.2150 C   0  0  1  0  0  0  0  0  0  0  0  0
    1.3740   59.8640   72.5090 C   0  0  1  0  0  0  0  0  0  0  0  0
    3.7760   62.0290   70.6090 C   0  0  0  0  0  0  0  0  0  0  0  0
    4.8950   61.5530   70.7800 O   0  0  0  0  0  0  0  0  0  0  0  0
    2.6150   61.3260   70.8940 N   0  0  0  0  0  0  0  0  0  0  0  0
    3.5850   63.4670   70.0660 C   0  0  1  0  0  0  0  0  0  0  0  0
    3.0430   63.4820   68.7450 O   0  0  0  0  0  0  0  0  0  0  0  0
    2.6480   64.2780   70.9740 C   0  0  0  0  0  0  0  0  0  0  0  0
    1.5430   65.0300   70.2220 C   0  0  0  0  0  0  0  0  0  0  0  0
    0.3580   64.1640   70.0300 N   0  0  0  0  0  4  0  0  0  0  0  0
    3.5140   56.4380   70.7720 N   0  0  0  0  0  4  0  0  0  0  0  0
    0.0210   58.1780   73.6860 O   0  0  0  0  0  0  0  0  0  0  0  0
    2.0600   56.0920   73.1140 O   0  0  0  0  0  0  0  0  0  0  0  0
    1.4170   56.0330   74.4040 C   0  0  1  0  0  0  0  0  0  0  0  0
    0.3780   55.0320   74.3030 O   0  0  0  0  0  0  0  0  0  0  0  0
    0.1670   54.2550   75.5040 C   0  0  1  0  0  0  0  0  0  0  0  0
    0.3570   55.1240   76.7550 C   0  0  2  0  0  0  0  0  0  0  0  0
    1.8280   55.5620   76.8640 C   0  0  1  0  0  0  0  0  0  0  0  0
    2.4810   55.7170   75.4830 C   0  0  1  0  0  0  0  0  0  0  0  0
   -0.0550   54.4220   77.9360 O   0  0  0  0  0  0  0  0  0  0  0  0
    1.8380   56.8060   77.5680 O   0  0  0  0  0  0  0  0  0  0  0  0
    3.1380   54.4810   75.1560 O   0  0  0  0  0  0  0  0  0  0  0  0
   -1.2340   53.6030   75.4710 C   0  0  0  0  0  0  0  0  0  0  0  0
   -1.4050   52.7160   74.2930 N   0  0  0  0  0  4  0  0  0  0  0  0
    1.3440   60.9860   73.4330 O   0  0  0  0  0  0  0  0  0  0  0  0
    0.1060   61.2170   74.1190 C   0  0  1  0  0  0  0  0  0  0  0  0
    0.2910   61.1590   75.5320 O   0  0  0  0  0  0  0  0  0  0  0  0
    1.1620   62.1650   76.0700 C   0  0  1  0  0  0  0  0  0  0  0  0
    0.6320   63.5760   75.7600 C   0  0  2  0  0  0  0  0  0  0  0  0
    0.4090   63.7020   74.2560 C   0  0  1  0  0  0  0  0  0  0  0  0
   -0.4990   62.5940   73.7270 C   0  0  1  0  0  0  0  0  0  0  0  0
   -0.1630   65.0640   73.9680 N   0  0  0  0  0  4  0  0  0  0  0  0
   -0.6420   62.7520   72.3090 O   0  0  0  0  0  0  0  0  0  0  0  0
    1.5310   64.6230   76.1250 O   0  0  0  0  0  0  0  0  0  0  0  0
    1.2850   61.9490   77.5860 C   0  0  0  0  0  0  0  0  0  0  0  0
    2.4770   62.5630   78.0570 O   0  0  0  0  0  0  0  0  0  0  0  0
    3.5174   60.1473   72.3654 H   0  0  0  0  0  0  0  0  0  0  0  0
    2.1210   58.7192   70.0557 H   0  0  0  0  0  0  0  0  0  0  0  0
    3.8857   59.0260   70.1968 H   0  0  0  0  0  0  0  0  0  0  0  0
    3.8848   57.8051   72.3629 H   0  0  0  0  0  0  0  0  0  0  0  0
    0.9592   57.0949   71.6327 H   0  0  0  0  0  0  0  0  0  0  0  0
    2.0725   58.5694   74.0333 H   0  0  0  0  0  0  0  0  0  0  0  0
    0.4693   59.8527   71.8834 H   0  0  0  0  0  0  0  0  0  0  0  0
    1.7065   61.6839   70.5661 H   0  0  0  0  0  0  0  0  0  0  0  0
    4.5879   63.9185   70.0469 H   0  0  0  0  0  0  0  0  0  0  0  0
    2.0546   63.5094   68.7941 H   0  0  0  0  0  0  0  0  0  0  0  0
    2.1727   63.5866   71.6854 H   0  0  0  0  0  0  0  0  0  0  0  0
    3.2680   65.0390   71.4706 H   0  0  0  0  0  0  0  0  0  0  0  0
    1.2512   65.9178   70.8022 H   0  0  0  0  0  0  0  0  0  0  0  0
    1.9267   65.3281   69.2351 H   0  0  0  0  0  0  0  0  0  0  0  0
   -0.0186   63.8888   70.9484 H   0  0  0  0  0  0  0  0  0  0  0  0
   -0.3622   64.6793   69.5040 H   0  0  0  0  0  0  0  0  0  0  0  0
    0.6302   63.3213   69.5040 H   0  0  0  0  0  0  0  0  0  0  0  0
    3.7882   55.6548   71.3822 H   0  0  0  0  0  0  0  0  0  0  0  0
    2.7239   56.1496   70.1774 H   0  0  0  0  0  0  0  0  0  0  0  0
    4.3114   56.7055   70.1774 H   0  0  0  0  0  0  0  0  0  0  0  0
    0.0159   58.1769   74.6760 H   0  0  0  0  0  0  0  0  0  0  0  0
    0.9550   56.9859   74.7015 H   0  0  0  0  0  0  0  0  0  0  0  0
    0.9173   53.4518   75.5476 H   0  0  0  0  0  0  0  0  0  0  0  0
   -0.2758   56.0191   76.6630 H   0  0  0  0  0  0  0  0  0  0  0  0
    2.4118   54.7967   77.3965 H   0  0  0  0  0  0  0  0  0  0  0  0
    3.2011   56.5481   75.5106 H   0  0  0  0  0  0  0  0  0  0  0  0
    0.2392   54.9233   78.7374 H   0  0  0  0  0  0  0  0  0  0  0  0
    1.8366   56.6335   78.5429 H   0  0  0  0  0  0  0  0  0  0  0  0
    3.3885   54.0098   75.9898 H   0  0  0  0  0  0  0  0  0  0  0  0
   -1.3711   53.0087   76.3864 H   0  0  0  0  0  0  0  0  0  0  0  0
   -1.9821   54.4066   75.4037 H   0  0  0  0  0  0  0  0  0  0  0  0
   -1.5904   51.7542   74.6115 H   0  0  0  0  0  0  0  0  0  0  0  0
   -2.1974   53.0484   73.7251 H   0  0  0  0  0  0  0  0  0  0  0  0
   -0.5458   52.7300   73.7251 H   0  0  0  0  0  0  0  0  0  0  0  0
   -0.5939   60.4238   73.8174 H   0  0  0  0  0  0  0  0  0  0  0  0
    2.1540   62.0791   75.6025 H   0  0  0  0  0  0  0  0  0  0  0  0
   -0.2903   63.6884   76.3488 H   0  0  0  0  0  0  0  0  0  0  0  0
    1.3715   63.5895   73.7355 H   0  0  0  0  0  0  0  0  0  0  0  0
   -1.5040   62.6510   74.1706 H   0  0  0  0  0  0  0  0  0  0  0  0
   -0.3654   65.5460   74.8555 H   0  0  0  0  0  0  0  0  0  0  0  0
    0.5179   65.6147   73.4257 H   0  0  0  0  0  0  0  0  0  0  0  0
   -1.0329   64.9634   73.4257 H   0  0  0  0  0  0  0  0  0  0  0  0
   -1.2943   63.4727   72.1214 H   0  0  0  0  0  0  0  0  0  0  0  0
    1.5834   64.6840   77.1117 H   0  0  0  0  0  0  0  0  0  0  0  0
    0.4171   62.3973   78.0918 H   0  0  0  0  0  0  0  0  0  0  0  0
    1.3183   60.8708   77.8011 H   0  0  0  0  0  0  0  0  0  0  0  0
    2.4788   62.5639   79.0470 H   0  0  0  0  0  0  0  0  0  0  0  0
  2  1  1  0
  3  2  1  0
  4  3  1  0
  5  4  1  0
  6  5  1  0
  6  1  1  0
  8  7  2  0
  9  7  1  0
  9  1  1  0
 10  7  1  0
 11 10  1  0
 12 10  1  0
 13 12  1  0
 14 13  1  0
 15  3  1  0
 16  5  1  0
 17  4  1  0
 18 17  1  0
 19 18  1  0
 20 19  1  0
 21 20  1  0
 22 21  1  0
 23 18  1  0
 23 22  1  0
 24 21  1  0
 25 22  1  0
 26 23  1  0
 27 20  1  0
 28 27  1  0
 29  6  1  0
 30 29  1  0
 31 30  1  0
 32 31  1  0
 33 32  1  0
 34 33  1  0
 35 34  1  0
 35 30  1  0
 36 34  1  0
 37 35  1  0
 38 33  1  0
 39 32  1  0
 40 39  1  0
  1 41  1  1
  2 42  1  0
  2 43  1  0
  3 44  1  1
  4 45  1  6
  5 46  1  1
  6 47  1  6
  9 48  1  0
 10 49  1  6
 11 50  1  0
 12 51  1  0
 12 52  1  0
 13 53  1  0
 13 54  1  0
 14 55  1  0
 14 56  1  0
 14 57  1  0
 15 58  1  0
 15 59  1  0
 15 60  1  0
 16 61  1  0
 18 62  1  1
 20 63  1  1
 21 64  1  6
 22 65  1  1
 23 66  1  1
 24 67  1  0
 25 68  1  0
 26 69  1  0
 27 70  1  0
 27 71  1  0
 28 72  1  0
 28 73  1  0
 28 74  1  0
 30 75  1  6
 32 76  1  6
 33 77  1  1
 34 78  1  6
 35 79  1  1
 36 80  1  0
 36 81  1  0
 36 82  1  0
 37 83  1  0
 38 84  1  0
 39 85  1  0
 39 86  1  0
 40 87  1  0
M  CHG  4  14   1  15   1  28   1  36   1
M  END
>  <score>  (1) 
-7.077

$$$$
=
     RDKit          3D

 87 89  0  0  0  0  0  0  0  0999 V2000
    2.6070   57.7340   72.5440 C   0  0  2  0  0  0  0  0  0  0  0  0
    3.1290   57.8130   71.0960 C   0  0  0  0  0  0  0  0  0  0  0  0
    2.9960   59.2370   70.5850 C   0  0  1  0  0  0  0  0  0  0  0  0
    3.8910   60.1930   71.3910 C   0  0  2  0  0  0  0  0  0  0  0  0
    3.5200   60.1340   72.8950 C   0  0  1  0  0  0  0  0  0  0  0  0
    3.3940   58.6960   73.4920 C   0  0  1  0  0  0  0  0  0  0  0  0
    1.5000   55.8140   73.6700 C   0  0  0  0  0  0  0  0  0  0  0  0
    0.4010   56.3590   73.6220 O   0  0  0  0  0  0  0  0  0  0  0  0
    2.6240   56.3490   73.0580 N   0  0  0  0  0  0  0  0  0  0  0  0
    1.7100   54.4830   74.4330 C   0  0  1  0  0  0  0  0  0  0  0  0
    2.9710   54.4330   75.1030 O   0  0  0  0  0  0  0  0  0  0  0  0
    0.6060   54.2670   75.4790 C   0  0  0  0  0  0  0  0  0  0  0  0
    0.5350   52.8380   76.0290 C   0  0  0  0  0  0  0  0  0  0  0  0
    1.5350   52.6410   77.1040 N   0  0  0  0  0  4  0  0  0  0  0  0
    3.3690   59.3140   69.1380 N   0  0  0  0  0  4  0  0  0  0  0  0
    4.5190   60.8820   73.6040 O   0  0  0  0  0  0  0  0  0  0  0  0
    3.6660   61.5030   70.8240 O   0  0  0  0  0  0  0  0  0  0  0  0
    2.4020   62.1160   71.1510 C   0  0  1  0  0  0  0  0  0  0  0  0
    2.3960   62.3130   72.5830 O   0  0  0  0  0  0  0  0  0  0  0  0
    1.7240   63.5150   73.0260 C   0  0  1  0  0  0  0  0  0  0  0  0
    0.5020   63.8110   72.1460 C   0  0  2  0  0  0  0  0  0  0  0  0
    0.9600   64.1600   70.7200 C   0  0  1  0  0  0  0  0  0  0  0  0
    2.2560   63.4290   70.3420 C   0  0  1  0  0  0  0  0  0  0  0  0
   -0.2880   64.8720   72.7030 O   0  0  0  0  0  0  0  0  0  0  0  0
   -0.1040   63.7870   69.8400 O   0  0  0  0  0  0  0  0  0  0  0  0
    3.3640   64.2960   70.6380 O   0  0  0  0  0  0  0  0  0  0  0  0
    1.3350   63.3840   74.5160 C   0  0  0  0  0  0  0  0  0  0  0  0
    1.9520   62.1900   75.1470 N   0  0  0  0  0  4  0  0  0  0  0  0
    2.6780   58.6510   74.7550 O   0  0  0  0  0  0  0  0  0  0  0  0
    3.4480   58.9070   75.9370 C   0  0  1  0  0  0  0  0  0  0  0  0
    2.7580   59.8000   76.8090 O   0  0  0  0  0  0  0  0  0  0  0  0
    1.5150   59.3020   77.3250 C   0  0  1  0  0  0  0  0  0  0  0  0
    1.7270   58.0020   78.1180 C   0  0  2  0  0  0  0  0  0  0  0  0
    2.4670   57.0000   77.2370 C   0  0  1  0  0  0  0  0  0  0  0  0
    3.7680   57.5840   76.6900 C   0  0  1  0  0  0  0  0  0  0  0  0
    2.7220   55.7520   78.0380 N   0  0  0  0  0  4  0  0  0  0  0  0
    4.3960   56.6070   75.8490 O   0  0  0  0  0  0  0  0  0  0  0  0
    0.5140   57.3670   78.5210 O   0  0  0  0  0  0  0  0  0  0  0  0
    0.8820   60.3850   78.2120 C   0  0  0  0  0  0  0  0  0  0  0  0
    0.1080   61.2650   77.4080 O   0  0  0  0  0  0  0  0  0  0  0  0
    1.5586   58.0666   72.5257 H   0  0  0  0  0  0  0  0  0  0  0  0
    4.1867   57.5121   71.0710 H   0  0  0  0  0  0  0  0  0  0  0  0
    2.5398   57.1385   70.4573 H   0  0  0  0  0  0  0  0  0  0  0  0
    1.9454   59.5394   70.7067 H   0  0  0  0  0  0  0  0  0  0  0  0
    4.9560   59.9240   71.3325 H   0  0  0  0  0  0  0  0  0  0  0  0
    2.5120   60.5602   73.0059 H   0  0  0  0  0  0  0  0  0  0  0  0
    4.4397   58.3829   73.6280 H   0  0  0  0  0  0  0  0  0  0  0  0
    3.4754   55.7774   72.9614 H   0  0  0  0  0  0  0  0  0  0  0  0
    1.6773   53.6901   73.6712 H   0  0  0  0  0  0  0  0  0  0  0  0
    2.8249   54.4388   76.0821 H   0  0  0  0  0  0  0  0  0  0  0  0
    0.7884   54.9521   76.3201 H   0  0  0  0  0  0  0  0  0  0  0  0
   -0.3517   54.4599   74.9734 H   0  0  0  0  0  0  0  0  0  0  0  0
   -0.4714   52.6565   76.4342 H   0  0  0  0  0  0  0  0  0  0  0  0
    0.7500   52.1333   75.2122 H   0  0  0  0  0  0  0  0  0  0  0  0
    1.0753   52.7316   78.0213 H   0  0  0  0  0  0  0  0  0  0  0  0
    1.9499   51.7021   77.0191 H   0  0  0  0  0  0  0  0  0  0  0  0
    2.2750   53.3524   77.0191 H   0  0  0  0  0  0  0  0  0  0  0  0
    4.3743   59.5215   69.0532 H   0  0  0  0  0  0  0  0  0  0  0  0
    3.1648   58.4131   68.6824 H   0  0  0  0  0  0  0  0  0  0  0  0
    2.8247   60.0604   68.6824 H   0  0  0  0  0  0  0  0  0  0  0  0
    4.3796   60.7776   74.5786 H   0  0  0  0  0  0  0  0  0  0  0  0
    1.5358   61.4937   70.8819 H   0  0  0  0  0  0  0  0  0  0  0  0
    2.4120   64.3675   72.9264 H   0  0  0  0  0  0  0  0  0  0  0  0
   -0.1302   62.9117   72.1062 H   0  0  0  0  0  0  0  0  0  0  0  0
    1.1804   65.2352   70.6466 H   0  0  0  0  0  0  0  0  0  0  0  0
    2.2332   63.1746   69.2721 H   0  0  0  0  0  0  0  0  0  0  0  0
   -0.2533   64.8254   73.6913 H   0  0  0  0  0  0  0  0  0  0  0  0
   -0.8914   63.5110   70.3728 H   0  0  0  0  0  0  0  0  0  0  0  0
    3.4670   64.3766   71.6193 H   0  0  0  0  0  0  0  0  0  0  0  0
    1.6722   64.2835   75.0519 H   0  0  0  0  0  0  0  0  0  0  0  0
    0.2421   63.2736   74.5743 H   0  0  0  0  0  0  0  0  0  0  0  0
    1.9052   62.2805   76.1719 H   0  0  0  0  0  0  0  0  0  0  0  0
    1.4423   61.3445   74.8534 H   0  0  0  0  0  0  0  0  0  0  0  0
    2.9365   62.1167   74.8534 H   0  0  0  0  0  0  0  0  0  0  0  0
    4.3930   59.3741   75.6227 H   0  0  0  0  0  0  0  0  0  0  0  0
    0.8401   59.0667   76.4888 H   0  0  0  0  0  0  0  0  0  0  0  0
    2.2868   58.2872   79.0209 H   0  0  0  0  0  0  0  0  0  0  0  0
    1.8440   56.7564   76.3638 H   0  0  0  0  0  0  0  0  0  0  0  0
    4.4721   57.8263   77.4997 H   0  0  0  0  0  0  0  0  0  0  0  0
    2.6767   55.9737   79.0428 H   0  0  0  0  0  0  0  0  0  0  0  0
    2.0080   55.0456   77.8097 H   0  0  0  0  0  0  0  0  0  0  0  0
    3.6559   55.3824   77.8097 H   0  0  0  0  0  0  0  0  0  0  0  0
    4.8365   55.9217   76.4115 H   0  0  0  0  0  0  0  0  0  0  0  0
    0.4670   57.3424   79.5096 H   0  0  0  0  0  0  0  0  0  0  0  0
    0.2343   59.9104   78.9638 H   0  0  0  0  0  0  0  0  0  0  0  0
    1.6759   60.9541   78.7178 H   0  0  0  0  0  0  0  0  0  0  0  0
   -0.4204   61.8658   77.9910 H   0  0  0  0  0  0  0  0  0  0  0  0
  2  1  1  0
  3  2  1  0
  4  3  1  0
  5  4  1  0
  6  5  1  0
  6  1  1  0
  8  7  2  0
  9  7  1  0
  9  1  1  0
 10  7  1  0
 11 10  1  0
 12 10  1  0
 13 12  1  0
 14 13  1  0
 15  3  1  0
 16  5  1  0
 17  4  1  0
 18 17  1  0
 19 18  1  0
 20 19  1  0
 21 20  1  0
 22 21  1  0
 23 18  1  0
 23 22  1  0
 24 21  1  0
 25 22  1  0
 26 23  1  0
 27 20  1  0
 28 27  1  0
 29  6  1  0
 30 29  1  0
 31 30  1  0
 32 31  1  0
 33 32  1  0
 34 33  1  0
 35 34  1  0
 35 30  1  0
 36 34  1  0
 37 35  1  0
 38 33  1  0
 39 32  1  0
 40 39  1  0
  1 41  1  6
  2 42  1  0
  2 43  1  0
  3 44  1  6
  4 45  1  1
  5 46  1  6
  6 47  1  1
  9 48  1  0
 10 49  1  6
 11 50  1  0
 12 51  1  0
 12 52  1  0
 13 53  1  0
 13 54  1  0
 14 55  1  0
 14 56  1  0
 14 57  1  0
 15 58  1  0
 15 59  1  0
 15 60  1  0
 16 61  1  0
 18 62  1  1
 20 63  1  1
 21 64  1  6
 22 65  1  1
 23 66  1  6
 24 67  1  0
 25 68  1  0
 26 69  1  0
 27 70  1  0
 27 71  1  0
 28 72  1  0
 28 73  1  0
 28 74  1  0
 30 75  1  6
 32 76  1  6
 33 77  1  1
 34 78  1  6
 35 79  1  1
 36 80  1  0
 36 81  1  0
 36 82  1  0
 37 83  1  0
 38 84  1  0
 39 85  1  0
 39 86  1  0
 40 87  1  0
M  CHG  4  14   1  15   1  28   1  36   1
M  END
>  <score>  (2) 
-7.039

$$$$
=
     RDKit          3D

 87 89  0  0  0  0  0  0  0  0999 V2000
    0.6850   62.4090   73.5030 C   0  0  2  0  0  0  0  0  0  0  0  0
    0.0330   63.4580   74.4230 C   0  0  0  0  0  0  0  0  0  0  0  0
   -1.0400   62.7950   75.2700 C   0  0  1  0  0  0  0  0  0  0  0  0
   -0.4230   61.7520   76.2160 C   0  0  2  0  0  0  0  0  0  0  0  0
    0.3480   60.6800   75.4040 C   0  0  1  0  0  0  0  0  0  0  0  0
    1.3250   61.2420   74.3220 C   0  0  1  0  0  0  0  0  0  0  0  0
    1.3490   63.2450   71.2570 C   0  0  0  0  0  0  0  0  0  0  0  0
    0.1990   63.1610   70.8340 O   0  0  0  0  0  0  0  0  0  0  0  0
    1.6710   63.0190   72.5870 N   0  0  0  0  0  0  0  0  0  0  0  0
    2.5300   63.6030   70.3230 C   0  0  1  0  0  0  0  0  0  0  0  0
    3.7890   63.5590   70.9960 O   0  0  0  0  0  0  0  0  0  0  0  0
    2.5960   62.6430   69.1260 C   0  0  0  0  0  0  0  0  0  0  0  0
    3.8760   62.7710   68.2900 C   0  0  0  0  0  0  0  0  0  0  0  0
    3.5830   63.3890   66.9760 N   0  0  0  0  0  4  0  0  0  0  0  0
   -1.7810   63.8150   76.0750 N   0  0  0  0  0  4  0  0  0  0  0  0
    1.0630   59.8700   76.3490 O   0  0  0  0  0  0  0  0  0  0  0  0
   -1.5340   61.1890   76.9470 O   0  0  0  0  0  0  0  0  0  0  0  0
   -2.3660   60.2710   76.2080 C   0  0  1  0  0  0  0  0  0  0  0  0
   -2.0000   58.9410   76.6390 O   0  0  0  0  0  0  0  0  0  0  0  0
   -3.0960   58.0000   76.7010 C   0  0  1  0  0  0  0  0  0  0  0  0
   -4.0950   58.2540   75.5640 C   0  0  2  0  0  0  0  0  0  0  0  0
   -4.7800   59.6170   75.7670 C   0  0  1  0  0  0  0  0  0  0  0  0
   -3.8530   60.6200   76.4680 C   0  0  1  0  0  0  0  0  0  0  0  0
   -5.0680   57.2010   75.4890 O   0  0  0  0  0  0  0  0  0  0  0  0
   -5.1470   60.0920   74.4700 O   0  0  0  0  0  0  0  0  0  0  0  0
   -4.1160   60.5640   77.8800 O   0  0  0  0  0  0  0  0  0  0  0  0
   -2.5530   56.5530   76.6700 C   0  0  0  0  0  0  0  0  0  0  0  0
   -2.2970   56.0870   75.2840 N   0  0  0  0  0  4  0  0  0  0  0  0
    1.7250   60.2580   73.3310 O   0  0  0  0  0  0  0  0  0  0  0  0
    2.9390   59.5420   73.5930 C   0  0  1  0  0  0  0  0  0  0  0  0
    2.8580   58.2070   73.0990 O   0  0  0  0  0  0  0  0  0  0  0  0
    2.7080   58.0970   71.6760 C   0  0  1  0  0  0  0  0  0  0  0  0
    3.8890   58.7580   70.9440 C   0  0  2  0  0  0  0  0  0  0  0  0
    4.0330   60.1960   71.4340 C   0  0  1  0  0  0  0  0  0  0  0  0
    4.1590   60.2630   72.9540 C   0  0  1  0  0  0  0  0  0  0  0  0
    5.2240   60.8170   70.7560 N   0  0  0  0  0  4  0  0  0  0  0  0
    4.2590   61.6380   73.3490 O   0  0  0  0  0  0  0  0  0  0  0  0
    3.7250   58.8270   69.5280 O   0  0  0  0  0  0  0  0  0  0  0  0
    2.6020   56.6100   71.3060 C   0  0  0  0  0  0  0  0  0  0  0  0
    3.7270   56.2330   70.5250 O   0  0  0  0  0  0  0  0  0  0  0  0
   -0.1191   61.9818   72.8859 H   0  0  0  0  0  0  0  0  0  0  0  0
    0.7992   63.8961   75.0795 H   0  0  0  0  0  0  0  0  0  0  0  0
   -0.4223   64.2497   73.8099 H   0  0  0  0  0  0  0  0  0  0  0  0
   -1.7408   62.2915   74.5878 H   0  0  0  0  0  0  0  0  0  0  0  0
    0.3116   62.1917   76.9067 H   0  0  0  0  0  0  0  0  0  0  0  0
   -0.3908   60.1054   74.8262 H   0  0  0  0  0  0  0  0  0  0  0  0
    2.1936   61.5740   74.9095 H   0  0  0  0  0  0  0  0  0  0  0  0
    2.6038   63.2781   72.9386 H   0  0  0  0  0  0  0  0  0  0  0  0
    2.3429   64.6315   69.9807 H   0  0  0  0  0  0  0  0  0  0  0  0
    3.6403   63.5642   71.9748 H   0  0  0  0  0  0  0  0  0  0  0  0
    2.5331   61.6126   69.5058 H   0  0  0  0  0  0  0  0  0  0  0  0
    1.7573   62.9038   68.4637 H   0  0  0  0  0  0  0  0  0  0  0  0
    4.5995   63.3986   68.8310 H   0  0  0  0  0  0  0  0  0  0  0  0
    4.2920   61.7664   68.1237 H   0  0  0  0  0  0  0  0  0  0  0  0
    3.1461   64.3106   67.1198 H   0  0  0  0  0  0  0  0  0  0  0  0
    4.4595   63.5033   66.4473 H   0  0  0  0  0  0  0  0  0  0  0  0
    2.9397   62.7828   66.4473 H   0  0  0  0  0  0  0  0  0  0  0  0
   -1.6439   63.6263   77.0782 H   0  0  0  0  0  0  0  0  0  0  0  0
   -1.4243   64.7548   75.8505 H   0  0  0  0  0  0  0  0  0  0  0  0
   -2.7851   63.7662   75.8505 H   0  0  0  0  0  0  0  0  0  0  0  0
    0.8207   60.1445   77.2688 H   0  0  0  0  0  0  0  0  0  0  0  0
   -2.2216   60.3363   75.1195 H   0  0  0  0  0  0  0  0  0  0  0  0
   -3.6364   58.1412   77.6487 H   0  0  0  0  0  0  0  0  0  0  0  0
   -3.5466   58.2694   74.6105 H   0  0  0  0  0  0  0  0  0  0  0  0
   -5.6615   59.5057   76.4155 H   0  0  0  0  0  0  0  0  0  0  0  0
   -4.0432   61.6294   76.0743 H   0  0  0  0  0  0  0  0  0  0  0  0
   -5.3247   56.9232   76.4039 H   0  0  0  0  0  0  0  0  0  0  0  0
   -5.7496   60.8720   74.5625 H   0  0  0  0  0  0  0  0  0  0  0  0
   -3.2796   60.7421   78.3788 H   0  0  0  0  0  0  0  0  0  0  0  0
   -1.6116   56.5143   77.2377 H   0  0  0  0  0  0  0  0  0  0  0  0
   -3.3127   55.8943   77.1161 H   0  0  0  0  0  0  0  0  0  0  0  0
   -1.8012   55.1846   75.3113 H   0  0  0  0  0  0  0  0  0  0  0  0
   -3.1932   55.9716   74.7895 H   0  0  0  0  0  0  0  0  0  0  0  0
   -1.7190   56.7815   74.7895 H   0  0  0  0  0  0  0  0  0  0  0  0
    3.0769   59.5108   74.6839 H   0  0  0  0  0  0  0  0  0  0  0  0
    1.7939   58.6227   71.3630 H   0  0  0  0  0  0  0  0  0  0  0  0
    4.7674   58.1326   71.1617 H   0  0  0  0  0  0  0  0  0  0  0  0
    3.1259   60.7611   71.1735 H   0  0  0  0  0  0  0  0  0  0  0  0
    5.0662   59.7499   73.3056 H   0  0  0  0  0  0  0  0  0  0  0  0
    5.8838   61.1610   71.4682 H   0  0  0  0  0  0  0  0  0  0  0  0
    5.6906   60.1118   70.1678 H   0  0  0  0  0  0  0  0  0  0  0  0
    4.9129   61.6033   70.1678 H   0  0  0  0  0  0  0  0  0  0  0  0
    4.2634   61.6980   74.3372 H   0  0  0  0  0  0  0  0  0  0  0  0
    2.8335   59.2021   69.3169 H   0  0  0  0  0  0  0  0  0  0  0  0
    2.5743   56.0051   72.2243 H   0  0  0  0  0  0  0  0  0  0  0  0
    1.6819   56.4418   70.7271 H   0  0  0  0  0  0  0  0  0  0  0  0
    4.4750   55.9824   71.1232 H   0  0  0  0  0  0  0  0  0  0  0  0
  2  1  1  0
  3  2  1  0
  4  3  1  0
  5  4  1  0
  6  5  1  0
  6  1  1  0
  8  7  2  0
  9  7  1  0
  9  1  1  0
 10  7  1  0
 11 10  1  0
 12 10  1  0
 13 12  1  0
 14 13  1  0
 15  3  1  0
 16  5  1  0
 17  4  1  0
 18 17  1  0
 19 18  1  0
 20 19  1  0
 21 20  1  0
 22 21  1  0
 23 18  1  0
 23 22  1  0
 24 21  1  0
 25 22  1  0
 26 23  1  0
 27 20  1  0
 28 27  1  0
 29  6  1  0
 30 29  1  0
 31 30  1  0
 32 31  1  0
 33 32  1  0
 34 33  1  0
 35 34  1  0
 35 30  1  0
 36 34  1  0
 37 35  1  0
 38 33  1  0
 39 32  1  0
 40 39  1  0
  1 41  1  6
  2 42  1  0
  2 43  1  0
  3 44  1  6
  4 45  1  1
  5 46  1  6
  6 47  1  1
  9 48  1  0
 10 49  1  6
 11 50  1  0
 12 51  1  0
 12 52  1  0
 13 53  1  0
 13 54  1  0
 14 55  1  0
 14 56  1  0
 14 57  1  0
 15 58  1  0
 15 59  1  0
 15 60  1  0
 16 61  1  0
 18 62  1  6
 20 63  1  1
 21 64  1  6
 22 65  1  1
 23 66  1  6
 24 67  1  0
 25 68  1  0
 26 69  1  0
 27 70  1  0
 27 71  1  0
 28 72  1  0
 28 73  1  0
 28 74  1  0
 30 75  1  1
 32 76  1  6
 33 77  1  6
 34 78  1  6
 35 79  1  6
 36 80  1  0
 36 81  1  0
 36 82  1  0
 37 83  1  0
 38 84  1  0
 39 85  1  0
 39 86  1  0
 40 87  1  0
M  CHG  4  14   1  15   1  28   1  36   1
M  END
>  <score>  (3) 
-6.988

$$$$
=
     RDKit          3D

 87 89  0  0  0  0  0  0  0  0999 V2000
   -2.0630   59.3160   74.8930 C   0  0  2  0  0  0  0  0  0  0  0  0
   -2.0650   60.6160   74.0660 C   0  0  0  0  0  0  0  0  0  0  0  0
   -0.6510   61.1650   73.9800 C   0  0  1  0  0  0  0  0  0  0  0  0
    0.2650   60.1980   73.2120 C   0  0  2  0  0  0  0  0  0  0  0  0
    0.2770   58.8090   73.9020 C   0  0  1  0  0  0  0  0  0  0  0  0
   -1.1300   58.2340   74.2610 C   0  0  1  0  0  0  0  0  0  0  0  0
   -4.0800   58.9630   76.3040 C   0  0  0  0  0  0  0  0  0  0  0  0
   -3.6630   59.7240   77.1730 O   0  0  0  0  0  0  0  0  0  0  0  0
   -3.4300   58.7910   75.0910 N   0  0  0  0  0  0  0  0  0  0  0  0
   -5.3670   58.1280   76.5110 C   0  0  1  0  0  0  0  0  0  0  0  0
   -5.4620   57.0380   75.5920 O   0  0  0  0  0  0  0  0  0  0  0  0
   -5.4300   57.5560   77.9360 C   0  0  0  0  0  0  0  0  0  0  0  0
   -6.3710   56.3550   78.0880 C   0  0  0  0  0  0  0  0  0  0  0  0
   -5.6240   55.0840   77.9460 N   0  0  0  0  0  4  0  0  0  0  0  0
   -0.6440   62.4970   73.2990 N   0  0  0  0  0  4  0  0  0  0  0  0
    0.9740   57.9110   73.0260 O   0  0  0  0  0  0  0  0  0  0  0  0
    1.5680   60.8190   73.2100 O   0  0  0  0  0  0  0  0  0  0  0  0
    2.1070   61.1360   71.9100 C   0  0  1  0  0  0  0  0  0  0  0  0
    1.8120   62.5310   71.6690 O   0  0  0  0  0  0  0  0  0  0  0  0
    2.8310   63.2480   70.9360 C   0  0  1  0  0  0  0  0  0  0  0  0
    3.4740   62.3450   69.8740 C   0  0  2  0  0  0  0  0  0  0  0  0
    4.2570   61.2120   70.5610 C   0  0  1  0  0  0  0  0  0  0  0  0
    3.6220   60.8120   71.9000 C   0  0  1  0  0  0  0  0  0  0  0  0
    4.3300   63.1020   69.0060 O   0  0  0  0  0  0  0  0  0  0  0  0
    4.2620   60.1050   69.6560 O   0  0  0  0  0  0  0  0  0  0  0  0
    4.2740   61.5520   72.9460 O   0  0  0  0  0  0  0  0  0  0  0  0
    2.2280   64.5250   70.3070 C   0  0  0  0  0  0  0  0  0  0  0  0
    0.7460   64.4710   70.2560 N   0  0  0  0  0  4  0  0  0  0  0  0
   -1.0870   57.1560   75.2340 O   0  0  0  0  0  0  0  0  0  0  0  0
   -1.3030   55.8300   74.7310 C   0  0  1  0  0  0  0  0  0  0  0  0
   -0.0980   55.2880   74.1960 O   0  0  0  0  0  0  0  0  0  0  0  0
    0.9620   55.1140   75.1480 C   0  0  1  0  0  0  0  0  0  0  0  0
    0.5330   54.1720   76.2860 C   0  0  2  0  0  0  0  0  0  0  0  0
   -0.7610   54.6980   76.9010 C   0  0  1  0  0  0  0  0  0  0  0  0
   -1.8470   54.8940   75.8460 C   0  0  1  0  0  0  0  0  0  0  0  0
   -1.2050   53.7410   77.9750 N   0  0  0  0  0  4  0  0  0  0  0  0
   -3.0200   55.4170   76.4840 O   0  0  0  0  0  0  0  0  0  0  0  0
    1.4800   54.0820   77.3490 O   0  0  0  0  0  0  0  0  0  0  0  0
    2.1930   54.5580   74.4150 C   0  0  0  0  0  0  0  0  0  0  0  0
    3.3680   54.8850   75.1460 O   0  0  0  0  0  0  0  0  0  0  0  0
   -1.6586   59.5668   75.8848 H   0  0  0  0  0  0  0  0  0  0  0  0
   -2.4386   60.4054   73.0530 H   0  0  0  0  0  0  0  0  0  0  0  0
   -2.7169   61.3575   74.5510 H   0  0  0  0  0  0  0  0  0  0  0  0
   -0.2734   61.2792   75.0068 H   0  0  0  0  0  0  0  0  0  0  0  0
   -0.0786   60.0194   72.1824 H   0  0  0  0  0  0  0  0  0  0  0  0
    0.7758   58.9250   74.8755 H   0  0  0  0  0  0  0  0  0  0  0  0
   -1.5110   57.8696   73.2956 H   0  0  0  0  0  0  0  0  0  0  0  0
   -3.9033   58.2940   74.3230 H   0  0  0  0  0  0  0  0  0  0  0  0
   -6.2057   58.8181   76.3368 H   0  0  0  0  0  0  0  0  0  0  0  0
   -5.5361   56.1882   76.0945 H   0  0  0  0  0  0  0  0  0  0  0  0
   -4.4172   57.2401   78.2264 H   0  0  0  0  0  0  0  0  0  0  0  0
   -5.8277   58.3538   78.5805 H   0  0  0  0  0  0  0  0  0  0  0  0
   -6.8415   56.3883   79.0817 H   0  0  0  0  0  0  0  0  0  0  0  0
   -7.1379   56.4045   77.3010 H   0  0  0  0  0  0  0  0  0  0  0  0
   -5.4037   54.7091   78.8797 H   0  0  0  0  0  0  0  0  0  0  0  0
   -6.1995   54.4034   77.4298 H   0  0  0  0  0  0  0  0  0  0  0  0
   -4.7494   55.2556   77.4298 H   0  0  0  0  0  0  0  0  0  0  0  0
   -0.6401   63.2447   74.0074 H   0  0  0  0  0  0  0  0  0  0  0  0
    0.1974   62.5773   72.7104 H   0  0  0  0  0  0  0  0  0  0  0  0
   -1.4845   62.5861   72.7104 H   0  0  0  0  0  0  0  0  0  0  0  0
    1.4836   57.2544   73.5639 H   0  0  0  0  0  0  0  0  0  0  0  0
    1.6617   60.5398   71.0999 H   0  0  0  0  0  0  0  0  0  0  0  0
    3.6266   63.5518   71.6322 H   0  0  0  0  0  0  0  0  0  0  0  0
    2.6779   61.9048   69.2555 H   0  0  0  0  0  0  0  0  0  0  0  0
    5.2799   61.5444   70.7914 H   0  0  0  0  0  0  0  0  0  0  0  0
    3.7437   59.7294   72.0521 H   0  0  0  0  0  0  0  0  0  0  0  0
    4.9498   63.6501   69.5497 H   0  0  0  0  0  0  0  0  0  0  0  0
    4.2658   59.2588   70.1698 H   0  0  0  0  0  0  0  0  0  0  0  0
    3.9747   61.2123   73.8264 H   0  0  0  0  0  0  0  0  0  0  0  0
    2.5315   65.3948   70.9082 H   0  0  0  0  0  0  0  0  0  0  0  0
    2.6015   64.6055   69.2755 H   0  0  0  0  0  0  0  0  0  0  0  0
    0.3697   64.4573   71.2147 H   0  0  0  0  0  0  0  0  0  0  0  0
    0.3891   65.2995   69.7589 H   0  0  0  0  0  0  0  0  0  0  0  0
    0.4504   63.6187   69.7589 H   0  0  0  0  0  0  0  0  0  0  0  0
   -2.0517   55.8974   73.9279 H   0  0  0  0  0  0  0  0  0  0  0  0
    1.2082   56.0845   75.6036 H   0  0  0  0  0  0  0  0  0  0  0  0
    0.4273   53.1761   75.8310 H   0  0  0  0  0  0  0  0  0  0  0  0
   -0.5769   55.6882   77.3433 H   0  0  0  0  0  0  0  0  0  0  0  0
   -2.1235   53.9413   75.3706 H   0  0  0  0  0  0  0  0  0  0  0  0
   -1.0147   54.1512   78.9004 H   0  0  0  0  0  0  0  0  0  0  0  0
   -2.2149   53.5625   77.8797 H   0  0  0  0  0  0  0  0  0  0  0  0
   -0.6892   52.8546   77.8797 H   0  0  0  0  0  0  0  0  0  0  0  0
   -2.9107   55.3682   77.4667 H   0  0  0  0  0  0  0  0  0  0  0  0
    1.0067   54.1270   78.2173 H   0  0  0  0  0  0  0  0  0  0  0  0
    2.1064   53.4647   74.3302 H   0  0  0  0  0  0  0  0  0  0  0  0
    2.2518   55.0004   73.4096 H   0  0  0  0  0  0  0  0  0  0  0  0
    3.1784   54.8322   76.1162 H   0  0  0  0  0  0  0  0  0  0  0  0
  2  1  1  0
  3  2  1  0
  4  3  1  0
  5  4  1  0
  6  5  1  0
  6  1  1  0
  8  7  2  0
  9  7  1  0
  9  1  1  0
 10  7  1  0
 11 10  1  0
 12 10  1  0
 13 12  1  0
 14 13  1  0
 15  3  1  0
 16  5  1  0
 17  4  1  0
 18 17  1  0
 19 18  1  0
 20 19  1  0
 21 20  1  0
 22 21  1  0
 23 18  1  0
 23 22  1  0
 24 21  1  0
 25 22  1  0
 26 23  1  0
 27 20  1  0
 28 27  1  0
 29  6  1  0
 30 29  1  0
 31 30  1  0
 32 31  1  0
 33 32  1  0
 34 33  1  0
 35 34  1  0
 35 30  1  0
 36 34  1  0
 37 35  1  0
 38 33  1  0
 39 32  1  0
 40 39  1  0
  1 41  1  1
  2 42  1  0
  2 43  1  0
  3 44  1  1
  4 45  1  6
  5 46  1  1
  6 47  1  6
  9 48  1  0
 10 49  1  6
 11 50  1  0
 12 51  1  0
 12 52  1  0
 13 53  1  0
 13 54  1  0
 14 55  1  0
 14 56  1  0
 14 57  1  0
 15 58  1  0
 15 59  1  0
 15 60  1  0
 16 61  1  0
 18 62  1  6
 20 63  1  1
 21 64  1  6
 22 65  1  1
 23 66  1  1
 24 67  1  0
 25 68  1  0
 26 69  1  0
 27 70  1  0
 27 71  1  0
 28 72  1  0
 28 73  1  0
 28 74  1  0
 30 75  1  6
 32 76  1  1
 33 77  1  6
 34 78  1  1
 35 79  1  6
 36 80  1  0
 36 81  1  0
 36 82  1  0
 37 83  1  0
 38 84  1  0
 39 85  1  0
 39 86  1  0
 40 87  1  0
M  CHG  4  14   1  15   1  28   1  36   1
M  END
>  <score>  (4) 
-6.959

$$$$
=
     RDKit          3D

 87 89  0  0  0  0  0  0  0  0999 V2000
    0.2540   60.5300   74.2590 C   0  0  2  0  0  0  0  0  0  0  0  0
   -0.7660   59.6570   75.0140 C   0  0  0  0  0  0  0  0  0  0  0  0
   -0.8220   58.2770   74.3810 C   0  0  1  0  0  0  0  0  0  0  0  0
    0.5250   57.5510   74.5340 C   0  0  2  0  0  0  0  0  0  0  0  0
    1.6600   58.3850   73.8870 C   0  0  1  0  0  0  0  0  0  0  0  0
    1.6820   59.8950   74.2820 C   0  0  1  0  0  0  0  0  0  0  0  0
   -0.0650   62.9760   73.9490 C   0  0  0  0  0  0  0  0  0  0  0  0
   -0.6010   62.8150   72.8560 O   0  0  0  0  0  0  0  0  0  0  0  0
    0.2780   61.9140   74.7730 N   0  0  0  0  0  0  0  0  0  0  0  0
    0.2770   64.3890   74.4820 C   0  0  1  0  0  0  0  0  0  0  0  0
   -0.3580   65.4230   73.7280 O   0  0  0  0  0  0  0  0  0  0  0  0
   -0.1460   64.5410   75.9510 C   0  0  0  0  0  0  0  0  0  0  0  0
   -1.6640   64.5420   76.1680 C   0  0  0  0  0  0  0  0  0  0  0  0
   -2.2290   65.8860   75.9090 N   0  0  0  0  0  4  0  0  0  0  0  0
   -1.9010   57.4530   75.0080 N   0  0  0  0  0  4  0  0  0  0  0  0
    2.9000   57.7570   74.2460 O   0  0  0  0  0  0  0  0  0  0  0  0
    0.3490   56.2720   73.8870 O   0  0  0  0  0  0  0  0  0  0  0  0
    0.6800   55.1170   74.6860 C   0  0  1  0  0  0  0  0  0  0  0  0
    0.6840   55.5550   76.0640 O   0  0  0  0  0  0  0  0  0  0  0  0
    0.2030   54.5760   77.0130 C   0  0  1  0  0  0  0  0  0  0  0  0
    0.6260   53.1610   76.5950 C   0  0  2  0  0  0  0  0  0  0  0  0
   -0.0830   52.7710   75.2860 C   0  0  1  0  0  0  0  0  0  0  0  0
   -0.3460   53.9930   74.3950 C   0  0  1  0  0  0  0  0  0  0  0  0
    0.3400   52.2110   77.6320 O   0  0  0  0  0  0  0  0  0  0  0  0
    0.7660   51.8340   74.6180 O   0  0  0  0  0  0  0  0  0  0  0  0
   -1.6710   54.4750   74.6720 O   0  0  0  0  0  0  0  0  0  0  0  0
    0.7060   54.9250   78.4320 C   0  0  0  0  0  0  0  0  0  0  0  0
    2.1320   54.5570   78.6210 N   0  0  0  0  0  4  0  0  0  0  0  0
    2.4770   60.7200   73.3880 O   0  0  0  0  0  0  0  0  0  0  0  0
    2.4640   60.3570   72.0010 C   0  0  1  0  0  0  0  0  0  0  0  0
    1.9830   61.4340   71.1990 O   0  0  0  0  0  0  0  0  0  0  0  0
    2.7940   62.6170   71.2250 C   0  0  1  0  0  0  0  0  0  0  0  0
    4.2210   62.3180   70.7360 C   0  0  2  0  0  0  0  0  0  0  0  0
    4.7950   61.1660   71.5550 C   0  0  1  0  0  0  0  0  0  0  0  0
    3.8830   59.9420   71.5210 C   0  0  1  0  0  0  0  0  0  0  0  0
    6.1680   60.8420   71.0330 N   0  0  0  0  0  4  0  0  0  0  0  0
    4.4620   58.9120   72.3320 O   0  0  0  0  0  0  0  0  0  0  0  0
    5.1250   63.4120   70.8880 O   0  0  0  0  0  0  0  0  0  0  0  0
    2.1290   63.6880   70.3470 C   0  0  0  0  0  0  0  0  0  0  0  0
    1.1690   64.4020   71.1140 O   0  0  0  0  0  0  0  0  0  0  0  0
   -0.0751   60.5739   73.2103 H   0  0  0  0  0  0  0  0  0  0  0  0
   -0.4609   59.5649   76.0668 H   0  0  0  0  0  0  0  0  0  0  0  0
   -1.7598   60.1252   74.9586 H   0  0  0  0  0  0  0  0  0  0  0  0
   -1.0408   58.4083   73.3110 H   0  0  0  0  0  0  0  0  0  0  0  0
    0.8146   57.4152   75.5865 H   0  0  0  0  0  0  0  0  0  0  0  0
    1.4882   58.3947   72.8005 H   0  0  0  0  0  0  0  0  0  0  0  0
    2.1175   59.8874   75.2921 H   0  0  0  0  0  0  0  0  0  0  0  0
    0.5513   62.0921   75.7500 H   0  0  0  0  0  0  0  0  0  0  0  0
    1.3677   64.4931   74.3843 H   0  0  0  0  0  0  0  0  0  0  0  0
   -0.7625   66.0816   74.3466 H   0  0  0  0  0  0  0  0  0  0  0  0
    0.2842   63.7055   76.5227 H   0  0  0  0  0  0  0  0  0  0  0  0
    0.2235   65.5208   76.2879 H   0  0  0  0  0  0  0  0  0  0  0  0
   -2.1272   63.8173   75.4823 H   0  0  0  0  0  0  0  0  0  0  0  0
   -1.8721   64.2662   77.2123 H   0  0  0  0  0  0  0  0  0  0  0  0
   -2.4258   66.3542   76.8051 H   0  0  0  0  0  0  0  0  0  0  0  0
   -1.5518   66.4452   75.3709 H   0  0  0  0  0  0  0  0  0  0  0  0
   -3.1024   65.7934   75.3709 H   0  0  0  0  0  0  0  0  0  0  0  0
   -1.8251   57.5109   76.0336 H   0  0  0  0  0  0  0  0  0  0  0  0
   -2.8209   57.8086   74.7111 H   0  0  0  0  0  0  0  0  0  0  0  0
   -1.8001   56.4719   74.7111 H   0  0  0  0  0  0  0  0  0  0  0  0
    2.9768   57.7181   75.2322 H   0  0  0  0  0  0  0  0  0  0  0  0
    1.6689   54.6965   74.4507 H   0  0  0  0  0  0  0  0  0  0  0  0
   -0.8967   54.5983   77.0254 H   0  0  0  0  0  0  0  0  0  0  0  0
    1.7131   53.1534   76.4273 H   0  0  0  0  0  0  0  0  0  0  0  0
   -1.0672   52.3316   75.5055 H   0  0  0  0  0  0  0  0  0  0  0  0
   -0.2486   53.7019   73.3387 H   0  0  0  0  0  0  0  0  0  0  0  0
    0.4687   52.6384   78.5157 H   0  0  0  0  0  0  0  0  0  0  0  0
    1.2547   51.2947   75.2891 H   0  0  0  0  0  0  0  0  0  0  0  0
   -1.8062   54.5242   75.6515 H   0  0  0  0  0  0  0  0  0  0  0  0
    0.5939   56.0074   78.5926 H   0  0  0  0  0  0  0  0  0  0  0  0
    0.1077   54.3522   79.1558 H   0  0  0  0  0  0  0  0  0  0  0  0
    2.3420   54.5028   79.6279 H   0  0  0  0  0  0  0  0  0  0  0  0
    2.3114   53.6422   78.1831 H   0  0  0  0  0  0  0  0  0  0  0  0
    2.7317   55.2708   78.1831 H   0  0  0  0  0  0  0  0  0  0  0  0
    1.7863   59.4978   71.8894 H   0  0  0  0  0  0  0  0  0  0  0  0
    2.8740   62.9838   72.2590 H   0  0  0  0  0  0  0  0  0  0  0  0
    4.1299   62.0885   69.6641 H   0  0  0  0  0  0  0  0  0  0  0  0
    4.8658   61.4708   72.6095 H   0  0  0  0  0  0  0  0  0  0  0  0
    3.7824   59.5439   70.5005 H   0  0  0  0  0  0  0  0  0  0  0  0
    6.8094   60.6906   71.8246 H   0  0  0  0  0  0  0  0  0  0  0  0
    6.1242   59.9882   70.4585 H   0  0  0  0  0  0  0  0  0  0  0  0
    6.5105   61.6253   70.4585 H   0  0  0  0  0  0  0  0  0  0  0  0
    4.3365   59.1353   73.2883 H   0  0  0  0  0  0  0  0  0  0  0  0
    5.2707   63.5883   71.8512 H   0  0  0  0  0  0  0  0  0  0  0  0
    2.8947   64.3857   69.9770 H   0  0  0  0  0  0  0  0  0  0  0  0
    1.6300   63.2043   69.4943 H   0  0  0  0  0  0  0  0  0  0  0  0
    1.3503   64.2672   72.0779 H   0  0  0  0  0  0  0  0  0  0  0  0
  2  1  1  0
  3  2  1  0
  4  3  1  0
  5  4  1  0
  6  5  1  0
  6  1  1  0
  8  7  2  0
  9  7  1  0
  9  1  1  0
 10  7  1  0
 11 10  1  0
 12 10  1  0
 13 12  1  0
 14 13  1  0
 15  3  1  0
 16  5  1  0
 17  4  1  0
 18 17  1  0
 19 18  1  0
 20 19  1  0
 21 20  1  0
 22 21  1  0
 23 18  1  0
 23 22  1  0
 24 21  1  0
 25 22  1  0
 26 23  1  0
 27 20  1  0
 28 27  1  0
 29  6  1  0
 30 29  1  0
 31 30  1  0
 32 31  1  0
 33 32  1  0
 34 33  1  0
 35 34  1  0
 35 30  1  0
 36 34  1  0
 37 35  1  0
 38 33  1  0
 39 32  1  0
 40 39  1  0
  1 41  1  6
  2 42  1  0
  2 43  1  0
  3 44  1  6
  4 45  1  1
  5 46  1  6
  6 47  1  1
  9 48  1  0
 10 49  1  1
 11 50  1  0
 12 51  1  0
 12 52  1  0
 13 53  1  0
 13 54  1  0
 14 55  1  0
 14 56  1  0
 14 57  1  0
 15 58  1  0
 15 59  1  0
 15 60  1  0
 16 61  1  0
 18 62  1  6
 20 63  1  1
 21 64  1  6
 22 65  1  1
 23 66  1  6
 24 67  1  0
 25 68  1  0
 26 69  1  0
 27 70  1  0
 27 71  1  0
 28 72  1  0
 28 73  1  0
 28 74  1  0
 30 75  1  1
 32 76  1  1
 33 77  1  6
 34 78  1  1
 35 79  1  6
 36 80  1  0
 36 81  1  0
 36 82  1  0
 37 83  1  0
 38 84  1  0
 39 85  1  0
 39 86  1  0
 40 87  1  0
M  CHG  4  14   1  15   1  28   1  36   1
M  END
>  <score>  (5) 
-6.939

$$$$
=
     RDKit          3D

 87 89  0  0  0  0  0  0  0  0999 V2000
   -0.9550   60.6230   73.8790 C   0  0  2  0  0  0  0  0  0  0  0  0
   -1.5660   59.6640   74.9190 C   0  0  0  0  0  0  0  0  0  0  0  0
   -1.5080   58.2400   74.3920 C   0  0  1  0  0  0  0  0  0  0  0  0
   -0.0510   57.7780   74.2210 C   0  0  2  0  0  0  0  0  0  0  0  0
    0.7040   58.7310   73.2580 C   0  0  1  0  0  0  0  0  0  0  0  0
    0.5290   60.2530   73.5580 C   0  0  1  0  0  0  0  0  0  0  0  0
   -0.4380   62.4810   75.4490 C   0  0  0  0  0  0  0  0  0  0  0  0
    0.4070   61.8110   76.0370 O   0  0  0  0  0  0  0  0  0  0  0  0
   -1.0730   62.0340   74.3000 N   0  0  0  0  0  0  0  0  0  0  0  0
   -0.8620   63.8790   75.9610 C   0  0  1  0  0  0  0  0  0  0  0  0
   -0.7050   64.8930   74.9680 O   0  0  0  0  0  0  0  0  0  0  0  0
   -2.3300   63.8780   76.4130 C   0  0  0  0  0  0  0  0  0  0  0  0
   -2.8250   65.2320   76.9350 C   0  0  0  0  0  0  0  0  0  0  0  0
   -3.2110   66.1160   75.8120 N   0  0  0  0  0  4  0  0  0  0  0  0
   -2.2160   57.3050   75.3200 N   0  0  0  0  0  4  0  0  0  0  0  0
    2.0910   58.3680   73.3100 O   0  0  0  0  0  0  0  0  0  0  0  0
   -0.1300   56.4310   73.7070 O   0  0  0  0  0  0  0  0  0  0  0  0
    0.4930   55.4160   74.5200 C   0  0  1  0  0  0  0  0  0  0  0  0
    0.5810   55.9540   75.8590 O   0  0  0  0  0  0  0  0  0  0  0  0
    0.3970   54.9840   76.9160 C   0  0  1  0  0  0  0  0  0  0  0  0
    1.0130   53.6330   76.5270 C   0  0  2  0  0  0  0  0  0  0  0  0
    0.2360   53.0280   75.3450 C   0  0  1  0  0  0  0  0  0  0  0  0
   -0.3430   54.1150   74.4280 C   0  0  1  0  0  0  0  0  0  0  0  0
    1.0240   52.7320   77.6440 O   0  0  0  0  0  0  0  0  0  0  0  0
    1.1540   52.2000   74.6260 O   0  0  0  0  0  0  0  0  0  0  0  0
   -1.6920   54.3850   74.8470 O   0  0  0  0  0  0  0  0  0  0  0  0
    0.9930   55.5220   78.2360 C   0  0  0  0  0  0  0  0  0  0  0  0
    2.4500   55.2550   78.3360 N   0  0  0  0  0  4  0  0  0  0  0  0
    0.9010   61.1120   72.4470 O   0  0  0  0  0  0  0  0  0  0  0  0
    2.1460   61.8150   72.5690 C   0  0  1  0  0  0  0  0  0  0  0  0
    3.1940   61.1090   71.9080 O   0  0  0  0  0  0  0  0  0  0  0  0
    3.0280   60.9690   70.4890 C   0  0  1  0  0  0  0  0  0  0  0  0
    2.9370   62.3450   69.8060 C   0  0  2  0  0  0  0  0  0  0  0  0
    1.8290   63.1550   70.4740 C   0  0  1  0  0  0  0  0  0  0  0  0
    2.0330   63.2510   71.9840 C   0  0  1  0  0  0  0  0  0  0  0  0
    1.7840   64.5190   69.8390 N   0  0  0  0  0  4  0  0  0  0  0  0
    0.9470   63.9950   72.5510 O   0  0  0  0  0  0  0  0  0  0  0  0
    2.6100   62.2800   68.4180 O   0  0  0  0  0  0  0  0  0  0  0  0
    4.2120   60.1630   69.9330 C   0  0  0  0  0  0  0  0  0  0  0  0
    3.7400   58.9360   69.3950 O   0  0  0  0  0  0  0  0  0  0  0  0
   -1.5361   60.5050   72.9525 H   0  0  0  0  0  0  0  0  0  0  0  0
   -0.9969   59.7308   75.8579 H   0  0  0  0  0  0  0  0  0  0  0  0
   -2.6136   59.9436   75.1040 H   0  0  0  0  0  0  0  0  0  0  0  0
   -2.0069   58.2267   73.4117 H   0  0  0  0  0  0  0  0  0  0  0  0
    0.5115   57.7977   75.1661 H   0  0  0  0  0  0  0  0  0  0  0  0
    0.2697   58.6041   72.2554 H   0  0  0  0  0  0  0  0  0  0  0  0
    1.1942   60.4211   74.4178 H   0  0  0  0  0  0  0  0  0  0  0  0
   -1.6311   62.6908   73.7360 H   0  0  0  0  0  0  0  0  0  0  0  0
   -0.1990   64.1035   76.8095 H   0  0  0  0  0  0  0  0  0  0  0  0
   -0.5694   65.7688   75.4092 H   0  0  0  0  0  0  0  0  0  0  0  0
   -2.9553   63.5888   75.5555 H   0  0  0  0  0  0  0  0  0  0  0  0
   -2.4036   63.1689   77.2507 H   0  0  0  0  0  0  0  0  0  0  0  0
   -3.6980   65.0713   77.5847 H   0  0  0  0  0  0  0  0  0  0  0  0
   -2.0123   65.7120   77.4999 H   0  0  0  0  0  0  0  0  0  0  0  0
   -3.5953   66.9961   76.1843 H   0  0  0  0  0  0  0  0  0  0  0  0
   -2.3824   66.3200   75.2352 H   0  0  0  0  0  0  0  0  0  0  0  0
   -3.9238   65.6469   75.2352 H   0  0  0  0  0  0  0  0  0  0  0  0
   -2.0148   57.5707   76.2946 H   0  0  0  0  0  0  0  0  0  0  0  0
   -3.2309   57.3578   75.1523 H   0  0  0  0  0  0  0  0  0  0  0  0
   -1.8900   56.3425   75.1523 H   0  0  0  0  0  0  0  0  0  0  0  0
    2.3773   58.2931   74.2547 H   0  0  0  0  0  0  0  0  0  0  0  0
    1.5065   55.1531   74.1828 H   0  0  0  0  0  0  0  0  0  0  0  0
   -0.6800   54.8206   77.0690 H   0  0  0  0  0  0  0  0  0  0  0  0
    2.0568   53.7966   76.2210 H   0  0  0  0  0  0  0  0  0  0  0  0
   -0.6215   52.4464   75.7144 H   0  0  0  0  0  0  0  0  0  0  0  0
   -0.3196   53.7636   73.3859 H   0  0  0  0  0  0  0  0  0  0  0  0
    1.0177   53.2512   78.4869 H   0  0  0  0  0  0  0  0  0  0  0  0
    1.7143   51.6946   75.2669 H   0  0  0  0  0  0  0  0  0  0  0  0
   -1.7349   54.3936   75.8360 H   0  0  0  0  0  0  0  0  0  0  0  0
    0.8265   56.6083   78.2845 H   0  0  0  0  0  0  0  0  0  0  0  0
    0.4943   55.0063   79.0699 H   0  0  0  0  0  0  0  0  0  0  0  0
    2.7226   55.2050   79.3280 H   0  0  0  0  0  0  0  0  0  0  0  0
    2.6675   54.3601   77.8747 H   0  0  0  0  0  0  0  0  0  0  0  0
    2.9707   56.0146   77.8747 H   0  0  0  0  0  0  0  0  0  0  0  0
    2.3840   61.8861   73.6406 H   0  0  0  0  0  0  0  0  0  0  0  0
    2.0874   60.4378   70.2811 H   0  0  0  0  0  0  0  0  0  0  0  0
    3.9334   62.8000   69.9071 H   0  0  0  0  0  0  0  0  0  0  0  0
    0.8656   62.6459   70.3235 H   0  0  0  0  0  0  0  0  0  0  0  0
    2.9638   63.7825   72.2309 H   0  0  0  0  0  0  0  0  0  0  0  0
    1.7602   65.2396   70.5746 H   0  0  0  0  0  0  0  0  0  0  0  0
    2.6210   64.6531   69.2539 H   0  0  0  0  0  0  0  0  0  0  0  0
    0.9400   64.5977   69.2539 H   0  0  0  0  0  0  0  0  0  0  0  0
    1.0016   63.9576   73.5388 H   0  0  0  0  0  0  0  0  0  0  0  0
    1.6443   62.0880   68.3151 H   0  0  0  0  0  0  0  0  0  0  0  0
    4.7104   60.7424   69.1419 H   0  0  0  0  0  0  0  0  0  0  0  0
    4.9271   59.9567   70.7430 H   0  0  0  0  0  0  0  0  0  0  0  0
    3.5034   58.3210   70.1339 H   0  0  0  0  0  0  0  0  0  0  0  0
  2  1  1  0
  3  2  1  0
  4  3  1  0
  5  4  1  0
  6  5  1  0
  6  1  1  0
  8  7  2  0
  9  7  1  0
  9  1  1  0
 10  7  1  0
 11 10  1  0
 12 10  1  0
 13 12  1  0
 14 13  1  0
 15  3  1  0
 16  5  1  0
 17  4  1  0
 18 17  1  0
 19 18  1  0
 20 19  1  0
 21 20  1  0
 22 21  1  0
 23 18  1  0
 23 22  1  0
 24 21  1  0
 25 22  1  0
 26 23  1  0
 27 20  1  0
 28 27  1  0
 29  6  1  0
 30 29  1  0
 31 30  1  0
 32 31  1  0
 33 32  1  0
 34 33  1  0
 35 34  1  0
 35 30  1  0
 36 34  1  0
 37 35  1  0
 38 33  1  0
 39 32  1  0
 40 39  1  0
  1 41  1  6
  2 42  1  0
  2 43  1  0
  3 44  1  6
  4 45  1  1
  5 46  1  6
  6 47  1  1
  9 48  1  0
 10 49  1  1
 11 50  1  0
 12 51  1  0
 12 52  1  0
 13 53  1  0
 13 54  1  0
 14 55  1  0
 14 56  1  0
 14 57  1  0
 15 58  1  0
 15 59  1  0
 15 60  1  0
 16 61  1  0
 18 62  1  6
 20 63  1  1
 21 64  1  6
 22 65  1  1
 23 66  1  6
 24 67  1  0
 25 68  1  0
 26 69  1  0
 27 70  1  0
 27 71  1  0
 28 72  1  0
 28 73  1  0
 28 74  1  0
 30 75  1  1
 32 76  1  1
 33 77  1  6
 34 78  1  1
 35 79  1  6
 36 80  1  0
 36 81  1  0
 36 82  1  0
 37 83  1  0
 38 84  1  0
 39 85  1  0
 39 86  1  0
 40 87  1  0
M  CHG  4  14   1  15   1  28   1  36   1
M  END
>  <score>  (6) 
-6.895

$$$$
=
     RDKit          3D

 87 89  0  0  0  0  0  0  0  0999 V2000
    0.2680   61.5310   72.5730 C   0  0  2  0  0  0  0  0  0  0  0  0
   -1.1310   61.2980   73.1760 C   0  0  0  0  0  0  0  0  0  0  0  0
   -1.1230   60.0220   73.9990 C   0  0  1  0  0  0  0  0  0  0  0  0
   -0.1780   60.1530   75.2050 C   0  0  2  0  0  0  0  0  0  0  0  0
    1.2590   60.4830   74.7260 C   0  0  1  0  0  0  0  0  0  0  0  0
    1.3620   61.6410   73.6830 C   0  0  1  0  0  0  0  0  0  0  0  0
    0.2400   63.9900   72.2110 C   0  0  0  0  0  0  0  0  0  0  0  0
    0.3920   64.2160   73.4090 O   0  0  0  0  0  0  0  0  0  0  0  0
    0.2910   62.7090   71.6830 N   0  0  0  0  0  0  0  0  0  0  0  0
   -0.0300   65.1330   71.2020 C   0  0  1  0  0  0  0  0  0  0  0  0
   -0.4560   66.3360   71.8440 O   0  0  0  0  0  0  0  0  0  0  0  0
    1.2280   65.4510   70.3800 C   0  0  0  0  0  0  0  0  0  0  0  0
    1.0990   66.6980   69.4960 C   0  0  0  0  0  0  0  0  0  0  0  0
   -0.1420   66.6410   68.6890 N   0  0  0  0  0  4  0  0  0  0  0  0
   -2.5010   59.6990   74.4850 N   0  0  0  0  0  4  0  0  0  0  0  0
    2.0300   60.7950   75.8950 O   0  0  0  0  0  0  0  0  0  0  0  0
   -0.2480   58.8850   75.8910 O   0  0  0  0  0  0  0  0  0  0  0  0
    0.5600   57.8280   75.3330 C   0  0  1  0  0  0  0  0  0  0  0  0
    1.8670   57.9410   75.9410 O   0  0  0  0  0  0  0  0  0  0  0  0
    2.5320   56.6810   76.1890 C   0  0  1  0  0  0  0  0  0  0  0  0
    2.2260   55.6760   75.0690 C   0  0  2  0  0  0  0  0  0  0  0  0
    0.7330   55.3060   75.0960 C   0  0  1  0  0  0  0  0  0  0  0  0
   -0.1330   56.4690   75.6000 C   0  0  1  0  0  0  0  0  0  0  0  0
    3.0440   54.5030   75.1930 O   0  0  0  0  0  0  0  0  0  0  0  0
    0.3700   54.9510   73.7590 O   0  0  0  0  0  0  0  0  0  0  0  0
   -0.3280   56.3040   77.0150 O   0  0  0  0  0  0  0  0  0  0  0  0
    4.0520   56.9080   76.3500 C   0  0  0  0  0  0  0  0  0  0  0  0
    4.5340   58.0390   75.5180 N   0  0  0  0  0  4  0  0  0  0  0  0
    2.6260   61.6700   72.9670 O   0  0  0  0  0  0  0  0  0  0  0  0
    3.6140   60.7140   73.3740 C   0  0  1  0  0  0  0  0  0  0  0  0
    3.1290   59.3820   73.2130 O   0  0  0  0  0  0  0  0  0  0  0  0
    2.8390   59.0040   71.8590 C   0  0  1  0  0  0  0  0  0  0  0  0
    4.0920   59.1180   70.9740 C   0  0  2  0  0  0  0  0  0  0  0  0
    4.6640   60.5260   71.1050 C   0  0  1  0  0  0  0  0  0  0  0  0
    4.9280   60.8930   72.5640 C   0  0  1  0  0  0  0  0  0  0  0  0
    5.9210   60.6130   70.2820 N   0  0  0  0  0  4  0  0  0  0  0  0
    5.4340   62.2330   72.6190 O   0  0  0  0  0  0  0  0  0  0  0  0
    3.8380   58.9130   69.5840 O   0  0  0  0  0  0  0  0  0  0  0  0
    2.2980   57.5660   71.8560 C   0  0  0  0  0  0  0  0  0  0  0  0
    3.1540   56.7390   71.0800 O   0  0  0  0  0  0  0  0  0  0  0  0
    0.5041   60.6492   71.9593 H   0  0  0  0  0  0  0  0  0  0  0  0
   -1.3983   62.1482   73.8208 H   0  0  0  0  0  0  0  0  0  0  0  0
   -1.8684   61.2058   72.3650 H   0  0  0  0  0  0  0  0  0  0  0  0
   -0.7661   59.2091   73.3495 H   0  0  0  0  0  0  0  0  0  0  0  0
   -0.4661   60.9727   75.8796 H   0  0  0  0  0  0  0  0  0  0  0  0
    1.6408   59.6028   74.1880 H   0  0  0  0  0  0  0  0  0  0  0  0
    1.2433   62.5469   74.2956 H   0  0  0  0  0  0  0  0  0  0  0  0
    0.3453   62.5782   70.6628 H   0  0  0  0  0  0  0  0  0  0  0  0
   -0.8360   64.7725   70.5459 H   0  0  0  0  0  0  0  0  0  0  0  0
   -0.4144   66.2185   72.8261 H   0  0  0  0  0  0  0  0  0  0  0  0
    2.0656   65.6059   71.0760 H   0  0  0  0  0  0  0  0  0  0  0  0
    1.3898   64.5982   69.7043 H   0  0  0  0  0  0  0  0  0  0  0  0
    1.0734   67.5928   70.1352 H   0  0  0  0  0  0  0  0  0  0  0  0
    1.9621   66.7401   68.8154 H   0  0  0  0  0  0  0  0  0  0  0  0
   -0.9581   66.6035   69.3163 H   0  0  0  0  0  0  0  0  0  0  0  0
   -0.2040   67.4800   68.0948 H   0  0  0  0  0  0  0  0  0  0  0  0
   -0.1268   65.7998   68.0948 H   0  0  0  0  0  0  0  0  0  0  0  0
   -2.5101   59.6969   75.5150 H   0  0  0  0  0  0  0  0  0  0  0  0
   -3.1626   60.4077   74.1373 H   0  0  0  0  0  0  0  0  0  0  0  0
   -2.7788   58.7701   74.1373 H   0  0  0  0  0  0  0  0  0  0  0  0
    1.5023   60.5815   76.7050 H   0  0  0  0  0  0  0  0  0  0  0  0
    0.6754   57.9023   74.2416 H   0  0  0  0  0  0  0  0  0  0  0  0
    2.1498   56.2526   77.1273 H   0  0  0  0  0  0  0  0  0  0  0  0
    2.4598   56.1442   74.1015 H   0  0  0  0  0  0  0  0  0  0  0  0
    0.5631   54.4707   75.7912 H   0  0  0  0  0  0  0  0  0  0  0  0
   -1.0961   56.4633   75.0686 H   0  0  0  0  0  0  0  0  0  0  0  0
    3.1859   54.2995   76.1514 H   0  0  0  0  0  0  0  0  0  0  0  0
   -0.3376   54.2590   73.7819 H   0  0  0  0  0  0  0  0  0  0  0  0
    0.3284   56.8595   77.5056 H   0  0  0  0  0  0  0  0  0  0  0  0
    4.2692   57.1256   77.4062 H   0  0  0  0  0  0  0  0  0  0  0  0
    4.5699   55.9959   76.0184 H   0  0  0  0  0  0  0  0  0  0  0  0
    4.8589   58.8013   76.1298 H   0  0  0  0  0  0  0  0  0  0  0  0
    5.3125   57.7205   74.9235 H   0  0  0  0  0  0  0  0  0  0  0  0
    3.7651   58.3799   74.9235 H   0  0  0  0  0  0  0  0  0  0  0  0
    3.8268   60.8899   74.4388 H   0  0  0  0  0  0  0  0  0  0  0  0
    2.0826   59.6853   71.4423 H   0  0  0  0  0  0  0  0  0  0  0  0
    4.7794   58.3328   71.3217 H   0  0  0  0  0  0  0  0  0  0  0  0
    3.9280   61.2525   70.7301 H   0  0  0  0  0  0  0  0  0  0  0  0
    5.6850   60.2339   73.0140 H   0  0  0  0  0  0  0  0  0  0  0  0
    6.7375   60.6695   70.9073 H   0  0  0  0  0  0  0  0  0  0  0  0
    6.0009   59.7755   69.6877 H   0  0  0  0  0  0  0  0  0  0  0  0
    5.8848   61.4535   69.6877 H   0  0  0  0  0  0  0  0  0  0  0  0
    5.5378   62.5080   73.5644 H   0  0  0  0  0  0  0  0  0  0  0  0
    3.0722   58.2949   69.4761 H   0  0  0  0  0  0  0  0  0  0  0  0
    2.2588   57.1870   72.8879 H   0  0  0  0  0  0  0  0  0  0  0  0
    1.2870   57.5557   71.4227 H   0  0  0  0  0  0  0  0  0  0  0  0
    3.7194   56.1927   71.6817 H   0  0  0  0  0  0  0  0  0  0  0  0
  2  1  1  0
  3  2  1  0
  4  3  1  0
  5  4  1  0
  6  5  1  0
  6  1  1  0
  8  7  2  0
  9  7  1  0
  9  1  1  0
 10  7  1  0
 11 10  1  0
 12 10  1  0
 13 12  1  0
 14 13  1  0
 15  3  1  0
 16  5  1  0
 17  4  1  0
 18 17  1  0
 19 18  1  0
 20 19  1  0
 21 20  1  0
 22 21  1  0
 23 18  1  0
 23 22  1  0
 24 21  1  0
 25 22  1  0
 26 23  1  0
 27 20  1  0
 28 27  1  0
 29  6  1  0
 30 29  1  0
 31 30  1  0
 32 31  1  0
 33 32  1  0
 34 33  1  0
 35 34  1  0
 35 30  1  0
 36 34  1  0
 37 35  1  0
 38 33  1  0
 39 32  1  0
 40 39  1  0
  1 41  1  6
  2 42  1  0
  2 43  1  0
  3 44  1  6
  4 45  1  1
  5 46  1  6
  6 47  1  1
  9 48  1  0
 10 49  1  6
 11 50  1  0
 12 51  1  0
 12 52  1  0
 13 53  1  0
 13 54  1  0
 14 55  1  0
 14 56  1  0
 14 57  1  0
 15 58  1  0
 15 59  1  0
 15 60  1  0
 16 61  1  0
 18 62  1  6
 20 63  1  1
 21 64  1  6
 22 65  1  1
 23 66  1  6
 24 67  1  0
 25 68  1  0
 26 69  1  0
 27 70  1  0
 27 71  1  0
 28 72  1  0
 28 73  1  0
 28 74  1  0
 30 75  1  1
 32 76  1  6
 33 77  1  1
 34 78  1  6
 35 79  1  1
 36 80  1  0
 36 81  1  0
 36 82  1  0
 37 83  1  0
 38 84  1  0
 39 85  1  0
 39 86  1  0
 40 87  1  0
M  CHG  4  14   1  15   1  28   1  36   1
M  END
>  <score>  (7) 
-6.847

$$$$
=
     RDKit          3D

 87 89  0  0  0  0  0  0  0  0999 V2000
    0.7500   59.7720   73.6100 C   0  0  2  0  0  0  0  0  0  0  0  0
    0.3110   58.7120   74.6380 C   0  0  0  0  0  0  0  0  0  0  0  0
   -0.5150   59.3730   75.7280 C   0  0  1  0  0  0  0  0  0  0  0  0
   -1.8210   59.9450   75.1530 C   0  0  2  0  0  0  0  0  0  0  0  0
   -1.5100   60.9690   74.0310 C   0  0  1  0  0  0  0  0  0  0  0  0
   -0.4790   60.4870   72.9610 C   0  0  1  0  0  0  0  0  0  0  0  0
    3.0150   59.2310   72.7400 C   0  0  0  0  0  0  0  0  0  0  0  0
    3.5470   59.5220   73.8080 O   0  0  0  0  0  0  0  0  0  0  0  0
    1.6380   59.2000   72.5770 N   0  0  0  0  0  0  0  0  0  0  0  0
    3.8560   58.8850   71.4870 C   0  0  1  0  0  0  0  0  0  0  0  0
    3.1500   58.0450   70.5730 O   0  0  0  0  0  0  0  0  0  0  0  0
    4.2770   60.1580   70.7370 C   0  0  0  0  0  0  0  0  0  0  0  0
    5.5600   60.8050   71.2720 C   0  0  0  0  0  0  0  0  0  0  0  0
    5.2490   61.7590   72.3620 N   0  0  0  0  0  4  0  0  0  0  0  0
   -0.8400   58.3930   76.8100 N   0  0  0  0  0  4  0  0  0  0  0  0
   -2.7590   61.3000   73.4060 O   0  0  0  0  0  0  0  0  0  0  0  0
   -2.5030   60.5530   76.2720 O   0  0  0  0  0  0  0  0  0  0  0  0
   -3.9420   60.4540   76.2550 C   0  0  1  0  0  0  0  0  0  0  0  0
   -4.2880   59.6550   75.1010 O   0  0  0  0  0  0  0  0  0  0  0  0
   -5.4330   58.7910   75.2830 C   0  0  1  0  0  0  0  0  0  0  0  0
   -6.4910   59.4690   76.1660 C   0  0  2  0  0  0  0  0  0  0  0  0
   -5.9420   59.6440   77.5930 C   0  0  1  0  0  0  0  0  0  0  0  0
   -4.4200   59.8460   77.5970 C   0  0  1  0  0  0  0  0  0  0  0  0
   -7.7110   58.7140   76.1770 O   0  0  0  0  0  0  0  0  0  0  0  0
   -6.6030   60.7820   78.1530 O   0  0  0  0  0  0  0  0  0  0  0  0
   -3.7980   58.5650   77.7880 O   0  0  0  0  0  0  0  0  0  0  0  0
   -6.0130   58.3860   73.9090 C   0  0  0  0  0  0  0  0  0  0  0  0
   -6.7700   57.1110   73.9810 N   0  0  0  0  0  4  0  0  0  0  0  0
    0.0860   61.5670   72.1690 O   0  0  0  0  0  0  0  0  0  0  0  0
    1.1010   62.3600   72.8000 C   0  0  1  0  0  0  0  0  0  0  0  0
    2.2120   62.5500   71.9260 O   0  0  0  0  0  0  0  0  0  0  0  0
    1.9190   63.2790   70.7250 C   0  0  1  0  0  0  0  0  0  0  0  0
    1.3780   64.6820   71.0490 C   0  0  2  0  0  0  0  0  0  0  0  0
    0.1840   64.5480   71.9890 C   0  0  1  0  0  0  0  0  0  0  0  0
    0.5360   63.7410   73.2360 C   0  0  1  0  0  0  0  0  0  0  0  0
   -0.3030   65.9260   72.3460 N   0  0  0  0  0  4  0  0  0  0  0  0
   -0.6330   63.6260   74.0580 O   0  0  0  0  0  0  0  0  0  0  0  0
    0.9150   65.4010   69.9060 O   0  0  0  0  0  0  0  0  0  0  0  0
    3.1990   63.3690   69.8800 C   0  0  0  0  0  0  0  0  0  0  0  0
    2.9690   62.7840   68.6060 O   0  0  0  0  0  0  0  0  0  0  0  0
    1.3274   60.5305   74.1589 H   0  0  0  0  0  0  0  0  0  0  0  0
   -0.2938   57.9428   74.1356 H   0  0  0  0  0  0  0  0  0  0  0  0
    1.2010   58.2454   75.0854 H   0  0  0  0  0  0  0  0  0  0  0  0
    0.0832   60.1945   76.1490 H   0  0  0  0  0  0  0  0  0  0  0  0
   -2.4512   59.1717   74.6896 H   0  0  0  0  0  0  0  0  0  0  0  0
   -1.0260   61.8391   74.4986 H   0  0  0  0  0  0  0  0  0  0  0  0
   -1.0675   59.8081   72.3264 H   0  0  0  0  0  0  0  0  0  0  0  0
    1.2321   58.7757   71.7308 H   0  0  0  0  0  0  0  0  0  0  0  0
    4.7414   58.3471   71.8568 H   0  0  0  0  0  0  0  0  0  0  0  0
    2.6025   57.3936   71.0790 H   0  0  0  0  0  0  0  0  0  0  0  0
    4.4356   59.8994   69.6797 H   0  0  0  0  0  0  0  0  0  0  0  0
    3.4693   60.8912   70.8788 H   0  0  0  0  0  0  0  0  0  0  0  0
    6.2266   60.0199   71.6583 H   0  0  0  0  0  0  0  0  0  0  0  0
    6.0495   61.3513   70.4523 H   0  0  0  0  0  0  0  0  0  0  0  0
    5.3984   61.3008   73.2723 H   0  0  0  0  0  0  0  0  0  0  0  0
    5.8658   62.5804   72.2857 H   0  0  0  0  0  0  0  0  0  0  0  0
    4.2666   62.0591   72.2857 H   0  0  0  0  0  0  0  0  0  0  0  0
   -0.6935   58.8349   77.7288 H   0  0  0  0  0  0  0  0  0  0  0  0
   -1.8234   58.0993   76.7232 H   0  0  0  0  0  0  0  0  0  0  0  0
   -0.2269   57.5699   76.7232 H   0  0  0  0  0  0  0  0  0  0  0  0
   -3.4390   61.4802   74.1026 H   0  0  0  0  0  0  0  0  0  0  0  0
   -4.4424   61.4296   76.1660 H   0  0  0  0  0  0  0  0  0  0  0  0
   -5.1121   57.8755   75.8015 H   0  0  0  0  0  0  0  0  0  0  0  0
   -6.7178   60.4608   75.7479 H   0  0  0  0  0  0  0  0  0  0  0  0
   -6.1340   58.7381   78.1867 H   0  0  0  0  0  0  0  0  0  0  0  0
   -4.1455   60.5390   78.4059 H   0  0  0  0  0  0  0  0  0  0  0  0
   -7.9855   58.5441   77.1129 H   0  0  0  0  0  0  0  0  0  0  0  0
   -6.5720   60.7286   79.1411 H   0  0  0  0  0  0  0  0  0  0  0  0
   -3.7093   58.3824   78.7570 H   0  0  0  0  0  0  0  0  0  0  0  0
   -6.6882   59.1811   73.5598 H   0  0  0  0  0  0  0  0  0  0  0  0
   -5.1730   58.2446   73.2130 H   0  0  0  0  0  0  0  0  0  0  0  0
   -6.9210   56.8566   74.9676 H   0  0  0  0  0  0  0  0  0  0  0  0
   -7.6802   57.2252   73.5127 H   0  0  0  0  0  0  0  0  0  0  0  0
   -6.2340   56.3665   73.5127 H   0  0  0  0  0  0  0  0  0  0  0  0
    1.4395   61.8169   73.6947 H   0  0  0  0  0  0  0  0  0  0  0  0
    1.1377   62.7516   70.1580 H   0  0  0  0  0  0  0  0  0  0  0  0
    2.2203   65.2354   71.4897 H   0  0  0  0  0  0  0  0  0  0  0  0
   -0.6187   63.9950   71.4792 H   0  0  0  0  0  0  0  0  0  0  0  0
    1.3128   64.2417   73.8325 H   0  0  0  0  0  0  0  0  0  0  0  0
   -0.3374   66.0232   73.3708 H   0  0  0  0  0  0  0  0  0  0  0  0
    0.3404   66.6293   71.9558 H   0  0  0  0  0  0  0  0  0  0  0  0
   -1.2455   66.0689   71.9558 H   0  0  0  0  0  0  0  0  0  0  0  0
   -0.3695   63.6519   75.0119 H   0  0  0  0  0  0  0  0  0  0  0  0
    0.4033   66.1956   70.2009 H   0  0  0  0  0  0  0  0  0  0  0  0
    3.4807   64.4247   69.7530 H   0  0  0  0  0  0  0  0  0  0  0  0
    4.0121   62.8305   70.3887 H   0  0  0  0  0  0  0  0  0  0  0  0
    2.6093   61.8691   68.7231 H   0  0  0  0  0  0  0  0  0  0  0  0
  2  1  1  0
  3  2  1  0
  4  3  1  0
  5  4  1  0
  6  5  1  0
  6  1  1  0
  8  7  2  0
  9  7  1  0
  9  1  1  0
 10  7  1  0
 11 10  1  0
 12 10  1  0
 13 12  1  0
 14 13  1  0
 15  3  1  0
 16  5  1  0
 17  4  1  0
 18 17  1  0
 19 18  1  0
 20 19  1  0
 21 20  1  0
 22 21  1  0
 23 18  1  0
 23 22  1  0
 24 21  1  0
 25 22  1  0
 26 23  1  0
 27 20  1  0
 28 27  1  0
 29  6  1  0
 30 29  1  0
 31 30  1  0
 32 31  1  0
 33 32  1  0
 34 33  1  0
 35 34  1  0
 35 30  1  0
 36 34  1  0
 37 35  1  0
 38 33  1  0
 39 32  1  0
 40 39  1  0
  1 41  1  1
  2 42  1  0
  2 43  1  0
  3 44  1  1
  4 45  1  6
  5 46  1  1
  6 47  1  6
  9 48  1  0
 10 49  1  1
 11 50  1  0
 12 51  1  0
 12 52  1  0
 13 53  1  0
 13 54  1  0
 14 55  1  0
 14 56  1  0
 14 57  1  0
 15 58  1  0
 15 59  1  0
 15 60  1  0
 16 61  1  0
 18 62  1  6
 20 63  1  1
 21 64  1  6
 22 65  1  1
 23 66  1  1
 24 67  1  0
 25 68  1  0
 26 69  1  0
 27 70  1  0
 27 71  1  0
 28 72  1  0
 28 73  1  0
 28 74  1  0
 30 75  1  1
 32 76  1  6
 33 77  1  1
 34 78  1  6
 35 79  1  1
 36 80  1  0
 36 81  1  0
 36 82  1  0
 37 83  1  0
 38 84  1  0
 39 85  1  0
 39 86  1  0
 40 87  1  0
M  CHG  4  14   1  15   1  28   1  36   1
M  END
>  <score>  (8) 
-6.833

$$$$
=
     RDKit          3D

 87 89  0  0  0  0  0  0  0  0999 V2000
    2.3300   57.6690   72.9510 C   0  0  2  0  0  0  0  0  0  0  0  0
    2.9440   57.6840   71.5370 C   0  0  0  0  0  0  0  0  0  0  0  0
    2.8880   59.0940   70.9740 C   0  0  1  0  0  0  0  0  0  0  0  0
    3.7590   60.0500   71.8050 C   0  0  2  0  0  0  0  0  0  0  0  0
    3.2930   60.0520   73.2840 C   0  0  1  0  0  0  0  0  0  0  0  0
    3.0850   58.6390   73.9160 C   0  0  1  0  0  0  0  0  0  0  0  0
    1.0480   55.7120   73.7930 C   0  0  0  0  0  0  0  0  0  0  0  0
   -0.0180   56.1840   73.4070 O   0  0  0  0  0  0  0  0  0  0  0  0
    2.2710   56.3030   73.5080 N   0  0  0  0  0  0  0  0  0  0  0  0
    1.0990   54.4190   74.6420 C   0  0  1  0  0  0  0  0  0  0  0  0
    0.6540   54.6300   75.9830 O   0  0  0  0  0  0  0  0  0  0  0  0
    0.2290   53.3170   74.0190 C   0  0  0  0  0  0  0  0  0  0  0  0
   -1.0210   52.9680   74.8370 C   0  0  0  0  0  0  0  0  0  0  0  0
   -1.9830   54.0940   74.8280 N   0  0  0  0  0  4  0  0  0  0  0  0
    3.3530   59.1120   69.5520 N   0  0  0  0  0  4  0  0  0  0  0  0
    4.2690   60.7930   74.0300 O   0  0  0  0  0  0  0  0  0  0  0  0
    3.6120   61.3450   71.1840 O   0  0  0  0  0  0  0  0  0  0  0  0
    2.3480   62.0050   71.4070 C   0  0  1  0  0  0  0  0  0  0  0  0
    2.2440   62.2280   72.8320 O   0  0  0  0  0  0  0  0  0  0  0  0
    1.5830   63.4590   73.2060 C   0  0  1  0  0  0  0  0  0  0  0  0
    0.4380   63.7770   72.2340 C   0  0  2  0  0  0  0  0  0  0  0  0
    1.0100   64.0860   70.8390 C   0  0  1  0  0  0  0  0  0  0  0  0
    2.3050   63.3070   70.5700 C   0  0  1  0  0  0  0  0  0  0  0  0
   -0.3540   64.8730   72.7140 O   0  0  0  0  0  0  0  0  0  0  0  0
    0.0010   63.7310   69.8900 O   0  0  0  0  0  0  0  0  0  0  0  0
    3.4170   64.1430   70.9320 O   0  0  0  0  0  0  0  0  0  0  0  0
    1.0820   63.3670   74.6650 C   0  0  0  0  0  0  0  0  0  0  0  0
    1.8950   64.2040   75.5830 N   0  0  0  0  0  4  0  0  0  0  0  0
    2.2900   58.6570   75.1320 O   0  0  0  0  0  0  0  0  0  0  0  0
    1.2310   59.6220   75.1910 C   0  0  1  0  0  0  0  0  0  0  0  0
   -0.0420   58.9810   75.1750 O   0  0  0  0  0  0  0  0  0  0  0  0
   -0.3050   58.1300   76.3000 C   0  0  1  0  0  0  0  0  0  0  0  0
   -0.2370   58.9200   77.6180 C   0  0  2  0  0  0  0  0  0  0  0  0
    1.1080   59.6370   77.6960 C   0  0  1  0  0  0  0  0  0  0  0  0
    1.3550   60.5060   76.4640 C   0  0  1  0  0  0  0  0  0  0  0  0
    1.1450   60.4530   78.9590 N   0  0  0  0  0  4  0  0  0  0  0  0
    2.6430   61.1240   76.5870 O   0  0  0  0  0  0  0  0  0  0  0  0
   -0.3290   58.1040   78.7850 O   0  0  0  0  0  0  0  0  0  0  0  0
   -1.6910   57.4910   76.1180 C   0  0  0  0  0  0  0  0  0  0  0  0
   -1.7580   56.2830   76.8650 O   0  0  0  0  0  0  0  0  0  0  0  0
    1.2958   58.0313   72.8557 H   0  0  0  0  0  0  0  0  0  0  0  0
    3.9912   57.3514   71.5887 H   0  0  0  0  0  0  0  0  0  0  0  0
    2.3751   57.0061   70.8837 H   0  0  0  0  0  0  0  0  0  0  0  0
    1.8417   59.4306   71.0189 H   0  0  0  0  0  0  0  0  0  0  0  0
    4.8167   59.7483   71.8235 H   0  0  0  0  0  0  0  0  0  0  0  0
    2.2940   60.5111   73.3183 H   0  0  0  0  0  0  0  0  0  0  0  0
    4.1100   58.3004   74.1276 H   0  0  0  0  0  0  0  0  0  0  0  0
    3.1433   55.7851   73.6863 H   0  0  0  0  0  0  0  0  0  0  0  0
    2.1548   54.1110   74.6599 H   0  0  0  0  0  0  0  0  0  0  0  0
    1.3429   54.3034   76.6145 H   0  0  0  0  0  0  0  0  0  0  0  0
   -0.0931   53.6533   73.0224 H   0  0  0  0  0  0  0  0  0  0  0  0
    0.8474   52.4080   73.9815 H   0  0  0  0  0  0  0  0  0  0  0  0
   -1.5011   52.0793   74.4015 H   0  0  0  0  0  0  0  0  0  0  0  0
   -0.7197   52.7682   75.8759 H   0  0  0  0  0  0  0  0  0  0  0  0
   -2.2098   54.3595   75.7970 H   0  0  0  0  0  0  0  0  0  0  0  0
   -1.5647   54.8991   74.3404 H   0  0  0  0  0  0  0  0  0  0  0  0
   -2.8435   53.8065   74.3404 H   0  0  0  0  0  0  0  0  0  0  0  0
    4.3819   59.1518   69.5277 H   0  0  0  0  0  0  0  0  0  0  0  0
    3.0311   58.2579   69.0747 H   0  0  0  0  0  0  0  0  0  0  0  0
    2.9661   59.9386   69.0747 H   0  0  0  0  0  0  0  0  0  0  0  0
    4.1069   60.6700   74.9989 H   0  0  0  0  0  0  0  0  0  0  0  0
    1.4838   61.4062   71.0837 H   0  0  0  0  0  0  0  0  0  0  0  0
    2.3045   64.2870   73.1443 H   0  0  0  0  0  0  0  0  0  0  0  0
   -0.2187   62.8974   72.1629 H   0  0  0  0  0  0  0  0  0  0  0  0
    1.2704   65.1521   70.7638 H   0  0  0  0  0  0  0  0  0  0  0  0
    2.3516   63.0339   69.5054 H   0  0  0  0  0  0  0  0  0  0  0  0
   -0.3533   64.8720   73.7040 H   0  0  0  0  0  0  0  0  0  0  0  0
   -0.8162   63.4435   70.3692 H   0  0  0  0  0  0  0  0  0  0  0  0
    3.4844   64.1937   71.9184 H   0  0  0  0  0  0  0  0  0  0  0  0
    0.0369   63.7080   74.7044 H   0  0  0  0  0  0  0  0  0  0  0  0
    1.1698   62.3199   74.9904 H   0  0  0  0  0  0  0  0  0  0  0  0
    1.6646   63.9668   76.5585 H   0  0  0  0  0  0  0  0  0  0  0  0
    2.8954   64.0270   75.4137 H   0  0  0  0  0  0  0  0  0  0  0  0
    1.6889   65.1989   75.4137 H   0  0  0  0  0  0  0  0  0  0  0  0
    1.3178   60.2645   74.3024 H   0  0  0  0  0  0  0  0  0  0  0  0
    0.4624   57.3436   76.3518 H   0  0  0  0  0  0  0  0  0  0  0  0
   -1.0972   59.6055   77.6046 H   0  0  0  0  0  0  0  0  0  0  0  0
    1.9162   58.8910   77.7167 H   0  0  0  0  0  0  0  0  0  0  0  0
    0.6081   61.3092   76.3805 H   0  0  0  0  0  0  0  0  0  0  0  0
    1.1165   59.8247   79.7747 H   0  0  0  0  0  0  0  0  0  0  0  0
    2.0120   61.0085   78.9836 H   0  0  0  0  0  0  0  0  0  0  0  0
    0.3318   61.0846   78.9836 H   0  0  0  0  0  0  0  0  0  0  0  0
    2.8672   61.2316   77.5452 H   0  0  0  0  0  0  0  0  0  0  0  0
   -0.2648   58.6738   79.5920 H   0  0  0  0  0  0  0  0  0  0  0  0
   -2.4650   58.1863   76.4751 H   0  0  0  0  0  0  0  0  0  0  0  0
   -1.8571   57.2729   75.0527 H   0  0  0  0  0  0  0  0  0  0  0  0
   -1.7464   56.4923   77.8326 H   0  0  0  0  0  0  0  0  0  0  0  0
  2  1  1  0
  3  2  1  0
  4  3  1  0
  5  4  1  0
  6  5  1  0
  6  1  1  0
  8  7  2  0
  9  7  1  0
  9  1  1  0
 10  7  1  0
 11 10  1  0
 12 10  1  0
 13 12  1  0
 14 13  1  0
 15  3  1  0
 16  5  1  0
 17  4  1  0
 18 17  1  0
 19 18  1  0
 20 19  1  0
 21 20  1  0
 22 21  1  0
 23 18  1  0
 23 22  1  0
 24 21  1  0
 25 22  1  0
 26 23  1  0
 27 20  1  0
 28 27  1  0
 29  6  1  0
 30 29  1  0
 31 30  1  0
 32 31  1  0
 33 32  1  0
 34 33  1  0
 35 34  1  0
 35 30  1  0
 36 34  1  0
 37 35  1  0
 38 33  1  0
 39 32  1  0
 40 39  1  0
  1 41  1  6
  2 42  1  0
  2 43  1  0
  3 44  1  6
  4 45  1  1
  5 46  1  6
  6 47  1  1
  9 48  1  0
 10 49  1  1
 11 50  1  0
 12 51  1  0
 12 52  1  0
 13 53  1  0
 13 54  1  0
 14 55  1  0
 14 56  1  0
 14 57  1  0
 15 58  1  0
 15 59  1  0
 15 60  1  0
 16 61  1  0
 18 62  1  6
 20 63  1  1
 21 64  1  6
 22 65  1  1
 23 66  1  6
 24 67  1  0
 25 68  1  0
 26 69  1  0
 27 70  1  0
 27 71  1  0
 28 72  1  0
 28 73  1  0
 28 74  1  0
 30 75  1  6
 32 76  1  1
 33 77  1  6
 34 78  1  1
 35 79  1  6
 36 80  1  0
 36 81  1  0
 36 82  1  0
 37 83  1  0
 38 84  1  0
 39 85  1  0
 39 86  1  0
 40 87  1  0
M  CHG  4  14   1  15   1  28   1  36   1
M  END
>  <score>  (9) 
-6.767

$$$$
