=
     RDKit          3D

 55 58  0  0  0  0  0  0  0  0999 V2000
   -0.4610   59.2630   74.6810 C   0  0  0  0  0  0  0  0  0  0  0  0
    0.4680   58.6420   73.9350 C   0  0  0  0  0  0  0  0  0  0  0  0
    1.3090   59.2610   73.0380 O   0  0  0  0  0  0  0  0  0  0  0  0
    1.2140   60.6160   72.8440 C   0  0  0  0  0  0  0  0  0  0  0  0
    0.3100   61.4080   73.5570 C   0  0  0  0  0  0  0  0  0  0  0  0
   -0.5680   60.7450   74.5510 C   0  0  0  0  0  0  0  0  0  0  0  0
   -1.3610   61.3620   75.2530 O   0  0  0  0  0  0  0  0  0  0  0  0
    0.2690   62.7870   73.3070 C   0  0  0  0  0  0  0  0  0  0  0  0
    1.1200   63.3600   72.3620 C   0  0  0  0  0  0  0  0  0  0  0  0
    2.0200   62.5620   71.6550 C   0  0  0  0  0  0  0  0  0  0  0  0
    2.0760   61.1860   71.8870 C   0  0  0  0  0  0  0  0  0  0  0  0
    3.0280   60.3840   71.1250 C   0  0  0  0  0  0  0  0  0  0  0  0
    3.8070   61.0000   70.2310 C   0  0  0  0  0  0  0  0  0  0  0  0
    3.7560   62.4840   69.9660 C   0  0  0  0  0  0  0  0  0  0  0  0
    2.8060   63.2260   70.7560 O   0  0  0  0  0  0  0  0  0  0  0  0
    3.3820   62.7250   68.4990 C   0  0  0  0  0  0  0  0  0  0  0  0
    5.1300   63.0980   70.2550 C   0  0  0  0  0  0  0  0  0  0  0  0
    0.7010   57.1900   73.9890 C   0  0  0  0  0  0  0  0  0  0  0  0
   -0.3570   56.3290   73.6550 C   0  0  0  0  0  0  0  0  0  0  0  0
   -0.1970   54.9420   73.7230 C   0  0  0  0  0  0  0  0  0  0  0  0
    1.0230   54.4150   74.1330 C   0  0  0  0  0  0  0  0  0  0  0  0
    2.0810   55.2490   74.4750 C   0  0  0  0  0  0  0  0  0  0  0  0
    1.9210   56.6300   74.3970 C   0  0  0  0  0  0  0  0  0  0  0  0
    3.0130   57.3850   74.7320 O   0  0  0  0  0  0  0  0  0  0  0  0
    1.2220   53.0680   74.2150 O   0  0  0  0  0  0  0  0  0  0  0  0
   -0.6020   63.6010   73.9750 O   0  0  0  0  0  0  0  0  0  0  0  0
   -1.3920   58.6110   75.6760 C   0  0  0  0  0  0  0  0  0  0  0  0
   -4.0930   59.8390   76.7930 C   0  0  0  0  0  0  0  0  0  0  0  0
   -3.9410   58.9700   75.5750 C   0  0  0  0  0  0  0  0  0  0  0  0
   -2.7830   58.4570   75.1140 C   0  0  0  0  0  0  0  0  0  0  0  0
   -5.2360   58.7000   74.8520 C   0  0  0  0  0  0  0  0  0  0  0  0
    1.0815   64.4431   72.1738 H   0  0  0  0  0  0  0  0  0  0  0  0
    3.1025   59.2979   71.2829 H   0  0  0  0  0  0  0  0  0  0  0  0
    4.5233   60.3928   69.6581 H   0  0  0  0  0  0  0  0  0  0  0  0
    2.4583   63.3202   68.4491 H   0  0  0  0  0  0  0  0  0  0  0  0
    4.1962   63.2688   67.9976 H   0  0  0  0  0  0  0  0  0  0  0  0
    3.2232   61.7589   67.9976 H   0  0  0  0  0  0  0  0  0  0  0  0
    5.2802   63.1651   71.3426 H   0  0  0  0  0  0  0  0  0  0  0  0
    5.9145   62.4648   69.8149 H   0  0  0  0  0  0  0  0  0  0  0  0
    5.1816   64.1048   69.8149 H   0  0  0  0  0  0  0  0  0  0  0  0
   -1.3218   56.7505   73.3365 H   0  0  0  0  0  0  0  0  0  0  0  0
   -1.0284   54.2735   73.4547 H   0  0  0  0  0  0  0  0  0  0  0  0
    3.0388   54.8207   74.8053 H   0  0  0  0  0  0  0  0  0  0  0  0
    2.9615   58.3730   74.6964 H   0  0  0  0  0  0  0  0  0  0  0  0
    2.0985   52.7141   74.5093 H   0  0  0  0  0  0  0  0  0  0  0  0
   -0.6165   64.5725   73.7850 H   0  0  0  0  0  0  0  0  0  0  0  0
   -0.9990   57.6167   75.9345 H   0  0  0  0  0  0  0  0  0  0  0  0
   -1.4493   59.2537   76.5669 H   0  0  0  0  0  0  0  0  0  0  0  0
   -3.9853   59.2235   77.6983 H   0  0  0  0  0  0  0  0  0  0  0  0
   -3.3177   60.6193   76.7858 H   0  0  0  0  0  0  0  0  0  0  0  0
   -5.0871   60.3098   76.7858 H   0  0  0  0  0  0  0  0  0  0  0  0
   -2.8634   57.8429   74.2049 H   0  0  0  0  0  0  0  0  0  0  0  0
   -6.0379   58.5328   75.5862 H   0  0  0  0  0  0  0  0  0  0  0  0
   -5.4908   59.5643   74.2211 H   0  0  0  0  0  0  0  0  0  0  0  0
   -5.1242   57.8059   74.2211 H   0  0  0  0  0  0  0  0  0  0  0  0
  2  1  2  0
  3  2  1  0
  4  3  1  0
  5  4  2  0
  6  1  1  0
  6  5  1  0
  7  6  2  0
  8  5  1  0
  9  8  2  0
 10  9  1  0
 11 10  2  0
 11  4  1  0
 12 11  1  0
 13 12  2  0
 14 13  1  0
 15 14  1  0
 15 10  1  0
 16 14  1  0
 17 14  1  0
 18  2  1  0
 19 18  2  0
 20 19  1  0
 21 20  2  0
 22 21  1  0
 23 22  2  0
 23 18  1  0
 24 23  1  0
 25 21  1  0
 26  8  1  0
 27  1  1  0
 29 28  1  0
 30 29  2  3
 30 27  1  0
 31 29  1  0
  9 32  1  0
 12 33  1  0
 13 34  1  0
 16 35  1  0
 16 36  1  0
 16 37  1  0
 17 38  1  0
 17 39  1  0
 17 40  1  0
 19 41  1  0
 20 42  1  0
 22 43  1  0
 24 44  1  0
 25 45  1  0
 26 46  1  0
 27 47  1  0
 27 48  1  0
 28 49  1  0
 28 50  1  0
 28 51  1  0
 30 52  1  0
 31 53  1  0
 31 54  1  0
 31 55  1  0
M  END
>  <score>  (1) 
-8.857

$$$$
=
     RDKit          3D

 55 58  0  0  0  0  0  0  0  0999 V2000
    0.0440   58.5000   73.8810 C   0  0  0  0  0  0  0  0  0  0  0  0
   -0.1480   59.8230   73.7470 C   0  0  0  0  0  0  0  0  0  0  0  0
    0.5950   60.6550   72.9380 O   0  0  0  0  0  0  0  0  0  0  0  0
    1.6360   60.1370   72.2080 C   0  0  0  0  0  0  0  0  0  0  0  0
    1.9510   58.7750   72.2250 C   0  0  0  0  0  0  0  0  0  0  0  0
    1.1250   57.8760   73.0660 C   0  0  0  0  0  0  0  0  0  0  0  0
    1.3000   56.6630   73.1120 O   0  0  0  0  0  0  0  0  0  0  0  0
    3.0280   58.3160   71.4520 C   0  0  0  0  0  0  0  0  0  0  0  0
    3.7710   59.2070   70.6760 C   0  0  0  0  0  0  0  0  0  0  0  0
    3.4480   60.5640   70.6650 C   0  0  0  0  0  0  0  0  0  0  0  0
    2.3820   61.0420   71.4290 C   0  0  0  0  0  0  0  0  0  0  0  0
    2.0770   62.4690   71.3930 C   0  0  0  0  0  0  0  0  0  0  0  0
    2.8360   63.2630   70.6320 C   0  0  0  0  0  0  0  0  0  0  0  0
    3.9940   62.7630   69.8050 C   0  0  0  0  0  0  0  0  0  0  0  0
    4.2400   61.3440   69.8710 O   0  0  0  0  0  0  0  0  0  0  0  0
    5.2850   63.4480   70.2720 C   0  0  0  0  0  0  0  0  0  0  0  0
    3.7410   63.0890   68.3290 C   0  0  0  0  0  0  0  0  0  0  0  0
   -1.1990   60.5600   74.4670 C   0  0  0  0  0  0  0  0  0  0  0  0
   -2.5240   60.4440   74.0190 C   0  0  0  0  0  0  0  0  0  0  0  0
   -3.5540   61.1500   74.6470 C   0  0  0  0  0  0  0  0  0  0  0  0
   -3.2550   61.9800   75.7210 C   0  0  0  0  0  0  0  0  0  0  0  0
   -1.9490   62.1160   76.1770 C   0  0  0  0  0  0  0  0  0  0  0  0
   -0.9270   61.4040   75.5550 C   0  0  0  0  0  0  0  0  0  0  0  0
    0.3290   61.5750   76.0700 O   0  0  0  0  0  0  0  0  0  0  0  0
   -4.2290   62.6890   76.3620 O   0  0  0  0  0  0  0  0  0  0  0  0
    3.3780   56.9960   71.4420 O   0  0  0  0  0  0  0  0  0  0  0  0
   -0.7590   57.5660   74.7550 C   0  0  0  0  0  0  0  0  0  0  0  0
   -2.4490   58.4980   77.2710 C   0  0  0  0  0  0  0  0  0  0  0  0
   -1.0200   58.0300   77.2750 C   0  0  0  0  0  0  0  0  0  0  0  0
   -0.3170   57.6370   76.1950 C   0  0  0  0  0  0  0  0  0  0  0  0
   -0.3860   58.0190   78.6440 C   0  0  0  0  0  0  0  0  0  0  0  0
    4.6131   58.8384   70.0718 H   0  0  0  0  0  0  0  0  0  0  0  0
    1.2420   62.8811   71.9786 H   0  0  0  0  0  0  0  0  0  0  0  0
    2.6040   64.3380   70.6074 H   0  0  0  0  0  0  0  0  0  0  0  0
    5.3147   63.4637   71.3715 H   0  0  0  0  0  0  0  0  0  0  0  0
    6.1539   62.8923   69.8897 H   0  0  0  0  0  0  0  0  0  0  0  0
    5.3120   64.4791   69.8897 H   0  0  0  0  0  0  0  0  0  0  0  0
    3.0681   63.9560   68.2551 H   0  0  0  0  0  0  0  0  0  0  0  0
    4.6962   63.3231   67.8363 H   0  0  0  0  0  0  0  0  0  0  0  0
    3.2771   62.2218   67.8363 H   0  0  0  0  0  0  0  0  0  0  0  0
   -2.7543   59.7906   73.1646 H   0  0  0  0  0  0  0  0  0  0  0  0
   -4.5912   61.0497   74.2946 H   0  0  0  0  0  0  0  0  0  0  0  0
   -1.7245   62.7816   77.0235 H   0  0  0  0  0  0  0  0  0  0  0  0
    1.0974   61.0954   75.6704 H   0  0  0  0  0  0  0  0  0  0  0  0
   -3.9942   63.2745   77.1250 H   0  0  0  0  0  0  0  0  0  0  0  0
    4.1411   56.6904   70.8903 H   0  0  0  0  0  0  0  0  0  0  0  0
   -1.8214   57.8443   74.6934 H   0  0  0  0  0  0  0  0  0  0  0  0
   -0.6011   56.5381   74.3966 H   0  0  0  0  0  0  0  0  0  0  0  0
   -2.8001   58.6130   78.3071 H   0  0  0  0  0  0  0  0  0  0  0  0
   -2.5166   59.4652   76.7515 H   0  0  0  0  0  0  0  0  0  0  0  0
   -3.0757   57.7582   76.7515 H   0  0  0  0  0  0  0  0  0  0  0  0
    0.7199   57.3257   76.3900 H   0  0  0  0  0  0  0  0  0  0  0  0
   -1.1728   58.0327   79.4126 H   0  0  0  0  0  0  0  0  0  0  0  0
    0.2230   57.1102   78.7588 H   0  0  0  0  0  0  0  0  0  0  0  0
    0.2541   58.9062   78.7588 H   0  0  0  0  0  0  0  0  0  0  0  0
  2  1  2  0
  3  2  1  0
  4  3  1  0
  5  4  2  0
  6  1  1  0
  6  5  1  0
  7  6  2  0
  8  5  1  0
  9  8  2  0
 10  9  1  0
 11 10  2  0
 11  4  1  0
 12 11  1  0
 13 12  2  0
 14 13  1  0
 15 14  1  0
 15 10  1  0
 16 14  1  0
 17 14  1  0
 18  2  1  0
 19 18  2  0
 20 19  1  0
 21 20  2  0
 22 21  1  0
 23 22  2  0
 23 18  1  0
 24 23  1  0
 25 21  1  0
 26  8  1  0
 27  1  1  0
 29 28  1  0
 30 29  2  3
 30 27  1  0
 31 29  1  0
  9 32  1  0
 12 33  1  0
 13 34  1  0
 16 35  1  0
 16 36  1  0
 16 37  1  0
 17 38  1  0
 17 39  1  0
 17 40  1  0
 19 41  1  0
 20 42  1  0
 22 43  1  0
 24 44  1  0
 25 45  1  0
 26 46  1  0
 27 47  1  0
 27 48  1  0
 28 49  1  0
 28 50  1  0
 28 51  1  0
 30 52  1  0
 31 53  1  0
 31 54  1  0
 31 55  1  0
M  END
>  <score>  (2) 
-8.804

$$$$
=
     RDKit          3D

 55 58  0  0  0  0  0  0  0  0999 V2000
    2.0550   58.5090   72.2850 C   0  0  0  0  0  0  0  0  0  0  0  0
    1.3770   59.0840   73.2920 C   0  0  0  0  0  0  0  0  0  0  0  0
    0.9220   58.4330   74.4170 O   0  0  0  0  0  0  0  0  0  0  0  0
    1.1390   57.0840   74.5530 C   0  0  0  0  0  0  0  0  0  0  0  0
    1.8440   56.3440   73.6000 C   0  0  0  0  0  0  0  0  0  0  0  0
    2.3670   57.0560   72.4080 C   0  0  0  0  0  0  0  0  0  0  0  0
    3.0320   56.5000   71.5420 O   0  0  0  0  0  0  0  0  0  0  0  0
    2.0280   54.9690   73.8050 C   0  0  0  0  0  0  0  0  0  0  0  0
    1.5160   54.3510   74.9470 C   0  0  0  0  0  0  0  0  0  0  0  0
    0.8140   55.0970   75.8930 C   0  0  0  0  0  0  0  0  0  0  0  0
    0.6180   56.4670   75.7060 C   0  0  0  0  0  0  0  0  0  0  0  0
   -0.1250   57.2140   76.7170 C   0  0  0  0  0  0  0  0  0  0  0  0
   -0.5920   56.5540   77.7810 C   0  0  0  0  0  0  0  0  0  0  0  0
   -0.3920   55.0730   77.9950 C   0  0  0  0  0  0  0  0  0  0  0  0
    0.3590   54.3920   76.9700 O   0  0  0  0  0  0  0  0  0  0  0  0
   -1.7580   54.3810   78.0640 C   0  0  0  0  0  0  0  0  0  0  0  0
    0.3680   54.8490   79.3080 C   0  0  0  0  0  0  0  0  0  0  0  0
    1.0310   60.5140   73.3130 C   0  0  0  0  0  0  0  0  0  0  0  0
   -0.0720   60.9480   72.5600 C   0  0  0  0  0  0  0  0  0  0  0  0
   -0.4210   62.3010   72.5190 C   0  0  0  0  0  0  0  0  0  0  0  0
    0.3400   63.2230   73.2290 C   0  0  0  0  0  0  0  0  0  0  0  0
    1.4390   62.8170   73.9760 C   0  0  0  0  0  0  0  0  0  0  0  0
    1.7790   61.4670   74.0210 C   0  0  0  0  0  0  0  0  0  0  0  0
    2.8630   61.1430   74.7910 O   0  0  0  0  0  0  0  0  0  0  0  0
    0.0350   64.5530   73.2160 O   0  0  0  0  0  0  0  0  0  0  0  0
    2.7050   54.2040   72.8990 O   0  0  0  0  0  0  0  0  0  0  0  0
    2.5700   59.2000   71.0450 C   0  0  0  0  0  0  0  0  0  0  0  0
    2.9900   62.2920   70.4820 C   0  0  0  0  0  0  0  0  0  0  0  0
    3.9820   61.3530   71.1110 C   0  0  0  0  0  0  0  0  0  0  0  0
    3.7860   60.0400   71.3430 C   0  0  0  0  0  0  0  0  0  0  0  0
    5.2830   62.0100   71.4990 C   0  0  0  0  0  0  0  0  0  0  0  0
    1.6667   53.2723   75.1011 H   0  0  0  0  0  0  0  0  0  0  0  0
   -0.2963   58.2948   76.6054 H   0  0  0  0  0  0  0  0  0  0  0  0
   -1.1515   57.1195   78.5407 H   0  0  0  0  0  0  0  0  0  0  0  0
   -2.0431   54.2366   79.1165 H   0  0  0  0  0  0  0  0  0  0  0  0
   -2.5115   55.0061   77.5625 H   0  0  0  0  0  0  0  0  0  0  0  0
   -1.6997   53.4037   77.5625 H   0  0  0  0  0  0  0  0  0  0  0  0
   -0.3020   55.0465   80.1578 H   0  0  0  0  0  0  0  0  0  0  0  0
    0.7217   53.8084   79.3540 H   0  0  0  0  0  0  0  0  0  0  0  0
    1.2295   55.5314   79.3540 H   0  0  0  0  0  0  0  0  0  0  0  0
   -0.6679   60.2152   71.9962 H   0  0  0  0  0  0  0  0  0  0  0  0
   -1.2892   62.6330   71.9308 H   0  0  0  0  0  0  0  0  0  0  0  0
    2.0367   63.5570   74.5283 H   0  0  0  0  0  0  0  0  0  0  0  0
    3.1546   60.1997   74.8634 H   0  0  0  0  0  0  0  0  0  0  0  0
    0.5898   65.1931   73.7285 H   0  0  0  0  0  0  0  0  0  0  0  0
    2.8249   53.2347   73.0610 H   0  0  0  0  0  0  0  0  0  0  0  0
    2.8363   58.4390   70.2967 H   0  0  0  0  0  0  0  0  0  0  0  0
    1.7781   59.8628   70.6661 H   0  0  0  0  0  0  0  0  0  0  0  0
    2.4331   62.8192   71.2706 H   0  0  0  0  0  0  0  0  0  0  0  0
    3.5231   63.0241   69.8576 H   0  0  0  0  0  0  0  0  0  0  0  0
    2.2882   61.7196   69.8576 H   0  0  0  0  0  0  0  0  0  0  0  0
    4.6269   59.5094   71.8134 H   0  0  0  0  0  0  0  0  0  0  0  0
    5.3611   62.0495   72.5955 H   0  0  0  0  0  0  0  0  0  0  0  0
    6.1232   61.4281   71.0922 H   0  0  0  0  0  0  0  0  0  0  0  0
    5.3135   63.0316   71.0922 H   0  0  0  0  0  0  0  0  0  0  0  0
  2  1  2  0
  3  2  1  0
  4  3  1  0
  5  4  2  0
  6  1  1  0
  6  5  1  0
  7  6  2  0
  8  5  1  0
  9  8  2  0
 10  9  1  0
 11 10  2  0
 11  4  1  0
 12 11  1  0
 13 12  2  0
 14 13  1  0
 15 14  1  0
 15 10  1  0
 16 14  1  0
 17 14  1  0
 18  2  1  0
 19 18  2  0
 20 19  1  0
 21 20  2  0
 22 21  1  0
 23 22  2  0
 23 18  1  0
 24 23  1  0
 25 21  1  0
 26  8  1  0
 27  1  1  0
 29 28  1  0
 30 29  2  3
 30 27  1  0
 31 29  1  0
  9 32  1  0
 12 33  1  0
 13 34  1  0
 16 35  1  0
 16 36  1  0
 16 37  1  0
 17 38  1  0
 17 39  1  0
 17 40  1  0
 19 41  1  0
 20 42  1  0
 22 43  1  0
 24 44  1  0
 25 45  1  0
 26 46  1  0
 27 47  1  0
 27 48  1  0
 28 49  1  0
 28 50  1  0
 28 51  1  0
 30 52  1  0
 31 53  1  0
 31 54  1  0
 31 55  1  0
M  END
>  <score>  (3) 
-8.564

$$$$
=
     RDKit          3D

 55 58  0  0  0  0  0  0  0  0999 V2000
    1.4460   61.1370   73.1830 C   0  0  0  0  0  0  0  0  0  0  0  0
    0.3250   61.8490   72.9750 C   0  0  0  0  0  0  0  0  0  0  0  0
   -0.9360   61.4850   73.3930 O   0  0  0  0  0  0  0  0  0  0  0  0
   -1.1110   60.3000   74.0620 C   0  0  0  0  0  0  0  0  0  0  0  0
   -0.0420   59.4540   74.3720 C   0  0  0  0  0  0  0  0  0  0  0  0
    1.3200   59.8680   73.9550 C   0  0  0  0  0  0  0  0  0  0  0  0
    2.3220   59.2130   74.2180 O   0  0  0  0  0  0  0  0  0  0  0  0
   -0.2970   58.2590   75.0590 C   0  0  0  0  0  0  0  0  0  0  0  0
   -1.5990   57.9200   75.4290 C   0  0  0  0  0  0  0  0  0  0  0  0
   -2.6600   58.7700   75.1170 C   0  0  0  0  0  0  0  0  0  0  0  0
   -2.4280   59.9640   74.4310 C   0  0  0  0  0  0  0  0  0  0  0  0
   -3.5650   60.8260   74.1190 C   0  0  0  0  0  0  0  0  0  0  0  0
   -4.7840   60.4340   74.4990 C   0  0  0  0  0  0  0  0  0  0  0  0
   -5.0510   59.1440   75.2370 C   0  0  0  0  0  0  0  0  0  0  0  0
   -3.8900   58.3410   75.5270 O   0  0  0  0  0  0  0  0  0  0  0  0
   -5.9870   58.2650   74.3990 C   0  0  0  0  0  0  0  0  0  0  0  0
   -5.7070   59.4590   76.5860 C   0  0  0  0  0  0  0  0  0  0  0  0
    0.3120   63.1340   72.2570 C   0  0  0  0  0  0  0  0  0  0  0  0
    0.6340   63.1410   70.8910 C   0  0  0  0  0  0  0  0  0  0  0  0
    0.6680   64.3390   70.1720 C   0  0  0  0  0  0  0  0  0  0  0  0
    0.3870   65.5340   70.8240 C   0  0  0  0  0  0  0  0  0  0  0  0
    0.0720   65.5510   72.1780 C   0  0  0  0  0  0  0  0  0  0  0  0
    0.0300   64.3550   72.8890 C   0  0  0  0  0  0  0  0  0  0  0  0
   -0.3050   64.4510   74.2130 O   0  0  0  0  0  0  0  0  0  0  0  0
    0.4110   66.7270   70.1620 O   0  0  0  0  0  0  0  0  0  0  0  0
    0.7150   57.3980   75.3770 O   0  0  0  0  0  0  0  0  0  0  0  0
    2.8390   61.5150   72.7410 C   0  0  0  0  0  0  0  0  0  0  0  0
    4.4480   62.8080   70.3340 C   0  0  0  0  0  0  0  0  0  0  0  0
    3.8720   61.4200   70.3830 C   0  0  0  0  0  0  0  0  0  0  0  0
    3.1900   60.8870   71.4160 C   0  0  0  0  0  0  0  0  0  0  0  0
    4.1250   60.6090   69.1370 C   0  0  0  0  0  0  0  0  0  0  0  0
   -1.7891   56.9802   75.9680 H   0  0  0  0  0  0  0  0  0  0  0  0
   -3.4208   61.7760   73.5835 H   0  0  0  0  0  0  0  0  0  0  0  0
   -5.6383   61.0851   74.2619 H   0  0  0  0  0  0  0  0  0  0  0  0
   -6.6240   57.6668   75.0671 H   0  0  0  0  0  0  0  0  0  0  0  0
   -6.6191   58.9035   73.7644 H   0  0  0  0  0  0  0  0  0  0  0  0
   -5.3894   57.5941   73.7644 H   0  0  0  0  0  0  0  0  0  0  0  0
   -5.0411   59.1393   77.4011 H   0  0  0  0  0  0  0  0  0  0  0  0
   -5.8866   60.5415   76.6625 H   0  0  0  0  0  0  0  0  0  0  0  0
   -6.6641   58.9223   76.6625 H   0  0  0  0  0  0  0  0  0  0  0  0
    0.8620   62.1935   70.3808 H   0  0  0  0  0  0  0  0  0  0  0  0
    0.9148   64.3362   69.1001 H   0  0  0  0  0  0  0  0  0  0  0  0
   -0.1427   66.5036   72.6843 H   0  0  0  0  0  0  0  0  0  0  0  0
   -0.3518   63.6354   74.7721 H   0  0  0  0  0  0  0  0  0  0  0  0
    0.2075   67.5661   70.6464 H   0  0  0  0  0  0  0  0  0  0  0  0
    0.5164   56.5584   75.8626 H   0  0  0  0  0  0  0  0  0  0  0  0
    2.8984   62.6091   72.6444 H   0  0  0  0  0  0  0  0  0  0  0  0
    3.5509   61.1482   73.4951 H   0  0  0  0  0  0  0  0  0  0  0  0
    4.6014   63.1777   71.3586 H   0  0  0  0  0  0  0  0  0  0  0  0
    5.4115   62.7866   69.8038 H   0  0  0  0  0  0  0  0  0  0  0  0
    3.7524   63.4751   69.8038 H   0  0  0  0  0  0  0  0  0  0  0  0
    2.8422   59.8533   71.2730 H   0  0  0  0  0  0  0  0  0  0  0  0
    4.4417   59.5938   69.4183 H   0  0  0  0  0  0  0  0  0  0  0  0
    3.2015   60.5533   68.5419 H   0  0  0  0  0  0  0  0  0  0  0  0
    4.9163   61.0883   68.5419 H   0  0  0  0  0  0  0  0  0  0  0  0
  2  1  2  0
  3  2  1  0
  4  3  1  0
  5  4  2  0
  6  1  1  0
  6  5  1  0
  7  6  2  0
  8  5  1  0
  9  8  2  0
 10  9  1  0
 11 10  2  0
 11  4  1  0
 12 11  1  0
 13 12  2  0
 14 13  1  0
 15 14  1  0
 15 10  1  0
 16 14  1  0
 17 14  1  0
 18  2  1  0
 19 18  2  0
 20 19  1  0
 21 20  2  0
 22 21  1  0
 23 22  2  0
 23 18  1  0
 24 23  1  0
 25 21  1  0
 26  8  1  0
 27  1  1  0
 29 28  1  0
 30 29  2  3
 30 27  1  0
 31 29  1  0
  9 32  1  0
 12 33  1  0
 13 34  1  0
 16 35  1  0
 16 36  1  0
 16 37  1  0
 17 38  1  0
 17 39  1  0
 17 40  1  0
 19 41  1  0
 20 42  1  0
 22 43  1  0
 24 44  1  0
 25 45  1  0
 26 46  1  0
 27 47  1  0
 27 48  1  0
 28 49  1  0
 28 50  1  0
 28 51  1  0
 30 52  1  0
 31 53  1  0
 31 54  1  0
 31 55  1  0
M  END
>  <score>  (4) 
-8.328

$$$$
=
     RDKit          3D

 55 58  0  0  0  0  0  0  0  0999 V2000
    1.8550   68.0150   64.1250 C   0  0  0  0  0  0  0  0  0  0  0  0
    1.5120   68.4340   65.3550 C   0  0  0  0  0  0  0  0  0  0  0  0
    2.3660   69.0300   66.2570 O   0  0  0  0  0  0  0  0  0  0  0  0
    3.6840   69.2120   65.9240 C   0  0  0  0  0  0  0  0  0  0  0  0
    4.1930   68.8460   64.6740 C   0  0  0  0  0  0  0  0  0  0  0  0
    3.2630   68.2410   63.6900 C   0  0  0  0  0  0  0  0  0  0  0  0
    3.6090   67.9280   62.5570 O   0  0  0  0  0  0  0  0  0  0  0  0
    5.5520   69.0640   64.4020 C   0  0  0  0  0  0  0  0  0  0  0  0
    6.3820   69.6390   65.3650 C   0  0  0  0  0  0  0  0  0  0  0  0
    5.8650   70.0020   66.6090 C   0  0  0  0  0  0  0  0  0  0  0  0
    4.5160   69.7920   66.9010 C   0  0  0  0  0  0  0  0  0  0  0  0
    4.0130   70.1820   68.2150 C   0  0  0  0  0  0  0  0  0  0  0  0
    4.8680   70.7210   69.0890 C   0  0  0  0  0  0  0  0  0  0  0  0
    6.3290   70.9500   68.7900 C   0  0  0  0  0  0  0  0  0  0  0  0
    6.7650   70.5570   67.4740 O   0  0  0  0  0  0  0  0  0  0  0  0
    7.1810   70.1530   69.7850 C   0  0  0  0  0  0  0  0  0  0  0  0
    6.6450   72.4450   68.9210 C   0  0  0  0  0  0  0  0  0  0  0  0
    0.1510   68.3020   65.8980 C   0  0  0  0  0  0  0  0  0  0  0  0
   -0.8860   69.0260   65.2870 C   0  0  0  0  0  0  0  0  0  0  0  0
   -2.1910   68.9610   65.7860 C   0  0  0  0  0  0  0  0  0  0  0  0
   -2.4560   68.1770   66.9030 C   0  0  0  0  0  0  0  0  0  0  0  0
   -1.4430   67.4590   67.5270 C   0  0  0  0  0  0  0  0  0  0  0  0
   -0.1470   67.5170   67.0220 C   0  0  0  0  0  0  0  0  0  0  0  0
    0.7920   66.7690   67.6800 O   0  0  0  0  0  0  0  0  0  0  0  0
   -3.7140   68.0870   67.4230 O   0  0  0  0  0  0  0  0  0  0  0  0
    6.0960   68.7160   63.1990 O   0  0  0  0  0  0  0  0  0  0  0  0
    0.9400   67.3660   63.1150 C   0  0  0  0  0  0  0  0  0  0  0  0
    1.7510   69.4730   60.8890 C   0  0  0  0  0  0  0  0  0  0  0  0
    0.3840   69.2840   61.4870 C   0  0  0  0  0  0  0  0  0  0  0  0
    0.0570   68.3810   62.4340 C   0  0  0  0  0  0  0  0  0  0  0  0
   -0.6630   70.2120   60.9250 C   0  0  0  0  0  0  0  0  0  0  0  0
    7.4463   69.8065   65.1429 H   0  0  0  0  0  0  0  0  0  0  0  0
    2.9553   70.0356   68.4792 H   0  0  0  0  0  0  0  0  0  0  0  0
    4.4866   71.0131   70.0786 H   0  0  0  0  0  0  0  0  0  0  0  0
    6.8933   70.4222   70.8120 H   0  0  0  0  0  0  0  0  0  0  0  0
    7.0169   69.0766   69.6284 H   0  0  0  0  0  0  0  0  0  0  0  0
    8.2440   70.3884   69.6284 H   0  0  0  0  0  0  0  0  0  0  0  0
    6.7022   72.7158   69.9856 H   0  0  0  0  0  0  0  0  0  0  0  0
    7.6084   72.6600   68.4357 H   0  0  0  0  0  0  0  0  0  0  0  0
    5.8510   73.0315   68.4357 H   0  0  0  0  0  0  0  0  0  0  0  0
   -0.6697   69.6502   64.4075 H   0  0  0  0  0  0  0  0  0  0  0  0
   -3.0002   69.5250   65.2991 H   0  0  0  0  0  0  0  0  0  0  0  0
   -1.6639   66.8483   68.4149 H   0  0  0  0  0  0  0  0  0  0  0  0
    1.7317   66.7688   67.3686 H   0  0  0  0  0  0  0  0  0  0  0  0
   -3.8813   67.5229   68.2192 H   0  0  0  0  0  0  0  0  0  0  0  0
    7.0571   68.8775   63.0251 H   0  0  0  0  0  0  0  0  0  0  0  0
    1.5509   66.8570   62.3549 H   0  0  0  0  0  0  0  0  0  0  0  0
    0.2954   66.6493   63.6449 H   0  0  0  0  0  0  0  0  0  0  0  0
    2.4927   69.5756   61.6948 H   0  0  0  0  0  0  0  0  0  0  0  0
    2.0030   68.6012   60.2674 H   0  0  0  0  0  0  0  0  0  0  0  0
    1.7570   70.3805   60.2674 H   0  0  0  0  0  0  0  0  0  0  0  0
   -0.9959   68.3856   62.7525 H   0  0  0  0  0  0  0  0  0  0  0  0
   -1.2069   70.6941   61.7507 H   0  0  0  0  0  0  0  0  0  0  0  0
   -0.1772   70.9816   60.3071 H   0  0  0  0  0  0  0  0  0  0  0  0
   -1.3687   69.6373   60.3071 H   0  0  0  0  0  0  0  0  0  0  0  0
  2  1  2  0
  3  2  1  0
  4  3  1  0
  5  4  2  0
  6  1  1  0
  6  5  1  0
  7  6  2  0
  8  5  1  0
  9  8  2  0
 10  9  1  0
 11 10  2  0
 11  4  1  0
 12 11  1  0
 13 12  2  0
 14 13  1  0
 15 14  1  0
 15 10  1  0
 16 14  1  0
 17 14  1  0
 18  2  1  0
 19 18  2  0
 20 19  1  0
 21 20  2  0
 22 21  1  0
 23 22  2  0
 23 18  1  0
 24 23  1  0
 25 21  1  0
 26  8  1  0
 27  1  1  0
 29 28  1  0
 30 29  2  3
 30 27  1  0
 31 29  1  0
  9 32  1  0
 12 33  1  0
 13 34  1  0
 16 35  1  0
 16 36  1  0
 16 37  1  0
 17 38  1  0
 17 39  1  0
 17 40  1  0
 19 41  1  0
 20 42  1  0
 22 43  1  0
 24 44  1  0
 25 45  1  0
 26 46  1  0
 27 47  1  0
 27 48  1  0
 28 49  1  0
 28 50  1  0
 28 51  1  0
 30 52  1  0
 31 53  1  0
 31 54  1  0
 31 55  1  0
M  END
>  <score>  (5) 
-8.208

$$$$
=
     RDKit          3D

 55 58  0  0  0  0  0  0  0  0999 V2000
   -1.4610   59.9770   74.9830 C   0  0  0  0  0  0  0  0  0  0  0  0
   -0.6050   58.9800   74.7000 C   0  0  0  0  0  0  0  0  0  0  0  0
    0.5080   59.0940   73.8970 O   0  0  0  0  0  0  0  0  0  0  0  0
    0.7930   60.2970   73.3020 C   0  0  0  0  0  0  0  0  0  0  0  0
    0.0100   61.4350   73.5120 C   0  0  0  0  0  0  0  0  0  0  0  0
   -1.1660   61.3200   74.4080 C   0  0  0  0  0  0  0  0  0  0  0  0
   -1.8860   62.2730   74.6840 O   0  0  0  0  0  0  0  0  0  0  0  0
    0.3630   62.6320   72.8710 C   0  0  0  0  0  0  0  0  0  0  0  0
    1.4820   62.6850   72.0390 C   0  0  0  0  0  0  0  0  0  0  0  0
    2.2590   61.5440   71.8360 C   0  0  0  0  0  0  0  0  0  0  0  0
    1.9230   60.3420   72.4620 C   0  0  0  0  0  0  0  0  0  0  0  0
    2.7590   59.1690   72.2230 C   0  0  0  0  0  0  0  0  0  0  0  0
    3.8110   59.2920   71.4090 C   0  0  0  0  0  0  0  0  0  0  0  0
    4.1830   60.5830   70.7210 C   0  0  0  0  0  0  0  0  0  0  0  0
    3.3300   61.7090   71.0050 O   0  0  0  0  0  0  0  0  0  0  0  0
    4.1420   60.3790   69.2020 C   0  0  0  0  0  0  0  0  0  0  0  0
    5.5970   60.9940   71.1480 C   0  0  0  0  0  0  0  0  0  0  0  0
   -0.7600   57.6150   75.2270 C   0  0  0  0  0  0  0  0  0  0  0  0
   -1.4300   56.6650   74.4390 C   0  0  0  0  0  0  0  0  0  0  0  0
   -1.6320   55.3630   74.9090 C   0  0  0  0  0  0  0  0  0  0  0  0
   -1.1700   55.0150   76.1730 C   0  0  0  0  0  0  0  0  0  0  0  0
   -0.5110   55.9410   76.9720 C   0  0  0  0  0  0  0  0  0  0  0  0
   -0.3020   57.2340   76.4980 C   0  0  0  0  0  0  0  0  0  0  0  0
    0.3700   58.0830   77.3350 O   0  0  0  0  0  0  0  0  0  0  0  0
   -1.3480   53.7570   76.6710 O   0  0  0  0  0  0  0  0  0  0  0  0
   -0.3760   63.7680   73.0400 O   0  0  0  0  0  0  0  0  0  0  0  0
   -2.6840   59.8810   75.8640 C   0  0  0  0  0  0  0  0  0  0  0  0
   -4.5870   57.3830   76.3030 C   0  0  0  0  0  0  0  0  0  0  0  0
   -4.7280   58.4400   75.2440 C   0  0  0  0  0  0  0  0  0  0  0  0
   -3.9090   59.4970   75.0720 C   0  0  0  0  0  0  0  0  0  0  0  0
   -5.9160   58.2420   74.3370 C   0  0  0  0  0  0  0  0  0  0  0  0
    1.7521   63.6284   71.5421 H   0  0  0  0  0  0  0  0  0  0  0  0
    2.5279   58.2062   72.7022 H   0  0  0  0  0  0  0  0  0  0  0  0
    4.4388   58.4065   71.2308 H   0  0  0  0  0  0  0  0  0  0  0  0
    3.9297   59.3229   68.9795 H   0  0  0  0  0  0  0  0  0  0  0  0
    3.3529   61.0109   68.7683 H   0  0  0  0  0  0  0  0  0  0  0  0
    5.1140   60.6569   68.7683 H   0  0  0  0  0  0  0  0  0  0  0  0
    5.6578   61.0117   72.2462 H   0  0  0  0  0  0  0  0  0  0  0  0
    6.3245   60.2702   70.7521 H   0  0  0  0  0  0  0  0  0  0  0  0
    5.8232   61.9951   70.7521 H   0  0  0  0  0  0  0  0  0  0  0  0
   -1.7996   56.9475   73.4422 H   0  0  0  0  0  0  0  0  0  0  0  0
   -2.1515   54.6216   74.2842 H   0  0  0  0  0  0  0  0  0  0  0  0
   -0.1563   55.6547   77.9731 H   0  0  0  0  0  0  0  0  0  0  0  0
    0.5493   59.0154   77.0546 H   0  0  0  0  0  0  0  0  0  0  0  0
   -1.0112   53.5298   77.5738 H   0  0  0  0  0  0  0  0  0  0  0  0
   -0.1116   64.6036   72.5795 H   0  0  0  0  0  0  0  0  0  0  0  0
   -2.5070   59.1208   76.6391 H   0  0  0  0  0  0  0  0  0  0  0  0
   -2.8614   60.8681   76.3158 H   0  0  0  0  0  0  0  0  0  0  0  0
   -4.6492   57.8495   77.2972 H   0  0  0  0  0  0  0  0  0  0  0  0
   -5.3945   56.6442   76.1934 H   0  0  0  0  0  0  0  0  0  0  0  0
   -3.6140   56.8817   76.1934 H   0  0  0  0  0  0  0  0  0  0  0  0
   -4.1692   60.1703   74.2420 H   0  0  0  0  0  0  0  0  0  0  0  0
   -6.8203   58.0913   74.9449 H   0  0  0  0  0  0  0  0  0  0  0  0
   -6.0449   59.1311   73.7022 H   0  0  0  0  0  0  0  0  0  0  0  0
   -5.7496   57.3592   73.7022 H   0  0  0  0  0  0  0  0  0  0  0  0
  2  1  2  0
  3  2  1  0
  4  3  1  0
  5  4  2  0
  6  1  1  0
  6  5  1  0
  7  6  2  0
  8  5  1  0
  9  8  2  0
 10  9  1  0
 11 10  2  0
 11  4  1  0
 12 11  1  0
 13 12  2  0
 14 13  1  0
 15 14  1  0
 15 10  1  0
 16 14  1  0
 17 14  1  0
 18  2  1  0
 19 18  2  0
 20 19  1  0
 21 20  2  0
 22 21  1  0
 23 22  2  0
 23 18  1  0
 24 23  1  0
 25 21  1  0
 26  8  1  0
 27  1  1  0
 29 28  1  0
 30 29  2  3
 30 27  1  0
 31 29  1  0
  9 32  1  0
 12 33  1  0
 13 34  1  0
 16 35  1  0
 16 36  1  0
 16 37  1  0
 17 38  1  0
 17 39  1  0
 17 40  1  0
 19 41  1  0
 20 42  1  0
 22 43  1  0
 24 44  1  0
 25 45  1  0
 26 46  1  0
 27 47  1  0
 27 48  1  0
 28 49  1  0
 28 50  1  0
 28 51  1  0
 30 52  1  0
 31 53  1  0
 31 54  1  0
 31 55  1  0
M  END
>  <score>  (6) 
-8.137

$$$$
=
     RDKit          3D

 55 58  0  0  0  0  0  0  0  0999 V2000
    2.2210   59.5740   72.9000 C   0  0  0  0  0  0  0  0  0  0  0  0
    1.3650   60.4770   73.4080 C   0  0  0  0  0  0  0  0  0  0  0  0
    1.0670   61.6950   72.8390 O   0  0  0  0  0  0  0  0  0  0  0  0
    1.6840   62.0660   71.6700 C   0  0  0  0  0  0  0  0  0  0  0  0
    2.5870   61.2300   71.0070 C   0  0  0  0  0  0  0  0  0  0  0  0
    2.8760   59.9030   71.6020 C   0  0  0  0  0  0  0  0  0  0  0  0
    3.6210   59.0860   71.0710 O   0  0  0  0  0  0  0  0  0  0  0  0
    3.1780   61.6750   69.8170 C   0  0  0  0  0  0  0  0  0  0  0  0
    2.8680   62.9340   69.3010 C   0  0  0  0  0  0  0  0  0  0  0  0
    1.9650   63.7620   69.9680 C   0  0  0  0  0  0  0  0  0  0  0  0
    1.3670   63.3390   71.1570 C   0  0  0  0  0  0  0  0  0  0  0  0
    0.4290   64.2340   71.8290 C   0  0  0  0  0  0  0  0  0  0  0  0
    0.1850   65.4270   71.2800 C   0  0  0  0  0  0  0  0  0  0  0  0
    0.8270   65.9010   69.9990 C   0  0  0  0  0  0  0  0  0  0  0  0
    1.7330   64.9700   69.3750 O   0  0  0  0  0  0  0  0  0  0  0  0
    1.6360   67.1730   70.2770 C   0  0  0  0  0  0  0  0  0  0  0  0
   -0.2650   66.1990   68.9650 C   0  0  0  0  0  0  0  0  0  0  0  0
    0.6280   60.2660   74.6640 C   0  0  0  0  0  0  0  0  0  0  0  0
   -0.7030   59.8250   74.5920 C   0  0  0  0  0  0  0  0  0  0  0  0
   -1.4580   59.6430   75.7550 C   0  0  0  0  0  0  0  0  0  0  0  0
   -0.8810   59.9100   76.9910 C   0  0  0  0  0  0  0  0  0  0  0  0
    0.4330   60.3550   77.0850 C   0  0  0  0  0  0  0  0  0  0  0  0
    1.1850   60.5260   75.9250 C   0  0  0  0  0  0  0  0  0  0  0  0
    2.4750   60.9490   76.0990 O   0  0  0  0  0  0  0  0  0  0  0  0
   -1.5810   59.7480   78.1510 O   0  0  0  0  0  0  0  0  0  0  0  0
    4.0710   60.8970   69.1370 O   0  0  0  0  0  0  0  0  0  0  0  0
    2.5620   58.2300   73.4990 C   0  0  0  0  0  0  0  0  0  0  0  0
    0.8560   56.6180   75.6310 C   0  0  0  0  0  0  0  0  0  0  0  0
    0.7390   56.5240   74.1350 C   0  0  0  0  0  0  0  0  0  0  0  0
    1.4740   57.2180   73.2430 C   0  0  0  0  0  0  0  0  0  0  0  0
   -0.3170   55.5550   73.6640 C   0  0  0  0  0  0  0  0  0  0  0  0
    3.3369   63.2743   68.3659 H   0  0  0  0  0  0  0  0  0  0  0  0
   -0.0647   63.9330   72.7647 H   0  0  0  0  0  0  0  0  0  0  0  0
   -0.5213   66.0997   71.7885 H   0  0  0  0  0  0  0  0  0  0  0  0
    1.7286   67.3186   71.3634 H   0  0  0  0  0  0  0  0  0  0  0  0
    2.6378   67.0746   69.8336 H   0  0  0  0  0  0  0  0  0  0  0  0
    1.1221   68.0386   69.8336 H   0  0  0  0  0  0  0  0  0  0  0  0
   -1.2010   66.4544   69.4834 H   0  0  0  0  0  0  0  0  0  0  0  0
    0.0477   67.0447   68.3348 H   0  0  0  0  0  0  0  0  0  0  0  0
   -0.4252   65.3117   68.3348 H   0  0  0  0  0  0  0  0  0  0  0  0
   -1.1565   59.6206   73.6109 H   0  0  0  0  0  0  0  0  0  0  0  0
   -2.4986   59.2919   75.6922 H   0  0  0  0  0  0  0  0  0  0  0  0
    0.8756   60.5705   78.0687 H   0  0  0  0  0  0  0  0  0  0  0  0
    3.0603   61.0891   75.3129 H   0  0  0  0  0  0  0  0  0  0  0  0
   -1.1503   59.9441   79.0206 H   0  0  0  0  0  0  0  0  0  0  0  0
    4.4781   61.2288   68.2978 H   0  0  0  0  0  0  0  0  0  0  0  0
    3.4996   57.8673   73.0524 H   0  0  0  0  0  0  0  0  0  0  0  0
    2.6683   58.3543   74.5868 H   0  0  0  0  0  0  0  0  0  0  0  0
    0.0801   55.9946   76.0994 H   0  0  0  0  0  0  0  0  0  0  0  0
    1.8493   56.2639   75.9441 H   0  0  0  0  0  0  0  0  0  0  0  0
    0.7242   57.6642   75.9441 H   0  0  0  0  0  0  0  0  0  0  0  0
    1.2495   57.0189   72.1847 H   0  0  0  0  0  0  0  0  0  0  0  0
   -0.8122   55.1006   74.5348 H   0  0  0  0  0  0  0  0  0  0  0  0
   -1.0616   56.0907   73.0569 H   0  0  0  0  0  0  0  0  0  0  0  0
    0.1529   54.7672   73.0569 H   0  0  0  0  0  0  0  0  0  0  0  0
  2  1  2  0
  3  2  1  0
  4  3  1  0
  5  4  2  0
  6  1  1  0
  6  5  1  0
  7  6  2  0
  8  5  1  0
  9  8  2  0
 10  9  1  0
 11 10  2  0
 11  4  1  0
 12 11  1  0
 13 12  2  0
 14 13  1  0
 15 14  1  0
 15 10  1  0
 16 14  1  0
 17 14  1  0
 18  2  1  0
 19 18  2  0
 20 19  1  0
 21 20  2  0
 22 21  1  0
 23 22  2  0
 23 18  1  0
 24 23  1  0
 25 21  1  0
 26  8  1  0
 27  1  1  0
 29 28  1  0
 30 29  2  3
 30 27  1  0
 31 29  1  0
  9 32  1  0
 12 33  1  0
 13 34  1  0
 16 35  1  0
 16 36  1  0
 16 37  1  0
 17 38  1  0
 17 39  1  0
 17 40  1  0
 19 41  1  0
 20 42  1  0
 22 43  1  0
 24 44  1  0
 25 45  1  0
 26 46  1  0
 27 47  1  0
 27 48  1  0
 28 49  1  0
 28 50  1  0
 28 51  1  0
 30 52  1  0
 31 53  1  0
 31 54  1  0
 31 55  1  0
M  END
>  <score>  (7) 
-8.123

$$$$
=
     RDKit          3D

 55 58  0  0  0  0  0  0  0  0999 V2000
   -3.1290   62.2420   75.9120 C   0  0  0  0  0  0  0  0  0  0  0  0
   -2.9280   61.1210   75.1980 C   0  0  0  0  0  0  0  0  0  0  0  0
   -1.7620   60.7970   74.5400 O   0  0  0  0  0  0  0  0  0  0  0  0
   -0.7020   61.6670   74.5730 C   0  0  0  0  0  0  0  0  0  0  0  0
   -0.7460   62.8680   75.2880 C   0  0  0  0  0  0  0  0  0  0  0  0
   -1.9890   63.1960   76.0280 C   0  0  0  0  0  0  0  0  0  0  0  0
   -2.1050   64.2040   76.7150 O   0  0  0  0  0  0  0  0  0  0  0  0
    0.3770   63.7080   75.2780 C   0  0  0  0  0  0  0  0  0  0  0  0
    1.5220   63.3490   74.5660 C   0  0  0  0  0  0  0  0  0  0  0  0
    1.5580   62.1480   73.8560 C   0  0  0  0  0  0  0  0  0  0  0  0
    0.4500   61.2990   73.8510 C   0  0  0  0  0  0  0  0  0  0  0  0
    0.5250   60.0530   73.0940 C   0  0  0  0  0  0  0  0  0  0  0  0
    1.6510   59.7780   72.4310 C   0  0  0  0  0  0  0  0  0  0  0  0
    2.8550   60.6880   72.4220 C   0  0  0  0  0  0  0  0  0  0  0  0
    2.7270   61.8970   73.1970 O   0  0  0  0  0  0  0  0  0  0  0  0
    3.1510   61.1250   70.9820 C   0  0  0  0  0  0  0  0  0  0  0  0
    4.0630   59.9350   72.9920 C   0  0  0  0  0  0  0  0  0  0  0  0
   -3.9560   60.0810   75.0300 C   0  0  0  0  0  0  0  0  0  0  0  0
   -5.1160   60.3980   74.3040 C   0  0  0  0  0  0  0  0  0  0  0  0
   -6.1370   59.4560   74.1440 C   0  0  0  0  0  0  0  0  0  0  0  0
   -5.9990   58.1970   74.7190 C   0  0  0  0  0  0  0  0  0  0  0  0
   -4.8630   57.8650   75.4460 C   0  0  0  0  0  0  0  0  0  0  0  0
   -3.8430   58.8020   75.5960 C   0  0  0  0  0  0  0  0  0  0  0  0
   -2.7490   58.3960   76.3100 O   0  0  0  0  0  0  0  0  0  0  0  0
   -6.9720   57.2490   74.5890 O   0  0  0  0  0  0  0  0  0  0  0  0
    0.3780   64.8940   75.9550 O   0  0  0  0  0  0  0  0  0  0  0  0
   -4.3930   62.6180   76.6470 C   0  0  0  0  0  0  0  0  0  0  0  0
   -7.5010   62.5470   76.0220 C   0  0  0  0  0  0  0  0  0  0  0  0
   -6.5260   63.6100   75.5960 C   0  0  0  0  0  0  0  0  0  0  0  0
   -5.2060   63.6230   75.8710 C   0  0  0  0  0  0  0  0  0  0  0  0
   -7.1510   64.7290   74.8030 C   0  0  0  0  0  0  0  0  0  0  0  0
    2.3982   64.0140   74.5643 H   0  0  0  0  0  0  0  0  0  0  0  0
   -0.3263   59.3568   73.0703 H   0  0  0  0  0  0  0  0  0  0  0  0
    1.7038   58.8385   71.8613 H   0  0  0  0  0  0  0  0  0  0  0  0
    3.7678   62.0357   70.9946 H   0  0  0  0  0  0  0  0  0  0  0  0
    3.6923   60.3227   70.4593 H   0  0  0  0  0  0  0  0  0  0  0  0
    2.2051   61.3301   70.4593 H   0  0  0  0  0  0  0  0  0  0  0  0
    4.0247   59.9589   74.0911 H   0  0  0  0  0  0  0  0  0  0  0  0
    4.0403   58.8908   72.6469 H   0  0  0  0  0  0  0  0  0  0  0  0
    4.9906   60.4152   72.6469 H   0  0  0  0  0  0  0  0  0  0  0  0
   -5.2223   61.3974   73.8568 H   0  0  0  0  0  0  0  0  0  0  0  0
   -7.0403   59.7081   73.5691 H   0  0  0  0  0  0  0  0  0  0  0  0
   -4.7692   56.8678   75.9008 H   0  0  0  0  0  0  0  0  0  0  0  0
   -1.9913   59.0174   76.4507 H   0  0  0  0  0  0  0  0  0  0  0  0
   -6.8546   56.3588   75.0059 H   0  0  0  0  0  0  0  0  0  0  0  0
    1.1802   65.4739   75.9364 H   0  0  0  0  0  0  0  0  0  0  0  0
   -4.9983   61.7129   76.8031 H   0  0  0  0  0  0  0  0  0  0  0  0
   -4.1108   63.0714   77.6086 H   0  0  0  0  0  0  0  0  0  0  0  0
   -7.5401   62.5043   77.1205 H   0  0  0  0  0  0  0  0  0  0  0  0
   -8.4999   62.7867   75.6285 H   0  0  0  0  0  0  0  0  0  0  0  0
   -7.1761   61.5725   75.6285 H   0  0  0  0  0  0  0  0  0  0  0  0
   -4.6464   64.4835   75.4756 H   0  0  0  0  0  0  0  0  0  0  0  0
   -7.5691   65.4776   75.4920 H   0  0  0  0  0  0  0  0  0  0  0  0
   -6.3859   65.2010   74.1691 H   0  0  0  0  0  0  0  0  0  0  0  0
   -7.9541   64.3251   74.1691 H   0  0  0  0  0  0  0  0  0  0  0  0
  2  1  2  0
  3  2  1  0
  4  3  1  0
  5  4  2  0
  6  1  1  0
  6  5  1  0
  7  6  2  0
  8  5  1  0
  9  8  2  0
 10  9  1  0
 11 10  2  0
 11  4  1  0
 12 11  1  0
 13 12  2  0
 14 13  1  0
 15 14  1  0
 15 10  1  0
 16 14  1  0
 17 14  1  0
 18  2  1  0
 19 18  2  0
 20 19  1  0
 21 20  2  0
 22 21  1  0
 23 22  2  0
 23 18  1  0
 24 23  1  0
 25 21  1  0
 26  8  1  0
 27  1  1  0
 29 28  1  0
 30 29  2  3
 30 27  1  0
 31 29  1  0
  9 32  1  0
 12 33  1  0
 13 34  1  0
 16 35  1  0
 16 36  1  0
 16 37  1  0
 17 38  1  0
 17 39  1  0
 17 40  1  0
 19 41  1  0
 20 42  1  0
 22 43  1  0
 24 44  1  0
 25 45  1  0
 26 46  1  0
 27 47  1  0
 27 48  1  0
 28 49  1  0
 28 50  1  0
 28 51  1  0
 30 52  1  0
 31 53  1  0
 31 54  1  0
 31 55  1  0
M  END
>  <score>  (8) 
-7.622

$$$$
=
     RDKit          3D

 55 58  0  0  0  0  0  0  0  0999 V2000
    1.7680   61.5470   73.5120 C   0  0  0  0  0  0  0  0  0  0  0  0
    1.0730   61.0480   74.5480 C   0  0  0  0  0  0  0  0  0  0  0  0
    0.8760   59.7080   74.8000 O   0  0  0  0  0  0  0  0  0  0  0  0
    1.3970   58.7740   73.9400 C   0  0  0  0  0  0  0  0  0  0  0  0
    2.1600   59.1310   72.8260 C   0  0  0  0  0  0  0  0  0  0  0  0
    2.4040   60.5730   72.5780 C   0  0  0  0  0  0  0  0  0  0  0  0
    3.0950   60.9800   71.6510 O   0  0  0  0  0  0  0  0  0  0  0  0
    2.6620   58.1220   71.9910 C   0  0  0  0  0  0  0  0  0  0  0  0
    2.4040   56.7800   72.2720 C   0  0  0  0  0  0  0  0  0  0  0  0
    1.6420   56.4310   73.3880 C   0  0  0  0  0  0  0  0  0  0  0  0
    1.1310   57.4210   74.2300 C   0  0  0  0  0  0  0  0  0  0  0  0
    0.3360   57.0180   75.3860 C   0  0  0  0  0  0  0  0  0  0  0  0
    0.1240   55.7140   75.5890 C   0  0  0  0  0  0  0  0  0  0  0  0
    0.6650   54.6330   74.6850 C   0  0  0  0  0  0  0  0  0  0  0  0
    1.4520   55.0910   73.5680 O   0  0  0  0  0  0  0  0  0  0  0  0
   -0.5030   53.8350   74.0940 C   0  0  0  0  0  0  0  0  0  0  0  0
    1.5700   53.7000   75.4980 C   0  0  0  0  0  0  0  0  0  0  0  0
    0.4230   61.8940   75.5610 C   0  0  0  0  0  0  0  0  0  0  0  0
    1.1320   62.2000   76.7340 C   0  0  0  0  0  0  0  0  0  0  0  0
    0.5460   62.9710   77.7410 C   0  0  0  0  0  0  0  0  0  0  0  0
   -0.7560   63.4320   77.5780 C   0  0  0  0  0  0  0  0  0  0  0  0
   -1.4780   63.1360   76.4280 C   0  0  0  0  0  0  0  0  0  0  0  0
   -0.8880   62.3750   75.4220 C   0  0  0  0  0  0  0  0  0  0  0  0
   -1.6560   62.1400   74.3140 O   0  0  0  0  0  0  0  0  0  0  0  0
   -1.3660   64.1870   78.5360 O   0  0  0  0  0  0  0  0  0  0  0  0
    3.4060   58.4230   70.8870 O   0  0  0  0  0  0  0  0  0  0  0  0
    2.0040   63.0090   73.2160 C   0  0  0  0  0  0  0  0  0  0  0  0
    2.5040   64.2430   70.3380 C   0  0  0  0  0  0  0  0  0  0  0  0
    1.1750   64.0780   71.0230 C   0  0  0  0  0  0  0  0  0  0  0  0
    0.9820   63.5500   72.2480 C   0  0  0  0  0  0  0  0  0  0  0  0
    0.0030   64.5580   70.2050 C   0  0  0  0  0  0  0  0  0  0  0  0
    2.8022   55.9950   71.6123 H   0  0  0  0  0  0  0  0  0  0  0  0
   -0.0788   57.7696   76.0738 H   0  0  0  0  0  0  0  0  0  0  0  0
   -0.4761   55.4129   76.4604 H   0  0  0  0  0  0  0  0  0  0  0  0
   -1.1125   53.4186   74.9096 H   0  0  0  0  0  0  0  0  0  0  0  0
   -1.1240   54.4985   73.4742 H   0  0  0  0  0  0  0  0  0  0  0  0
   -0.1106   53.0153   73.4742 H   0  0  0  0  0  0  0  0  0  0  0  0
    1.4035   53.8716   76.5717 H   0  0  0  0  0  0  0  0  0  0  0  0
    1.3332   52.6541   75.2528 H   0  0  0  0  0  0  0  0  0  0  0  0
    2.6226   53.9048   75.2528 H   0  0  0  0  0  0  0  0  0  0  0  0
    2.1596   61.8287   76.8613 H   0  0  0  0  0  0  0  0  0  0  0  0
    1.1094   63.2113   78.6547 H   0  0  0  0  0  0  0  0  0  0  0  0
   -2.5094   63.5007   76.3131 H   0  0  0  0  0  0  0  0  0  0  0  0
   -1.2927   61.6053   73.5642 H   0  0  0  0  0  0  0  0  0  0  0  0
   -2.2936   64.5048   78.3995 H   0  0  0  0  0  0  0  0  0  0  0  0
    3.7516   57.6966   70.3099 H   0  0  0  0  0  0  0  0  0  0  0  0
    1.9427   63.5781   74.1553 H   0  0  0  0  0  0  0  0  0  0  0  0
    2.9995   63.1119   72.7594 H   0  0  0  0  0  0  0  0  0  0  0  0
    3.2966   64.3414   71.0943 H   0  0  0  0  0  0  0  0  0  0  0  0
    2.7043   63.3628   69.7094 H   0  0  0  0  0  0  0  0  0  0  0  0
    2.4830   65.1454   69.7094 H   0  0  0  0  0  0  0  0  0  0  0  0
   -0.0633   63.5080   72.5880 H   0  0  0  0  0  0  0  0  0  0  0  0
   -0.8027   64.8880   70.8772 H   0  0  0  0  0  0  0  0  0  0  0  0
    0.3187   65.3992   69.5705 H   0  0  0  0  0  0  0  0  0  0  0  0
   -0.3621   63.7370   69.5705 H   0  0  0  0  0  0  0  0  0  0  0  0
  2  1  2  0
  3  2  1  0
  4  3  1  0
  5  4  2  0
  6  1  1  0
  6  5  1  0
  7  6  2  0
  8  5  1  0
  9  8  2  0
 10  9  1  0
 11 10  2  0
 11  4  1  0
 12 11  1  0
 13 12  2  0
 14 13  1  0
 15 14  1  0
 15 10  1  0
 16 14  1  0
 17 14  1  0
 18  2  1  0
 19 18  2  0
 20 19  1  0
 21 20  2  0
 22 21  1  0
 23 22  2  0
 23 18  1  0
 24 23  1  0
 25 21  1  0
 26  8  1  0
 27  1  1  0
 29 28  1  0
 30 29  2  3
 30 27  1  0
 31 29  1  0
  9 32  1  0
 12 33  1  0
 13 34  1  0
 16 35  1  0
 16 36  1  0
 16 37  1  0
 17 38  1  0
 17 39  1  0
 17 40  1  0
 19 41  1  0
 20 42  1  0
 22 43  1  0
 24 44  1  0
 25 45  1  0
 26 46  1  0
 27 47  1  0
 27 48  1  0
 28 49  1  0
 28 50  1  0
 28 51  1  0
 30 52  1  0
 31 53  1  0
 31 54  1  0
 31 55  1  0
M  END
>  <score>  (9) 
-7.58

$$$$
