=
     RDKit          3D

 57 60  0  0  0  0  0  0  0  0999 V2000
   -0.1620   56.3800   74.1400 C   0  0  1  0  0  0  0  0  0  0  0  0
   -1.2730   57.2380   74.7870 C   0  0  0  0  0  0  0  0  0  0  0  0
   -0.9180   58.7100   74.4810 C   0  0  0  0  0  0  0  0  0  0  0  0
    0.2440   58.6270   73.4950 C   0  0  2  0  0  0  0  0  0  0  0  0
    1.0240   57.3780   73.9620 C   0  0  1  0  0  0  0  0  0  0  0  0
    1.7460   57.5800   75.3210 C   0  0  0  0  0  0  0  0  0  0  0  0
    2.0410   57.0330   72.8530 C   0  0  0  0  0  0  0  0  0  0  0  0
    2.9660   58.2130   72.4830 C   0  0  1  0  0  0  0  0  0  0  0  0
    2.1960   59.5360   72.1840 C   0  0  1  0  0  0  0  0  0  0  0  0
    1.1350   59.8620   73.2880 C   0  0  1  0  0  0  0  0  0  0  0  0
    0.2820   61.0830   72.9000 C   0  0  0  0  0  0  0  0  0  0  0  0
    1.1330   62.3150   72.5670 C   0  0  1  0  0  0  0  0  0  0  0  0
    2.1320   61.9480   71.4730 C   0  0  0  0  0  0  0  0  0  0  0  0
    2.1550   62.5580   70.2720 C   0  0  0  0  0  0  0  0  0  0  0  0
    3.0930   62.1690   69.1980 C   0  0  0  0  0  0  0  0  0  0  0  0
    3.0900   62.7390   68.1130 O   0  0  0  0  0  0  0  0  0  0  0  0
    4.0260   61.0680   69.4810 C   0  0  0  0  0  0  0  0  0  0  0  0
    4.0170   60.4530   70.6700 C   0  0  0  0  0  0  0  0  0  0  0  0
    3.0890   60.7890   71.8340 C   0  0  2  0  0  0  0  0  0  0  0  0
    4.0100   61.2550   72.9850 C   0  0  0  0  0  0  0  0  0  0  0  0
    0.2070   63.5030   72.2680 C   0  0  0  0  0  0  0  0  0  0  0  0
    0.2230   55.0730   74.8520 C   0  0  0  0  0  0  0  0  0  0  0  0
    0.0400   54.9590   76.0730 O   0  0  0  0  0  0  0  0  0  0  0  0
    0.8590   53.9370   74.0630 C   0  0  0  0  0  0  0  0  0  0  0  0
    2.2620   53.8790   74.2780 O   0  0  0  0  0  0  0  0  0  0  0  0
   -0.6600   55.9720   72.8500 O   0  0  0  0  0  0  0  0  0  0  0  0
    3.9300   58.3980   73.5070 O   0  0  0  0  0  0  0  0  0  0  0  0
   -2.2515   56.9841   74.3532 H   0  0  0  0  0  0  0  0  0  0  0  0
   -1.3363   57.0590   75.8705 H   0  0  0  0  0  0  0  0  0  0  0  0
   -1.7750   59.2305   74.0287 H   0  0  0  0  0  0  0  0  0  0  0  0
   -0.6565   59.2741   75.3884 H   0  0  0  0  0  0  0  0  0  0  0  0
   -0.1615   58.5650   72.4744 H   0  0  0  0  0  0  0  0  0  0  0  0
    1.0421   57.3831   76.1430 H   0  0  0  0  0  0  0  0  0  0  0  0
    2.5958   56.8851   75.3916 H   0  0  0  0  0  0  0  0  0  0  0  0
    2.1118   58.6150   75.3916 H   0  0  0  0  0  0  0  0  0  0  0  0
    2.6648   56.1959   73.1996 H   0  0  0  0  0  0  0  0  0  0  0  0
    1.4651   56.7758   71.9518 H   0  0  0  0  0  0  0  0  0  0  0  0
    3.4711   57.9506   71.5417 H   0  0  0  0  0  0  0  0  0  0  0  0
    1.6648   59.3217   71.2449 H   0  0  0  0  0  0  0  0  0  0  0  0
    1.6547   60.1109   74.2250 H   0  0  0  0  0  0  0  0  0  0  0  0
   -0.3233   60.8242   72.0187 H   0  0  0  0  0  0  0  0  0  0  0  0
   -0.3486   61.3374   73.7647 H   0  0  0  0  0  0  0  0  0  0  0  0
    1.7487   62.6453   73.4166 H   0  0  0  0  0  0  0  0  0  0  0  0
    1.4472   63.3786   70.0831 H   0  0  0  0  0  0  0  0  0  0  0  0
    4.7388   60.7464   68.7074 H   0  0  0  0  0  0  0  0  0  0  0  0
    4.7391   59.6370   70.8207 H   0  0  0  0  0  0  0  0  0  0  0  0
    3.5395   61.0169   73.9504 H   0  0  0  0  0  0  0  0  0  0  0  0
    4.9784   60.7384   72.9118 H   0  0  0  0  0  0  0  0  0  0  0  0
    4.1674   62.3412   72.9118 H   0  0  0  0  0  0  0  0  0  0  0  0
   -0.1382   63.9459   73.2139 H   0  0  0  0  0  0  0  0  0  0  0  0
    0.7563   64.2592   71.6880 H   0  0  0  0  0  0  0  0  0  0  0  0
   -0.6604   63.1549   71.6880 H   0  0  0  0  0  0  0  0  0  0  0  0
    0.4086   52.9849   74.3802 H   0  0  0  0  0  0  0  0  0  0  0  0
    0.6798   54.1160   72.9926 H   0  0  0  0  0  0  0  0  0  0  0  0
    2.4468   53.8714   75.2506 H   0  0  0  0  0  0  0  0  0  0  0  0
   -1.4200   55.3493   72.9715 H   0  0  0  0  0  0  0  0  0  0  0  0
    3.4925   58.3140   74.3911 H   0  0  0  0  0  0  0  0  0  0  0  0
  2  1  1  0
  3  2  1  0
  4  3  1  0
  5  4  1  0
  5  1  1  0
  5  6  1  1
  7  5  1  0
  8  7  1  0
  9  8  1  0
 10  9  1  0
 10  4  1  0
 11 10  1  0
 12 11  1  0
 13 12  1  0
 14 13  2  0
 15 14  1  0
 16 15  2  0
 17 15  1  0
 18 17  2  0
 19  9  1  0
 19 18  1  0
 19 13  1  0
 19 20  1  1
 21 12  1  0
 22  1  1  0
 23 22  2  0
 24 22  1  0
 25 24  1  0
  1 26  1  6
 27  8  1  0
  2 28  1  0
  2 29  1  0
  3 30  1  0
  3 31  1  0
  4 32  1  6
  6 33  1  0
  6 34  1  0
  6 35  1  0
  7 36  1  0
  7 37  1  0
  8 38  1  6
  9 39  1  6
 10 40  1  1
 11 41  1  0
 11 42  1  0
 12 43  1  1
 14 44  1  0
 17 45  1  0
 18 46  1  0
 20 47  1  0
 20 48  1  0
 20 49  1  0
 21 50  1  0
 21 51  1  0
 21 52  1  0
 24 53  1  0
 24 54  1  0
 25 55  1  0
 26 56  1  0
 27 57  1  0
M  END
>  <score>  (1) 
-9.614

$$$$
=
     RDKit          3D

 57 60  0  0  0  0  0  0  0  0999 V2000
    3.5520   60.3920   71.0650 C   0  0  1  0  0  0  0  0  0  0  0  0
    3.7590   58.8630   70.9860 C   0  0  0  0  0  0  0  0  0  0  0  0
    2.7570   58.2360   71.9810 C   0  0  0  0  0  0  0  0  0  0  0  0
    1.8750   59.4020   72.4200 C   0  0  2  0  0  0  0  0  0  0  0  0
    2.8470   60.6030   72.4410 C   0  0  1  0  0  0  0  0  0  0  0  0
    3.8950   60.5210   73.5830 C   0  0  0  0  0  0  0  0  0  0  0  0
    1.9930   61.8810   72.5780 C   0  0  0  0  0  0  0  0  0  0  0  0
    1.0450   61.8560   73.7970 C   0  0  1  0  0  0  0  0  0  0  0  0
    0.1830   60.5590   73.8890 C   0  0  1  0  0  0  0  0  0  0  0  0
    1.0460   59.2650   73.7060 C   0  0  1  0  0  0  0  0  0  0  0  0
    0.1600   58.0080   73.6450 C   0  0  0  0  0  0  0  0  0  0  0  0
   -0.7770   57.8860   74.8540 C   0  0  1  0  0  0  0  0  0  0  0  0
   -1.6060   59.1620   74.9700 C   0  0  0  0  0  0  0  0  0  0  0  0
   -2.9520   59.1660   74.8980 C   0  0  0  0  0  0  0  0  0  0  0  0
   -3.7500   60.4090   74.9650 C   0  0  0  0  0  0  0  0  0  0  0  0
   -4.9730   60.3840   74.8930 O   0  0  0  0  0  0  0  0  0  0  0  0
   -3.0180   61.6750   75.1160 C   0  0  0  0  0  0  0  0  0  0  0  0
   -1.6820   61.6880   75.1910 C   0  0  0  0  0  0  0  0  0  0  0  0
   -0.7800   60.4590   75.1340 C   0  0  2  0  0  0  0  0  0  0  0  0
   -0.0530   60.4070   76.4970 C   0  0  0  0  0  0  0  0  0  0  0  0
   -1.5650   56.5730   74.7530 C   0  0  0  0  0  0  0  0  0  0  0  0
    4.7880   61.2820   70.8540 C   0  0  0  0  0  0  0  0  0  0  0  0
    5.9230   60.7910   70.9380 O   0  0  0  0  0  0  0  0  0  0  0  0
    4.6150   62.7680   70.5770 C   0  0  0  0  0  0  0  0  0  0  0  0
    4.1500   62.9990   69.2540 O   0  0  0  0  0  0  0  0  0  0  0  0
    2.6530   60.7380   69.9930 O   0  0  0  0  0  0  0  0  0  0  0  0
    1.7970   62.0600   74.9840 O   0  0  0  0  0  0  0  0  0  0  0  0
    3.5576   58.5039   69.9660 H   0  0  0  0  0  0  0  0  0  0  0  0
    4.7943   58.5870   71.2350 H   0  0  0  0  0  0  0  0  0  0  0  0
    2.1558   57.4574   71.4888 H   0  0  0  0  0  0  0  0  0  0  0  0
    3.2593   57.7485   72.8296 H   0  0  0  0  0  0  0  0  0  0  0  0
    1.0376   59.4971   71.7131 H   0  0  0  0  0  0  0  0  0  0  0  0
    3.3819   60.5612   74.5551 H   0  0  0  0  0  0  0  0  0  0  0  0
    4.4529   59.5765   73.5016 H   0  0  0  0  0  0  0  0  0  0  0  0
    4.5930   61.3673   73.5016 H   0  0  0  0  0  0  0  0  0  0  0  0
    2.6688   62.7430   72.6792 H   0  0  0  0  0  0  0  0  0  0  0  0
    1.3640   61.9499   71.6782 H   0  0  0  0  0  0  0  0  0  0  0  0
    0.3234   62.6761   73.6679 H   0  0  0  0  0  0  0  0  0  0  0  0
   -0.5041   60.6402   73.0338 H   0  0  0  0  0  0  0  0  0  0  0  0
    1.7150   59.1525   74.5719 H   0  0  0  0  0  0  0  0  0  0  0  0
   -0.4493   58.0508   72.7302 H   0  0  0  0  0  0  0  0  0  0  0  0
    0.8249   57.1317   73.6496 H   0  0  0  0  0  0  0  0  0  0  0  0
   -0.2309   57.8125   75.8061 H   0  0  0  0  0  0  0  0  0  0  0  0
   -3.4777   58.2064   74.7849 H   0  0  0  0  0  0  0  0  0  0  0  0
   -3.5748   62.6222   75.1679 H   0  0  0  0  0  0  0  0  0  0  0  0
   -1.1932   62.6670   75.3032 H   0  0  0  0  0  0  0  0  0  0  0  0
   -0.7928   60.4599   77.3094 H   0  0  0  0  0  0  0  0  0  0  0  0
    0.5115   59.4662   76.5758 H   0  0  0  0  0  0  0  0  0  0  0  0
    0.6396   61.2579   76.5758 H   0  0  0  0  0  0  0  0  0  0  0  0
   -1.7884   56.2008   75.7637 H   0  0  0  0  0  0  0  0  0  0  0  0
   -2.5058   56.7507   74.2114 H   0  0  0  0  0  0  0  0  0  0  0  0
   -0.9656   55.8264   74.2114 H   0  0  0  0  0  0  0  0  0  0  0  0
    3.8866   63.1823   71.2896 H   0  0  0  0  0  0  0  0  0  0  0  0
    5.5938   63.2571   70.6899 H   0  0  0  0  0  0  0  0  0  0  0  0
    3.2639   63.4392   69.2878 H   0  0  0  0  0  0  0  0  0  0  0  0
    1.7992   61.0666   70.3714 H   0  0  0  0  0  0  0  0  0  0  0  0
    1.2187   61.9031   75.7721 H   0  0  0  0  0  0  0  0  0  0  0  0
  2  1  1  0
  3  2  1  0
  4  3  1  0
  5  4  1  0
  5  1  1  0
  5  6  1  1
  7  5  1  0
  8  7  1  0
  9  8  1  0
 10  9  1  0
 10  4  1  0
 11 10  1  0
 12 11  1  0
 13 12  1  0
 14 13  2  0
 15 14  1  0
 16 15  2  0
 17 15  1  0
 18 17  2  0
 19  9  1  0
 19 18  1  0
 19 13  1  0
 19 20  1  1
 21 12  1  0
 22  1  1  0
 23 22  2  0
 24 22  1  0
 25 24  1  0
  1 26  1  6
 27  8  1  0
  2 28  1  0
  2 29  1  0
  3 30  1  0
  3 31  1  0
  4 32  1  6
  6 33  1  0
  6 34  1  0
  6 35  1  0
  7 36  1  0
  7 37  1  0
  8 38  1  6
  9 39  1  6
 10 40  1  1
 11 41  1  0
 11 42  1  0
 12 43  1  1
 14 44  1  0
 17 45  1  0
 18 46  1  0
 20 47  1  0
 20 48  1  0
 20 49  1  0
 21 50  1  0
 21 51  1  0
 21 52  1  0
 24 53  1  0
 24 54  1  0
 25 55  1  0
 26 56  1  0
 27 57  1  0
M  END
>  <score>  (2) 
-7.866

$$$$
=
     RDKit          3D

 57 60  0  0  0  0  0  0  0  0999 V2000
    3.1440   61.8250   70.4360 C   0  0  1  0  0  0  0  0  0  0  0  0
    3.9810   60.6800   69.8220 C   0  0  0  0  0  0  0  0  0  0  0  0
    3.7310   59.4370   70.7050 C   0  0  0  0  0  0  0  0  0  0  0  0
    2.6040   59.8550   71.6450 C   0  0  2  0  0  0  0  0  0  0  0  0
    2.8850   61.3530   71.9010 C   0  0  1  0  0  0  0  0  0  0  0  0
    4.1520   61.5980   72.7620 C   0  0  0  0  0  0  0  0  0  0  0  0
    1.6360   61.9400   72.5930 C   0  0  0  0  0  0  0  0  0  0  0  0
    1.2310   61.1790   73.8740 C   0  0  1  0  0  0  0  0  0  0  0  0
    1.1200   59.6360   73.6720 C   0  0  1  0  0  0  0  0  0  0  0  0
    2.3690   59.0490   72.9320 C   0  0  1  0  0  0  0  0  0  0  0  0
    2.1730   57.5580   72.6040 C   0  0  0  0  0  0  0  0  0  0  0  0
    1.8180   56.7240   73.8430 C   0  0  1  0  0  0  0  0  0  0  0  0
    0.5850   57.3260   74.5100 C   0  0  0  0  0  0  0  0  0  0  0  0
   -0.5660   56.6440   74.6670 C   0  0  0  0  0  0  0  0  0  0  0  0
   -1.7730   57.2460   75.2730 C   0  0  0  0  0  0  0  0  0  0  0  0
   -2.8090   56.6030   75.4000 O   0  0  0  0  0  0  0  0  0  0  0  0
   -1.6830   58.6470   75.7120 C   0  0  0  0  0  0  0  0  0  0  0  0
   -0.5470   59.3370   75.5640 C   0  0  0  0  0  0  0  0  0  0  0  0
    0.7440   58.7990   74.9550 C   0  0  2  0  0  0  0  0  0  0  0  0
    1.7990   58.8570   76.0840 C   0  0  0  0  0  0  0  0  0  0  0  0
    1.7170   55.2450   73.4440 C   0  0  0  0  0  0  0  0  0  0  0  0
    3.7140   63.2490   70.3300 C   0  0  0  0  0  0  0  0  0  0  0  0
    4.9030   63.4150   70.0260 O   0  0  0  0  0  0  0  0  0  0  0  0
    2.8250   64.4460   70.6330 C   0  0  0  0  0  0  0  0  0  0  0  0
    1.8980   64.6840   69.5820 O   0  0  0  0  0  0  0  0  0  0  0  0
    1.9030   61.8610   69.7040 O   0  0  0  0  0  0  0  0  0  0  0  0
    2.1370   61.4980   74.9190 O   0  0  0  0  0  0  0  0  0  0  0  0
    3.6582   60.4842   68.7888 H   0  0  0  0  0  0  0  0  0  0  0  0
    5.0496   60.9390   69.7903 H   0  0  0  0  0  0  0  0  0  0  0  0
    3.4252   58.5782   70.0894 H   0  0  0  0  0  0  0  0  0  0  0  0
    4.6338   59.1226   71.2491 H   0  0  0  0  0  0  0  0  0  0  0  0
    1.6407   59.6406   71.1590 H   0  0  0  0  0  0  0  0  0  0  0  0
    3.8863   61.5466   73.8282 H   0  0  0  0  0  0  0  0  0  0  0  0
    4.9045   60.8287   72.5342 H   0  0  0  0  0  0  0  0  0  0  0  0
    4.5635   62.5924   72.5342 H   0  0  0  0  0  0  0  0  0  0  0  0
    1.8447   62.9864   72.8602 H   0  0  0  0  0  0  0  0  0  0  0  0
    0.7997   61.8512   71.8840 H   0  0  0  0  0  0  0  0  0  0  0  0
    0.2181   61.5105   74.1462 H   0  0  0  0  0  0  0  0  0  0  0  0
    0.2433   59.5198   73.0179 H   0  0  0  0  0  0  0  0  0  0  0  0
    3.2472   59.1279   73.5896 H   0  0  0  0  0  0  0  0  0  0  0  0
    1.3594   57.4625   71.8698 H   0  0  0  0  0  0  0  0  0  0  0  0
    3.1247   57.1759   72.2060 H   0  0  0  0  0  0  0  0  0  0  0  0
    2.6034   56.7552   74.6126 H   0  0  0  0  0  0  0  0  0  0  0  0
   -0.6097   55.5975   74.3310 H   0  0  0  0  0  0  0  0  0  0  0  0
   -2.5592   59.1322   76.1668 H   0  0  0  0  0  0  0  0  0  0  0  0
   -0.5432   60.3809   75.9108 H   0  0  0  0  0  0  0  0  0  0  0  0
    1.2931   58.8292   77.0604 H   0  0  0  0  0  0  0  0  0  0  0  0
    2.4765   57.9947   75.9974 H   0  0  0  0  0  0  0  0  0  0  0  0
    2.3779   59.7883   75.9974 H   0  0  0  0  0  0  0  0  0  0  0  0
    1.6745   54.6228   74.3502 H   0  0  0  0  0  0  0  0  0  0  0  0
    0.8060   55.0874   72.8480 H   0  0  0  0  0  0  0  0  0  0  0  0
    2.5981   54.9650   72.8480 H   0  0  0  0  0  0  0  0  0  0  0  0
    2.2698   64.2530   71.5628 H   0  0  0  0  0  0  0  0  0  0  0  0
    3.4651   65.3345   70.7373 H   0  0  0  0  0  0  0  0  0  0  0  0
    1.0144   64.9109   69.9664 H   0  0  0  0  0  0  0  0  0  0  0  0
    1.1450   61.8830   70.3404 H   0  0  0  0  0  0  0  0  0  0  0  0
    1.6995   61.3439   75.7936 H   0  0  0  0  0  0  0  0  0  0  0  0
  2  1  1  0
  3  2  1  0
  4  3  1  0
  5  4  1  0
  5  1  1  0
  5  6  1  1
  7  5  1  0
  8  7  1  0
  9  8  1  0
 10  9  1  0
 10  4  1  0
 11 10  1  0
 12 11  1  0
 13 12  1  0
 14 13  2  0
 15 14  1  0
 16 15  2  0
 17 15  1  0
 18 17  2  0
 19  9  1  0
 19 18  1  0
 19 13  1  0
 19 20  1  1
 21 12  1  0
 22  1  1  0
 23 22  2  0
 24 22  1  0
 25 24  1  0
  1 26  1  6
 27  8  1  0
  2 28  1  0
  2 29  1  0
  3 30  1  0
  3 31  1  0
  4 32  1  6
  6 33  1  0
  6 34  1  0
  6 35  1  0
  7 36  1  0
  7 37  1  0
  8 38  1  1
  9 39  1  6
 10 40  1  1
 11 41  1  0
 11 42  1  0
 12 43  1  1
 14 44  1  0
 17 45  1  0
 18 46  1  0
 20 47  1  0
 20 48  1  0
 20 49  1  0
 21 50  1  0
 21 51  1  0
 21 52  1  0
 24 53  1  0
 24 54  1  0
 25 55  1  0
 26 56  1  0
 27 57  1  0
M  END
>  <score>  (3) 
-7.775

$$$$
=
     RDKit          3D

 57 60  0  0  0  0  0  0  0  0999 V2000
   -1.2470   68.9360   66.9070 C   0  0  1  0  0  0  0  0  0  0  0  0
   -0.6850   69.5980   68.1860 C   0  0  0  0  0  0  0  0  0  0  0  0
    0.8530   69.5980   68.0350 C   0  0  0  0  0  0  0  0  0  0  0  0
    1.0960   69.1450   66.5980 C   0  0  2  0  0  0  0  0  0  0  0  0
   -0.0370   68.1270   66.3430 C   0  0  1  0  0  0  0  0  0  0  0  0
    0.1310   66.8110   67.1470 C   0  0  0  0  0  0  0  0  0  0  0  0
   -0.0610   67.8390   64.8270 C   0  0  0  0  0  0  0  0  0  0  0  0
    1.3020   67.3690   64.2720 C   0  0  1  0  0  0  0  0  0  0  0  0
    2.4900   68.2950   64.6760 C   0  0  1  0  0  0  0  0  0  0  0  0
    2.4870   68.6210   66.2080 C   0  0  1  0  0  0  0  0  0  0  0  0
    3.5710   69.6550   66.5600 C   0  0  0  0  0  0  0  0  0  0  0  0
    4.9670   69.2320   66.0850 C   0  0  1  0  0  0  0  0  0  0  0  0
    4.9170   68.9490   64.5860 C   0  0  0  0  0  0  0  0  0  0  0  0
    5.6580   69.6300   63.6890 C   0  0  0  0  0  0  0  0  0  0  0  0
    5.5720   69.3850   62.2340 C   0  0  0  0  0  0  0  0  0  0  0  0
    6.2550   70.0210   61.4410 O   0  0  0  0  0  0  0  0  0  0  0  0
    4.6320   68.3500   61.7760 C   0  0  0  0  0  0  0  0  0  0  0  0
    3.8910   67.6640   62.6540 C   0  0  0  0  0  0  0  0  0  0  0  0
    3.9150   67.8470   64.1690 C   0  0  2  0  0  0  0  0  0  0  0  0
    4.4020   66.4990   64.7480 C   0  0  0  0  0  0  0  0  0  0  0  0
    5.9950   70.2760   66.5420 C   0  0  0  0  0  0  0  0  0  0  0  0
   -2.5370   68.1130   67.0490 C   0  0  0  0  0  0  0  0  0  0  0  0
   -2.7190   67.4220   68.0620 O   0  0  0  0  0  0  0  0  0  0  0  0
   -3.5710   68.1230   65.9320 C   0  0  0  0  0  0  0  0  0  0  0  0
   -4.6650   68.9730   66.2450 O   0  0  0  0  0  0  0  0  0  0  0  0
   -1.5840   70.0100   66.0060 O   0  0  0  0  0  0  0  0  0  0  0  0
    1.5350   66.0270   64.6680 O   0  0  0  0  0  0  0  0  0  0  0  0
   -1.0587   70.6286   68.2771 H   0  0  0  0  0  0  0  0  0  0  0  0
   -0.9979   69.0528   69.0887 H   0  0  0  0  0  0  0  0  0  0  0  0
    1.2597   70.6069   68.1987 H   0  0  0  0  0  0  0  0  0  0  0  0
    1.3453   68.9430   68.7689 H   0  0  0  0  0  0  0  0  0  0  0  0
    1.0806   70.0278   65.9420 H   0  0  0  0  0  0  0  0  0  0  0  0
    0.1026   67.0331   68.2240 H   0  0  0  0  0  0  0  0  0  0  0  0
   -0.6862   66.1196   66.8936 H   0  0  0  0  0  0  0  0  0  0  0  0
    1.0957   66.3471   66.8936 H   0  0  0  0  0  0  0  0  0  0  0  0
   -0.8065   67.0538   64.6327 H   0  0  0  0  0  0  0  0  0  0  0  0
   -0.3109   68.7828   64.3203 H   0  0  0  0  0  0  0  0  0  0  0  0
    1.2485   67.4278   63.1749 H   0  0  0  0  0  0  0  0  0  0  0  0
    2.2958   69.2260   64.1232 H   0  0  0  0  0  0  0  0  0  0  0  0
    2.7135   67.7044   66.7724 H   0  0  0  0  0  0  0  0  0  0  0  0
    3.3122   70.6124   66.0842 H   0  0  0  0  0  0  0  0  0  0  0  0
    3.6045   69.7422   67.6560 H   0  0  0  0  0  0  0  0  0  0  0  0
    5.3009   68.2894   66.5434 H   0  0  0  0  0  0  0  0  0  0  0  0
    6.3546   70.3988   64.0547 H   0  0  0  0  0  0  0  0  0  0  0  0
    4.5374   68.1379   60.7008 H   0  0  0  0  0  0  0  0  0  0  0  0
    3.2066   66.9038   62.2496 H   0  0  0  0  0  0  0  0  0  0  0  0
    4.3855   66.5446   65.8469 H   0  0  0  0  0  0  0  0  0  0  0  0
    3.7388   65.6914   64.4045 H   0  0  0  0  0  0  0  0  0  0  0  0
    5.4282   66.3018   64.4045 H   0  0  0  0  0  0  0  0  0  0  0  0
    6.0239   70.3054   67.6412 H   0  0  0  0  0  0  0  0  0  0  0  0
    6.9889   70.0053   66.1562 H   0  0  0  0  0  0  0  0  0  0  0  0
    5.7090   71.2656   66.1562 H   0  0  0  0  0  0  0  0  0  0  0  0
   -3.0946   68.4792   65.0067 H   0  0  0  0  0  0  0  0  0  0  0  0
   -3.9535   67.0994   65.8057 H   0  0  0  0  0  0  0  0  0  0  0  0
   -4.7568   69.0443   67.2282 H   0  0  0  0  0  0  0  0  0  0  0  0
   -1.8358   70.8123   66.5285 H   0  0  0  0  0  0  0  0  0  0  0  0
    1.5446   65.9715   65.6564 H   0  0  0  0  0  0  0  0  0  0  0  0
  2  1  1  0
  3  2  1  0
  4  3  1  0
  5  4  1  0
  5  1  1  0
  5  6  1  1
  7  5  1  0
  8  7  1  0
  9  8  1  0
 10  9  1  0
 10  4  1  0
 11 10  1  0
 12 11  1  0
 13 12  1  0
 14 13  2  0
 15 14  1  0
 16 15  2  0
 17 15  1  0
 18 17  2  0
 19  9  1  0
 19 18  1  0
 19 13  1  0
 19 20  1  1
 21 12  1  0
 22  1  1  0
 23 22  2  0
 24 22  1  0
 25 24  1  0
  1 26  1  6
 27  8  1  0
  2 28  1  0
  2 29  1  0
  3 30  1  0
  3 31  1  0
  4 32  1  6
  6 33  1  0
  6 34  1  0
  6 35  1  0
  7 36  1  0
  7 37  1  0
  8 38  1  6
  9 39  1  6
 10 40  1  1
 11 41  1  0
 11 42  1  0
 12 43  1  1
 14 44  1  0
 17 45  1  0
 18 46  1  0
 20 47  1  0
 20 48  1  0
 20 49  1  0
 21 50  1  0
 21 51  1  0
 21 52  1  0
 24 53  1  0
 24 54  1  0
 25 55  1  0
 26 56  1  0
 27 57  1  0
M  END
>  <score>  (4) 
-7.637

$$$$
=
     RDKit          3D

 57 60  0  0  0  0  0  0  0  0999 V2000
    4.3470   61.2480   70.7870 C   0  0  1  0  0  0  0  0  0  0  0  0
    5.6800   61.2050   71.5700 C   0  0  0  0  0  0  0  0  0  0  0  0
    5.3790   60.4780   72.9000 C   0  0  0  0  0  0  0  0  0  0  0  0
    3.9590   59.9450   72.7320 C   0  0  2  0  0  0  0  0  0  0  0  0
    3.2620   61.0340   71.8880 C   0  0  1  0  0  0  0  0  0  0  0  0
    3.0370   62.3590   72.6650 C   0  0  0  0  0  0  0  0  0  0  0  0
    1.9150   60.4500   71.4090 C   0  0  0  0  0  0  0  0  0  0  0  0
    1.0300   59.9280   72.5630 C   0  0  1  0  0  0  0  0  0  0  0  0
    1.7790   58.9630   73.5330 C   0  0  1  0  0  0  0  0  0  0  0  0
    3.1640   59.5390   73.9830 C   0  0  1  0  0  0  0  0  0  0  0  0
    3.9530   58.5100   74.8130 C   0  0  0  0  0  0  0  0  0  0  0  0
    3.1540   57.9820   76.0120 C   0  0  1  0  0  0  0  0  0  0  0  0
    1.8280   57.4140   75.5140 C   0  0  0  0  0  0  0  0  0  0  0  0
    1.4740   56.1260   75.6880 C   0  0  0  0  0  0  0  0  0  0  0  0
    0.2100   55.5680   75.1640 C   0  0  0  0  0  0  0  0  0  0  0  0
   -0.0850   54.3910   75.3350 O   0  0  0  0  0  0  0  0  0  0  0  0
   -0.6780   56.4800   74.4280 C   0  0  0  0  0  0  0  0  0  0  0  0
   -0.3420   57.7630   74.2480 C   0  0  0  0  0  0  0  0  0  0  0  0
    0.9370   58.4230   74.7530 C   0  0  2  0  0  0  0  0  0  0  0  0
    0.4820   59.5180   75.7450 C   0  0  0  0  0  0  0  0  0  0  0  0
    4.0370   57.0250   76.8250 C   0  0  0  0  0  0  0  0  0  0  0  0
    4.0970   62.4710   69.8910 C   0  0  0  0  0  0  0  0  0  0  0  0
    4.7210   63.5220   70.0930 O   0  0  0  0  0  0  0  0  0  0  0  0
    3.0580   62.3980   68.7810 C   0  0  0  0  0  0  0  0  0  0  0  0
    3.4610   63.1470   67.6430 O   0  0  0  0  0  0  0  0  0  0  0  0
    4.3660   60.1200   69.8890 O   0  0  0  0  0  0  0  0  0  0  0  0
    0.4680   61.0280   73.2620 O   0  0  0  0  0  0  0  0  0  0  0  0
    6.4401   60.6529   70.9978 H   0  0  0  0  0  0  0  0  0  0  0  0
    6.0719   62.2173   71.7477 H   0  0  0  0  0  0  0  0  0  0  0  0
    6.0877   59.6522   73.0606 H   0  0  0  0  0  0  0  0  0  0  0  0
    5.4756   61.1429   73.7710 H   0  0  0  0  0  0  0  0  0  0  0  0
    4.0069   58.9533   72.2584 H   0  0  0  0  0  0  0  0  0  0  0  0
    3.0708   62.1602   73.7464 H   0  0  0  0  0  0  0  0  0  0  0  0
    3.8259   63.0782   72.3996 H   0  0  0  0  0  0  0  0  0  0  0  0
    2.0549   62.7775   72.3996 H   0  0  0  0  0  0  0  0  0  0  0  0
    1.3633   61.2375   70.8747 H   0  0  0  0  0  0  0  0  0  0  0  0
    2.1444   59.5916   70.7605 H   0  0  0  0  0  0  0  0  0  0  0  0
    0.2275   59.3243   72.1141 H   0  0  0  0  0  0  0  0  0  0  0  0
    1.9593   58.0662   72.9221 H   0  0  0  0  0  0  0  0  0  0  0  0
    2.9985   60.4180   74.6232 H   0  0  0  0  0  0  0  0  0  0  0  0
    4.2167   57.6617   74.1642 H   0  0  0  0  0  0  0  0  0  0  0  0
    4.8484   59.0143   75.2052 H   0  0  0  0  0  0  0  0  0  0  0  0
    2.8766   58.7782   76.7184 H   0  0  0  0  0  0  0  0  0  0  0  0
    2.1536   55.4625   76.2428 H   0  0  0  0  0  0  0  0  0  0  0  0
   -1.6283   56.1039   74.0211 H   0  0  0  0  0  0  0  0  0  0  0  0
   -1.0478   58.3947   73.6887 H   0  0  0  0  0  0  0  0  0  0  0  0
    0.6294   59.1632   76.7757 H   0  0  0  0  0  0  0  0  0  0  0  0
    1.0758   60.4296   75.5826 H   0  0  0  0  0  0  0  0  0  0  0  0
   -0.5830   59.7403   75.5826 H   0  0  0  0  0  0  0  0  0  0  0  0
    3.8754   57.2001   77.8989 H   0  0  0  0  0  0  0  0  0  0  0  0
    3.7740   55.9855   76.5793 H   0  0  0  0  0  0  0  0  0  0  0  0
    5.0942   57.2036   76.5793 H   0  0  0  0  0  0  0  0  0  0  0  0
    2.9214   61.3468   68.4874 H   0  0  0  0  0  0  0  0  0  0  0  0
    2.1168   62.8233   69.1596 H   0  0  0  0  0  0  0  0  0  0  0  0
    3.9089   63.9794   67.9375 H   0  0  0  0  0  0  0  0  0  0  0  0
    4.3801   59.2806   70.4138 H   0  0  0  0  0  0  0  0  0  0  0  0
    0.5465   60.8744   74.2369 H   0  0  0  0  0  0  0  0  0  0  0  0
  2  1  1  0
  3  2  1  0
  4  3  1  0
  5  4  1  0
  5  1  1  0
  5  6  1  1
  7  5  1  0
  8  7  1  0
  9  8  1  0
 10  9  1  0
 10  4  1  0
 11 10  1  0
 12 11  1  0
 13 12  1  0
 14 13  2  0
 15 14  1  0
 16 15  2  0
 17 15  1  0
 18 17  2  0
 19  9  1  0
 19 18  1  0
 19 13  1  0
 19 20  1  1
 21 12  1  0
 22  1  1  0
 23 22  2  0
 24 22  1  0
 25 24  1  0
  1 26  1  6
 27  8  1  0
  2 28  1  0
  2 29  1  0
  3 30  1  0
  3 31  1  0
  4 32  1  6
  6 33  1  0
  6 34  1  0
  6 35  1  0
  7 36  1  0
  7 37  1  0
  8 38  1  6
  9 39  1  6
 10 40  1  1
 11 41  1  0
 11 42  1  0
 12 43  1  1
 14 44  1  0
 17 45  1  0
 18 46  1  0
 20 47  1  0
 20 48  1  0
 20 49  1  0
 21 50  1  0
 21 51  1  0
 21 52  1  0
 24 53  1  0
 24 54  1  0
 25 55  1  0
 26 56  1  0
 27 57  1  0
M  END
>  <score>  (5) 
-7.406

$$$$
=
     RDKit          3D

 57 60  0  0  0  0  0  0  0  0999 V2000
    3.4540   61.5340   72.3350 C   0  0  1  0  0  0  0  0  0  0  0  0
    2.3010   62.4840   71.9380 C   0  0  0  0  0  0  0  0  0  0  0  0
    0.9910   61.7730   72.3470 C   0  0  0  0  0  0  0  0  0  0  0  0
    1.4500   60.5590   73.1510 C   0  0  2  0  0  0  0  0  0  0  0  0
    2.7630   60.1390   72.4540 C   0  0  1  0  0  0  0  0  0  0  0  0
    2.5400   59.5430   71.0390 C   0  0  0  0  0  0  0  0  0  0  0  0
    3.4600   59.1130   73.3730 C   0  0  0  0  0  0  0  0  0  0  0  0
    2.5630   57.9090   73.7370 C   0  0  1  0  0  0  0  0  0  0  0  0
    1.1580   58.3210   74.2750 C   0  0  1  0  0  0  0  0  0  0  0  0
    0.4710   59.3940   73.3640 C   0  0  1  0  0  0  0  0  0  0  0  0
   -0.8410   59.9000   73.9910 C   0  0  0  0  0  0  0  0  0  0  0  0
   -1.8090   58.7590   74.3340 C   0  0  1  0  0  0  0  0  0  0  0  0
   -1.0960   57.7580   75.2380 C   0  0  0  0  0  0  0  0  0  0  0  0
   -1.5220   57.4660   76.4820 C   0  0  0  0  0  0  0  0  0  0  0  0
   -0.8030   56.5300   77.3720 C   0  0  0  0  0  0  0  0  0  0  0  0
   -1.2120   56.2850   78.5010 O   0  0  0  0  0  0  0  0  0  0  0  0
    0.4230   55.9080   76.8510 C   0  0  0  0  0  0  0  0  0  0  0  0
    0.8590   56.1860   75.6160 C   0  0  0  0  0  0  0  0  0  0  0  0
    0.1820   57.1340   74.6310 C   0  0  2  0  0  0  0  0  0  0  0  0
   -0.2260   56.2620   73.4210 C   0  0  0  0  0  0  0  0  0  0  0  0
   -3.1150   59.3530   74.8790 C   0  0  0  0  0  0  0  0  0  0  0  0
    4.7060   61.5360   71.4430 C   0  0  0  0  0  0  0  0  0  0  0  0
    5.6650   60.8040   71.7250 O   0  0  0  0  0  0  0  0  0  0  0  0
    4.7780   62.4630   70.2380 C   0  0  0  0  0  0  0  0  0  0  0  0
    5.3160   63.7300   70.5900 O   0  0  0  0  0  0  0  0  0  0  0  0
    3.9130   61.9680   73.6300 O   0  0  0  0  0  0  0  0  0  0  0  0
    2.4540   57.0460   72.6160 O   0  0  0  0  0  0  0  0  0  0  0  0
    2.3965   63.4418   72.4704 H   0  0  0  0  0  0  0  0  0  0  0  0
    2.3169   62.7025   70.8600 H   0  0  0  0  0  0  0  0  0  0  0  0
    0.3659   62.4347   72.9646 H   0  0  0  0  0  0  0  0  0  0  0  0
    0.3787   61.4917   71.4776 H   0  0  0  0  0  0  0  0  0  0  0  0
    1.5603   60.8540   74.2049 H   0  0  0  0  0  0  0  0  0  0  0  0
    2.1558   58.5163   71.1300 H   0  0  0  0  0  0  0  0  0  0  0  0
    1.8118   60.1598   70.4919 H   0  0  0  0  0  0  0  0  0  0  0  0
    3.4942   59.5303   70.4919 H   0  0  0  0  0  0  0  0  0  0  0  0
    4.3571   58.7371   72.8592 H   0  0  0  0  0  0  0  0  0  0  0  0
    3.7059   59.6312   74.3116 H   0  0  0  0  0  0  0  0  0  0  0  0
    3.0480   57.3772   74.5688 H   0  0  0  0  0  0  0  0  0  0  0  0
    1.3758   58.7821   75.2497 H   0  0  0  0  0  0  0  0  0  0  0  0
    0.2165   58.9368   72.3964 H   0  0  0  0  0  0  0  0  0  0  0  0
   -0.6019   60.4488   74.9139 H   0  0  0  0  0  0  0  0  0  0  0  0
   -1.3363   60.5466   73.2517 H   0  0  0  0  0  0  0  0  0  0  0  0
   -2.1108   58.1796   73.4490 H   0  0  0  0  0  0  0  0  0  0  0  0
   -2.4420   57.9433   76.8505 H   0  0  0  0  0  0  0  0  0  0  0  0
    0.9881   55.2067   77.4826 H   0  0  0  0  0  0  0  0  0  0  0  0
    1.7826   55.6893   75.2838 H   0  0  0  0  0  0  0  0  0  0  0  0
   -0.6667   55.3202   73.7798 H   0  0  0  0  0  0  0  0  0  0  0  0
   -0.9643   56.8034   72.8112 H   0  0  0  0  0  0  0  0  0  0  0  0
    0.6627   56.0421   72.8112 H   0  0  0  0  0  0  0  0  0  0  0  0
   -3.0918   59.3424   75.9787 H   0  0  0  0  0  0  0  0  0  0  0  0
   -3.2228   60.3887   74.5245 H   0  0  0  0  0  0  0  0  0  0  0  0
   -3.9665   58.7536   74.5245 H   0  0  0  0  0  0  0  0  0  0  0  0
    5.4179   62.0032   69.4705 H   0  0  0  0  0  0  0  0  0  0  0  0
    3.7576   62.6142   69.8561 H   0  0  0  0  0  0  0  0  0  0  0  0
    5.3506   63.8114   71.5760 H   0  0  0  0  0  0  0  0  0  0  0  0
    3.4086   61.4910   74.3358 H   0  0  0  0  0  0  0  0  0  0  0  0
    2.3362   56.1137   72.9275 H   0  0  0  0  0  0  0  0  0  0  0  0
  2  1  1  0
  3  2  1  0
  4  3  1  0
  5  4  1  0
  5  1  1  0
  5  6  1  6
  7  5  1  0
  8  7  1  0
  9  8  1  0
 10  9  1  0
 10  4  1  0
 11 10  1  0
 12 11  1  0
 13 12  1  0
 14 13  2  0
 15 14  1  0
 16 15  2  0
 17 15  1  0
 18 17  2  0
 19  9  1  0
 19 18  1  0
 19 13  1  0
 19 20  1  6
 21 12  1  0
 22  1  1  0
 23 22  2  0
 24 22  1  0
 25 24  1  0
  1 26  1  1
 27  8  1  0
  2 28  1  0
  2 29  1  0
  3 30  1  0
  3 31  1  0
  4 32  1  1
  6 33  1  0
  6 34  1  0
  6 35  1  0
  7 36  1  0
  7 37  1  0
  8 38  1  1
  9 39  1  1
 10 40  1  6
 11 41  1  0
 11 42  1  0
 12 43  1  6
 14 44  1  0
 17 45  1  0
 18 46  1  0
 20 47  1  0
 20 48  1  0
 20 49  1  0
 21 50  1  0
 21 51  1  0
 21 52  1  0
 24 53  1  0
 24 54  1  0
 25 55  1  0
 26 56  1  0
 27 57  1  0
M  END
>  <score>  (6) 
-7.294

$$$$
=
     RDKit          3D

 57 60  0  0  0  0  0  0  0  0999 V2000
    4.2350   67.9710   62.6310 C   0  0  1  0  0  0  0  0  0  0  0  0
    5.2190   69.0880   63.0490 C   0  0  0  0  0  0  0  0  0  0  0  0
    4.7480   69.5880   64.4330 C   0  0  0  0  0  0  0  0  0  0  0  0
    3.6610   68.6000   64.8460 C   0  0  2  0  0  0  0  0  0  0  0  0
    2.9740   68.2390   63.5110 C   0  0  1  0  0  0  0  0  0  0  0  0
    2.1550   69.4110   62.9080 C   0  0  0  0  0  0  0  0  0  0  0  0
    2.0630   67.0210   63.7790 C   0  0  0  0  0  0  0  0  0  0  0  0
    1.0560   67.2520   64.9280 C   0  0  1  0  0  0  0  0  0  0  0  0
    1.7150   67.7930   66.2340 C   0  0  1  0  0  0  0  0  0  0  0  0
    2.6720   69.0010   65.9530 C   0  0  1  0  0  0  0  0  0  0  0  0
    3.4300   69.4200   67.2250 C   0  0  0  0  0  0  0  0  0  0  0  0
    2.4890   69.7180   68.4010 C   0  0  1  0  0  0  0  0  0  0  0  0
    1.5980   68.5030   68.6430 C   0  0  0  0  0  0  0  0  0  0  0  0
    1.5910   67.8240   69.8070 C   0  0  0  0  0  0  0  0  0  0  0  0
    0.7610   66.6200   70.0230 C   0  0  0  0  0  0  0  0  0  0  0  0
    0.7770   66.0200   71.0910 O   0  0  0  0  0  0  0  0  0  0  0  0
   -0.0810   66.1700   68.9050 C   0  0  0  0  0  0  0  0  0  0  0  0
   -0.0870   66.8340   67.7430 C   0  0  0  0  0  0  0  0  0  0  0  0
    0.7320   68.0830   67.4330 C   0  0  2  0  0  0  0  0  0  0  0  0
   -0.2960   69.2030   67.1550 C   0  0  0  0  0  0  0  0  0  0  0  0
    3.3160   70.2010   69.6000 C   0  0  0  0  0  0  0  0  0  0  0  0
    3.9320   67.8250   61.1320 C   0  0  0  0  0  0  0  0  0  0  0  0
    4.2230   66.7740   60.5430 O   0  0  0  0  0  0  0  0  0  0  0  0
    3.3070   68.9830   60.3670 C   0  0  0  0  0  0  0  0  0  0  0  0
    3.6380   68.9320   58.9860 O   0  0  0  0  0  0  0  0  0  0  0  0
    4.8470   66.7240   63.0150 O   0  0  0  0  0  0  0  0  0  0  0  0
    0.0180   68.1100   64.4800 O   0  0  0  0  0  0  0  0  0  0  0  0
    6.2417   68.6886   63.1165 H   0  0  0  0  0  0  0  0  0  0  0  0
    5.2314   69.9050   62.3126 H   0  0  0  0  0  0  0  0  0  0  0  0
    5.5786   69.5762   65.1541 H   0  0  0  0  0  0  0  0  0  0  0  0
    4.3811   70.6245   64.4008 H   0  0  0  0  0  0  0  0  0  0  0  0
    4.1324   67.7537   65.3671 H   0  0  0  0  0  0  0  0  0  0  0  0
    1.7306   70.0183   63.7211 H   0  0  0  0  0  0  0  0  0  0  0  0
    2.8131   70.0372   62.2877 H   0  0  0  0  0  0  0  0  0  0  0  0
    1.3407   69.0083   62.2877 H   0  0  0  0  0  0  0  0  0  0  0  0
    1.4999   66.7975   62.8609 H   0  0  0  0  0  0  0  0  0  0  0  0
    2.7142   66.1869   64.0793 H   0  0  0  0  0  0  0  0  0  0  0  0
    0.6369   66.2718   65.1992 H   0  0  0  0  0  0  0  0  0  0  0  0
    2.3202   66.9467   66.5911 H   0  0  0  0  0  0  0  0  0  0  0  0
    2.0747   69.8655   65.6275 H   0  0  0  0  0  0  0  0  0  0  0  0
    4.1094   68.6049   67.5150 H   0  0  0  0  0  0  0  0  0  0  0  0
    3.9805   70.3444   66.9959 H   0  0  0  0  0  0  0  0  0  0  0  0
    1.7945   70.5441   68.1883 H   0  0  0  0  0  0  0  0  0  0  0  0
    2.2286   68.1800   70.6296 H   0  0  0  0  0  0  0  0  0  0  0  0
   -0.7130   65.2777   69.0249 H   0  0  0  0  0  0  0  0  0  0  0  0
   -0.7370   66.4466   66.9446 H   0  0  0  0  0  0  0  0  0  0  0  0
   -0.6660   69.6062   68.1092 H   0  0  0  0  0  0  0  0  0  0  0  0
    0.1849   70.0073   66.5790 H   0  0  0  0  0  0  0  0  0  0  0  0
   -1.1385   68.7927   66.5790 H   0  0  0  0  0  0  0  0  0  0  0  0
    2.8139   69.9077   70.5337 H   0  0  0  0  0  0  0  0  0  0  0  0
    4.3164   69.7452   69.5629 H   0  0  0  0  0  0  0  0  0  0  0  0
    3.4105   71.2963   69.5629 H   0  0  0  0  0  0  0  0  0  0  0  0
    2.2134   68.9341   60.4748 H   0  0  0  0  0  0  0  0  0  0  0  0
    3.6990   69.9233   60.7820 H   0  0  0  0  0  0  0  0  0  0  0  0
    4.6114   68.7820   58.8853 H   0  0  0  0  0  0  0  0  0  0  0  0
    4.8776   66.6617   64.0026 H   0  0  0  0  0  0  0  0  0  0  0  0
   -0.4504   68.4972   65.2615 H   0  0  0  0  0  0  0  0  0  0  0  0
  2  1  1  0
  3  2  1  0
  4  3  1  0
  5  4  1  0
  5  1  1  0
  5  6  1  6
  7  5  1  0
  8  7  1  0
  9  8  1  0
 10  9  1  0
 10  4  1  0
 11 10  1  0
 12 11  1  0
 13 12  1  0
 14 13  2  0
 15 14  1  0
 16 15  2  0
 17 15  1  0
 18 17  2  0
 19  9  1  0
 19 18  1  0
 19 13  1  0
 19 20  1  6
 21 12  1  0
 22  1  1  0
 23 22  2  0
 24 22  1  0
 25 24  1  0
  1 26  1  1
 27  8  1  0
  2 28  1  0
  2 29  1  0
  3 30  1  0
  3 31  1  0
  4 32  1  1
  6 33  1  0
  6 34  1  0
  6 35  1  0
  7 36  1  0
  7 37  1  0
  8 38  1  1
  9 39  1  1
 10 40  1  6
 11 41  1  0
 11 42  1  0
 12 43  1  6
 14 44  1  0
 17 45  1  0
 18 46  1  0
 20 47  1  0
 20 48  1  0
 20 49  1  0
 21 50  1  0
 21 51  1  0
 21 52  1  0
 24 53  1  0
 24 54  1  0
 25 55  1  0
 26 56  1  0
 27 57  1  0
M  END
>  <score>  (7) 
-7.11

$$$$
=
     RDKit          3D

 57 60  0  0  0  0  0  0  0  0999 V2000
    3.6550   61.6270   71.5940 C   0  0  1  0  0  0  0  0  0  0  0  0
    2.7520   62.8160   71.9940 C   0  0  0  0  0  0  0  0  0  0  0  0
    2.1730   62.4740   73.3850 C   0  0  0  0  0  0  0  0  0  0  0  0
    2.9320   61.2220   73.8170 C   0  0  2  0  0  0  0  0  0  0  0  0
    3.1500   60.4560   72.4940 C   0  0  1  0  0  0  0  0  0  0  0  0
    1.8390   59.8710   71.9040 C   0  0  0  0  0  0  0  0  0  0  0  0
    4.1670   59.3310   72.7780 C   0  0  0  0  0  0  0  0  0  0  0  0
    3.7480   58.4070   73.9430 C   0  0  1  0  0  0  0  0  0  0  0  0
    3.3490   59.1800   75.2370 C   0  0  1  0  0  0  0  0  0  0  0  0
    2.3500   60.3490   74.9400 C   0  0  1  0  0  0  0  0  0  0  0  0
    2.0890   61.1940   76.2000 C   0  0  0  0  0  0  0  0  0  0  0  0
    1.6170   60.3480   77.3900 C   0  0  1  0  0  0  0  0  0  0  0  0
    2.6370   59.2420   77.6480 C   0  0  0  0  0  0  0  0  0  0  0  0
    3.3040   59.1220   78.8130 C   0  0  0  0  0  0  0  0  0  0  0  0
    4.3240   58.0780   79.0430 C   0  0  0  0  0  0  0  0  0  0  0  0
    4.9190   57.9940   80.1110 O   0  0  0  0  0  0  0  0  0  0  0  0
    4.6000   57.1460   77.9390 C   0  0  0  0  0  0  0  0  0  0  0  0
    3.9440   57.2510   76.7770 C   0  0  0  0  0  0  0  0  0  0  0  0
    2.8770   58.2920   76.4520 C   0  0  2  0  0  0  0  0  0  0  0  0
    1.5780   57.4960   76.1910 C   0  0  0  0  0  0  0  0  0  0  0  0
    1.3070   61.2730   78.5760 C   0  0  0  0  0  0  0  0  0  0  0  0
    3.7350   61.2770   70.0990 C   0  0  0  0  0  0  0  0  0  0  0  0
    4.5860   60.4690   69.7000 O   0  0  0  0  0  0  0  0  0  0  0  0
    2.7940   61.9490   69.1100 C   0  0  0  0  0  0  0  0  0  0  0  0
    3.4580   62.9640   68.3700 O   0  0  0  0  0  0  0  0  0  0  0  0
    4.9980   61.9910   71.9680 O   0  0  0  0  0  0  0  0  0  0  0  0
    2.7030   57.5480   73.5120 O   0  0  0  0  0  0  0  0  0  0  0  0
    3.3429   63.7424   72.0450 H   0  0  0  0  0  0  0  0  0  0  0  0
    1.9515   62.9751   71.2565 H   0  0  0  0  0  0  0  0  0  0  0  0
    2.3477   63.2981   74.0923 H   0  0  0  0  0  0  0  0  0  0  0  0
    1.0849   62.3152   73.3579 H   0  0  0  0  0  0  0  0  0  0  0  0
    3.8551   61.5284   74.3309 H   0  0  0  0  0  0  0  0  0  0  0  0
    1.1693   59.5722   72.7239 H   0  0  0  0  0  0  0  0  0  0  0  0
    1.3433   60.6333   71.2850 H   0  0  0  0  0  0  0  0  0  0  0  0
    2.0753   58.9929   71.2850 H   0  0  0  0  0  0  0  0  0  0  0  0
    4.2745   58.7202   71.8695 H   0  0  0  0  0  0  0  0  0  0  0  0
    5.1123   59.8126   73.0685 H   0  0  0  0  0  0  0  0  0  0  0  0
    4.6287   57.8096   74.2214 H   0  0  0  0  0  0  0  0  0  0  0  0
    4.2978   59.6151   75.5841 H   0  0  0  0  0  0  0  0  0  0  0  0
    1.3847   59.9267   74.6238 H   0  0  0  0  0  0  0  0  0  0  0  0
    3.0211   61.7067   76.4798 H   0  0  0  0  0  0  0  0  0  0  0  0
    1.2885   61.9097   75.9615 H   0  0  0  0  0  0  0  0  0  0  0  0
    0.6714   59.8237   77.1874 H   0  0  0  0  0  0  0  0  0  0  0  0
    3.0801   59.8295   79.6250 H   0  0  0  0  0  0  0  0  0  0  0  0
    5.3530   56.3549   78.0696 H   0  0  0  0  0  0  0  0  0  0  0  0
    4.1955   56.5252   75.9896 H   0  0  0  0  0  0  0  0  0  0  0  0
    1.1205   57.2157   77.1513 H   0  0  0  0  0  0  0  0  0  0  0  0
    0.8752   58.1187   75.6180 H   0  0  0  0  0  0  0  0  0  0  0  0
    1.8138   56.5871   75.6180 H   0  0  0  0  0  0  0  0  0  0  0  0
    1.4875   60.7344   79.5180 H   0  0  0  0  0  0  0  0  0  0  0  0
    1.9573   62.1590   78.5298 H   0  0  0  0  0  0  0  0  0  0  0  0
    0.2541   61.5882   78.5298 H   0  0  0  0  0  0  0  0  0  0  0  0
    2.4081   61.1915   68.4119 H   0  0  0  0  0  0  0  0  0  0  0  0
    1.9725   62.4138   69.6749 H   0  0  0  0  0  0  0  0  0  0  0  0
    3.8784   63.6066   68.9949 H   0  0  0  0  0  0  0  0  0  0  0  0
    5.0717   62.0110   72.9550 H   0  0  0  0  0  0  0  0  0  0  0  0
    2.2412   57.1684   74.3012 H   0  0  0  0  0  0  0  0  0  0  0  0
  2  1  1  0
  3  2  1  0
  4  3  1  0
  5  4  1  0
  5  1  1  0
  5  6  1  6
  7  5  1  0
  8  7  1  0
  9  8  1  0
 10  9  1  0
 10  4  1  0
 11 10  1  0
 12 11  1  0
 13 12  1  0
 14 13  2  0
 15 14  1  0
 16 15  2  0
 17 15  1  0
 18 17  2  0
 19  9  1  0
 19 18  1  0
 19 13  1  0
 19 20  1  6
 21 12  1  0
 22  1  1  0
 23 22  2  0
 24 22  1  0
 25 24  1  0
  1 26  1  1
 27  8  1  0
  2 28  1  0
  2 29  1  0
  3 30  1  0
  3 31  1  0
  4 32  1  1
  6 33  1  0
  6 34  1  0
  6 35  1  0
  7 36  1  0
  7 37  1  0
  8 38  1  1
  9 39  1  1
 10 40  1  6
 11 41  1  0
 11 42  1  0
 12 43  1  6
 14 44  1  0
 17 45  1  0
 18 46  1  0
 20 47  1  0
 20 48  1  0
 20 49  1  0
 21 50  1  0
 21 51  1  0
 21 52  1  0
 24 53  1  0
 24 54  1  0
 25 55  1  0
 26 56  1  0
 27 57  1  0
M  END
>  <score>  (8) 
-6.918

$$$$
