=
     RDKit          3D

 33 33  0  0  0  0  0  0  0  0999 V2000
    3.2550   69.0960   65.3350 C   0  0  0  0  0  0  0  0  0  0  0  0
    4.4800   69.1220   64.6630 C   0  0  0  0  0  0  0  0  0  0  0  0
    5.6430   69.5140   65.3300 C   0  0  0  0  0  0  0  0  0  0  0  0
    5.6050   69.8790   66.6740 C   0  0  0  0  0  0  0  0  0  0  0  0
    4.3840   69.8610   67.3480 C   0  0  0  0  0  0  0  0  0  0  0  0
    3.1950   69.4680   66.6950 C   0  0  0  0  0  0  0  0  0  0  0  0
    2.0020   68.6940   63.3400 C   0  0  0  0  0  0  0  0  0  0  0  0
    2.0660   68.7240   64.7610 O   0  0  0  0  0  0  0  0  0  0  0  0
    1.8580   69.4650   67.4330 C   0  0  2  0  0  0  0  0  0  0  0  0
    1.9270   70.3790   68.6600 C   0  0  0  0  0  0  0  0  0  0  0  0
    1.4550   68.1090   67.8790 N   0  0  0  0  0  0  0  0  0  0  0  0
   -0.0680   67.5770   67.4990 S   0  0  0  0  0  6  0  0  0  0  0  0
   -0.9200   68.7110   67.2580 O   0  0  0  0  0  0  0  0  0  0  0  0
   -0.4140   66.5230   68.4150 O   0  0  0  0  0  0  0  0  0  0  0  0
    0.2440   66.8830   66.0260 N   0  0  0  0  0  0  0  0  0  0  0  0
    6.8140   70.2360   67.2030 O   0  0  0  0  0  0  0  0  0  0  0  0
    6.7900   70.9890   68.4100 C   0  0  0  0  0  0  0  0  0  0  0  0
    4.5287   68.8322   63.6030 H   0  0  0  0  0  0  0  0  0  0  0  0
    6.5999   69.5348   64.7879 H   0  0  0  0  0  0  0  0  0  0  0  0
    4.3465   70.1580   68.4065 H   0  0  0  0  0  0  0  0  0  0  0  0
    1.0476   68.2466   63.0253 H   0  0  0  0  0  0  0  0  0  0  0  0
    2.0732   69.7193   62.9480 H   0  0  0  0  0  0  0  0  0  0  0  0
    2.8357   68.0929   62.9480 H   0  0  0  0  0  0  0  0  0  0  0  0
    1.1070   69.8301   66.7170 H   0  0  0  0  0  0  0  0  0  0  0  0
    1.8810   69.7693   69.5744 H   0  0  0  0  0  0  0  0  0  0  0  0
    2.8704   70.9445   68.6434 H   0  0  0  0  0  0  0  0  0  0  0  0
    1.0792   71.0797   68.6434 H   0  0  0  0  0  0  0  0  0  0  0  0
    2.1227   67.4416   67.4672 H   0  0  0  0  0  0  0  0  0  0  0  0
    0.6624   65.9524   66.1667 H   0  0  0  0  0  0  0  0  0  0  0  0
   -0.6353   66.7879   65.4981 H   0  0  0  0  0  0  0  0  0  0  0  0
    6.8118   70.3037   69.2702 H   0  0  0  0  0  0  0  0  0  0  0  0
    7.6675   71.6513   68.4465 H   0  0  0  0  0  0  0  0  0  0  0  0
    5.8721   71.5941   68.4465 H   0  0  0  0  0  0  0  0  0  0  0  0
  2  1  2  0
  3  2  1  0
  4  3  2  0
  5  4  1  0
  6  1  1  0
  6  5  2  0
  8  7  1  0
  8  1  1  0
  9  6  1  0
 10  9  1  0
 11  9  1  0
 12 11  1  0
 13 12  2  0
 14 12  2  0
 15 12  1  0
 16  4  1  0
 17 16  1  0
  2 18  1  0
  3 19  1  0
  5 20  1  0
  7 21  1  0
  7 22  1  0
  7 23  1  0
  9 24  1  6
 10 25  1  0
 10 26  1  0
 10 27  1  0
 11 28  1  0
 15 29  1  0
 15 30  1  0
 17 31  1  0
 17 32  1  0
 17 33  1  0
M  END
>  <score>  (1) 
-7.417

$$$$
=
     RDKit          3D

 33 33  0  0  0  0  0  0  0  0999 V2000
    2.8010   69.4900   67.5690 C   0  0  0  0  0  0  0  0  0  0  0  0
    3.2320   70.1810   68.7040 C   0  0  0  0  0  0  0  0  0  0  0  0
    4.5300   70.6930   68.7670 C   0  0  0  0  0  0  0  0  0  0  0  0
    5.4140   70.5290   67.7030 C   0  0  0  0  0  0  0  0  0  0  0  0
    4.9910   69.8350   66.5700 C   0  0  0  0  0  0  0  0  0  0  0  0
    3.6830   69.3090   66.4820 C   0  0  0  0  0  0  0  0  0  0  0  0
    1.1630   67.9150   68.3110 C   0  0  0  0  0  0  0  0  0  0  0  0
    1.5460   68.9550   67.4190 O   0  0  0  0  0  0  0  0  0  0  0  0
    3.2290   68.5340   65.2460 C   0  0  2  0  0  0  0  0  0  0  0  0
    4.3130   68.5780   64.1650 C   0  0  0  0  0  0  0  0  0  0  0  0
    1.9700   69.0660   64.6700 N   0  0  0  0  0  0  0  0  0  0  0  0
    0.7950   67.9870   64.2200 S   0  0  0  0  0  6  0  0  0  0  0  0
    1.1250   66.6850   64.7330 O   0  0  0  0  0  0  0  0  0  0  0  0
    0.4780   68.2240   62.8380 O   0  0  0  0  0  0  0  0  0  0  0  0
   -0.4670   68.5610   65.1310 N   0  0  0  0  0  0  0  0  0  0  0  0
    6.6490   71.0830   67.8960 O   0  0  0  0  0  0  0  0  0  0  0  0
    7.2170   70.9510   69.1940 C   0  0  0  0  0  0  0  0  0  0  0  0
    2.5459   70.3226   69.5521 H   0  0  0  0  0  0  0  0  0  0  0  0
    4.8582   71.2323   69.6678 H   0  0  0  0  0  0  0  0  0  0  0  0
    5.6877   69.6947   65.7304 H   0  0  0  0  0  0  0  0  0  0  0  0
    1.2890   68.2571   69.3488 H   0  0  0  0  0  0  0  0  0  0  0  0
    0.1091   67.6522   68.1369 H   0  0  0  0  0  0  0  0  0  0  0  0
    1.7947   67.0315   68.1369 H   0  0  0  0  0  0  0  0  0  0  0  0
    3.0486   67.5002   65.5756 H   0  0  0  0  0  0  0  0  0  0  0  0
    5.3039   68.6182   64.6408 H   0  0  0  0  0  0  0  0  0  0  0  0
    4.2432   67.6763   63.5389 H   0  0  0  0  0  0  0  0  0  0  0  0
    4.1704   69.4711   63.5389 H   0  0  0  0  0  0  0  0  0  0  0  0
    1.5545   69.6940   65.3727 H   0  0  0  0  0  0  0  0  0  0  0  0
   -0.2428   68.4590   66.1311 H   0  0  0  0  0  0  0  0  0  0  0  0
   -0.6227   69.5557   64.9138 H   0  0  0  0  0  0  0  0  0  0  0  0
    6.4419   71.1311   69.9535 H   0  0  0  0  0  0  0  0  0  0  0  0
    7.6208   69.9351   69.3160 H   0  0  0  0  0  0  0  0  0  0  0  0
    8.0274   71.6847   69.3160 H   0  0  0  0  0  0  0  0  0  0  0  0
  2  1  2  0
  3  2  1  0
  4  3  2  0
  5  4  1  0
  6  1  1  0
  6  5  2  0
  8  7  1  0
  8  1  1  0
  9  6  1  0
 10  9  1  0
 11  9  1  0
 12 11  1  0
 13 12  2  0
 14 12  2  0
 15 12  1  0
 16  4  1  0
 17 16  1  0
  2 18  1  0
  3 19  1  0
  5 20  1  0
  7 21  1  0
  7 22  1  0
  7 23  1  0
  9 24  1  1
 10 25  1  0
 10 26  1  0
 10 27  1  0
 11 28  1  0
 15 29  1  0
 15 30  1  0
 17 31  1  0
 17 32  1  0
 17 33  1  0
M  END
>  <score>  (2) 
-7.395

$$$$
=
     RDKit          3D

 33 33  0  0  0  0  0  0  0  0999 V2000
    2.8790   69.4340   67.4030 C   0  0  0  0  0  0  0  0  0  0  0  0
    3.9690   69.7060   66.5730 C   0  0  0  0  0  0  0  0  0  0  0  0
    4.1500   68.9880   65.3880 C   0  0  0  0  0  0  0  0  0  0  0  0
    3.2480   67.9960   65.0110 C   0  0  0  0  0  0  0  0  0  0  0  0
    2.1610   67.7160   65.8390 C   0  0  0  0  0  0  0  0  0  0  0  0
    1.9570   68.4290   67.0410 C   0  0  0  0  0  0  0  0  0  0  0  0
    3.6940   70.8030   69.1840 C   0  0  0  0  0  0  0  0  0  0  0  0
    2.6220   70.0880   68.5820 O   0  0  0  0  0  0  0  0  0  0  0  0
    0.7740   68.1080   67.9530 C   0  0  2  0  0  0  0  0  0  0  0  0
    1.1780   67.0620   68.9970 C   0  0  0  0  0  0  0  0  0  0  0  0
   -0.4000   67.5960   67.2060 N   0  0  0  0  0  0  0  0  0  0  0  0
   -1.4830   68.6930   66.5960 S   0  0  0  0  0  6  0  0  0  0  0  0
   -1.5870   68.5160   65.1730 O   0  0  0  0  0  0  0  0  0  0  0  0
   -1.2170   69.9680   67.2070 O   0  0  0  0  0  0  0  0  0  0  0  0
   -2.8800   68.0980   67.2620 N   0  0  0  0  0  0  0  0  0  0  0  0
    3.5420   67.3760   63.8280 O   0  0  0  0  0  0  0  0  0  0  0  0
    3.1480   68.0460   62.6360 C   0  0  0  0  0  0  0  0  0  0  0  0
    4.6885   70.4893   66.8536 H   0  0  0  0  0  0  0  0  0  0  0  0
    5.0150   69.2088   64.7454 H   0  0  0  0  0  0  0  0  0  0  0  0
    1.4509   66.9268   65.5511 H   0  0  0  0  0  0  0  0  0  0  0  0
    3.6052   70.7438   70.2788 H   0  0  0  0  0  0  0  0  0  0  0  0
    4.6513   70.3619   68.8694 H   0  0  0  0  0  0  0  0  0  0  0  0
    3.6546   71.8563   68.8694 H   0  0  0  0  0  0  0  0  0  0  0  0
    0.4894   69.0535   68.4377 H   0  0  0  0  0  0  0  0  0  0  0  0
    1.0201   67.4709   70.0059 H   0  0  0  0  0  0  0  0  0  0  0  0
    0.5642   66.1584   68.8673 H   0  0  0  0  0  0  0  0  0  0  0  0
    2.2398   66.8056   68.8673 H   0  0  0  0  0  0  0  0  0  0  0  0
   -0.0405   67.0482   66.4113 H   0  0  0  0  0  0  0  0  0  0  0  0
   -2.8104   68.1276   68.2892 H   0  0  0  0  0  0  0  0  0  0  0  0
   -3.6783   68.6721   66.9553 H   0  0  0  0  0  0  0  0  0  0  0  0
    2.6061   68.9675   62.8953 H   0  0  0  0  0  0  0  0  0  0  0  0
    4.0409   68.2995   62.0456 H   0  0  0  0  0  0  0  0  0  0  0  0
    2.4925   67.3889   62.0456 H   0  0  0  0  0  0  0  0  0  0  0  0
  2  1  2  0
  3  2  1  0
  4  3  2  0
  5  4  1  0
  6  1  1  0
  6  5  2  0
  8  7  1  0
  8  1  1  0
  9  6  1  0
 10  9  1  0
 11  9  1  0
 12 11  1  0
 13 12  2  0
 14 12  2  0
 15 12  1  0
 16  4  1  0
 17 16  1  0
  2 18  1  0
  3 19  1  0
  5 20  1  0
  7 21  1  0
  7 22  1  0
  7 23  1  0
  9 24  1  1
 10 25  1  0
 10 26  1  0
 10 27  1  0
 11 28  1  0
 15 29  1  0
 15 30  1  0
 17 31  1  0
 17 32  1  0
 17 33  1  0
M  END
>  <score>  (3) 
-6.992

$$$$
=
     RDKit          3D

 33 33  0  0  0  0  0  0  0  0999 V2000
    3.3300   69.2150   66.8300 C   0  0  0  0  0  0  0  0  0  0  0  0
    4.5220   69.9450   66.7990 C   0  0  0  0  0  0  0  0  0  0  0  0
    5.2670   70.0290   65.6200 C   0  0  0  0  0  0  0  0  0  0  0  0
    4.8360   69.3930   64.4580 C   0  0  0  0  0  0  0  0  0  0  0  0
    3.6510   68.6590   64.4850 C   0  0  0  0  0  0  0  0  0  0  0  0
    2.8800   68.5600   65.6640 C   0  0  0  0  0  0  0  0  0  0  0  0
    2.6240   70.0890   68.9390 C   0  0  0  0  0  0  0  0  0  0  0  0
    2.5350   69.0800   67.9400 O   0  0  0  0  0  0  0  0  0  0  0  0
    1.5910   67.7410   65.6940 C   0  0  2  0  0  0  0  0  0  0  0  0
    1.7110   66.5290   64.7640 C   0  0  0  0  0  0  0  0  0  0  0  0
    0.4030   68.5300   65.2850 N   0  0  0  0  0  0  0  0  0  0  0  0
   -0.9380   68.4890   66.2570 S   0  0  0  0  0  6  0  0  0  0  0  0
   -0.8580   69.5520   67.2220 O   0  0  0  0  0  0  0  0  0  0  0  0
   -1.1830   67.1200   66.6230 O   0  0  0  0  0  0  0  0  0  0  0  0
   -2.0920   68.9270   65.1490 N   0  0  0  0  0  0  0  0  0  0  0  0
    5.6580   69.5600   63.3780 O   0  0  0  0  0  0  0  0  0  0  0  0
    5.8840   68.4190   62.5590 C   0  0  0  0  0  0  0  0  0  0  0  0
    4.8750   70.4556   67.7071 H   0  0  0  0  0  0  0  0  0  0  0  0
    6.2047   70.6040   65.6092 H   0  0  0  0  0  0  0  0  0  0  0  0
    3.3107   68.1482   63.5722 H   0  0  0  0  0  0  0  0  0  0  0  0
    2.5830   69.6236   69.9349 H   0  0  0  0  0  0  0  0  0  0  0  0
    3.5736   70.6328   68.8273 H   0  0  0  0  0  0  0  0  0  0  0  0
    1.7843   70.7907   68.8273 H   0  0  0  0  0  0  0  0  0  0  0  0
    1.4506   67.4207   66.7369 H   0  0  0  0  0  0  0  0  0  0  0  0
    1.8017   65.6127   65.3657 H   0  0  0  0  0  0  0  0  0  0  0  0
    0.8149   66.4637   64.1293 H   0  0  0  0  0  0  0  0  0  0  0  0
    2.6025   66.6407   64.1293 H   0  0  0  0  0  0  0  0  0  0  0  0
    0.6994   69.5140   65.2152 H   0  0  0  0  0  0  0  0  0  0  0  0
   -2.9373   69.2478   65.6423 H   0  0  0  0  0  0  0  0  0  0  0  0
   -1.7292   69.6888   64.5583 H   0  0  0  0  0  0  0  0  0  0  0  0
    6.0583   67.5392   63.1959 H   0  0  0  0  0  0  0  0  0  0  0  0
    5.0032   68.2432   61.9239 H   0  0  0  0  0  0  0  0  0  0  0  0
    6.7653   68.5923   61.9239 H   0  0  0  0  0  0  0  0  0  0  0  0
  2  1  2  0
  3  2  1  0
  4  3  2  0
  5  4  1  0
  6  1  1  0
  6  5  2  0
  8  7  1  0
  8  1  1  0
  9  6  1  0
 10  9  1  0
 11  9  1  0
 12 11  1  0
 13 12  2  0
 14 12  2  0
 15 12  1  0
 16  4  1  0
 17 16  1  0
  2 18  1  0
  3 19  1  0
  5 20  1  0
  7 21  1  0
  7 22  1  0
  7 23  1  0
  9 24  1  1
 10 25  1  0
 10 26  1  0
 10 27  1  0
 11 28  1  0
 15 29  1  0
 15 30  1  0
 17 31  1  0
 17 32  1  0
 17 33  1  0
M  END
>  <score>  (4) 
-6.864

$$$$
=
     RDKit          3D

 33 33  0  0  0  0  0  0  0  0999 V2000
    2.7630   69.2110   66.2510 C   0  0  0  0  0  0  0  0  0  0  0  0
    2.3030   69.3920   67.5580 C   0  0  0  0  0  0  0  0  0  0  0  0
    0.9900   69.0600   67.8970 C   0  0  0  0  0  0  0  0  0  0  0  0
    0.1180   68.5400   66.9430 C   0  0  0  0  0  0  0  0  0  0  0  0
    0.5690   68.3620   65.6350 C   0  0  0  0  0  0  0  0  0  0  0  0
    1.8930   68.6890   65.2700 C   0  0  0  0  0  0  0  0  0  0  0  0
    4.9840   69.8840   66.8210 C   0  0  0  0  0  0  0  0  0  0  0  0
    4.0350   69.5070   65.8300 O   0  0  0  0  0  0  0  0  0  0  0  0
    2.3790   68.5090   63.8330 C   0  0  2  0  0  0  0  0  0  0  0  0
    1.2400   68.7930   62.8480 C   0  0  0  0  0  0  0  0  0  0  0  0
    2.8950   67.1430   63.5720 N   0  0  0  0  0  0  0  0  0  0  0  0
    4.3070   66.9860   62.7170 S   0  0  0  0  0  6  0  0  0  0  0  0
    5.3620   67.6710   63.4150 O   0  0  0  0  0  0  0  0  0  0  0  0
    4.0140   67.2140   61.3280 O   0  0  0  0  0  0  0  0  0  0  0  0
    4.5690   65.3610   62.9170 N   0  0  0  0  0  0  0  0  0  0  0  0
   -1.1350   68.2550   67.4100 O   0  0  0  0  0  0  0  0  0  0  0  0
   -1.3830   66.9120   67.8090 C   0  0  0  0  0  0  0  0  0  0  0  0
    2.9794   69.7985   68.3243 H   0  0  0  0  0  0  0  0  0  0  0  0
    0.6401   69.2107   68.9289 H   0  0  0  0  0  0  0  0  0  0  0  0
   -0.1181   67.9603   64.8757 H   0  0  0  0  0  0  0  0  0  0  0  0
    4.5573   69.7145   67.8206 H   0  0  0  0  0  0  0  0  0  0  0  0
    5.8957   69.2798   66.7042 H   0  0  0  0  0  0  0  0  0  0  0  0
    5.2326   70.9492   66.7042 H   0  0  0  0  0  0  0  0  0  0  0  0
    3.2038   69.2230   63.6920 H   0  0  0  0  0  0  0  0  0  0  0  0
    0.3206   69.0222   63.4068 H   0  0  0  0  0  0  0  0  0  0  0  0
    1.5082   69.6518   62.2151 H   0  0  0  0  0  0  0  0  0  0  0  0
    1.0736   67.9089   62.2151 H   0  0  0  0  0  0  0  0  0  0  0  0
    3.0406   66.6921   64.4866 H   0  0  0  0  0  0  0  0  0  0  0  0
    4.6046   65.1402   63.9224 H   0  0  0  0  0  0  0  0  0  0  0  0
    3.8023   64.8328   62.4764 H   0  0  0  0  0  0  0  0  0  0  0  0
   -1.3941   66.8519   68.9073 H   0  0  0  0  0  0  0  0  0  0  0  0
   -2.3565   66.5860   67.4141 H   0  0  0  0  0  0  0  0  0  0  0  0
   -0.5901   66.2598   67.4141 H   0  0  0  0  0  0  0  0  0  0  0  0
  2  1  2  0
  3  2  1  0
  4  3  2  0
  5  4  1  0
  6  1  1  0
  6  5  2  0
  8  7  1  0
  8  1  1  0
  9  6  1  0
 10  9  1  0
 11  9  1  0
 12 11  1  0
 13 12  2  0
 14 12  2  0
 15 12  1  0
 16  4  1  0
 17 16  1  0
  2 18  1  0
  3 19  1  0
  5 20  1  0
  7 21  1  0
  7 22  1  0
  7 23  1  0
  9 24  1  6
 10 25  1  0
 10 26  1  0
 10 27  1  0
 11 28  1  0
 15 29  1  0
 15 30  1  0
 17 31  1  0
 17 32  1  0
 17 33  1  0
M  END
>  <score>  (5) 
-6.6

$$$$
=
     RDKit          3D

 33 33  0  0  0  0  0  0  0  0999 V2000
    1.2530   63.2180   71.8850 C   0  0  0  0  0  0  0  0  0  0  0  0
    0.1850   64.1160   71.9560 C   0  0  0  0  0  0  0  0  0  0  0  0
    0.2000   65.2900   71.1990 C   0  0  0  0  0  0  0  0  0  0  0  0
    1.2730   65.5840   70.3600 C   0  0  0  0  0  0  0  0  0  0  0  0
    2.3440   64.6940   70.2900 C   0  0  0  0  0  0  0  0  0  0  0  0
    2.3510   63.5000   71.0450 C   0  0  0  0  0  0  0  0  0  0  0  0
    0.1710   61.2080   72.5920 C   0  0  0  0  0  0  0  0  0  0  0  0
    1.3230   62.0420   72.5900 O   0  0  0  0  0  0  0  0  0  0  0  0
    3.5340   62.5360   70.9780 C   0  0  2  0  0  0  0  0  0  0  0  0
    4.7470   63.2270   70.3470 C   0  0  0  0  0  0  0  0  0  0  0  0
    3.2310   61.3130   70.1960 N   0  0  0  0  0  0  0  0  0  0  0  0
    3.8120   59.8630   70.7500 S   0  0  0  0  0  6  0  0  0  0  0  0
    2.8490   59.2760   71.6420 O   0  0  0  0  0  0  0  0  0  0  0  0
    5.1950   60.0410   71.1020 O   0  0  0  0  0  0  0  0  0  0  0  0
    3.7600   58.9910   69.3400 N   0  0  0  0  0  0  0  0  0  0  0  0
    1.1560   66.7620   69.6760 O   0  0  0  0  0  0  0  0  0  0  0  0
    0.0300   66.8960   68.8160 C   0  0  0  0  0  0  0  0  0  0  0  0
   -0.6714   63.8976   72.6109 H   0  0  0  0  0  0  0  0  0  0  0  0
   -0.6453   65.9907   71.2660 H   0  0  0  0  0  0  0  0  0  0  0  0
    3.1977   64.9254   69.6360 H   0  0  0  0  0  0  0  0  0  0  0  0
   -0.1248   60.9938   73.6296 H   0  0  0  0  0  0  0  0  0  0  0  0
   -0.6533   61.7201   72.0740 H   0  0  0  0  0  0  0  0  0  0  0  0
    0.4001   60.2650   72.0740 H   0  0  0  0  0  0  0  0  0  0  0  0
    3.7505   62.2380   72.0145 H   0  0  0  0  0  0  0  0  0  0  0  0
    5.4085   63.6038   71.1410 H   0  0  0  0  0  0  0  0  0  0  0  0
    5.2963   62.5063   69.7235 H   0  0  0  0  0  0  0  0  0  0  0  0
    4.4072   64.0671   69.7235 H   0  0  0  0  0  0  0  0  0  0  0  0
    2.2056   61.2308   70.1434 H   0  0  0  0  0  0  0  0  0  0  0  0
    3.7001   57.9865   69.5596 H   0  0  0  0  0  0  0  0  0  0  0  0
    2.9343   59.2726   68.7924 H   0  0  0  0  0  0  0  0  0  0  0  0
   -0.8824   67.0046   69.4208 H   0  0  0  0  0  0  0  0  0  0  0  0
    0.1572   67.7853   68.1813 H   0  0  0  0  0  0  0  0  0  0  0  0
   -0.0551   66.0016   68.1813 H   0  0  0  0  0  0  0  0  0  0  0  0
  2  1  2  0
  3  2  1  0
  4  3  2  0
  5  4  1  0
  6  1  1  0
  6  5  2  0
  8  7  1  0
  8  1  1  0
  9  6  1  0
 10  9  1  0
 11  9  1  0
 12 11  1  0
 13 12  2  0
 14 12  2  0
 15 12  1  0
 16  4  1  0
 17 16  1  0
  2 18  1  0
  3 19  1  0
  5 20  1  0
  7 21  1  0
  7 22  1  0
  7 23  1  0
  9 24  1  1
 10 25  1  0
 10 26  1  0
 10 27  1  0
 11 28  1  0
 15 29  1  0
 15 30  1  0
 17 31  1  0
 17 32  1  0
 17 33  1  0
M  END
>  <score>  (6) 
-6.42

$$$$
=
     RDKit          3D

 33 33  0  0  0  0  0  0  0  0999 V2000
    1.5400   68.6720   66.4890 C   0  0  0  0  0  0  0  0  0  0  0  0
    1.5500   69.4010   67.6810 C   0  0  0  0  0  0  0  0  0  0  0  0
    2.7350   69.9770   68.1460 C   0  0  0  0  0  0  0  0  0  0  0  0
    3.9220   69.8400   67.4310 C   0  0  0  0  0  0  0  0  0  0  0  0
    3.9200   69.1080   66.2440 C   0  0  0  0  0  0  0  0  0  0  0  0
    2.7340   68.5180   65.7530 C   0  0  0  0  0  0  0  0  0  0  0  0
   -0.7280   67.9800   66.7850 C   0  0  0  0  0  0  0  0  0  0  0  0
    0.4250   68.0750   65.9570 O   0  0  0  0  0  0  0  0  0  0  0  0
    2.7390   67.7030   64.4610 C   0  0  2  0  0  0  0  0  0  0  0  0
    2.5530   66.2140   64.7710 C   0  0  0  0  0  0  0  0  0  0  0  0
    3.9930   67.8680   63.6870 N   0  0  0  0  0  0  0  0  0  0  0  0
    3.8900   68.4560   62.1410 S   0  0  0  0  0  6  0  0  0  0  0  0
    4.9840   69.3580   61.9020 O   0  0  0  0  0  0  0  0  0  0  0  0
    2.5190   68.8080   61.8880 O   0  0  0  0  0  0  0  0  0  0  0  0
    4.2150   67.0650   61.2970 N   0  0  0  0  0  0  0  0  0  0  0  0
    5.0040   70.4560   67.9970 O   0  0  0  0  0  0  0  0  0  0  0  0
    6.2340   70.3750   67.2860 C   0  0  0  0  0  0  0  0  0  0  0  0
    0.6202   69.5220   68.2562 H   0  0  0  0  0  0  0  0  0  0  0  0
    2.7302   70.5453   69.0878 H   0  0  0  0  0  0  0  0  0  0  0  0
    4.8572   68.9880   65.6808 H   0  0  0  0  0  0  0  0  0  0  0  0
   -0.4236   68.0051   67.8417 H   0  0  0  0  0  0  0  0  0  0  0  0
   -1.3997   68.8258   66.5767 H   0  0  0  0  0  0  0  0  0  0  0  0
   -1.2522   67.0356   66.5767 H   0  0  0  0  0  0  0  0  0  0  0  0
    1.9046   68.0814   63.8522 H   0  0  0  0  0  0  0  0  0  0  0  0
    2.5345   66.0659   65.8608 H   0  0  0  0  0  0  0  0  0  0  0  0
    1.6043   65.8649   64.3374 H   0  0  0  0  0  0  0  0  0  0  0  0
    3.3867   65.6423   64.3374 H   0  0  0  0  0  0  0  0  0  0  0  0
    4.5970   68.5112   64.2184 H   0  0  0  0  0  0  0  0  0  0  0  0
    4.3946   66.2961   61.9584 H   0  0  0  0  0  0  0  0  0  0  0  0
    3.4071   66.8263   60.7043 H   0  0  0  0  0  0  0  0  0  0  0  0
    7.0680   70.3201   68.0012 H   0  0  0  0  0  0  0  0  0  0  0  0
    6.2334   69.4749   66.6536 H   0  0  0  0  0  0  0  0  0  0  0  0
    6.3514   71.2674   66.6536 H   0  0  0  0  0  0  0  0  0  0  0  0
  2  1  2  0
  3  2  1  0
  4  3  2  0
  5  4  1  0
  6  1  1  0
  6  5  2  0
  8  7  1  0
  8  1  1  0
  9  6  1  0
 10  9  1  0
 11  9  1  0
 12 11  1  0
 13 12  2  0
 14 12  2  0
 15 12  1  0
 16  4  1  0
 17 16  1  0
  2 18  1  0
  3 19  1  0
  5 20  1  0
  7 21  1  0
  7 22  1  0
  7 23  1  0
  9 24  1  6
 10 25  1  0
 10 26  1  0
 10 27  1  0
 11 28  1  0
 15 29  1  0
 15 30  1  0
 17 31  1  0
 17 32  1  0
 17 33  1  0
M  END
>  <score>  (7) 
-6.356

$$$$
=
     RDKit          3D

 33 33  0  0  0  0  0  0  0  0999 V2000
    2.9790   69.0060   66.2820 C   0  0  0  0  0  0  0  0  0  0  0  0
    2.0390   68.1820   65.6580 C   0  0  0  0  0  0  0  0  0  0  0  0
    2.2370   67.7550   64.3430 C   0  0  0  0  0  0  0  0  0  0  0  0
    3.3730   68.1370   63.6340 C   0  0  0  0  0  0  0  0  0  0  0  0
    4.3120   68.9640   64.2490 C   0  0  0  0  0  0  0  0  0  0  0  0
    4.1340   69.4080   65.5780 C   0  0  0  0  0  0  0  0  0  0  0  0
    1.5730   69.8510   68.0200 C   0  0  0  0  0  0  0  0  0  0  0  0
    2.8680   69.4720   67.5680 O   0  0  0  0  0  0  0  0  0  0  0  0
    5.1560   70.3280   66.2420 C   0  0  2  0  0  0  0  0  0  0  0  0
    6.3960   70.4730   65.3540 C   0  0  0  0  0  0  0  0  0  0  0  0
    5.5880   69.8350   67.5730 N   0  0  0  0  0  0  0  0  0  0  0  0
    5.8970   70.9500   68.7600 S   0  0  0  0  0  6  0  0  0  0  0  0
    5.6620   72.2710   68.2440 O   0  0  0  0  0  0  0  0  0  0  0  0
    7.1210   70.5740   69.4160 O   0  0  0  0  0  0  0  0  0  0  0  0
    4.6460   70.6040   69.7930 N   0  0  0  0  0  0  0  0  0  0  0  0
    3.4420   67.6450   62.3600 O   0  0  0  0  0  0  0  0  0  0  0  0
    3.3740   68.5920   61.3000 C   0  0  0  0  0  0  0  0  0  0  0  0
    1.1381   67.8678   66.2053 H   0  0  0  0  0  0  0  0  0  0  0  0
    1.4872   67.1097   63.8620 H   0  0  0  0  0  0  0  0  0  0  0  0
    5.2065   69.2759   63.6898 H   0  0  0  0  0  0  0  0  0  0  0  0
    1.5555   69.8561   69.1198 H   0  0  0  0  0  0  0  0  0  0  0  0
    1.3335   70.8569   67.6448 H   0  0  0  0  0  0  0  0  0  0  0  0
    0.8290   69.1329   67.6448 H   0  0  0  0  0  0  0  0  0  0  0  0
    4.6575   71.2991   66.3776 H   0  0  0  0  0  0  0  0  0  0  0  0
    7.2898   70.5775   65.9866 H   0  0  0  0  0  0  0  0  0  0  0  0
    6.4986   69.5807   64.7189 H   0  0  0  0  0  0  0  0  0  0  0  0
    6.2899   71.3649   64.7189 H   0  0  0  0  0  0  0  0  0  0  0  0
    4.8455   69.2134   67.9240 H   0  0  0  0  0  0  0  0  0  0  0  0
    4.9699   70.6936   70.7666 H   0  0  0  0  0  0  0  0  0  0  0  0
    3.8715   71.2623   69.6269 H   0  0  0  0  0  0  0  0  0  0  0  0
    3.3012   69.6065   61.7188 H   0  0  0  0  0  0  0  0  0  0  0  0
    4.2800   68.5151   60.6809 H   0  0  0  0  0  0  0  0  0  0  0  0
    2.4883   68.3864   60.6809 H   0  0  0  0  0  0  0  0  0  0  0  0
  2  1  2  0
  3  2  1  0
  4  3  2  0
  5  4  1  0
  6  1  1  0
  6  5  2  0
  8  7  1  0
  8  1  1  0
  9  6  1  0
 10  9  1  0
 11  9  1  0
 12 11  1  0
 13 12  2  0
 14 12  2  0
 15 12  1  0
 16  4  1  0
 17 16  1  0
  2 18  1  0
  3 19  1  0
  5 20  1  0
  7 21  1  0
  7 22  1  0
  7 23  1  0
  9 24  1  1
 10 25  1  0
 10 26  1  0
 10 27  1  0
 11 28  1  0
 15 29  1  0
 15 30  1  0
 17 31  1  0
 17 32  1  0
 17 33  1  0
M  END
>  <score>  (8) 
-6.332

$$$$
=
     RDKit          3D

 33 33  0  0  0  0  0  0  0  0999 V2000
    4.5720   69.8100   66.7190 C   0  0  0  0  0  0  0  0  0  0  0  0
    5.5650   69.7920   65.7360 C   0  0  0  0  0  0  0  0  0  0  0  0
    5.2580   69.4080   64.4290 C   0  0  0  0  0  0  0  0  0  0  0  0
    3.9600   69.0400   64.0810 C   0  0  0  0  0  0  0  0  0  0  0  0
    2.9660   69.0490   65.0590 C   0  0  0  0  0  0  0  0  0  0  0  0
    3.2530   69.4360   66.3870 C   0  0  0  0  0  0  0  0  0  0  0  0
    6.0270   70.7860   68.3450 C   0  0  0  0  0  0  0  0  0  0  0  0
    4.7820   70.1750   68.0250 O   0  0  0  0  0  0  0  0  0  0  0  0
    2.1650   69.4290   67.4590 C   0  0  2  0  0  0  0  0  0  0  0  0
    2.6920   70.0520   68.7560 C   0  0  0  0  0  0  0  0  0  0  0  0
    1.6700   68.0640   67.7620 N   0  0  0  0  0  0  0  0  0  0  0  0
    0.1620   67.6370   67.2240 S   0  0  0  0  0  6  0  0  0  0  0  0
    0.2910   66.8210   66.0470 O   0  0  0  0  0  0  0  0  0  0  0  0
   -0.6760   68.8050   67.2760 O   0  0  0  0  0  0  0  0  0  0  0  0
   -0.2970   66.6330   68.4620 N   0  0  0  0  0  0  0  0  0  0  0  0
    3.7990   68.6900   62.7700 O   0  0  0  0  0  0  0  0  0  0  0  0
    2.4640   68.6330   62.2800 C   0  0  0  0  0  0  0  0  0  0  0  0
    6.5944   70.0820   65.9932 H   0  0  0  0  0  0  0  0  0  0  0  0
    6.0498   69.3959   63.6656 H   0  0  0  0  0  0  0  0  0  0  0  0
    1.9417   68.7499   64.7920 H   0  0  0  0  0  0  0  0  0  0  0  0
    6.1384   70.8407   69.4380 H   0  0  0  0  0  0  0  0  0  0  0  0
    6.8481   70.1885   67.9222 H   0  0  0  0  0  0  0  0  0  0  0  0
    6.0567   71.8011   67.9222 H   0  0  0  0  0  0  0  0  0  0  0  0
    1.3286   70.0184   67.0552 H   0  0  0  0  0  0  0  0  0  0  0  0
    2.2512   69.5309   69.6186 H   0  0  0  0  0  0  0  0  0  0  0  0
    3.7873   69.9561   68.7902 H   0  0  0  0  0  0  0  0  0  0  0  0
    2.4158   71.1162   68.7902 H   0  0  0  0  0  0  0  0  0  0  0  0
    2.3401   67.3985   67.3509 H   0  0  0  0  0  0  0  0  0  0  0  0
   -0.0907   67.0844   69.3646 H   0  0  0  0  0  0  0  0  0  0  0  0
   -1.3075   66.4453   68.3951 H   0  0  0  0  0  0  0  0  0  0  0  0
    1.7633   68.6031   63.1275 H   0  0  0  0  0  0  0  0  0  0  0  0
    2.2601   69.5233   61.6669 H   0  0  0  0  0  0  0  0  0  0  0  0
    2.3367   67.7286   61.6669 H   0  0  0  0  0  0  0  0  0  0  0  0
  2  1  2  0
  3  2  1  0
  4  3  2  0
  5  4  1  0
  6  1  1  0
  6  5  2  0
  8  7  1  0
  8  1  1  0
  9  6  1  0
 10  9  1  0
 11  9  1  0
 12 11  1  0
 13 12  2  0
 14 12  2  0
 15 12  1  0
 16  4  1  0
 17 16  1  0
  2 18  1  0
  3 19  1  0
  5 20  1  0
  7 21  1  0
  7 22  1  0
  7 23  1  0
  9 24  1  6
 10 25  1  0
 10 26  1  0
 10 27  1  0
 11 28  1  0
 15 29  1  0
 15 30  1  0
 17 31  1  0
 17 32  1  0
 17 33  1  0
M  END
>  <score>  (9) 
-6.1

$$$$
