=
     RDKit          3D

 21 22  0  0  0  0  0  0  0  0999 V2000
    3.2070   68.4040   62.1660 C   0  0  0  0  0  0  0  0  0  0  0  0
    2.6330   68.8590   61.1760 O   0  0  0  0  0  0  0  0  0  0  0  0
    2.7810   68.6740   63.4490 N   0  0  0  0  0  0  0  0  0  0  0  0
    3.5670   69.0620   64.5530 C   0  0  0  0  0  0  0  0  0  0  0  0
    4.8970   69.4490   64.5950 C   0  0  0  0  0  0  0  0  0  0  0  0
    5.4430   69.8180   65.8330 C   0  0  0  0  0  0  0  0  0  0  0  0
    4.6600   69.8160   67.0020 C   0  0  0  0  0  0  0  0  0  0  0  0
    3.3150   69.4550   66.9540 C   0  0  0  0  0  0  0  0  0  0  0  0
    2.8060   69.0930   65.7200 C   0  0  0  0  0  0  0  0  0  0  0  0
    1.4480   68.7030   65.3660 C   0  0  0  0  0  0  0  0  0  0  0  0
    0.5040   68.6150   66.1160 O   0  0  0  0  0  0  0  0  0  0  0  0
    1.4740   68.4140   63.8510 C   0  0  0  0  0  0  0  0  0  0  0  0
    0.5190   68.0010   63.2300 O   0  0  0  0  0  0  0  0  0  0  0  0
    4.2870   66.0650   62.9680 Cl  0  0  0  0  0  0  0  0  0  0  0  0
    4.4670   67.5660   62.0380 C   0  0  0  0  0  0  0  0  0  0  0  0
    5.5087   69.4663   63.6809 H   0  0  0  0  0  0  0  0  0  0  0  0
    6.5009   70.1139   65.8910 H   0  0  0  0  0  0  0  0  0  0  0  0
    5.1137   70.1020   67.9624 H   0  0  0  0  0  0  0  0  0  0  0  0
    2.6865   69.4578   67.8567 H   0  0  0  0  0  0  0  0  0  0  0  0
    5.3250   68.1350   62.4253 H   0  0  0  0  0  0  0  0  0  0  0  0
    4.6336   67.3196   60.9790 H   0  0  0  0  0  0  0  0  0  0  0  0
  2  1  2  0
  3  1  1  0
  4  3  1  0
  5  4  2  0
  6  5  1  0
  7  6  2  0
  8  7  1  0
  9  4  1  0
  9  8  2  0
 10  9  1  0
 11 10  2  0
 12 10  1  0
 12  3  1  0
 13 12  2  0
 15 14  1  0
 15  1  1  0
  5 16  1  0
  6 17  1  0
  7 18  1  0
  8 19  1  0
 15 20  1  0
 15 21  1  0
M  END
>  <score>  (1) 
-8.609

$$$$
=
     RDKit          3D

 21 22  0  0  0  0  0  0  0  0999 V2000
    3.6290   68.4550   64.0030 C   0  0  0  0  0  0  0  0  0  0  0  0
    2.9840   68.7490   62.9960 O   0  0  0  0  0  0  0  0  0  0  0  0
    3.3110   68.9530   65.2490 N   0  0  0  0  0  0  0  0  0  0  0  0
    4.1860   69.5040   66.2060 C   0  0  0  0  0  0  0  0  0  0  0  0
    5.5200   69.8580   66.0790 C   0  0  0  0  0  0  0  0  0  0  0  0
    6.1670   70.4200   67.1880 C   0  0  0  0  0  0  0  0  0  0  0  0
    5.4800   70.6380   68.3970 C   0  0  0  0  0  0  0  0  0  0  0  0
    4.1310   70.3090   68.5140 C   0  0  0  0  0  0  0  0  0  0  0  0
    3.5220   69.7540   67.4050 C   0  0  0  0  0  0  0  0  0  0  0  0
    2.1350   69.3440   67.2280 C   0  0  0  0  0  0  0  0  0  0  0  0
    1.2520   69.4100   68.0510 O   0  0  0  0  0  0  0  0  0  0  0  0
    2.0360   68.7990   65.7880 C   0  0  0  0  0  0  0  0  0  0  0  0
    1.0300   68.3100   65.3230 O   0  0  0  0  0  0  0  0  0  0  0  0
    4.5020   66.1090   62.9960 Cl  0  0  0  0  0  0  0  0  0  0  0  0
    4.8650   67.5760   63.9270 C   0  0  0  0  0  0  0  0  0  0  0  0
    6.0573   69.7018   65.1319 H   0  0  0  0  0  0  0  0  0  0  0  0
    7.2293   70.6953   67.1123 H   0  0  0  0  0  0  0  0  0  0  0  0
    6.0123   71.0716   69.2564 H   0  0  0  0  0  0  0  0  0  0  0  0
    3.5759   70.4834   69.4475 H   0  0  0  0  0  0  0  0  0  0  0  0
    5.1769   67.2955   64.9439 H   0  0  0  0  0  0  0  0  0  0  0  0
    5.6753   68.1303   63.4308 H   0  0  0  0  0  0  0  0  0  0  0  0
  2  1  2  0
  3  1  1  0
  4  3  1  0
  5  4  2  0
  6  5  1  0
  7  6  2  0
  8  7  1  0
  9  4  1  0
  9  8  2  0
 10  9  1  0
 11 10  2  0
 12 10  1  0
 12  3  1  0
 13 12  2  0
 15 14  1  0
 15  1  1  0
  5 16  1  0
  6 17  1  0
  7 18  1  0
  8 19  1  0
 15 20  1  0
 15 21  1  0
M  END
>  <score>  (2) 
-8.115

$$$$
=
     RDKit          3D

 21 22  0  0  0  0  0  0  0  0999 V2000
    0.1340   67.9110   66.5470 C   0  0  0  0  0  0  0  0  0  0  0  0
   -0.3480   66.7790   66.4970 O   0  0  0  0  0  0  0  0  0  0  0  0
    1.4450   68.1640   66.2060 N   0  0  0  0  0  0  0  0  0  0  0  0
    2.3850   68.9410   66.9150 C   0  0  0  0  0  0  0  0  0  0  0  0
    2.3020   69.4750   68.1910 C   0  0  0  0  0  0  0  0  0  0  0  0
    3.3990   70.1960   68.6820 C   0  0  0  0  0  0  0  0  0  0  0  0
    4.5650   70.3610   67.9110 C   0  0  0  0  0  0  0  0  0  0  0  0
    4.6580   69.7980   66.6400 C   0  0  0  0  0  0  0  0  0  0  0  0
    3.5590   69.0960   66.1820 C   0  0  0  0  0  0  0  0  0  0  0  0
    3.3840   68.3840   64.9220 C   0  0  0  0  0  0  0  0  0  0  0  0
    4.1910   68.2920   64.0270 O   0  0  0  0  0  0  0  0  0  0  0  0
    1.9600   67.7940   64.9670 C   0  0  0  0  0  0  0  0  0  0  0  0
    1.4550   67.1880   64.0460 O   0  0  0  0  0  0  0  0  0  0  0  0
   -2.2170   69.1850   66.1890 Cl  0  0  0  0  0  0  0  0  0  0  0  0
   -0.6700   69.0950   67.0540 C   0  0  0  0  0  0  0  0  0  0  0  0
    1.3984   69.3366   68.8028 H   0  0  0  0  0  0  0  0  0  0  0  0
    3.3479   70.6405   69.6869 H   0  0  0  0  0  0  0  0  0  0  0  0
    5.4093   70.9389   68.3151 H   0  0  0  0  0  0  0  0  0  0  0  0
    5.5656   69.9073   66.0282 H   0  0  0  0  0  0  0  0  0  0  0  0
   -0.1022   70.0217   66.8843 H   0  0  0  0  0  0  0  0  0  0  0  0
   -0.8619   68.9700   68.1299 H   0  0  0  0  0  0  0  0  0  0  0  0
  2  1  2  0
  3  1  1  0
  4  3  1  0
  5  4  2  0
  6  5  1  0
  7  6  2  0
  8  7  1  0
  9  4  1  0
  9  8  2  0
 10  9  1  0
 11 10  2  0
 12 10  1  0
 12  3  1  0
 13 12  2  0
 15 14  1  0
 15  1  1  0
  5 16  1  0
  6 17  1  0
  7 18  1  0
  8 19  1  0
 15 20  1  0
 15 21  1  0
M  END
>  <score>  (3) 
-8.011

$$$$
=
     RDKit          3D

 21 22  0  0  0  0  0  0  0  0999 V2000
    1.4240   68.9130   67.6260 C   0  0  0  0  0  0  0  0  0  0  0  0
    0.9290   68.0750   68.3800 O   0  0  0  0  0  0  0  0  0  0  0  0
    1.5740   68.6870   66.2750 N   0  0  0  0  0  0  0  0  0  0  0  0
    2.7130   68.9320   65.4820 C   0  0  0  0  0  0  0  0  0  0  0  0
    4.0000   69.2700   65.8690 C   0  0  0  0  0  0  0  0  0  0  0  0
    4.9720   69.4350   64.8730 C   0  0  0  0  0  0  0  0  0  0  0  0
    4.6600   69.2440   63.5140 C   0  0  0  0  0  0  0  0  0  0  0  0
    3.3740   68.8750   63.1280 C   0  0  0  0  0  0  0  0  0  0  0  0
    2.4360   68.7240   64.1320 C   0  0  0  0  0  0  0  0  0  0  0  0
    1.0390   68.3210   64.0310 C   0  0  0  0  0  0  0  0  0  0  0  0
    0.4370   68.0530   63.0180 O   0  0  0  0  0  0  0  0  0  0  0  0
    0.4940   68.3260   65.4740 C   0  0  0  0  0  0  0  0  0  0  0  0
   -0.6630   68.0990   65.7550 O   0  0  0  0  0  0  0  0  0  0  0  0
    3.3410   69.9280   69.2320 Cl  0  0  0  0  0  0  0  0  0  0  0  0
    1.9660   70.2320   68.1510 C   0  0  0  0  0  0  0  0  0  0  0  0
    4.2523   69.4054   66.9311 H   0  0  0  0  0  0  0  0  0  0  0  0
    5.9959   69.7185   65.1582 H   0  0  0  0  0  0  0  0  0  0  0  0
    5.4386   69.3874   62.7503 H   0  0  0  0  0  0  0  0  0  0  0  0
    3.1161   68.7110   62.0713 H   0  0  0  0  0  0  0  0  0  0  0  0
    1.1745   70.7575   68.7055 H   0  0  0  0  0  0  0  0  0  0  0  0
    2.2986   70.8511   67.3048 H   0  0  0  0  0  0  0  0  0  0  0  0
  2  1  2  0
  3  1  1  0
  4  3  1  0
  5  4  2  0
  6  5  1  0
  7  6  2  0
  8  7  1  0
  9  4  1  0
  9  8  2  0
 10  9  1  0
 11 10  2  0
 12 10  1  0
 12  3  1  0
 13 12  2  0
 15 14  1  0
 15  1  1  0
  5 16  1  0
  6 17  1  0
  7 18  1  0
  8 19  1  0
 15 20  1  0
 15 21  1  0
M  END
>  <score>  (4) 
-7.92

$$$$
=
     RDKit          3D

 21 22  0  0  0  0  0  0  0  0999 V2000
    1.1890   67.7910   65.5920 C   0  0  0  0  0  0  0  0  0  0  0  0
    0.3870   66.8650   65.7170 O   0  0  0  0  0  0  0  0  0  0  0  0
    1.7720   68.0970   64.3810 N   0  0  0  0  0  0  0  0  0  0  0  0
    3.1330   68.3600   64.1220 C   0  0  0  0  0  0  0  0  0  0  0  0
    4.2340   68.1970   64.9480 C   0  0  0  0  0  0  0  0  0  0  0  0
    5.5010   68.5100   64.4360 C   0  0  0  0  0  0  0  0  0  0  0  0
    5.6590   68.9600   63.1120 C   0  0  0  0  0  0  0  0  0  0  0  0
    4.5540   69.0960   62.2730 C   0  0  0  0  0  0  0  0  0  0  0  0
    3.3180   68.7830   62.8080 C   0  0  0  0  0  0  0  0  0  0  0  0
    2.0100   68.8010   62.1670 C   0  0  0  0  0  0  0  0  0  0  0  0
    1.7700   69.1130   61.0240 O   0  0  0  0  0  0  0  0  0  0  0  0
    1.0040   68.3570   63.2490 C   0  0  0  0  0  0  0  0  0  0  0  0
   -0.1950   68.3190   63.0770 O   0  0  0  0  0  0  0  0  0  0  0  0
    0.2290   69.3110   67.6040 Cl  0  0  0  0  0  0  0  0  0  0  0  0
    1.6410   68.6170   66.7840 C   0  0  0  0  0  0  0  0  0  0  0  0
    4.1167   67.8314   65.9788 H   0  0  0  0  0  0  0  0  0  0  0  0
    6.3863   68.4021   65.0799 H   0  0  0  0  0  0  0  0  0  0  0  0
    6.6629   69.2065   62.7359 H   0  0  0  0  0  0  0  0  0  0  0  0
    4.6605   69.4368   61.2326 H   0  0  0  0  0  0  0  0  0  0  0  0
    2.2979   69.4286   66.4379 H   0  0  0  0  0  0  0  0  0  0  0  0
    2.1883   67.9715   67.4867 H   0  0  0  0  0  0  0  0  0  0  0  0
  2  1  2  0
  3  1  1  0
  4  3  1  0
  5  4  2  0
  6  5  1  0
  7  6  2  0
  8  7  1  0
  9  4  1  0
  9  8  2  0
 10  9  1  0
 11 10  2  0
 12 10  1  0
 12  3  1  0
 13 12  2  0
 15 14  1  0
 15  1  1  0
  5 16  1  0
  6 17  1  0
  7 18  1  0
  8 19  1  0
 15 20  1  0
 15 21  1  0
M  END
>  <score>  (5) 
-7.63

$$$$
=
     RDKit          3D

 21 22  0  0  0  0  0  0  0  0999 V2000
    4.3680   66.7310   63.0090 C   0  0  0  0  0  0  0  0  0  0  0  0
    4.7730   65.5910   62.7800 O   0  0  0  0  0  0  0  0  0  0  0  0
    3.1020   66.9760   63.4940 N   0  0  0  0  0  0  0  0  0  0  0  0
    2.1760   67.9370   63.0400 C   0  0  0  0  0  0  0  0  0  0  0  0
    2.2150   68.7290   61.9040 C   0  0  0  0  0  0  0  0  0  0  0  0
    1.1410   69.5980   61.6620 C   0  0  0  0  0  0  0  0  0  0  0  0
    0.0400   69.6540   62.5380 C   0  0  0  0  0  0  0  0  0  0  0  0
   -0.0110   68.8360   63.6640 C   0  0  0  0  0  0  0  0  0  0  0  0
    1.0630   67.9930   63.8770 C   0  0  0  0  0  0  0  0  0  0  0  0
    1.2680   67.0180   64.9400 C   0  0  0  0  0  0  0  0  0  0  0  0
    0.5150   66.7780   65.8550 O   0  0  0  0  0  0  0  0  0  0  0  0
    2.6430   66.3750   64.6630 C   0  0  0  0  0  0  0  0  0  0  0  0
    3.1610   65.5580   65.3930 O   0  0  0  0  0  0  0  0  0  0  0  0
    5.3200   68.9880   64.1420 Cl  0  0  0  0  0  0  0  0  0  0  0  0
    5.2190   67.9520   62.7030 C   0  0  0  0  0  0  0  0  0  0  0  0
    3.0665   68.6776   61.2095 H   0  0  0  0  0  0  0  0  0  0  0  0
    1.1591   70.2463   60.7735 H   0  0  0  0  0  0  0  0  0  0  0  0
   -0.7867   70.3496   62.3313 H   0  0  0  0  0  0  0  0  0  0  0  0
   -0.8681   68.8599   64.3531 H   0  0  0  0  0  0  0  0  0  0  0  0
    4.7633   68.5174   61.8768 H   0  0  0  0  0  0  0  0  0  0  0  0
    6.2303   67.6282   62.4158 H   0  0  0  0  0  0  0  0  0  0  0  0
  2  1  2  0
  3  1  1  0
  4  3  1  0
  5  4  2  0
  6  5  1  0
  7  6  2  0
  8  7  1  0
  9  4  1  0
  9  8  2  0
 10  9  1  0
 11 10  2  0
 12 10  1  0
 12  3  1  0
 13 12  2  0
 15 14  1  0
 15  1  1  0
  5 16  1  0
  6 17  1  0
  7 18  1  0
  8 19  1  0
 15 20  1  0
 15 21  1  0
M  END
>  <score>  (6) 
-7.421

$$$$
=
     RDKit          3D

 21 22  0  0  0  0  0  0  0  0999 V2000
    4.3910   60.7470   71.6080 C   0  0  0  0  0  0  0  0  0  0  0  0
    5.5060   60.9410   72.0920 O   0  0  0  0  0  0  0  0  0  0  0  0
    3.4510   61.7490   71.5080 N   0  0  0  0  0  0  0  0  0  0  0  0
    2.0850   61.6880   71.8540 C   0  0  0  0  0  0  0  0  0  0  0  0
    1.3950   60.7030   72.5430 C   0  0  0  0  0  0  0  0  0  0  0  0
    0.0280   60.8970   72.7860 C   0  0  0  0  0  0  0  0  0  0  0  0
   -0.6280   62.0670   72.3600 C   0  0  0  0  0  0  0  0  0  0  0  0
    0.0740   63.0700   71.6940 C   0  0  0  0  0  0  0  0  0  0  0  0
    1.4190   62.8490   71.4660 C   0  0  0  0  0  0  0  0  0  0  0  0
    2.3970   63.7200   70.8290 C   0  0  0  0  0  0  0  0  0  0  0  0
    2.1930   64.8170   70.3640 O   0  0  0  0  0  0  0  0  0  0  0  0
    3.7320   62.9480   70.8580 C   0  0  0  0  0  0  0  0  0  0  0  0
    4.7550   63.3550   70.3510 O   0  0  0  0  0  0  0  0  0  0  0  0
    3.4660   59.4250   69.4450 Cl  0  0  0  0  0  0  0  0  0  0  0  0
    3.9530   59.3660   71.1510 C   0  0  0  0  0  0  0  0  0  0  0  0
    1.9065   59.7931   72.8900 H   0  0  0  0  0  0  0  0  0  0  0  0
   -0.5417   60.1214   73.3188 H   0  0  0  0  0  0  0  0  0  0  0  0
   -1.7036   62.1908   72.5543 H   0  0  0  0  0  0  0  0  0  0  0  0
   -0.4203   63.9959   71.3646 H   0  0  0  0  0  0  0  0  0  0  0  0
    3.1020   59.0316   71.7625 H   0  0  0  0  0  0  0  0  0  0  0  0
    4.7906   58.6623   71.2660 H   0  0  0  0  0  0  0  0  0  0  0  0
  2  1  2  0
  3  1  1  0
  4  3  1  0
  5  4  2  0
  6  5  1  0
  7  6  2  0
  8  7  1  0
  9  4  1  0
  9  8  2  0
 10  9  1  0
 11 10  2  0
 12 10  1  0
 12  3  1  0
 13 12  2  0
 15 14  1  0
 15  1  1  0
  5 16  1  0
  6 17  1  0
  7 18  1  0
  8 19  1  0
 15 20  1  0
 15 21  1  0
M  END
>  <score>  (7) 
-6.958

$$$$
=
     RDKit          3D

 21 22  0  0  0  0  0  0  0  0999 V2000
    1.0000   63.3420   72.4640 C   0  0  0  0  0  0  0  0  0  0  0  0
   -0.0610   63.9560   72.3470 O   0  0  0  0  0  0  0  0  0  0  0  0
    1.6710   62.8250   71.3770 N   0  0  0  0  0  0  0  0  0  0  0  0
    2.2300   61.5380   71.2420 C   0  0  0  0  0  0  0  0  0  0  0  0
    2.0900   60.4280   72.0580 C   0  0  0  0  0  0  0  0  0  0  0  0
    2.7370   59.2420   71.6830 C   0  0  0  0  0  0  0  0  0  0  0  0
    3.4940   59.1690   70.4990 C   0  0  0  0  0  0  0  0  0  0  0  0
    3.6100   60.2780   69.6640 C   0  0  0  0  0  0  0  0  0  0  0  0
    2.9640   61.4340   70.0620 C   0  0  0  0  0  0  0  0  0  0  0  0
    2.8860   62.7220   69.3840 C   0  0  0  0  0  0  0  0  0  0  0  0
    3.3980   63.0150   68.3300 O   0  0  0  0  0  0  0  0  0  0  0  0
    2.0340   63.6270   70.2980 C   0  0  0  0  0  0  0  0  0  0  0  0
    1.8170   64.7980   70.0690 O   0  0  0  0  0  0  0  0  0  0  0  0
    0.8500   64.0940   75.0510 Cl  0  0  0  0  0  0  0  0  0  0  0  0
    1.6060   63.0550   73.8270 C   0  0  0  0  0  0  0  0  0  0  0  0
    1.4868   60.4755   72.9766 H   0  0  0  0  0  0  0  0  0  0  0  0
    2.6514   58.3532   72.3254 H   0  0  0  0  0  0  0  0  0  0  0  0
    3.9981   58.2288   70.2307 H   0  0  0  0  0  0  0  0  0  0  0  0
    4.1895   60.2360   68.7300 H   0  0  0  0  0  0  0  0  0  0  0  0
    2.6872   63.2549   73.7955 H   0  0  0  0  0  0  0  0  0  0  0  0
    1.4318   62.0006   74.0875 H   0  0  0  0  0  0  0  0  0  0  0  0
  2  1  2  0
  3  1  1  0
  4  3  1  0
  5  4  2  0
  6  5  1  0
  7  6  2  0
  8  7  1  0
  9  4  1  0
  9  8  2  0
 10  9  1  0
 11 10  2  0
 12 10  1  0
 12  3  1  0
 13 12  2  0
 15 14  1  0
 15  1  1  0
  5 16  1  0
  6 17  1  0
  7 18  1  0
  8 19  1  0
 15 20  1  0
 15 21  1  0
M  END
>  <score>  (8) 
-6.835

$$$$
=
     RDKit          3D

 21 22  0  0  0  0  0  0  0  0999 V2000
    3.0660   62.6480   69.6790 C   0  0  0  0  0  0  0  0  0  0  0  0
    3.0560   62.7750   68.4550 O   0  0  0  0  0  0  0  0  0  0  0  0
    2.8880   61.4250   70.2910 N   0  0  0  0  0  0  0  0  0  0  0  0
    2.0490   61.1220   71.3820 C   0  0  0  0  0  0  0  0  0  0  0  0
    1.0720   61.8980   71.9840 C   0  0  0  0  0  0  0  0  0  0  0  0
    0.3490   61.3460   73.0510 C   0  0  0  0  0  0  0  0  0  0  0  0
    0.5920   60.0320   73.4920 C   0  0  0  0  0  0  0  0  0  0  0  0
    1.5550   59.2430   72.8670 C   0  0  0  0  0  0  0  0  0  0  0  0
    2.2540   59.8150   71.8210 C   0  0  0  0  0  0  0  0  0  0  0  0
    3.2830   59.2270   70.9740 C   0  0  0  0  0  0  0  0  0  0  0  0
    3.7270   58.1050   71.0500 O   0  0  0  0  0  0  0  0  0  0  0  0
    3.6950   60.3330   69.9810 C   0  0  0  0  0  0  0  0  0  0  0  0
    4.5820   60.2070   69.1640 O   0  0  0  0  0  0  0  0  0  0  0  0
    1.8840   64.9910   70.3040 Cl  0  0  0  0  0  0  0  0  0  0  0  0
    3.2070   63.8460   70.6010 C   0  0  0  0  0  0  0  0  0  0  0  0
    0.8687   62.9208   71.6340 H   0  0  0  0  0  0  0  0  0  0  0  0
   -0.4214   61.9505   73.5520 H   0  0  0  0  0  0  0  0  0  0  0  0
    0.0171   59.6247   74.3368 H   0  0  0  0  0  0  0  0  0  0  0  0
    1.7504   58.2103   73.1917 H   0  0  0  0  0  0  0  0  0  0  0  0
    4.1697   64.3426   70.4100 H   0  0  0  0  0  0  0  0  0  0  0  0
    3.1663   63.5068   71.6466 H   0  0  0  0  0  0  0  0  0  0  0  0
  2  1  2  0
  3  1  1  0
  4  3  1  0
  5  4  2  0
  6  5  1  0
  7  6  2  0
  8  7  1  0
  9  4  1  0
  9  8  2  0
 10  9  1  0
 11 10  2  0
 12 10  1  0
 12  3  1  0
 13 12  2  0
 15 14  1  0
 15  1  1  0
  5 16  1  0
  6 17  1  0
  7 18  1  0
  8 19  1  0
 15 20  1  0
 15 21  1  0
M  END
>  <score>  (9) 
-6.786

$$$$
