=
     RDKit          3D

 39 40  0  0  0  0  0  0  0  0999 V2000
    3.1720   69.8390   67.7690 C   0  0  0  0  0  0  0  0  0  0  0  0
    4.0760   70.4150   68.6650 C   0  0  0  0  0  0  0  0  0  0  0  0
    5.4020   70.6310   68.2880 C   0  0  0  0  0  0  0  0  0  0  0  0
    5.8340   70.2670   67.0160 C   0  0  0  0  0  0  0  0  0  0  0  0
    4.9480   69.6790   66.1040 C   0  0  0  0  0  0  0  0  0  0  0  0
    3.6010   69.4790   66.4730 C   0  0  0  0  0  0  0  0  0  0  0  0
    2.6240   68.8230   65.5200 C   0  0  0  0  0  0  0  0  0  0  0  0
    3.1180   68.7200   64.0770 C   0  0  0  0  0  0  0  0  0  0  0  0
    4.5860   68.3030   63.9890 C   0  0  1  0  0  0  0  0  0  0  0  0
    5.4550   69.3300   64.7250 C   0  0  0  0  0  0  0  0  0  0  0  0
    1.5470   68.3060   68.6110 C   0  0  0  0  0  0  0  0  0  0  0  0
    1.8560   69.5760   68.0540 O   0  0  0  0  0  0  0  0  0  0  0  0
    4.7330   66.9310   64.5500 N   0  0  0  0  0  0  0  0  0  0  0  0
    3.8790   65.7120   63.7820 S   0  0  0  0  0  6  0  0  0  0  0  0
    2.5100   65.7270   64.2370 O   0  0  0  0  0  0  0  0  0  0  0  0
    4.2240   65.7710   62.3830 O   0  0  0  0  0  0  0  0  0  0  0  0
    4.6630   64.3850   64.4760 N   0  0  0  0  0  0  0  0  0  0  0  0
    3.9090   63.7170   65.5590 C   0  0  0  0  0  0  0  0  0  0  0  0
    5.1560   63.4090   63.4790 C   0  0  0  0  0  0  0  0  0  0  0  0
    3.7406   70.6998   69.6732 H   0  0  0  0  0  0  0  0  0  0  0  0
    6.1069   71.0896   68.9971 H   0  0  0  0  0  0  0  0  0  0  0  0
    6.8800   70.4425   66.7243 H   0  0  0  0  0  0  0  0  0  0  0  0
    2.4173   67.8064   65.8858 H   0  0  0  0  0  0  0  0  0  0  0  0
    1.7295   69.4629   65.4995 H   0  0  0  0  0  0  0  0  0  0  0  0
    2.5071   67.9741   63.5474 H   0  0  0  0  0  0  0  0  0  0  0  0
    3.0257   69.7164   63.6203 H   0  0  0  0  0  0  0  0  0  0  0  0
    4.9237   68.2785   62.9424 H   0  0  0  0  0  0  0  0  0  0  0  0
    6.4707   68.9190   64.8224 H   0  0  0  0  0  0  0  0  0  0  0  0
    5.4312   70.2553   64.1306 H   0  0  0  0  0  0  0  0  0  0  0  0
    1.5634   68.3733   69.7088 H   0  0  0  0  0  0  0  0  0  0  0  0
    0.5465   67.9930   68.2777 H   0  0  0  0  0  0  0  0  0  0  0  0
    2.2919   67.5684   68.2777 H   0  0  0  0  0  0  0  0  0  0  0  0
    5.7322   66.6836   64.5132 H   0  0  0  0  0  0  0  0  0  0  0  0
    4.2905   64.0550   66.5338 H   0  0  0  0  0  0  0  0  0  0  0  0
    2.8423   63.9719   65.4743 H   0  0  0  0  0  0  0  0  0  0  0  0
    4.0335   62.6274   65.4743 H   0  0  0  0  0  0  0  0  0  0  0  0
    5.5932   62.5435   63.9983 H   0  0  0  0  0  0  0  0  0  0  0  0
    4.3190   63.0741   62.8488 H   0  0  0  0  0  0  0  0  0  0  0  0
    5.9223   63.8840   62.8488 H   0  0  0  0  0  0  0  0  0  0  0  0
  2  1  2  0
  3  2  1  0
  4  3  2  0
  5  4  1  0
  6  5  2  0
  6  1  1  0
  7  6  1  0
  8  7  1  0
  9  8  1  0
 10  9  1  0
 10  5  1  0
 12 11  1  0
 12  1  1  0
 13  9  1  0
 14 13  1  0
 15 14  2  0
 16 14  2  0
 17 14  1  0
 18 17  1  0
 19 17  1  0
  2 20  1  0
  3 21  1  0
  4 22  1  0
  7 23  1  0
  7 24  1  0
  8 25  1  0
  8 26  1  0
  9 27  1  6
 10 28  1  0
 10 29  1  0
 11 30  1  0
 11 31  1  0
 11 32  1  0
 13 33  1  0
 18 34  1  0
 18 35  1  0
 18 36  1  0
 19 37  1  0
 19 38  1  0
 19 39  1  0
M  END
>  <score>  (1) 
-8.735

$$$$
=
     RDKit          3D

 39 40  0  0  0  0  0  0  0  0999 V2000
    4.7370   70.5430   67.5740 C   0  0  0  0  0  0  0  0  0  0  0  0
    3.9080   70.8020   68.6680 C   0  0  0  0  0  0  0  0  0  0  0  0
    2.7070   70.1080   68.8220 C   0  0  0  0  0  0  0  0  0  0  0  0
    2.3260   69.1560   67.8820 C   0  0  0  0  0  0  0  0  0  0  0  0
    3.1380   68.8860   66.7720 C   0  0  0  0  0  0  0  0  0  0  0  0
    4.3620   69.5690   66.6230 C   0  0  0  0  0  0  0  0  0  0  0  0
    5.2500   69.3200   65.4220 C   0  0  0  0  0  0  0  0  0  0  0  0
    4.8850   68.0770   64.6110 C   0  0  0  0  0  0  0  0  0  0  0  0
    3.3750   67.9230   64.4240 C   0  0  1  0  0  0  0  0  0  0  0  0
    2.6960   67.8210   65.7950 C   0  0  0  0  0  0  0  0  0  0  0  0
    6.7730   71.4370   68.4440 C   0  0  0  0  0  0  0  0  0  0  0  0
    5.9260   71.1840   67.3310 O   0  0  0  0  0  0  0  0  0  0  0  0
    2.8680   69.0740   63.6240 N   0  0  0  0  0  0  0  0  0  0  0  0
    1.8720   68.7050   62.3290 S   0  0  0  0  0  6  0  0  0  0  0  0
    2.4320   69.2620   61.1220 O   0  0  0  0  0  0  0  0  0  0  0  0
    1.5290   67.3080   62.4440 O   0  0  0  0  0  0  0  0  0  0  0  0
    0.5300   69.6290   62.7780 N   0  0  0  0  0  0  0  0  0  0  0  0
   -0.3110   70.0900   61.6520 C   0  0  0  0  0  0  0  0  0  0  0  0
   -0.2860   68.9990   63.8390 C   0  0  0  0  0  0  0  0  0  0  0  0
    4.2032   71.5567   69.4118 H   0  0  0  0  0  0  0  0  0  0  0  0
    2.0607   70.3141   69.6879 H   0  0  0  0  0  0  0  0  0  0  0  0
    1.3795   68.6105   68.0109 H   0  0  0  0  0  0  0  0  0  0  0  0
    5.1838   70.1948   64.7585 H   0  0  0  0  0  0  0  0  0  0  0  0
    6.2646   69.1521   65.8124 H   0  0  0  0  0  0  0  0  0  0  0  0
    5.3575   68.1507   63.6204 H   0  0  0  0  0  0  0  0  0  0  0  0
    5.2447   67.1980   65.1660 H   0  0  0  0  0  0  0  0  0  0  0  0
    3.1408   66.9993   63.8745 H   0  0  0  0  0  0  0  0  0  0  0  0
    1.6090   67.9105   65.6518 H   0  0  0  0  0  0  0  0  0  0  0  0
    2.9839   66.8504   66.2252 H   0  0  0  0  0  0  0  0  0  0  0  0
    6.2134   71.2698   69.3761 H   0  0  0  0  0  0  0  0  0  0  0  0
    7.6376   70.7579   68.4086 H   0  0  0  0  0  0  0  0  0  0  0  0
    7.1235   72.4791   68.4086 H   0  0  0  0  0  0  0  0  0  0  0  0
    2.3394   69.6881   64.2599 H   0  0  0  0  0  0  0  0  0  0  0  0
   -1.2118   70.5838   62.0453 H   0  0  0  0  0  0  0  0  0  0  0  0
    0.2584   70.8021   61.0366 H   0  0  0  0  0  0  0  0  0  0  0  0
   -0.6050   69.2269   61.0366 H   0  0  0  0  0  0  0  0  0  0  0  0
    0.1005   69.2974   64.8247 H   0  0  0  0  0  0  0  0  0  0  0  0
   -1.3315   69.3265   63.7406 H   0  0  0  0  0  0  0  0  0  0  0  0
   -0.2338   67.9047   63.7406 H   0  0  0  0  0  0  0  0  0  0  0  0
  2  1  2  0
  3  2  1  0
  4  3  2  0
  5  4  1  0
  6  5  2  0
  6  1  1  0
  7  6  1  0
  8  7  1  0
  9  8  1  0
 10  9  1  0
 10  5  1  0
 12 11  1  0
 12  1  1  0
 13  9  1  0
 14 13  1  0
 15 14  2  0
 16 14  2  0
 17 14  1  0
 18 17  1  0
 19 17  1  0
  2 20  1  0
  3 21  1  0
  4 22  1  0
  7 23  1  0
  7 24  1  0
  8 25  1  0
  8 26  1  0
  9 27  1  6
 10 28  1  0
 10 29  1  0
 11 30  1  0
 11 31  1  0
 11 32  1  0
 13 33  1  0
 18 34  1  0
 18 35  1  0
 18 36  1  0
 19 37  1  0
 19 38  1  0
 19 39  1  0
M  END
>  <score>  (2) 
-7.77

$$$$
=
     RDKit          3D

 39 40  0  0  0  0  0  0  0  0999 V2000
   -0.3180   68.0790   66.6900 C   0  0  0  0  0  0  0  0  0  0  0  0
    0.0860   68.0080   68.0250 C   0  0  0  0  0  0  0  0  0  0  0  0
    1.4050   68.2940   68.3780 C   0  0  0  0  0  0  0  0  0  0  0  0
    2.3290   68.6490   67.4000 C   0  0  0  0  0  0  0  0  0  0  0  0
    1.9480   68.7180   66.0530 C   0  0  0  0  0  0  0  0  0  0  0  0
    0.6100   68.4500   65.6930 C   0  0  0  0  0  0  0  0  0  0  0  0
    0.1730   68.4910   64.2450 C   0  0  0  0  0  0  0  0  0  0  0  0
    1.1740   69.1520   63.2980 C   0  0  0  0  0  0  0  0  0  0  0  0
    2.6170   68.7420   63.5940 C   0  0  1  0  0  0  0  0  0  0  0  0
    2.9780   69.1370   65.0300 C   0  0  0  0  0  0  0  0  0  0  0  0
   -2.5450   67.3940   67.2140 C   0  0  0  0  0  0  0  0  0  0  0  0
   -1.5870   67.8020   66.2460 O   0  0  0  0  0  0  0  0  0  0  0  0
    2.7620   67.2790   63.3550 N   0  0  0  0  0  0  0  0  0  0  0  0
    4.3190   66.7090   63.1160 S   0  0  0  0  0  6  0  0  0  0  0  0
    4.4240   66.1430   61.7940 O   0  0  0  0  0  0  0  0  0  0  0  0
    5.2200   67.7320   63.5880 O   0  0  0  0  0  0  0  0  0  0  0  0
    4.2960   65.4490   64.2420 N   0  0  0  0  0  0  0  0  0  0  0  0
    2.9910   65.2320   64.9030 C   0  0  0  0  0  0  0  0  0  0  0  0
    4.8510   64.1830   63.7150 C   0  0  0  0  0  0  0  0  0  0  0  0
   -0.6394   67.7252   68.8020 H   0  0  0  0  0  0  0  0  0  0  0  0
    1.7153   68.2388   69.4319 H   0  0  0  0  0  0  0  0  0  0  0  0
    3.3663   68.8772   67.6862 H   0  0  0  0  0  0  0  0  0  0  0  0
    0.0107   67.4572   63.9060 H   0  0  0  0  0  0  0  0  0  0  0  0
   -0.7399   69.1037   64.2116 H   0  0  0  0  0  0  0  0  0  0  0  0
    0.9289   68.8607   62.2660 H   0  0  0  0  0  0  0  0  0  0  0  0
    1.0997   70.2404   63.4389 H   0  0  0  0  0  0  0  0  0  0  0  0
    3.3170   69.2650   62.9258 H   0  0  0  0  0  0  0  0  0  0  0  0
    3.9370   68.6647   65.2893 H   0  0  0  0  0  0  0  0  0  0  0  0
    3.0298   70.2354   65.0576 H   0  0  0  0  0  0  0  0  0  0  0  0
   -2.1424   67.5655   68.2232 H   0  0  0  0  0  0  0  0  0  0  0  0
   -3.4688   67.9768   67.0839 H   0  0  0  0  0  0  0  0  0  0  0  0
   -2.7650   66.3241   67.0839 H   0  0  0  0  0  0  0  0  0  0  0  0
    2.3717   66.7886   64.1723 H   0  0  0  0  0  0  0  0  0  0  0  0
    3.1247   65.2542   65.9946 H   0  0  0  0  0  0  0  0  0  0  0  0
    2.2915   66.0262   64.6030 H   0  0  0  0  0  0  0  0  0  0  0  0
    2.5861   64.2542   64.6030 H   0  0  0  0  0  0  0  0  0  0  0  0
    5.1369   63.5309   64.5534 H   0  0  0  0  0  0  0  0  0  0  0  0
    4.0918   63.6778   63.0999 H   0  0  0  0  0  0  0  0  0  0  0  0
    5.7370   64.3990   63.0999 H   0  0  0  0  0  0  0  0  0  0  0  0
  2  1  2  0
  3  2  1  0
  4  3  2  0
  5  4  1  0
  6  5  2  0
  6  1  1  0
  7  6  1  0
  8  7  1  0
  9  8  1  0
 10  9  1  0
 10  5  1  0
 12 11  1  0
 12  1  1  0
 13  9  1  0
 14 13  1  0
 15 14  2  0
 16 14  2  0
 17 14  1  0
 18 17  1  0
 19 17  1  0
  2 20  1  0
  3 21  1  0
  4 22  1  0
  7 23  1  0
  7 24  1  0
  8 25  1  0
  8 26  1  0
  9 27  1  6
 10 28  1  0
 10 29  1  0
 11 30  1  0
 11 31  1  0
 11 32  1  0
 13 33  1  0
 18 34  1  0
 18 35  1  0
 18 36  1  0
 19 37  1  0
 19 38  1  0
 19 39  1  0
M  END
>  <score>  (3) 
-7.742

$$$$
=
     RDKit          3D

 39 40  0  0  0  0  0  0  0  0999 V2000
    4.5120   69.7360   66.2790 C   0  0  0  0  0  0  0  0  0  0  0  0
    5.2730   69.3960   65.1570 C   0  0  0  0  0  0  0  0  0  0  0  0
    4.7700   68.5040   64.2090 C   0  0  0  0  0  0  0  0  0  0  0  0
    3.5080   67.9440   64.3780 C   0  0  0  0  0  0  0  0  0  0  0  0
    2.7310   68.2630   65.5000 C   0  0  0  0  0  0  0  0  0  0  0  0
    3.2260   69.1800   66.4510 C   0  0  0  0  0  0  0  0  0  0  0  0
    2.4230   69.5270   67.6860 C   0  0  0  0  0  0  0  0  0  0  0  0
    0.9610   69.0840   67.6370 C   0  0  0  0  0  0  0  0  0  0  0  0
    0.7940   67.6830   67.0500 C   0  0  1  0  0  0  0  0  0  0  0  0
    1.3540   67.6540   65.6240 C   0  0  0  0  0  0  0  0  0  0  0  0
    6.2680   70.4620   67.7260 C   0  0  0  0  0  0  0  0  0  0  0  0
    4.9280   70.5900   67.2700 O   0  0  0  0  0  0  0  0  0  0  0  0
    1.4690   66.7010   67.9450 N   0  0  0  0  0  0  0  0  0  0  0  0
    0.7880   66.4750   69.4590 S   0  0  0  0  0  6  0  0  0  0  0  0
    1.4980   67.2770   70.4260 O   0  0  0  0  0  0  0  0  0  0  0  0
   -0.6420   66.5560   69.2950 O   0  0  0  0  0  0  0  0  0  0  0  0
    1.2160   64.8560   69.6830 N   0  0  0  0  0  0  0  0  0  0  0  0
    2.5280   64.6450   70.3350 C   0  0  0  0  0  0  0  0  0  0  0  0
    0.1560   64.0550   70.3330 C   0  0  0  0  0  0  0  0  0  0  0  0
    6.2730   69.8335   65.0206 H   0  0  0  0  0  0  0  0  0  0  0  0
    5.3726   68.2433   63.3265 H   0  0  0  0  0  0  0  0  0  0  0  0
    3.1164   67.2447   63.6245 H   0  0  0  0  0  0  0  0  0  0  0  0
    2.8993   69.0445   68.5522 H   0  0  0  0  0  0  0  0  0  0  0  0
    2.4149   70.6248   67.7555 H   0  0  0  0  0  0  0  0  0  0  0  0
    0.5564   69.0885   68.6599 H   0  0  0  0  0  0  0  0  0  0  0  0
    0.4204   69.7863   66.9854 H   0  0  0  0  0  0  0  0  0  0  0  0
   -0.2695   67.4091   66.9880 H   0  0  0  0  0  0  0  0  0  0  0  0
    1.4064   66.6064   65.2927 H   0  0  0  0  0  0  0  0  0  0  0  0
    0.6780   68.2579   65.0008 H   0  0  0  0  0  0  0  0  0  0  0  0
    6.2825   70.4606   68.8259 H   0  0  0  0  0  0  0  0  0  0  0  0
    6.6939   69.5191   67.3525 H   0  0  0  0  0  0  0  0  0  0  0  0
    6.8647   71.3072   67.3525 H   0  0  0  0  0  0  0  0  0  0  0  0
    1.4714   65.7901   67.4642 H   0  0  0  0  0  0  0  0  0  0  0  0
    2.4020   64.6653   71.4276 H   0  0  0  0  0  0  0  0  0  0  0  0
    2.9359   63.6697   70.0310 H   0  0  0  0  0  0  0  0  0  0  0  0
    3.2211   65.4432   70.0310 H   0  0  0  0  0  0  0  0  0  0  0  0
    0.2568   64.1312   71.4257 H   0  0  0  0  0  0  0  0  0  0  0  0
   -0.8301   64.4356   70.0283 H   0  0  0  0  0  0  0  0  0  0  0  0
    0.2529   63.0025   70.0283 H   0  0  0  0  0  0  0  0  0  0  0  0
  2  1  2  0
  3  2  1  0
  4  3  2  0
  5  4  1  0
  6  5  2  0
  6  1  1  0
  7  6  1  0
  8  7  1  0
  9  8  1  0
 10  9  1  0
 10  5  1  0
 12 11  1  0
 12  1  1  0
 13  9  1  0
 14 13  1  0
 15 14  2  0
 16 14  2  0
 17 14  1  0
 18 17  1  0
 19 17  1  0
  2 20  1  0
  3 21  1  0
  4 22  1  0
  7 23  1  0
  7 24  1  0
  8 25  1  0
  8 26  1  0
  9 27  1  6
 10 28  1  0
 10 29  1  0
 11 30  1  0
 11 31  1  0
 11 32  1  0
 13 33  1  0
 18 34  1  0
 18 35  1  0
 18 36  1  0
 19 37  1  0
 19 38  1  0
 19 39  1  0
M  END
>  <score>  (4) 
-7.664

$$$$
=
     RDKit          3D

 39 40  0  0  0  0  0  0  0  0999 V2000
    4.1560   66.3630   63.1380 C   0  0  0  0  0  0  0  0  0  0  0  0
    4.8680   67.1650   62.2430 C   0  0  0  0  0  0  0  0  0  0  0  0
    4.9180   68.5470   62.4220 C   0  0  0  0  0  0  0  0  0  0  0  0
    4.2540   69.1370   63.4930 C   0  0  0  0  0  0  0  0  0  0  0  0
    3.5270   68.3530   64.3980 C   0  0  0  0  0  0  0  0  0  0  0  0
    3.4900   66.9530   64.2340 C   0  0  0  0  0  0  0  0  0  0  0  0
    2.6930   66.0800   65.1790 C   0  0  0  0  0  0  0  0  0  0  0  0
    2.2400   66.7810   66.4600 C   0  0  0  0  0  0  0  0  0  0  0  0
    1.7320   68.2000   66.2020 C   0  0  1  0  0  0  0  0  0  0  0  0
    2.8470   69.0350   65.5630 C   0  0  0  0  0  0  0  0  0  0  0  0
    4.8950   64.2040   63.8460 C   0  0  0  0  0  0  0  0  0  0  0  0
    4.0390   64.9990   63.0360 O   0  0  0  0  0  0  0  0  0  0  0  0
    0.5150   68.1290   65.3450 N   0  0  0  0  0  0  0  0  0  0  0  0
   -0.9300   68.5880   66.0570 S   0  0  0  0  0  6  0  0  0  0  0  0
   -0.6800   69.6430   67.0080 O   0  0  0  0  0  0  0  0  0  0  0  0
   -1.8990   68.7220   64.9970 O   0  0  0  0  0  0  0  0  0  0  0  0
   -1.2510   67.1620   66.9060 N   0  0  0  0  0  0  0  0  0  0  0  0
   -0.6330   67.0870   68.2470 C   0  0  0  0  0  0  0  0  0  0  0  0
   -2.6900   66.8210   66.9540 C   0  0  0  0  0  0  0  0  0  0  0  0
    5.3919   66.7040   61.3927 H   0  0  0  0  0  0  0  0  0  0  0  0
    5.4835   69.1720   61.7151 H   0  0  0  0  0  0  0  0  0  0  0  0
    4.3003   70.2274   63.6301 H   0  0  0  0  0  0  0  0  0  0  0  0
    1.7982   65.7252   64.6467 H   0  0  0  0  0  0  0  0  0  0  0  0
    3.3613   65.2631   65.4890 H   0  0  0  0  0  0  0  0  0  0  0  0
    1.4295   66.1935   66.9160 H   0  0  0  0  0  0  0  0  0  0  0  0
    3.1113   66.8538   67.1275 H   0  0  0  0  0  0  0  0  0  0  0  0
    1.4536   68.6934   67.1449 H   0  0  0  0  0  0  0  0  0  0  0  0
    2.4117   69.9800   65.2060 H   0  0  0  0  0  0  0  0  0  0  0  0
    3.6141   69.1910   66.3358 H   0  0  0  0  0  0  0  0  0  0  0  0
    4.6828   64.4011   64.9072 H   0  0  0  0  0  0  0  0  0  0  0  0
    4.7211   63.1398   63.6288 H   0  0  0  0  0  0  0  0  0  0  0  0
    5.9435   64.4560   63.6288 H   0  0  0  0  0  0  0  0  0  0  0  0
    0.6701   68.7399   64.5304 H   0  0  0  0  0  0  0  0  0  0  0  0
   -1.4136   67.1817   69.0163 H   0  0  0  0  0  0  0  0  0  0  0  0
   -0.1210   66.1201   68.3612 H   0  0  0  0  0  0  0  0  0  0  0  0
    0.0954   67.9033   68.3612 H   0  0  0  0  0  0  0  0  0  0  0  0
   -3.0139   66.7443   68.0024 H   0  0  0  0  0  0  0  0  0  0  0  0
   -3.2701   67.6066   66.4476 H   0  0  0  0  0  0  0  0  0  0  0  0
   -2.8559   65.8587   66.4476 H   0  0  0  0  0  0  0  0  0  0  0  0
  2  1  2  0
  3  2  1  0
  4  3  2  0
  5  4  1  0
  6  5  2  0
  6  1  1  0
  7  6  1  0
  8  7  1  0
  9  8  1  0
 10  9  1  0
 10  5  1  0
 12 11  1  0
 12  1  1  0
 13  9  1  0
 14 13  1  0
 15 14  2  0
 16 14  2  0
 17 14  1  0
 18 17  1  0
 19 17  1  0
  2 20  1  0
  3 21  1  0
  4 22  1  0
  7 23  1  0
  7 24  1  0
  8 25  1  0
  8 26  1  0
  9 27  1  1
 10 28  1  0
 10 29  1  0
 11 30  1  0
 11 31  1  0
 11 32  1  0
 13 33  1  0
 18 34  1  0
 18 35  1  0
 18 36  1  0
 19 37  1  0
 19 38  1  0
 19 39  1  0
M  END
>  <score>  (5) 
-7.431

$$$$
=
     RDKit          3D

 39 40  0  0  0  0  0  0  0  0999 V2000
    4.3160   68.0880   63.7140 C   0  0  0  0  0  0  0  0  0  0  0  0
    5.3330   69.0450   63.6550 C   0  0  0  0  0  0  0  0  0  0  0  0
    5.5520   69.9070   64.7290 C   0  0  0  0  0  0  0  0  0  0  0  0
    4.7540   69.8230   65.8660 C   0  0  0  0  0  0  0  0  0  0  0  0
    3.7220   68.8780   65.9430 C   0  0  0  0  0  0  0  0  0  0  0  0
    3.5100   67.9890   64.8680 C   0  0  0  0  0  0  0  0  0  0  0  0
    2.3890   66.9730   64.9100 C   0  0  0  0  0  0  0  0  0  0  0  0
    1.7620   66.7770   66.2900 C   0  0  0  0  0  0  0  0  0  0  0  0
    1.5530   68.0970   67.0310 C   0  0  1  0  0  0  0  0  0  0  0  0
    2.9020   68.8040   67.2100 C   0  0  0  0  0  0  0  0  0  0  0  0
    3.9690   67.7230   61.3790 C   0  0  0  0  0  0  0  0  0  0  0  0
    4.0170   67.2090   62.7030 O   0  0  0  0  0  0  0  0  0  0  0  0
    0.5750   68.9270   66.2730 N   0  0  0  0  0  0  0  0  0  0  0  0
   -0.9920   68.9660   66.8640 S   0  0  0  0  0  6  0  0  0  0  0  0
   -1.1630   67.9110   67.8330 O   0  0  0  0  0  0  0  0  0  0  0  0
   -1.2960   70.3430   67.1660 O   0  0  0  0  0  0  0  0  0  0  0  0
   -1.8020   68.5330   65.4460 N   0  0  0  0  0  0  0  0  0  0  0  0
   -3.2040   68.9960   65.3660 C   0  0  0  0  0  0  0  0  0  0  0  0
   -1.0510   68.8710   64.2170 C   0  0  0  0  0  0  0  0  0  0  0  0
    5.9638   69.1185   62.7568 H   0  0  0  0  0  0  0  0  0  0  0  0
    6.3571   70.6548   64.6774 H   0  0  0  0  0  0  0  0  0  0  0  0
    4.9347   70.5037   66.7110 H   0  0  0  0  0  0  0  0  0  0  0  0
    1.6002   67.3031   64.2181 H   0  0  0  0  0  0  0  0  0  0  0  0
    2.8322   66.0066   64.6279 H   0  0  0  0  0  0  0  0  0  0  0  0
    0.7868   66.2831   66.1674 H   0  0  0  0  0  0  0  0  0  0  0  0
    2.4535   66.1645   66.8872 H   0  0  0  0  0  0  0  0  0  0  0  0
    1.1406   67.9203   68.0354 H   0  0  0  0  0  0  0  0  0  0  0  0
    2.7129   69.8290   67.5616 H   0  0  0  0  0  0  0  0  0  0  0  0
    3.4815   68.2121   67.9338 H   0  0  0  0  0  0  0  0  0  0  0  0
    3.8668   68.8177   61.4141 H   0  0  0  0  0  0  0  0  0  0  0  0
    4.8958   67.4581   60.8490 H   0  0  0  0  0  0  0  0  0  0  0  0
    3.1073   67.2911   60.8490 H   0  0  0  0  0  0  0  0  0  0  0  0
    0.9288   69.8943   66.2613 H   0  0  0  0  0  0  0  0  0  0  0  0
   -3.6049   69.1284   66.3817 H   0  0  0  0  0  0  0  0  0  0  0  0
   -3.2434   69.9549   64.8284 H   0  0  0  0  0  0  0  0  0  0  0  0
   -3.8067   68.2492   64.8284 H   0  0  0  0  0  0  0  0  0  0  0  0
   -0.0792   69.3084   64.4897 H   0  0  0  0  0  0  0  0  0  0  0  0
   -0.8891   67.9590   63.6237 H   0  0  0  0  0  0  0  0  0  0  0  0
   -1.6263   69.5970   63.6237 H   0  0  0  0  0  0  0  0  0  0  0  0
  2  1  2  0
  3  2  1  0
  4  3  2  0
  5  4  1  0
  6  5  2  0
  6  1  1  0
  7  6  1  0
  8  7  1  0
  9  8  1  0
 10  9  1  0
 10  5  1  0
 12 11  1  0
 12  1  1  0
 13  9  1  0
 14 13  1  0
 15 14  2  0
 16 14  2  0
 17 14  1  0
 18 17  1  0
 19 17  1  0
  2 20  1  0
  3 21  1  0
  4 22  1  0
  7 23  1  0
  7 24  1  0
  8 25  1  0
  8 26  1  0
  9 27  1  1
 10 28  1  0
 10 29  1  0
 11 30  1  0
 11 31  1  0
 11 32  1  0
 13 33  1  0
 18 34  1  0
 18 35  1  0
 18 36  1  0
 19 37  1  0
 19 38  1  0
 19 39  1  0
M  END
>  <score>  (6) 
-7.205

$$$$
=
     RDKit          3D

 39 40  0  0  0  0  0  0  0  0999 V2000
    0.0240   67.4990   67.1810 C   0  0  0  0  0  0  0  0  0  0  0  0
   -1.1930   68.1830   67.2340 C   0  0  0  0  0  0  0  0  0  0  0  0
   -1.6220   68.9430   66.1460 C   0  0  0  0  0  0  0  0  0  0  0  0
   -0.8360   69.0290   65.0010 C   0  0  0  0  0  0  0  0  0  0  0  0
    0.3920   68.3590   64.9290 C   0  0  0  0  0  0  0  0  0  0  0  0
    0.8210   67.5710   66.0170 C   0  0  0  0  0  0  0  0  0  0  0  0
    2.1540   66.8550   65.9810 C   0  0  0  0  0  0  0  0  0  0  0  0
    2.7990   66.7850   64.5970 C   0  0  0  0  0  0  0  0  0  0  0  0
    2.6770   68.1010   63.8280 C   0  0  1  0  0  0  0  0  0  0  0  0
    1.1960   68.4560   63.6530 C   0  0  0  0  0  0  0  0  0  0  0  0
   -0.3410   66.4080   69.2740 C   0  0  0  0  0  0  0  0  0  0  0  0
    0.5350   66.7400   68.2040 O   0  0  0  0  0  0  0  0  0  0  0  0
    3.4320   69.1590   64.5570 N   0  0  0  0  0  0  0  0  0  0  0  0
    5.1000   69.0120   64.5730 S   0  0  0  0  0  6  0  0  0  0  0  0
    5.4590   67.6220   64.4400 O   0  0  0  0  0  0  0  0  0  0  0  0
    5.6220   70.0290   63.6930 O   0  0  0  0  0  0  0  0  0  0  0  0
    5.3740   69.4890   66.1710 N   0  0  0  0  0  0  0  0  0  0  0  0
    6.3010   70.6310   66.3270 C   0  0  0  0  0  0  0  0  0  0  0  0
    4.1280   69.6960   66.9420 C   0  0  0  0  0  0  0  0  0  0  0  0
   -1.8161   68.1219   68.1384 H   0  0  0  0  0  0  0  0  0  0  0  0
   -2.5834   69.4754   66.1932 H   0  0  0  0  0  0  0  0  0  0  0  0
   -1.1818   69.6279   64.1456 H   0  0  0  0  0  0  0  0  0  0  0  0
    2.8450   67.3814   66.6558 H   0  0  0  0  0  0  0  0  0  0  0  0
    1.9598   65.8168   66.2884 H   0  0  0  0  0  0  0  0  0  0  0  0
    3.8655   66.5436   64.7164 H   0  0  0  0  0  0  0  0  0  0  0  0
    2.2716   66.0105   64.0208 H   0  0  0  0  0  0  0  0  0  0  0  0
    3.1121   68.0083   62.8220 H   0  0  0  0  0  0  0  0  0  0  0  0
    1.1284   69.4878   63.2778 H   0  0  0  0  0  0  0  0  0  0  0  0
    0.7715   67.7244   62.9498 H   0  0  0  0  0  0  0  0  0  0  0  0
    0.1628   66.5989   70.2330 H   0  0  0  0  0  0  0  0  0  0  0  0
   -1.2500   67.0240   69.2083 H   0  0  0  0  0  0  0  0  0  0  0  0
   -0.6134   65.3443   69.2083 H   0  0  0  0  0  0  0  0  0  0  0  0
    3.2020   70.0636   64.1215 H   0  0  0  0  0  0  0  0  0  0  0  0
    6.4619   70.8292   67.3970 H   0  0  0  0  0  0  0  0  0  0  0  0
    7.2626   70.3905   65.8500 H   0  0  0  0  0  0  0  0  0  0  0  0
    5.8679   71.5226   65.8500 H   0  0  0  0  0  0  0  0  0  0  0  0
    4.3523   69.6587   68.0182 H   0  0  0  0  0  0  0  0  0  0  0  0
    3.6999   70.6776   66.6904 H   0  0  0  0  0  0  0  0  0  0  0  0
    3.4056   68.9056   66.6904 H   0  0  0  0  0  0  0  0  0  0  0  0
  2  1  2  0
  3  2  1  0
  4  3  2  0
  5  4  1  0
  6  5  2  0
  6  1  1  0
  7  6  1  0
  8  7  1  0
  9  8  1  0
 10  9  1  0
 10  5  1  0
 12 11  1  0
 12  1  1  0
 13  9  1  0
 14 13  1  0
 15 14  2  0
 16 14  2  0
 17 14  1  0
 18 17  1  0
 19 17  1  0
  2 20  1  0
  3 21  1  0
  4 22  1  0
  7 23  1  0
  7 24  1  0
  8 25  1  0
  8 26  1  0
  9 27  1  6
 10 28  1  0
 10 29  1  0
 11 30  1  0
 11 31  1  0
 11 32  1  0
 13 33  1  0
 18 34  1  0
 18 35  1  0
 18 36  1  0
 19 37  1  0
 19 38  1  0
 19 39  1  0
M  END
>  <score>  (7) 
-7.157

$$$$
=
     RDKit          3D

 39 40  0  0  0  0  0  0  0  0999 V2000
    0.7890   64.3000   71.2110 C   0  0  0  0  0  0  0  0  0  0  0  0
    0.0320   64.5540   72.3570 C   0  0  0  0  0  0  0  0  0  0  0  0
    0.4110   64.0120   73.5860 C   0  0  0  0  0  0  0  0  0  0  0  0
    1.5460   63.2110   73.6760 C   0  0  0  0  0  0  0  0  0  0  0  0
    2.3150   62.9370   72.5370 C   0  0  0  0  0  0  0  0  0  0  0  0
    1.9480   63.4990   71.2970 C   0  0  0  0  0  0  0  0  0  0  0  0
    2.7430   63.2010   70.0440 C   0  0  0  0  0  0  0  0  0  0  0  0
    4.1050   62.5530   70.2950 C   0  0  0  0  0  0  0  0  0  0  0  0
    4.0470   61.4720   71.3750 C   0  0  1  0  0  0  0  0  0  0  0  0
    3.5550   62.0870   72.6900 C   0  0  0  0  0  0  0  0  0  0  0  0
    0.2360   66.1690   69.8310 C   0  0  0  0  0  0  0  0  0  0  0  0
    0.4880   64.7760   69.9600 O   0  0  0  0  0  0  0  0  0  0  0  0
    3.1690   60.3650   70.9040 N   0  0  0  0  0  0  0  0  0  0  0  0
    3.5380   58.8280   71.4600 S   0  0  0  0  0  6  0  0  0  0  0  0
    3.8860   57.9860   70.3420 O   0  0  0  0  0  0  0  0  0  0  0  0
    4.4050   58.9890   72.6010 O   0  0  0  0  0  0  0  0  0  0  0  0
    2.0010   58.3890   72.0080 N   0  0  0  0  0  0  0  0  0  0  0  0
    1.8950   57.0020   72.5120 C   0  0  0  0  0  0  0  0  0  0  0  0
    1.4220   59.3570   72.9650 C   0  0  0  0  0  0  0  0  0  0  0  0
   -0.8671   65.1842   72.2906 H   0  0  0  0  0  0  0  0  0  0  0  0
   -0.1882   64.2181   74.4851 H   0  0  0  0  0  0  0  0  0  0  0  0
    1.8414   62.7900   74.6484 H   0  0  0  0  0  0  0  0  0  0  0  0
    2.1500   62.5210   69.4147 H   0  0  0  0  0  0  0  0  0  0  0  0
    2.9420   64.1698   69.5626 H   0  0  0  0  0  0  0  0  0  0  0  0
    4.4573   62.0973   69.3579 H   0  0  0  0  0  0  0  0  0  0  0  0
    4.7907   63.3390   70.6442 H   0  0  0  0  0  0  0  0  0  0  0  0
    5.0468   61.0539   71.5636 H   0  0  0  0  0  0  0  0  0  0  0  0
    3.3319   61.2709   73.3930 H   0  0  0  0  0  0  0  0  0  0  0  0
    4.3549   62.7483   73.0545 H   0  0  0  0  0  0  0  0  0  0  0  0
    0.1542   66.6209   70.8305 H   0  0  0  0  0  0  0  0  0  0  0  0
    1.0632   66.6419   69.2813 H   0  0  0  0  0  0  0  0  0  0  0  0
   -0.7044   66.3221   69.2813 H   0  0  0  0  0  0  0  0  0  0  0  0
    2.2065   60.5818   71.1998 H   0  0  0  0  0  0  0  0  0  0  0  0
    1.8957   57.0105   73.6120 H   0  0  0  0  0  0  0  0  0  0  0  0
    0.9597   56.5506   72.1494 H   0  0  0  0  0  0  0  0  0  0  0  0
    2.7508   56.4137   72.1494 H   0  0  0  0  0  0  0  0  0  0  0  0
    1.6229   59.0211   73.9930 H   0  0  0  0  0  0  0  0  0  0  0  0
    1.8771   60.3459   72.8068 H   0  0  0  0  0  0  0  0  0  0  0  0
    0.3355   59.4238   72.8068 H   0  0  0  0  0  0  0  0  0  0  0  0
  2  1  2  0
  3  2  1  0
  4  3  2  0
  5  4  1  0
  6  5  2  0
  6  1  1  0
  7  6  1  0
  8  7  1  0
  9  8  1  0
 10  9  1  0
 10  5  1  0
 12 11  1  0
 12  1  1  0
 13  9  1  0
 14 13  1  0
 15 14  2  0
 16 14  2  0
 17 14  1  0
 18 17  1  0
 19 17  1  0
  2 20  1  0
  3 21  1  0
  4 22  1  0
  7 23  1  0
  7 24  1  0
  8 25  1  0
  8 26  1  0
  9 27  1  1
 10 28  1  0
 10 29  1  0
 11 30  1  0
 11 31  1  0
 11 32  1  0
 13 33  1  0
 18 34  1  0
 18 35  1  0
 18 36  1  0
 19 37  1  0
 19 38  1  0
 19 39  1  0
M  END
>  <score>  (8) 
-6.978

$$$$
=
     RDKit          3D

 39 40  0  0  0  0  0  0  0  0999 V2000
    3.1580   60.2030   71.3160 C   0  0  0  0  0  0  0  0  0  0  0  0
    3.2520   58.8780   71.7480 C   0  0  0  0  0  0  0  0  0  0  0  0
    2.2500   58.3240   72.5450 C   0  0  0  0  0  0  0  0  0  0  0  0
    1.1510   59.0910   72.9180 C   0  0  0  0  0  0  0  0  0  0  0  0
    1.0400   60.4250   72.5040 C   0  0  0  0  0  0  0  0  0  0  0  0
    2.0400   60.9830   71.6800 C   0  0  0  0  0  0  0  0  0  0  0  0
    1.9620   62.4280   71.2360 C   0  0  0  0  0  0  0  0  0  0  0  0
    0.6030   63.0890   71.4610 C   0  0  0  0  0  0  0  0  0  0  0  0
   -0.0060   62.7280   72.8160 C   0  0  1  0  0  0  0  0  0  0  0  0
   -0.1870   61.2090   72.9080 C   0  0  0  0  0  0  0  0  0  0  0  0
    5.4040   60.9820   71.0870 C   0  0  0  0  0  0  0  0  0  0  0  0
    4.0980   60.8370   70.5430 O   0  0  0  0  0  0  0  0  0  0  0  0
    0.8710   63.2610   73.8970 N   0  0  0  0  0  0  0  0  0  0  0  0
    0.1910   64.4010   74.9190 S   0  0  0  0  0  6  0  0  0  0  0  0
    1.1550   64.7770   75.9240 O   0  0  0  0  0  0  0  0  0  0  0  0
   -0.4710   65.3750   74.0850 O   0  0  0  0  0  0  0  0  0  0  0  0
   -0.9820   63.4190   75.6380 N   0  0  0  0  0  0  0  0  0  0  0  0
   -0.4450   62.3140   76.4610 C   0  0  0  0  0  0  0  0  0  0  0  0
   -2.0170   64.1830   76.3690 C   0  0  0  0  0  0  0  0  0  0  0  0
    4.1205   58.2683   71.4583 H   0  0  0  0  0  0  0  0  0  0  0  0
    2.3291   57.2789   72.8791 H   0  0  0  0  0  0  0  0  0  0  0  0
    0.3626   58.6465   73.5432 H   0  0  0  0  0  0  0  0  0  0  0  0
    2.7184   62.9998   71.7936 H   0  0  0  0  0  0  0  0  0  0  0  0
    2.1344   62.4305   70.1496 H   0  0  0  0  0  0  0  0  0  0  0  0
    0.7289   64.1806   71.4103 H   0  0  0  0  0  0  0  0  0  0  0  0
   -0.0798   62.7241   70.6796 H   0  0  0  0  0  0  0  0  0  0  0  0
   -1.0007   63.1832   72.9317 H   0  0  0  0  0  0  0  0  0  0  0  0
   -0.4367   60.9515   73.9479 H   0  0  0  0  0  0  0  0  0  0  0  0
   -0.9877   60.9377   72.2042 H   0  0  0  0  0  0  0  0  0  0  0  0
    5.3464   60.9756   72.1855 H   0  0  0  0  0  0  0  0  0  0  0  0
    6.0370   60.1486   70.7481 H   0  0  0  0  0  0  0  0  0  0  0  0
    5.8387   61.9339   70.7481 H   0  0  0  0  0  0  0  0  0  0  0  0
    1.1743   62.4642   74.4750 H   0  0  0  0  0  0  0  0  0  0  0  0
   -0.5641   62.5591   77.5267 H   0  0  0  0  0  0  0  0  0  0  0  0
   -0.9935   61.3879   76.2343 H   0  0  0  0  0  0  0  0  0  0  0  0
    0.6221   62.1730   76.2343 H   0  0  0  0  0  0  0  0  0  0  0  0
   -1.8613   64.0680   77.4518 H   0  0  0  0  0  0  0  0  0  0  0  0
   -1.9462   65.2471   76.0993 H   0  0  0  0  0  0  0  0  0  0  0  0
   -3.0130   63.8019   76.0993 H   0  0  0  0  0  0  0  0  0  0  0  0
  2  1  2  0
  3  2  1  0
  4  3  2  0
  5  4  1  0
  6  5  2  0
  6  1  1  0
  7  6  1  0
  8  7  1  0
  9  8  1  0
 10  9  1  0
 10  5  1  0
 12 11  1  0
 12  1  1  0
 13  9  1  0
 14 13  1  0
 15 14  2  0
 16 14  2  0
 17 14  1  0
 18 17  1  0
 19 17  1  0
  2 20  1  0
  3 21  1  0
  4 22  1  0
  7 23  1  0
  7 24  1  0
  8 25  1  0
  8 26  1  0
  9 27  1  6
 10 28  1  0
 10 29  1  0
 11 30  1  0
 11 31  1  0
 11 32  1  0
 13 33  1  0
 18 34  1  0
 18 35  1  0
 18 36  1  0
 19 37  1  0
 19 38  1  0
 19 39  1  0
M  END
>  <score>  (9) 
-6.791

$$$$
