=
     RDKit          3D

 42 43  0  0  0  0  0  0  0  0999 V2000
    4.4230   69.7230   65.8250 C   0  0  0  0  0  0  0  0  0  0  0  0
    3.3540   69.5120   66.7010 C   0  0  0  0  0  0  0  0  0  0  0  0
    2.2070   68.8400   66.2670 C   0  0  0  0  0  0  0  0  0  0  0  0
    2.1440   68.4180   64.9310 C   0  0  0  0  0  0  0  0  0  0  0  0
    3.2070   68.6540   64.0500 C   0  0  0  0  0  0  0  0  0  0  0  0
    4.3570   69.3160   64.4870 C   0  0  0  0  0  0  0  0  0  0  0  0
    5.4480   69.5970   63.7090 O   0  0  0  0  0  0  0  0  0  0  0  0
    5.4150   69.1610   62.3570 C   0  0  0  0  0  0  0  0  0  0  0  0
    5.5130   70.4020   66.3100 O   0  0  0  0  0  0  0  0  0  0  0  0
    5.6090   70.2220   67.7300 C   0  0  0  0  0  0  0  0  0  0  0  0
    6.2570   71.4750   68.3150 C   0  0  0  0  0  0  0  0  0  0  0  0
    7.2170   70.4800   70.4580 C   0  0  0  0  0  0  0  0  0  0  0  0
    7.5080   71.1880   69.1430 C   0  0  0  0  0  0  0  0  0  0  0  0
    1.0590   68.5790   67.2140 C   0  0  0  0  0  0  0  0  0  0  0  0
   -0.2020   67.9640   66.5920 C   0  0  1  0  0  0  0  0  0  0  0  0
   -1.0960   67.1620   67.5430 C   0  0  0  0  0  0  0  0  0  0  0  0
   -2.4130   67.3850   67.0080 N   0  0  0  0  0  0  0  0  0  0  0  0
   -2.4270   68.4850   66.1730 C   0  0  0  0  0  0  0  0  0  0  0  0
   -3.4110   68.9810   65.6600 O   0  0  0  0  0  0  0  0  0  0  0  0
   -1.1240   68.9180   66.0130 N   0  0  0  0  0  0  0  0  0  0  0  0
    3.4155   69.8765   67.7370 H   0  0  0  0  0  0  0  0  0  0  0  0
    1.2468   67.8941   64.5698 H   0  0  0  0  0  0  0  0  0  0  0  0
    3.1358   68.3154   63.0058 H   0  0  0  0  0  0  0  0  0  0  0  0
    5.3320   68.0645   62.3273 H   0  0  0  0  0  0  0  0  0  0  0  0
    4.5481   69.6083   61.8486 H   0  0  0  0  0  0  0  0  0  0  0  0
    6.3393   69.4727   61.8486 H   0  0  0  0  0  0  0  0  0  0  0  0
    4.6054   70.0845   68.1587 H   0  0  0  0  0  0  0  0  0  0  0  0
    6.2108   69.3318   67.9653 H   0  0  0  0  0  0  0  0  0  0  0  0
    6.5346   72.1422   67.4857 H   0  0  0  0  0  0  0  0  0  0  0  0
    5.5205   71.9323   68.9921 H   0  0  0  0  0  0  0  0  0  0  0  0
    7.4876   71.1384   71.2966 H   0  0  0  0  0  0  0  0  0  0  0  0
    6.1458   70.2363   70.5140 H   0  0  0  0  0  0  0  0  0  0  0  0
    7.8072   69.5534   70.5140 H   0  0  0  0  0  0  0  0  0  0  0  0
    8.0054   72.1437   69.3649 H   0  0  0  0  0  0  0  0  0  0  0  0
    8.1427   70.5155   68.5473 H   0  0  0  0  0  0  0  0  0  0  0  0
    1.4173   67.8929   67.9956 H   0  0  0  0  0  0  0  0  0  0  0  0
    0.7528   69.5674   67.5871 H   0  0  0  0  0  0  0  0  0  0  0  0
    0.2771   67.3199   65.8399 H   0  0  0  0  0  0  0  0  0  0  0  0
   -0.8364   66.0932   67.5237 H   0  0  0  0  0  0  0  0  0  0  0  0
   -0.9963   67.4673   68.5951 H   0  0  0  0  0  0  0  0  0  0  0  0
   -3.2354   66.8021   67.2195 H   0  0  0  0  0  0  0  0  0  0  0  0
   -0.8484   69.7947   65.5480 H   0  0  0  0  0  0  0  0  0  0  0  0
  2  1  2  0
  3  2  1  0
  4  3  2  0
  5  4  1  0
  6  5  2  0
  6  1  1  0
  7  6  1  0
  8  7  1  0
  9  1  1  0
 10  9  1  0
 11 10  1  0
 13 12  1  0
 13 11  1  0
 14  3  1  0
 15 14  1  0
 16 15  1  0
 17 16  1  0
 18 17  1  0
 19 18  2  0
 20 18  1  0
 20 15  1  0
  2 21  1  0
  4 22  1  0
  5 23  1  0
  8 24  1  0
  8 25  1  0
  8 26  1  0
 10 27  1  0
 10 28  1  0
 11 29  1  0
 11 30  1  0
 12 31  1  0
 12 32  1  0
 12 33  1  0
 13 34  1  0
 13 35  1  0
 14 36  1  0
 14 37  1  0
 15 38  1  6
 16 39  1  0
 16 40  1  0
 17 41  1  0
 20 42  1  0
M  END
>  <score>  (1) 
-8.861

$$$$
=
     RDKit          3D

 42 43  0  0  0  0  0  0  0  0999 V2000
    4.5920   69.8510   66.7280 C   0  0  0  0  0  0  0  0  0  0  0  0
    3.3870   69.1570   66.5950 C   0  0  0  0  0  0  0  0  0  0  0  0
    2.4340   69.1900   67.6180 C   0  0  0  0  0  0  0  0  0  0  0  0
    2.7340   69.9030   68.7870 C   0  0  0  0  0  0  0  0  0  0  0  0
    3.9540   70.5770   68.9280 C   0  0  0  0  0  0  0  0  0  0  0  0
    4.9010   70.5520   67.9000 C   0  0  0  0  0  0  0  0  0  0  0  0
    6.1200   71.1740   67.9370 O   0  0  0  0  0  0  0  0  0  0  0  0
    6.9630   70.8910   69.0450 C   0  0  0  0  0  0  0  0  0  0  0  0
    5.4900   69.7650   65.6930 O   0  0  0  0  0  0  0  0  0  0  0  0
    5.0580   68.7710   64.7530 C   0  0  0  0  0  0  0  0  0  0  0  0
    5.2200   69.3550   63.3520 C   0  0  0  0  0  0  0  0  0  0  0  0
    2.8780   68.6080   62.6730 C   0  0  0  0  0  0  0  0  0  0  0  0
    4.3510   68.6700   62.2980 C   0  0  0  0  0  0  0  0  0  0  0  0
    1.1150   68.4690   67.4710 C   0  0  0  0  0  0  0  0  0  0  0  0
    0.0840   69.1290   66.5470 C   0  0  1  0  0  0  0  0  0  0  0  0
    0.0790   68.6460   65.0930 C   0  0  0  0  0  0  0  0  0  0  0  0
   -1.3050   68.7720   64.7180 N   0  0  0  0  0  0  0  0  0  0  0  0
   -2.1120   68.8630   65.8350 C   0  0  0  0  0  0  0  0  0  0  0  0
   -3.3270   68.8730   65.8400 O   0  0  0  0  0  0  0  0  0  0  0  0
   -1.2960   68.9530   66.9480 N   0  0  0  0  0  0  0  0  0  0  0  0
    3.1864   68.5808   65.6797 H   0  0  0  0  0  0  0  0  0  0  0  0
    2.0004   69.9338   69.6060 H   0  0  0  0  0  0  0  0  0  0  0  0
    4.1684   71.1300   69.8544 H   0  0  0  0  0  0  0  0  0  0  0  0
    6.4138   71.0754   69.9801 H   0  0  0  0  0  0  0  0  0  0  0  0
    7.2781   69.8378   69.0064 H   0  0  0  0  0  0  0  0  0  0  0  0
    7.8498   71.5407   69.0064 H   0  0  0  0  0  0  0  0  0  0  0  0
    5.6747   67.8658   64.8551 H   0  0  0  0  0  0  0  0  0  0  0  0
    4.0087   68.4972   64.9371 H   0  0  0  0  0  0  0  0  0  0  0  0
    4.9495   70.4207   63.3863 H   0  0  0  0  0  0  0  0  0  0  0  0
    6.2680   69.1980   63.0569 H   0  0  0  0  0  0  0  0  0  0  0  0
    2.7784   68.6038   63.7685 H   0  0  0  0  0  0  0  0  0  0  0  0
    2.3575   69.4850   62.2608 H   0  0  0  0  0  0  0  0  0  0  0  0
    2.4330   67.6903   62.2608 H   0  0  0  0  0  0  0  0  0  0  0  0
    4.7182   67.6426   62.1581 H   0  0  0  0  0  0  0  0  0  0  0  0
    4.4258   69.2686   61.3782 H   0  0  0  0  0  0  0  0  0  0  0  0
    1.3239   67.4633   67.0773 H   0  0  0  0  0  0  0  0  0  0  0  0
    0.6611   68.4766   68.4730 H   0  0  0  0  0  0  0  0  0  0  0  0
    0.4256   70.1713   66.6306 H   0  0  0  0  0  0  0  0  0  0  0  0
    0.7193   69.2807   64.4628 H   0  0  0  0  0  0  0  0  0  0  0  0
    0.4709   67.6252   64.9726 H   0  0  0  0  0  0  0  0  0  0  0  0
   -1.6475   68.7917   63.7468 H   0  0  0  0  0  0  0  0  0  0  0  0
   -1.6234   68.9021   67.9233 H   0  0  0  0  0  0  0  0  0  0  0  0
  2  1  2  0
  3  2  1  0
  4  3  2  0
  5  4  1  0
  6  5  2  0
  6  1  1  0
  7  6  1  0
  8  7  1  0
  9  1  1  0
 10  9  1  0
 11 10  1  0
 13 12  1  0
 13 11  1  0
 14  3  1  0
 15 14  1  0
 16 15  1  0
 17 16  1  0
 18 17  1  0
 19 18  2  0
 20 18  1  0
 20 15  1  0
  2 21  1  0
  4 22  1  0
  5 23  1  0
  8 24  1  0
  8 25  1  0
  8 26  1  0
 10 27  1  0
 10 28  1  0
 11 29  1  0
 11 30  1  0
 12 31  1  0
 12 32  1  0
 12 33  1  0
 13 34  1  0
 13 35  1  0
 14 36  1  0
 14 37  1  0
 15 38  1  6
 16 39  1  0
 16 40  1  0
 17 41  1  0
 20 42  1  0
M  END
>  <score>  (2) 
-8.469

$$$$
=
     RDKit          3D

 42 43  0  0  0  0  0  0  0  0999 V2000
    3.4780   69.5280   67.1270 C   0  0  0  0  0  0  0  0  0  0  0  0
    2.9870   69.1310   65.8800 C   0  0  0  0  0  0  0  0  0  0  0  0
    3.8140   69.1560   64.7530 C   0  0  0  0  0  0  0  0  0  0  0  0
    5.1290   69.6200   64.9000 C   0  0  0  0  0  0  0  0  0  0  0  0
    5.6100   70.0420   66.1460 C   0  0  0  0  0  0  0  0  0  0  0  0
    4.7860   70.0060   67.2730 C   0  0  0  0  0  0  0  0  0  0  0  0
    5.1560   70.3960   68.5330 O   0  0  0  0  0  0  0  0  0  0  0  0
    6.3770   71.1110   68.6620 C   0  0  0  0  0  0  0  0  0  0  0  0
    2.6090   69.4930   68.1890 O   0  0  0  0  0  0  0  0  0  0  0  0
    1.2600   69.3850   67.7140 C   0  0  0  0  0  0  0  0  0  0  0  0
    0.7300   68.0140   68.1290 C   0  0  0  0  0  0  0  0  0  0  0  0
   -1.5440   67.0800   67.4540 C   0  0  0  0  0  0  0  0  0  0  0  0
   -0.0980   67.3240   67.0470 C   0  0  0  0  0  0  0  0  0  0  0  0
    3.3030   68.6980   63.4070 C   0  0  0  0  0  0  0  0  0  0  0  0
    3.2220   67.1810   63.1950 C   0  0  1  0  0  0  0  0  0  0  0  0
    4.5050   66.5030   62.7040 C   0  0  0  0  0  0  0  0  0  0  0  0
    4.4290   65.1990   63.3080 N   0  0  0  0  0  0  0  0  0  0  0  0
    3.5300   65.1920   64.3560 C   0  0  0  0  0  0  0  0  0  0  0  0
    3.3300   64.2690   65.1210 O   0  0  0  0  0  0  0  0  0  0  0  0
    2.8880   66.4170   64.3770 N   0  0  0  0  0  0  0  0  0  0  0  0
    1.9433   68.7968   65.7847 H   0  0  0  0  0  0  0  0  0  0  0  0
    5.7929   69.6531   64.0236 H   0  0  0  0  0  0  0  0  0  0  0  0
    6.6445   70.4045   66.2375 H   0  0  0  0  0  0  0  0  0  0  0  0
    6.6108   71.2479   69.7281 H   0  0  0  0  0  0  0  0  0  0  0  0
    7.1866   70.5443   68.1789 H   0  0  0  0  0  0  0  0  0  0  0  0
    6.2789   72.0943   68.1789 H   0  0  0  0  0  0  0  0  0  0  0  0
    0.6409   70.1769   68.1608 H   0  0  0  0  0  0  0  0  0  0  0  0
    1.2266   69.4960   66.6201 H   0  0  0  0  0  0  0  0  0  0  0  0
    1.5872   67.3698   68.3744 H   0  0  0  0  0  0  0  0  0  0  0  0
    0.0652   68.1732   68.9908 H   0  0  0  0  0  0  0  0  0  0  0  0
   -1.6189   67.0674   68.5514 H   0  0  0  0  0  0  0  0  0  0  0  0
   -2.1786   67.8838   67.0524 H   0  0  0  0  0  0  0  0  0  0  0  0
   -1.8797   66.1125   67.0524 H   0  0  0  0  0  0  0  0  0  0  0  0
    0.3677   66.3543   66.8173 H   0  0  0  0  0  0  0  0  0  0  0  0
   -0.1154   67.9946   66.1752 H   0  0  0  0  0  0  0  0  0  0  0  0
    2.2919   69.1102   63.2737 H   0  0  0  0  0  0  0  0  0  0  0  0
    4.0390   69.0593   62.6737 H   0  0  0  0  0  0  0  0  0  0  0  0
    2.4297   67.1591   62.4322 H   0  0  0  0  0  0  0  0  0  0  0  0
    4.5197   66.4308   61.6065 H   0  0  0  0  0  0  0  0  0  0  0  0
    5.4184   67.0541   62.9722 H   0  0  0  0  0  0  0  0  0  0  0  0
    4.9726   64.3803   62.9997 H   0  0  0  0  0  0  0  0  0  0  0  0
    2.2610   66.7395   65.1278 H   0  0  0  0  0  0  0  0  0  0  0  0
  2  1  2  0
  3  2  1  0
  4  3  2  0
  5  4  1  0
  6  5  2  0
  6  1  1  0
  7  6  1  0
  8  7  1  0
  9  1  1  0
 10  9  1  0
 11 10  1  0
 13 12  1  0
 13 11  1  0
 14  3  1  0
 15 14  1  0
 16 15  1  0
 17 16  1  0
 18 17  1  0
 19 18  2  0
 20 18  1  0
 20 15  1  0
  2 21  1  0
  4 22  1  0
  5 23  1  0
  8 24  1  0
  8 25  1  0
  8 26  1  0
 10 27  1  0
 10 28  1  0
 11 29  1  0
 11 30  1  0
 12 31  1  0
 12 32  1  0
 12 33  1  0
 13 34  1  0
 13 35  1  0
 14 36  1  0
 14 37  1  0
 15 38  1  6
 16 39  1  0
 16 40  1  0
 17 41  1  0
 20 42  1  0
M  END
>  <score>  (3) 
-8.409

$$$$
=
     RDKit          3D

 42 43  0  0  0  0  0  0  0  0999 V2000
    3.8310   69.6830   67.4090 C   0  0  0  0  0  0  0  0  0  0  0  0
    3.3870   69.1460   66.1970 C   0  0  0  0  0  0  0  0  0  0  0  0
    4.2370   69.1080   65.0880 C   0  0  0  0  0  0  0  0  0  0  0  0
    5.5240   69.6520   65.2120 C   0  0  0  0  0  0  0  0  0  0  0  0
    5.9550   70.2130   66.4200 C   0  0  0  0  0  0  0  0  0  0  0  0
    5.1090   70.2400   67.5320 C   0  0  0  0  0  0  0  0  0  0  0  0
    5.4320   70.7650   68.7550 O   0  0  0  0  0  0  0  0  0  0  0  0
    6.8120   70.9300   69.0500 C   0  0  0  0  0  0  0  0  0  0  0  0
    2.9420   69.7030   68.4550 O   0  0  0  0  0  0  0  0  0  0  0  0
    1.6520   69.2600   68.0090 C   0  0  0  0  0  0  0  0  0  0  0  0
    1.3810   67.9010   68.6500 C   0  0  0  0  0  0  0  0  0  0  0  0
   -0.1800   67.3340   66.7140 C   0  0  0  0  0  0  0  0  0  0  0  0
    0.0580   67.2720   68.2160 C   0  0  0  0  0  0  0  0  0  0  0  0
    3.7790   68.5010   63.7820 C   0  0  0  0  0  0  0  0  0  0  0  0
    2.5250   69.1210   63.1520 C   0  0  1  0  0  0  0  0  0  0  0  0
    2.3140   68.8390   61.6610 C   0  0  0  0  0  0  0  0  0  0  0  0
    0.8800   68.8120   61.5410 N   0  0  0  0  0  0  0  0  0  0  0  0
    0.2850   68.6370   62.7740 C   0  0  0  0  0  0  0  0  0  0  0  0
   -0.9020   68.4690   62.9790 O   0  0  0  0  0  0  0  0  0  0  0  0
    1.2730   68.6960   63.7390 N   0  0  0  0  0  0  0  0  0  0  0  0
    2.3635   68.7513   66.1157 H   0  0  0  0  0  0  0  0  0  0  0  0
    6.2043   69.6376   64.3477 H   0  0  0  0  0  0  0  0  0  0  0  0
    6.9677   70.6360   66.4945 H   0  0  0  0  0  0  0  0  0  0  0  0
    6.9543   70.9470   70.1406 H   0  0  0  0  0  0  0  0  0  0  0  0
    7.3817   70.0936   68.6189 H   0  0  0  0  0  0  0  0  0  0  0  0
    7.1684   71.8772   68.6189 H   0  0  0  0  0  0  0  0  0  0  0  0
    0.8807   69.9807   68.3184 H   0  0  0  0  0  0  0  0  0  0  0  0
    1.6300   69.1800   66.9121 H   0  0  0  0  0  0  0  0  0  0  0  0
    2.1977   67.2176   68.3744 H   0  0  0  0  0  0  0  0  0  0  0  0
    1.3195   68.0636   69.7362 H   0  0  0  0  0  0  0  0  0  0  0  0
   -1.2277   67.6069   66.5197 H   0  0  0  0  0  0  0  0  0  0  0  0
    0.4843   68.0891   66.2684 H   0  0  0  0  0  0  0  0  0  0  0  0
    0.0315   66.3508   66.2684 H   0  0  0  0  0  0  0  0  0  0  0  0
   -0.7623   67.8034   68.7207 H   0  0  0  0  0  0  0  0  0  0  0  0
    0.0991   66.2083   68.4934 H   0  0  0  0  0  0  0  0  0  0  0  0
    4.6020   68.5994   63.0589 H   0  0  0  0  0  0  0  0  0  0  0  0
    3.5074   67.4617   64.0187 H   0  0  0  0  0  0  0  0  0  0  0  0
    2.7484   70.1814   63.3405 H   0  0  0  0  0  0  0  0  0  0  0  0
    2.7484   69.6374   61.0415 H   0  0  0  0  0  0  0  0  0  0  0  0
    2.7969   67.9110   61.3209 H   0  0  0  0  0  0  0  0  0  0  0  0
    0.3664   68.9102   60.6536 H   0  0  0  0  0  0  0  0  0  0  0  0
    1.1371   68.4695   64.7346 H   0  0  0  0  0  0  0  0  0  0  0  0
  2  1  2  0
  3  2  1  0
  4  3  2  0
  5  4  1  0
  6  5  2  0
  6  1  1  0
  7  6  1  0
  8  7  1  0
  9  1  1  0
 10  9  1  0
 11 10  1  0
 13 12  1  0
 13 11  1  0
 14  3  1  0
 15 14  1  0
 16 15  1  0
 17 16  1  0
 18 17  1  0
 19 18  2  0
 20 18  1  0
 20 15  1  0
  2 21  1  0
  4 22  1  0
  5 23  1  0
  8 24  1  0
  8 25  1  0
  8 26  1  0
 10 27  1  0
 10 28  1  0
 11 29  1  0
 11 30  1  0
 12 31  1  0
 12 32  1  0
 12 33  1  0
 13 34  1  0
 13 35  1  0
 14 36  1  0
 14 37  1  0
 15 38  1  6
 16 39  1  0
 16 40  1  0
 17 41  1  0
 20 42  1  0
M  END
>  <score>  (4) 
-8.297

$$$$
=
     RDKit          3D

 42 43  0  0  0  0  0  0  0  0999 V2000
    4.7470   69.5050   66.1850 C   0  0  0  0  0  0  0  0  0  0  0  0
    3.4340   69.0730   65.9830 C   0  0  0  0  0  0  0  0  0  0  0  0
    2.4610   69.2860   66.9640 C   0  0  0  0  0  0  0  0  0  0  0  0
    2.8430   69.9100   68.1610 C   0  0  0  0  0  0  0  0  0  0  0  0
    4.1660   70.3190   68.3690 C   0  0  0  0  0  0  0  0  0  0  0  0
    5.1360   70.1150   67.3840 C   0  0  0  0  0  0  0  0  0  0  0  0
    6.4520   70.4760   67.4880 O   0  0  0  0  0  0  0  0  0  0  0  0
    6.8960   70.9730   68.7420 C   0  0  0  0  0  0  0  0  0  0  0  0
    5.6570   69.2520   65.1880 O   0  0  0  0  0  0  0  0  0  0  0  0
    5.0670   69.5220   63.9080 C   0  0  0  0  0  0  0  0  0  0  0  0
    5.6250   68.5050   62.9160 C   0  0  0  0  0  0  0  0  0  0  0  0
    4.3270   66.3310   63.2190 C   0  0  0  0  0  0  0  0  0  0  0  0
    4.5690   67.5570   62.3500 C   0  0  0  0  0  0  0  0  0  0  0  0
    1.0310   68.8500   66.7440 C   0  0  0  0  0  0  0  0  0  0  0  0
    0.3100   68.2590   67.9630 C   0  0  1  0  0  0  0  0  0  0  0  0
   -0.7760   67.2220   67.6620 C   0  0  0  0  0  0  0  0  0  0  0  0
   -0.7070   66.3460   68.8010 N   0  0  0  0  0  0  0  0  0  0  0  0
    0.4900   66.5010   69.4710 C   0  0  0  0  0  0  0  0  0  0  0  0
    0.8810   65.8280   70.4050 O   0  0  0  0  0  0  0  0  0  0  0  0
    1.1660   67.5640   68.9000 N   0  0  0  0  0  0  0  0  0  0  0  0
    3.1642   68.5624   65.0468 H   0  0  0  0  0  0  0  0  0  0  0  0
    2.0927   70.0804   68.9472 H   0  0  0  0  0  0  0  0  0  0  0  0
    4.4441   70.8050   69.3158 H   0  0  0  0  0  0  0  0  0  0  0  0
    6.4005   70.4184   69.5525 H   0  0  0  0  0  0  0  0  0  0  0  0
    7.9855   70.8444   68.8224 H   0  0  0  0  0  0  0  0  0  0  0  0
    6.6459   72.0412   68.8224 H   0  0  0  0  0  0  0  0  0  0  0  0
    3.9733   69.4226   63.9711 H   0  0  0  0  0  0  0  0  0  0  0  0
    5.3028   70.5462   63.5834 H   0  0  0  0  0  0  0  0  0  0  0  0
    6.0850   69.0518   62.0797 H   0  0  0  0  0  0  0  0  0  0  0  0
    6.3519   67.8870   63.4634 H   0  0  0  0  0  0  0  0  0  0  0  0
    4.3834   66.6166   64.2798 H   0  0  0  0  0  0  0  0  0  0  0  0
    3.3302   65.9191   63.0026 H   0  0  0  0  0  0  0  0  0  0  0  0
    5.0925   65.5713   63.0026 H   0  0  0  0  0  0  0  0  0  0  0  0
    4.8999   67.2200   61.3566 H   0  0  0  0  0  0  0  0  0  0  0  0
    3.6222   68.1154   62.3065 H   0  0  0  0  0  0  0  0  0  0  0  0
    0.4597   69.7282   66.4088 H   0  0  0  0  0  0  0  0  0  0  0  0
    1.0807   68.0353   66.0066 H   0  0  0  0  0  0  0  0  0  0  0  0
   -0.1132   69.1868   68.3754 H   0  0  0  0  0  0  0  0  0  0  0  0
   -1.7658   67.6958   67.5863 H   0  0  0  0  0  0  0  0  0  0  0  0
   -0.6273   66.7022   66.7040 H   0  0  0  0  0  0  0  0  0  0  0  0
   -1.4513   65.6907   69.0794 H   0  0  0  0  0  0  0  0  0  0  0  0
    2.1400   67.8239   69.1116 H   0  0  0  0  0  0  0  0  0  0  0  0
  2  1  2  0
  3  2  1  0
  4  3  2  0
  5  4  1  0
  6  5  2  0
  6  1  1  0
  7  6  1  0
  8  7  1  0
  9  1  1  0
 10  9  1  0
 11 10  1  0
 13 12  1  0
 13 11  1  0
 14  3  1  0
 15 14  1  0
 16 15  1  0
 17 16  1  0
 18 17  1  0
 19 18  2  0
 20 18  1  0
 20 15  1  0
  2 21  1  0
  4 22  1  0
  5 23  1  0
  8 24  1  0
  8 25  1  0
  8 26  1  0
 10 27  1  0
 10 28  1  0
 11 29  1  0
 11 30  1  0
 12 31  1  0
 12 32  1  0
 12 33  1  0
 13 34  1  0
 13 35  1  0
 14 36  1  0
 14 37  1  0
 15 38  1  1
 16 39  1  0
 16 40  1  0
 17 41  1  0
 20 42  1  0
M  END
>  <score>  (5) 
-8.131

$$$$
=
     RDKit          3D

 42 43  0  0  0  0  0  0  0  0999 V2000
    3.6870   68.8100   65.3550 C   0  0  0  0  0  0  0  0  0  0  0  0
    2.3980   68.3110   65.5610 C   0  0  0  0  0  0  0  0  0  0  0  0
    1.7040   68.6100   66.7380 C   0  0  0  0  0  0  0  0  0  0  0  0
    2.3450   69.3880   67.7130 C   0  0  0  0  0  0  0  0  0  0  0  0
    3.6470   69.8650   67.5130 C   0  0  0  0  0  0  0  0  0  0  0  0
    4.3350   69.5750   66.3330 C   0  0  0  0  0  0  0  0  0  0  0  0
    5.6070   69.9900   66.0400 O   0  0  0  0  0  0  0  0  0  0  0  0
    6.3820   70.5190   67.1060 C   0  0  0  0  0  0  0  0  0  0  0  0
    4.3190   68.4670   64.1850 O   0  0  0  0  0  0  0  0  0  0  0  0
    3.6050   67.4030   63.5390 C   0  0  0  0  0  0  0  0  0  0  0  0
    4.5040   66.1690   63.5480 C   0  0  0  0  0  0  0  0  0  0  0  0
    4.6510   63.6670   64.0200 C   0  0  0  0  0  0  0  0  0  0  0  0
    3.8750   64.9580   64.2350 C   0  0  0  0  0  0  0  0  0  0  0  0
    0.2990   68.1010   66.9580 C   0  0  0  0  0  0  0  0  0  0  0  0
   -0.8250   68.9180   66.3050 C   0  0  1  0  0  0  0  0  0  0  0  0
   -0.9740   68.7600   64.7890 C   0  0  0  0  0  0  0  0  0  0  0  0
   -2.3900   68.9260   64.5880 N   0  0  0  0  0  0  0  0  0  0  0  0
   -3.0800   68.7530   65.7710 C   0  0  0  0  0  0  0  0  0  0  0  0
   -4.2890   68.7280   65.8980 O   0  0  0  0  0  0  0  0  0  0  0  0
   -2.1550   68.6220   66.7910 N   0  0  0  0  0  0  0  0  0  0  0  0
    1.9266   67.6797   64.7934 H   0  0  0  0  0  0  0  0  0  0  0  0
    1.8178   69.6272   68.6484 H   0  0  0  0  0  0  0  0  0  0  0  0
    4.1311   70.4727   68.2916 H   0  0  0  0  0  0  0  0  0  0  0  0
    5.9391   70.2167   68.0665 H   0  0  0  0  0  0  0  0  0  0  0  0
    7.4099   70.1332   67.0386 H   0  0  0  0  0  0  0  0  0  0  0  0
    6.3972   71.6168   67.0386 H   0  0  0  0  0  0  0  0  0  0  0  0
    2.6733   67.1918   64.0842 H   0  0  0  0  0  0  0  0  0  0  0  0
    3.3456   67.6834   62.5075 H   0  0  0  0  0  0  0  0  0  0  0  0
    4.7328   65.8980   62.5067 H   0  0  0  0  0  0  0  0  0  0  0  0
    5.4060   66.4316   64.1202 H   0  0  0  0  0  0  0  0  0  0  0  0
    4.9135   63.2303   64.9949 H   0  0  0  0  0  0  0  0  0  0  0  0
    4.0305   62.9560   63.4548 H   0  0  0  0  0  0  0  0  0  0  0  0
    5.5700   63.8814   63.4548 H   0  0  0  0  0  0  0  0  0  0  0  0
    2.8576   64.8227   63.8392 H   0  0  0  0  0  0  0  0  0  0  0  0
    3.8786   65.1613   65.3160 H   0  0  0  0  0  0  0  0  0  0  0  0
    0.2460   67.0773   66.5589 H   0  0  0  0  0  0  0  0  0  0  0  0
    0.1250   68.1724   68.0418 H   0  0  0  0  0  0  0  0  0  0  0  0
   -0.4832   69.9268   66.5796 H   0  0  0  0  0  0  0  0  0  0  0  0
   -0.4044   69.5330   64.2523 H   0  0  0  0  0  0  0  0  0  0  0  0
   -0.5903   67.8006   64.4116 H   0  0  0  0  0  0  0  0  0  0  0  0
   -2.8294   69.1446   63.6825 H   0  0  0  0  0  0  0  0  0  0  0  0
   -2.3810   68.3521   67.7590 H   0  0  0  0  0  0  0  0  0  0  0  0
  2  1  2  0
  3  2  1  0
  4  3  2  0
  5  4  1  0
  6  5  2  0
  6  1  1  0
  7  6  1  0
  8  7  1  0
  9  1  1  0
 10  9  1  0
 11 10  1  0
 13 12  1  0
 13 11  1  0
 14  3  1  0
 15 14  1  0
 16 15  1  0
 17 16  1  0
 18 17  1  0
 19 18  2  0
 20 18  1  0
 20 15  1  0
  2 21  1  0
  4 22  1  0
  5 23  1  0
  8 24  1  0
  8 25  1  0
  8 26  1  0
 10 27  1  0
 10 28  1  0
 11 29  1  0
 11 30  1  0
 12 31  1  0
 12 32  1  0
 12 33  1  0
 13 34  1  0
 13 35  1  0
 14 36  1  0
 14 37  1  0
 15 38  1  6
 16 39  1  0
 16 40  1  0
 17 41  1  0
 20 42  1  0
M  END
>  <score>  (6) 
-8.096

$$$$
=
     RDKit          3D

 42 43  0  0  0  0  0  0  0  0999 V2000
    4.7540   69.8380   66.6010 C   0  0  0  0  0  0  0  0  0  0  0  0
    3.4330   69.3960   66.4820 C   0  0  0  0  0  0  0  0  0  0  0  0
    2.5450   69.5250   67.5540 C   0  0  0  0  0  0  0  0  0  0  0  0
    3.0210   70.0710   68.7550 C   0  0  0  0  0  0  0  0  0  0  0  0
    4.3530   70.4890   68.8790 C   0  0  0  0  0  0  0  0  0  0  0  0
    5.2360   70.3700   67.8030 C   0  0  0  0  0  0  0  0  0  0  0  0
    6.5530   70.7460   67.8190 O   0  0  0  0  0  0  0  0  0  0  0  0
    7.1560   70.9530   69.0880 C   0  0  0  0  0  0  0  0  0  0  0  0
    5.5770   69.6690   65.5150 O   0  0  0  0  0  0  0  0  0  0  0  0
    5.1940   68.4930   64.7890 C   0  0  0  0  0  0  0  0  0  0  0  0
    5.5850   68.7010   63.3280 C   0  0  0  0  0  0  0  0  0  0  0  0
    3.7730   67.8430   61.7530 C   0  0  0  0  0  0  0  0  0  0  0  0
    4.4070   69.0530   62.4220 C   0  0  0  0  0  0  0  0  0  0  0  0
    1.1070   69.0790   67.4270 C   0  0  0  0  0  0  0  0  0  0  0  0
    0.8350   67.9550   66.4190 C   0  0  1  0  0  0  0  0  0  0  0  0
    0.7620   68.3760   64.9480 C   0  0  0  0  0  0  0  0  0  0  0  0
    1.2710   67.2200   64.2580 N   0  0  0  0  0  0  0  0  0  0  0  0
    1.9740   66.4010   65.1200 C   0  0  0  0  0  0  0  0  0  0  0  0
    2.6060   65.4100   64.8100 O   0  0  0  0  0  0  0  0  0  0  0  0
    1.8240   66.8990   66.4010 N   0  0  0  0  0  0  0  0  0  0  0  0
    3.0904   68.9441   65.5394 H   0  0  0  0  0  0  0  0  0  0  0  0
    2.3390   70.1726   69.6121 H   0  0  0  0  0  0  0  0  0  0  0  0
    4.7057   70.9138   69.8304 H   0  0  0  0  0  0  0  0  0  0  0  0
    6.4352   70.7056   69.8812 H   0  0  0  0  0  0  0  0  0  0  0  0
    8.0416   70.3074   69.1829 H   0  0  0  0  0  0  0  0  0  0  0  0
    7.4583   72.0064   69.1829 H   0  0  0  0  0  0  0  0  0  0  0  0
    5.7173   67.6149   65.1954 H   0  0  0  0  0  0  0  0  0  0  0  0
    4.1110   68.3217   64.8771 H   0  0  0  0  0  0  0  0  0  0  0  0
    6.3185   69.5192   63.2778 H   0  0  0  0  0  0  0  0  0  0  0  0
    5.9956   67.7469   62.9658 H   0  0  0  0  0  0  0  0  0  0  0  0
    3.4085   67.1473   62.5231 H   0  0  0  0  0  0  0  0  0  0  0  0
    2.9305   68.1702   61.1260 H   0  0  0  0  0  0  0  0  0  0  0  0
    4.5216   67.3365   61.1260 H   0  0  0  0  0  0  0  0  0  0  0  0
    4.7632   69.7375   61.6380 H   0  0  0  0  0  0  0  0  0  0  0  0
    3.6358   69.5121   63.0580 H   0  0  0  0  0  0  0  0  0  0  0  0
    0.7746   68.7310   68.4161 H   0  0  0  0  0  0  0  0  0  0  0  0
    0.5588   69.9542   67.0483 H   0  0  0  0  0  0  0  0  0  0  0  0
   -0.1421   67.6213   66.7983 H   0  0  0  0  0  0  0  0  0  0  0  0
   -0.2744   68.5912   64.6488 H   0  0  0  0  0  0  0  0  0  0  0  0
    1.3255   69.2953   64.7304 H   0  0  0  0  0  0  0  0  0  0  0  0
    1.1300   67.0290   63.2557 H   0  0  0  0  0  0  0  0  0  0  0  0
    2.3429   66.5655   67.2259 H   0  0  0  0  0  0  0  0  0  0  0  0
  2  1  2  0
  3  2  1  0
  4  3  2  0
  5  4  1  0
  6  5  2  0
  6  1  1  0
  7  6  1  0
  8  7  1  0
  9  1  1  0
 10  9  1  0
 11 10  1  0
 13 12  1  0
 13 11  1  0
 14  3  1  0
 15 14  1  0
 16 15  1  0
 17 16  1  0
 18 17  1  0
 19 18  2  0
 20 18  1  0
 20 15  1  0
  2 21  1  0
  4 22  1  0
  5 23  1  0
  8 24  1  0
  8 25  1  0
  8 26  1  0
 10 27  1  0
 10 28  1  0
 11 29  1  0
 11 30  1  0
 12 31  1  0
 12 32  1  0
 12 33  1  0
 13 34  1  0
 13 35  1  0
 14 36  1  0
 14 37  1  0
 15 38  1  1
 16 39  1  0
 16 40  1  0
 17 41  1  0
 20 42  1  0
M  END
>  <score>  (7) 
-8.003

$$$$
=
     RDKit          3D

 42 43  0  0  0  0  0  0  0  0999 V2000
    1.9310   68.6620   64.6810 C   0  0  0  0  0  0  0  0  0  0  0  0
    3.1140   68.8470   65.4020 C   0  0  0  0  0  0  0  0  0  0  0  0
    4.3320   69.0030   64.7340 C   0  0  0  0  0  0  0  0  0  0  0  0
    4.3400   68.9330   63.3330 C   0  0  0  0  0  0  0  0  0  0  0  0
    3.1570   68.7210   62.6150 C   0  0  0  0  0  0  0  0  0  0  0  0
    1.9380   68.5770   63.2830 C   0  0  0  0  0  0  0  0  0  0  0  0
    0.7280   68.3660   62.6780 O   0  0  0  0  0  0  0  0  0  0  0  0
    0.0860   69.4910   62.0950 C   0  0  0  0  0  0  0  0  0  0  0  0
    0.7710   68.5010   65.3980 O   0  0  0  0  0  0  0  0  0  0  0  0
    1.0210   68.7420   66.7900 C   0  0  0  0  0  0  0  0  0  0  0  0
    0.2070   67.7280   67.5910 C   0  0  0  0  0  0  0  0  0  0  0  0
   -2.2850   67.1880   67.6440 C   0  0  0  0  0  0  0  0  0  0  0  0
   -0.9980   67.1740   66.8320 C   0  0  0  0  0  0  0  0  0  0  0  0
    5.6120   69.2350   65.5020 C   0  0  0  0  0  0  0  0  0  0  0  0
    5.5960   70.3960   66.5050 C   0  0  1  0  0  0  0  0  0  0  0  0
    4.6950   70.2120   67.7300 C   0  0  0  0  0  0  0  0  0  0  0  0
    5.3980   70.9340   68.7570 N   0  0  0  0  0  0  0  0  0  0  0  0
    6.7160   71.1410   68.4000 C   0  0  0  0  0  0  0  0  0  0  0  0
    7.5810   71.6250   69.1030 O   0  0  0  0  0  0  0  0  0  0  0  0
    6.8790   70.7100   67.0960 N   0  0  0  0  0  0  0  0  0  0  0  0
    3.0864   68.8700   66.5014 H   0  0  0  0  0  0  0  0  0  0  0  0
    5.2901   69.0464   62.7904 H   0  0  0  0  0  0  0  0  0  0  0  0
    3.1872   68.6674   61.5167 H   0  0  0  0  0  0  0  0  0  0  0  0
   -0.2907   70.1511   62.8902 H   0  0  0  0  0  0  0  0  0  0  0  0
    0.8058   70.0417   61.4717 H   0  0  0  0  0  0  0  0  0  0  0  0
   -0.7543   69.1514   61.4717 H   0  0  0  0  0  0  0  0  0  0  0  0
    2.0923   68.6162   67.0054 H   0  0  0  0  0  0  0  0  0  0  0  0
    0.7318   69.7681   67.0611 H   0  0  0  0  0  0  0  0  0  0  0  0
    0.8649   66.8883   67.8595 H   0  0  0  0  0  0  0  0  0  0  0  0
   -0.1827   68.2536   68.4752 H   0  0  0  0  0  0  0  0  0  0  0  0
   -2.0418   67.1854   68.7168 H   0  0  0  0  0  0  0  0  0  0  0  0
   -2.8620   68.0925   67.4011 H   0  0  0  0  0  0  0  0  0  0  0  0
   -2.8815   66.2963   67.4011 H   0  0  0  0  0  0  0  0  0  0  0  0
   -0.7800   66.1353   66.5428 H   0  0  0  0  0  0  0  0  0  0  0  0
   -1.1584   67.8247   65.9598 H   0  0  0  0  0  0  0  0  0  0  0  0
    5.8423   68.3140   66.0576 H   0  0  0  0  0  0  0  0  0  0  0  0
    6.3645   69.5068   64.7471 H   0  0  0  0  0  0  0  0  0  0  0  0
    5.2249   71.1888   65.8388 H   0  0  0  0  0  0  0  0  0  0  0  0
    3.6976   70.6420   67.5559 H   0  0  0  0  0  0  0  0  0  0  0  0
    4.5178   69.1566   67.9845 H   0  0  0  0  0  0  0  0  0  0  0  0
    4.9750   71.2536   69.6401 H   0  0  0  0  0  0  0  0  0  0  0  0
    7.7852   70.6246   66.6139 H   0  0  0  0  0  0  0  0  0  0  0  0
  2  1  2  0
  3  2  1  0
  4  3  2  0
  5  4  1  0
  6  5  2  0
  6  1  1  0
  7  6  1  0
  8  7  1  0
  9  1  1  0
 10  9  1  0
 11 10  1  0
 13 12  1  0
 13 11  1  0
 14  3  1  0
 15 14  1  0
 16 15  1  0
 17 16  1  0
 18 17  1  0
 19 18  2  0
 20 18  1  0
 20 15  1  0
  2 21  1  0
  4 22  1  0
  5 23  1  0
  8 24  1  0
  8 25  1  0
  8 26  1  0
 10 27  1  0
 10 28  1  0
 11 29  1  0
 11 30  1  0
 12 31  1  0
 12 32  1  0
 12 33  1  0
 13 34  1  0
 13 35  1  0
 14 36  1  0
 14 37  1  0
 15 38  1  6
 16 39  1  0
 16 40  1  0
 17 41  1  0
 20 42  1  0
M  END
>  <score>  (8) 
-7.94

$$$$
=
     RDKit          3D

 42 43  0  0  0  0  0  0  0  0999 V2000
    3.4800   69.0080   64.1900 C   0  0  0  0  0  0  0  0  0  0  0  0
    2.4960   68.7990   65.1610 C   0  0  0  0  0  0  0  0  0  0  0  0
    2.7500   69.1020   66.5020 C   0  0  0  0  0  0  0  0  0  0  0  0
    4.0210   69.5830   66.8500 C   0  0  0  0  0  0  0  0  0  0  0  0
    5.0130   69.7670   65.8780 C   0  0  0  0  0  0  0  0  0  0  0  0
    4.7540   69.4740   64.5360 C   0  0  0  0  0  0  0  0  0  0  0  0
    5.6510   69.6170   63.5120 O   0  0  0  0  0  0  0  0  0  0  0  0
    6.0040   68.4470   62.7870 C   0  0  0  0  0  0  0  0  0  0  0  0
    3.1700   68.6760   62.8940 O   0  0  0  0  0  0  0  0  0  0  0  0
    1.7820   68.3280   62.7980 C   0  0  0  0  0  0  0  0  0  0  0  0
    1.1670   69.1760   61.6870 C   0  0  0  0  0  0  0  0  0  0  0  0
   -0.8590   69.1180   63.2330 C   0  0  0  0  0  0  0  0  0  0  0  0
   -0.1680   69.8120   62.0690 C   0  0  0  0  0  0  0  0  0  0  0  0
    1.6840   68.9090   67.5550 C   0  0  0  0  0  0  0  0  0  0  0  0
    0.5540   67.9330   67.2010 C   0  0  1  0  0  0  0  0  0  0  0  0
    0.0720   67.0250   68.3370 C   0  0  0  0  0  0  0  0  0  0  0  0
   -1.3230   66.8480   68.0350 N   0  0  0  0  0  0  0  0  0  0  0  0
   -1.7660   67.8190   67.1590 C   0  0  0  0  0  0  0  0  0  0  0  0
   -2.9150   67.9930   66.8040 O   0  0  0  0  0  0  0  0  0  0  0  0
   -0.6700   68.5560   66.7470 N   0  0  0  0  0  0  0  0  0  0  0  0
    1.5162   68.3938   64.8681 H   0  0  0  0  0  0  0  0  0  0  0  0
    4.2420   69.8191   67.9014 H   0  0  0  0  0  0  0  0  0  0  0  0
    6.0030   70.1448   66.1731 H   0  0  0  0  0  0  0  0  0  0  0  0
    6.2479   67.6385   63.4919 H   0  0  0  0  0  0  0  0  0  0  0  0
    5.1588   68.1390   62.1539 H   0  0  0  0  0  0  0  0  0  0  0  0
    6.8785   68.6578   62.1539 H   0  0  0  0  0  0  0  0  0  0  0  0
    1.6794   67.2602   62.5548 H   0  0  0  0  0  0  0  0  0  0  0  0
    1.2707   68.5153   63.7538 H   0  0  0  0  0  0  0  0  0  0  0  0
    1.8739   69.9790   61.4311 H   0  0  0  0  0  0  0  0  0  0  0  0
    0.9720   68.5031   60.8389 H   0  0  0  0  0  0  0  0  0  0  0  0
   -0.4656   69.5131   64.1812 H   0  0  0  0  0  0  0  0  0  0  0  0
   -1.9420   69.3032   63.1797 H   0  0  0  0  0  0  0  0  0  0  0  0
   -0.6691   68.0358   63.1797 H   0  0  0  0  0  0  0  0  0  0  0  0
   -0.8349   69.7736   61.1950 H   0  0  0  0  0  0  0  0  0  0  0  0
    0.0439   70.8436   62.3866 H   0  0  0  0  0  0  0  0  0  0  0  0
    2.1753   68.5379   68.4665 H   0  0  0  0  0  0  0  0  0  0  0  0
    1.2012   69.8907   67.6700 H   0  0  0  0  0  0  0  0  0  0  0  0
    1.0639   67.3634   66.4101 H   0  0  0  0  0  0  0  0  0  0  0  0
    0.6044   66.0625   68.3277 H   0  0  0  0  0  0  0  0  0  0  0  0
    0.2504   67.4473   69.3369 H   0  0  0  0  0  0  0  0  0  0  0  0
   -1.9129   66.0970   68.4208 H   0  0  0  0  0  0  0  0  0  0  0  0
   -0.7187   69.4246   66.1955 H   0  0  0  0  0  0  0  0  0  0  0  0
  2  1  2  0
  3  2  1  0
  4  3  2  0
  5  4  1  0
  6  5  2  0
  6  1  1  0
  7  6  1  0
  8  7  1  0
  9  1  1  0
 10  9  1  0
 11 10  1  0
 13 12  1  0
 13 11  1  0
 14  3  1  0
 15 14  1  0
 16 15  1  0
 17 16  1  0
 18 17  1  0
 19 18  2  0
 20 18  1  0
 20 15  1  0
  2 21  1  0
  4 22  1  0
  5 23  1  0
  8 24  1  0
  8 25  1  0
  8 26  1  0
 10 27  1  0
 10 28  1  0
 11 29  1  0
 11 30  1  0
 12 31  1  0
 12 32  1  0
 12 33  1  0
 13 34  1  0
 13 35  1  0
 14 36  1  0
 14 37  1  0
 15 38  1  6
 16 39  1  0
 16 40  1  0
 17 41  1  0
 20 42  1  0
M  END
>  <score>  (9) 
-7.729

$$$$
