=
     RDKit          3D

 81 82  0  0  0  0  0  0  0  0999 V2000
    0.0690   67.3940   68.5180 C   0  0  0  0  0  0  0  0  0  0  0  0
    0.6770   68.1400   67.2960 C   0  0  2  0  0  0  0  0  0  0  0  0
   -0.2130   69.3150   66.8600 C   0  0  0  0  0  0  0  0  0  0  0  0
    0.9780   67.1650   66.1540 C   0  0  0  0  0  0  0  0  0  0  0  0
    1.7610   67.8430   65.0430 C   0  0  0  0  0  0  0  0  0  0  0  0
    2.9020   68.6570   65.5890 C   0  0  0  0  0  0  0  0  0  0  0  0
    2.9070   69.0360   66.9400 C   0  0  0  0  0  0  0  0  0  0  0  0
    1.9020   68.7050   67.8130 O   0  0  0  0  0  0  0  0  0  0  0  0
    3.9790   69.7740   67.4900 C   0  0  0  0  0  0  0  0  0  0  0  0
    3.9530   70.1500   68.9530 C   0  0  0  0  0  0  0  0  0  0  0  0
    5.0860   70.1040   66.6760 C   0  0  0  0  0  0  0  0  0  0  0  0
    5.0300   69.7870   65.3080 C   0  0  0  0  0  0  0  0  0  0  0  0
    3.9540   69.0770   64.7470 C   0  0  0  0  0  0  0  0  0  0  0  0
    3.9640   68.7250   63.2810 C   0  0  0  0  0  0  0  0  0  0  0  0
    6.2870   70.8060   67.2570 C   0  0  0  0  0  0  0  0  0  0  0  0
    6.0400   70.1590   64.4570 O   0  0  0  0  0  0  0  0  0  0  0  0
    1.0030   66.7500   69.5520 C   0  0  0  0  0  0  0  0  0  0  0  0
    0.3760   65.8130   70.5870 C   0  0  0  0  0  0  0  0  0  0  0  0
   -0.0210   63.4560   71.4520 C   0  0  0  0  0  0  0  0  0  0  0  0
    0.8230   64.3370   70.5230 C   0  0  2  0  0  0  0  0  0  0  0  0
    2.3130   64.1800   70.9020 C   0  0  0  0  0  0  0  0  0  0  0  0
    3.1700   63.5730   69.7840 C   0  0  0  0  0  0  0  0  0  0  0  0
    4.4220   62.8540   70.3060 C   0  0  0  0  0  0  0  0  0  0  0  0
    4.4870   61.3440   69.9870 C   0  0  2  0  0  0  0  0  0  0  0  0
    3.1810   60.9070   69.3180 C   0  0  0  0  0  0  0  0  0  0  0  0
    4.8580   60.4350   71.1770 C   0  0  0  0  0  0  0  0  0  0  0  0
    4.9470   61.1120   72.5530 C   0  0  0  0  0  0  0  0  0  0  0  0
    3.8080   60.7050   73.4950 C   0  0  0  0  0  0  0  0  0  0  0  0
    2.4550   61.3460   73.1310 C   0  0  0  0  0  0  0  0  0  0  0  0
    1.8290   62.1000   74.3040 C   0  0  0  0  0  0  0  0  0  0  0  0
    1.4880   60.2690   72.6340 C   0  0  0  0  0  0  0  0  0  0  0  0
   -0.5543   68.1212   69.0590 H   0  0  0  0  0  0  0  0  0  0  0  0
   -0.4468   66.5344   68.0652 H   0  0  0  0  0  0  0  0  0  0  0  0
   -0.6029   69.8298   67.7505 H   0  0  0  0  0  0  0  0  0  0  0  0
    0.3795   70.0203   66.2587 H   0  0  0  0  0  0  0  0  0  0  0  0
   -1.0524   68.9357   66.2587 H   0  0  0  0  0  0  0  0  0  0  0  0
    1.5682   66.3239   66.5468 H   0  0  0  0  0  0  0  0  0  0  0  0
    0.0231   66.8096   65.7395 H   0  0  0  0  0  0  0  0  0  0  0  0
    2.1624   67.0731   64.3676 H   0  0  0  0  0  0  0  0  0  0  0  0
    1.0808   68.5200   64.5055 H   0  0  0  0  0  0  0  0  0  0  0  0
    4.0160   69.2393   69.5668 H   0  0  0  0  0  0  0  0  0  0  0  0
    4.8081   70.8042   69.1787 H   0  0  0  0  0  0  0  0  0  0  0  0
    3.0160   70.6803   69.1787 H   0  0  0  0  0  0  0  0  0  0  0  0
    3.9951   67.6314   63.1667 H   0  0  0  0  0  0  0  0  0  0  0  0
    3.0543   69.1179   62.8034 H   0  0  0  0  0  0  0  0  0  0  0  0
    4.8499   69.1689   62.8034 H   0  0  0  0  0  0  0  0  0  0  0  0
    6.2340   70.7750   68.3553 H   0  0  0  0  0  0  0  0  0  0  0  0
    7.2049   70.3022   66.9198 H   0  0  0  0  0  0  0  0  0  0  0  0
    6.2984   71.8530   66.9198 H   0  0  0  0  0  0  0  0  0  0  0  0
    5.9872   69.9289   63.4956 H   0  0  0  0  0  0  0  0  0  0  0  0
    1.7574   66.1715   68.9987 H   0  0  0  0  0  0  0  0  0  0  0  0
    1.3933   67.5940   70.1396 H   0  0  0  0  0  0  0  0  0  0  0  0
    0.6285   66.1980   71.5860 H   0  0  0  0  0  0  0  0  0  0  0  0
   -0.7016   65.8061   70.3661 H   0  0  0  0  0  0  0  0  0  0  0  0
    0.2118   63.6990   72.4992 H   0  0  0  0  0  0  0  0  0  0  0  0
   -1.0887   63.6398   71.2616 H   0  0  0  0  0  0  0  0  0  0  0  0
    0.2084   62.3972   71.2616 H   0  0  0  0  0  0  0  0  0  0  0  0
    0.6783   64.0104   69.4826 H   0  0  0  0  0  0  0  0  0  0  0  0
    2.7157   65.1735   71.1485 H   0  0  0  0  0  0  0  0  0  0  0  0
    2.3577   63.4871   71.7552 H   0  0  0  0  0  0  0  0  0  0  0  0
    2.5571   62.8487   69.2275 H   0  0  0  0  0  0  0  0  0  0  0  0
    3.5105   64.4017   69.1459 H   0  0  0  0  0  0  0  0  0  0  0  0
    5.3039   63.3358   69.8586 H   0  0  0  0  0  0  0  0  0  0  0  0
    4.3895   62.9359   71.4025 H   0  0  0  0  0  0  0  0  0  0  0  0
    5.3288   61.2117   69.2914 H   0  0  0  0  0  0  0  0  0  0  0  0
    2.4385   60.6586   70.0906 H   0  0  0  0  0  0  0  0  0  0  0  0
    2.7981   61.7260   68.6914 H   0  0  0  0  0  0  0  0  0  0  0  0
    3.3681   60.0225   68.6914 H   0  0  0  0  0  0  0  0  0  0  0  0
    4.0977   59.6428   71.2425 H   0  0  0  0  0  0  0  0  0  0  0  0
    5.8749   60.0745   70.9629 H   0  0  0  0  0  0  0  0  0  0  0  0
    5.9038   60.8342   73.0192 H   0  0  0  0  0  0  0  0  0  0  0  0
    4.8690   62.1973   72.3917 H   0  0  0  0  0  0  0  0  0  0  0  0
    3.6974   59.6113   73.4563 H   0  0  0  0  0  0  0  0  0  0  0  0
    4.0757   61.0603   74.5010 H   0  0  0  0  0  0  0  0  0  0  0  0
    2.6465   62.0806   72.3349 H   0  0  0  0  0  0  0  0  0  0  0  0
    2.1872   61.6685   75.2503 H   0  0  0  0  0  0  0  0  0  0  0  0
    2.1157   63.1608   74.2529 H   0  0  0  0  0  0  0  0  0  0  0  0
    0.7336   62.0133   74.2529 H   0  0  0  0  0  0  0  0  0  0  0  0
    1.0313   59.7603   73.4958 H   0  0  0  0  0  0  0  0  0  0  0  0
    0.7005   60.7363   72.0245 H   0  0  0  0  0  0  0  0  0  0  0  0
    2.0371   59.5362   72.0245 H   0  0  0  0  0  0  0  0  0  0  0  0
  2  1  1  1
  3  2  1  0
  4  2  1  0
  5  4  1  0
  6  5  1  0
  7  6  2  0
  8  7  1  0
  8  2  1  0
  9  7  1  0
 10  9  1  0
 11  9  2  0
 12 11  1  0
 13 12  2  0
 13  6  1  0
 14 13  1  0
 15 11  1  0
 16 12  1  0
 17  1  1  0
 18 17  1  0
 20 19  1  0
 20 18  1  0
 21 20  1  0
 22 21  1  0
 23 22  1  0
 24 23  1  0
 25 24  1  0
 26 24  1  0
 27 26  1  0
 28 27  1  0
 29 28  1  0
 30 29  1  0
 31 29  1  0
  1 32  1  0
  1 33  1  0
  3 34  1  0
  3 35  1  0
  3 36  1  0
  4 37  1  0
  4 38  1  0
  5 39  1  0
  5 40  1  0
 10 41  1  0
 10 42  1  0
 10 43  1  0
 14 44  1  0
 14 45  1  0
 14 46  1  0
 15 47  1  0
 15 48  1  0
 15 49  1  0
 16 50  1  0
 17 51  1  0
 17 52  1  0
 18 53  1  0
 18 54  1  0
 19 55  1  0
 19 56  1  0
 19 57  1  0
 20 58  1  6
 21 59  1  0
 21 60  1  0
 22 61  1  0
 22 62  1  0
 23 63  1  0
 23 64  1  0
 24 65  1  6
 25 66  1  0
 25 67  1  0
 25 68  1  0
 26 69  1  0
 26 70  1  0
 27 71  1  0
 27 72  1  0
 28 73  1  0
 28 74  1  0
 29 75  1  0
 30 76  1  0
 30 77  1  0
 30 78  1  0
 31 79  1  0
 31 80  1  0
 31 81  1  0
M  END
>  <score>  (1) 
-10.264

$$$$
=
     RDKit          3D

 81 82  0  0  0  0  0  0  0  0999 V2000
    0.3980   67.4010   68.2890 C   0  0  0  0  0  0  0  0  0  0  0  0
    1.1700   68.2520   67.2410 C   0  0  2  0  0  0  0  0  0  0  0  0
    0.2710   69.3470   66.6420 C   0  0  0  0  0  0  0  0  0  0  0  0
    1.8110   67.3600   66.1750 C   0  0  0  0  0  0  0  0  0  0  0  0
    2.7350   68.1580   65.2710 C   0  0  0  0  0  0  0  0  0  0  0  0
    3.6380   69.0620   66.0650 C   0  0  0  0  0  0  0  0  0  0  0  0
    3.3130   69.3860   67.3910 C   0  0  0  0  0  0  0  0  0  0  0  0
    2.1870   68.9190   68.0200 O   0  0  0  0  0  0  0  0  0  0  0  0
    4.1560   70.2070   68.1720 C   0  0  0  0  0  0  0  0  0  0  0  0
    3.7780   70.5200   69.6010 C   0  0  0  0  0  0  0  0  0  0  0  0
    5.3700   70.6800   67.6230 C   0  0  0  0  0  0  0  0  0  0  0  0
    5.6420   70.4130   66.2700 C   0  0  0  0  0  0  0  0  0  0  0  0
    4.7940   69.6200   65.4780 C   0  0  0  0  0  0  0  0  0  0  0  0
    5.1550   69.3290   64.0430 C   0  0  0  0  0  0  0  0  0  0  0  0
    6.3360   71.4780   68.4620 C   0  0  0  0  0  0  0  0  0  0  0  0
    6.7640   70.9200   65.6650 O   0  0  0  0  0  0  0  0  0  0  0  0
    1.1470   66.8470   69.5100 C   0  0  0  0  0  0  0  0  0  0  0  0
    0.4040   65.8500   70.4030 C   0  0  0  0  0  0  0  0  0  0  0  0
   -0.0600   63.3550   70.2590 C   0  0  0  0  0  0  0  0  0  0  0  0
    1.0090   64.4320   70.4830 C   0  0  2  0  0  0  0  0  0  0  0  0
    1.6920   64.1830   71.8470 C   0  0  0  0  0  0  0  0  0  0  0  0
    1.1370   62.9660   72.5970 C   0  0  0  0  0  0  0  0  0  0  0  0
    2.1900   62.2620   73.4670 C   0  0  0  0  0  0  0  0  0  0  0  0
    2.6210   60.8660   72.9670 C   0  0  2  0  0  0  0  0  0  0  0  0
    4.0770   60.6090   73.3660 C   0  0  0  0  0  0  0  0  0  0  0  0
    2.3790   60.5990   71.4670 C   0  0  0  0  0  0  0  0  0  0  0  0
    3.5250   59.9230   70.6990 C   0  0  0  0  0  0  0  0  0  0  0  0
    3.9840   60.7290   69.4780 C   0  0  0  0  0  0  0  0  0  0  0  0
    3.7660   62.2470   69.6310 C   0  0  0  0  0  0  0  0  0  0  0  0
    3.6970   62.9680   68.2850 C   0  0  0  0  0  0  0  0  0  0  0  0
    4.8870   62.8480   70.4830 C   0  0  0  0  0  0  0  0  0  0  0  0
   -0.4194   68.0293   68.6725 H   0  0  0  0  0  0  0  0  0  0  0  0
    0.1109   66.4985   67.7295 H   0  0  0  0  0  0  0  0  0  0  0  0
   -0.1996   69.9202   67.4544 H   0  0  0  0  0  0  0  0  0  0  0  0
    0.8790   70.0219   66.0216 H   0  0  0  0  0  0  0  0  0  0  0  0
   -0.5093   68.8820   66.0216 H   0  0  0  0  0  0  0  0  0  0  0  0
    2.3913   66.5684   66.6717 H   0  0  0  0  0  0  0  0  0  0  0  0
    1.0105   66.9263   65.5577 H   0  0  0  0  0  0  0  0  0  0  0  0
    3.3524   67.4606   64.6858 H   0  0  0  0  0  0  0  0  0  0  0  0
    2.1161   68.7826   64.6100 H   0  0  0  0  0  0  0  0  0  0  0  0
    4.4417   69.9704   70.2846 H   0  0  0  0  0  0  0  0  0  0  0  0
    3.8813   71.6005   69.7794 H   0  0  0  0  0  0  0  0  0  0  0  0
    2.7357   70.2170   69.7794 H   0  0  0  0  0  0  0  0  0  0  0  0
    6.0111   68.6389   64.0130 H   0  0  0  0  0  0  0  0  0  0  0  0
    4.2950   68.8687   63.5347 H   0  0  0  0  0  0  0  0  0  0  0  0
    5.4223   70.2672   63.5347 H   0  0  0  0  0  0  0  0  0  0  0  0
    6.1260   71.3045   69.5277 H   0  0  0  0  0  0  0  0  0  0  0  0
    7.3653   71.1634   68.2351 H   0  0  0  0  0  0  0  0  0  0  0  0
    6.2213   72.5482   68.2351 H   0  0  0  0  0  0  0  0  0  0  0  0
    6.9435   70.7241   64.7113 H   0  0  0  0  0  0  0  0  0  0  0  0
    2.0540   66.3460   69.1407 H   0  0  0  0  0  0  0  0  0  0  0  0
    1.3213   67.7226   70.1526 H   0  0  0  0  0  0  0  0  0  0  0  0
    0.3801   66.2637   71.4220 H   0  0  0  0  0  0  0  0  0  0  0  0
   -0.5882   65.7238   69.9451 H   0  0  0  0  0  0  0  0  0  0  0  0
   -0.4222   62.9901   71.2314 H   0  0  0  0  0  0  0  0  0  0  0  0
   -0.8996   63.7840   69.6925 H   0  0  0  0  0  0  0  0  0  0  0  0
    0.3753   62.5186   69.6925 H   0  0  0  0  0  0  0  0  0  0  0  0
    1.7632   64.3675   69.6849 H   0  0  0  0  0  0  0  0  0  0  0  0
    2.7668   64.0249   71.6743 H   0  0  0  0  0  0  0  0  0  0  0  0
    1.4949   65.0658   72.4730 H   0  0  0  0  0  0  0  0  0  0  0  0
    0.3137   63.3001   73.2455 H   0  0  0  0  0  0  0  0  0  0  0  0
    0.7985   62.2417   71.8415 H   0  0  0  0  0  0  0  0  0  0  0  0
    3.0840   62.9018   73.5057 H   0  0  0  0  0  0  0  0  0  0  0  0
    1.7223   62.1059   74.4503 H   0  0  0  0  0  0  0  0  0  0  0  0
    1.9594   60.1423   73.4656 H   0  0  0  0  0  0  0  0  0  0  0  0
    4.1595   60.5944   74.4628 H   0  0  0  0  0  0  0  0  0  0  0  0
    4.4025   59.6395   72.9609 H   0  0  0  0  0  0  0  0  0  0  0  0
    4.7148   61.4085   72.9609 H   0  0  0  0  0  0  0  0  0  0  0  0
    1.4923   59.9538   71.3809 H   0  0  0  0  0  0  0  0  0  0  0  0
    2.2664   61.5924   71.0083 H   0  0  0  0  0  0  0  0  0  0  0  0
    4.3799   59.8012   71.3804 H   0  0  0  0  0  0  0  0  0  0  0  0
    3.1508   58.9554   70.3333 H   0  0  0  0  0  0  0  0  0  0  0  0
    5.0571   60.5446   69.3215 H   0  0  0  0  0  0  0  0  0  0  0  0
    3.3768   60.3978   68.6226 H   0  0  0  0  0  0  0  0  0  0  0  0
    2.7946   62.3885   70.1273 H   0  0  0  0  0  0  0  0  0  0  0  0
    3.5934   64.0501   68.4536 H   0  0  0  0  0  0  0  0  0  0  0  0
    4.6180   62.7720   67.7164 H   0  0  0  0  0  0  0  0  0  0  0  0
    2.8299   62.6008   67.7164 H   0  0  0  0  0  0  0  0  0  0  0  0
    4.6468   62.7192   71.5487 H   0  0  0  0  0  0  0  0  0  0  0  0
    5.8342   62.3367   70.2562 H   0  0  0  0  0  0  0  0  0  0  0  0
    4.9854   63.9199   70.2562 H   0  0  0  0  0  0  0  0  0  0  0  0
  2  1  1  1
  3  2  1  0
  4  2  1  0
  5  4  1  0
  6  5  1  0
  7  6  2  0
  8  7  1  0
  8  2  1  0
  9  7  1  0
 10  9  1  0
 11  9  2  0
 12 11  1  0
 13 12  2  0
 13  6  1  0
 14 13  1  0
 15 11  1  0
 16 12  1  0
 17  1  1  0
 18 17  1  0
 20 19  1  0
 20 18  1  0
 21 20  1  0
 22 21  1  0
 23 22  1  0
 24 23  1  0
 25 24  1  0
 26 24  1  0
 27 26  1  0
 28 27  1  0
 29 28  1  0
 30 29  1  0
 31 29  1  0
  1 32  1  0
  1 33  1  0
  3 34  1  0
  3 35  1  0
  3 36  1  0
  4 37  1  0
  4 38  1  0
  5 39  1  0
  5 40  1  0
 10 41  1  0
 10 42  1  0
 10 43  1  0
 14 44  1  0
 14 45  1  0
 14 46  1  0
 15 47  1  0
 15 48  1  0
 15 49  1  0
 16 50  1  0
 17 51  1  0
 17 52  1  0
 18 53  1  0
 18 54  1  0
 19 55  1  0
 19 56  1  0
 19 57  1  0
 20 58  1  6
 21 59  1  0
 21 60  1  0
 22 61  1  0
 22 62  1  0
 23 63  1  0
 23 64  1  0
 24 65  1  1
 25 66  1  0
 25 67  1  0
 25 68  1  0
 26 69  1  0
 26 70  1  0
 27 71  1  0
 27 72  1  0
 28 73  1  0
 28 74  1  0
 29 75  1  0
 30 76  1  0
 30 77  1  0
 30 78  1  0
 31 79  1  0
 31 80  1  0
 31 81  1  0
M  END
>  <score>  (2) 
-10.178

$$$$
=
     RDKit          3D

 81 82  0  0  0  0  0  0  0  0999 V2000
    0.5180   66.0740   70.6810 C   0  0  0  0  0  0  0  0  0  0  0  0
    0.5590   64.5900   71.1450 C   0  0  2  0  0  0  0  0  0  0  0  0
   -0.3380   63.7060   70.2640 C   0  0  0  0  0  0  0  0  0  0  0  0
    0.2310   64.4730   72.6350 C   0  0  0  0  0  0  0  0  0  0  0  0
    0.4730   63.0610   73.1430 C   0  0  0  0  0  0  0  0  0  0  0  0
    1.7970   62.5240   72.6720 C   0  0  0  0  0  0  0  0  0  0  0  0
    2.4450   63.1210   71.5800 C   0  0  0  0  0  0  0  0  0  0  0  0
    1.9250   64.1900   70.8950 O   0  0  0  0  0  0  0  0  0  0  0  0
    3.7020   62.6590   71.1330 C   0  0  0  0  0  0  0  0  0  0  0  0
    4.3740   63.3390   69.9630 C   0  0  0  0  0  0  0  0  0  0  0  0
    4.3410   61.6020   71.8210 C   0  0  0  0  0  0  0  0  0  0  0  0
    3.6440   60.9630   72.8610 C   0  0  0  0  0  0  0  0  0  0  0  0
    2.3790   61.3990   73.2930 C   0  0  0  0  0  0  0  0  0  0  0  0
    1.6940   60.7040   74.4430 C   0  0  0  0  0  0  0  0  0  0  0  0
    5.7250   61.1510   71.4280 C   0  0  0  0  0  0  0  0  0  0  0  0
    4.1810   59.8780   73.5060 O   0  0  0  0  0  0  0  0  0  0  0  0
    1.2190   66.4780   69.3770 C   0  0  0  0  0  0  0  0  0  0  0  0
    0.4360   67.3490   68.3920 C   0  0  0  0  0  0  0  0  0  0  0  0
    1.5630   69.5950   68.0030 C   0  0  0  0  0  0  0  0  0  0  0  0
    1.2820   68.2030   67.4230 C   0  0  2  0  0  0  0  0  0  0  0  0
    0.5840   68.3640   66.0530 C   0  0  0  0  0  0  0  0  0  0  0  0
    1.4930   68.0390   64.8610 C   0  0  0  0  0  0  0  0  0  0  0  0
    2.6110   69.0720   64.6560 C   0  0  0  0  0  0  0  0  0  0  0  0
    3.9620   68.4860   64.1890 C   0  0  2  0  0  0  0  0  0  0  0  0
    3.9160   66.9580   64.2840 C   0  0  0  0  0  0  0  0  0  0  0  0
    5.2090   69.0690   64.8850 C   0  0  0  0  0  0  0  0  0  0  0  0
    4.9810   69.7320   66.2520 C   0  0  0  0  0  0  0  0  0  0  0  0
    6.2820   70.2110   66.9080 C   0  0  0  0  0  0  0  0  0  0  0  0
    6.0520   71.0590   68.1740 C   0  0  0  0  0  0  0  0  0  0  0  0
    7.2240   70.9810   69.1530 C   0  0  0  0  0  0  0  0  0  0  0  0
    4.7650   70.6100   68.8720 C   0  0  0  0  0  0  0  0  0  0  0  0
   -0.5423   66.3458   70.5717 H   0  0  0  0  0  0  0  0  0  0  0  0
    1.0910   66.6030   71.4568 H   0  0  0  0  0  0  0  0  0  0  0  0
   -0.9754   63.0778   70.9036 H   0  0  0  0  0  0  0  0  0  0  0  0
   -0.9707   64.3434   69.6289 H   0  0  0  0  0  0  0  0  0  0  0  0
    0.2901   63.0640   69.6289 H   0  0  0  0  0  0  0  0  0  0  0  0
    0.8680   65.1708   73.1983 H   0  0  0  0  0  0  0  0  0  0  0  0
   -0.8323   64.7164   72.7773 H   0  0  0  0  0  0  0  0  0  0  0  0
    0.4621   63.0703   74.2429 H   0  0  0  0  0  0  0  0  0  0  0  0
   -0.3224   62.4116   72.7485 H   0  0  0  0  0  0  0  0  0  0  0  0
    5.1016   64.0752   70.3353 H   0  0  0  0  0  0  0  0  0  0  0  0
    4.8937   62.5871   69.3510 H   0  0  0  0  0  0  0  0  0  0  0  0
    3.6160   63.8497   69.3510 H   0  0  0  0  0  0  0  0  0  0  0  0
    2.0826   61.0982   75.3936 H   0  0  0  0  0  0  0  0  0  0  0  0
    0.6103   60.8839   74.3871 H   0  0  0  0  0  0  0  0  0  0  0  0
    1.8896   59.6230   74.3871 H   0  0  0  0  0  0  0  0  0  0  0  0
    6.3186   60.9576   72.3337 H   0  0  0  0  0  0  0  0  0  0  0  0
    5.6548   60.2293   70.8318 H   0  0  0  0  0  0  0  0  0  0  0  0
    6.2113   61.9371   70.8318 H   0  0  0  0  0  0  0  0  0  0  0  0
    3.6786   59.4380   74.2368 H   0  0  0  0  0  0  0  0  0  0  0  0
    2.1309   67.0290   69.6506 H   0  0  0  0  0  0  0  0  0  0  0  0
    1.3828   65.5305   68.8428 H   0  0  0  0  0  0  0  0  0  0  0  0
   -0.2001   66.6853   67.7880 H   0  0  0  0  0  0  0  0  0  0  0  0
   -0.1222   68.0674   69.0103 H   0  0  0  0  0  0  0  0  0  0  0  0
    1.5526   69.5434   69.1017 H   0  0  0  0  0  0  0  0  0  0  0  0
    2.5494   69.9422   67.6616 H   0  0  0  0  0  0  0  0  0  0  0  0
    0.7886   70.2976   67.6616 H   0  0  0  0  0  0  0  0  0  0  0  0
    2.2333   67.6686   67.2837 H   0  0  0  0  0  0  0  0  0  0  0  0
   -0.2840   67.6890   66.0231 H   0  0  0  0  0  0  0  0  0  0  0  0
    0.2941   69.4210   65.9599 H   0  0  0  0  0  0  0  0  0  0  0  0
    1.9531   67.0542   65.0300 H   0  0  0  0  0  0  0  0  0  0  0  0
    0.8657   68.0512   63.9575 H   0  0  0  0  0  0  0  0  0  0  0  0
    2.2729   69.7956   63.8996 H   0  0  0  0  0  0  0  0  0  0  0  0
    2.7959   69.5253   65.6411 H   0  0  0  0  0  0  0  0  0  0  0  0
    4.0856   68.7950   63.1405 H   0  0  0  0  0  0  0  0  0  0  0  0
    3.9069   66.6565   65.3418 H   0  0  0  0  0  0  0  0  0  0  0  0
    3.0063   66.5871   63.7892 H   0  0  0  0  0  0  0  0  0  0  0  0
    4.8018   66.5330   63.7892 H   0  0  0  0  0  0  0  0  0  0  0  0
    5.9275   68.2483   65.0268 H   0  0  0  0  0  0  0  0  0  0  0  0
    5.5623   69.8748   64.2247 H   0  0  0  0  0  0  0  0  0  0  0  0
    4.3172   70.5984   66.1154 H   0  0  0  0  0  0  0  0  0  0  0  0
    4.5361   68.9757   66.9153 H   0  0  0  0  0  0  0  0  0  0  0  0
    6.8794   69.3292   67.1826 H   0  0  0  0  0  0  0  0  0  0  0  0
    6.7980   70.8511   66.1773 H   0  0  0  0  0  0  0  0  0  0  0  0
    5.9637   72.1072   67.8523 H   0  0  0  0  0  0  0  0  0  0  0  0
    6.8425   71.0064   70.1844 H   0  0  0  0  0  0  0  0  0  0  0  0
    7.7767   70.0441   68.9894 H   0  0  0  0  0  0  0  0  0  0  0  0
    7.8959   71.8364   68.9894 H   0  0  0  0  0  0  0  0  0  0  0  0
    4.9032   70.6582   69.9622 H   0  0  0  0  0  0  0  0  0  0  0  0
    3.9378   71.2727   68.5776 H   0  0  0  0  0  0  0  0  0  0  0  0
    4.5295   69.5766   68.5776 H   0  0  0  0  0  0  0  0  0  0  0  0
  2  1  1  6
  3  2  1  0
  4  2  1  0
  5  4  1  0
  6  5  1  0
  7  6  2  0
  8  7  1  0
  8  2  1  0
  9  7  1  0
 10  9  1  0
 11  9  2  0
 12 11  1  0
 13 12  2  0
 13  6  1  0
 14 13  1  0
 15 11  1  0
 16 12  1  0
 17  1  1  0
 18 17  1  0
 20 19  1  0
 20 18  1  0
 21 20  1  0
 22 21  1  0
 23 22  1  0
 24 23  1  0
 25 24  1  0
 26 24  1  0
 27 26  1  0
 28 27  1  0
 29 28  1  0
 30 29  1  0
 31 29  1  0
  1 32  1  0
  1 33  1  0
  3 34  1  0
  3 35  1  0
  3 36  1  0
  4 37  1  0
  4 38  1  0
  5 39  1  0
  5 40  1  0
 10 41  1  0
 10 42  1  0
 10 43  1  0
 14 44  1  0
 14 45  1  0
 14 46  1  0
 15 47  1  0
 15 48  1  0
 15 49  1  0
 16 50  1  0
 17 51  1  0
 17 52  1  0
 18 53  1  0
 18 54  1  0
 19 55  1  0
 19 56  1  0
 19 57  1  0
 20 58  1  6
 21 59  1  0
 21 60  1  0
 22 61  1  0
 22 62  1  0
 23 63  1  0
 23 64  1  0
 24 65  1  6
 25 66  1  0
 25 67  1  0
 25 68  1  0
 26 69  1  0
 26 70  1  0
 27 71  1  0
 27 72  1  0
 28 73  1  0
 28 74  1  0
 29 75  1  0
 30 76  1  0
 30 77  1  0
 30 78  1  0
 31 79  1  0
 31 80  1  0
 31 81  1  0
M  END
>  <score>  (3) 
-9.513

$$$$
=
     RDKit          3D

 81 82  0  0  0  0  0  0  0  0999 V2000
    3.4680   63.4610   68.6250 C   0  0  0  0  0  0  0  0  0  0  0  0
    3.5740   62.4860   69.8320 C   0  0  2  0  0  0  0  0  0  0  0  0
    4.6200   62.9710   70.8500 C   0  0  0  0  0  0  0  0  0  0  0  0
    3.8250   61.0520   69.3580 C   0  0  0  0  0  0  0  0  0  0  0  0
    3.7220   60.0650   70.5080 C   0  0  0  0  0  0  0  0  0  0  0  0
    2.5000   60.3230   71.3480 C   0  0  0  0  0  0  0  0  0  0  0  0
    1.8520   61.5650   71.2780 C   0  0  0  0  0  0  0  0  0  0  0  0
    2.2820   62.5880   70.4710 O   0  0  0  0  0  0  0  0  0  0  0  0
    0.6860   61.8260   72.0300 C   0  0  0  0  0  0  0  0  0  0  0  0
    0.0100   63.1720   71.9150 C   0  0  0  0  0  0  0  0  0  0  0  0
    0.1370   60.8070   72.8400 C   0  0  0  0  0  0  0  0  0  0  0  0
    0.8420   59.5960   72.9620 C   0  0  0  0  0  0  0  0  0  0  0  0
    2.0180   59.3390   72.2370 C   0  0  0  0  0  0  0  0  0  0  0  0
    2.7110   58.0060   72.3720 C   0  0  0  0  0  0  0  0  0  0  0  0
   -1.1580   61.0230   73.5800 C   0  0  0  0  0  0  0  0  0  0  0  0
    0.3980   58.6050   73.8000 O   0  0  0  0  0  0  0  0  0  0  0  0
    3.7470   62.9420   67.2080 C   0  0  0  0  0  0  0  0  0  0  0  0
    4.3400   63.9260   66.1960 C   0  0  0  0  0  0  0  0  0  0  0  0
    4.7160   63.3080   63.7590 C   0  0  0  0  0  0  0  0  0  0  0  0
    3.7300   63.8900   64.7790 C   0  0  2  0  0  0  0  0  0  0  0  0
    3.2990   65.2990   64.3110 C   0  0  0  0  0  0  0  0  0  0  0  0
    4.4780   66.2080   63.9400 C   0  0  0  0  0  0  0  0  0  0  0  0
    4.0750   67.6810   63.7780 C   0  0  0  0  0  0  0  0  0  0  0  0
    3.1520   68.2300   64.8890 C   0  0  2  0  0  0  0  0  0  0  0  0
    1.8600   68.7620   64.2610 C   0  0  0  0  0  0  0  0  0  0  0  0
    3.8010   69.2610   65.8340 C   0  0  0  0  0  0  0  0  0  0  0  0
    5.3320   69.3690   65.7820 C   0  0  0  0  0  0  0  0  0  0  0  0
    5.8760   70.5580   66.5840 C   0  0  0  0  0  0  0  0  0  0  0  0
    5.8790   70.3190   68.1060 C   0  0  0  0  0  0  0  0  0  0  0  0
    4.6600   70.9320   68.7970 C   0  0  0  0  0  0  0  0  0  0  0  0
    7.1610   70.8870   68.7180 C   0  0  0  0  0  0  0  0  0  0  0  0
    2.4424   63.8587   68.6240 H   0  0  0  0  0  0  0  0  0  0  0  0
    4.2813   64.1803   68.8016 H   0  0  0  0  0  0  0  0  0  0  0  0
    4.2466   62.7979   71.8701 H   0  0  0  0  0  0  0  0  0  0  0  0
    5.5585   62.4162   70.7040 H   0  0  0  0  0  0  0  0  0  0  0  0
    4.8029   64.0458   70.7040 H   0  0  0  0  0  0  0  0  0  0  0  0
    3.0780   60.7912   68.5939 H   0  0  0  0  0  0  0  0  0  0  0  0
    4.8420   60.9965   68.9426 H   0  0  0  0  0  0  0  0  0  0  0  0
    3.6664   59.0450   70.0999 H   0  0  0  0  0  0  0  0  0  0  0  0
    4.6106   60.1836   71.1455 H   0  0  0  0  0  0  0  0  0  0  0  0
   -0.1895   63.5693   72.9212 H   0  0  0  0  0  0  0  0  0  0  0  0
    0.6662   63.8665   71.3700 H   0  0  0  0  0  0  0  0  0  0  0  0
   -0.9390   63.0603   71.3700 H   0  0  0  0  0  0  0  0  0  0  0  0
    2.8366   57.7643   73.4377 H   0  0  0  0  0  0  0  0  0  0  0  0
    2.1040   57.2265   71.8884 H   0  0  0  0  0  0  0  0  0  0  0  0
    3.6977   58.0551   71.8884 H   0  0  0  0  0  0  0  0  0  0  0  0
   -0.9708   60.9918   74.6635 H   0  0  0  0  0  0  0  0  0  0  0  0
   -1.5765   62.0033   73.3083 H   0  0  0  0  0  0  0  0  0  0  0  0
   -1.8720   60.2315   73.3083 H   0  0  0  0  0  0  0  0  0  0  0  0
    0.9041   57.7575   73.8762 H   0  0  0  0  0  0  0  0  0  0  0  0
    4.4490   62.1000   67.2984 H   0  0  0  0  0  0  0  0  0  0  0  0
    2.7559   62.6889   66.8034 H   0  0  0  0  0  0  0  0  0  0  0  0
    4.2039   64.9419   66.5951 H   0  0  0  0  0  0  0  0  0  0  0  0
    5.3915   63.6272   66.0735 H   0  0  0  0  0  0  0  0  0  0  0  0
    5.5459   62.8182   64.2895 H   0  0  0  0  0  0  0  0  0  0  0  0
    4.1982   62.5707   63.1279 H   0  0  0  0  0  0  0  0  0  0  0  0
    5.1113   64.1176   63.1279 H   0  0  0  0  0  0  0  0  0  0  0  0
    2.8432   63.2418   64.8370 H   0  0  0  0  0  0  0  0  0  0  0  0
    2.6522   65.1899   63.4280 H   0  0  0  0  0  0  0  0  0  0  0  0
    2.7769   65.7744   65.1544 H   0  0  0  0  0  0  0  0  0  0  0  0
    5.2372   66.1379   64.7329 H   0  0  0  0  0  0  0  0  0  0  0  0
    4.8640   65.8647   62.9688 H   0  0  0  0  0  0  0  0  0  0  0  0
    4.9930   68.2869   63.7663 H   0  0  0  0  0  0  0  0  0  0  0  0
    3.5004   67.7420   62.8420 H   0  0  0  0  0  0  0  0  0  0  0  0
    2.9274   67.3814   65.5518 H   0  0  0  0  0  0  0  0  0  0  0  0
    1.1576   69.0512   65.0566 H   0  0  0  0  0  0  0  0  0  0  0  0
    2.0893   69.6389   63.6377 H   0  0  0  0  0  0  0  0  0  0  0  0
    1.4053   67.9779   63.6377 H   0  0  0  0  0  0  0  0  0  0  0  0
    3.3875   70.2494   65.5850 H   0  0  0  0  0  0  0  0  0  0  0  0
    3.5680   68.9115   66.8506 H   0  0  0  0  0  0  0  0  0  0  0  0
    5.7629   68.4434   66.1914 H   0  0  0  0  0  0  0  0  0  0  0  0
    5.6157   69.5237   64.7305 H   0  0  0  0  0  0  0  0  0  0  0  0
    6.9087   70.7541   66.2598 H   0  0  0  0  0  0  0  0  0  0  0  0
    5.2103   71.4121   66.3906 H   0  0  0  0  0  0  0  0  0  0  0  0
    5.8333   69.2316   68.2656 H   0  0  0  0  0  0  0  0  0  0  0  0
    4.7864   70.8685   69.8879 H   0  0  0  0  0  0  0  0  0  0  0  0
    4.5620   71.9866   68.5001 H   0  0  0  0  0  0  0  0  0  0  0  0
    3.7550   70.3818   68.5001 H   0  0  0  0  0  0  0  0  0  0  0  0
    7.0889   70.8551   69.8152 H   0  0  0  0  0  0  0  0  0  0  0  0
    8.0217   70.2860   68.3894 H   0  0  0  0  0  0  0  0  0  0  0  0
    7.2941   71.9283   68.3894 H   0  0  0  0  0  0  0  0  0  0  0  0
  2  1  1  6
  3  2  1  0
  4  2  1  0
  5  4  1  0
  6  5  1  0
  7  6  2  0
  8  7  1  0
  8  2  1  0
  9  7  1  0
 10  9  1  0
 11  9  2  0
 12 11  1  0
 13 12  2  0
 13  6  1  0
 14 13  1  0
 15 11  1  0
 16 12  1  0
 17  1  1  0
 18 17  1  0
 20 19  1  0
 20 18  1  0
 21 20  1  0
 22 21  1  0
 23 22  1  0
 24 23  1  0
 25 24  1  0
 26 24  1  0
 27 26  1  0
 28 27  1  0
 29 28  1  0
 30 29  1  0
 31 29  1  0
  1 32  1  0
  1 33  1  0
  3 34  1  0
  3 35  1  0
  3 36  1  0
  4 37  1  0
  4 38  1  0
  5 39  1  0
  5 40  1  0
 10 41  1  0
 10 42  1  0
 10 43  1  0
 14 44  1  0
 14 45  1  0
 14 46  1  0
 15 47  1  0
 15 48  1  0
 15 49  1  0
 16 50  1  0
 17 51  1  0
 17 52  1  0
 18 53  1  0
 18 54  1  0
 19 55  1  0
 19 56  1  0
 19 57  1  0
 20 58  1  1
 21 59  1  0
 21 60  1  0
 22 61  1  0
 22 62  1  0
 23 63  1  0
 23 64  1  0
 24 65  1  1
 25 66  1  0
 25 67  1  0
 25 68  1  0
 26 69  1  0
 26 70  1  0
 27 71  1  0
 27 72  1  0
 28 73  1  0
 28 74  1  0
 29 75  1  0
 30 76  1  0
 30 77  1  0
 30 78  1  0
 31 79  1  0
 31 80  1  0
 31 81  1  0
M  END
>  <score>  (4) 
-8.866

$$$$
=
     RDKit          3D

 81 82  0  0  0  0  0  0  0  0999 V2000
    0.3230   65.5640   71.3470 C   0  0  0  0  0  0  0  0  0  0  0  0
    0.4340   64.0140   71.2770 C   0  0  2  0  0  0  0  0  0  0  0  0
   -0.2330   63.4640   70.0050 C   0  0  0  0  0  0  0  0  0  0  0  0
   -0.1020   63.3680   72.5570 C   0  0  0  0  0  0  0  0  0  0  0  0
    0.1920   61.8780   72.5880 C   0  0  0  0  0  0  0  0  0  0  0  0
    1.6170   61.5890   72.2000 C   0  0  0  0  0  0  0  0  0  0  0  0
    2.3630   62.5540   71.5070 C   0  0  0  0  0  0  0  0  0  0  0  0
    1.8530   63.7770   71.1480 O   0  0  0  0  0  0  0  0  0  0  0  0
    3.7120   62.3250   71.1570 C   0  0  0  0  0  0  0  0  0  0  0  0
    4.4850   63.3960   70.4240 C   0  0  0  0  0  0  0  0  0  0  0  0
    4.3360   61.1180   71.5430 C   0  0  0  0  0  0  0  0  0  0  0  0
    3.5540   60.1290   72.1660 C   0  0  0  0  0  0  0  0  0  0  0  0
    2.2030   60.3390   72.4930 C   0  0  0  0  0  0  0  0  0  0  0  0
    1.4220   59.2600   73.2000 C   0  0  0  0  0  0  0  0  0  0  0  0
    5.8000   60.8840   71.2680 C   0  0  0  0  0  0  0  0  0  0  0  0
    4.0880   58.9070   72.4860 O   0  0  0  0  0  0  0  0  0  0  0  0
    0.9190   66.4150   70.2170 C   0  0  0  0  0  0  0  0  0  0  0  0
    0.0910   66.5770   68.9400 C   0  0  0  0  0  0  0  0  0  0  0  0
   -0.5520   67.9320   66.8870 C   0  0  0  0  0  0  0  0  0  0  0  0
    0.3920   67.8310   68.0910 C   0  0  2  0  0  0  0  0  0  0  0  0
    1.8520   67.8350   67.5840 C   0  0  0  0  0  0  0  0  0  0  0  0
    2.3890   69.2380   67.2750 C   0  0  0  0  0  0  0  0  0  0  0  0
    3.0620   69.3350   65.8980 C   0  0  0  0  0  0  0  0  0  0  0  0
    4.5700   69.0020   65.8840 C   0  0  2  0  0  0  0  0  0  0  0  0
    5.3500   70.1390   66.5510 C   0  0  0  0  0  0  0  0  0  0  0  0
    5.1520   68.6370   64.5020 C   0  0  0  0  0  0  0  0  0  0  0  0
    4.1350   68.3350   63.3910 C   0  0  0  0  0  0  0  0  0  0  0  0
    4.1140   66.8570   62.9860 C   0  0  0  0  0  0  0  0  0  0  0  0
    4.0100   65.8960   64.1860 C   0  0  0  0  0  0  0  0  0  0  0  0
    4.5520   64.5020   63.8700 C   0  0  0  0  0  0  0  0  0  0  0  0
    2.5530   65.7920   64.6430 C   0  0  0  0  0  0  0  0  0  0  0  0
   -0.7487   65.8062   71.3992 H   0  0  0  0  0  0  0  0  0  0  0  0
    0.9362   65.8283   72.2212 H   0  0  0  0  0  0  0  0  0  0  0  0
   -1.0538   62.7872   70.2847 H   0  0  0  0  0  0  0  0  0  0  0  0
   -0.6325   64.2987   69.4103 H   0  0  0  0  0  0  0  0  0  0  0  0
    0.5103   62.9128   69.4103 H   0  0  0  0  0  0  0  0  0  0  0  0
    0.3744   63.8454   73.4260 H   0  0  0  0  0  0  0  0  0  0  0  0
   -1.1928   63.5074   72.5859 H   0  0  0  0  0  0  0  0  0  0  0  0
    0.0149   61.4998   73.6056 H   0  0  0  0  0  0  0  0  0  0  0  0
   -0.4705   61.3803   71.8645 H   0  0  0  0  0  0  0  0  0  0  0  0
    4.9671   64.0640   71.1529 H   0  0  0  0  0  0  0  0  0  0  0  0
    5.2536   62.9263   69.7927 H   0  0  0  0  0  0  0  0  0  0  0  0
    3.7971   63.9776   69.7927 H   0  0  0  0  0  0  0  0  0  0  0  0
    1.5172   59.3915   74.2880 H   0  0  0  0  0  0  0  0  0  0  0  0
    0.3620   59.3273   72.9139 H   0  0  0  0  0  0  0  0  0  0  0  0
    1.8171   58.2741   72.9139 H   0  0  0  0  0  0  0  0  0  0  0  0
    6.3428   60.7972   72.2208 H   0  0  0  0  0  0  0  0  0  0  0  0
    5.9209   59.9551   70.6913 H   0  0  0  0  0  0  0  0  0  0  0  0
    6.2044   61.7289   70.6913 H   0  0  0  0  0  0  0  0  0  0  0  0
    3.5254   58.2204   72.9244 H   0  0  0  0  0  0  0  0  0  0  0  0
    1.0987   67.4216   70.6227 H   0  0  0  0  0  0  0  0  0  0  0  0
    1.8184   65.8672   69.8992 H   0  0  0  0  0  0  0  0  0  0  0  0
    0.2689   65.6934   68.3095 H   0  0  0  0  0  0  0  0  0  0  0  0
   -0.9507   66.6895   69.2750 H   0  0  0  0  0  0  0  0  0  0  0  0
   -1.5875   68.0428   67.2412 H   0  0  0  0  0  0  0  0  0  0  0  0
   -0.2773   68.8059   66.2780 H   0  0  0  0  0  0  0  0  0  0  0  0
   -0.4684   67.0198   66.2780 H   0  0  0  0  0  0  0  0  0  0  0  0
    0.2356   68.6989   68.7485 H   0  0  0  0  0  0  0  0  0  0  0  0
    2.4899   67.3804   68.3563 H   0  0  0  0  0  0  0  0  0  0  0  0
    1.8686   67.2677   66.6417 H   0  0  0  0  0  0  0  0  0  0  0  0
    1.5500   69.9487   67.3056 H   0  0  0  0  0  0  0  0  0  0  0  0
    3.1533   69.4708   68.0311 H   0  0  0  0  0  0  0  0  0  0  0  0
    2.5518   68.6361   65.2188 H   0  0  0  0  0  0  0  0  0  0  0  0
    2.9764   70.3867   65.5872 H   0  0  0  0  0  0  0  0  0  0  0  0
    4.6858   68.0744   66.4638 H   0  0  0  0  0  0  0  0  0  0  0  0
    5.2812   70.0388   67.6443 H   0  0  0  0  0  0  0  0  0  0  0  0
    6.4051   70.0893   66.2439 H   0  0  0  0  0  0  0  0  0  0  0  0
    4.9238   71.1055   66.2439 H   0  0  0  0  0  0  0  0  0  0  0  0
    5.7731   69.4808   64.1669 H   0  0  0  0  0  0  0  0  0  0  0  0
    5.7041   67.6981   64.6560 H   0  0  0  0  0  0  0  0  0  0  0  0
    3.1327   68.6154   63.7472 H   0  0  0  0  0  0  0  0  0  0  0  0
    4.4324   68.9154   62.5052 H   0  0  0  0  0  0  0  0  0  0  0  0
    3.2491   66.6879   62.3277 H   0  0  0  0  0  0  0  0  0  0  0  0
    5.0680   66.6447   62.4812 H   0  0  0  0  0  0  0  0  0  0  0  0
    4.6316   66.3138   64.9917 H   0  0  0  0  0  0  0  0  0  0  0  0
    4.7597   63.9678   64.8089 H   0  0  0  0  0  0  0  0  0  0  0  0
    3.8061   63.9421   63.2869 H   0  0  0  0  0  0  0  0  0  0  0  0
    5.4803   64.5930   63.2869 H   0  0  0  0  0  0  0  0  0  0  0  0
    2.5128   65.7891   65.7423 H   0  0  0  0  0  0  0  0  0  0  0  0
    1.9856   66.6519   64.2576 H   0  0  0  0  0  0  0  0  0  0  0  0
    2.1135   64.8602   64.2576 H   0  0  0  0  0  0  0  0  0  0  0  0
  2  1  1  1
  3  2  1  0
  4  2  1  0
  5  4  1  0
  6  5  1  0
  7  6  2  0
  8  7  1  0
  8  2  1  0
  9  7  1  0
 10  9  1  0
 11  9  2  0
 12 11  1  0
 13 12  2  0
 13  6  1  0
 14 13  1  0
 15 11  1  0
 16 12  1  0
 17  1  1  0
 18 17  1  0
 20 19  1  0
 20 18  1  0
 21 20  1  0
 22 21  1  0
 23 22  1  0
 24 23  1  0
 25 24  1  0
 26 24  1  0
 27 26  1  0
 28 27  1  0
 29 28  1  0
 30 29  1  0
 31 29  1  0
  1 32  1  0
  1 33  1  0
  3 34  1  0
  3 35  1  0
  3 36  1  0
  4 37  1  0
  4 38  1  0
  5 39  1  0
  5 40  1  0
 10 41  1  0
 10 42  1  0
 10 43  1  0
 14 44  1  0
 14 45  1  0
 14 46  1  0
 15 47  1  0
 15 48  1  0
 15 49  1  0
 16 50  1  0
 17 51  1  0
 17 52  1  0
 18 53  1  0
 18 54  1  0
 19 55  1  0
 19 56  1  0
 19 57  1  0
 20 58  1  1
 21 59  1  0
 21 60  1  0
 22 61  1  0
 22 62  1  0
 23 63  1  0
 23 64  1  0
 24 65  1  1
 25 66  1  0
 25 67  1  0
 25 68  1  0
 26 69  1  0
 26 70  1  0
 27 71  1  0
 27 72  1  0
 28 73  1  0
 28 74  1  0
 29 75  1  0
 30 76  1  0
 30 77  1  0
 30 78  1  0
 31 79  1  0
 31 80  1  0
 31 81  1  0
M  END
>  <score>  (5) 
-8.863

$$$$
=
     RDKit          3D

 81 82  0  0  0  0  0  0  0  0999 V2000
    1.4720   67.4880   68.7200 C   0  0  0  0  0  0  0  0  0  0  0  0
    1.0750   68.2860   67.4450 C   0  0  2  0  0  0  0  0  0  0  0  0
    0.7540   69.7510   67.7820 C   0  0  0  0  0  0  0  0  0  0  0  0
   -0.0600   67.5860   66.6930 C   0  0  0  0  0  0  0  0  0  0  0  0
   -0.3130   68.2400   65.3440 C   0  0  0  0  0  0  0  0  0  0  0  0
    0.9730   68.4880   64.6030 C   0  0  0  0  0  0  0  0  0  0  0  0
    2.1910   68.4950   65.2970 C   0  0  0  0  0  0  0  0  0  0  0  0
    2.2810   68.2880   66.6510 O   0  0  0  0  0  0  0  0  0  0  0  0
    3.4170   68.6940   64.6250 C   0  0  0  0  0  0  0  0  0  0  0  0
    4.7090   68.6790   65.4070 C   0  0  0  0  0  0  0  0  0  0  0  0
    3.4230   68.8520   63.2200 C   0  0  0  0  0  0  0  0  0  0  0  0
    2.1890   68.9230   62.5500 C   0  0  0  0  0  0  0  0  0  0  0  0
    0.9630   68.7530   63.2160 C   0  0  0  0  0  0  0  0  0  0  0  0
   -0.3290   68.7960   62.4420 C   0  0  0  0  0  0  0  0  0  0  0  0
    4.7210   68.9710   62.4630 C   0  0  0  0  0  0  0  0  0  0  0  0
    2.1350   69.1600   61.1990 O   0  0  0  0  0  0  0  0  0  0  0  0
    0.3750   66.8490   69.5840 C   0  0  0  0  0  0  0  0  0  0  0  0
    0.2910   65.3210   69.6050 C   0  0  0  0  0  0  0  0  0  0  0  0
    2.5640   64.6720   70.5400 C   0  0  0  0  0  0  0  0  0  0  0  0
    1.0460   64.6170   70.7520 C   0  0  2  0  0  0  0  0  0  0  0  0
    0.6140   63.1400   70.8920 C   0  0  0  0  0  0  0  0  0  0  0  0
   -0.1220   62.8380   72.2040 C   0  0  0  0  0  0  0  0  0  0  0  0
    0.7240   62.0280   73.1970 C   0  0  0  0  0  0  0  0  0  0  0  0
    1.7470   61.0670   72.5510 C   0  0  2  0  0  0  0  0  0  0  0  0
    1.2950   59.6210   72.7690 C   0  0  0  0  0  0  0  0  0  0  0  0
    3.2130   61.2830   72.9760 C   0  0  0  0  0  0  0  0  0  0  0  0
    4.1440   61.9100   71.9270 C   0  0  0  0  0  0  0  0  0  0  0  0
    4.9690   60.8680   71.1610 C   0  0  0  0  0  0  0  0  0  0  0  0
    4.3800   60.5160   69.7820 C   0  0  0  0  0  0  0  0  0  0  0  0
    3.5220   61.6440   69.2060 C   0  0  0  0  0  0  0  0  0  0  0  0
    3.5480   59.2350   69.8850 C   0  0  0  0  0  0  0  0  0  0  0  0
    2.1371   66.6747   68.3943 H   0  0  0  0  0  0  0  0  0  0  0  0
    1.9069   68.2538   69.3792 H   0  0  0  0  0  0  0  0  0  0  0  0
    0.7261   69.8784   68.8742 H   0  0  0  0  0  0  0  0  0  0  0  0
    1.5304   70.4037   67.3565 H   0  0  0  0  0  0  0  0  0  0  0  0
   -0.2242   70.0193   67.3565 H   0  0  0  0  0  0  0  0  0  0  0  0
    0.2112   66.5317   66.5351 H   0  0  0  0  0  0  0  0  0  0  0  0
   -0.9770   67.6653   67.2953 H   0  0  0  0  0  0  0  0  0  0  0  0
   -0.9520   67.5788   64.7402 H   0  0  0  0  0  0  0  0  0  0  0  0
   -0.8051   69.2086   65.5162 H   0  0  0  0  0  0  0  0  0  0  0  0
    4.4857   68.6816   66.4841 H   0  0  0  0  0  0  0  0  0  0  0  0
    5.2807   67.7742   65.1532 H   0  0  0  0  0  0  0  0  0  0  0  0
    5.3016   69.5703   65.1532 H   0  0  0  0  0  0  0  0  0  0  0  0
   -1.1759   68.8242   63.1434 H   0  0  0  0  0  0  0  0  0  0  0  0
   -0.3473   69.6953   61.8087 H   0  0  0  0  0  0  0  0  0  0  0  0
   -0.4071   67.9000   61.8087 H   0  0  0  0  0  0  0  0  0  0  0  0
    5.5554   69.0475   63.1757 H   0  0  0  0  0  0  0  0  0  0  0  0
    4.8594   68.0818   61.8304 H   0  0  0  0  0  0  0  0  0  0  0  0
    4.6954   69.8706   61.8304 H   0  0  0  0  0  0  0  0  0  0  0  0
    1.2594   69.2076   60.7394 H   0  0  0  0  0  0  0  0  0  0  0  0
    0.5343   67.1843   70.6195 H   0  0  0  0  0  0  0  0  0  0  0  0
   -0.5692   67.1748   69.1233 H   0  0  0  0  0  0  0  0  0  0  0  0
   -0.7707   65.0435   69.6809 H   0  0  0  0  0  0  0  0  0  0  0  0
    0.7794   64.9847   68.6785 H   0  0  0  0  0  0  0  0  0  0  0  0
    3.0702   64.6903   71.5165 H   0  0  0  0  0  0  0  0  0  0  0  0
    2.8878   63.7850   69.9757 H   0  0  0  0  0  0  0  0  0  0  0  0
    2.8228   65.5801   69.9757 H   0  0  0  0  0  0  0  0  0  0  0  0
    0.7883   65.1579   71.6745 H   0  0  0  0  0  0  0  0  0  0  0  0
   -0.0534   62.8917   70.0536 H   0  0  0  0  0  0  0  0  0  0  0  0
    1.5316   62.5334   70.8894 H   0  0  0  0  0  0  0  0  0  0  0  0
   -0.3996   63.7915   72.6771 H   0  0  0  0  0  0  0  0  0  0  0  0
   -1.0039   62.2304   71.9528 H   0  0  0  0  0  0  0  0  0  0  0  0
    1.2754   62.7364   73.8327 H   0  0  0  0  0  0  0  0  0  0  0  0
    0.0193   61.3958   73.7571 H   0  0  0  0  0  0  0  0  0  0  0  0
    1.7552   61.3017   71.4764 H   0  0  0  0  0  0  0  0  0  0  0  0
    1.2308   59.4156   73.8477 H   0  0  0  0  0  0  0  0  0  0  0  0
    0.3074   59.4721   72.3080 H   0  0  0  0  0  0  0  0  0  0  0  0
    2.0219   58.9361   72.3080 H   0  0  0  0  0  0  0  0  0  0  0  0
    3.2122   61.9403   73.8580 H   0  0  0  0  0  0  0  0  0  0  0  0
    3.6154   60.2756   73.1583 H   0  0  0  0  0  0  0  0  0  0  0  0
    3.5321   62.4720   71.2061 H   0  0  0  0  0  0  0  0  0  0  0  0
    4.8506   62.5623   72.4611 H   0  0  0  0  0  0  0  0  0  0  0  0
    5.9844   61.2653   71.0155 H   0  0  0  0  0  0  0  0  0  0  0  0
    4.9658   59.9459   71.7608 H   0  0  0  0  0  0  0  0  0  0  0  0
    5.2259   60.3647   69.0953 H   0  0  0  0  0  0  0  0  0  0  0  0
    3.0800   62.2251   70.0287 H   0  0  0  0  0  0  0  0  0  0  0  0
    4.1494   62.3027   68.5876 H   0  0  0  0  0  0  0  0  0  0  0  0
    2.7197   61.2152   68.5876 H   0  0  0  0  0  0  0  0  0  0  0  0
    3.3867   58.9867   70.9444 H   0  0  0  0  0  0  0  0  0  0  0  0
    2.5765   59.3881   69.3923 H   0  0  0  0  0  0  0  0  0  0  0  0
    4.0829   58.4097   69.3923 H   0  0  0  0  0  0  0  0  0  0  0  0
  2  1  1  1
  3  2  1  0
  4  2  1  0
  5  4  1  0
  6  5  1  0
  7  6  2  0
  8  7  1  0
  8  2  1  0
  9  7  1  0
 10  9  1  0
 11  9  2  0
 12 11  1  0
 13 12  2  0
 13  6  1  0
 14 13  1  0
 15 11  1  0
 16 12  1  0
 17  1  1  0
 18 17  1  0
 20 19  1  0
 20 18  1  0
 21 20  1  0
 22 21  1  0
 23 22  1  0
 24 23  1  0
 25 24  1  0
 26 24  1  0
 27 26  1  0
 28 27  1  0
 29 28  1  0
 30 29  1  0
 31 29  1  0
  1 32  1  0
  1 33  1  0
  3 34  1  0
  3 35  1  0
  3 36  1  0
  4 37  1  0
  4 38  1  0
  5 39  1  0
  5 40  1  0
 10 41  1  0
 10 42  1  0
 10 43  1  0
 14 44  1  0
 14 45  1  0
 14 46  1  0
 15 47  1  0
 15 48  1  0
 15 49  1  0
 16 50  1  0
 17 51  1  0
 17 52  1  0
 18 53  1  0
 18 54  1  0
 19 55  1  0
 19 56  1  0
 19 57  1  0
 20 58  1  1
 21 59  1  0
 21 60  1  0
 22 61  1  0
 22 62  1  0
 23 63  1  0
 23 64  1  0
 24 65  1  6
 25 66  1  0
 25 67  1  0
 25 68  1  0
 26 69  1  0
 26 70  1  0
 27 71  1  0
 27 72  1  0
 28 73  1  0
 28 74  1  0
 29 75  1  0
 30 76  1  0
 30 77  1  0
 30 78  1  0
 31 79  1  0
 31 80  1  0
 31 81  1  0
M  END
>  <score>  (6) 
-8.838

$$$$
=
     RDKit          3D

 81 82  0  0  0  0  0  0  0  0999 V2000
    3.9730   62.3940   69.7660 C   0  0  0  0  0  0  0  0  0  0  0  0
    3.9460   61.1520   70.7020 C   0  0  2  0  0  0  0  0  0  0  0  0
    5.3230   60.9030   71.3390 C   0  0  0  0  0  0  0  0  0  0  0  0
    3.4000   59.9240   69.9670 C   0  0  0  0  0  0  0  0  0  0  0  0
    3.1730   58.7650   70.9230 C   0  0  0  0  0  0  0  0  0  0  0  0
    2.4600   59.2110   72.1700 C   0  0  0  0  0  0  0  0  0  0  0  0
    2.4380   60.5700   72.5160 C   0  0  0  0  0  0  0  0  0  0  0  0
    3.0500   61.5420   71.7660 O   0  0  0  0  0  0  0  0  0  0  0  0
    1.7510   61.0230   73.6640 C   0  0  0  0  0  0  0  0  0  0  0  0
    1.7390   62.4970   73.9930 C   0  0  0  0  0  0  0  0  0  0  0  0
    1.0390   60.0970   74.4600 C   0  0  0  0  0  0  0  0  0  0  0  0
    1.1370   58.7300   74.1460 C   0  0  0  0  0  0  0  0  0  0  0  0
    1.8420   58.2690   73.0210 C   0  0  0  0  0  0  0  0  0  0  0  0
    1.8790   56.7950   72.7050 C   0  0  0  0  0  0  0  0  0  0  0  0
    0.2180   60.5620   75.6350 C   0  0  0  0  0  0  0  0  0  0  0  0
    0.5350   57.7820   74.9340 O   0  0  0  0  0  0  0  0  0  0  0  0
    3.6530   63.7800   70.3420 C   0  0  0  0  0  0  0  0  0  0  0  0
    2.4170   64.5040   69.8010 C   0  0  0  0  0  0  0  0  0  0  0  0
    0.2900   63.4430   70.7020 C   0  0  0  0  0  0  0  0  0  0  0  0
    1.2340   64.6490   70.7810 C   0  0  2  0  0  0  0  0  0  0  0  0
    0.4240   65.9360   70.5060 C   0  0  0  0  0  0  0  0  0  0  0  0
    1.0230   66.8120   69.3980 C   0  0  0  0  0  0  0  0  0  0  0  0
   -0.0080   67.2370   68.3420 C   0  0  0  0  0  0  0  0  0  0  0  0
    0.3340   68.5400   67.5850 C   0  0  2  0  0  0  0  0  0  0  0  0
   -0.2930   68.4970   66.1880 C   0  0  0  0  0  0  0  0  0  0  0  0
    1.8330   68.8970   67.5330 C   0  0  0  0  0  0  0  0  0  0  0  0
    2.6290   68.3370   66.3440 C   0  0  0  0  0  0  0  0  0  0  0  0
    3.3580   69.4250   65.5470 C   0  0  0  0  0  0  0  0  0  0  0  0
    4.8790   69.1970   65.4520 C   0  0  0  0  0  0  0  0  0  0  0  0
    5.6660   70.0790   66.4220 C   0  0  0  0  0  0  0  0  0  0  0  0
    5.3540   69.4550   64.0190 C   0  0  0  0  0  0  0  0  0  0  0  0
    4.9849   62.4508   69.3385 H   0  0  0  0  0  0  0  0  0  0  0  0
    3.1461   62.2078   69.0649 H   0  0  0  0  0  0  0  0  0  0  0  0
    5.2286   60.9201   72.4348 H   0  0  0  0  0  0  0  0  0  0  0  0
    5.7030   59.9216   71.0190 H   0  0  0  0  0  0  0  0  0  0  0  0
    6.0226   61.6892   71.0190 H   0  0  0  0  0  0  0  0  0  0  0  0
    2.4446   60.1874   69.4897 H   0  0  0  0  0  0  0  0  0  0  0  0
    4.1385   59.6133   69.2133 H   0  0  0  0  0  0  0  0  0  0  0  0
    2.5657   57.9991   70.4185 H   0  0  0  0  0  0  0  0  0  0  0  0
    4.1535   58.3590   71.2124 H   0  0  0  0  0  0  0  0  0  0  0  0
    1.7379   62.6289   75.0851 H   0  0  0  0  0  0  0  0  0  0  0  0
    2.6333   62.9751   73.5668 H   0  0  0  0  0  0  0  0  0  0  0  0
    0.8371   62.9605   73.5668 H   0  0  0  0  0  0  0  0  0  0  0  0
    1.8935   56.2193   73.6422 H   0  0  0  0  0  0  0  0  0  0  0  0
    0.9874   56.5227   72.1211 H   0  0  0  0  0  0  0  0  0  0  0  0
    2.7831   56.5678   72.1211 H   0  0  0  0  0  0  0  0  0  0  0  0
    0.7219   60.2766   76.5702 H   0  0  0  0  0  0  0  0  0  0  0  0
    0.1091   61.6559   75.5962 H   0  0  0  0  0  0  0  0  0  0  0  0
   -0.7762   60.0929   75.5962 H   0  0  0  0  0  0  0  0  0  0  0  0
    0.6122   56.8229   74.7010 H   0  0  0  0  0  0  0  0  0  0  0  0
    3.5167   63.6620   71.4271 H   0  0  0  0  0  0  0  0  0  0  0  0
    4.5015   64.4112   70.0392 H   0  0  0  0  0  0  0  0  0  0  0  0
    2.7261   65.5144   69.4949 H   0  0  0  0  0  0  0  0  0  0  0  0
    2.0440   63.8779   68.9770 H   0  0  0  0  0  0  0  0  0  0  0  0
    0.0314   63.1126   71.7188 H   0  0  0  0  0  0  0  0  0  0  0  0
   -0.6265   63.7293   70.1653 H   0  0  0  0  0  0  0  0  0  0  0  0
    0.7880   62.6221   70.1653 H   0  0  0  0  0  0  0  0  0  0  0  0
    1.6692   64.7045   71.7897 H   0  0  0  0  0  0  0  0  0  0  0  0
   -0.5957   65.6488   70.2096 H   0  0  0  0  0  0  0  0  0  0  0  0
    0.4381   66.5307   71.4313 H   0  0  0  0  0  0  0  0  0  0  0  0
    1.4465   67.7171   69.8579 H   0  0  0  0  0  0  0  0  0  0  0  0
    1.7899   66.2130   68.8850 H   0  0  0  0  0  0  0  0  0  0  0  0
   -0.0951   66.4260   67.6039 H   0  0  0  0  0  0  0  0  0  0  0  0
   -0.9435   67.4334   68.8863 H   0  0  0  0  0  0  0  0  0  0  0  0
   -0.1047   69.3615   68.1703 H   0  0  0  0  0  0  0  0  0  0  0  0
   -1.3867   68.4220   66.2791 H   0  0  0  0  0  0  0  0  0  0  0  0
   -0.0327   69.4151   65.6409 H   0  0  0  0  0  0  0  0  0  0  0  0
    0.0902   67.6230   65.6409 H   0  0  0  0  0  0  0  0  0  0  0  0
    1.9148   69.9936   67.5035 H   0  0  0  0  0  0  0  0  0  0  0  0
    2.2751   68.4304   68.4257 H   0  0  0  0  0  0  0  0  0  0  0  0
    3.3739   67.6232   66.7256 H   0  0  0  0  0  0  0  0  0  0  0  0
    1.9107   67.8557   65.6639 H   0  0  0  0  0  0  0  0  0  0  0  0
    2.9443   69.4474   64.5280 H   0  0  0  0  0  0  0  0  0  0  0  0
    3.2042   70.3757   66.0786 H   0  0  0  0  0  0  0  0  0  0  0  0
    5.0691   68.1506   65.7327 H   0  0  0  0  0  0  0  0  0  0  0  0
    5.4167   69.7996   67.4563 H   0  0  0  0  0  0  0  0  0  0  0  0
    6.7439   69.9380   66.2537 H   0  0  0  0  0  0  0  0  0  0  0  0
    5.4036   71.1339   66.2537 H   0  0  0  0  0  0  0  0  0  0  0  0
    6.3204   69.9799   64.0420 H   0  0  0  0  0  0  0  0  0  0  0  0
    5.4701   68.4960   63.4929 H   0  0  0  0  0  0  0  0  0  0  0  0
    4.6127   70.0744   63.4929 H   0  0  0  0  0  0  0  0  0  0  0  0
  2  1  1  6
  3  2  1  0
  4  2  1  0
  5  4  1  0
  6  5  1  0
  7  6  2  0
  8  7  1  0
  8  2  1  0
  9  7  1  0
 10  9  1  0
 11  9  2  0
 12 11  1  0
 13 12  2  0
 13  6  1  0
 14 13  1  0
 15 11  1  0
 16 12  1  0
 17  1  1  0
 18 17  1  0
 20 19  1  0
 20 18  1  0
 21 20  1  0
 22 21  1  0
 23 22  1  0
 24 23  1  0
 25 24  1  0
 26 24  1  0
 27 26  1  0
 28 27  1  0
 29 28  1  0
 30 29  1  0
 31 29  1  0
  1 32  1  0
  1 33  1  0
  3 34  1  0
  3 35  1  0
  3 36  1  0
  4 37  1  0
  4 38  1  0
  5 39  1  0
  5 40  1  0
 10 41  1  0
 10 42  1  0
 10 43  1  0
 14 44  1  0
 14 45  1  0
 14 46  1  0
 15 47  1  0
 15 48  1  0
 15 49  1  0
 16 50  1  0
 17 51  1  0
 17 52  1  0
 18 53  1  0
 18 54  1  0
 19 55  1  0
 19 56  1  0
 19 57  1  0
 20 58  1  1
 21 59  1  0
 21 60  1  0
 22 61  1  0
 22 62  1  0
 23 63  1  0
 23 64  1  0
 24 65  1  1
 25 66  1  0
 25 67  1  0
 25 68  1  0
 26 69  1  0
 26 70  1  0
 27 71  1  0
 27 72  1  0
 28 73  1  0
 28 74  1  0
 29 75  1  0
 30 76  1  0
 30 77  1  0
 30 78  1  0
 31 79  1  0
 31 80  1  0
 31 81  1  0
M  END
>  <score>  (7) 
-8.813

$$$$
=
     RDKit          3D

 81 82  0  0  0  0  0  0  0  0999 V2000
    5.1490   67.2780   62.7720 C   0  0  0  0  0  0  0  0  0  0  0  0
    5.0920   68.4620   63.7790 C   0  0  2  0  0  0  0  0  0  0  0  0
    5.1340   69.8150   63.0500 C   0  0  0  0  0  0  0  0  0  0  0  0
    6.1810   68.3260   64.8460 C   0  0  0  0  0  0  0  0  0  0  0  0
    6.0030   69.3570   65.9490 C   0  0  0  0  0  0  0  0  0  0  0  0
    4.5730   69.4290   66.4100 C   0  0  0  0  0  0  0  0  0  0  0  0
    3.5490   68.9170   65.6000 C   0  0  0  0  0  0  0  0  0  0  0  0
    3.7820   68.3420   64.3760 O   0  0  0  0  0  0  0  0  0  0  0  0
    2.2010   68.9420   66.0190 C   0  0  0  0  0  0  0  0  0  0  0  0
    1.1290   68.3660   65.1230 C   0  0  0  0  0  0  0  0  0  0  0  0
    1.8780   69.4590   67.2950 C   0  0  0  0  0  0  0  0  0  0  0  0
    2.9030   70.0410   68.0600 C   0  0  0  0  0  0  0  0  0  0  0  0
    4.2440   70.0440   67.6380 C   0  0  0  0  0  0  0  0  0  0  0  0
    5.3110   70.6440   68.5180 C   0  0  0  0  0  0  0  0  0  0  0  0
    0.4620   69.4120   67.8090 C   0  0  0  0  0  0  0  0  0  0  0  0
    2.6310   70.6320   69.2680 O   0  0  0  0  0  0  0  0  0  0  0  0
    4.1670   66.1080   62.9240 C   0  0  0  0  0  0  0  0  0  0  0  0
    4.6200   64.9060   63.7570 C   0  0  0  0  0  0  0  0  0  0  0  0
    2.6290   65.3510   65.2730 C   0  0  0  0  0  0  0  0  0  0  0  0
    3.5530   64.2810   64.6800 C   0  0  2  0  0  0  0  0  0  0  0  0
    4.2010   63.4830   65.8350 C   0  0  0  0  0  0  0  0  0  0  0  0
    3.3870   63.5160   67.1340 C   0  0  0  0  0  0  0  0  0  0  0  0
    4.1040   62.8380   68.3120 C   0  0  0  0  0  0  0  0  0  0  0  0
    3.7460   63.4020   69.7050 C   0  0  2  0  0  0  0  0  0  0  0  0
    4.9140   63.1650   70.6660 C   0  0  0  0  0  0  0  0  0  0  0  0
    2.4080   62.9090   70.2910 C   0  0  0  0  0  0  0  0  0  0  0  0
    1.5640   63.9510   71.0410 C   0  0  0  0  0  0  0  0  0  0  0  0
    0.3350   64.4090   70.2460 C   0  0  0  0  0  0  0  0  0  0  0  0
    0.2220   65.9410   70.1250 C   0  0  0  0  0  0  0  0  0  0  0  0
   -0.7660   66.3720   69.0410 C   0  0  0  0  0  0  0  0  0  0  0  0
    1.6010   66.5410   69.8370 C   0  0  0  0  0  0  0  0  0  0  0  0
    4.9883   67.7023   61.7699 H   0  0  0  0  0  0  0  0  0  0  0  0
    6.1294   66.8193   62.9681 H   0  0  0  0  0  0  0  0  0  0  0  0
    5.1593   70.6292   63.7892 H   0  0  0  0  0  0  0  0  0  0  0  0
    6.0341   69.8641   62.4196 H   0  0  0  0  0  0  0  0  0  0  0  0
    4.2387   69.9198   62.4196 H   0  0  0  0  0  0  0  0  0  0  0  0
    6.1293   67.3187   65.2849 H   0  0  0  0  0  0  0  0  0  0  0  0
    7.1582   68.4920   64.3690 H   0  0  0  0  0  0  0  0  0  0  0  0
    6.6403   69.0814   66.8022 H   0  0  0  0  0  0  0  0  0  0  0  0
    6.2873   70.3420   65.5502 H   0  0  0  0  0  0  0  0  0  0  0  0
    0.3273   67.9352   65.7408 H   0  0  0  0  0  0  0  0  0  0  0  0
    0.7146   69.1629   64.4880 H   0  0  0  0  0  0  0  0  0  0  0  0
    1.5648   67.5806   64.4880 H   0  0  0  0  0  0  0  0  0  0  0  0
    5.0429   70.4932   69.5741 H   0  0  0  0  0  0  0  0  0  0  0  0
    6.2746   70.1554   68.3110 H   0  0  0  0  0  0  0  0  0  0  0  0
    5.3941   71.7211   68.3110 H   0  0  0  0  0  0  0  0  0  0  0  0
    0.4710   69.4123   68.9090 H   0  0  0  0  0  0  0  0  0  0  0  0
   -0.0890   70.2923   67.4466 H   0  0  0  0  0  0  0  0  0  0  0  0
   -0.0295   68.4970   67.4466 H   0  0  0  0  0  0  0  0  0  0  0  0
    3.3631   71.0382   69.7964 H   0  0  0  0  0  0  0  0  0  0  0  0
    3.2522   66.5044   63.3887 H   0  0  0  0  0  0  0  0  0  0  0  0
    4.0449   65.7117   61.9052 H   0  0  0  0  0  0  0  0  0  0  0  0
    4.9628   64.1252   63.0622 H   0  0  0  0  0  0  0  0  0  0  0  0
    5.4040   65.2886   64.4271 H   0  0  0  0  0  0  0  0  0  0  0  0
    2.6702   65.3033   66.3712 H   0  0  0  0  0  0  0  0  0  0  0  0
    2.9567   66.3457   64.9366 H   0  0  0  0  0  0  0  0  0  0  0  0
    1.5971   65.1717   64.9366 H   0  0  0  0  0  0  0  0  0  0  0  0
    2.9606   63.5964   64.0552 H   0  0  0  0  0  0  0  0  0  0  0  0
    4.3073   62.4352   65.5174 H   0  0  0  0  0  0  0  0  0  0  0  0
    5.1713   63.9548   66.0494 H   0  0  0  0  0  0  0  0  0  0  0  0
    3.1935   64.5658   67.3993 H   0  0  0  0  0  0  0  0  0  0  0  0
    2.4561   62.9589   66.9520 H   0  0  0  0  0  0  0  0  0  0  0  0
    3.8451   61.7690   68.2997 H   0  0  0  0  0  0  0  0  0  0  0  0
    5.1780   63.0285   68.1695 H   0  0  0  0  0  0  0  0  0  0  0  0
    3.5831   64.4813   69.5686 H   0  0  0  0  0  0  0  0  0  0  0  0
    4.5557   63.2377   71.7035 H   0  0  0  0  0  0  0  0  0  0  0  0
    5.3341   62.1633   70.4925 H   0  0  0  0  0  0  0  0  0  0  0  0
    5.6913   63.9237   70.4925 H   0  0  0  0  0  0  0  0  0  0  0  0
    1.8007   62.5227   69.4592 H   0  0  0  0  0  0  0  0  0  0  0  0
    2.6798   62.1561   71.0455 H   0  0  0  0  0  0  0  0  0  0  0  0
    1.2239   63.5100   71.9896 H   0  0  0  0  0  0  0  0  0  0  0  0
    2.1991   64.8342   71.2041 H   0  0  0  0  0  0  0  0  0  0  0  0
    0.3954   63.9826   69.2338 H   0  0  0  0  0  0  0  0  0  0  0  0
   -0.5540   64.0594   70.7914 H   0  0  0  0  0  0  0  0  0  0  0  0
   -0.1621   66.3167   71.0848 H   0  0  0  0  0  0  0  0  0  0  0  0
   -1.6770   66.7694   69.5123 H   0  0  0  0  0  0  0  0  0  0  0  0
   -0.3068   67.1516   68.4154 H   0  0  0  0  0  0  0  0  0  0  0  0
   -1.0251   65.5051   68.4154 H   0  0  0  0  0  0  0  0  0  0  0  0
    2.1101   66.7625   70.7866 H   0  0  0  0  0  0  0  0  0  0  0  0
    2.2001   65.8222   69.2587 H   0  0  0  0  0  0  0  0  0  0  0  0
    1.4835   67.4693   69.2587 H   0  0  0  0  0  0  0  0  0  0  0  0
  2  1  1  6
  3  2  1  0
  4  2  1  0
  5  4  1  0
  6  5  1  0
  7  6  2  0
  8  7  1  0
  8  2  1  0
  9  7  1  0
 10  9  1  0
 11  9  2  0
 12 11  1  0
 13 12  2  0
 13  6  1  0
 14 13  1  0
 15 11  1  0
 16 12  1  0
 17  1  1  0
 18 17  1  0
 20 19  1  0
 20 18  1  0
 21 20  1  0
 22 21  1  0
 23 22  1  0
 24 23  1  0
 25 24  1  0
 26 24  1  0
 27 26  1  0
 28 27  1  0
 29 28  1  0
 30 29  1  0
 31 29  1  0
  1 32  1  0
  1 33  1  0
  3 34  1  0
  3 35  1  0
  3 36  1  0
  4 37  1  0
  4 38  1  0
  5 39  1  0
  5 40  1  0
 10 41  1  0
 10 42  1  0
 10 43  1  0
 14 44  1  0
 14 45  1  0
 14 46  1  0
 15 47  1  0
 15 48  1  0
 15 49  1  0
 16 50  1  0
 17 51  1  0
 17 52  1  0
 18 53  1  0
 18 54  1  0
 19 55  1  0
 19 56  1  0
 19 57  1  0
 20 58  1  6
 21 59  1  0
 21 60  1  0
 22 61  1  0
 22 62  1  0
 23 63  1  0
 23 64  1  0
 24 65  1  6
 25 66  1  0
 25 67  1  0
 25 68  1  0
 26 69  1  0
 26 70  1  0
 27 71  1  0
 27 72  1  0
 28 73  1  0
 28 74  1  0
 29 75  1  0
 30 76  1  0
 30 77  1  0
 30 78  1  0
 31 79  1  0
 31 80  1  0
 31 81  1  0
M  END
>  <score>  (8) 
-8.727

$$$$
=
     RDKit          3D

 81 82  0  0  0  0  0  0  0  0999 V2000
    3.3130   63.0120   70.8940 C   0  0  0  0  0  0  0  0  0  0  0  0
    3.2120   61.7210   71.7550 C   0  0  2  0  0  0  0  0  0  0  0  0
    4.1680   61.7770   72.9590 C   0  0  0  0  0  0  0  0  0  0  0  0
    3.4120   60.4710   70.8940 C   0  0  0  0  0  0  0  0  0  0  0  0
    3.1100   59.2060   71.6800 C   0  0  0  0  0  0  0  0  0  0  0  0
    1.8230   59.3290   72.4490 C   0  0  0  0  0  0  0  0  0  0  0  0
    1.2760   60.5960   72.7010 C   0  0  0  0  0  0  0  0  0  0  0  0
    1.8660   61.7620   72.2800 O   0  0  0  0  0  0  0  0  0  0  0  0
    0.0540   60.7430   73.3930 C   0  0  0  0  0  0  0  0  0  0  0  0
   -0.5080   62.1260   73.6310 C   0  0  0  0  0  0  0  0  0  0  0  0
   -0.6540   59.5930   73.8070 C   0  0  0  0  0  0  0  0  0  0  0  0
   -0.0560   58.3340   73.6180 C   0  0  0  0  0  0  0  0  0  0  0  0
    1.1740   58.1820   72.9550 C   0  0  0  0  0  0  0  0  0  0  0  0
    1.7510   56.8050   72.7410 C   0  0  0  0  0  0  0  0  0  0  0  0
   -2.0060   59.7130   74.4620 C   0  0  0  0  0  0  0  0  0  0  0  0
   -0.6600   57.1910   74.0770 O   0  0  0  0  0  0  0  0  0  0  0  0
    2.0290   63.6850   70.3880 C   0  0  0  0  0  0  0  0  0  0  0  0
    2.1080   65.1640   70.0050 C   0  0  0  0  0  0  0  0  0  0  0  0
    0.0660   65.3160   71.5100 C   0  0  0  0  0  0  0  0  0  0  0  0
    0.9470   66.0550   70.4960 C   0  0  2  0  0  0  0  0  0  0  0  0
    0.0650   66.5350   69.3220 C   0  0  0  0  0  0  0  0  0  0  0  0
    0.8620   67.1700   68.1750 C   0  0  0  0  0  0  0  0  0  0  0  0
    0.5190   68.6500   67.9510 C   0  0  0  0  0  0  0  0  0  0  0  0
    1.7200   69.5480   67.5790 C   0  0  2  0  0  0  0  0  0  0  0  0
    2.3190   69.0740   66.2510 C   0  0  0  0  0  0  0  0  0  0  0  0
    2.7940   69.6990   68.6750 C   0  0  0  0  0  0  0  0  0  0  0  0
    4.2370   69.9180   68.1930 C   0  0  0  0  0  0  0  0  0  0  0  0
    4.8770   71.1830   68.7780 C   0  0  0  0  0  0  0  0  0  0  0  0
    6.3110   71.4320   68.2730 C   0  0  0  0  0  0  0  0  0  0  0  0
    6.5790   70.7720   66.9200 C   0  0  0  0  0  0  0  0  0  0  0  0
    7.3200   70.9210   69.3050 C   0  0  0  0  0  0  0  0  0  0  0  0
    3.8489   63.7587   71.4984 H   0  0  0  0  0  0  0  0  0  0  0  0
    3.8063   62.6701   69.9722 H   0  0  0  0  0  0  0  0  0  0  0  0
    3.5856   61.7429   73.8915 H   0  0  0  0  0  0  0  0  0  0  0  0
    4.8535   60.9175   72.9232 H   0  0  0  0  0  0  0  0  0  0  0  0
    4.7485   62.7107   72.9232 H   0  0  0  0  0  0  0  0  0  0  0  0
    2.7390   60.5226   70.0254 H   0  0  0  0  0  0  0  0  0  0  0  0
    4.4627   60.4365   70.5702 H   0  0  0  0  0  0  0  0  0  0  0  0
    3.0290   58.3611   70.9802 H   0  0  0  0  0  0  0  0  0  0  0  0
    3.9270   59.0425   72.3982 H   0  0  0  0  0  0  0  0  0  0  0  0
   -0.5828   62.3102   74.7129 H   0  0  0  0  0  0  0  0  0  0  0  0
    0.1570   62.8752   73.1766 H   0  0  0  0  0  0  0  0  0  0  0  0
   -1.5071   62.1990   73.1766 H   0  0  0  0  0  0  0  0  0  0  0  0
    1.9481   56.3345   73.7156 H   0  0  0  0  0  0  0  0  0  0  0  0
    1.0345   56.1910   72.1757 H   0  0  0  0  0  0  0  0  0  0  0  0
    2.6912   56.8852   72.1757 H   0  0  0  0  0  0  0  0  0  0  0  0
   -1.8860   59.7023   75.5554 H   0  0  0  0  0  0  0  0  0  0  0  0
   -2.4800   60.6567   74.1543 H   0  0  0  0  0  0  0  0  0  0  0  0
   -2.6388   58.8675   74.1543 H   0  0  0  0  0  0  0  0  0  0  0  0
   -0.2271   56.3118   73.9366 H   0  0  0  0  0  0  0  0  0  0  0  0
    1.6965   63.1317   69.4973 H   0  0  0  0  0  0  0  0  0  0  0  0
    1.3412   63.6551   71.2460 H   0  0  0  0  0  0  0  0  0  0  0  0
    3.0421   65.5695   70.4209 H   0  0  0  0  0  0  0  0  0  0  0  0
    2.0553   65.1883   68.9065 H   0  0  0  0  0  0  0  0  0  0  0  0
    0.3808   65.5801   72.5304 H   0  0  0  0  0  0  0  0  0  0  0  0
   -0.9847   65.6070   71.3636 H   0  0  0  0  0  0  0  0  0  0  0  0
    0.1697   64.2307   71.3636 H   0  0  0  0  0  0  0  0  0  0  0  0
    1.4061   66.9284   70.9821 H   0  0  0  0  0  0  0  0  0  0  0  0
   -0.4866   65.6700   68.9251 H   0  0  0  0  0  0  0  0  0  0  0  0
   -0.6049   67.3122   69.7184 H   0  0  0  0  0  0  0  0  0  0  0  0
    1.9342   67.0903   68.4075 H   0  0  0  0  0  0  0  0  0  0  0  0
    0.5993   66.6291   67.2539 H   0  0  0  0  0  0  0  0  0  0  0  0
   -0.2178   68.7103   67.1364 H   0  0  0  0  0  0  0  0  0  0  0  0
    0.1385   69.0269   68.9118 H   0  0  0  0  0  0  0  0  0  0  0  0
    1.3211   70.5673   67.4700 H   0  0  0  0  0  0  0  0  0  0  0  0
    3.1673   68.4027   66.4503 H   0  0  0  0  0  0  0  0  0  0  0  0
    1.5526   68.5352   65.6746 H   0  0  0  0  0  0  0  0  0  0  0  0
    2.6672   69.9438   65.6746 H   0  0  0  0  0  0  0  0  0  0  0  0
    2.5156   70.5605   69.2998 H   0  0  0  0  0  0  0  0  0  0  0  0
    2.8066   68.7358   69.2061 H   0  0  0  0  0  0  0  0  0  0  0  0
    4.8420   69.0489   68.4907 H   0  0  0  0  0  0  0  0  0  0  0  0
    4.2047   70.0399   67.1003 H   0  0  0  0  0  0  0  0  0  0  0  0
    4.2552   72.0477   68.5028 H   0  0  0  0  0  0  0  0  0  0  0  0
    4.9358   71.0435   69.8675 H   0  0  0  0  0  0  0  0  0  0  0  0
    6.4241   72.5176   68.1360 H   0  0  0  0  0  0  0  0  0  0  0  0
    6.9885   69.7635   67.0787 H   0  0  0  0  0  0  0  0  0  0  0  0
    5.6385   70.7010   66.3540 H   0  0  0  0  0  0  0  0  0  0  0  0
    7.3028   71.3768   66.3540 H   0  0  0  0  0  0  0  0  0  0  0  0
    6.9380   71.1145   70.3182 H   0  0  0  0  0  0  0  0  0  0  0  0
    7.4677   69.8395   69.1691 H   0  0  0  0  0  0  0  0  0  0  0  0
    8.2792   71.4420   69.1691 H   0  0  0  0  0  0  0  0  0  0  0  0
  2  1  1  6
  3  2  1  0
  4  2  1  0
  5  4  1  0
  6  5  1  0
  7  6  2  0
  8  7  1  0
  8  2  1  0
  9  7  1  0
 10  9  1  0
 11  9  2  0
 12 11  1  0
 13 12  2  0
 13  6  1  0
 14 13  1  0
 15 11  1  0
 16 12  1  0
 17  1  1  0
 18 17  1  0
 20 19  1  0
 20 18  1  0
 21 20  1  0
 22 21  1  0
 23 22  1  0
 24 23  1  0
 25 24  1  0
 26 24  1  0
 27 26  1  0
 28 27  1  0
 29 28  1  0
 30 29  1  0
 31 29  1  0
  1 32  1  0
  1 33  1  0
  3 34  1  0
  3 35  1  0
  3 36  1  0
  4 37  1  0
  4 38  1  0
  5 39  1  0
  5 40  1  0
 10 41  1  0
 10 42  1  0
 10 43  1  0
 14 44  1  0
 14 45  1  0
 14 46  1  0
 15 47  1  0
 15 48  1  0
 15 49  1  0
 16 50  1  0
 17 51  1  0
 17 52  1  0
 18 53  1  0
 18 54  1  0
 19 55  1  0
 19 56  1  0
 19 57  1  0
 20 58  1  1
 21 59  1  0
 21 60  1  0
 22 61  1  0
 22 62  1  0
 23 63  1  0
 23 64  1  0
 24 65  1  6
 25 66  1  0
 25 67  1  0
 25 68  1  0
 26 69  1  0
 26 70  1  0
 27 71  1  0
 27 72  1  0
 28 73  1  0
 28 74  1  0
 29 75  1  0
 30 76  1  0
 30 77  1  0
 30 78  1  0
 31 79  1  0
 31 80  1  0
 31 81  1  0
M  END
>  <score>  (9) 
-8.339

$$$$
