=
     RDKit          3D

 65 68  0  0  0  0  0  0  0  0999 V2000
    0.3990   68.3320   64.7540 C   0  0  1  0  0  0  0  0  0  0  0  0
    0.3760   69.4550   62.6390 O   0  0  0  0  0  1  0  0  0  0  0  0
   -0.3750   68.8930   63.5030 C   0  0  0  0  0  0  0  0  0  0  0  0
   -1.6260   68.7200   63.4770 O   0  0  0  0  0  0  0  0  0  0  0  0
    1.8410   68.7830   64.6740 N   0  0  0  0  0  0  0  0  0  0  0  0
    2.7280   67.6920   64.5050 C   0  0  0  0  0  0  0  0  0  0  0  0
    2.2030   66.4030   64.3110 C   0  0  0  0  0  0  0  0  0  0  0  0
    3.0370   65.2850   64.2460 C   0  0  0  0  0  0  0  0  0  0  0  0
    4.4130   65.4330   64.3920 C   0  0  0  0  0  0  0  0  0  0  0  0
    4.9530   66.7020   64.5930 C   0  0  0  0  0  0  0  0  0  0  0  0
    4.1210   67.8350   64.6400 C   0  0  0  0  0  0  0  0  0  0  0  0
    4.7940   69.1440   64.8360 C   0  0  0  0  0  0  0  0  0  0  0  0
    5.0700   69.8200   63.8430 O   0  0  0  0  0  0  0  0  0  0  0  0
    5.0660   69.7130   66.1860 C   0  0  0  0  0  0  0  0  0  0  0  0
    4.0700   69.8400   67.1620 C   0  0  0  0  0  0  0  0  0  0  0  0
    4.3700   70.4110   68.4010 C   0  0  0  0  0  0  0  0  0  0  0  0
    5.6580   70.8730   68.6670 C   0  0  0  0  0  0  0  0  0  0  0  0
    6.6500   70.7690   67.6940 C   0  0  0  0  0  0  0  0  0  0  0  0
    6.3540   70.1960   66.4550 C   0  0  0  0  0  0  0  0  0  0  0  0
   -0.2450   68.9140   66.0200 C   0  0  0  0  0  0  0  0  0  0  0  0
   -0.0300   68.0430   67.2420 C   0  0  0  0  0  0  0  0  0  0  0  0
   -1.0220   67.1590   67.6750 C   0  0  0  0  0  0  0  0  0  0  0  0
   -0.8170   66.3670   68.8080 C   0  0  0  0  0  0  0  0  0  0  0  0
    0.3750   66.4510   69.5300 C   0  0  0  0  0  0  0  0  0  0  0  0
    1.3590   67.3470   69.1140 C   0  0  0  0  0  0  0  0  0  0  0  0
    1.1560   68.1390   67.9790 C   0  0  0  0  0  0  0  0  0  0  0  0
    0.4510   65.6170   70.6130 O   0  0  0  0  0  0  0  0  0  0  0  0
    1.5750   64.7330   70.6650 C   0  0  0  0  0  0  0  0  0  0  0  0
    1.0910   63.3080   70.3590 C   0  0  0  0  0  0  0  0  0  0  0  0
    1.4190   62.3710   71.4580 N   0  0  0  0  0  0  0  0  0  0  0  0
    1.2270   62.9250   72.8040 C   0  0  0  0  0  0  0  0  0  0  0  0
    2.7500   61.8900   71.3470 C   0  0  0  0  0  0  0  0  0  0  0  0
    3.1500   61.3220   70.1350 C   0  0  0  0  0  0  0  0  0  0  0  0
    4.4500   60.8390   69.9920 C   0  0  0  0  0  0  0  0  0  0  0  0
    5.3250   60.9330   71.0620 C   0  0  0  0  0  0  0  0  0  0  0  0
    4.8590   61.5090   72.2290 C   0  0  0  0  0  0  0  0  0  0  0  0
    3.6030   61.9810   72.3910 N   0  0  0  0  0  0  0  0  0  0  0  0
    0.3544   67.2332   64.7781 H   0  0  0  0  0  0  0  0  0  0  0  0
    2.1417   69.7662   64.7352 H   0  0  0  0  0  0  0  0  0  0  0  0
    1.1156   66.2724   64.2085 H   0  0  0  0  0  0  0  0  0  0  0  0
    2.6061   64.2867   64.0793 H   0  0  0  0  0  0  0  0  0  0  0  0
    5.0712   64.5527   64.3490 H   0  0  0  0  0  0  0  0  0  0  0  0
    6.0399   66.8185   64.7160 H   0  0  0  0  0  0  0  0  0  0  0  0
    3.0487   69.4892   66.9525 H   0  0  0  0  0  0  0  0  0  0  0  0
    3.5874   70.4964   69.1692 H   0  0  0  0  0  0  0  0  0  0  0  0
    5.8912   71.3196   69.6448 H   0  0  0  0  0  0  0  0  0  0  0  0
    7.6653   71.1378   67.9014 H   0  0  0  0  0  0  0  0  0  0  0  0
    7.1367   70.1234   65.6855 H   0  0  0  0  0  0  0  0  0  0  0  0
    0.1923   69.9047   66.2132 H   0  0  0  0  0  0  0  0  0  0  0  0
   -1.3289   68.9740   65.8426 H   0  0  0  0  0  0  0  0  0  0  0  0
   -1.9695   67.0862   67.1209 H   0  0  0  0  0  0  0  0  0  0  0  0
   -1.6030   65.6701   69.1344 H   0  0  0  0  0  0  0  0  0  0  0  0
    2.2982   67.4314   69.6803 H   0  0  0  0  0  0  0  0  0  0  0  0
    1.9374   68.8454   67.6621 H   0  0  0  0  0  0  0  0  0  0  0  0
    2.3223   65.0391   69.9181 H   0  0  0  0  0  0  0  0  0  0  0  0
    2.0350   64.7677   71.6636 H   0  0  0  0  0  0  0  0  0  0  0  0
    0.0002   63.3244   70.2180 H   0  0  0  0  0  0  0  0  0  0  0  0
    1.6007   62.9606   69.4482 H   0  0  0  0  0  0  0  0  0  0  0  0
    1.4904   62.1650   73.5543 H   0  0  0  0  0  0  0  0  0  0  0  0
    1.8720   63.8067   72.9331 H   0  0  0  0  0  0  0  0  0  0  0  0
    0.1747   63.2184   72.9331 H   0  0  0  0  0  0  0  0  0  0  0  0
    2.4415   61.2560   69.2961 H   0  0  0  0  0  0  0  0  0  0  0  0
    4.7765   60.3894   69.0426 H   0  0  0  0  0  0  0  0  0  0  0  0
    6.3574   60.5612   70.9854 H   0  0  0  0  0  0  0  0  0  0  0  0
    5.5534   61.5881   73.0784 H   0  0  0  0  0  0  0  0  0  0  0  0
  3  2  1  0
  3  1  1  0
  4  3  2  0
  5  1  1  0
  6  5  1  0
  7  6  2  0
  8  7  1  0
  9  8  2  0
 10  9  1  0
 11 10  2  0
 11  6  1  0
 12 11  1  0
 13 12  2  0
 14 12  1  0
 15 14  2  0
 16 15  1  0
 17 16  2  0
 18 17  1  0
 19 14  1  0
 19 18  2  0
 20  1  1  0
 21 20  1  0
 22 21  2  0
 23 22  1  0
 24 23  2  0
 25 24  1  0
 26 25  2  0
 26 21  1  0
 27 24  1  0
 28 27  1  0
 29 28  1  0
 30 29  1  0
 31 30  1  0
 32 30  1  0
 33 32  2  0
 34 33  1  0
 35 34  2  0
 36 35  1  0
 37 36  2  0
 37 32  1  0
  1 38  1  1
  5 39  1  0
  7 40  1  0
  8 41  1  0
  9 42  1  0
 10 43  1  0
 15 44  1  0
 16 45  1  0
 17 46  1  0
 18 47  1  0
 19 48  1  0
 20 49  1  0
 20 50  1  0
 22 51  1  0
 23 52  1  0
 25 53  1  0
 26 54  1  0
 28 55  1  0
 28 56  1  0
 29 57  1  0
 29 58  1  0
 31 59  1  0
 31 60  1  0
 31 61  1  0
 33 62  1  0
 34 63  1  0
 35 64  1  0
 36 65  1  0
M  CHG  1   2  -1
M  END
>  <score>  (1) 
-11.145

$$$$
=
     RDKit          3D

 65 68  0  0  0  0  0  0  0  0999 V2000
    0.4280   68.3930   64.7220 C   0  0  1  0  0  0  0  0  0  0  0  0
    0.4500   69.6930   62.7110 O   0  0  0  0  0  1  0  0  0  0  0  0
   -0.3030   68.9880   63.4600 C   0  0  0  0  0  0  0  0  0  0  0  0
   -1.5240   68.7000   63.3160 O   0  0  0  0  0  0  0  0  0  0  0  0
    1.8790   68.8160   64.6860 N   0  0  0  0  0  0  0  0  0  0  0  0
    2.7470   67.7150   64.4840 C   0  0  0  0  0  0  0  0  0  0  0  0
    2.2000   66.4360   64.2890 C   0  0  0  0  0  0  0  0  0  0  0  0
    3.0170   65.3070   64.1910 C   0  0  0  0  0  0  0  0  0  0  0  0
    4.3980   65.4350   64.3070 C   0  0  0  0  0  0  0  0  0  0  0  0
    4.9600   66.6940   64.5100 C   0  0  0  0  0  0  0  0  0  0  0  0
    4.1450   67.8370   64.5880 C   0  0  0  0  0  0  0  0  0  0  0  0
    4.8400   69.1350   64.7830 C   0  0  0  0  0  0  0  0  0  0  0  0
    5.1490   69.7940   63.7870 O   0  0  0  0  0  0  0  0  0  0  0  0
    5.0980   69.7140   66.1310 C   0  0  0  0  0  0  0  0  0  0  0  0
    4.0920   69.8470   67.0960 C   0  0  0  0  0  0  0  0  0  0  0  0
    4.3780   70.4280   68.3340 C   0  0  0  0  0  0  0  0  0  0  0  0
    5.6640   70.8920   68.6100 C   0  0  0  0  0  0  0  0  0  0  0  0
    6.6660   70.7810   67.6480 C   0  0  0  0  0  0  0  0  0  0  0  0
    6.3830   70.1990   66.4100 C   0  0  0  0  0  0  0  0  0  0  0  0
   -0.2380   68.9670   65.9800 C   0  0  0  0  0  0  0  0  0  0  0  0
   -0.0910   68.0630   67.1880 C   0  0  0  0  0  0  0  0  0  0  0  0
    1.1240   67.9750   67.8730 C   0  0  0  0  0  0  0  0  0  0  0  0
    1.2500   67.1330   68.9810 C   0  0  0  0  0  0  0  0  0  0  0  0
    0.1720   66.3600   69.4160 C   0  0  0  0  0  0  0  0  0  0  0  0
   -1.0360   66.4290   68.7220 C   0  0  0  0  0  0  0  0  0  0  0  0
   -1.1650   67.2740   67.6140 C   0  0  0  0  0  0  0  0  0  0  0  0
    0.4260   65.5840   70.5140 O   0  0  0  0  0  0  0  0  0  0  0  0
    1.6980   64.9320   70.5610 C   0  0  0  0  0  0  0  0  0  0  0  0
    1.4860   63.4300   70.3270 C   0  0  0  0  0  0  0  0  0  0  0  0
    2.1320   62.6150   71.3820 N   0  0  0  0  0  0  0  0  0  0  0  0
    3.2290   61.7650   70.9050 C   0  0  0  0  0  0  0  0  0  0  0  0
    1.1840   61.8030   72.0590 C   0  0  0  0  0  0  0  0  0  0  0  0
   -0.1080   62.3020   72.2400 C   0  0  0  0  0  0  0  0  0  0  0  0
   -1.0620   61.5320   72.9010 C   0  0  0  0  0  0  0  0  0  0  0  0
   -0.7080   60.2760   73.3690 C   0  0  0  0  0  0  0  0  0  0  0  0
    0.5890   59.8480   73.1510 C   0  0  0  0  0  0  0  0  0  0  0  0
    1.5310   60.5800   72.5160 N   0  0  0  0  0  0  0  0  0  0  0  0
    0.3623   67.2950   64.7277 H   0  0  0  0  0  0  0  0  0  0  0  0
    2.1984   69.7891   64.7954 H   0  0  0  0  0  0  0  0  0  0  0  0
    1.1087   66.3213   64.2121 H   0  0  0  0  0  0  0  0  0  0  0  0
    2.5687   64.3168   64.0221 H   0  0  0  0  0  0  0  0  0  0  0  0
    5.0429   64.5465   64.2388 H   0  0  0  0  0  0  0  0  0  0  0  0
    6.0508   66.7944   64.6101 H   0  0  0  0  0  0  0  0  0  0  0  0
    3.0735   69.4930   66.8787 H   0  0  0  0  0  0  0  0  0  0  0  0
    3.5870   70.5197   69.0929 H   0  0  0  0  0  0  0  0  0  0  0  0
    5.8873   71.3455   69.5870 H   0  0  0  0  0  0  0  0  0  0  0  0
    7.6791   71.1514   67.8633 H   0  0  0  0  0  0  0  0  0  0  0  0
    7.1737   70.1209   65.6493 H   0  0  0  0  0  0  0  0  0  0  0  0
    0.2240   69.9385   66.2099 H   0  0  0  0  0  0  0  0  0  0  0  0
   -1.3132   69.0656   65.7694 H   0  0  0  0  0  0  0  0  0  0  0  0
    1.9854   68.5716   67.5382 H   0  0  0  0  0  0  0  0  0  0  0  0
    2.2093   67.0786   69.5165 H   0  0  0  0  0  0  0  0  0  0  0  0
   -1.8903   65.8170   69.0468 H   0  0  0  0  0  0  0  0  0  0  0  0
   -2.1212   67.3184   67.0721 H   0  0  0  0  0  0  0  0  0  0  0  0
    2.3532   65.3405   69.7775 H   0  0  0  0  0  0  0  0  0  0  0  0
    2.1695   65.0973   71.5410 H   0  0  0  0  0  0  0  0  0  0  0  0
    0.4065   63.2185   70.3239 H   0  0  0  0  0  0  0  0  0  0  0  0
    1.9421   63.1654   69.3616 H   0  0  0  0  0  0  0  0  0  0  0  0
    3.7696   61.3461   71.7666 H   0  0  0  0  0  0  0  0  0  0  0  0
    2.8198   60.9459   70.2954 H   0  0  0  0  0  0  0  0  0  0  0  0
    3.9200   62.3658   70.2954 H   0  0  0  0  0  0  0  0  0  0  0  0
   -0.3714   63.3007   71.8614 H   0  0  0  0  0  0  0  0  0  0  0  0
   -2.0823   61.9152   73.0497 H   0  0  0  0  0  0  0  0  0  0  0  0
   -1.4348   59.6407   73.8964 H   0  0  0  0  0  0  0  0  0  0  0  0
    0.8713   58.8499   73.5172 H   0  0  0  0  0  0  0  0  0  0  0  0
  3  2  1  0
  3  1  1  0
  4  3  2  0
  5  1  1  0
  6  5  1  0
  7  6  2  0
  8  7  1  0
  9  8  2  0
 10  9  1  0
 11 10  2  0
 11  6  1  0
 12 11  1  0
 13 12  2  0
 14 12  1  0
 15 14  2  0
 16 15  1  0
 17 16  2  0
 18 17  1  0
 19 14  1  0
 19 18  2  0
 20  1  1  0
 21 20  1  0
 22 21  2  0
 23 22  1  0
 24 23  2  0
 25 24  1  0
 26 25  2  0
 26 21  1  0
 27 24  1  0
 28 27  1  0
 29 28  1  0
 30 29  1  0
 31 30  1  0
 32 30  1  0
 33 32  2  0
 34 33  1  0
 35 34  2  0
 36 35  1  0
 37 36  2  0
 37 32  1  0
  1 38  1  1
  5 39  1  0
  7 40  1  0
  8 41  1  0
  9 42  1  0
 10 43  1  0
 15 44  1  0
 16 45  1  0
 17 46  1  0
 18 47  1  0
 19 48  1  0
 20 49  1  0
 20 50  1  0
 22 51  1  0
 23 52  1  0
 25 53  1  0
 26 54  1  0
 28 55  1  0
 28 56  1  0
 29 57  1  0
 29 58  1  0
 31 59  1  0
 31 60  1  0
 31 61  1  0
 33 62  1  0
 34 63  1  0
 35 64  1  0
 36 65  1  0
M  CHG  1   2  -1
M  END
>  <score>  (2) 
-10.813

$$$$
=
     RDKit          3D

 65 68  0  0  0  0  0  0  0  0999 V2000
    1.0100   67.4830   68.2240 C   0  0  1  0  0  0  0  0  0  0  0  0
   -0.2790   66.7550   66.3410 O   0  0  0  0  0  1  0  0  0  0  0  0
   -0.3510   67.0090   67.5880 C   0  0  0  0  0  0  0  0  0  0  0  0
   -1.3450   66.9170   68.3620 O   0  0  0  0  0  0  0  0  0  0  0  0
    1.1630   68.9690   67.9890 N   0  0  0  0  0  0  0  0  0  0  0  0
    2.5190   69.3420   67.8210 C   0  0  0  0  0  0  0  0  0  0  0  0
    3.1920   69.9790   68.8780 C   0  0  0  0  0  0  0  0  0  0  0  0
    4.4940   70.4590   68.7210 C   0  0  0  0  0  0  0  0  0  0  0  0
    5.1420   70.3260   67.4960 C   0  0  0  0  0  0  0  0  0  0  0  0
    4.4890   69.7040   66.4330 C   0  0  0  0  0  0  0  0  0  0  0  0
    3.1850   69.2010   66.5910 C   0  0  0  0  0  0  0  0  0  0  0  0
    2.5840   68.5360   65.4070 C   0  0  0  0  0  0  0  0  0  0  0  0
    1.5840   69.0410   64.8910 O   0  0  0  0  0  0  0  0  0  0  0  0
    3.1920   67.3380   64.7630 C   0  0  0  0  0  0  0  0  0  0  0  0
    4.0680   67.4330   63.6750 C   0  0  0  0  0  0  0  0  0  0  0  0
    4.5850   66.2760   63.0860 C   0  0  0  0  0  0  0  0  0  0  0  0
    4.2200   65.0210   63.5690 C   0  0  0  0  0  0  0  0  0  0  0  0
    3.3340   64.9170   64.6400 C   0  0  0  0  0  0  0  0  0  0  0  0
    2.8170   66.0720   65.2310 C   0  0  0  0  0  0  0  0  0  0  0  0
    0.9570   67.2110   69.7340 C   0  0  0  0  0  0  0  0  0  0  0  0
    1.1520   65.7470   70.0750 C   0  0  0  0  0  0  0  0  0  0  0  0
    2.3980   65.1340   69.9150 C   0  0  0  0  0  0  0  0  0  0  0  0
    2.5650   63.7820   70.2250 C   0  0  0  0  0  0  0  0  0  0  0  0
    1.4910   63.0190   70.6900 C   0  0  0  0  0  0  0  0  0  0  0  0
    0.2410   63.6210   70.8300 C   0  0  0  0  0  0  0  0  0  0  0  0
    0.0740   64.9760   70.5230 C   0  0  0  0  0  0  0  0  0  0  0  0
    1.7900   61.7120   70.9630 O   0  0  0  0  0  0  0  0  0  0  0  0
    3.1750   61.3880   71.1200 C   0  0  0  0  0  0  0  0  0  0  0  0
    3.3420   60.5660   72.4050 C   0  0  0  0  0  0  0  0  0  0  0  0
    3.2760   59.1100   72.1360 N   0  0  0  0  0  0  0  0  0  0  0  0
    3.3150   58.7550   70.7130 C   0  0  0  0  0  0  0  0  0  0  0  0
    2.1220   58.5290   72.7220 C   0  0  0  0  0  0  0  0  0  0  0  0
    1.1000   59.3780   73.1560 C   0  0  0  0  0  0  0  0  0  0  0  0
   -0.0470   58.8400   73.7370 C   0  0  0  0  0  0  0  0  0  0  0  0
   -0.1530   57.4650   73.8730 C   0  0  0  0  0  0  0  0  0  0  0  0
    0.8980   56.6890   73.4180 C   0  0  0  0  0  0  0  0  0  0  0  0
    2.0200   57.1890   72.8560 N   0  0  0  0  0  0  0  0  0  0  0  0
    1.8577   66.9465   67.7728 H   0  0  0  0  0  0  0  0  0  0  0  0
    0.3748   69.6312   67.9551 H   0  0  0  0  0  0  0  0  0  0  0  0
    2.6841   70.1016   69.8460 H   0  0  0  0  0  0  0  0  0  0  0  0
    5.0076   70.9422   69.5653 H   0  0  0  0  0  0  0  0  0  0  0  0
    6.1647   70.7100   67.3675 H   0  0  0  0  0  0  0  0  0  0  0  0
    4.9977   69.6058   65.4627 H   0  0  0  0  0  0  0  0  0  0  0  0
    4.3501   68.4212   63.2827 H   0  0  0  0  0  0  0  0  0  0  0  0
    5.2820   66.3562   62.2388 H   0  0  0  0  0  0  0  0  0  0  0  0
    4.6311   64.1123   63.1051 H   0  0  0  0  0  0  0  0  0  0  0  0
    3.0424   63.9265   65.0193 H   0  0  0  0  0  0  0  0  0  0  0  0
    2.1104   65.9870   66.0698 H   0  0  0  0  0  0  0  0  0  0  0  0
    1.7502   67.7946   70.2242 H   0  0  0  0  0  0  0  0  0  0  0  0
   -0.0428   67.5029   70.0879 H   0  0  0  0  0  0  0  0  0  0  0  0
    3.2518   65.7193   69.5429 H   0  0  0  0  0  0  0  0  0  0  0  0
    3.5525   63.3133   70.1017 H   0  0  0  0  0  0  0  0  0  0  0  0
   -0.6163   63.0290   71.1828 H   0  0  0  0  0  0  0  0  0  0  0  0
   -0.9168   65.4405   70.6353 H   0  0  0  0  0  0  0  0  0  0  0  0
    3.5183   60.7997   70.2563 H   0  0  0  0  0  0  0  0  0  0  0  0
    3.7721   62.3097   71.1828 H   0  0  0  0  0  0  0  0  0  0  0  0
    4.3178   60.8017   72.8548 H   0  0  0  0  0  0  0  0  0  0  0  0
    2.5202   60.8264   73.0882 H   0  0  0  0  0  0  0  0  0  0  0  0
    3.4346   57.6664   70.6098 H   0  0  0  0  0  0  0  0  0  0  0  0
    2.3771   59.0681   70.2311 H   0  0  0  0  0  0  0  0  0  0  0  0
    4.1626   59.2643   70.2311 H   0  0  0  0  0  0  0  0  0  0  0  0
    1.2006   60.4672   73.0394 H   0  0  0  0  0  0  0  0  0  0  0  0
   -0.8575   59.4983   74.0831 H   0  0  0  0  0  0  0  0  0  0  0  0
   -1.0432   57.0058   74.3276 H   0  0  0  0  0  0  0  0  0  0  0  0
    0.8149   55.5969   73.5202 H   0  0  0  0  0  0  0  0  0  0  0  0
  3  2  1  0
  3  1  1  0
  4  3  2  0
  5  1  1  0
  6  5  1  0
  7  6  2  0
  8  7  1  0
  9  8  2  0
 10  9  1  0
 11 10  2  0
 11  6  1  0
 12 11  1  0
 13 12  2  0
 14 12  1  0
 15 14  2  0
 16 15  1  0
 17 16  2  0
 18 17  1  0
 19 14  1  0
 19 18  2  0
 20  1  1  0
 21 20  1  0
 22 21  2  0
 23 22  1  0
 24 23  2  0
 25 24  1  0
 26 25  2  0
 26 21  1  0
 27 24  1  0
 28 27  1  0
 29 28  1  0
 30 29  1  0
 31 30  1  0
 32 30  1  0
 33 32  2  0
 34 33  1  0
 35 34  2  0
 36 35  1  0
 37 36  2  0
 37 32  1  0
  1 38  1  6
  5 39  1  0
  7 40  1  0
  8 41  1  0
  9 42  1  0
 10 43  1  0
 15 44  1  0
 16 45  1  0
 17 46  1  0
 18 47  1  0
 19 48  1  0
 20 49  1  0
 20 50  1  0
 22 51  1  0
 23 52  1  0
 25 53  1  0
 26 54  1  0
 28 55  1  0
 28 56  1  0
 29 57  1  0
 29 58  1  0
 31 59  1  0
 31 60  1  0
 31 61  1  0
 33 62  1  0
 34 63  1  0
 35 64  1  0
 36 65  1  0
M  CHG  1   2  -1
M  END
>  <score>  (3) 
-10.438

$$$$
=
     RDKit          3D

 65 68  0  0  0  0  0  0  0  0999 V2000
    1.2550   67.7660   67.9870 C   0  0  1  0  0  0  0  0  0  0  0  0
   -1.1380   67.6930   68.0030 O   0  0  0  0  0  1  0  0  0  0  0  0
   -0.1130   67.3490   67.3280 C   0  0  0  0  0  0  0  0  0  0  0  0
   -0.0560   66.7450   66.2200 O   0  0  0  0  0  0  0  0  0  0  0  0
    1.5150   69.2250   67.6830 N   0  0  0  0  0  0  0  0  0  0  0  0
    2.8910   69.4850   67.4740 C   0  0  0  0  0  0  0  0  0  0  0  0
    3.6300   70.1290   68.4820 C   0  0  0  0  0  0  0  0  0  0  0  0
    4.9610   70.5010   68.2780 C   0  0  0  0  0  0  0  0  0  0  0  0
    5.5730   70.2520   67.0530 C   0  0  0  0  0  0  0  0  0  0  0  0
    4.8560   69.6220   66.0380 C   0  0  0  0  0  0  0  0  0  0  0  0
    3.5220   69.2270   66.2430 C   0  0  0  0  0  0  0  0  0  0  0  0
    2.8510   68.5430   65.1080 C   0  0  0  0  0  0  0  0  0  0  0  0
    1.8930   69.1000   64.5680 O   0  0  0  0  0  0  0  0  0  0  0  0
    3.3440   67.2580   64.5400 C   0  0  0  0  0  0  0  0  0  0  0  0
    4.1130   67.1990   63.3720 C   0  0  0  0  0  0  0  0  0  0  0  0
    4.5230   65.9640   62.8620 C   0  0  0  0  0  0  0  0  0  0  0  0
    4.1550   64.7830   63.5040 C   0  0  0  0  0  0  0  0  0  0  0  0
    3.3730   64.8320   64.6570 C   0  0  0  0  0  0  0  0  0  0  0  0
    2.9640   66.0650   65.1700 C   0  0  0  0  0  0  0  0  0  0  0  0
    1.1370   67.5770   69.5050 C   0  0  0  0  0  0  0  0  0  0  0  0
    1.1500   66.1200   69.9200 C   0  0  0  0  0  0  0  0  0  0  0  0
   -0.0050   65.5040   70.4100 C   0  0  0  0  0  0  0  0  0  0  0  0
    0.0210   64.1610   70.7970 C   0  0  0  0  0  0  0  0  0  0  0  0
    1.1980   63.4160   70.7100 C   0  0  0  0  0  0  0  0  0  0  0  0
    2.3580   64.0320   70.2410 C   0  0  0  0  0  0  0  0  0  0  0  0
    2.3330   65.3760   69.8510 C   0  0  0  0  0  0  0  0  0  0  0  0
    1.0860   62.1130   71.1130 O   0  0  0  0  0  0  0  0  0  0  0  0
    0.2530   61.8610   72.2490 C   0  0  0  0  0  0  0  0  0  0  0  0
    0.5900   60.4700   72.8030 C   0  0  0  0  0  0  0  0  0  0  0  0
    1.8360   60.4860   73.6030 N   0  0  0  0  0  0  0  0  0  0  0  0
    1.9150   61.5780   74.5800 C   0  0  0  0  0  0  0  0  0  0  0  0
    2.9840   60.5340   72.7690 C   0  0  0  0  0  0  0  0  0  0  0  0
    3.9320   61.5330   73.0030 C   0  0  0  0  0  0  0  0  0  0  0  0
    5.0700   61.6100   72.2020 C   0  0  0  0  0  0  0  0  0  0  0  0
    5.2390   60.6870   71.1820 C   0  0  0  0  0  0  0  0  0  0  0  0
    4.2590   59.7260   71.0120 C   0  0  0  0  0  0  0  0  0  0  0  0
    3.1480   59.6360   71.7740 N   0  0  0  0  0  0  0  0  0  0  0  0
    2.0787   67.1524   67.5932 H   0  0  0  0  0  0  0  0  0  0  0  0
    0.7787   69.9436   67.6339 H   0  0  0  0  0  0  0  0  0  0  0  0
    3.1514   70.3438   69.4488 H   0  0  0  0  0  0  0  0  0  0  0  0
    5.5253   70.9906   69.0854 H   0  0  0  0  0  0  0  0  0  0  0  0
    6.6184   70.5513   66.8869 H   0  0  0  0  0  0  0  0  0  0  0  0
    5.3377   69.4319   65.0675 H   0  0  0  0  0  0  0  0  0  0  0  0
    4.3955   68.1273   62.8539 H   0  0  0  0  0  0  0  0  0  0  0  0
    5.1381   65.9240   61.9509 H   0  0  0  0  0  0  0  0  0  0  0  0
    4.4814   63.8128   63.1012 H   0  0  0  0  0  0  0  0  0  0  0  0
    3.0783   63.9004   65.1623 H   0  0  0  0  0  0  0  0  0  0  0  0
    2.3393   66.1001   66.0747 H   0  0  0  0  0  0  0  0  0  0  0  0
    1.9826   68.0875   69.9891 H   0  0  0  0  0  0  0  0  0  0  0  0
    0.1708   68.0005   69.8165 H   0  0  0  0  0  0  0  0  0  0  0  0
   -0.9392   66.0790   70.4915 H   0  0  0  0  0  0  0  0  0  0  0  0
   -0.8966   63.6860   71.1744 H   0  0  0  0  0  0  0  0  0  0  0  0
    3.2954   63.4599   70.1774 H   0  0  0  0  0  0  0  0  0  0  0  0
    3.2544   65.8531   69.4859 H   0  0  0  0  0  0  0  0  0  0  0  0
    0.4384   62.6224   73.0209 H   0  0  0  0  0  0  0  0  0  0  0  0
   -0.8063   61.9025   71.9554 H   0  0  0  0  0  0  0  0  0  0  0  0
   -0.2390   60.1300   73.4411 H   0  0  0  0  0  0  0  0  0  0  0  0
    0.7376   59.7887   71.9521 H   0  0  0  0  0  0  0  0  0  0  0  0
    1.8849   61.1622   75.5979 H   0  0  0  0  0  0  0  0  0  0  0  0
    2.8555   62.1304   74.4372 H   0  0  0  0  0  0  0  0  0  0  0  0
    1.0638   62.2600   74.4372 H   0  0  0  0  0  0  0  0  0  0  0  0
    3.7807   62.2569   73.8173 H   0  0  0  0  0  0  0  0  0  0  0  0
    5.8233   62.3922   72.3769 H   0  0  0  0  0  0  0  0  0  0  0  0
    6.1237   60.7178   70.5290 H   0  0  0  0  0  0  0  0  0  0  0  0
    4.3930   58.9894   70.2061 H   0  0  0  0  0  0  0  0  0  0  0  0
  3  2  1  0
  3  1  1  0
  4  3  2  0
  5  1  1  0
  6  5  1  0
  7  6  2  0
  8  7  1  0
  9  8  2  0
 10  9  1  0
 11 10  2  0
 11  6  1  0
 12 11  1  0
 13 12  2  0
 14 12  1  0
 15 14  2  0
 16 15  1  0
 17 16  2  0
 18 17  1  0
 19 14  1  0
 19 18  2  0
 20  1  1  0
 21 20  1  0
 22 21  2  0
 23 22  1  0
 24 23  2  0
 25 24  1  0
 26 25  2  0
 26 21  1  0
 27 24  1  0
 28 27  1  0
 29 28  1  0
 30 29  1  0
 31 30  1  0
 32 30  1  0
 33 32  2  0
 34 33  1  0
 35 34  2  0
 36 35  1  0
 37 36  2  0
 37 32  1  0
  1 38  1  6
  5 39  1  0
  7 40  1  0
  8 41  1  0
  9 42  1  0
 10 43  1  0
 15 44  1  0
 16 45  1  0
 17 46  1  0
 18 47  1  0
 19 48  1  0
 20 49  1  0
 20 50  1  0
 22 51  1  0
 23 52  1  0
 25 53  1  0
 26 54  1  0
 28 55  1  0
 28 56  1  0
 29 57  1  0
 29 58  1  0
 31 59  1  0
 31 60  1  0
 31 61  1  0
 33 62  1  0
 34 63  1  0
 35 64  1  0
 36 65  1  0
M  CHG  1   2  -1
M  END
>  <score>  (4) 
-10.372

$$$$
=
     RDKit          3D

 65 68  0  0  0  0  0  0  0  0999 V2000
    1.3110   67.7910   67.7970 C   0  0  1  0  0  0  0  0  0  0  0  0
   -0.3430   66.4780   66.6660 O   0  0  0  0  0  1  0  0  0  0  0  0
   -0.1910   67.4790   67.4400 C   0  0  0  0  0  0  0  0  0  0  0  0
   -1.0700   68.2250   67.9570 O   0  0  0  0  0  0  0  0  0  0  0  0
    1.6490   69.1780   67.3000 N   0  0  0  0  0  0  0  0  0  0  0  0
    3.0160   69.2950   66.9450 C   0  0  0  0  0  0  0  0  0  0  0  0
    3.8640   70.0920   67.7330 C   0  0  0  0  0  0  0  0  0  0  0  0
    5.1910   70.3210   67.3630 C   0  0  0  0  0  0  0  0  0  0  0  0
    5.6890   69.7720   66.1840 C   0  0  0  0  0  0  0  0  0  0  0  0
    4.8620   68.9860   65.3840 C   0  0  0  0  0  0  0  0  0  0  0  0
    3.5310   68.7350   65.7620 C   0  0  0  0  0  0  0  0  0  0  0  0
    2.7370   67.8680   64.8550 C   0  0  0  0  0  0  0  0  0  0  0  0
    2.6550   66.6640   65.1110 O   0  0  0  0  0  0  0  0  0  0  0  0
    1.9630   68.4070   63.7020 C   0  0  0  0  0  0  0  0  0  0  0  0
    2.5400   68.6230   62.4450 C   0  0  0  0  0  0  0  0  0  0  0  0
    1.7780   69.1620   61.4060 C   0  0  0  0  0  0  0  0  0  0  0  0
    0.4430   69.5040   61.6190 C   0  0  0  0  0  0  0  0  0  0  0  0
   -0.1340   69.3110   62.8730 C   0  0  0  0  0  0  0  0  0  0  0  0
    0.6250   68.7690   63.9130 C   0  0  0  0  0  0  0  0  0  0  0  0
    1.4630   67.7480   69.3230 C   0  0  0  0  0  0  0  0  0  0  0  0
    1.2310   66.3650   69.8990 C   0  0  0  0  0  0  0  0  0  0  0  0
    2.1360   65.3270   69.6570 C   0  0  0  0  0  0  0  0  0  0  0  0
    1.9090   64.0540   70.1860 C   0  0  0  0  0  0  0  0  0  0  0  0
    0.7730   63.7940   70.9550 C   0  0  0  0  0  0  0  0  0  0  0  0
   -0.1440   64.8200   71.1810 C   0  0  0  0  0  0  0  0  0  0  0  0
    0.0840   66.0960   70.6540 C   0  0  0  0  0  0  0  0  0  0  0  0
    0.6740   62.5100   71.4180 O   0  0  0  0  0  0  0  0  0  0  0  0
    0.2380   62.3460   72.7710 C   0  0  0  0  0  0  0  0  0  0  0  0
    1.1030   61.2670   73.4370 C   0  0  0  0  0  0  0  0  0  0  0  0
    1.5950   60.2750   72.4520 N   0  0  0  0  0  0  0  0  0  0  0  0
    1.5310   58.8830   72.9110 C   0  0  0  0  0  0  0  0  0  0  0  0
    2.9260   60.5640   72.0500 C   0  0  0  0  0  0  0  0  0  0  0  0
    3.2770   60.3460   70.7160 C   0  0  0  0  0  0  0  0  0  0  0  0
    4.5750   60.6170   70.2880 C   0  0  0  0  0  0  0  0  0  0  0  0
    5.4990   61.1010   71.2010 C   0  0  0  0  0  0  0  0  0  0  0  0
    5.0780   61.2940   72.5050 C   0  0  0  0  0  0  0  0  0  0  0  0
    3.8260   61.0340   72.9410 N   0  0  0  0  0  0  0  0  0  0  0  0
    1.9822   67.0554   67.3297 H   0  0  0  0  0  0  0  0  0  0  0  0
    0.9670   69.9465   67.2279 H   0  0  0  0  0  0  0  0  0  0  0  0
    3.4755   70.5435   68.6578 H   0  0  0  0  0  0  0  0  0  0  0  0
    5.8425   70.9347   68.0025 H   0  0  0  0  0  0  0  0  0  0  0  0
    6.7312   69.9581   65.8854 H   0  0  0  0  0  0  0  0  0  0  0  0
    5.2535   68.5584   64.4492 H   0  0  0  0  0  0  0  0  0  0  0  0
    3.5964   68.3675   62.2751 H   0  0  0  0  0  0  0  0  0  0  0  0
    2.2325   69.3172   60.4164 H   0  0  0  0  0  0  0  0  0  0  0  0
   -0.1546   69.9260   60.7975 H   0  0  0  0  0  0  0  0  0  0  0  0
   -1.1856   69.5851   63.0435 H   0  0  0  0  0  0  0  0  0  0  0  0
    0.1699   68.6253   64.9041 H   0  0  0  0  0  0  0  0  0  0  0  0
    2.4818   68.0707   69.5837 H   0  0  0  0  0  0  0  0  0  0  0  0
    0.7007   68.4162   69.7502 H   0  0  0  0  0  0  0  0  0  0  0  0
    3.0318   65.5138   69.0466 H   0  0  0  0  0  0  0  0  0  0  0  0
    2.6328   63.2481   69.9947 H   0  0  0  0  0  0  0  0  0  0  0  0
   -1.0491   64.6257   71.7752 H   0  0  0  0  0  0  0  0  0  0  0  0
   -0.6473   66.8974   70.8354 H   0  0  0  0  0  0  0  0  0  0  0  0
    0.3483   63.2965   73.3136 H   0  0  0  0  0  0  0  0  0  0  0  0
   -0.8198   62.0449   72.7910 H   0  0  0  0  0  0  0  0  0  0  0  0
    1.9662   61.7492   73.9191 H   0  0  0  0  0  0  0  0  0  0  0  0
    0.4835   60.7384   74.1765 H   0  0  0  0  0  0  0  0  0  0  0  0
    1.5299   58.8592   74.0107 H   0  0  0  0  0  0  0  0  0  0  0  0
    0.6104   58.4143   72.5332 H   0  0  0  0  0  0  0  0  0  0  0  0
    2.4048   58.3318   72.5332 H   0  0  0  0  0  0  0  0  0  0  0  0
    2.5308   59.9614   70.0051 H   0  0  0  0  0  0  0  0  0  0  0  0
    4.8627   60.4491   69.2396 H   0  0  0  0  0  0  0  0  0  0  0  0
    6.5329   61.3243   70.8989 H   0  0  0  0  0  0  0  0  0  0  0  0
    5.8073   61.6829   73.2309 H   0  0  0  0  0  0  0  0  0  0  0  0
  3  2  1  0
  3  1  1  0
  4  3  2  0
  5  1  1  0
  6  5  1  0
  7  6  2  0
  8  7  1  0
  9  8  2  0
 10  9  1  0
 11 10  2  0
 11  6  1  0
 12 11  1  0
 13 12  2  0
 14 12  1  0
 15 14  2  0
 16 15  1  0
 17 16  2  0
 18 17  1  0
 19 14  1  0
 19 18  2  0
 20  1  1  0
 21 20  1  0
 22 21  2  0
 23 22  1  0
 24 23  2  0
 25 24  1  0
 26 25  2  0
 26 21  1  0
 27 24  1  0
 28 27  1  0
 29 28  1  0
 30 29  1  0
 31 30  1  0
 32 30  1  0
 33 32  2  0
 34 33  1  0
 35 34  2  0
 36 35  1  0
 37 36  2  0
 37 32  1  0
  1 38  1  6
  5 39  1  0
  7 40  1  0
  8 41  1  0
  9 42  1  0
 10 43  1  0
 15 44  1  0
 16 45  1  0
 17 46  1  0
 18 47  1  0
 19 48  1  0
 20 49  1  0
 20 50  1  0
 22 51  1  0
 23 52  1  0
 25 53  1  0
 26 54  1  0
 28 55  1  0
 28 56  1  0
 29 57  1  0
 29 58  1  0
 31 59  1  0
 31 60  1  0
 31 61  1  0
 33 62  1  0
 34 63  1  0
 35 64  1  0
 36 65  1  0
M  CHG  1   2  -1
M  END
>  <score>  (5) 
-10.109

$$$$
=
     RDKit          3D

 65 68  0  0  0  0  0  0  0  0999 V2000
    0.9240   67.5630   68.0960 C   0  0  1  0  0  0  0  0  0  0  0  0
   -0.2710   66.7630   66.1810 O   0  0  0  0  0  1  0  0  0  0  0  0
   -0.4080   67.0830   67.4070 C   0  0  0  0  0  0  0  0  0  0  0  0
   -1.4460   67.0520   68.1270 O   0  0  0  0  0  0  0  0  0  0  0  0
    1.1320   69.0280   67.7800 N   0  0  0  0  0  0  0  0  0  0  0  0
    2.5050   69.3530   67.6530 C   0  0  0  0  0  0  0  0  0  0  0  0
    3.1630   69.9850   68.7220 C   0  0  0  0  0  0  0  0  0  0  0  0
    4.4860   70.4180   68.6020 C   0  0  0  0  0  0  0  0  0  0  0  0
    5.1690   70.2440   67.4020 C   0  0  0  0  0  0  0  0  0  0  0  0
    4.5310   69.6270   66.3270 C   0  0  0  0  0  0  0  0  0  0  0  0
    3.2070   69.1700   66.4480 C   0  0  0  0  0  0  0  0  0  0  0  0
    2.6230   68.5060   65.2540 C   0  0  0  0  0  0  0  0  0  0  0  0
    1.6760   69.0490   64.6820 O   0  0  0  0  0  0  0  0  0  0  0  0
    3.1940   67.2610   64.6690 C   0  0  0  0  0  0  0  0  0  0  0  0
    4.0210   67.2720   63.5400 C   0  0  0  0  0  0  0  0  0  0  0  0
    4.5030   66.0720   63.0100 C   0  0  0  0  0  0  0  0  0  0  0  0
    4.1500   64.8560   63.5940 C   0  0  0  0  0  0  0  0  0  0  0  0
    3.3110   64.8350   64.7060 C   0  0  0  0  0  0  0  0  0  0  0  0
    2.8290   66.0330   65.2390 C   0  0  0  0  0  0  0  0  0  0  0  0
    0.7740   67.3870   69.6130 C   0  0  0  0  0  0  0  0  0  0  0  0
    1.0900   65.9790   70.0750 C   0  0  0  0  0  0  0  0  0  0  0  0
    0.1390   65.2220   70.7680 C   0  0  0  0  0  0  0  0  0  0  0  0
    0.4430   63.9280   71.1970 C   0  0  0  0  0  0  0  0  0  0  0  0
    1.7000   63.3710   70.9500 C   0  0  0  0  0  0  0  0  0  0  0  0
    2.6580   64.1300   70.2780 C   0  0  0  0  0  0  0  0  0  0  0  0
    2.3540   65.4250   69.8460 C   0  0  0  0  0  0  0  0  0  0  0  0
    1.8650   62.0950   71.4160 O   0  0  0  0  0  0  0  0  0  0  0  0
    0.7100   61.4580   71.9690 C   0  0  0  0  0  0  0  0  0  0  0  0
    1.1460   60.6160   73.1760 C   0  0  0  0  0  0  0  0  0  0  0  0
    1.8330   61.4390   74.1980 N   0  0  0  0  0  0  0  0  0  0  0  0
    2.5130   60.6650   75.2420 C   0  0  0  0  0  0  0  0  0  0  0  0
    0.9370   62.3510   74.8130 C   0  0  0  0  0  0  0  0  0  0  0  0
    1.2270   63.7160   74.7440 C   0  0  0  0  0  0  0  0  0  0  0  0
    0.3690   64.6390   75.3390 C   0  0  0  0  0  0  0  0  0  0  0  0
   -0.7640   64.1800   75.9920 C   0  0  0  0  0  0  0  0  0  0  0  0
   -0.9870   62.8160   76.0190 C   0  0  0  0  0  0  0  0  0  0  0  0
   -0.1670   61.9040   75.4520 N   0  0  0  0  0  0  0  0  0  0  0  0
    1.7821   66.9790   67.7318 H   0  0  0  0  0  0  0  0  0  0  0  0
    0.3663   69.7082   67.6703 H   0  0  0  0  0  0  0  0  0  0  0  0
    2.6271   70.1415   69.6698 H   0  0  0  0  0  0  0  0  0  0  0  0
    4.9877   70.8964   69.4560 H   0  0  0  0  0  0  0  0  0  0  0  0
    6.2078   70.5918   67.3022 H   0  0  0  0  0  0  0  0  0  0  0  0
    5.0681   69.4966   65.3759 H   0  0  0  0  0  0  0  0  0  0  0  0
    4.2924   68.2280   63.0684 H   0  0  0  0  0  0  0  0  0  0  0  0
    5.1626   66.0868   62.1298 H   0  0  0  0  0  0  0  0  0  0  0  0
    4.5339   63.9134   63.1767 H   0  0  0  0  0  0  0  0  0  0  0  0
    3.0283   63.8757   65.1640 H   0  0  0  0  0  0  0  0  0  0  0  0
    2.1590   66.0128   66.1112 H   0  0  0  0  0  0  0  0  0  0  0  0
    1.4592   68.0844   70.1171 H   0  0  0  0  0  0  0  0  0  0  0  0
   -0.2764   67.5912   69.8678 H   0  0  0  0  0  0  0  0  0  0  0  0
   -0.8535   65.6483   70.9761 H   0  0  0  0  0  0  0  0  0  0  0  0
   -0.3158   63.3411   71.7353 H   0  0  0  0  0  0  0  0  0  0  0  0
    3.6560   63.7086   70.0871 H   0  0  0  0  0  0  0  0  0  0  0  0
    3.1184   66.0153   69.3195 H   0  0  0  0  0  0  0  0  0  0  0  0
   -0.0149   62.2200   72.2912 H   0  0  0  0  0  0  0  0  0  0  0  0
    0.2375   60.8141   71.2126 H   0  0  0  0  0  0  0  0  0  0  0  0
    0.2561   60.1546   73.6290 H   0  0  0  0  0  0  0  0  0  0  0  0
    1.8508   59.8490   72.8226 H   0  0  0  0  0  0  0  0  0  0  0  0
    2.1958   61.0261   76.2314 H   0  0  0  0  0  0  0  0  0  0  0  0
    2.2519   59.6014   75.1387 H   0  0  0  0  0  0  0  0  0  0  0  0
    3.6013   60.7870   75.1387 H   0  0  0  0  0  0  0  0  0  0  0  0
    2.1309   64.0615   74.2210 H   0  0  0  0  0  0  0  0  0  0  0  0
    0.5878   65.7160   75.2911 H   0  0  0  0  0  0  0  0  0  0  0  0
   -1.4637   64.8790   76.4736 H   0  0  0  0  0  0  0  0  0  0  0  0
   -1.8877   62.4505   76.5339 H   0  0  0  0  0  0  0  0  0  0  0  0
  3  2  1  0
  3  1  1  0
  4  3  2  0
  5  1  1  0
  6  5  1  0
  7  6  2  0
  8  7  1  0
  9  8  2  0
 10  9  1  0
 11 10  2  0
 11  6  1  0
 12 11  1  0
 13 12  2  0
 14 12  1  0
 15 14  2  0
 16 15  1  0
 17 16  2  0
 18 17  1  0
 19 14  1  0
 19 18  2  0
 20  1  1  0
 21 20  1  0
 22 21  2  0
 23 22  1  0
 24 23  2  0
 25 24  1  0
 26 25  2  0
 26 21  1  0
 27 24  1  0
 28 27  1  0
 29 28  1  0
 30 29  1  0
 31 30  1  0
 32 30  1  0
 33 32  2  0
 34 33  1  0
 35 34  2  0
 36 35  1  0
 37 36  2  0
 37 32  1  0
  1 38  1  6
  5 39  1  0
  7 40  1  0
  8 41  1  0
  9 42  1  0
 10 43  1  0
 15 44  1  0
 16 45  1  0
 17 46  1  0
 18 47  1  0
 19 48  1  0
 20 49  1  0
 20 50  1  0
 22 51  1  0
 23 52  1  0
 25 53  1  0
 26 54  1  0
 28 55  1  0
 28 56  1  0
 29 57  1  0
 29 58  1  0
 31 59  1  0
 31 60  1  0
 31 61  1  0
 33 62  1  0
 34 63  1  0
 35 64  1  0
 36 65  1  0
M  CHG  1   2  -1
M  END
>  <score>  (6) 
-9.968

$$$$
=
     RDKit          3D

 65 68  0  0  0  0  0  0  0  0999 V2000
    1.8330   61.6830   74.5280 C   0  0  1  0  0  0  0  0  0  0  0  0
    1.6020   61.5510   76.9080 O   0  0  0  0  0  1  0  0  0  0  0  0
    1.0210   61.9580   75.8480 C   0  0  0  0  0  0  0  0  0  0  0  0
   -0.0870   62.5520   75.7270 O   0  0  0  0  0  0  0  0  0  0  0  0
    2.7310   60.4860   74.7520 N   0  0  0  0  0  0  0  0  0  0  0  0
    2.5350   59.4860   73.7680 C   0  0  0  0  0  0  0  0  0  0  0  0
    1.6410   58.4330   74.0270 C   0  0  0  0  0  0  0  0  0  0  0  0
    1.4960   57.3700   73.1320 C   0  0  0  0  0  0  0  0  0  0  0  0
    2.2590   57.3310   71.9690 C   0  0  0  0  0  0  0  0  0  0  0  0
    3.1580   58.3620   71.6970 C   0  0  0  0  0  0  0  0  0  0  0  0
    3.2930   59.4440   72.5840 C   0  0  0  0  0  0  0  0  0  0  0  0
    4.2610   60.5020   72.1950 C   0  0  0  0  0  0  0  0  0  0  0  0
    5.3230   60.5860   72.8150 O   0  0  0  0  0  0  0  0  0  0  0  0
    4.0400   61.4040   71.0310 C   0  0  0  0  0  0  0  0  0  0  0  0
    3.1270   61.1060   70.0120 C   0  0  0  0  0  0  0  0  0  0  0  0
    2.9810   61.9700   68.9240 C   0  0  0  0  0  0  0  0  0  0  0  0
    3.7550   63.1270   68.8390 C   0  0  0  0  0  0  0  0  0  0  0  0
    4.6800   63.4210   69.8390 C   0  0  0  0  0  0  0  0  0  0  0  0
    4.8260   62.5600   70.9290 C   0  0  0  0  0  0  0  0  0  0  0  0
    0.8360   61.3650   73.4060 C   0  0  0  0  0  0  0  0  0  0  0  0
    0.7220   62.4820   72.3870 C   0  0  0  0  0  0  0  0  0  0  0  0
   -0.2670   62.4530   71.3990 C   0  0  0  0  0  0  0  0  0  0  0  0
   -0.3570   63.4830   70.4600 C   0  0  0  0  0  0  0  0  0  0  0  0
    0.5410   64.5520   70.4850 C   0  0  0  0  0  0  0  0  0  0  0  0
    1.5420   64.5750   71.4560 C   0  0  0  0  0  0  0  0  0  0  0  0
    1.6320   63.5450   72.3990 C   0  0  0  0  0  0  0  0  0  0  0  0
    0.3380   65.4970   69.5160 O   0  0  0  0  0  0  0  0  0  0  0  0
    1.1260   66.6880   69.6030 C   0  0  0  0  0  0  0  0  0  0  0  0
    1.1520   67.3600   68.2230 C   0  0  0  0  0  0  0  0  0  0  0  0
    1.2390   68.8340   68.3340 N   0  0  0  0  0  0  0  0  0  0  0  0
    0.2100   69.5600   67.5810 C   0  0  0  0  0  0  0  0  0  0  0  0
    2.5170   69.3070   67.9360 C   0  0  0  0  0  0  0  0  0  0  0  0
    2.9470   69.0390   66.6340 C   0  0  0  0  0  0  0  0  0  0  0  0
    4.1970   69.4870   66.2110 C   0  0  0  0  0  0  0  0  0  0  0  0
    4.9930   70.1960   67.0970 C   0  0  0  0  0  0  0  0  0  0  0  0
    4.5000   70.4250   68.3680 C   0  0  0  0  0  0  0  0  0  0  0  0
    3.2940   69.9970   68.8000 N   0  0  0  0  0  0  0  0  0  0  0  0
    2.4412   62.5584   74.2565 H   0  0  0  0  0  0  0  0  0  0  0  0
    3.4044   60.4076   75.5274 H   0  0  0  0  0  0  0  0  0  0  0  0
    1.0446   58.4460   74.9512 H   0  0  0  0  0  0  0  0  0  0  0  0
    0.7788   56.5641   73.3467 H   0  0  0  0  0  0  0  0  0  0  0  0
    2.1536   56.4906   71.2671 H   0  0  0  0  0  0  0  0  0  0  0  0
    3.7662   58.3281   70.7811 H   0  0  0  0  0  0  0  0  0  0  0  0
    2.5228   60.1886   70.0684 H   0  0  0  0  0  0  0  0  0  0  0  0
    2.2537   61.7371   68.1323 H   0  0  0  0  0  0  0  0  0  0  0  0
    3.6354   63.8073   67.9829 H   0  0  0  0  0  0  0  0  0  0  0  0
    5.2947   64.3306   69.7699 H   0  0  0  0  0  0  0  0  0  0  0  0
    5.5627   62.7907   71.7126 H   0  0  0  0  0  0  0  0  0  0  0  0
    1.1668   60.4514   72.8904 H   0  0  0  0  0  0  0  0  0  0  0  0
   -0.1536   61.2368   73.8689 H   0  0  0  0  0  0  0  0  0  0  0  0
   -0.9780   61.6145   71.3611 H   0  0  0  0  0  0  0  0  0  0  0  0
   -1.1441   63.4517   69.6922 H   0  0  0  0  0  0  0  0  0  0  0  0
    2.2630   65.4054   71.4806 H   0  0  0  0  0  0  0  0  0  0  0  0
    2.4273   63.5713   73.1585 H   0  0  0  0  0  0  0  0  0  0  0  0
    0.6821   67.3730   70.3404 H   0  0  0  0  0  0  0  0  0  0  0  0
    2.1498   66.4390   69.9190 H   0  0  0  0  0  0  0  0  0  0  0  0
    2.0249   66.9923   67.6637 H   0  0  0  0  0  0  0  0  0  0  0  0
    0.2163   67.1097   67.7017 H   0  0  0  0  0  0  0  0  0  0  0  0
   -0.4820   70.0482   68.2829 H   0  0  0  0  0  0  0  0  0  0  0  0
    0.6881   70.3219   66.9478 H   0  0  0  0  0  0  0  0  0  0  0  0
   -0.3475   68.8541   66.9478 H   0  0  0  0  0  0  0  0  0  0  0  0
    2.3007   68.4759   65.9447 H   0  0  0  0  0  0  0  0  0  0  0  0
    4.5469   69.2809   65.1887 H   0  0  0  0  0  0  0  0  0  0  0  0
    5.9854   70.5647   66.7983 H   0  0  0  0  0  0  0  0  0  0  0  0
    5.1289   70.9909   69.0711 H   0  0  0  0  0  0  0  0  0  0  0  0
  3  2  1  0
  3  1  1  0
  4  3  2  0
  5  1  1  0
  6  5  1  0
  7  6  2  0
  8  7  1  0
  9  8  2  0
 10  9  1  0
 11 10  2  0
 11  6  1  0
 12 11  1  0
 13 12  2  0
 14 12  1  0
 15 14  2  0
 16 15  1  0
 17 16  2  0
 18 17  1  0
 19 14  1  0
 19 18  2  0
 20  1  1  0
 21 20  1  0
 22 21  2  0
 23 22  1  0
 24 23  2  0
 25 24  1  0
 26 25  2  0
 26 21  1  0
 27 24  1  0
 28 27  1  0
 29 28  1  0
 30 29  1  0
 31 30  1  0
 32 30  1  0
 33 32  2  0
 34 33  1  0
 35 34  2  0
 36 35  1  0
 37 36  2  0
 37 32  1  0
  1 38  1  6
  5 39  1  0
  7 40  1  0
  8 41  1  0
  9 42  1  0
 10 43  1  0
 15 44  1  0
 16 45  1  0
 17 46  1  0
 18 47  1  0
 19 48  1  0
 20 49  1  0
 20 50  1  0
 22 51  1  0
 23 52  1  0
 25 53  1  0
 26 54  1  0
 28 55  1  0
 28 56  1  0
 29 57  1  0
 29 58  1  0
 31 59  1  0
 31 60  1  0
 31 61  1  0
 33 62  1  0
 34 63  1  0
 35 64  1  0
 36 65  1  0
M  CHG  1   2  -1
M  END
>  <score>  (7) 
-9.923

$$$$
=
     RDKit          3D

 65 68  0  0  0  0  0  0  0  0999 V2000
    1.5120   62.9730   74.3950 C   0  0  1  0  0  0  0  0  0  0  0  0
    1.1060   64.1710   76.4280 O   0  0  0  0  0  1  0  0  0  0  0  0
    0.5440   63.7470   75.3660 C   0  0  0  0  0  0  0  0  0  0  0  0
   -0.6560   63.8780   74.9940 O   0  0  0  0  0  0  0  0  0  0  0  0
    1.9210   61.6740   75.0540 N   0  0  0  0  0  0  0  0  0  0  0  0
    1.1990   60.5690   74.5400 C   0  0  0  0  0  0  0  0  0  0  0  0
   -0.1630   60.4300   74.8600 C   0  0  0  0  0  0  0  0  0  0  0  0
   -0.8870   59.3030   74.4650 C   0  0  0  0  0  0  0  0  0  0  0  0
   -0.2570   58.2840   73.7570 C   0  0  0  0  0  0  0  0  0  0  0  0
    1.0950   58.3990   73.4360 C   0  0  0  0  0  0  0  0  0  0  0  0
    1.8240   59.5400   73.8130 C   0  0  0  0  0  0  0  0  0  0  0  0
    3.2520   59.5780   73.4060 C   0  0  0  0  0  0  0  0  0  0  0  0
    4.0780   58.9730   74.0930 O   0  0  0  0  0  0  0  0  0  0  0  0
    3.7120   60.2410   72.1540 C   0  0  0  0  0  0  0  0  0  0  0  0
    4.8150   61.1040   72.1220 C   0  0  0  0  0  0  0  0  0  0  0  0
    5.1850   61.7270   70.9280 C   0  0  0  0  0  0  0  0  0  0  0  0
    4.4500   61.5050   69.7640 C   0  0  0  0  0  0  0  0  0  0  0  0
    3.3400   60.6630   69.7910 C   0  0  0  0  0  0  0  0  0  0  0  0
    2.9680   60.0380   70.9830 C   0  0  0  0  0  0  0  0  0  0  0  0
    0.7510   62.6660   73.0980 C   0  0  0  0  0  0  0  0  0  0  0  0
    0.9510   63.7270   72.0340 C   0  0  0  0  0  0  0  0  0  0  0  0
    2.0840   63.7160   71.2150 C   0  0  0  0  0  0  0  0  0  0  0  0
    2.2620   64.7030   70.2430 C   0  0  0  0  0  0  0  0  0  0  0  0
    1.3190   65.7200   70.0780 C   0  0  0  0  0  0  0  0  0  0  0  0
    0.1980   65.7470   70.9060 C   0  0  0  0  0  0  0  0  0  0  0  0
    0.0170   64.7570   71.8790 C   0  0  0  0  0  0  0  0  0  0  0  0
    1.6100   66.6180   69.0870 O   0  0  0  0  0  0  0  0  0  0  0  0
    0.4990   67.1720   68.3760 C   0  0  0  0  0  0  0  0  0  0  0  0
    0.8170   68.6350   68.0350 C   0  0  0  0  0  0  0  0  0  0  0  0
    1.3960   68.7670   66.6780 N   0  0  0  0  0  0  0  0  0  0  0  0
    1.3390   67.5420   65.8730 C   0  0  0  0  0  0  0  0  0  0  0  0
    2.7410   69.2160   66.7330 C   0  0  0  0  0  0  0  0  0  0  0  0
    3.5410   69.0550   65.5990 C   0  0  0  0  0  0  0  0  0  0  0  0
    4.8670   69.4830   65.6200 C   0  0  0  0  0  0  0  0  0  0  0  0
    5.3690   70.0650   66.7730 C   0  0  0  0  0  0  0  0  0  0  0  0
    4.5180   70.1930   67.8550 C   0  0  0  0  0  0  0  0  0  0  0  0
    3.2310   69.7820   67.8580 N   0  0  0  0  0  0  0  0  0  0  0  0
    2.4053   63.5758   74.1747 H   0  0  0  0  0  0  0  0  0  0  0  0
    2.6390   61.6017   75.7889 H   0  0  0  0  0  0  0  0  0  0  0  0
   -0.6673   61.2230   75.4316 H   0  0  0  0  0  0  0  0  0  0  0  0
   -1.9554   59.2208   74.7136 H   0  0  0  0  0  0  0  0  0  0  0  0
   -0.8232   57.3916   73.4519 H   0  0  0  0  0  0  0  0  0  0  0  0
    1.5951   57.5901   72.8832 H   0  0  0  0  0  0  0  0  0  0  0  0
    5.3914   61.2915   73.0399 H   0  0  0  0  0  0  0  0  0  0  0  0
    6.0588   62.3948   70.9058 H   0  0  0  0  0  0  0  0  0  0  0  0
    4.7464   61.9945   68.8246 H   0  0  0  0  0  0  0  0  0  0  0  0
    2.7573   60.4908   68.8740 H   0  0  0  0  0  0  0  0  0  0  0  0
    2.0853   59.3819   71.0035 H   0  0  0  0  0  0  0  0  0  0  0  0
    1.1038   61.7017   72.7034 H   0  0  0  0  0  0  0  0  0  0  0  0
   -0.3213   62.6396   73.3417 H   0  0  0  0  0  0  0  0  0  0  0  0
    2.8394   62.9257   71.3368 H   0  0  0  0  0  0  0  0  0  0  0  0
    3.1545   64.6791   69.6005 H   0  0  0  0  0  0  0  0  0  0  0  0
   -0.5468   66.5488   70.7945 H   0  0  0  0  0  0  0  0  0  0  0  0
   -0.8697   64.7893   72.5291 H   0  0  0  0  0  0  0  0  0  0  0  0
    0.3311   66.6034   67.4494 H   0  0  0  0  0  0  0  0  0  0  0  0
   -0.4084   67.1189   68.9956 H   0  0  0  0  0  0  0  0  0  0  0  0
   -0.1114   69.2228   68.0854 H   0  0  0  0  0  0  0  0  0  0  0  0
    1.5565   69.0038   68.7611 H   0  0  0  0  0  0  0  0  0  0  0  0
    1.2983   66.6673   66.5388 H   0  0  0  0  0  0  0  0  0  0  0  0
    0.4408   67.5618   65.2383 H   0  0  0  0  0  0  0  0  0  0  0  0
    2.2352   67.4783   65.2383 H   0  0  0  0  0  0  0  0  0  0  0  0
    3.1253   68.5917   64.6921 H   0  0  0  0  0  0  0  0  0  0  0  0
    5.5065   69.3605   64.7334 H   0  0  0  0  0  0  0  0  0  0  0  0
    6.4109   70.4139   66.8257 H   0  0  0  0  0  0  0  0  0  0  0  0
    4.9132   70.6583   68.7701 H   0  0  0  0  0  0  0  0  0  0  0  0
  3  2  1  0
  3  1  1  0
  4  3  2  0
  5  1  1  0
  6  5  1  0
  7  6  2  0
  8  7  1  0
  9  8  2  0
 10  9  1  0
 11 10  2  0
 11  6  1  0
 12 11  1  0
 13 12  2  0
 14 12  1  0
 15 14  2  0
 16 15  1  0
 17 16  2  0
 18 17  1  0
 19 14  1  0
 19 18  2  0
 20  1  1  0
 21 20  1  0
 22 21  2  0
 23 22  1  0
 24 23  2  0
 25 24  1  0
 26 25  2  0
 26 21  1  0
 27 24  1  0
 28 27  1  0
 29 28  1  0
 30 29  1  0
 31 30  1  0
 32 30  1  0
 33 32  2  0
 34 33  1  0
 35 34  2  0
 36 35  1  0
 37 36  2  0
 37 32  1  0
  1 38  1  6
  5 39  1  0
  7 40  1  0
  8 41  1  0
  9 42  1  0
 10 43  1  0
 15 44  1  0
 16 45  1  0
 17 46  1  0
 18 47  1  0
 19 48  1  0
 20 49  1  0
 20 50  1  0
 22 51  1  0
 23 52  1  0
 25 53  1  0
 26 54  1  0
 28 55  1  0
 28 56  1  0
 29 57  1  0
 29 58  1  0
 31 59  1  0
 31 60  1  0
 31 61  1  0
 33 62  1  0
 34 63  1  0
 35 64  1  0
 36 65  1  0
M  CHG  1   2  -1
M  END
>  <score>  (8) 
-9.787

$$$$
=
     RDKit          3D

 65 68  0  0  0  0  0  0  0  0999 V2000
    0.7060   67.1570   68.3070 C   0  0  1  0  0  0  0  0  0  0  0  0
   -1.6380   67.0680   68.7910 O   0  0  0  0  0  1  0  0  0  0  0  0
   -0.7860   66.9420   67.8510 C   0  0  0  0  0  0  0  0  0  0  0  0
   -0.9810   66.6870   66.6290 O   0  0  0  0  0  0  0  0  0  0  0  0
    1.0960   68.5910   68.0240 N   0  0  0  0  0  0  0  0  0  0  0  0
    1.9830   68.6910   66.9240 C   0  0  0  0  0  0  0  0  0  0  0  0
    1.7360   67.9260   65.7710 C   0  0  0  0  0  0  0  0  0  0  0  0
    2.6390   67.9120   64.7050 C   0  0  0  0  0  0  0  0  0  0  0  0
    3.8160   68.6510   64.7810 C   0  0  0  0  0  0  0  0  0  0  0  0
    4.0830   69.4100   65.9180 C   0  0  0  0  0  0  0  0  0  0  0  0
    3.1690   69.4440   66.9860 C   0  0  0  0  0  0  0  0  0  0  0  0
    3.5340   70.3000   68.1440 C   0  0  0  0  0  0  0  0  0  0  0  0
    2.6290   70.7850   68.8270 O   0  0  0  0  0  0  0  0  0  0  0  0
    4.9450   70.5220   68.5650 C   0  0  0  0  0  0  0  0  0  0  0  0
    5.9730   70.7710   67.6480 C   0  0  0  0  0  0  0  0  0  0  0  0
    7.2870   70.9390   68.0930 C   0  0  0  0  0  0  0  0  0  0  0  0
    7.5840   70.8440   69.4520 C   0  0  0  0  0  0  0  0  0  0  0  0
    6.5700   70.5770   70.3700 C   0  0  0  0  0  0  0  0  0  0  0  0
    5.2560   70.4110   69.9280 C   0  0  0  0  0  0  0  0  0  0  0  0
    0.7920   66.8960   69.8170 C   0  0  0  0  0  0  0  0  0  0  0  0
    1.1110   65.4520   70.1470 C   0  0  0  0  0  0  0  0  0  0  0  0
    2.4000   64.9430   69.9630 C   0  0  0  0  0  0  0  0  0  0  0  0
    2.6810   63.6070   70.2630 C   0  0  0  0  0  0  0  0  0  0  0  0
    1.6820   62.7580   70.7410 C   0  0  0  0  0  0  0  0  0  0  0  0
    0.3890   63.2560   70.9060 C   0  0  0  0  0  0  0  0  0  0  0  0
    0.1070   64.5930   70.6080 C   0  0  0  0  0  0  0  0  0  0  0  0
    2.0910   61.4780   71.0030 O   0  0  0  0  0  0  0  0  0  0  0  0
    3.3530   61.0830   70.4570 C   0  0  0  0  0  0  0  0  0  0  0  0
    4.2350   60.5560   71.5970 C   0  0  0  0  0  0  0  0  0  0  0  0
    4.0790   59.0940   71.7790 N   0  0  0  0  0  0  0  0  0  0  0  0
    3.4640   58.4040   70.6400 C   0  0  0  0  0  0  0  0  0  0  0  0
    3.3350   58.7960   72.9510 C   0  0  0  0  0  0  0  0  0  0  0  0
    3.9420   59.0030   74.1920 C   0  0  0  0  0  0  0  0  0  0  0  0
    3.2400   58.7200   75.3620 C   0  0  0  0  0  0  0  0  0  0  0  0
    1.9440   58.2360   75.2700 C   0  0  0  0  0  0  0  0  0  0  0  0
    1.4090   58.0580   74.0080 C   0  0  0  0  0  0  0  0  0  0  0  0
    2.0730   58.3230   72.8610 N   0  0  0  0  0  0  0  0  0  0  0  0
    1.3797   66.4750   67.7676 H   0  0  0  0  0  0  0  0  0  0  0  0
    0.7570   69.3983   68.5664 H   0  0  0  0  0  0  0  0  0  0  0  0
    0.8152   67.3276   65.7068 H   0  0  0  0  0  0  0  0  0  0  0  0
    2.4198   67.3172   63.8060 H   0  0  0  0  0  0  0  0  0  0  0  0
    4.5325   68.6357   63.9465 H   0  0  0  0  0  0  0  0  0  0  0  0
    5.0169   69.9878   65.9810 H   0  0  0  0  0  0  0  0  0  0  0  0
    5.7457   70.8346   66.5736 H   0  0  0  0  0  0  0  0  0  0  0  0
    8.0890   71.1467   67.3694 H   0  0  0  0  0  0  0  0  0  0  0  0
    8.6188   70.9798   69.7996 H   0  0  0  0  0  0  0  0  0  0  0  0
    6.8046   70.4971   71.4417 H   0  0  0  0  0  0  0  0  0  0  0  0
    4.4592   70.1916   70.6539 H   0  0  0  0  0  0  0  0  0  0  0  0
    1.5810   67.5355   70.2396 H   0  0  0  0  0  0  0  0  0  0  0  0
   -0.1937   67.1240   70.2487 H   0  0  0  0  0  0  0  0  0  0  0  0
    3.1972   65.5972   69.5802 H   0  0  0  0  0  0  0  0  0  0  0  0
    3.7010   63.2206   70.1207 H   0  0  0  0  0  0  0  0  0  0  0  0
   -0.4108   62.5951   71.2715 H   0  0  0  0  0  0  0  0  0  0  0  0
   -0.9167   64.9741   70.7376 H   0  0  0  0  0  0  0  0  0  0  0  0
    3.2017   60.2910   69.7088 H   0  0  0  0  0  0  0  0  0  0  0  0
    3.8388   61.9425   69.9720 H   0  0  0  0  0  0  0  0  0  0  0  0
    5.2874   60.7761   71.3645 H   0  0  0  0  0  0  0  0  0  0  0  0
    3.9250   61.0527   72.5283 H   0  0  0  0  0  0  0  0  0  0  0  0
    2.7745   57.6304   71.0088 H   0  0  0  0  0  0  0  0  0  0  0  0
    2.9077   59.1297   70.0285 H   0  0  0  0  0  0  0  0  0  0  0  0
    4.2487   57.9345   70.0285 H   0  0  0  0  0  0  0  0  0  0  0  0
    4.9710   59.3882   74.2455 H   0  0  0  0  0  0  0  0  0  0  0  0
    3.7076   58.8784   76.3450 H   0  0  0  0  0  0  0  0  0  0  0  0
    1.3603   58.0012   76.1723 H   0  0  0  0  0  0  0  0  0  0  0  0
    0.3797   57.6773   73.9326 H   0  0  0  0  0  0  0  0  0  0  0  0
  3  2  1  0
  3  1  1  0
  4  3  2  0
  5  1  1  0
  6  5  1  0
  7  6  2  0
  8  7  1  0
  9  8  2  0
 10  9  1  0
 11 10  2  0
 11  6  1  0
 12 11  1  0
 13 12  2  0
 14 12  1  0
 15 14  2  0
 16 15  1  0
 17 16  2  0
 18 17  1  0
 19 14  1  0
 19 18  2  0
 20  1  1  0
 21 20  1  0
 22 21  2  0
 23 22  1  0
 24 23  2  0
 25 24  1  0
 26 25  2  0
 26 21  1  0
 27 24  1  0
 28 27  1  0
 29 28  1  0
 30 29  1  0
 31 30  1  0
 32 30  1  0
 33 32  2  0
 34 33  1  0
 35 34  2  0
 36 35  1  0
 37 36  2  0
 37 32  1  0
  1 38  1  6
  5 39  1  0
  7 40  1  0
  8 41  1  0
  9 42  1  0
 10 43  1  0
 15 44  1  0
 16 45  1  0
 17 46  1  0
 18 47  1  0
 19 48  1  0
 20 49  1  0
 20 50  1  0
 22 51  1  0
 23 52  1  0
 25 53  1  0
 26 54  1  0
 28 55  1  0
 28 56  1  0
 29 57  1  0
 29 58  1  0
 31 59  1  0
 31 60  1  0
 31 61  1  0
 33 62  1  0
 34 63  1  0
 35 64  1  0
 36 65  1  0
M  CHG  1   2  -1
M  END
>  <score>  (9) 
-9.686

$$$$
