=
     RDKit          3D

 12 11  0  0  0  0  0  0  0  0999 V2000
    6.2730   70.1580   67.1040 C   0  0  0  0  0  0  0  0  0  0  0  0
    6.1460   71.1490   68.5720 S   0  0  0  0  0  6  0  0  0  0  0  0
    5.0130   70.5630   69.2830 O   0  0  0  0  0  0  0  0  0  0  0  0
    5.9140   72.4900   68.0410 O   0  0  0  0  0  0  0  0  0  0  0  0
    7.4450   70.9620   69.2150 O   0  0  0  0  0  1  0  0  0  0  0  0
    4.8980   69.8000   66.5760 C   0  0  0  0  0  0  0  0  0  0  0  0
    4.9750   69.3970   64.7930 S   0  0  0  0  0  0  0  0  0  0  0  0
    6.8194   70.7224   66.3340 H   0  0  0  0  0  0  0  0  0  0  0  0
    6.8089   69.2295   67.3505 H   0  0  0  0  0  0  0  0  0  0  0  0
    4.5152   68.9283   67.1271 H   0  0  0  0  0  0  0  0  0  0  0  0
    4.2300   70.6628   66.7151 H   0  0  0  0  0  0  0  0  0  0  0  0
    5.2305   68.0600   64.6376 H   0  0  0  0  0  0  0  0  0  0  0  0
  2  1  1  0
  3  2  2  0
  4  2  2  0
  5  2  1  0
  6  1  1  0
  7  6  1  0
  1  8  1  0
  1  9  1  0
  6 10  1  0
  6 11  1  0
  7 12  1  0
M  CHG  1   5  -1
M  END
>  <score>  (1) 
-4.057

$$$$
=
     RDKit          3D

 12 11  0  0  0  0  0  0  0  0999 V2000
    5.7530   70.1650   67.0230 C   0  0  0  0  0  0  0  0  0  0  0  0
    5.9840   71.0750   68.5300 S   0  0  0  0  0  6  0  0  0  0  0  0
    5.8900   72.4700   68.1050 O   0  0  0  0  0  0  0  0  0  0  0  0
    7.3110   70.6510   68.9670 O   0  0  0  0  0  0  0  0  0  0  0  0
    4.8840   70.6100   69.3730 O   0  0  0  0  0  1  0  0  0  0  0  0
    4.3120   69.7190   66.8790 C   0  0  0  0  0  0  0  0  0  0  0  0
    3.9900   69.1090   65.1850 S   0  0  0  0  0  0  0  0  0  0  0  0
    6.0189   70.8066   66.1700 H   0  0  0  0  0  0  0  0  0  0  0  0
    6.3971   69.2737   67.0472 H   0  0  0  0  0  0  0  0  0  0  0  0
    4.1105   68.9113   67.5980 H   0  0  0  0  0  0  0  0  0  0  0  0
    3.6545   70.5785   67.0762 H   0  0  0  0  0  0  0  0  0  0  0  0
    3.3512   67.8988   65.2492 H   0  0  0  0  0  0  0  0  0  0  0  0
  2  1  1  0
  3  2  2  0
  4  2  2  0
  5  2  1  0
  6  1  1  0
  7  6  1  0
  1  8  1  0
  1  9  1  0
  6 10  1  0
  6 11  1  0
  7 12  1  0
M  CHG  1   5  -1
M  END
>  <score>  (2) 
-3.978

$$$$
=
     RDKit          3D

 12 11  0  0  0  0  0  0  0  0999 V2000
   -0.2170   69.1990   67.3740 C   0  0  0  0  0  0  0  0  0  0  0  0
   -1.3140   68.0230   66.6210 S   0  0  0  0  0  6  0  0  0  0  0  0
   -0.5140   66.8030   66.5530 O   0  0  0  0  0  0  0  0  0  0  0  0
   -1.6140   68.6370   65.3300 O   0  0  0  0  0  0  0  0  0  0  0  0
   -2.4410   67.9740   67.5510 O   0  0  0  0  0  1  0  0  0  0  0  0
    1.1010   68.5460   67.7410 C   0  0  0  0  0  0  0  0  0  0  0  0
    2.3860   68.9420   66.5000 S   0  0  0  0  0  0  0  0  0  0  0  0
   -0.0282   70.0204   66.6671 H   0  0  0  0  0  0  0  0  0  0  0  0
   -0.6875   69.5840   68.2907 H   0  0  0  0  0  0  0  0  0  0  0  0
    1.4245   68.9139   68.7259 H   0  0  0  0  0  0  0  0  0  0  0  0
    0.9600   67.4554   67.7687 H   0  0  0  0  0  0  0  0  0  0  0  0
    3.5439   69.2988   67.1395 H   0  0  0  0  0  0  0  0  0  0  0  0
  2  1  1  0
  3  2  2  0
  4  2  2  0
  5  2  1  0
  6  1  1  0
  7  6  1  0
  1  8  1  0
  1  9  1  0
  6 10  1  0
  6 11  1  0
  7 12  1  0
M  CHG  1   5  -1
M  END
>  <score>  (3) 
-3.542

$$$$
=
     RDKit          3D

 12 11  0  0  0  0  0  0  0  0999 V2000
    0.1440   68.8540   67.5330 C   0  0  0  0  0  0  0  0  0  0  0  0
   -0.6990   67.3140   67.2720 S   0  0  0  0  0  6  0  0  0  0  0  0
   -2.0980   67.7090   67.1320 O   0  0  0  0  0  0  0  0  0  0  0  0
   -0.3890   66.5620   68.4850 O   0  0  0  0  0  0  0  0  0  0  0  0
   -0.0780   66.7940   66.0550 O   0  0  0  0  0  1  0  0  0  0  0  0
    1.5870   68.6170   67.9310 C   0  0  0  0  0  0  0  0  0  0  0  0
    2.7180   69.0890   66.5730 S   0  0  0  0  0  0  0  0  0  0  0  0
    0.1182   69.4413   66.6033 H   0  0  0  0  0  0  0  0  0  0  0  0
   -0.3606   69.3990   68.3444 H   0  0  0  0  0  0  0  0  0  0  0  0
    1.8198   69.2201   68.8210 H   0  0  0  0  0  0  0  0  0  0  0  0
    1.7227   67.5473   68.1487 H   0  0  0  0  0  0  0  0  0  0  0  0
    3.8853   69.5761   67.0994 H   0  0  0  0  0  0  0  0  0  0  0  0
  2  1  1  0
  3  2  2  0
  4  2  2  0
  5  2  1  0
  6  1  1  0
  7  6  1  0
  1  8  1  0
  1  9  1  0
  6 10  1  0
  6 11  1  0
  7 12  1  0
M  CHG  1   5  -1
M  END
>  <score>  (4) 
-3.5

$$$$
=
     RDKit          3D

 12 11  0  0  0  0  0  0  0  0999 V2000
    4.6300   69.0560   62.9090 C   0  0  0  0  0  0  0  0  0  0  0  0
    3.4240   68.2460   61.8870 S   0  0  0  0  0  6  0  0  0  0  0  0
    2.2370   68.1930   62.7370 O   0  0  0  0  0  0  0  0  0  0  0  0
    4.0450   66.9520   61.6140 O   0  0  0  0  0  0  0  0  0  0  0  0
    3.3180   69.1310   60.7290 O   0  0  0  0  0  1  0  0  0  0  0  0
    4.8090   68.3170   64.2190 C   0  0  0  0  0  0  0  0  0  0  0  0
    4.3700   69.3910   65.6330 S   0  0  0  0  0  0  0  0  0  0  0  0
    5.5924   69.0851   62.3770 H   0  0  0  0  0  0  0  0  0  0  0  0
    4.2807   70.0765   63.1249 H   0  0  0  0  0  0  0  0  0  0  0  0
    4.1593   67.4294   64.2245 H   0  0  0  0  0  0  0  0  0  0  0  0
    5.8635   68.0190   64.3155 H   0  0  0  0  0  0  0  0  0  0  0  0
    4.6382   68.7349   66.8054 H   0  0  0  0  0  0  0  0  0  0  0  0
  2  1  1  0
  3  2  2  0
  4  2  2  0
  5  2  1  0
  6  1  1  0
  7  6  1  0
  1  8  1  0
  1  9  1  0
  6 10  1  0
  6 11  1  0
  7 12  1  0
M  CHG  1   5  -1
M  END
>  <score>  (5) 
-3.496

$$$$
=
     RDKit          3D

 12 11  0  0  0  0  0  0  0  0999 V2000
    3.5880   67.4620   64.1600 C   0  0  0  0  0  0  0  0  0  0  0  0
    4.2190   67.2180   62.5180 S   0  0  0  0  0  6  0  0  0  0  0  0
    5.5120   67.8970   62.5440 O   0  0  0  0  0  0  0  0  0  0  0  0
    3.2050   67.8550   61.6810 O   0  0  0  0  0  0  0  0  0  0  0  0
    4.2860   65.7630   62.3980 O   0  0  0  0  0  1  0  0  0  0  0  0
    3.3890   68.9370   64.4470 C   0  0  0  0  0  0  0  0  0  0  0  0
    4.5220   69.4960   65.7700 S   0  0  0  0  0  0  0  0  0  0  0  0
    2.6232   66.9426   64.2564 H   0  0  0  0  0  0  0  0  0  0  0  0
    4.3144   67.0577   64.8803 H   0  0  0  0  0  0  0  0  0  0  0  0
    3.5899   69.5134   63.5319 H   0  0  0  0  0  0  0  0  0  0  0  0
    2.3522   69.0965   64.7781 H   0  0  0  0  0  0  0  0  0  0  0  0
    3.9671   69.2222   66.9923 H   0  0  0  0  0  0  0  0  0  0  0  0
  2  1  1  0
  3  2  2  0
  4  2  2  0
  5  2  1  0
  6  1  1  0
  7  6  1  0
  1  8  1  0
  1  9  1  0
  6 10  1  0
  6 11  1  0
  7 12  1  0
M  CHG  1   5  -1
M  END
>  <score>  (6) 
-3.485

$$$$
=
     RDKit          3D

 12 11  0  0  0  0  0  0  0  0999 V2000
    1.5080   68.6670   66.5060 C   0  0  0  0  0  0  0  0  0  0  0  0
   -0.1840   68.2530   66.1590 S   0  0  0  0  0  6  0  0  0  0  0  0
   -0.2820   66.8520   66.5580 O   0  0  0  0  0  0  0  0  0  0  0  0
   -0.2910   68.4950   64.7230 O   0  0  0  0  0  0  0  0  0  0  0  0
   -0.9350   69.1890   66.9950 O   0  0  0  0  0  1  0  0  0  0  0  0
    2.3030   68.8000   65.2230 C   0  0  0  0  0  0  0  0  0  0  0  0
    4.0420   69.2390   65.5820 S   0  0  0  0  0  0  0  0  0  0  0  0
    1.5412   69.6216   67.0515 H   0  0  0  0  0  0  0  0  0  0  0  0
    1.9503   67.8636   67.1134 H   0  0  0  0  0  0  0  0  0  0  0  0
    2.2767   67.8431   64.6811 H   0  0  0  0  0  0  0  0  0  0  0  0
    1.8561   69.5976   64.6113 H   0  0  0  0  0  0  0  0  0  0  0  0
    4.2304   69.2866   66.9382 H   0  0  0  0  0  0  0  0  0  0  0  0
  2  1  1  0
  3  2  2  0
  4  2  2  0
  5  2  1  0
  6  1  1  0
  7  6  1  0
  1  8  1  0
  1  9  1  0
  6 10  1  0
  6 11  1  0
  7 12  1  0
M  CHG  1   5  -1
M  END
>  <score>  (7) 
-3.472

$$$$
=
     RDKit          3D

 12 11  0  0  0  0  0  0  0  0999 V2000
    0.0270   68.7200   66.7530 C   0  0  0  0  0  0  0  0  0  0  0  0
    0.7830   68.1110   65.2660 S   0  0  0  0  0  6  0  0  0  0  0  0
    0.9190   66.6780   65.5150 O   0  0  0  0  0  0  0  0  0  0  0  0
    2.0420   68.8500   65.2130 O   0  0  0  0  0  0  0  0  0  0  0  0
   -0.1820   68.4710   64.2290 O   0  0  0  0  0  1  0  0  0  0  0  0
   -1.4820   68.7380   66.6210 C   0  0  0  0  0  0  0  0  0  0  0  0
   -2.2150   67.2380   67.3680 S   0  0  0  0  0  0  0  0  0  0  0  0
    0.3077   68.0681   67.5934 H   0  0  0  0  0  0  0  0  0  0  0  0
    0.3775   69.7473   66.9315 H   0  0  0  0  0  0  0  0  0  0  0  0
   -1.8786   69.6270   67.1332 H   0  0  0  0  0  0  0  0  0  0  0  0
   -1.7430   68.7644   65.5527 H   0  0  0  0  0  0  0  0  0  0  0  0
   -2.1664   67.3375   68.7335 H   0  0  0  0  0  0  0  0  0  0  0  0
  2  1  1  0
  3  2  2  0
  4  2  2  0
  5  2  1  0
  6  1  1  0
  7  6  1  0
  1  8  1  0
  1  9  1  0
  6 10  1  0
  6 11  1  0
  7 12  1  0
M  CHG  1   5  -1
M  END
>  <score>  (8) 
-3.45

$$$$
=
     RDKit          3D

 12 11  0  0  0  0  0  0  0  0999 V2000
    2.2600   68.7650   64.9480 C   0  0  0  0  0  0  0  0  0  0  0  0
    0.7430   68.0690   65.5550 S   0  0  0  0  0  6  0  0  0  0  0  0
   -0.2580   68.5530   64.6070 O   0  0  0  0  0  0  0  0  0  0  0  0
    0.6420   68.6290   66.9000 O   0  0  0  0  0  0  0  0  0  0  0  0
    0.9940   66.6290   65.5080 O   0  0  0  0  0  1  0  0  0  0  0  0
    3.1700   69.1540   66.0960 C   0  0  0  0  0  0  0  0  0  0  0  0
    4.8640   69.4890   65.4930 S   0  0  0  0  0  0  0  0  0  0  0  0
    2.7712   68.0221   64.3182 H   0  0  0  0  0  0  0  0  0  0  0  0
    2.0255   69.6662   64.3625 H   0  0  0  0  0  0  0  0  0  0  0  0
    2.7737   70.0586   66.5805 H   0  0  0  0  0  0  0  0  0  0  0  0
    3.2084   68.3220   66.8145 H   0  0  0  0  0  0  0  0  0  0  0  0
    5.7047   69.6552   66.5619 H   0  0  0  0  0  0  0  0  0  0  0  0
  2  1  1  0
  3  2  2  0
  4  2  2  0
  5  2  1  0
  6  1  1  0
  7  6  1  0
  1  8  1  0
  1  9  1  0
  6 10  1  0
  6 11  1  0
  7 12  1  0
M  CHG  1   5  -1
M  END
>  <score>  (9) 
-3.402

$$$$
