=
     RDKit          3D

 41 41  0  0  0  0  0  0  0  0999 V2000
    2.6030   69.6110   67.4110 C   0  0  0  0  0  0  0  0  0  0  0  0
    3.5620   70.1820   68.2400 C   0  0  0  0  0  0  0  0  0  0  0  0
    4.8840   70.2390   67.8070 C   0  0  0  0  0  0  0  0  0  0  0  0
    5.2380   69.7180   66.5590 C   0  0  0  0  0  0  0  0  0  0  0  0
    4.2670   69.1590   65.7060 C   0  0  0  0  0  0  0  0  0  0  0  0
    2.9330   69.1470   66.1370 C   0  0  0  0  0  0  0  0  0  0  0  0
    4.6940   68.5080   64.4030 C   0  0  2  0  0  0  0  0  0  0  0  0
    5.3420   69.4540   63.3870 C   0  0  0  0  0  0  0  0  0  0  0  0
    3.5420   67.7170   63.7810 N   0  0  0  0  0  4  0  0  0  0  0  0
    3.1130   68.1570   62.4040 C   0  0  0  0  0  0  0  0  0  0  0  0
    3.7270   66.2300   63.8550 C   0  0  0  0  0  0  0  0  0  0  0  0
    1.2880   69.5460   67.8910 O   0  0  0  0  0  0  0  0  0  0  0  0
   -0.4550   68.1280   67.3270 N   0  0  0  0  0  0  0  0  0  0  0  0
    0.7320   68.2700   68.0320 C   0  0  0  0  0  0  0  0  0  0  0  0
    1.2420   67.3730   68.7020 O   0  0  0  0  0  0  0  0  0  0  0  0
   -1.2240   66.9030   67.4780 C   0  0  0  0  0  0  0  0  0  0  0  0
   -2.3000   68.8100   65.8220 C   0  0  0  0  0  0  0  0  0  0  0  0
   -1.1110   69.2510   66.6600 C   0  0  0  0  0  0  0  0  0  0  0  0
    3.2801   70.5833   69.2246 H   0  0  0  0  0  0  0  0  0  0  0  0
    5.6521   70.6953   68.4487 H   0  0  0  0  0  0  0  0  0  0  0  0
    6.2900   69.7451   66.2388 H   0  0  0  0  0  0  0  0  0  0  0  0
    2.1442   68.7708   65.4690 H   0  0  0  0  0  0  0  0  0  0  0  0
    5.4987   67.8115   64.6812 H   0  0  0  0  0  0  0  0  0  0  0  0
    5.8858   70.2478   63.9201 H   0  0  0  0  0  0  0  0  0  0  0  0
    6.0437   68.8891   62.7557 H   0  0  0  0  0  0  0  0  0  0  0  0
    4.5618   69.9043   62.7557 H   0  0  0  0  0  0  0  0  0  0  0  0
    2.7500   67.9608   64.3927 H   0  0  0  0  0  0  0  0  0  0  0  0
    2.3475   68.9421   62.4918 H   0  0  0  0  0  0  0  0  0  0  0  0
    3.9823   68.5519   61.8578 H   0  0  0  0  0  0  0  0  0  0  0  0
    2.6962   67.2979   61.8578 H   0  0  0  0  0  0  0  0  0  0  0  0
    3.7659   65.9173   64.9089 H   0  0  0  0  0  0  0  0  0  0  0  0
    2.8841   65.7303   63.3552 H   0  0  0  0  0  0  0  0  0  0  0  0
    4.6666   65.9521   63.3552 H   0  0  0  0  0  0  0  0  0  0  0  0
   -1.3606   66.6853   68.5476 H   0  0  0  0  0  0  0  0  0  0  0  0
   -2.2072   67.0260   67.0003 H   0  0  0  0  0  0  0  0  0  0  0  0
   -0.6858   66.0710   67.0003 H   0  0  0  0  0  0  0  0  0  0  0  0
   -3.1229   68.5048   66.4851 H   0  0  0  0  0  0  0  0  0  0  0  0
   -2.6311   69.6451   65.1872 H   0  0  0  0  0  0  0  0  0  0  0  0
   -2.0065   67.9609   65.1872 H   0  0  0  0  0  0  0  0  0  0  0  0
   -0.3811   69.7482   66.0042 H   0  0  0  0  0  0  0  0  0  0  0  0
   -1.4827   69.9338   67.4382 H   0  0  0  0  0  0  0  0  0  0  0  0
  2  1  2  0
  3  2  1  0
  4  3  2  0
  5  4  1  0
  6  5  2  0
  6  1  1  0
  7  5  1  0
  8  7  1  0
  9  7  1  0
 10  9  1  0
 11  9  1  0
 12  1  1  0
 14 13  1  0
 14 12  1  0
 15 14  2  0
 16 13  1  0
 18 17  1  0
 18 13  1  0
  2 19  1  0
  3 20  1  0
  4 21  1  0
  6 22  1  0
  7 23  1  1
  8 24  1  0
  8 25  1  0
  8 26  1  0
  9 27  1  0
 10 28  1  0
 10 29  1  0
 10 30  1  0
 11 31  1  0
 11 32  1  0
 11 33  1  0
 16 34  1  0
 16 35  1  0
 16 36  1  0
 17 37  1  0
 17 38  1  0
 17 39  1  0
 18 40  1  0
 18 41  1  0
M  CHG  1   9   1
M  END
>  <score>  (1) 
-8.039

$$$$
=
     RDKit          3D

 41 41  0  0  0  0  0  0  0  0999 V2000
    2.8100   69.2430   67.0630 C   0  0  0  0  0  0  0  0  0  0  0  0
    4.0220   69.8660   67.3370 C   0  0  0  0  0  0  0  0  0  0  0  0
    5.0140   69.8780   66.3590 C   0  0  0  0  0  0  0  0  0  0  0  0
    4.7910   69.2610   65.1250 C   0  0  0  0  0  0  0  0  0  0  0  0
    3.5580   68.6480   64.8350 C   0  0  0  0  0  0  0  0  0  0  0  0
    2.5530   68.6810   65.8120 C   0  0  0  0  0  0  0  0  0  0  0  0
    3.3800   67.8970   63.5280 C   0  0  2  0  0  0  0  0  0  0  0  0
    4.6500   67.2430   62.9770 C   0  0  0  0  0  0  0  0  0  0  0  0
    2.6980   68.7770   62.4780 N   0  0  0  0  0  4  0  0  0  0  0  0
    3.2880   68.7190   61.0910 C   0  0  0  0  0  0  0  0  0  0  0  0
    1.2050   68.6300   62.4500 C   0  0  0  0  0  0  0  0  0  0  0  0
    1.8460   69.2270   68.0800 O   0  0  0  0  0  0  0  0  0  0  0  0
    0.2550   67.5730   68.4000 N   0  0  0  0  0  0  0  0  0  0  0  0
    0.5770   68.7490   67.7360 C   0  0  0  0  0  0  0  0  0  0  0  0
   -0.1710   69.3110   66.9380 O   0  0  0  0  0  0  0  0  0  0  0  0
   -0.9730   66.8790   68.0520 C   0  0  0  0  0  0  0  0  0  0  0  0
    0.5460   66.0630   70.3410 C   0  0  0  0  0  0  0  0  0  0  0  0
    1.2190   66.8510   69.2290 C   0  0  0  0  0  0  0  0  0  0  0  0
    4.1955   70.3431   68.3129 H   0  0  0  0  0  0  0  0  0  0  0  0
    5.9752   70.3743   66.5585 H   0  0  0  0  0  0  0  0  0  0  0  0
    5.5907   69.2545   64.3697 H   0  0  0  0  0  0  0  0  0  0  0  0
    1.5597   68.2629   65.5918 H   0  0  0  0  0  0  0  0  0  0  0  0
    2.7204   67.0510   63.7714 H   0  0  0  0  0  0  0  0  0  0  0  0
    5.2860   66.9155   63.8127 H   0  0  0  0  0  0  0  0  0  0  0  0
    4.3770   66.3733   62.3612 H   0  0  0  0  0  0  0  0  0  0  0  0
    5.1994   67.9703   62.3612 H   0  0  0  0  0  0  0  0  0  0  0  0
    2.9093   69.7272   62.8147 H   0  0  0  0  0  0  0  0  0  0  0  0
    4.3805   68.6116   61.1615 H   0  0  0  0  0  0  0  0  0  0  0  0
    2.8690   67.8577   60.5500 H   0  0  0  0  0  0  0  0  0  0  0  0
    3.0448   69.6454   60.5500 H   0  0  0  0  0  0  0  0  0  0  0  0
    0.8209   68.5922   63.4801 H   0  0  0  0  0  0  0  0  0  0  0  0
    0.7618   69.4888   61.9247 H   0  0  0  0  0  0  0  0  0  0  0  0
    0.9378   67.7012   61.9247 H   0  0  0  0  0  0  0  0  0  0  0  0
   -1.4992   66.5816   68.9711 H   0  0  0  0  0  0  0  0  0  0  0  0
   -1.6167   67.5469   67.4607 H   0  0  0  0  0  0  0  0  0  0  0  0
   -0.7329   65.9830   67.4607 H   0  0  0  0  0  0  0  0  0  0  0  0
    0.8764   66.4498   71.3163 H   0  0  0  0  0  0  0  0  0  0  0  0
   -0.5457   66.1677   70.2557 H   0  0  0  0  0  0  0  0  0  0  0  0
    0.8202   65.0012   70.2557 H   0  0  0  0  0  0  0  0  0  0  0  0
    1.9123   67.5768   69.6791 H   0  0  0  0  0  0  0  0  0  0  0  0
    1.7500   66.1361   68.5832 H   0  0  0  0  0  0  0  0  0  0  0  0
  2  1  2  0
  3  2  1  0
  4  3  2  0
  5  4  1  0
  6  5  2  0
  6  1  1  0
  7  5  1  0
  8  7  1  0
  9  7  1  0
 10  9  1  0
 11  9  1  0
 12  1  1  0
 14 13  1  0
 14 12  1  0
 15 14  2  0
 16 13  1  0
 18 17  1  0
 18 13  1  0
  2 19  1  0
  3 20  1  0
  4 21  1  0
  6 22  1  0
  7 23  1  1
  8 24  1  0
  8 25  1  0
  8 26  1  0
  9 27  1  0
 10 28  1  0
 10 29  1  0
 10 30  1  0
 11 31  1  0
 11 32  1  0
 11 33  1  0
 16 34  1  0
 16 35  1  0
 16 36  1  0
 17 37  1  0
 17 38  1  0
 17 39  1  0
 18 40  1  0
 18 41  1  0
M  CHG  1   9   1
M  END
>  <score>  (2) 
-7.476

$$$$
=
     RDKit          3D

 41 41  0  0  0  0  0  0  0  0999 V2000
    4.5670   69.4570   64.9360 C   0  0  0  0  0  0  0  0  0  0  0  0
    5.3000   69.3650   63.7590 C   0  0  0  0  0  0  0  0  0  0  0  0
    4.6550   68.9720   62.5880 C   0  0  0  0  0  0  0  0  0  0  0  0
    3.2910   68.6660   62.6070 C   0  0  0  0  0  0  0  0  0  0  0  0
    2.5400   68.7790   63.7920 C   0  0  0  0  0  0  0  0  0  0  0  0
    3.1920   69.2170   64.9530 C   0  0  0  0  0  0  0  0  0  0  0  0
    1.0860   68.3420   63.8060 C   0  0  2  0  0  0  0  0  0  0  0  0
    0.2000   69.0000   62.7450 C   0  0  0  0  0  0  0  0  0  0  0  0
    0.4860   68.4800   65.2060 N   0  0  0  0  0  4  0  0  0  0  0  0
   -0.9680   68.8780   65.2600 C   0  0  0  0  0  0  0  0  0  0  0  0
    0.7710   67.3080   66.1000 C   0  0  0  0  0  0  0  0  0  0  0  0
    5.2550   69.8290   66.1000 O   0  0  0  0  0  0  0  0  0  0  0  0
    5.1410   70.6670   68.2570 N   0  0  0  0  0  0  0  0  0  0  0  0
    4.4980   69.9280   67.2720 C   0  0  0  0  0  0  0  0  0  0  0  0
    3.3860   69.4210   67.4130 O   0  0  0  0  0  0  0  0  0  0  0  0
    4.5440   70.7500   69.5800 C   0  0  0  0  0  0  0  0  0  0  0  0
    7.3390   70.9030   69.3740 C   0  0  0  0  0  0  0  0  0  0  0  0
    6.5190   71.1320   68.1150 C   0  0  0  0  0  0  0  0  0  0  0  0
    6.3748   69.5992   63.7518 H   0  0  0  0  0  0  0  0  0  0  0  0
    5.2201   68.9024   61.6468 H   0  0  0  0  0  0  0  0  0  0  0  0
    2.7975   68.3321   61.6824 H   0  0  0  0  0  0  0  0  0  0  0  0
    2.6191   69.3719   65.8792 H   0  0  0  0  0  0  0  0  0  0  0  0
    1.1037   67.2785   63.5254 H   0  0  0  0  0  0  0  0  0  0  0  0
   -0.5892   69.5861   63.2385 H   0  0  0  0  0  0  0  0  0  0  0  0
    0.8118   69.6644   62.1171 H   0  0  0  0  0  0  0  0  0  0  0  0
   -0.2592   68.2223   62.1171 H   0  0  0  0  0  0  0  0  0  0  0  0
    0.9958   69.2906   65.5854 H   0  0  0  0  0  0  0  0  0  0  0  0
   -1.2856   68.9649   66.3096 H   0  0  0  0  0  0  0  0  0  0  0  0
   -1.1022   69.8459   64.7549 H   0  0  0  0  0  0  0  0  0  0  0  0
   -1.5765   68.1134   64.7549 H   0  0  0  0  0  0  0  0  0  0  0  0
    0.6947   67.6218   67.1515 H   0  0  0  0  0  0  0  0  0  0  0  0
    0.0409   66.5095   65.9017 H   0  0  0  0  0  0  0  0  0  0  0  0
    1.7863   66.9340   65.9017 H   0  0  0  0  0  0  0  0  0  0  0  0
    5.3282   70.6410   70.3436 H   0  0  0  0  0  0  0  0  0  0  0  0
    4.0497   71.7255   69.6987 H   0  0  0  0  0  0  0  0  0  0  0  0
    3.8024   69.9463   69.6987 H   0  0  0  0  0  0  0  0  0  0  0  0
    6.7094   71.0788   70.2587 H   0  0  0  0  0  0  0  0  0  0  0  0
    7.7090   69.8672   69.3873 H   0  0  0  0  0  0  0  0  0  0  0  0
    8.1921   71.5973   69.3873 H   0  0  0  0  0  0  0  0  0  0  0  0
    6.5074   72.2090   67.8917 H   0  0  0  0  0  0  0  0  0  0  0  0
    6.9853   70.5573   67.3012 H   0  0  0  0  0  0  0  0  0  0  0  0
  2  1  2  0
  3  2  1  0
  4  3  2  0
  5  4  1  0
  6  5  2  0
  6  1  1  0
  7  5  1  0
  8  7  1  0
  9  7  1  0
 10  9  1  0
 11  9  1  0
 12  1  1  0
 14 13  1  0
 14 12  1  0
 15 14  2  0
 16 13  1  0
 18 17  1  0
 18 13  1  0
  2 19  1  0
  3 20  1  0
  4 21  1  0
  6 22  1  0
  7 23  1  6
  8 24  1  0
  8 25  1  0
  8 26  1  0
  9 27  1  0
 10 28  1  0
 10 29  1  0
 10 30  1  0
 11 31  1  0
 11 32  1  0
 11 33  1  0
 16 34  1  0
 16 35  1  0
 16 36  1  0
 17 37  1  0
 17 38  1  0
 17 39  1  0
 18 40  1  0
 18 41  1  0
M  CHG  1   9   1
M  END
>  <score>  (3) 
-7.045

$$$$
=
     RDKit          3D

 41 41  0  0  0  0  0  0  0  0999 V2000
    4.8610   69.8040   65.6250 C   0  0  0  0  0  0  0  0  0  0  0  0
    5.6120   69.6840   64.4620 C   0  0  0  0  0  0  0  0  0  0  0  0
    5.2880   68.6860   63.5460 C   0  0  0  0  0  0  0  0  0  0  0  0
    4.2270   67.8130   63.8050 C   0  0  0  0  0  0  0  0  0  0  0  0
    3.4500   67.9440   64.9710 C   0  0  0  0  0  0  0  0  0  0  0  0
    3.7600   68.9800   65.8630 C   0  0  0  0  0  0  0  0  0  0  0  0
    2.3720   66.9200   65.2760 C   0  0  2  0  0  0  0  0  0  0  0  0
    2.6100   65.5300   64.6800 C   0  0  0  0  0  0  0  0  0  0  0  0
    0.9860   67.4590   64.9140 N   0  0  0  0  0  4  0  0  0  0  0  0
    0.2200   68.1050   66.0400 C   0  0  0  0  0  0  0  0  0  0  0  0
    0.9770   68.3100   63.6780 C   0  0  0  0  0  0  0  0  0  0  0  0
    5.2330   70.8030   66.5360 O   0  0  0  0  0  0  0  0  0  0  0  0
    5.6630   70.6720   68.8090 N   0  0  0  0  0  0  0  0  0  0  0  0
    6.1480   70.4380   67.5290 C   0  0  0  0  0  0  0  0  0  0  0  0
    7.2560   69.9580   67.2950 O   0  0  0  0  0  0  0  0  0  0  0  0
    6.5440   70.4690   69.9470 C   0  0  0  0  0  0  0  0  0  0  0  0
    3.2310   70.4220   69.2100 C   0  0  0  0  0  0  0  0  0  0  0  0
    4.4050   71.3760   69.0540 C   0  0  0  0  0  0  0  0  0  0  0  0
    6.4512   70.3680   64.2674 H   0  0  0  0  0  0  0  0  0  0  0  0
    5.8680   68.5844   62.6169 H   0  0  0  0  0  0  0  0  0  0  0  0
    3.9963   67.0122   63.0870 H   0  0  0  0  0  0  0  0  0  0  0  0
    3.1341   69.1439   66.7526 H   0  0  0  0  0  0  0  0  0  0  0  0
    2.4244   66.7636   66.3636 H   0  0  0  0  0  0  0  0  0  0  0  0
    2.7351   64.7992   65.4925 H   0  0  0  0  0  0  0  0  0  0  0  0
    1.7477   65.2445   64.0596 H   0  0  0  0  0  0  0  0  0  0  0  0
    3.5182   65.5476   64.0596 H   0  0  0  0  0  0  0  0  0  0  0  0
    0.4625   66.5982   64.7001 H   0  0  0  0  0  0  0  0  0  0  0  0
    0.6259   67.7627   67.0034 H   0  0  0  0  0  0  0  0  0  0  0  0
    0.3166   69.1985   65.9692 H   0  0  0  0  0  0  0  0  0  0  0  0
   -0.8415   67.8253   65.9692 H   0  0  0  0  0  0  0  0  0  0  0  0
    0.9658   69.3721   63.9642 H   0  0  0  0  0  0  0  0  0  0  0  0
    1.8774   68.1004   63.0819 H   0  0  0  0  0  0  0  0  0  0  0  0
    0.0812   68.0814   63.0819 H   0  0  0  0  0  0  0  0  0  0  0  0
    5.9750   70.6001   70.8792 H   0  0  0  0  0  0  0  0  0  0  0  0
    6.9602   69.4514   69.9115 H   0  0  0  0  0  0  0  0  0  0  0  0
    7.3636   71.2018   69.9115 H   0  0  0  0  0  0  0  0  0  0  0  0
    3.0305   70.2591   70.2792 H   0  0  0  0  0  0  0  0  0  0  0  0
    2.3402   70.8555   68.7318 H   0  0  0  0  0  0  0  0  0  0  0  0
    3.4731   69.4614   68.7318 H   0  0  0  0  0  0  0  0  0  0  0  0
    4.2047   72.0479   68.2064 H   0  0  0  0  0  0  0  0  0  0  0  0
    4.5106   71.9365   69.9946 H   0  0  0  0  0  0  0  0  0  0  0  0
  2  1  2  0
  3  2  1  0
  4  3  2  0
  5  4  1  0
  6  5  2  0
  6  1  1  0
  7  5  1  0
  8  7  1  0
  9  7  1  0
 10  9  1  0
 11  9  1  0
 12  1  1  0
 14 13  1  0
 14 12  1  0
 15 14  2  0
 16 13  1  0
 18 17  1  0
 18 13  1  0
  2 19  1  0
  3 20  1  0
  4 21  1  0
  6 22  1  0
  7 23  1  1
  8 24  1  0
  8 25  1  0
  8 26  1  0
  9 27  1  0
 10 28  1  0
 10 29  1  0
 10 30  1  0
 11 31  1  0
 11 32  1  0
 11 33  1  0
 16 34  1  0
 16 35  1  0
 16 36  1  0
 17 37  1  0
 17 38  1  0
 17 39  1  0
 18 40  1  0
 18 41  1  0
M  CHG  1   9   1
M  END
>  <score>  (4) 
-6.885

$$$$
=
     RDKit          3D

 41 41  0  0  0  0  0  0  0  0999 V2000
    1.1130   65.6080   70.5000 C   0  0  0  0  0  0  0  0  0  0  0  0
    0.1940   65.1410   71.4330 C   0  0  0  0  0  0  0  0  0  0  0  0
    0.3980   63.8960   72.0220 C   0  0  0  0  0  0  0  0  0  0  0  0
    1.5090   63.1250   71.6670 C   0  0  0  0  0  0  0  0  0  0  0  0
    2.4540   63.6010   70.7400 C   0  0  0  0  0  0  0  0  0  0  0  0
    2.2590   64.8750   70.1870 C   0  0  0  0  0  0  0  0  0  0  0  0
    3.5930   62.7010   70.2960 C   0  0  2  0  0  0  0  0  0  0  0  0
    3.6050   62.3560   68.8040 C   0  0  0  0  0  0  0  0  0  0  0  0
    3.6700   61.4450   71.1660 N   0  0  0  0  0  4  0  0  0  0  0  0
    3.4870   60.1350   70.4420 C   0  0  0  0  0  0  0  0  0  0  0  0
    4.8660   61.4140   72.0720 C   0  0  0  0  0  0  0  0  0  0  0  0
    0.8610   66.8530   69.9090 O   0  0  0  0  0  0  0  0  0  0  0  0
    0.6160   67.7310   67.7780 N   0  0  0  0  0  0  0  0  0  0  0  0
    0.1160   66.8460   68.7250 C   0  0  0  0  0  0  0  0  0  0  0  0
   -0.8690   66.1340   68.5420 O   0  0  0  0  0  0  0  0  0  0  0  0
   -0.1240   67.9380   66.5450 C   0  0  0  0  0  0  0  0  0  0  0  0
    2.4670   69.0760   66.8290 C   0  0  0  0  0  0  0  0  0  0  0  0
    1.6980   68.6680   68.0760 C   0  0  0  0  0  0  0  0  0  0  0  0
   -0.6832   65.7475   71.7024 H   0  0  0  0  0  0  0  0  0  0  0  0
   -0.3164   63.5182   72.7682 H   0  0  0  0  0  0  0  0  0  0  0  0
    1.6462   62.1317   72.1192 H   0  0  0  0  0  0  0  0  0  0  0  0
    3.0112   65.2978   69.5047 H   0  0  0  0  0  0  0  0  0  0  0  0
    4.5047   63.2982   70.4450 H   0  0  0  0  0  0  0  0  0  0  0  0
    3.6430   61.2636   68.6806 H   0  0  0  0  0  0  0  0  0  0  0  0
    2.6927   62.7471   68.3299 H   0  0  0  0  0  0  0  0  0  0  0  0
    4.4879   62.8095   68.3299 H   0  0  0  0  0  0  0  0  0  0  0  0
    2.8342   61.5364   71.7610 H   0  0  0  0  0  0  0  0  0  0  0  0
    3.3736   59.3233   71.1757 H   0  0  0  0  0  0  0  0  0  0  0  0
    2.5874   60.1873   69.8111 H   0  0  0  0  0  0  0  0  0  0  0  0
    4.3665   59.9388   69.8111 H   0  0  0  0  0  0  0  0  0  0  0  0
    4.5323   61.4226   73.1201 H   0  0  0  0  0  0  0  0  0  0  0  0
    5.4479   60.5005   71.8800 H   0  0  0  0  0  0  0  0  0  0  0  0
    5.4944   62.2962   71.8800 H   0  0  0  0  0  0  0  0  0  0  0  0
   -1.1584   68.2273   66.7823 H   0  0  0  0  0  0  0  0  0  0  0  0
    0.3550   68.7366   65.9596 H   0  0  0  0  0  0  0  0  0  0  0  0
   -0.1289   67.0067   65.9596 H   0  0  0  0  0  0  0  0  0  0  0  0
    3.4036   69.5729   67.1220 H   0  0  0  0  0  0  0  0  0  0  0  0
    2.6978   68.1817   66.2315 H   0  0  0  0  0  0  0  0  0  0  0  0
    1.8559   69.7685   66.2315 H   0  0  0  0  0  0  0  0  0  0  0  0
    2.3947   68.1913   68.7813 H   0  0  0  0  0  0  0  0  0  0  0  0
    1.2490   69.5751   68.5067 H   0  0  0  0  0  0  0  0  0  0  0  0
  2  1  2  0
  3  2  1  0
  4  3  2  0
  5  4  1  0
  6  5  2  0
  6  1  1  0
  7  5  1  0
  8  7  1  0
  9  7  1  0
 10  9  1  0
 11  9  1  0
 12  1  1  0
 14 13  1  0
 14 12  1  0
 15 14  2  0
 16 13  1  0
 18 17  1  0
 18 13  1  0
  2 19  1  0
  3 20  1  0
  4 21  1  0
  6 22  1  0
  7 23  1  6
  8 24  1  0
  8 25  1  0
  8 26  1  0
  9 27  1  0
 10 28  1  0
 10 29  1  0
 10 30  1  0
 11 31  1  0
 11 32  1  0
 11 33  1  0
 16 34  1  0
 16 35  1  0
 16 36  1  0
 17 37  1  0
 17 38  1  0
 17 39  1  0
 18 40  1  0
 18 41  1  0
M  CHG  1   9   1
M  END
>  <score>  (5) 
-6.718

$$$$
=
     RDKit          3D

 41 41  0  0  0  0  0  0  0  0999 V2000
    2.6840   62.6010   70.3300 C   0  0  0  0  0  0  0  0  0  0  0  0
    3.8420   63.3660   70.4060 C   0  0  0  0  0  0  0  0  0  0  0  0
    5.0160   62.7760   70.8700 C   0  0  0  0  0  0  0  0  0  0  0  0
    5.0190   61.4350   71.2630 C   0  0  0  0  0  0  0  0  0  0  0  0
    3.8540   60.6490   71.1680 C   0  0  0  0  0  0  0  0  0  0  0  0
    2.6920   61.2450   70.6580 C   0  0  0  0  0  0  0  0  0  0  0  0
    3.8600   59.2270   71.6980 C   0  0  2  0  0  0  0  0  0  0  0  0
    3.5010   58.1500   70.6700 C   0  0  0  0  0  0  0  0  0  0  0  0
    3.0050   59.1090   72.9610 N   0  0  0  0  0  4  0  0  0  0  0  0
    1.9800   58.0030   72.9570 C   0  0  0  0  0  0  0  0  0  0  0  0
    3.8050   59.1180   74.2310 C   0  0  0  0  0  0  0  0  0  0  0  0
    1.5170   63.2350   69.8840 O   0  0  0  0  0  0  0  0  0  0  0  0
    0.5590   65.1180   70.8360 N   0  0  0  0  0  0  0  0  0  0  0  0
    0.6570   63.7340   70.8690 C   0  0  0  0  0  0  0  0  0  0  0  0
    0.0520   63.0240   71.6700 O   0  0  0  0  0  0  0  0  0  0  0  0
   -0.1910   65.7980   71.8780 C   0  0  0  0  0  0  0  0  0  0  0  0
    0.5840   66.9080   69.1240 C   0  0  0  0  0  0  0  0  0  0  0  0
    1.4000   65.9440   69.9700 C   0  0  0  0  0  0  0  0  0  0  0  0
    3.8318   64.4236   70.1037 H   0  0  0  0  0  0  0  0  0  0  0  0
    5.9421   63.3669   70.9270 H   0  0  0  0  0  0  0  0  0  0  0  0
    5.9449   60.9866   71.6523 H   0  0  0  0  0  0  0  0  0  0  0  0
    1.7834   60.6414   70.5160 H   0  0  0  0  0  0  0  0  0  0  0  0
    4.9096   59.0207   71.9545 H   0  0  0  0  0  0  0  0  0  0  0  0
    3.1949   57.2318   71.1926 H   0  0  0  0  0  0  0  0  0  0  0  0
    2.6731   58.5064   70.0395 H   0  0  0  0  0  0  0  0  0  0  0  0
    4.3772   57.9383   70.0395 H   0  0  0  0  0  0  0  0  0  0  0  0
    2.4538   59.9788   72.9372 H   0  0  0  0  0  0  0  0  0  0  0  0
    1.7289   57.7321   73.9931 H   0  0  0  0  0  0  0  0  0  0  0  0
    1.0729   58.3456   72.4375 H   0  0  0  0  0  0  0  0  0  0  0  0
    2.3904   57.1246   72.4375 H   0  0  0  0  0  0  0  0  0  0  0  0
    3.1230   59.1103   75.0940 H   0  0  0  0  0  0  0  0  0  0  0  0
    4.4492   58.2270   74.2648 H   0  0  0  0  0  0  0  0  0  0  0  0
    4.4290   60.0232   74.2648 H   0  0  0  0  0  0  0  0  0  0  0  0
    0.1708   65.4700   72.8637 H   0  0  0  0  0  0  0  0  0  0  0  0
   -0.0525   66.8848   71.7796 H   0  0  0  0  0  0  0  0  0  0  0  0
   -1.2591   65.5541   71.7796 H   0  0  0  0  0  0  0  0  0  0  0  0
    0.0143   67.5810   69.7816 H   0  0  0  0  0  0  0  0  0  0  0  0
    1.2591   67.5005   68.4891 H   0  0  0  0  0  0  0  0  0  0  0  0
   -0.1119   66.3400   68.4891 H   0  0  0  0  0  0  0  0  0  0  0  0
    1.9742   65.2854   69.3017 H   0  0  0  0  0  0  0  0  0  0  0  0
    2.0638   66.5397   70.6138 H   0  0  0  0  0  0  0  0  0  0  0  0
  2  1  2  0
  3  2  1  0
  4  3  2  0
  5  4  1  0
  6  5  2  0
  6  1  1  0
  7  5  1  0
  8  7  1  0
  9  7  1  0
 10  9  1  0
 11  9  1  0
 12  1  1  0
 14 13  1  0
 14 12  1  0
 15 14  2  0
 16 13  1  0
 18 17  1  0
 18 13  1  0
  2 19  1  0
  3 20  1  0
  4 21  1  0
  6 22  1  0
  7 23  1  1
  8 24  1  0
  8 25  1  0
  8 26  1  0
  9 27  1  0
 10 28  1  0
 10 29  1  0
 10 30  1  0
 11 31  1  0
 11 32  1  0
 11 33  1  0
 16 34  1  0
 16 35  1  0
 16 36  1  0
 17 37  1  0
 17 38  1  0
 17 39  1  0
 18 40  1  0
 18 41  1  0
M  CHG  1   9   1
M  END
>  <score>  (6) 
-6.442

$$$$
=
     RDKit          3D

 41 41  0  0  0  0  0  0  0  0999 V2000
    1.9550   67.4880   64.1230 C   0  0  0  0  0  0  0  0  0  0  0  0
    1.3090   68.4130   63.3110 C   0  0  0  0  0  0  0  0  0  0  0  0
    0.1460   69.0250   63.7710 C   0  0  0  0  0  0  0  0  0  0  0  0
   -0.3660   68.7010   65.0310 C   0  0  0  0  0  0  0  0  0  0  0  0
    0.2960   67.7810   65.8670 C   0  0  0  0  0  0  0  0  0  0  0  0
    1.4890   67.2050   65.4080 C   0  0  0  0  0  0  0  0  0  0  0  0
   -0.3370   67.3710   67.1840 C   0  0  2  0  0  0  0  0  0  0  0  0
   -1.8450   67.6210   67.2860 C   0  0  0  0  0  0  0  0  0  0  0  0
    0.4160   67.9810   68.3680 N   0  0  0  0  0  4  0  0  0  0  0  0
    1.1480   67.0040   69.2520 C   0  0  0  0  0  0  0  0  0  0  0  0
    1.2850   69.1450   67.9910 C   0  0  0  0  0  0  0  0  0  0  0  0
    3.1070   66.8730   63.6160 O   0  0  0  0  0  0  0  0  0  0  0  0
    4.9500   68.2270   63.2440 N   0  0  0  0  0  0  0  0  0  0  0  0
    3.8480   67.6000   62.6790 C   0  0  0  0  0  0  0  0  0  0  0  0
    3.5570   67.6740   61.4860 O   0  0  0  0  0  0  0  0  0  0  0  0
    5.7460   69.1290   62.4290 C   0  0  0  0  0  0  0  0  0  0  0  0
    4.7040   69.5270   65.3380 C   0  0  0  0  0  0  0  0  0  0  0  0
    5.1890   68.2420   64.6870 C   0  0  0  0  0  0  0  0  0  0  0  0
    1.7117   68.6585   62.3172 H   0  0  0  0  0  0  0  0  0  0  0  0
   -0.3709   69.7647   63.1420 H   0  0  0  0  0  0  0  0  0  0  0  0
   -1.2992   69.1714   65.3743 H   0  0  0  0  0  0  0  0  0  0  0  0
    2.0590   66.5286   66.0619 H   0  0  0  0  0  0  0  0  0  0  0  0
   -0.2382   66.2760   67.2200 H   0  0  0  0  0  0  0  0  0  0  0  0
   -2.1378   67.6695   68.3452 H   0  0  0  0  0  0  0  0  0  0  0  0
   -2.0931   68.5725   66.7930 H   0  0  0  0  0  0  0  0  0  0  0  0
   -2.3869   66.8004   66.7930 H   0  0  0  0  0  0  0  0  0  0  0  0
   -0.3493   68.3436   68.9542 H   0  0  0  0  0  0  0  0  0  0  0  0
    0.9614   67.2531   70.3070 H   0  0  0  0  0  0  0  0  0  0  0  0
    0.7896   65.9844   69.0471 H   0  0  0  0  0  0  0  0  0  0  0  0
    2.2272   67.0615   69.0471 H   0  0  0  0  0  0  0  0  0  0  0  0
    1.6532   69.6382   68.9027 H   0  0  0  0  0  0  0  0  0  0  0  0
    2.1391   68.7877   67.3970 H   0  0  0  0  0  0  0  0  0  0  0  0
    0.6997   69.8623   67.3970 H   0  0  0  0  0  0  0  0  0  0  0  0
    6.3317   69.7927   63.0820 H   0  0  0  0  0  0  0  0  0  0  0  0
    6.4278   68.5443   61.7940 H   0  0  0  0  0  0  0  0  0  0  0  0
    5.0810   69.7328   61.7940 H   0  0  0  0  0  0  0  0  0  0  0  0
    4.7439   69.4214   66.4322 H   0  0  0  0  0  0  0  0  0  0  0  0
    5.3489   70.3619   65.0265 H   0  0  0  0  0  0  0  0  0  0  0  0
    3.6683   69.7276   65.0265 H   0  0  0  0  0  0  0  0  0  0  0  0
    6.2692   68.1395   64.8679 H   0  0  0  0  0  0  0  0  0  0  0  0
    4.6268   67.4069   65.1302 H   0  0  0  0  0  0  0  0  0  0  0  0
  2  1  2  0
  3  2  1  0
  4  3  2  0
  5  4  1  0
  6  5  2  0
  6  1  1  0
  7  5  1  0
  8  7  1  0
  9  7  1  0
 10  9  1  0
 11  9  1  0
 12  1  1  0
 14 13  1  0
 14 12  1  0
 15 14  2  0
 16 13  1  0
 18 17  1  0
 18 13  1  0
  2 19  1  0
  3 20  1  0
  4 21  1  0
  6 22  1  0
  7 23  1  1
  8 24  1  0
  8 25  1  0
  8 26  1  0
  9 27  1  0
 10 28  1  0
 10 29  1  0
 10 30  1  0
 11 31  1  0
 11 32  1  0
 11 33  1  0
 16 34  1  0
 16 35  1  0
 16 36  1  0
 17 37  1  0
 17 38  1  0
 17 39  1  0
 18 40  1  0
 18 41  1  0
M  CHG  1   9   1
M  END
>  <score>  (7) 
-6.391

$$$$
=
     RDKit          3D

 41 41  0  0  0  0  0  0  0  0999 V2000
    4.1440   61.2770   71.3270 C   0  0  0  0  0  0  0  0  0  0  0  0
    5.0840   62.1230   70.7500 C   0  0  0  0  0  0  0  0  0  0  0  0
    4.6980   63.4050   70.3650 C   0  0  0  0  0  0  0  0  0  0  0  0
    3.3780   63.8250   70.5500 C   0  0  0  0  0  0  0  0  0  0  0  0
    2.4270   62.9810   71.1540 C   0  0  0  0  0  0  0  0  0  0  0  0
    2.8400   61.7090   71.5750 C   0  0  0  0  0  0  0  0  0  0  0  0
    0.9780   63.4250   71.2470 C   0  0  2  0  0  0  0  0  0  0  0  0
    0.7230   64.8900   70.8840 C   0  0  0  0  0  0  0  0  0  0  0  0
    0.3830   63.0700   72.6110 N   0  0  0  0  0  4  0  0  0  0  0  0
    0.0490   64.2390   73.5040 C   0  0  0  0  0  0  0  0  0  0  0  0
   -0.7510   62.0900   72.5350 C   0  0  0  0  0  0  0  0  0  0  0  0
    4.5610   59.9860   71.6760 O   0  0  0  0  0  0  0  0  0  0  0  0
    3.0210   58.2980   72.0570 N   0  0  0  0  0  0  0  0  0  0  0  0
    3.8400   58.9220   71.1260 C   0  0  0  0  0  0  0  0  0  0  0  0
    3.9190   58.5800   69.9470 O   0  0  0  0  0  0  0  0  0  0  0  0
    2.3060   57.0920   71.6740 C   0  0  0  0  0  0  0  0  0  0  0  0
    1.7050   59.1020   73.9960 C   0  0  0  0  0  0  0  0  0  0  0  0
    3.0560   58.6310   73.4800 C   0  0  0  0  0  0  0  0  0  0  0  0
    6.1197   61.7844   70.5993 H   0  0  0  0  0  0  0  0  0  0  0  0
    5.4335   64.0878   69.9146 H   0  0  0  0  0  0  0  0  0  0  0  0
    3.0777   64.8300   70.2187 H   0  0  0  0  0  0  0  0  0  0  0  0
    2.1346   61.0498   72.1021 H   0  0  0  0  0  0  0  0  0  0  0  0
    0.4529   62.8554   70.4660 H   0  0  0  0  0  0  0  0  0  0  0  0
    0.6197   65.4832   71.8046 H   0  0  0  0  0  0  0  0  0  0  0  0
    1.5678   65.2738   70.2933 H   0  0  0  0  0  0  0  0  0  0  0  0
   -0.2018   64.9658   70.2933 H   0  0  0  0  0  0  0  0  0  0  0  0
    1.1691   62.5969   73.0791 H   0  0  0  0  0  0  0  0  0  0  0  0
    0.1365   63.9328   74.5569 H   0  0  0  0  0  0  0  0  0  0  0  0
    0.7471   65.0650   73.3031 H   0  0  0  0  0  0  0  0  0  0  0  0
   -0.9801   64.5716   73.3031 H   0  0  0  0  0  0  0  0  0  0  0  0
   -1.0678   61.8162   73.5522 H   0  0  0  0  0  0  0  0  0  0  0  0
   -1.5955   62.5473   71.9986 H   0  0  0  0  0  0  0  0  0  0  0  0
   -0.4209   61.1882   71.9986 H   0  0  0  0  0  0  0  0  0  0  0  0
    1.9862   56.5527   72.5778 H   0  0  0  0  0  0  0  0  0  0  0  0
    1.4227   57.3633   71.0772 H   0  0  0  0  0  0  0  0  0  0  0  0
    2.9679   56.4473   71.0772 H   0  0  0  0  0  0  0  0  0  0  0  0
    1.7115   59.0997   75.0960 H   0  0  0  0  0  0  0  0  0  0  0  0
    1.5089   60.1215   73.6326 H   0  0  0  0  0  0  0  0  0  0  0  0
    0.9175   58.4254   73.6326 H   0  0  0  0  0  0  0  0  0  0  0  0
    3.7937   59.4316   73.6379 H   0  0  0  0  0  0  0  0  0  0  0  0
    3.3280   57.7194   74.0323 H   0  0  0  0  0  0  0  0  0  0  0  0
  2  1  2  0
  3  2  1  0
  4  3  2  0
  5  4  1  0
  6  5  2  0
  6  1  1  0
  7  5  1  0
  8  7  1  0
  9  7  1  0
 10  9  1  0
 11  9  1  0
 12  1  1  0
 14 13  1  0
 14 12  1  0
 15 14  2  0
 16 13  1  0
 18 17  1  0
 18 13  1  0
  2 19  1  0
  3 20  1  0
  4 21  1  0
  6 22  1  0
  7 23  1  6
  8 24  1  0
  8 25  1  0
  8 26  1  0
  9 27  1  0
 10 28  1  0
 10 29  1  0
 10 30  1  0
 11 31  1  0
 11 32  1  0
 11 33  1  0
 16 34  1  0
 16 35  1  0
 16 36  1  0
 17 37  1  0
 17 38  1  0
 17 39  1  0
 18 40  1  0
 18 41  1  0
M  CHG  1   9   1
M  END
>  <score>  (8) 
-6.288

$$$$
=
     RDKit          3D

 41 41  0  0  0  0  0  0  0  0999 V2000
    0.4440   63.9600   72.2260 C   0  0  0  0  0  0  0  0  0  0  0  0
    0.0800   65.1640   71.6350 C   0  0  0  0  0  0  0  0  0  0  0  0
    0.8400   65.6570   70.5760 C   0  0  0  0  0  0  0  0  0  0  0  0
    1.9590   64.9500   70.1260 C   0  0  0  0  0  0  0  0  0  0  0  0
    2.3190   63.7190   70.7070 C   0  0  0  0  0  0  0  0  0  0  0  0
    1.5210   63.2140   71.7430 C   0  0  0  0  0  0  0  0  0  0  0  0
    3.5960   63.0260   70.2680 C   0  0  2  0  0  0  0  0  0  0  0  0
    3.7500   62.8450   68.7560 C   0  0  0  0  0  0  0  0  0  0  0  0
    3.7870   61.7050   71.0160 N   0  0  0  0  0  4  0  0  0  0  0  0
    3.4660   60.4570   70.2340 C   0  0  0  0  0  0  0  0  0  0  0  0
    5.1120   61.5960   71.7130 C   0  0  0  0  0  0  0  0  0  0  0  0
   -0.3270   63.5090   73.3060 O   0  0  0  0  0  0  0  0  0  0  0  0
    0.2130   61.9190   74.9030 N   0  0  0  0  0  0  0  0  0  0  0  0
    0.3560   63.2390   74.4960 C   0  0  0  0  0  0  0  0  0  0  0  0
    1.0140   64.0770   75.1120 O   0  0  0  0  0  0  0  0  0  0  0  0
    0.7530   61.5140   76.1890 C   0  0  0  0  0  0  0  0  0  0  0  0
    0.0370   60.0900   73.2420 C   0  0  0  0  0  0  0  0  0  0  0  0
   -0.6900   60.9860   74.2320 C   0  0  0  0  0  0  0  0  0  0  0  0
   -0.7965   65.7205   71.9983 H   0  0  0  0  0  0  0  0  0  0  0  0
    0.5588   66.6045   70.0931 H   0  0  0  0  0  0  0  0  0  0  0  0
    2.5667   65.3612   69.3065 H   0  0  0  0  0  0  0  0  0  0  0  0
    1.7438   62.2278   72.1764 H   0  0  0  0  0  0  0  0  0  0  0  0
    4.4063   63.7168   70.5440 H   0  0  0  0  0  0  0  0  0  0  0  0
    4.4508   62.0213   68.5548 H   0  0  0  0  0  0  0  0  0  0  0  0
    2.7709   62.6098   68.3133 H   0  0  0  0  0  0  0  0  0  0  0  0
    4.1390   63.7738   68.3133 H   0  0  0  0  0  0  0  0  0  0  0  0
    3.0585   61.7547   71.7424 H   0  0  0  0  0  0  0  0  0  0  0  0
    3.2539   59.6323   70.9304 H   0  0  0  0  0  0  0  0  0  0  0  0
    2.5851   60.6377   69.6005 H   0  0  0  0  0  0  0  0  0  0  0  0
    4.3248   60.1902   69.6005 H   0  0  0  0  0  0  0  0  0  0  0  0
    4.9557   61.6089   72.8018 H   0  0  0  0  0  0  0  0  0  0  0  0
    5.6020   60.6545   71.4240 H   0  0  0  0  0  0  0  0  0  0  0  0
    5.7493   62.4448   71.4240 H   0  0  0  0  0  0  0  0  0  0  0  0
    0.1547   61.9627   76.9956 H   0  0  0  0  0  0  0  0  0  0  0  0
    0.7178   60.4178   76.2727 H   0  0  0  0  0  0  0  0  0  0  0  0
    1.7955   61.8548   76.2727 H   0  0  0  0  0  0  0  0  0  0  0  0
    0.6378   59.3495   73.7903 H   0  0  0  0  0  0  0  0  0  0  0  0
   -0.6979   59.5702   72.6097 H   0  0  0  0  0  0  0  0  0  0  0  0
    0.6970   60.7020   72.6097 H   0  0  0  0  0  0  0  0  0  0  0  0
   -1.4558   61.5618   73.6917 H   0  0  0  0  0  0  0  0  0  0  0  0
   -1.1402   60.3414   75.0014 H   0  0  0  0  0  0  0  0  0  0  0  0
  2  1  2  0
  3  2  1  0
  4  3  2  0
  5  4  1  0
  6  5  2  0
  6  1  1  0
  7  5  1  0
  8  7  1  0
  9  7  1  0
 10  9  1  0
 11  9  1  0
 12  1  1  0
 14 13  1  0
 14 12  1  0
 15 14  2  0
 16 13  1  0
 18 17  1  0
 18 13  1  0
  2 19  1  0
  3 20  1  0
  4 21  1  0
  6 22  1  0
  7 23  1  1
  8 24  1  0
  8 25  1  0
  8 26  1  0
  9 27  1  0
 10 28  1  0
 10 29  1  0
 10 30  1  0
 11 31  1  0
 11 32  1  0
 11 33  1  0
 16 34  1  0
 16 35  1  0
 16 36  1  0
 17 37  1  0
 17 38  1  0
 17 39  1  0
 18 40  1  0
 18 41  1  0
M  CHG  1   9   1
M  END
>  <score>  (9) 
-6.085

$$$$
