=
     RDKit          3D

 32 33  0  0  0  0  0  0  0  0999 V2000
    2.9930   66.1760   64.8010 C   0  0  0  0  0  0  0  0  0  0  0  0
    1.6500   66.5340   65.0220 C   0  0  0  0  0  0  0  0  0  0  0  0
    1.2860   67.8470   65.3280 C   0  0  0  0  0  0  0  0  0  0  0  0
    2.2640   68.8280   65.4500 C   0  0  0  0  0  0  0  0  0  0  0  0
    3.6100   68.4890   65.2720 C   0  0  0  0  0  0  0  0  0  0  0  0
    3.9680   67.1780   64.9260 C   0  0  0  0  0  0  0  0  0  0  0  0
    3.3230   64.7180   64.4930 C   0  0  2  0  0  0  0  0  0  0  0  0
    3.7990   63.8720   65.6770 C   0  0  0  0  0  0  0  0  0  0  0  0
    4.1310   65.2540   62.2960 O   0  0  0  0  0  1  0  0  0  0  0  0
    4.3640   64.6000   63.3520 C   0  0  0  0  0  0  0  0  0  0  0  0
    5.3600   63.8610   63.6230 O   0  0  0  0  0  0  0  0  0  0  0  0
    4.6820   69.5060   65.4330 C   0  0  0  0  0  0  0  0  0  0  0  0
    5.2530   69.9650   64.4470 O   0  0  0  0  0  0  0  0  0  0  0  0
    5.0880   69.9810   66.7810 C   0  0  0  0  0  0  0  0  0  0  0  0
    4.1620   70.1260   67.8210 C   0  0  0  0  0  0  0  0  0  0  0  0
    4.5870   70.5620   69.0770 C   0  0  0  0  0  0  0  0  0  0  0  0
    5.9360   70.8420   69.3010 C   0  0  0  0  0  0  0  0  0  0  0  0
    6.8640   70.6790   68.2730 C   0  0  0  0  0  0  0  0  0  0  0  0
    6.4430   70.2430   67.0160 C   0  0  0  0  0  0  0  0  0  0  0  0
    0.8694   65.7621   64.9521 H   0  0  0  0  0  0  0  0  0  0  0  0
    0.2265   68.1050   65.4724 H   0  0  0  0  0  0  0  0  0  0  0  0
    1.9812   69.8647   65.6851 H   0  0  0  0  0  0  0  0  0  0  0  0
    5.0257   66.9319   64.7504 H   0  0  0  0  0  0  0  0  0  0  0  0
    2.3500   64.3036   64.1903 H   0  0  0  0  0  0  0  0  0  0  0  0
    3.5197   64.3684   66.6181 H   0  0  0  0  0  0  0  0  0  0  0  0
    3.3269   62.8795   65.6318 H   0  0  0  0  0  0  0  0  0  0  0  0
    4.8924   63.7603   65.6318 H   0  0  0  0  0  0  0  0  0  0  0  0
    3.1002   69.8965   67.6484 H   0  0  0  0  0  0  0  0  0  0  0  0
    3.8579   70.6851   69.8914 H   0  0  0  0  0  0  0  0  0  0  0  0
    6.2675   71.1917   70.2898 H   0  0  0  0  0  0  0  0  0  0  0  0
    7.9277   70.8941   68.4529 H   0  0  0  0  0  0  0  0  0  0  0  0
    7.1770   70.1050   66.2085 H   0  0  0  0  0  0  0  0  0  0  0  0
  2  1  2  0
  3  2  1  0
  4  3  2  0
  5  4  1  0
  6  5  2  0
  6  1  1  0
  7  1  1  0
  8  7  1  0
 10  9  1  0
 10  7  1  0
 11 10  2  0
 12  5  1  0
 13 12  2  0
 14 12  1  0
 15 14  2  0
 16 15  1  0
 17 16  2  0
 18 17  1  0
 19 14  1  0
 19 18  2  0
  2 20  1  0
  3 21  1  0
  4 22  1  0
  6 23  1  0
  7 24  1  6
  8 25  1  0
  8 26  1  0
  8 27  1  0
 15 28  1  0
 16 29  1  0
 17 30  1  0
 18 31  1  0
 19 32  1  0
M  CHG  1   9  -1
M  END
>  <score>  (1) 
-9.967

$$$$
=
     RDKit          3D

 32 33  0  0  0  0  0  0  0  0999 V2000
    4.5940   69.8340   66.8800 C   0  0  0  0  0  0  0  0  0  0  0  0
    5.6370   69.8040   65.9370 C   0  0  0  0  0  0  0  0  0  0  0  0
    5.4080   69.4480   64.6060 C   0  0  0  0  0  0  0  0  0  0  0  0
    4.1290   69.0840   64.1960 C   0  0  0  0  0  0  0  0  0  0  0  0
    3.0820   69.0700   65.1240 C   0  0  0  0  0  0  0  0  0  0  0  0
    3.3090   69.4660   66.4500 C   0  0  0  0  0  0  0  0  0  0  0  0
    4.9190   70.2100   68.3240 C   0  0  2  0  0  0  0  0  0  0  0  0
    3.7400   70.6890   69.1750 C   0  0  0  0  0  0  0  0  0  0  0  0
    5.7480   72.4430   68.0200 O   0  0  0  0  0  1  0  0  0  0  0  0
    6.0430   71.2730   68.3950 C   0  0  0  0  0  0  0  0  0  0  0  0
    7.1470   70.8420   68.8500 O   0  0  0  0  0  0  0  0  0  0  0  0
    1.7140   68.6500   64.7250 C   0  0  0  0  0  0  0  0  0  0  0  0
    1.3970   68.6170   63.5400 O   0  0  0  0  0  0  0  0  0  0  0  0
    0.7030   68.2710   65.7470 C   0  0  0  0  0  0  0  0  0  0  0  0
    1.0470   67.5330   66.8860 C   0  0  0  0  0  0  0  0  0  0  0  0
    0.0700   67.2090   67.8290 C   0  0  0  0  0  0  0  0  0  0  0  0
   -1.2480   67.6300   67.6440 C   0  0  0  0  0  0  0  0  0  0  0  0
   -1.5900   68.3820   66.5200 C   0  0  0  0  0  0  0  0  0  0  0  0
   -0.6160   68.7090   65.5760 C   0  0  0  0  0  0  0  0  0  0  0  0
    6.6566   70.0670   66.2551 H   0  0  0  0  0  0  0  0  0  0  0  0
    6.2371   69.4553   63.8832 H   0  0  0  0  0  0  0  0  0  0  0  0
    3.9421   68.8086   63.1476 H   0  0  0  0  0  0  0  0  0  0  0  0
    2.4705   69.4886   67.1616 H   0  0  0  0  0  0  0  0  0  0  0  0
    5.2453   69.2544   68.7603 H   0  0  0  0  0  0  0  0  0  0  0  0
    3.9917   70.5867   70.2409 H   0  0  0  0  0  0  0  0  0  0  0  0
    3.5286   71.7443   68.9478 H   0  0  0  0  0  0  0  0  0  0  0  0
    2.8525   70.0801   68.9478 H   0  0  0  0  0  0  0  0  0  0  0  0
    2.0870   67.2085   67.0378 H   0  0  0  0  0  0  0  0  0  0  0  0
    0.3391   66.6212   68.7190 H   0  0  0  0  0  0  0  0  0  0  0  0
   -2.0176   67.3685   68.3852 H   0  0  0  0  0  0  0  0  0  0  0  0
   -2.6280   68.7173   66.3778 H   0  0  0  0  0  0  0  0  0  0  0  0
   -0.8847   69.3118   64.6960 H   0  0  0  0  0  0  0  0  0  0  0  0
  2  1  2  0
  3  2  1  0
  4  3  2  0
  5  4  1  0
  6  5  2  0
  6  1  1  0
  7  1  1  0
  8  7  1  0
 10  9  1  0
 10  7  1  0
 11 10  2  0
 12  5  1  0
 13 12  2  0
 14 12  1  0
 15 14  2  0
 16 15  1  0
 17 16  2  0
 18 17  1  0
 19 14  1  0
 19 18  2  0
  2 20  1  0
  3 21  1  0
  4 22  1  0
  6 23  1  0
  7 24  1  1
  8 25  1  0
  8 26  1  0
  8 27  1  0
 15 28  1  0
 16 29  1  0
 17 30  1  0
 18 31  1  0
 19 32  1  0
M  CHG  1   9  -1
M  END
>  <score>  (2) 
-9.945

$$$$
=
     RDKit          3D

 32 33  0  0  0  0  0  0  0  0999 V2000
    3.7670   69.0190   64.4610 C   0  0  0  0  0  0  0  0  0  0  0  0
    5.0920   69.4530   64.6500 C   0  0  0  0  0  0  0  0  0  0  0  0
    5.5550   69.8570   65.9040 C   0  0  0  0  0  0  0  0  0  0  0  0
    4.6920   69.8620   66.9940 C   0  0  0  0  0  0  0  0  0  0  0  0
    3.3590   69.4710   66.8240 C   0  0  0  0  0  0  0  0  0  0  0  0
    2.9080   69.0290   65.5720 C   0  0  0  0  0  0  0  0  0  0  0  0
    3.3190   68.6140   63.0600 C   0  0  2  0  0  0  0  0  0  0  0  0
    1.8130   68.6710   62.7920 C   0  0  0  0  0  0  0  0  0  0  0  0
    3.8770   66.3440   63.6120 O   0  0  0  0  0  1  0  0  0  0  0  0
    3.8340   67.2020   62.6840 C   0  0  0  0  0  0  0  0  0  0  0  0
    4.1400   67.0610   61.4600 O   0  0  0  0  0  0  0  0  0  0  0  0
    2.4020   69.5020   67.9610 C   0  0  0  0  0  0  0  0  0  0  0  0
    2.6210   70.2190   68.9340 O   0  0  0  0  0  0  0  0  0  0  0  0
    1.1740   68.6670   67.9490 C   0  0  0  0  0  0  0  0  0  0  0  0
    0.0770   68.9800   67.1360 C   0  0  0  0  0  0  0  0  0  0  0  0
   -1.0530   68.1620   67.1440 C   0  0  0  0  0  0  0  0  0  0  0  0
   -1.0880   67.0250   67.9520 C   0  0  0  0  0  0  0  0  0  0  0  0
    0.0100   66.6980   68.7480 C   0  0  0  0  0  0  0  0  0  0  0  0
    1.1420   67.5140   68.7420 C   0  0  0  0  0  0  0  0  0  0  0  0
    5.7785   69.4745   63.7908 H   0  0  0  0  0  0  0  0  0  0  0  0
    6.6017   70.1710   66.0293 H   0  0  0  0  0  0  0  0  0  0  0  0
    5.0551   70.1717   67.9851 H   0  0  0  0  0  0  0  0  0  0  0  0
    1.8690   68.6860   65.4587 H   0  0  0  0  0  0  0  0  0  0  0  0
    3.7737   69.3876   62.4238 H   0  0  0  0  0  0  0  0  0  0  0  0
    1.2708   68.6915   63.7489 H   0  0  0  0  0  0  0  0  0  0  0  0
    1.5769   69.5787   62.2173 H   0  0  0  0  0  0  0  0  0  0  0  0
    1.5090   67.7837   62.2173 H   0  0  0  0  0  0  0  0  0  0  0  0
    0.1066   69.8708   66.4913 H   0  0  0  0  0  0  0  0  0  0  0  0
   -1.9177   68.4137   66.5124 H   0  0  0  0  0  0  0  0  0  0  0  0
   -1.9829   66.3854   67.9614 H   0  0  0  0  0  0  0  0  0  0  0  0
   -0.0165   65.7979   69.3797 H   0  0  0  0  0  0  0  0  0  0  0  0
    2.0115   67.2504   69.3621 H   0  0  0  0  0  0  0  0  0  0  0  0
  2  1  2  0
  3  2  1  0
  4  3  2  0
  5  4  1  0
  6  5  2  0
  6  1  1  0
  7  1  1  0
  8  7  1  0
 10  9  1  0
 10  7  1  0
 11 10  2  0
 12  5  1  0
 13 12  2  0
 14 12  1  0
 15 14  2  0
 16 15  1  0
 17 16  2  0
 18 17  1  0
 19 14  1  0
 19 18  2  0
  2 20  1  0
  3 21  1  0
  4 22  1  0
  6 23  1  0
  7 24  1  6
  8 25  1  0
  8 26  1  0
  8 27  1  0
 15 28  1  0
 16 29  1  0
 17 30  1  0
 18 31  1  0
 19 32  1  0
M  CHG  1   9  -1
M  END
>  <score>  (3) 
-9.852

$$$$
=
     RDKit          3D

 32 33  0  0  0  0  0  0  0  0999 V2000
    2.8640   68.7100   63.7920 C   0  0  0  0  0  0  0  0  0  0  0  0
    4.2240   69.0640   63.8540 C   0  0  0  0  0  0  0  0  0  0  0  0
    4.8290   69.4290   65.0590 C   0  0  0  0  0  0  0  0  0  0  0  0
    4.0750   69.4760   66.2270 C   0  0  0  0  0  0  0  0  0  0  0  0
    2.7110   69.1640   66.1850 C   0  0  0  0  0  0  0  0  0  0  0  0
    2.1170   68.7610   64.9800 C   0  0  0  0  0  0  0  0  0  0  0  0
    2.2610   68.3430   62.4390 C   0  0  2  0  0  0  0  0  0  0  0  0
    3.0460   68.8020   61.2070 C   0  0  0  0  0  0  0  0  0  0  0  0
    0.6410   70.0300   61.8930 O   0  0  0  0  0  1  0  0  0  0  0  0
    0.8020   68.8480   62.3100 C   0  0  0  0  0  0  0  0  0  0  0  0
   -0.0810   67.9920   62.6270 O   0  0  0  0  0  0  0  0  0  0  0  0
    1.8710   69.2420   67.4080 C   0  0  0  0  0  0  0  0  0  0  0  0
    2.2470   69.8970   68.3770 O   0  0  0  0  0  0  0  0  0  0  0  0
    0.5710   68.5270   67.4880 C   0  0  0  0  0  0  0  0  0  0  0  0
   -0.5470   68.9460   66.7570 C   0  0  0  0  0  0  0  0  0  0  0  0
   -1.7470   68.2400   66.8510 C   0  0  0  0  0  0  0  0  0  0  0  0
   -1.8310   67.1080   67.6630 C   0  0  0  0  0  0  0  0  0  0  0  0
   -0.7130   66.6760   68.3780 C   0  0  0  0  0  0  0  0  0  0  0  0
    0.4880   67.3800   68.2860 C   0  0  0  0  0  0  0  0  0  0  0  0
    4.8248   69.0531   62.9326 H   0  0  0  0  0  0  0  0  0  0  0  0
    5.9000   69.6789   65.0842 H   0  0  0  0  0  0  0  0  0  0  0  0
    4.5484   69.7571   67.1793 H   0  0  0  0  0  0  0  0  0  0  0  0
    1.0532   68.4815   64.9654 H   0  0  0  0  0  0  0  0  0  0  0  0
    2.3041   67.2438   62.4406 H   0  0  0  0  0  0  0  0  0  0  0  0
    3.9543   69.3331   61.5279 H   0  0  0  0  0  0  0  0  0  0  0  0
    3.3272   67.9260   60.6040 H   0  0  0  0  0  0  0  0  0  0  0  0
    2.4205   69.4767   60.6040 H   0  0  0  0  0  0  0  0  0  0  0  0
   -0.4795   69.8319   66.1084 H   0  0  0  0  0  0  0  0  0  0  0  0
   -2.6279   68.5761   66.2844 H   0  0  0  0  0  0  0  0  0  0  0  0
   -2.7793   66.5558   67.7395 H   0  0  0  0  0  0  0  0  0  0  0  0
   -0.7787   65.7808   69.0138 H   0  0  0  0  0  0  0  0  0  0  0  0
    1.3716   67.0329   68.8418 H   0  0  0  0  0  0  0  0  0  0  0  0
  2  1  2  0
  3  2  1  0
  4  3  2  0
  5  4  1  0
  6  5  2  0
  6  1  1  0
  7  1  1  0
  8  7  1  0
 10  9  1  0
 10  7  1  0
 11 10  2  0
 12  5  1  0
 13 12  2  0
 14 12  1  0
 15 14  2  0
 16 15  1  0
 17 16  2  0
 18 17  1  0
 19 14  1  0
 19 18  2  0
  2 20  1  0
  3 21  1  0
  4 22  1  0
  6 23  1  0
  7 24  1  1
  8 25  1  0
  8 26  1  0
  8 27  1  0
 15 28  1  0
 16 29  1  0
 17 30  1  0
 18 31  1  0
 19 32  1  0
M  CHG  1   9  -1
M  END
>  <score>  (4) 
-9.588

$$$$
=
     RDKit          3D

 32 33  0  0  0  0  0  0  0  0999 V2000
    1.0550   68.7350   65.5160 C   0  0  0  0  0  0  0  0  0  0  0  0
    0.7410   68.5570   64.1570 C   0  0  0  0  0  0  0  0  0  0  0  0
    1.7330   68.5410   63.1740 C   0  0  0  0  0  0  0  0  0  0  0  0
    3.0640   68.7330   63.5290 C   0  0  0  0  0  0  0  0  0  0  0  0
    3.3990   68.9490   64.8710 C   0  0  0  0  0  0  0  0  0  0  0  0
    2.4040   68.9260   65.8590 C   0  0  0  0  0  0  0  0  0  0  0  0
   -0.0800   68.7650   66.5360 C   0  0  2  0  0  0  0  0  0  0  0  0
    0.1110   69.7070   67.7280 C   0  0  0  0  0  0  0  0  0  0  0  0
    0.4770   66.8000   67.7990 O   0  0  0  0  0  1  0  0  0  0  0  0
   -0.4000   67.3470   67.0730 C   0  0  0  0  0  0  0  0  0  0  0  0
   -1.5380   66.8990   66.7300 O   0  0  0  0  0  0  0  0  0  0  0  0
    4.8070   69.1950   65.2770 C   0  0  0  0  0  0  0  0  0  0  0  0
    5.7290   68.8950   64.5240 O   0  0  0  0  0  0  0  0  0  0  0  0
    5.1270   69.7980   66.5970 C   0  0  0  0  0  0  0  0  0  0  0  0
    4.1430   70.0000   67.5730 C   0  0  0  0  0  0  0  0  0  0  0  0
    4.4870   70.5570   68.8050 C   0  0  0  0  0  0  0  0  0  0  0  0
    5.8130   70.9020   69.0710 C   0  0  0  0  0  0  0  0  0  0  0  0
    6.7990   70.6840   68.1090 C   0  0  0  0  0  0  0  0  0  0  0  0
    6.4590   70.1260   66.8760 C   0  0  0  0  0  0  0  0  0  0  0  0
   -0.3105   68.4273   63.8612 H   0  0  0  0  0  0  0  0  0  0  0  0
    1.4620   68.3768   62.1206 H   0  0  0  0  0  0  0  0  0  0  0  0
    3.8495   68.7152   62.7592 H   0  0  0  0  0  0  0  0  0  0  0  0
    2.6829   69.0590   66.9147 H   0  0  0  0  0  0  0  0  0  0  0  0
   -0.9214   69.1712   65.9554 H   0  0  0  0  0  0  0  0  0  0  0  0
   -0.0037   69.1413   68.6644 H   0  0  0  0  0  0  0  0  0  0  0  0
    1.1172   70.1497   67.6879 H   0  0  0  0  0  0  0  0  0  0  0  0
   -0.6433   70.5067   67.6879 H   0  0  0  0  0  0  0  0  0  0  0  0
    3.0992   69.7196   67.3682 H   0  0  0  0  0  0  0  0  0  0  0  0
    3.7122   70.7245   69.5677 H   0  0  0  0  0  0  0  0  0  0  0  0
    6.0808   71.3465   70.0409 H   0  0  0  0  0  0  0  0  0  0  0  0
    7.8444   70.9518   68.3222 H   0  0  0  0  0  0  0  0  0  0  0  0
    7.2389   69.9436   66.1221 H   0  0  0  0  0  0  0  0  0  0  0  0
  2  1  2  0
  3  2  1  0
  4  3  2  0
  5  4  1  0
  6  5  2  0
  6  1  1  0
  7  1  1  0
  8  7  1  0
 10  9  1  0
 10  7  1  0
 11 10  2  0
 12  5  1  0
 13 12  2  0
 14 12  1  0
 15 14  2  0
 16 15  1  0
 17 16  2  0
 18 17  1  0
 19 14  1  0
 19 18  2  0
  2 20  1  0
  3 21  1  0
  4 22  1  0
  6 23  1  0
  7 24  1  6
  8 25  1  0
  8 26  1  0
  8 27  1  0
 15 28  1  0
 16 29  1  0
 17 30  1  0
 18 31  1  0
 19 32  1  0
M  CHG  1   9  -1
M  END
>  <score>  (5) 
-9.454

$$$$
=
     RDKit          3D

 32 33  0  0  0  0  0  0  0  0999 V2000
    0.9210   66.3420   69.6240 C   0  0  0  0  0  0  0  0  0  0  0  0
   -0.3420   66.1280   69.0420 C   0  0  0  0  0  0  0  0  0  0  0  0
   -0.8460   66.9830   68.0600 C   0  0  0  0  0  0  0  0  0  0  0  0
   -0.1070   68.0910   67.6580 C   0  0  0  0  0  0  0  0  0  0  0  0
    1.1350   68.3460   68.2490 C   0  0  0  0  0  0  0  0  0  0  0  0
    1.6550   67.4640   69.2070 C   0  0  0  0  0  0  0  0  0  0  0  0
    1.4020   65.3830   70.7100 C   0  0  2  0  0  0  0  0  0  0  0  0
    2.2390   64.1930   70.2320 C   0  0  0  0  0  0  0  0  0  0  0  0
   -0.3490   65.6710   72.3280 O   0  0  0  0  0  1  0  0  0  0  0  0
    0.2220   64.8470   71.5590 C   0  0  0  0  0  0  0  0  0  0  0  0
   -0.0530   63.6230   71.3640 O   0  0  0  0  0  0  0  0  0  0  0  0
    1.9310   69.5420   67.8680 C   0  0  0  0  0  0  0  0  0  0  0  0
    1.6830   70.6350   68.3690 O   0  0  0  0  0  0  0  0  0  0  0  0
    3.0300   69.4420   66.8730 C   0  0  0  0  0  0  0  0  0  0  0  0
    2.8070   68.9770   65.5720 C   0  0  0  0  0  0  0  0  0  0  0  0
    3.8640   68.9110   64.6630 C   0  0  0  0  0  0  0  0  0  0  0  0
    5.1420   69.3190   65.0470 C   0  0  0  0  0  0  0  0  0  0  0  0
    5.3650   69.8030   66.3360 C   0  0  0  0  0  0  0  0  0  0  0  0
    4.3100   69.8700   67.2470 C   0  0  0  0  0  0  0  0  0  0  0  0
   -0.9457   65.2681   69.3679 H   0  0  0  0  0  0  0  0  0  0  0  0
   -1.8266   66.7807   67.6045 H   0  0  0  0  0  0  0  0  0  0  0  0
   -0.4973   68.7630   66.8795 H   0  0  0  0  0  0  0  0  0  0  0  0
    2.6497   67.6533   69.6369 H   0  0  0  0  0  0  0  0  0  0  0  0
    2.0744   66.0107   71.3132 H   0  0  0  0  0  0  0  0  0  0  0  0
    2.6256   63.6433   71.1028 H   0  0  0  0  0  0  0  0  0  0  0  0
    1.6117   63.5238   69.6249 H   0  0  0  0  0  0  0  0  0  0  0  0
    3.0809   64.5572   69.6249 H   0  0  0  0  0  0  0  0  0  0  0  0
    1.7981   68.6634   65.2657 H   0  0  0  0  0  0  0  0  0  0  0  0
    3.6895   68.5371   63.6433 H   0  0  0  0  0  0  0  0  0  0  0  0
    5.9754   69.2588   64.3316 H   0  0  0  0  0  0  0  0  0  0  0  0
    6.3715   70.1316   66.6342 H   0  0  0  0  0  0  0  0  0  0  0  0
    4.4841   70.2597   68.2608 H   0  0  0  0  0  0  0  0  0  0  0  0
  2  1  2  0
  3  2  1  0
  4  3  2  0
  5  4  1  0
  6  5  2  0
  6  1  1  0
  7  1  1  0
  8  7  1  0
 10  9  1  0
 10  7  1  0
 11 10  2  0
 12  5  1  0
 13 12  2  0
 14 12  1  0
 15 14  2  0
 16 15  1  0
 17 16  2  0
 18 17  1  0
 19 14  1  0
 19 18  2  0
  2 20  1  0
  3 21  1  0
  4 22  1  0
  6 23  1  0
  7 24  1  1
  8 25  1  0
  8 26  1  0
  8 27  1  0
 15 28  1  0
 16 29  1  0
 17 30  1  0
 18 31  1  0
 19 32  1  0
M  CHG  1   9  -1
M  END
>  <score>  (6) 
-9.059

$$$$
=
     RDKit          3D

 32 33  0  0  0  0  0  0  0  0999 V2000
    2.8350   68.6630   62.8650 C   0  0  0  0  0  0  0  0  0  0  0  0
    4.1550   68.4380   62.4340 C   0  0  0  0  0  0  0  0  0  0  0  0
    5.2320   68.4960   63.3210 C   0  0  0  0  0  0  0  0  0  0  0  0
    5.0140   68.8110   64.6580 C   0  0  0  0  0  0  0  0  0  0  0  0
    3.7140   69.0750   65.1040 C   0  0  0  0  0  0  0  0  0  0  0  0
    2.6310   68.9780   64.2180 C   0  0  0  0  0  0  0  0  0  0  0  0
    1.7070   68.6070   61.8380 C   0  0  2  0  0  0  0  0  0  0  0  0
    1.9110   69.4390   60.5700 C   0  0  0  0  0  0  0  0  0  0  0  0
    0.0840   70.2260   62.5550 O   0  0  0  0  0  1  0  0  0  0  0  0
    0.3450   68.9920   62.4680 C   0  0  0  0  0  0  0  0  0  0  0  0
   -0.3740   68.0040   62.8120 O   0  0  0  0  0  0  0  0  0  0  0  0
    3.4530   69.4510   66.5180 C   0  0  0  0  0  0  0  0  0  0  0  0
    2.3200   69.3590   66.9840 O   0  0  0  0  0  0  0  0  0  0  0  0
    4.5480   69.9500   67.3900 C   0  0  0  0  0  0  0  0  0  0  0  0
    5.8520   70.1200   66.9100 C   0  0  0  0  0  0  0  0  0  0  0  0
    6.8490   70.6040   67.7580 C   0  0  0  0  0  0  0  0  0  0  0  0
    6.5460   70.9310   69.0810 C   0  0  0  0  0  0  0  0  0  0  0  0
    5.2420   70.7820   69.5560 C   0  0  0  0  0  0  0  0  0  0  0  0
    4.2430   70.2990   68.7110 C   0  0  0  0  0  0  0  0  0  0  0  0
    4.3431   68.2112   61.3742 H   0  0  0  0  0  0  0  0  0  0  0  0
    6.2519   68.2927   62.9626 H   0  0  0  0  0  0  0  0  0  0  0  0
    5.8589   68.8524   65.3612 H   0  0  0  0  0  0  0  0  0  0  0  0
    1.6095   69.1508   64.5876 H   0  0  0  0  0  0  0  0  0  0  0  0
    1.7157   67.5542   61.5194 H   0  0  0  0  0  0  0  0  0  0  0  0
    2.1645   70.4730   60.8467 H   0  0  0  0  0  0  0  0  0  0  0  0
    2.7299   69.0072   59.9759 H   0  0  0  0  0  0  0  0  0  0  0  0
    0.9853   69.4349   59.9759 H   0  0  0  0  0  0  0  0  0  0  0  0
    6.0906   69.8722   65.8652 H   0  0  0  0  0  0  0  0  0  0  0  0
    7.8757   70.7281   67.3833 H   0  0  0  0  0  0  0  0  0  0  0  0
    7.3351   71.3062   69.7492 H   0  0  0  0  0  0  0  0  0  0  0  0
    5.0022   71.0455   70.5967 H   0  0  0  0  0  0  0  0  0  0  0  0
    3.2134   70.1921   69.0833 H   0  0  0  0  0  0  0  0  0  0  0  0
  2  1  2  0
  3  2  1  0
  4  3  2  0
  5  4  1  0
  6  5  2  0
  6  1  1  0
  7  1  1  0
  8  7  1  0
 10  9  1  0
 10  7  1  0
 11 10  2  0
 12  5  1  0
 13 12  2  0
 14 12  1  0
 15 14  2  0
 16 15  1  0
 17 16  2  0
 18 17  1  0
 19 14  1  0
 19 18  2  0
  2 20  1  0
  3 21  1  0
  4 22  1  0
  6 23  1  0
  7 24  1  6
  8 25  1  0
  8 26  1  0
  8 27  1  0
 15 28  1  0
 16 29  1  0
 17 30  1  0
 18 31  1  0
 19 32  1  0
M  CHG  1   9  -1
M  END
>  <score>  (7) 
-8.584

$$$$
=
     RDKit          3D

 32 33  0  0  0  0  0  0  0  0999 V2000
    2.5760   62.5540   71.1610 C   0  0  0  0  0  0  0  0  0  0  0  0
    1.7950   61.5210   71.7110 C   0  0  0  0  0  0  0  0  0  0  0  0
    0.4740   61.7380   72.1070 C   0  0  0  0  0  0  0  0  0  0  0  0
   -0.0870   63.0050   71.9880 C   0  0  0  0  0  0  0  0  0  0  0  0
    0.6810   64.0580   71.4790 C   0  0  0  0  0  0  0  0  0  0  0  0
    1.9950   63.8270   71.0460 C   0  0  0  0  0  0  0  0  0  0  0  0
    4.0210   62.2540   70.7710 C   0  0  2  0  0  0  0  0  0  0  0  0
    4.9420   63.4680   70.6190 C   0  0  0  0  0  0  0  0  0  0  0  0
    4.5070   60.2220   69.5870 O   0  0  0  0  0  1  0  0  0  0  0  0
    4.0970   61.4120   69.4730 C   0  0  0  0  0  0  0  0  0  0  0  0
    3.7100   62.0200   68.4270 O   0  0  0  0  0  0  0  0  0  0  0  0
    0.1230   65.4310   71.3750 C   0  0  0  0  0  0  0  0  0  0  0  0
   -0.4470   65.9420   72.3360 O   0  0  0  0  0  0  0  0  0  0  0  0
    0.2330   66.2070   70.1130 C   0  0  0  0  0  0  0  0  0  0  0  0
    1.3790   66.9490   69.8010 C   0  0  0  0  0  0  0  0  0  0  0  0
    1.4480   67.6540   68.5990 C   0  0  0  0  0  0  0  0  0  0  0  0
    0.3810   67.6100   67.7000 C   0  0  0  0  0  0  0  0  0  0  0  0
   -0.7540   66.8560   67.9970 C   0  0  0  0  0  0  0  0  0  0  0  0
   -0.8260   66.1490   69.1990 C   0  0  0  0  0  0  0  0  0  0  0  0
    2.2351   60.5201   71.8317 H   0  0  0  0  0  0  0  0  0  0  0  0
   -0.1226   60.9077   72.5128 H   0  0  0  0  0  0  0  0  0  0  0  0
   -1.1296   63.1785   72.2926 H   0  0  0  0  0  0  0  0  0  0  0  0
    2.5771   64.6529   70.6112 H   0  0  0  0  0  0  0  0  0  0  0  0
    4.3969   61.6883   71.6363 H   0  0  0  0  0  0  0  0  0  0  0  0
    5.2247   63.8407   71.6146 H   0  0  0  0  0  0  0  0  0  0  0  0
    5.8469   63.1748   70.0666 H   0  0  0  0  0  0  0  0  0  0  0  0
    4.4159   64.2605   70.0666 H   0  0  0  0  0  0  0  0  0  0  0  0
    2.2249   66.9760   70.5037 H   0  0  0  0  0  0  0  0  0  0  0  0
    2.3442   68.2452   68.3595 H   0  0  0  0  0  0  0  0  0  0  0  0
    0.4355   68.1711   66.7555 H   0  0  0  0  0  0  0  0  0  0  0  0
   -1.5917   66.8183   67.2851 H   0  0  0  0  0  0  0  0  0  0  0  0
   -1.7165   65.5453   69.4282 H   0  0  0  0  0  0  0  0  0  0  0  0
  2  1  2  0
  3  2  1  0
  4  3  2  0
  5  4  1  0
  6  5  2  0
  6  1  1  0
  7  1  1  0
  8  7  1  0
 10  9  1  0
 10  7  1  0
 11 10  2  0
 12  5  1  0
 13 12  2  0
 14 12  1  0
 15 14  2  0
 16 15  1  0
 17 16  2  0
 18 17  1  0
 19 14  1  0
 19 18  2  0
  2 20  1  0
  3 21  1  0
  4 22  1  0
  6 23  1  0
  7 24  1  1
  8 25  1  0
  8 26  1  0
  8 27  1  0
 15 28  1  0
 16 29  1  0
 17 30  1  0
 18 31  1  0
 19 32  1  0
M  CHG  1   9  -1
M  END
>  <score>  (8) 
-8.435

$$$$
=
     RDKit          3D

 32 33  0  0  0  0  0  0  0  0999 V2000
    2.1040   63.0700   70.7250 C   0  0  0  0  0  0  0  0  0  0  0  0
    3.2710   63.8480   70.6090 C   0  0  0  0  0  0  0  0  0  0  0  0
    4.5370   63.2610   70.5680 C   0  0  0  0  0  0  0  0  0  0  0  0
    4.6650   61.8800   70.6720 C   0  0  0  0  0  0  0  0  0  0  0  0
    3.5220   61.0880   70.8260 C   0  0  0  0  0  0  0  0  0  0  0  0
    2.2500   61.6780   70.8280 C   0  0  0  0  0  0  0  0  0  0  0  0
    0.7530   63.7780   70.7870 C   0  0  2  0  0  0  0  0  0  0  0  0
    0.7800   65.2970   70.5970 C   0  0  0  0  0  0  0  0  0  0  0  0
   -0.7550   62.4480   72.1000 O   0  0  0  0  0  1  0  0  0  0  0  0
    0.0030   63.4580   72.1050 C   0  0  0  0  0  0  0  0  0  0  0  0
    0.2590   64.2530   73.0620 O   0  0  0  0  0  0  0  0  0  0  0  0
    3.6290   59.6130   70.9780 C   0  0  0  0  0  0  0  0  0  0  0  0
    4.0450   58.9240   70.0510 O   0  0  0  0  0  0  0  0  0  0  0  0
    3.2300   58.9450   72.2450 C   0  0  0  0  0  0  0  0  0  0  0  0
    2.2600   57.9360   72.2710 C   0  0  0  0  0  0  0  0  0  0  0  0
    1.9220   57.3250   73.4800 C   0  0  0  0  0  0  0  0  0  0  0  0
    2.5580   57.7100   74.6600 C   0  0  0  0  0  0  0  0  0  0  0  0
    3.5400   58.7010   74.6350 C   0  0  0  0  0  0  0  0  0  0  0  0
    3.8800   59.3140   73.4280 C   0  0  0  0  0  0  0  0  0  0  0  0
    3.1837   64.9429   70.5493 H   0  0  0  0  0  0  0  0  0  0  0  0
    5.4322   63.8899   70.4536 H   0  0  0  0  0  0  0  0  0  0  0  0
    5.6601   61.4127   70.6334 H   0  0  0  0  0  0  0  0  0  0  0  0
    1.3561   61.0424   70.9113 H   0  0  0  0  0  0  0  0  0  0  0  0
    0.2208   63.3690   69.9155 H   0  0  0  0  0  0  0  0  0  0  0  0
    0.7888   65.7894   71.5806 H   0  0  0  0  0  0  0  0  0  0  0  0
    1.6833   65.5805   70.0370 H   0  0  0  0  0  0  0  0  0  0  0  0
   -0.1127   65.6124   70.0370 H   0  0  0  0  0  0  0  0  0  0  0  0
    1.7645   57.6248   71.3396 H   0  0  0  0  0  0  0  0  0  0  0  0
    1.1530   56.5388   73.5019 H   0  0  0  0  0  0  0  0  0  0  0  0
    2.2850   57.2315   75.6121 H   0  0  0  0  0  0  0  0  0  0  0  0
    4.0456   58.9988   75.5654 H   0  0  0  0  0  0  0  0  0  0  0  0
    4.6605   60.0888   73.4067 H   0  0  0  0  0  0  0  0  0  0  0  0
  2  1  2  0
  3  2  1  0
  4  3  2  0
  5  4  1  0
  6  5  2  0
  6  1  1  0
  7  1  1  0
  8  7  1  0
 10  9  1  0
 10  7  1  0
 11 10  2  0
 12  5  1  0
 13 12  2  0
 14 12  1  0
 15 14  2  0
 16 15  1  0
 17 16  2  0
 18 17  1  0
 19 14  1  0
 19 18  2  0
  2 20  1  0
  3 21  1  0
  4 22  1  0
  6 23  1  0
  7 24  1  6
  8 25  1  0
  8 26  1  0
  8 27  1  0
 15 28  1  0
 16 29  1  0
 17 30  1  0
 18 31  1  0
 19 32  1  0
M  CHG  1   9  -1
M  END
>  <score>  (9) 
-8.162

$$$$
