=
     RDKit          3D

 92101  0  0  0  0  0  0  0  0999 V2000
   -6.6050   62.2230   79.4690 N   0  0  1  0  0  4  0  0  0  0  0  0
   -7.4220   61.0770   78.9320 C   0  0  0  0  0  0  0  0  0  0  0  0
   -6.5410   60.1310   78.1190 C   0  0  0  0  0  0  0  0  0  0  0  0
   -5.5950   60.8490   77.1310 C   0  0  2  0  0  0  0  0  0  0  0  0
   -4.7740   61.9540   77.8310 C   0  0  2  0  0  0  0  0  0  0  0  0
   -5.8200   62.9890   78.3800 C   0  0  1  0  0  0  0  0  0  0  0  0
   -6.7660   63.6100   77.3070 C   0  0  0  0  0  0  0  0  0  0  0  0
   -6.9850   62.7350   76.0980 C   0  0  0  0  0  0  0  0  0  0  0  0
   -6.3690   61.4960   76.0410 C   0  0  0  0  0  0  0  0  0  0  0  0
   -6.2910   60.7520   74.8830 C   0  0  0  0  0  0  0  0  0  0  0  0
   -5.4320   59.6890   74.9940 O   0  0  0  0  0  0  0  0  0  0  0  0
   -4.8080   59.8210   76.2900 C   0  0  1  0  0  0  0  0  0  0  0  0
   -3.3500   60.2700   76.2260 C   0  0  0  0  0  0  0  0  0  0  0  0
   -2.4320   59.4360   76.6220 N   0  0  0  0  0  0  0  0  0  0  0  0
   -3.1160   61.7180   75.8550 C   0  0  0  0  0  0  0  0  0  0  0  0
   -3.6910   62.6260   76.9500 C   0  0  0  0  0  0  0  0  0  0  0  0
   -6.9640   61.1550   73.7520 C   0  0  0  0  0  0  0  0  0  0  0  0
   -7.6860   62.3510   73.7980 C   0  0  0  0  0  0  0  0  0  0  0  0
   -7.6790   63.1510   74.9600 C   0  0  0  0  0  0  0  0  0  0  0  0
   -1.1740   59.9980   76.6890 N   0  0  0  0  0  0  0  0  0  0  0  0
   -0.4460   59.8650   75.6190 C   0  0  0  0  0  0  0  0  0  0  0  0
   -0.8730   59.1140   74.3710 C   0  0  0  0  0  0  0  0  0  0  0  0
   -0.6310   59.9840   73.1370 C   0  0  0  0  0  0  0  0  0  0  0  0
    0.8650   60.3240   72.9860 C   0  0  2  0  0  0  0  0  0  0  0  0
    1.4460   60.9660   74.2510 C   0  0  2  0  0  0  0  0  0  0  0  0
    0.9820   60.4490   75.6290 C   0  0  1  0  0  0  0  0  0  0  0  0
    1.0660   61.5860   76.5380 O   0  0  0  0  0  0  0  0  0  0  0  0
    0.7670   62.6620   75.7370 C   0  0  0  0  0  0  0  0  0  0  0  0
    0.8970   62.3520   74.3940 C   0  0  0  0  0  0  0  0  0  0  0  0
    0.4870   63.2070   73.3850 C   0  0  0  0  0  0  0  0  0  0  0  0
    0.4250   62.6910   71.9730 C   0  0  0  0  0  0  0  0  0  0  0  0
    1.1760   61.3360   71.8130 C   0  0  1  0  0  0  0  0  0  0  0  0
    2.7070   61.6680   71.7600 N   0  0  1  0  0  4  0  0  0  0  0  0
    3.5690   60.9550   72.7690 C   0  0  0  0  0  0  0  0  0  0  0  0
    2.9930   61.0420   74.1800 C   0  0  0  0  0  0  0  0  0  0  0  0
    0.0330   64.4710   73.7690 C   0  0  0  0  0  0  0  0  0  0  0  0
   -0.0200   64.8270   75.1350 C   0  0  0  0  0  0  0  0  0  0  0  0
    0.3360   63.9090   76.1280 C   0  0  0  0  0  0  0  0  0  0  0  0
    0.2330   64.2080   77.4490 O   0  0  0  0  0  0  0  0  0  0  0  0
    1.5530   59.0840   72.7410 O   0  0  0  0  0  0  0  0  0  0  0  0
    3.2960   61.5190   70.3740 C   0  0  0  0  0  0  0  0  0  0  0  0
    3.8810   62.7950   69.8670 C   0  0  0  0  0  0  0  0  0  0  0  0
    4.9370   63.4150   70.4100 C   0  0  0  0  0  0  0  0  0  0  0  0
   -6.8900   60.4070   72.6200 O   0  0  0  0  0  0  0  0  0  0  0  0
   -4.1340   61.3830   79.0000 O   0  0  0  0  0  0  0  0  0  0  0  0
   -7.3630   63.1080   80.4170 C   0  0  0  0  0  0  0  0  0  0  0  0
   -9.6830   63.9380   79.6950 C   0  0  0  0  0  0  0  0  0  0  0  0
   -8.8560   63.0660   80.2910 C   0  0  0  0  0  0  0  0  0  0  0  0
   -5.8762   61.7850   80.0503 H   0  0  0  0  0  0  0  0  0  0  0  0
   -7.8681   60.5247   79.7722 H   0  0  0  0  0  0  0  0  0  0  0  0
   -8.2130   61.4768   78.2804 H   0  0  0  0  0  0  0  0  0  0  0  0
   -5.9292   59.5415   78.8177 H   0  0  0  0  0  0  0  0  0  0  0  0
   -7.2160   59.5054   77.5166 H   0  0  0  0  0  0  0  0  0  0  0  0
   -5.2953   63.8738   78.7696 H   0  0  0  0  0  0  0  0  0  0  0  0
   -7.7423   63.8011   77.7764 H   0  0  0  0  0  0  0  0  0  0  0  0
   -6.2792   64.5292   76.9491 H   0  0  0  0  0  0  0  0  0  0  0  0
   -4.8231   58.8195   76.7448 H   0  0  0  0  0  0  0  0  0  0  0  0
   -2.0359   61.9013   75.7565 H   0  0  0  0  0  0  0  0  0  0  0  0
   -3.6138   61.9365   74.8987 H   0  0  0  0  0  0  0  0  0  0  0  0
   -2.8648   62.9446   77.6026 H   0  0  0  0  0  0  0  0  0  0  0  0
   -4.1793   63.4678   76.4373 H   0  0  0  0  0  0  0  0  0  0  0  0
   -8.2653   62.6716   72.9196 H   0  0  0  0  0  0  0  0  0  0  0  0
   -8.2229   64.1071   74.9696 H   0  0  0  0  0  0  0  0  0  0  0  0
   -0.2882   58.1863   74.2846 H   0  0  0  0  0  0  0  0  0  0  0  0
   -1.9436   58.8710   74.4408 H   0  0  0  0  0  0  0  0  0  0  0  0
   -0.9686   59.4409   72.2420 H   0  0  0  0  0  0  0  0  0  0  0  0
   -1.1937   60.9220   73.2535 H   0  0  0  0  0  0  0  0  0  0  0  0
    1.6256   59.6137   75.9422 H   0  0  0  0  0  0  0  0  0  0  0  0
   -0.6292   62.5479   71.6933 H   0  0  0  0  0  0  0  0  0  0  0  0
    0.9135   63.4292   71.3200 H   0  0  0  0  0  0  0  0  0  0  0  0
    0.8385   60.8357   70.8933 H   0  0  0  0  0  0  0  0  0  0  0  0
    2.7264   62.6620   72.0293 H   0  0  0  0  0  0  0  0  0  0  0  0
    3.6478   59.8958   72.4828 H   0  0  0  0  0  0  0  0  0  0  0  0
    4.5557   61.4412   72.7754 H   0  0  0  0  0  0  0  0  0  0  0  0
    3.4049   60.2105   74.7707 H   0  0  0  0  0  0  0  0  0  0  0  0
    3.2751   62.0305   74.5717 H   0  0  0  0  0  0  0  0  0  0  0  0
   -0.2852   65.1935   73.0030 H   0  0  0  0  0  0  0  0  0  0  0  0
   -0.3451   65.8382   75.4209 H   0  0  0  0  0  0  0  0  0  0  0  0
    0.4925   63.5378   78.1299 H   0  0  0  0  0  0  0  0  0  0  0  0
    1.7879   58.6607   73.6046 H   0  0  0  0  0  0  0  0  0  0  0  0
    4.0870   60.7553   70.4060 H   0  0  0  0  0  0  0  0  0  0  0  0
    2.4833   61.2272   69.6926 H   0  0  0  0  0  0  0  0  0  0  0  0
    3.4125   63.2585   68.9863 H   0  0  0  0  0  0  0  0  0  0  0  0
    5.3069   64.3548   69.9743 H   0  0  0  0  0  0  0  0  0  0  0  0
    5.4342   62.9843   71.2916 H   0  0  0  0  0  0  0  0  0  0  0  0
   -7.3728   60.6939   71.8047 H   0  0  0  0  0  0  0  0  0  0  0  0
   -4.5499   61.7540   79.8182 H   0  0  0  0  0  0  0  0  0  0  0  0
   -7.1016   62.8075   81.4424 H   0  0  0  0  0  0  0  0  0  0  0  0
   -7.0694   64.1379   80.1660 H   0  0  0  0  0  0  0  0  0  0  0  0
  -10.7676   63.7544   79.6934 H   0  0  0  0  0  0  0  0  0  0  0  0
   -9.2766   64.8366   79.2078 H   0  0  0  0  0  0  0  0  0  0  0  0
   -9.3435   62.1952   80.7536 H   0  0  0  0  0  0  0  0  0  0  0  0
  2  1  1  0
  3  2  1  0
  4  3  1  1
  5  4  1  0
  6  1  1  0
  6  5  1  0
  7  6  1  0
  8  7  1  0
  9  8  2  0
  9  4  1  0
 10  9  1  0
 11 10  1  0
 12  4  1  0
 12 11  1  0
 13 12  1  0
 14 13  2  0
 15 13  1  0
 16 15  1  0
 16  5  1  0
 17 10  2  0
 18 17  1  0
 19 18  2  0
 19  8  1  0
 20 14  1  0
 21 20  2  0
 22 21  1  0
 23 22  1  0
 24 23  1  0
 25 24  1  0
 26 21  1  0
 26 25  1  0
 27 26  1  0
 28 27  1  0
 29 28  2  0
 29 25  1  0
 30 29  1  0
 31 30  1  0
 32 31  1  0
 32 24  1  0
 33 32  1  0
 34 33  1  0
 35 34  1  0
 25 35  1  6
 36 30  2  0
 37 36  1  0
 38 37  2  0
 38 28  1  0
 39 38  1  0
 24 40  1  6
 41 33  1  0
 42 41  1  0
 43 42  2  3
 44 17  1  0
  5 45  1  1
 46  1  1  0
 48 47  2  3
 48 46  1  0
  1 49  1  1
  2 50  1  0
  2 51  1  0
  3 52  1  0
  3 53  1  0
  6 54  1  1
  7 55  1  0
  7 56  1  0
 12 57  1  1
 15 58  1  0
 15 59  1  0
 16 60  1  0
 16 61  1  0
 18 62  1  0
 19 63  1  0
 22 64  1  0
 22 65  1  0
 23 66  1  0
 23 67  1  0
 26 68  1  1
 31 69  1  0
 31 70  1  0
 32 71  1  6
 33 72  1  1
 34 73  1  0
 34 74  1  0
 35 75  1  0
 35 76  1  0
 36 77  1  0
 37 78  1  0
 39 79  1  0
 40 80  1  0
 41 81  1  0
 41 82  1  0
 42 83  1  0
 43 84  1  0
 43 85  1  0
 44 86  1  0
 45 87  1  0
 46 88  1  0
 46 89  1  0
 47 90  1  0
 47 91  1  0
 48 92  1  0
M  CHG  2   1   1  33   1
M  END
>  <score>  (1) 
-8.026

$$$$
=
     RDKit          3D

 92101  0  0  0  0  0  0  0  0999 V2000
   -0.7920   53.7830   79.4430 N   0  0  1  0  0  4  0  0  0  0  0  0
    0.5440   53.1440   79.1670 C   0  0  0  0  0  0  0  0  0  0  0  0
    1.5460   54.1920   78.6870 C   0  0  0  0  0  0  0  0  0  0  0  0
    0.9850   55.1510   77.6130 C   0  0  2  0  0  0  0  0  0  0  0  0
   -0.3530   55.7820   78.0580 C   0  0  2  0  0  0  0  0  0  0  0  0
   -1.3540   54.5870   78.2490 C   0  0  1  0  0  0  0  0  0  0  0  0
   -1.5660   53.6910   76.9900 C   0  0  0  0  0  0  0  0  0  0  0  0
   -0.3970   53.6800   76.0370 C   0  0  0  0  0  0  0  0  0  0  0  0
    0.7310   54.4230   76.3430 C   0  0  0  0  0  0  0  0  0  0  0  0
    1.7240   54.6890   75.4260 C   0  0  0  0  0  0  0  0  0  0  0  0
    2.6110   55.6380   75.8650 O   0  0  0  0  0  0  0  0  0  0  0  0
    2.0840   56.1160   77.1220 C   0  0  1  0  0  0  0  0  0  0  0  0
    1.4880   57.5200   77.0430 C   0  0  0  0  0  0  0  0  0  0  0  0
    2.0770   58.4760   77.7010 N   0  0  0  0  0  0  0  0  0  0  0  0
    0.1610   57.6390   76.3270 C   0  0  0  0  0  0  0  0  0  0  0  0
   -0.9130   56.8710   77.1080 C   0  0  0  0  0  0  0  0  0  0  0  0
    1.7010   54.0900   74.1860 C   0  0  0  0  0  0  0  0  0  0  0  0
    0.6300   53.2490   73.8720 C   0  0  0  0  0  0  0  0  0  0  0  0
   -0.4280   53.0610   74.7860 C   0  0  0  0  0  0  0  0  0  0  0  0
    1.3650   59.6570   77.7050 N   0  0  0  0  0  0  0  0  0  0  0  0
    1.5800   60.4420   76.6900 C   0  0  0  0  0  0  0  0  0  0  0  0
    2.5680   60.1590   75.5740 C   0  0  0  0  0  0  0  0  0  0  0  0
    1.8870   60.3550   74.2190 C   0  0  0  0  0  0  0  0  0  0  0  0
    1.3990   61.8070   74.0510 C   0  0  2  0  0  0  0  0  0  0  0  0
    0.4950   62.2550   75.2060 C   0  0  2  0  0  0  0  0  0  0  0  0
    0.8350   61.7930   76.6390 C   0  0  1  0  0  0  0  0  0  0  0  0
   -0.4360   61.7060   77.3490 O   0  0  0  0  0  0  0  0  0  0  0  0
   -1.3240   61.3210   76.3730 C   0  0  0  0  0  0  0  0  0  0  0  0
   -0.8200   61.5440   75.1040 C   0  0  0  0  0  0  0  0  0  0  0  0
   -1.4450   61.0850   73.9570 C   0  0  0  0  0  0  0  0  0  0  0  0
   -0.7040   61.1440   72.6490 C   0  0  0  0  0  0  0  0  0  0  0  0
    0.5590   62.0520   72.7350 C   0  0  1  0  0  0  0  0  0  0  0  0
    0.0590   63.5360   72.6650 N   0  0  1  0  0  4  0  0  0  0  0  0
    0.4910   64.4280   73.8000 C   0  0  0  0  0  0  0  0  0  0  0  0
    0.2460   63.7840   75.1620 C   0  0  0  0  0  0  0  0  0  0  0  0
   -2.6910   60.4730   74.1160 C   0  0  0  0  0  0  0  0  0  0  0  0
   -3.2540   60.3190   75.4020 C   0  0  0  0  0  0  0  0  0  0  0  0
   -2.5570   60.7330   76.5420 C   0  0  0  0  0  0  0  0  0  0  0  0
   -3.0520   60.5380   77.7930 O   0  0  0  0  0  0  0  0  0  0  0  0
    2.5700   62.6420   74.0320 O   0  0  0  0  0  0  0  0  0  0  0  0
    0.3580   64.1980   71.3390 C   0  0  0  0  0  0  0  0  0  0  0  0
    1.4980   63.5500   70.6250 C   0  0  0  0  0  0  0  0  0  0  0  0
    2.7480   64.0330   70.5940 C   0  0  0  0  0  0  0  0  0  0  0  0
    2.6920   54.3500   73.2930 O   0  0  0  0  0  0  0  0  0  0  0  0
   -0.1750   56.3620   79.3740 O   0  0  0  0  0  0  0  0  0  0  0  0
   -1.7840   52.8500   80.0770 C   0  0  0  0  0  0  0  0  0  0  0  0
   -4.3390   53.0390   79.9080 C   0  0  0  0  0  0  0  0  0  0  0  0
   -3.1370   53.4320   80.3540 C   0  0  0  0  0  0  0  0  0  0  0  0
   -0.6063   54.4934   80.1653 H   0  0  0  0  0  0  0  0  0  0  0  0
    0.9206   52.6782   80.0896 H   0  0  0  0  0  0  0  0  0  0  0  0
    0.4204   52.3827   78.3827 H   0  0  0  0  0  0  0  0  0  0  0  0
    1.8628   54.7905   79.5539 H   0  0  0  0  0  0  0  0  0  0  0  0
    2.3802   53.6460   78.2222 H   0  0  0  0  0  0  0  0  0  0  0  0
   -2.3660   54.9775   78.4316 H   0  0  0  0  0  0  0  0  0  0  0  0
   -1.7467   52.6595   77.3267 H   0  0  0  0  0  0  0  0  0  0  0  0
   -2.4193   54.1144   76.4399 H   0  0  0  0  0  0  0  0  0  0  0  0
    2.9346   56.1589   77.8181 H   0  0  0  0  0  0  0  0  0  0  0  0
   -0.1242   58.6991   76.2574 H   0  0  0  0  0  0  0  0  0  0  0  0
    0.2512   57.2160   75.3156 H   0  0  0  0  0  0  0  0  0  0  0  0
   -1.4839   57.5932   77.7101 H   0  0  0  0  0  0  0  0  0  0  0  0
   -1.5334   56.3511   76.3632 H   0  0  0  0  0  0  0  0  0  0  0  0
    0.6118   52.7287   72.9030 H   0  0  0  0  0  0  0  0  0  0  0  0
   -1.2815   52.4236   74.5117 H   0  0  0  0  0  0  0  0  0  0  0  0
    3.4209   60.8486   75.6575 H   0  0  0  0  0  0  0  0  0  0  0  0
    2.9221   59.1208   75.6563 H   0  0  0  0  0  0  0  0  0  0  0  0
    2.6047   60.1219   73.4186 H   0  0  0  0  0  0  0  0  0  0  0  0
    1.0169   59.6843   74.1638 H   0  0  0  0  0  0  0  0  0  0  0  0
    1.5254   62.5134   77.1021 H   0  0  0  0  0  0  0  0  0  0  0  0
   -0.3918   60.1264   72.3714 H   0  0  0  0  0  0  0  0  0  0  0  0
   -1.3800   61.5723   71.8942 H   0  0  0  0  0  0  0  0  0  0  0  0
    1.2382   61.8149   71.9028 H   0  0  0  0  0  0  0  0  0  0  0  0
   -0.9607   63.4305   72.7654 H   0  0  0  0  0  0  0  0  0  0  0  0
    1.5655   64.6393   73.6958 H   0  0  0  0  0  0  0  0  0  0  0  0
   -0.1043   65.3517   73.7502 H   0  0  0  0  0  0  0  0  0  0  0  0
    0.9149   64.2619   75.8929 H   0  0  0  0  0  0  0  0  0  0  0  0
   -0.8195   63.9334   75.3907 H   0  0  0  0  0  0  0  0  0  0  0  0
   -3.2372   60.1086   73.2334 H   0  0  0  0  0  0  0  0  0  0  0  0
   -4.2518   59.8684   75.5084 H   0  0  0  0  0  0  0  0  0  0  0  0
   -2.5368   60.8414   78.5821 H   0  0  0  0  0  0  0  0  0  0  0  0
    2.8487   62.8407   74.9609 H   0  0  0  0  0  0  0  0  0  0  0  0
   -0.5377   64.1369   70.7035 H   0  0  0  0  0  0  0  0  0  0  0  0
    0.6380   65.2425   71.5405 H   0  0  0  0  0  0  0  0  0  0  0  0
    1.2983   62.6114   70.0873 H   0  0  0  0  0  0  0  0  0  0  0  0
    3.5327   63.4933   70.0435 H   0  0  0  0  0  0  0  0  0  0  0  0
    2.9891   64.9691   71.1190 H   0  0  0  0  0  0  0  0  0  0  0  0
    2.6792   53.9215   72.4006 H   0  0  0  0  0  0  0  0  0  0  0  0
   -0.3832   55.6837   80.0645 H   0  0  0  0  0  0  0  0  0  0  0  0
   -1.9171   51.9900   79.4043 H   0  0  0  0  0  0  0  0  0  0  0  0
   -1.3636   52.5868   81.0588 H   0  0  0  0  0  0  0  0  0  0  0  0
   -5.2441   53.5850   80.2125 H   0  0  0  0  0  0  0  0  0  0  0  0
   -4.4199   52.1706   79.2377 H   0  0  0  0  0  0  0  0  0  0  0  0
   -3.1452   54.3080   81.0192 H   0  0  0  0  0  0  0  0  0  0  0  0
  2  1  1  0
  3  2  1  0
  4  3  1  1
  5  4  1  0
  6  1  1  0
  6  5  1  0
  7  6  1  0
  8  7  1  0
  9  8  2  0
  9  4  1  0
 10  9  1  0
 11 10  1  0
 12  4  1  0
 12 11  1  0
 13 12  1  0
 14 13  2  0
 15 13  1  0
 16 15  1  0
 16  5  1  0
 17 10  2  0
 18 17  1  0
 19 18  2  0
 19  8  1  0
 20 14  1  0
 21 20  2  0
 22 21  1  0
 23 22  1  0
 24 23  1  0
 25 24  1  0
 26 21  1  0
 26 25  1  0
 27 26  1  0
 28 27  1  0
 29 28  2  0
 29 25  1  0
 30 29  1  0
 31 30  1  0
 32 31  1  0
 32 24  1  0
 33 32  1  0
 34 33  1  0
 35 34  1  0
 25 35  1  1
 36 30  2  0
 37 36  1  0
 38 37  2  0
 38 28  1  0
 39 38  1  0
 24 40  1  6
 41 33  1  0
 42 41  1  0
 43 42  2  3
 44 17  1  0
  5 45  1  1
 46  1  1  0
 48 47  2  3
 48 46  1  0
  1 49  1  1
  2 50  1  0
  2 51  1  0
  3 52  1  0
  3 53  1  0
  6 54  1  1
  7 55  1  0
  7 56  1  0
 12 57  1  1
 15 58  1  0
 15 59  1  0
 16 60  1  0
 16 61  1  0
 18 62  1  0
 19 63  1  0
 22 64  1  0
 22 65  1  0
 23 66  1  0
 23 67  1  0
 26 68  1  1
 31 69  1  0
 31 70  1  0
 32 71  1  6
 33 72  1  1
 34 73  1  0
 34 74  1  0
 35 75  1  0
 35 76  1  0
 36 77  1  0
 37 78  1  0
 39 79  1  0
 40 80  1  0
 41 81  1  0
 41 82  1  0
 42 83  1  0
 43 84  1  0
 43 85  1  0
 44 86  1  0
 45 87  1  0
 46 88  1  0
 46 89  1  0
 47 90  1  0
 47 91  1  0
 48 92  1  0
M  CHG  2   1   1  33   1
M  END
>  <score>  (2) 
-7.715

$$$$
=
     RDKit          3D

 92101  0  0  0  0  0  0  0  0999 V2000
   -6.5510   57.3550   77.6690 N   0  0  1  0  0  4  0  0  0  0  0  0
   -7.4360   57.1050   76.4760 C   0  0  0  0  0  0  0  0  0  0  0  0
   -6.9430   57.9040   75.2720 C   0  0  0  0  0  0  0  0  0  0  0  0
   -6.5910   59.3740   75.5970 C   0  0  2  0  0  0  0  0  0  0  0  0
   -5.6270   59.4750   76.7990 C   0  0  2  0  0  0  0  0  0  0  0  0
   -6.3910   58.8510   78.0210 C   0  0  1  0  0  0  0  0  0  0  0  0
   -7.7590   59.5200   78.3600 C   0  0  0  0  0  0  0  0  0  0  0  0
   -8.4290   60.1840   77.1840 C   0  0  0  0  0  0  0  0  0  0  0  0
   -7.8150   60.1410   75.9440 C   0  0  0  0  0  0  0  0  0  0  0  0
   -8.2060   60.9330   74.8860 C   0  0  0  0  0  0  0  0  0  0  0  0
   -7.3120   60.9080   73.8470 O   0  0  0  0  0  0  0  0  0  0  0  0
   -6.1880   60.1300   74.3130 C   0  0  1  0  0  0  0  0  0  0  0  0
   -4.9480   60.9670   74.6190 C   0  0  0  0  0  0  0  0  0  0  0  0
   -3.8920   60.7960   73.8770 N   0  0  0  0  0  0  0  0  0  0  0  0
   -5.0100   61.8130   75.8720 C   0  0  0  0  0  0  0  0  0  0  0  0
   -5.1010   60.9010   77.1020 C   0  0  0  0  0  0  0  0  0  0  0  0
   -9.3400   61.7080   74.9820 C   0  0  0  0  0  0  0  0  0  0  0  0
  -10.0510   61.7020   76.1860 C   0  0  0  0  0  0  0  0  0  0  0  0
   -9.5850   60.9590   77.2920 C   0  0  0  0  0  0  0  0  0  0  0  0
   -2.7810   61.4660   74.3440 N   0  0  0  0  0  0  0  0  0  0  0  0
   -1.7970   60.7090   74.7350 C   0  0  0  0  0  0  0  0  0  0  0  0
   -1.8250   59.1920   74.7480 C   0  0  0  0  0  0  0  0  0  0  0  0
   -0.5700   58.6470   74.0660 C   0  0  0  0  0  0  0  0  0  0  0  0
    0.7020   59.0940   74.8120 C   0  0  2  0  0  0  0  0  0  0  0  0
    0.7710   60.6160   74.9840 C   0  0  2  0  0  0  0  0  0  0  0  0
   -0.5280   61.3900   75.2910 C   0  0  1  0  0  0  0  0  0  0  0  0
   -0.3580   62.7160   74.7090 O   0  0  0  0  0  0  0  0  0  0  0  0
    0.4100   62.4810   73.5920 C   0  0  0  0  0  0  0  0  0  0  0  0
    1.0370   61.2490   73.6520 C   0  0  0  0  0  0  0  0  0  0  0  0
    1.7230   60.7040   72.5800 C   0  0  0  0  0  0  0  0  0  0  0  0
    2.1490   59.2620   72.6430 C   0  0  0  0  0  0  0  0  0  0  0  0
    2.0460   58.6860   74.0870 C   0  0  1  0  0  0  0  0  0  0  0  0
    3.2870   59.2210   74.8800 N   0  0  1  0  0  4  0  0  0  0  0  0
    2.9820   59.9570   76.1580 C   0  0  0  0  0  0  0  0  0  0  0  0
    1.9010   61.0170   75.9660 C   0  0  0  0  0  0  0  0  0  0  0  0
    1.8650   61.5060   71.4450 C   0  0  0  0  0  0  0  0  0  0  0  0
    1.3020   62.8000   71.4080 C   0  0  0  0  0  0  0  0  0  0  0  0
    0.5540   63.2860   72.4860 C   0  0  0  0  0  0  0  0  0  0  0  0
   -0.0480   64.5030   72.4480 O   0  0  0  0  0  0  0  0  0  0  0  0
    0.6590   58.4840   76.1150 O   0  0  0  0  0  0  0  0  0  0  0  0
    4.3320   58.1560   75.1290 C   0  0  0  0  0  0  0  0  0  0  0  0
    3.9620   57.2510   76.2580 C   0  0  0  0  0  0  0  0  0  0  0  0
    4.7770   56.9310   77.2730 C   0  0  0  0  0  0  0  0  0  0  0  0
   -9.7240   62.4760   73.9290 O   0  0  0  0  0  0  0  0  0  0  0  0
   -4.4930   58.6050   76.5570 O   0  0  0  0  0  0  0  0  0  0  0  0
   -6.8700   56.4780   78.8470 C   0  0  0  0  0  0  0  0  0  0  0  0
   -7.1890   53.9420   78.5970 C   0  0  0  0  0  0  0  0  0  0  0  0
   -7.6110   55.2140   78.5330 C   0  0  0  0  0  0  0  0  0  0  0  0
   -5.6100   57.0595   77.3721 H   0  0  0  0  0  0  0  0  0  0  0  0
   -7.4199   56.0328   76.2309 H   0  0  0  0  0  0  0  0  0  0  0  0
   -8.4611   57.4213   76.7191 H   0  0  0  0  0  0  0  0  0  0  0  0
   -6.0428   57.4120   74.8749 H   0  0  0  0  0  0  0  0  0  0  0  0
   -7.7678   57.9266   74.5445 H   0  0  0  0  0  0  0  0  0  0  0  0
   -5.8138   59.0170   78.9426 H   0  0  0  0  0  0  0  0  0  0  0  0
   -8.4351   58.7449   78.7501 H   0  0  0  0  0  0  0  0  0  0  0  0
   -7.5508   60.3119   79.0945 H   0  0  0  0  0  0  0  0  0  0  0  0
   -5.9261   59.4422   73.4955 H   0  0  0  0  0  0  0  0  0  0  0  0
   -4.1036   62.4323   75.9412 H   0  0  0  0  0  0  0  0  0  0  0  0
   -5.8966   62.4629   75.8316 H   0  0  0  0  0  0  0  0  0  0  0  0
   -4.0960   60.8119   77.5403 H   0  0  0  0  0  0  0  0  0  0  0  0
   -5.8255   61.3659   77.7869 H   0  0  0  0  0  0  0  0  0  0  0  0
  -10.9820   62.2816   76.2721 H   0  0  0  0  0  0  0  0  0  0  0  0
  -10.1355   60.9908   78.2438 H   0  0  0  0  0  0  0  0  0  0  0  0
   -1.8596   58.8359   75.7882 H   0  0  0  0  0  0  0  0  0  0  0  0
   -2.7155   58.8397   74.2068 H   0  0  0  0  0  0  0  0  0  0  0  0
   -0.6141   57.5479   74.0567 H   0  0  0  0  0  0  0  0  0  0  0  0
   -0.5304   59.0397   73.0393 H   0  0  0  0  0  0  0  0  0  0  0  0
   -0.6830   61.4278   76.3794 H   0  0  0  0  0  0  0  0  0  0  0  0
    1.5021   58.6711   71.9779 H   0  0  0  0  0  0  0  0  0  0  0  0
    3.2014   59.2044   72.3283 H   0  0  0  0  0  0  0  0  0  0  0  0
    2.0371   57.5869   74.0439 H   0  0  0  0  0  0  0  0  0  0  0  0
    3.6722   59.9272   74.2368 H   0  0  0  0  0  0  0  0  0  0  0  0
    2.6386   59.2326   76.9112 H   0  0  0  0  0  0  0  0  0  0  0  0
    3.9013   60.4658   76.4836 H   0  0  0  0  0  0  0  0  0  0  0  0
    1.4463   61.2247   76.9459 H   0  0  0  0  0  0  0  0  0  0  0  0
    2.3990   61.8939   75.5267 H   0  0  0  0  0  0  0  0  0  0  0  0
    2.4194   61.1265   70.5740 H   0  0  0  0  0  0  0  0  0  0  0  0
    1.4531   63.4335   70.5215 H   0  0  0  0  0  0  0  0  0  0  0  0
   -0.5712   64.8210   73.2260 H   0  0  0  0  0  0  0  0  0  0  0  0
    0.7086   59.1870   76.8103 H   0  0  0  0  0  0  0  0  0  0  0  0
    4.4473   57.5534   74.2160 H   0  0  0  0  0  0  0  0  0  0  0  0
    5.2708   58.6624   75.3978 H   0  0  0  0  0  0  0  0  0  0  0  0
    2.9512   56.8172   76.2565 H   0  0  0  0  0  0  0  0  0  0  0  0
    4.4269   56.2556   78.0675 H   0  0  0  0  0  0  0  0  0  0  0  0
    5.7959   57.3438   77.3114 H   0  0  0  0  0  0  0  0  0  0  0  0
  -10.5388   63.0344   73.9947 H   0  0  0  0  0  0  0  0  0  0  0  0
   -4.1112   58.3121   77.4222 H   0  0  0  0  0  0  0  0  0  0  0  0
   -5.9210   56.2025   79.3303 H   0  0  0  0  0  0  0  0  0  0  0  0
   -7.5414   57.0684   79.4878 H   0  0  0  0  0  0  0  0  0  0  0  0
   -7.8710   53.1220   78.3278 H   0  0  0  0  0  0  0  0  0  0  0  0
   -6.1610   53.7191   78.9187 H   0  0  0  0  0  0  0  0  0  0  0  0
   -8.6514   55.3484   78.2022 H   0  0  0  0  0  0  0  0  0  0  0  0
  2  1  1  0
  3  2  1  0
  4  3  1  6
  5  4  1  0
  6  1  1  0
  6  5  1  0
  7  6  1  0
  8  7  1  0
  9  8  2  0
  9  4  1  0
 10  9  1  0
 11 10  1  0
 12  4  1  0
 12 11  1  0
 13 12  1  0
 14 13  2  0
 15 13  1  0
 16 15  1  0
 16  5  1  0
 17 10  2  0
 18 17  1  0
 19 18  2  0
 19  8  1  0
 20 14  1  0
 21 20  2  0
 22 21  1  0
 23 22  1  0
 24 23  1  0
 25 24  1  0
 26 21  1  0
 26 25  1  0
 27 26  1  0
 28 27  1  0
 29 28  2  0
 29 25  1  0
 30 29  1  0
 31 30  1  0
 32 31  1  0
 32 24  1  0
 33 32  1  0
 34 33  1  0
 35 34  1  0
 25 35  1  1
 36 30  2  0
 37 36  1  0
 38 37  2  0
 38 28  1  0
 39 38  1  0
 24 40  1  1
 41 33  1  0
 42 41  1  0
 43 42  2  3
 44 17  1  0
  5 45  1  6
 46  1  1  0
 48 47  2  3
 48 46  1  0
  1 49  1  6
  2 50  1  0
  2 51  1  0
  3 52  1  0
  3 53  1  0
  6 54  1  1
  7 55  1  0
  7 56  1  0
 12 57  1  6
 15 58  1  0
 15 59  1  0
 16 60  1  0
 16 61  1  0
 18 62  1  0
 19 63  1  0
 22 64  1  0
 22 65  1  0
 23 66  1  0
 23 67  1  0
 26 68  1  1
 31 69  1  0
 31 70  1  0
 32 71  1  6
 33 72  1  6
 34 73  1  0
 34 74  1  0
 35 75  1  0
 35 76  1  0
 36 77  1  0
 37 78  1  0
 39 79  1  0
 40 80  1  0
 41 81  1  0
 41 82  1  0
 42 83  1  0
 43 84  1  0
 43 85  1  0
 44 86  1  0
 45 87  1  0
 46 88  1  0
 46 89  1  0
 47 90  1  0
 47 91  1  0
 48 92  1  0
M  CHG  2   1   1  33   1
M  END
>  <score>  (3) 
-7.625

$$$$
=
     RDKit          3D

 92101  0  0  0  0  0  0  0  0999 V2000
    1.7380   58.8220   75.4880 N   0  0  1  0  0  4  0  0  0  0  0  0
    2.5140   60.1040   75.6470 C   0  0  0  0  0  0  0  0  0  0  0  0
    1.6120   61.2060   76.1980 C   0  0  0  0  0  0  0  0  0  0  0  0
    0.2340   61.2940   75.5040 C   0  0  2  0  0  0  0  0  0  0  0  0
   -0.4740   59.9210   75.4710 C   0  0  2  0  0  0  0  0  0  0  0  0
    0.4570   58.9720   74.6370 C   0  0  1  0  0  0  0  0  0  0  0  0
    0.7730   59.4570   73.1890 C   0  0  0  0  0  0  0  0  0  0  0  0
    0.6990   60.9530   73.0100 C   0  0  0  0  0  0  0  0  0  0  0  0
    0.3830   61.7490   74.0980 C   0  0  0  0  0  0  0  0  0  0  0  0
    0.0320   63.0760   73.9780 C   0  0  0  0  0  0  0  0  0  0  0  0
   -0.4760   63.5960   75.1410 O   0  0  0  0  0  0  0  0  0  0  0  0
   -0.5760   62.4850   76.0580 C   0  0  1  0  0  0  0  0  0  0  0  0
   -2.0100   62.0180   76.3020 C   0  0  0  0  0  0  0  0  0  0  0  0
   -2.5110   62.1700   77.4930 N   0  0  0  0  0  0  0  0  0  0  0  0
   -2.6660   61.2670   75.1640 C   0  0  0  0  0  0  0  0  0  0  0  0
   -1.9260   59.9440   74.9290 C   0  0  0  0  0  0  0  0  0  0  0  0
    0.1260   63.7110   72.7600 C   0  0  0  0  0  0  0  0  0  0  0  0
    0.5420   62.9680   71.6510 C   0  0  0  0  0  0  0  0  0  0  0  0
    0.8060   61.5870   71.7700 C   0  0  0  0  0  0  0  0  0  0  0  0
   -3.7380   61.5600   77.6520 N   0  0  0  0  0  0  0  0  0  0  0  0
   -4.7710   62.3170   77.4220 C   0  0  0  0  0  0  0  0  0  0  0  0
   -4.7000   63.7870   77.0520 C   0  0  0  0  0  0  0  0  0  0  0  0
   -5.5700   64.0520   75.8230 C   0  0  0  0  0  0  0  0  0  0  0  0
   -7.0460   63.7160   76.1080 C   0  0  2  0  0  0  0  0  0  0  0  0
   -7.2280   62.2850   76.6290 C   0  0  2  0  0  0  0  0  0  0  0  0
   -6.1790   61.7090   77.6020 C   0  0  1  0  0  0  0  0  0  0  0  0
   -6.1510   60.2710   77.3650 O   0  0  0  0  0  0  0  0  0  0  0  0
   -6.4130   60.1620   76.0190 C   0  0  0  0  0  0  0  0  0  0  0  0
   -6.9730   61.3210   75.5110 C   0  0  0  0  0  0  0  0  0  0  0  0
   -7.1670   61.5280   74.1560 C   0  0  0  0  0  0  0  0  0  0  0  0
   -7.5360   62.9050   73.6740 C   0  0  0  0  0  0  0  0  0  0  0  0
   -7.9860   63.8310   74.8430 C   0  0  1  0  0  0  0  0  0  0  0  0
   -9.4560   63.4250   75.2050 N   0  0  1  0  0  4  0  0  0  0  0  0
   -9.6980   63.0570   76.6460 C   0  0  0  0  0  0  0  0  0  0  0  0
   -8.6640   62.0640   77.1670 C   0  0  0  0  0  0  0  0  0  0  0  0
   -6.8810   60.4590   73.3040 C   0  0  0  0  0  0  0  0  0  0  0  0
   -6.3910   59.2400   73.8240 C   0  0  0  0  0  0  0  0  0  0  0  0
   -6.1410   59.0960   75.1920 C   0  0  0  0  0  0  0  0  0  0  0  0
   -5.6120   57.9550   75.7060 O   0  0  0  0  0  0  0  0  0  0  0  0
   -7.4960   64.6350   77.1210 O   0  0  0  0  0  0  0  0  0  0  0  0
  -10.4790   64.4410   74.7470 C   0  0  0  0  0  0  0  0  0  0  0  0
   -9.8450   65.6790   74.2040 C   0  0  0  0  0  0  0  0  0  0  0  0
  -10.1660   66.2450   73.0330 C   0  0  0  0  0  0  0  0  0  0  0  0
   -0.2110   65.0230   72.6560 O   0  0  0  0  0  0  0  0  0  0  0  0
   -0.4900   59.3780   76.8150 O   0  0  0  0  0  0  0  0  0  0  0  0
    2.5930   57.6460   75.1090 C   0  0  0  0  0  0  0  0  0  0  0  0
    1.7190   55.4920   74.0200 C   0  0  0  0  0  0  0  0  0  0  0  0
    1.8920   56.3230   75.0590 C   0  0  0  0  0  0  0  0  0  0  0  0
    1.3928   58.5984   76.4323 H   0  0  0  0  0  0  0  0  0  0  0  0
    3.3500   59.9380   76.3424 H   0  0  0  0  0  0  0  0  0  0  0  0
    2.8970   60.4141   74.6636 H   0  0  0  0  0  0  0  0  0  0  0  0
    1.4487   61.0164   77.2692 H   0  0  0  0  0  0  0  0  0  0  0  0
    2.1248   62.1610   76.0111 H   0  0  0  0  0  0  0  0  0  0  0  0
   -0.0554   58.0153   74.4575 H   0  0  0  0  0  0  0  0  0  0  0  0
    1.7899   59.1280   72.9288 H   0  0  0  0  0  0  0  0  0  0  0  0
    0.0044   59.0210   72.5339 H   0  0  0  0  0  0  0  0  0  0  0  0
   -0.1787   62.8403   77.0202 H   0  0  0  0  0  0  0  0  0  0  0  0
   -3.7157   61.0595   75.4189 H   0  0  0  0  0  0  0  0  0  0  0  0
   -2.6238   61.8775   74.2499 H   0  0  0  0  0  0  0  0  0  0  0  0
   -2.4913   59.1404   75.4237 H   0  0  0  0  0  0  0  0  0  0  0  0
   -1.8579   59.8101   73.8393 H   0  0  0  0  0  0  0  0  0  0  0  0
    0.6646   63.4645   70.6771 H   0  0  0  0  0  0  0  0  0  0  0  0
    1.0975   61.0069   70.8820 H   0  0  0  0  0  0  0  0  0  0  0  0
   -5.0629   64.3940   77.8945 H   0  0  0  0  0  0  0  0  0  0  0  0
   -3.6577   64.0554   76.8250 H   0  0  0  0  0  0  0  0  0  0  0  0
   -5.4896   65.1140   75.5477 H   0  0  0  0  0  0  0  0  0  0  0  0
   -5.2178   63.4126   75.0001 H   0  0  0  0  0  0  0  0  0  0  0  0
   -6.4638   61.9579   78.6349 H   0  0  0  0  0  0  0  0  0  0  0  0
   -6.6617   63.3549   73.1809 H   0  0  0  0  0  0  0  0  0  0  0  0
   -8.3795   62.8057   72.9750 H   0  0  0  0  0  0  0  0  0  0  0  0
   -7.9246   64.8820   74.5241 H   0  0  0  0  0  0  0  0  0  0  0  0
   -9.5841   62.5547   74.6692 H   0  0  0  0  0  0  0  0  0  0  0  0
   -9.6522   63.9702   77.2576 H   0  0  0  0  0  0  0  0  0  0  0  0
  -10.6875   62.5810   76.7121 H   0  0  0  0  0  0  0  0  0  0  0  0
   -8.6352   62.1427   78.2638 H   0  0  0  0  0  0  0  0  0  0  0  0
   -8.9797   61.0714   76.8133 H   0  0  0  0  0  0  0  0  0  0  0  0
   -7.0383   60.5668   72.2206 H   0  0  0  0  0  0  0  0  0  0  0  0
   -6.2042   58.3950   73.1450 H   0  0  0  0  0  0  0  0  0  0  0  0
   -5.4456   57.8811   76.6791 H   0  0  0  0  0  0  0  0  0  0  0  0
   -7.3103   64.2559   78.0165 H   0  0  0  0  0  0  0  0  0  0  0  0
  -11.1002   63.9876   73.9605 H   0  0  0  0  0  0  0  0  0  0  0  0
  -11.0827   64.7277   75.6207 H   0  0  0  0  0  0  0  0  0  0  0  0
   -9.0604   66.1593   74.8070 H   0  0  0  0  0  0  0  0  0  0  0  0
   -9.6501   67.1592   72.7042 H   0  0  0  0  0  0  0  0  0  0  0  0
  -10.9455   65.7956   72.4003 H   0  0  0  0  0  0  0  0  0  0  0  0
   -0.1448   65.4833   71.7820 H   0  0  0  0  0  0  0  0  0  0  0  0
   -0.4682   60.1194   77.4707 H   0  0  0  0  0  0  0  0  0  0  0  0
    3.0157   57.8425   74.1126 H   0  0  0  0  0  0  0  0  0  0  0  0
    3.3482   57.5556   75.9037 H   0  0  0  0  0  0  0  0  0  0  0  0
    1.1726   54.5471   74.1565 H   0  0  0  0  0  0  0  0  0  0  0  0
    2.1235   55.7556   73.0316 H   0  0  0  0  0  0  0  0  0  0  0  0
    1.4566   55.9843   76.0107 H   0  0  0  0  0  0  0  0  0  0  0  0
  2  1  1  0
  3  2  1  0
  4  3  1  1
  5  4  1  0
  6  1  1  0
  6  5  1  0
  7  6  1  0
  8  7  1  0
  9  8  2  0
  9  4  1  0
 10  9  1  0
 11 10  1  0
 12  4  1  0
 12 11  1  0
 13 12  1  0
 14 13  2  0
 15 13  1  0
 16 15  1  0
 16  5  1  0
 17 10  2  0
 18 17  1  0
 19 18  2  0
 19  8  1  0
 20 14  1  0
 21 20  2  0
 22 21  1  0
 23 22  1  0
 24 23  1  0
 25 24  1  0
 26 21  1  0
 26 25  1  0
 27 26  1  0
 28 27  1  0
 29 28  2  0
 29 25  1  0
 30 29  1  0
 31 30  1  0
 32 31  1  0
 32 24  1  0
 33 32  1  0
 34 33  1  0
 35 34  1  0
 25 35  1  1
 36 30  2  0
 37 36  1  0
 38 37  2  0
 38 28  1  0
 39 38  1  0
 24 40  1  1
 41 33  1  0
 42 41  1  0
 43 42  2  3
 44 17  1  0
  5 45  1  1
 46  1  1  0
 48 47  2  3
 48 46  1  0
  1 49  1  1
  2 50  1  0
  2 51  1  0
  3 52  1  0
  3 53  1  0
  6 54  1  6
  7 55  1  0
  7 56  1  0
 12 57  1  1
 15 58  1  0
 15 59  1  0
 16 60  1  0
 16 61  1  0
 18 62  1  0
 19 63  1  0
 22 64  1  0
 22 65  1  0
 23 66  1  0
 23 67  1  0
 26 68  1  1
 31 69  1  0
 31 70  1  0
 32 71  1  6
 33 72  1  6
 34 73  1  0
 34 74  1  0
 35 75  1  0
 35 76  1  0
 36 77  1  0
 37 78  1  0
 39 79  1  0
 40 80  1  0
 41 81  1  0
 41 82  1  0
 42 83  1  0
 43 84  1  0
 43 85  1  0
 44 86  1  0
 45 87  1  0
 46 88  1  0
 46 89  1  0
 47 90  1  0
 47 91  1  0
 48 92  1  0
M  CHG  2   1   1  33   1
M  END
>  <score>  (4) 
-7.473

$$$$
=
     RDKit          3D

 92101  0  0  0  0  0  0  0  0999 V2000
    3.7630   60.2810   71.5700 N   0  0  1  0  0  4  0  0  0  0  0  0
    3.5930   58.7990   71.3600 C   0  0  0  0  0  0  0  0  0  0  0  0
    2.2110   58.3510   71.8280 C   0  0  0  0  0  0  0  0  0  0  0  0
    1.7990   58.9220   73.2040 C   0  0  2  0  0  0  0  0  0  0  0  0
    1.9630   60.4570   73.2530 C   0  0  2  0  0  0  0  0  0  0  0  0
    3.4900   60.7380   73.0210 C   0  0  1  0  0  0  0  0  0  0  0  0
    4.4530   60.0530   74.0390 C   0  0  0  0  0  0  0  0  0  0  0  0
    3.9020   58.7930   74.6570 C   0  0  0  0  0  0  0  0  0  0  0  0
    2.6440   58.3510   74.2830 C   0  0  0  0  0  0  0  0  0  0  0  0
    1.9540   57.3800   74.9760 C   0  0  0  0  0  0  0  0  0  0  0  0
    0.6450   57.2770   74.5820 O   0  0  0  0  0  0  0  0  0  0  0  0
    0.4330   58.3510   73.6400 C   0  0  1  0  0  0  0  0  0  0  0  0
   -0.4110   59.4970   74.1950 C   0  0  0  0  0  0  0  0  0  0  0  0
   -1.5810   59.7090   73.6670 N   0  0  0  0  0  0  0  0  0  0  0  0
    0.2670   60.3890   75.2110 C   0  0  0  0  0  0  0  0  0  0  0  0
    1.4310   61.1330   74.5430 C   0  0  0  0  0  0  0  0  0  0  0  0
    2.5640   56.6960   76.0040 C   0  0  0  0  0  0  0  0  0  0  0  0
    3.8750   57.0400   76.3480 C   0  0  0  0  0  0  0  0  0  0  0  0
    4.5350   58.1020   75.6920 C   0  0  0  0  0  0  0  0  0  0  0  0
   -2.1820   60.8670   74.1170 N   0  0  0  0  0  0  0  0  0  0  0  0
   -3.3440   60.7090   74.6820 C   0  0  0  0  0  0  0  0  0  0  0  0
   -4.0630   59.3810   74.8220 C   0  0  0  0  0  0  0  0  0  0  0  0
   -4.5240   59.1930   76.2680 C   0  0  0  0  0  0  0  0  0  0  0  0
   -5.5120   60.3020   76.6800 C   0  0  2  0  0  0  0  0  0  0  0  0
   -4.9400   61.7060   76.4480 C   0  0  2  0  0  0  0  0  0  0  0  0
   -4.0860   61.9630   75.1900 C   0  0  1  0  0  0  0  0  0  0  0  0
   -3.1390   63.0120   75.5490 O   0  0  0  0  0  0  0  0  0  0  0  0
   -2.8870   62.7750   76.8800 C   0  0  0  0  0  0  0  0  0  0  0  0
   -3.8550   61.9650   77.4480 C   0  0  0  0  0  0  0  0  0  0  0  0
   -3.7390   61.4410   78.7240 C   0  0  0  0  0  0  0  0  0  0  0  0
   -4.7010   60.3710   79.1630 C   0  0  0  0  0  0  0  0  0  0  0  0
   -5.9240   60.2570   78.2050 C   0  0  1  0  0  0  0  0  0  0  0  0
   -6.8870   61.4440   78.5540 N   0  0  1  0  0  4  0  0  0  0  0  0
   -7.2590   62.3460   77.4050 C   0  0  0  0  0  0  0  0  0  0  0  0
   -6.0380   62.7890   76.6050 C   0  0  0  0  0  0  0  0  0  0  0  0
   -2.6430   61.8570   79.4830 C   0  0  0  0  0  0  0  0  0  0  0  0
   -1.6960   62.7540   78.9410 C   0  0  0  0  0  0  0  0  0  0  0  0
   -1.8110   63.2050   77.6220 C   0  0  0  0  0  0  0  0  0  0  0  0
   -0.8790   64.0180   77.0600 O   0  0  0  0  0  0  0  0  0  0  0  0
   -6.6860   60.1420   75.8640 O   0  0  0  0  0  0  0  0  0  0  0  0
   -8.1300   60.9990   79.2910 C   0  0  0  0  0  0  0  0  0  0  0  0
   -9.2520   60.6690   78.3630 C   0  0  0  0  0  0  0  0  0  0  0  0
   -9.5610   59.4300   77.9560 C   0  0  0  0  0  0  0  0  0  0  0  0
    1.8790   55.7320   76.6720 O   0  0  0  0  0  0  0  0  0  0  0  0
    1.2780   61.0320   72.1120 O   0  0  0  0  0  0  0  0  0  0  0  0
    5.0320   60.8290   70.9820 C   0  0  0  0  0  0  0  0  0  0  0  0
    4.6340   63.3050   70.4310 C   0  0  0  0  0  0  0  0  0  0  0  0
    5.2210   62.3100   71.1130 C   0  0  0  0  0  0  0  0  0  0  0  0
    3.0115   60.7185   71.0179 H   0  0  0  0  0  0  0  0  0  0  0  0
    3.7057   58.5691   70.2902 H   0  0  0  0  0  0  0  0  0  0  0  0
    4.3579   58.2656   71.9435 H   0  0  0  0  0  0  0  0  0  0  0  0
    1.4707   58.6766   71.0824 H   0  0  0  0  0  0  0  0  0  0  0  0
    2.2499   57.2570   71.9355 H   0  0  0  0  0  0  0  0  0  0  0  0
    3.6988   61.8058   73.1827 H   0  0  0  0  0  0  0  0  0  0  0  0
    5.3867   59.8008   73.5150 H   0  0  0  0  0  0  0  0  0  0  0  0
    4.6061   60.7681   74.8607 H   0  0  0  0  0  0  0  0  0  0  0  0
   -0.1201   57.9166   72.7942 H   0  0  0  0  0  0  0  0  0  0  0  0
   -0.4586   61.1181   75.6008 H   0  0  0  0  0  0  0  0  0  0  0  0
    0.6513   59.7752   76.0390 H   0  0  0  0  0  0  0  0  0  0  0  0
    1.0897   62.1465   74.2854 H   0  0  0  0  0  0  0  0  0  0  0  0
    2.2612   61.1324   75.2647 H   0  0  0  0  0  0  0  0  0  0  0  0
    4.3968   56.4782   77.1367 H   0  0  0  0  0  0  0  0  0  0  0  0
    5.5527   58.3863   75.9978 H   0  0  0  0  0  0  0  0  0  0  0  0
   -4.9375   59.3668   74.1549 H   0  0  0  0  0  0  0  0  0  0  0  0
   -3.3769   58.5654   74.5500 H   0  0  0  0  0  0  0  0  0  0  0  0
   -5.0196   58.2156   76.3636 H   0  0  0  0  0  0  0  0  0  0  0  0
   -3.6443   59.2443   76.9264 H   0  0  0  0  0  0  0  0  0  0  0  0
   -4.7412   62.2583   74.3572 H   0  0  0  0  0  0  0  0  0  0  0  0
   -4.1739   59.4057   79.1823 H   0  0  0  0  0  0  0  0  0  0  0  0
   -5.0756   60.6399   80.1617 H   0  0  0  0  0  0  0  0  0  0  0  0
   -6.4137   59.2827   78.3495 H   0  0  0  0  0  0  0  0  0  0  0  0
   -6.3103   62.0186   79.1850 H   0  0  0  0  0  0  0  0  0  0  0  0
   -7.9439   61.8043   76.7361 H   0  0  0  0  0  0  0  0  0  0  0  0
   -7.7361   63.2456   77.8211 H   0  0  0  0  0  0  0  0  0  0  0  0
   -6.3749   63.0838   75.6002 H   0  0  0  0  0  0  0  0  0  0  0  0
   -5.5808   63.6163   77.1676 H   0  0  0  0  0  0  0  0  0  0  0  0
   -2.5164   61.4836   80.5099 H   0  0  0  0  0  0  0  0  0  0  0  0
   -0.8584   63.1019   79.5634 H   0  0  0  0  0  0  0  0  0  0  0  0
   -0.9868   64.3215   76.1239 H   0  0  0  0  0  0  0  0  0  0  0  0
   -7.4799   60.0338   76.4455 H   0  0  0  0  0  0  0  0  0  0  0  0
   -7.8880   60.1054   79.8851 H   0  0  0  0  0  0  0  0  0  0  0  0
   -8.4572   61.8312   79.9316 H   0  0  0  0  0  0  0  0  0  0  0  0
   -9.8674   61.4999   77.9875 H   0  0  0  0  0  0  0  0  0  0  0  0
  -10.4055   59.2713   77.2693 H   0  0  0  0  0  0  0  0  0  0  0  0
   -8.9701   58.5718   78.3086 H   0  0  0  0  0  0  0  0  0  0  0  0
    2.3139   55.2380   77.4116 H   0  0  0  0  0  0  0  0  0  0  0  0
    0.5594   61.6352   72.4281 H   0  0  0  0  0  0  0  0  0  0  0  0
    5.8777   60.3346   71.4823 H   0  0  0  0  0  0  0  0  0  0  0  0
    4.9740   60.6279   69.9021 H   0  0  0  0  0  0  0  0  0  0  0  0
    4.8897   64.3511   70.6553 H   0  0  0  0  0  0  0  0  0  0  0  0
    3.8970   63.0748   69.6475 H   0  0  0  0  0  0  0  0  0  0  0  0
    5.9450   62.6266   71.8782 H   0  0  0  0  0  0  0  0  0  0  0  0
  2  1  1  0
  3  2  1  0
  4  3  1  6
  5  4  1  0
  6  1  1  0
  6  5  1  0
  7  6  1  0
  8  7  1  0
  9  8  2  0
  9  4  1  0
 10  9  1  0
 11 10  1  0
 12  4  1  0
 12 11  1  0
 13 12  1  0
 14 13  2  0
 15 13  1  0
 16 15  1  0
 16  5  1  0
 17 10  2  0
 18 17  1  0
 19 18  2  0
 19  8  1  0
 20 14  1  0
 21 20  2  0
 22 21  1  0
 23 22  1  0
 24 23  1  0
 25 24  1  0
 26 21  1  0
 26 25  1  0
 27 26  1  0
 28 27  1  0
 29 28  2  0
 29 25  1  0
 30 29  1  0
 31 30  1  0
 32 31  1  0
 32 24  1  0
 33 32  1  0
 34 33  1  0
 35 34  1  0
 25 35  1  1
 36 30  2  0
 37 36  1  0
 38 37  2  0
 38 28  1  0
 39 38  1  0
 24 40  1  6
 41 33  1  0
 42 41  1  0
 43 42  2  3
 44 17  1  0
  5 45  1  6
 46  1  1  0
 48 47  2  3
 48 46  1  0
  1 49  1  6
  2 50  1  0
  2 51  1  0
  3 52  1  0
  3 53  1  0
  6 54  1  6
  7 55  1  0
  7 56  1  0
 12 57  1  6
 15 58  1  0
 15 59  1  0
 16 60  1  0
 16 61  1  0
 18 62  1  0
 19 63  1  0
 22 64  1  0
 22 65  1  0
 23 66  1  0
 23 67  1  0
 26 68  1  6
 31 69  1  0
 31 70  1  0
 32 71  1  6
 33 72  1  1
 34 73  1  0
 34 74  1  0
 35 75  1  0
 35 76  1  0
 36 77  1  0
 37 78  1  0
 39 79  1  0
 40 80  1  0
 41 81  1  0
 41 82  1  0
 42 83  1  0
 43 84  1  0
 43 85  1  0
 44 86  1  0
 45 87  1  0
 46 88  1  0
 46 89  1  0
 47 90  1  0
 47 91  1  0
 48 92  1  0
M  CHG  2   1   1  33   1
M  END
>  <score>  (5) 
-7.375

$$$$
=
     RDKit          3D

 92101  0  0  0  0  0  0  0  0999 V2000
    3.1750   60.9450   72.3440 N   0  0  1  0  0  4  0  0  0  0  0  0
    3.5530   62.1110   73.2200 C   0  0  0  0  0  0  0  0  0  0  0  0
    2.5160   62.3070   74.3230 C   0  0  0  0  0  0  0  0  0  0  0  0
    1.0530   62.2400   73.8260 C   0  0  2  0  0  0  0  0  0  0  0  0
    0.7920   60.9630   72.9980 C   0  0  2  0  0  0  0  0  0  0  0  0
    1.7490   61.0480   71.7570 C   0  0  1  0  0  0  0  0  0  0  0  0
    1.5750   62.3180   70.8690 C   0  0  0  0  0  0  0  0  0  0  0  0
    1.0250   63.5140   71.6060 C   0  0  0  0  0  0  0  0  0  0  0  0
    0.7420   63.4040   72.9570 C   0  0  0  0  0  0  0  0  0  0  0  0
   -0.0020   64.3370   73.6450 C   0  0  0  0  0  0  0  0  0  0  0  0
   -0.3650   63.9080   74.8950 O   0  0  0  0  0  0  0  0  0  0  0  0
    0.0750   62.5360   74.9830 C   0  0  1  0  0  0  0  0  0  0  0  0
   -1.0640   61.5200   74.9180 C   0  0  0  0  0  0  0  0  0  0  0  0
   -1.3070   60.8000   75.9740 N   0  0  0  0  0  0  0  0  0  0  0  0
   -1.7090   61.3320   73.5620 C   0  0  0  0  0  0  0  0  0  0  0  0
   -0.6850   60.7380   72.5860 C   0  0  0  0  0  0  0  0  0  0  0  0
   -0.3750   65.5140   73.0340 C   0  0  0  0  0  0  0  0  0  0  0  0
   -0.0190   65.7120   71.6970 C   0  0  0  0  0  0  0  0  0  0  0  0
    0.6590   64.7060   70.9770 C   0  0  0  0  0  0  0  0  0  0  0  0
   -2.2320   59.8010   75.7550 N   0  0  0  0  0  0  0  0  0  0  0  0
   -1.7600   58.5880   75.7850 C   0  0  0  0  0  0  0  0  0  0  0  0
   -0.3000   58.2340   75.9940 C   0  0  0  0  0  0  0  0  0  0  0  0
   -0.1770   57.1700   77.0850 C   0  0  0  0  0  0  0  0  0  0  0  0
   -0.9150   55.8780   76.6820 C   0  0  2  0  0  0  0  0  0  0  0  0
   -2.3800   56.1380   76.3100 C   0  0  2  0  0  0  0  0  0  0  0  0
   -2.7330   57.4180   75.5250 C   0  0  1  0  0  0  0  0  0  0  0  0
   -4.0880   57.7780   75.9250 O   0  0  0  0  0  0  0  0  0  0  0  0
   -4.1540   57.3760   77.2380 C   0  0  0  0  0  0  0  0  0  0  0  0
   -3.1490   56.4780   77.5490 C   0  0  0  0  0  0  0  0  0  0  0  0
   -2.8930   56.0590   78.8440 C   0  0  0  0  0  0  0  0  0  0  0  0
   -1.6290   55.2920   79.1260 C   0  0  0  0  0  0  0  0  0  0  0  0
   -0.9530   54.7810   77.8190 C   0  0  1  0  0  0  0  0  0  0  0  0
   -1.7630   53.5240   77.3490 N   0  0  1  0  0  4  0  0  0  0  0  0
   -2.2970   53.5770   75.9410 C   0  0  0  0  0  0  0  0  0  0  0  0
   -3.0180   54.8890   75.6490 C   0  0  0  0  0  0  0  0  0  0  0  0
   -3.7750   56.4920   79.8370 C   0  0  0  0  0  0  0  0  0  0  0  0
   -4.8570   57.3390   79.5120 C   0  0  0  0  0  0  0  0  0  0  0  0
   -5.0390   57.7980   78.2040 C   0  0  0  0  0  0  0  0  0  0  0  0
   -6.0360   58.6630   77.8810 O   0  0  0  0  0  0  0  0  0  0  0  0
   -0.2340   55.3490   75.5310 O   0  0  0  0  0  0  0  0  0  0  0  0
   -1.0230   52.2250   77.5770 C   0  0  0  0  0  0  0  0  0  0  0  0
   -0.1060   51.8880   76.4480 C   0  0  0  0  0  0  0  0  0  0  0  0
    1.2290   51.9850   76.4990 C   0  0  0  0  0  0  0  0  0  0  0  0
   -1.0970   66.4330   73.7260 O   0  0  0  0  0  0  0  0  0  0  0  0
    1.2400   59.8160   73.7640 O   0  0  0  0  0  0  0  0  0  0  0  0
    4.2300   60.5830   71.3380 C   0  0  0  0  0  0  0  0  0  0  0  0
    5.0400   62.8550   70.4580 C   0  0  0  0  0  0  0  0  0  0  0  0
    5.2290   61.6570   71.0300 C   0  0  0  0  0  0  0  0  0  0  0  0
    3.1336   60.1338   72.9774 H   0  0  0  0  0  0  0  0  0  0  0  0
    4.5351   61.9180   73.6762 H   0  0  0  0  0  0  0  0  0  0  0  0
    3.5944   63.0212   72.6037 H   0  0  0  0  0  0  0  0  0  0  0  0
    2.6614   61.5212   75.0789 H   0  0  0  0  0  0  0  0  0  0  0  0
    2.6693   63.3174   74.7298 H   0  0  0  0  0  0  0  0  0  0  0  0
    1.5133   60.2360   71.0533 H   0  0  0  0  0  0  0  0  0  0  0  0
    2.5582   62.5885   70.4565 H   0  0  0  0  0  0  0  0  0  0  0  0
    0.8430   62.0619   70.0889 H   0  0  0  0  0  0  0  0  0  0  0  0
    0.5556   62.4280   75.9666 H   0  0  0  0  0  0  0  0  0  0  0  0
   -2.5659   60.6486   73.6552 H   0  0  0  0  0  0  0  0  0  0  0  0
   -2.0552   62.3048   73.1828 H   0  0  0  0  0  0  0  0  0  0  0  0
   -0.8625   59.6546   72.5172 H   0  0  0  0  0  0  0  0  0  0  0  0
   -0.8271   61.2556   71.6259 H   0  0  0  0  0  0  0  0  0  0  0  0
   -0.2699   66.6614   71.2014 H   0  0  0  0  0  0  0  0  0  0  0  0
    0.9005   64.8612   69.9151 H   0  0  0  0  0  0  0  0  0  0  0  0
    0.1195   57.8444   75.0548 H   0  0  0  0  0  0  0  0  0  0  0  0
    0.2522   59.1346   76.3006 H   0  0  0  0  0  0  0  0  0  0  0  0
    0.8868   56.9413   77.2462 H   0  0  0  0  0  0  0  0  0  0  0  0
   -0.6313   57.5599   78.0078 H   0  0  0  0  0  0  0  0  0  0  0  0
   -2.6533   57.2196   74.4460 H   0  0  0  0  0  0  0  0  0  0  0  0
   -0.9249   55.9502   79.6561 H   0  0  0  0  0  0  0  0  0  0  0  0
   -1.8921   54.4162   79.7374 H   0  0  0  0  0  0  0  0  0  0  0  0
    0.0985   54.5311   78.0235 H   0  0  0  0  0  0  0  0  0  0  0  0
   -2.5897   53.5518   77.9628 H   0  0  0  0  0  0  0  0  0  0  0  0
   -1.4569   53.4702   75.2389 H   0  0  0  0  0  0  0  0  0  0  0  0
   -3.0226   52.7587   75.8232 H   0  0  0  0  0  0  0  0  0  0  0  0
   -3.0232   55.0424   74.5598 H   0  0  0  0  0  0  0  0  0  0  0  0
   -4.0269   54.7917   76.0763 H   0  0  0  0  0  0  0  0  0  0  0  0
   -3.6257   56.1711   80.8785 H   0  0  0  0  0  0  0  0  0  0  0  0
   -5.5653   57.6414   80.2974 H   0  0  0  0  0  0  0  0  0  0  0  0
   -6.1406   58.9710   76.9459 H   0  0  0  0  0  0  0  0  0  0  0  0
    0.5122   54.7694   75.8265 H   0  0  0  0  0  0  0  0  0  0  0  0
   -0.4304   52.3130   78.4995 H   0  0  0  0  0  0  0  0  0  0  0  0
   -1.7705   51.4216   77.6539 H   0  0  0  0  0  0  0  0  0  0  0  0
   -0.5581   51.5356   75.5092 H   0  0  0  0  0  0  0  0  0  0  0  0
    1.8339   51.7163   75.6204 H   0  0  0  0  0  0  0  0  0  0  0  0
    1.7204   52.3334   77.4194 H   0  0  0  0  0  0  0  0  0  0  0  0
   -1.3671   67.2801   73.2907 H   0  0  0  0  0  0  0  0  0  0  0  0
    1.1626   60.0142   74.7309 H   0  0  0  0  0  0  0  0  0  0  0  0
    4.7790   59.7108   71.7227 H   0  0  0  0  0  0  0  0  0  0  0  0
    3.6942   60.3925   70.3964 H   0  0  0  0  0  0  0  0  0  0  0  0
    5.8935   63.5314   70.3033 H   0  0  0  0  0  0  0  0  0  0  0  0
    4.0314   63.1613   70.1434 H   0  0  0  0  0  0  0  0  0  0  0  0
    6.2671   61.4297   71.3142 H   0  0  0  0  0  0  0  0  0  0  0  0
  2  1  1  0
  3  2  1  0
  4  3  1  1
  5  4  1  0
  6  1  1  0
  6  5  1  0
  7  6  1  0
  8  7  1  0
  9  8  2  0
  9  4  1  0
 10  9  1  0
 11 10  1  0
 12  4  1  0
 12 11  1  0
 13 12  1  0
 14 13  2  0
 15 13  1  0
 16 15  1  0
 16  5  1  0
 17 10  2  0
 18 17  1  0
 19 18  2  0
 19  8  1  0
 20 14  1  0
 21 20  2  0
 22 21  1  0
 23 22  1  0
 24 23  1  0
 25 24  1  0
 26 21  1  0
 26 25  1  0
 27 26  1  0
 28 27  1  0
 29 28  2  0
 29 25  1  0
 30 29  1  0
 31 30  1  0
 32 31  1  0
 32 24  1  0
 33 32  1  0
 34 33  1  0
 35 34  1  0
 25 35  1  6
 36 30  2  0
 37 36  1  0
 38 37  2  0
 38 28  1  0
 39 38  1  0
 24 40  1  6
 41 33  1  0
 42 41  1  0
 43 42  2  3
 44 17  1  0
  5 45  1  1
 46  1  1  0
 48 47  2  3
 48 46  1  0
  1 49  1  1
  2 50  1  0
  2 51  1  0
  3 52  1  0
  3 53  1  0
  6 54  1  6
  7 55  1  0
  7 56  1  0
 12 57  1  1
 15 58  1  0
 15 59  1  0
 16 60  1  0
 16 61  1  0
 18 62  1  0
 19 63  1  0
 22 64  1  0
 22 65  1  0
 23 66  1  0
 23 67  1  0
 26 68  1  6
 31 69  1  0
 31 70  1  0
 32 71  1  1
 33 72  1  1
 34 73  1  0
 34 74  1  0
 35 75  1  0
 35 76  1  0
 36 77  1  0
 37 78  1  0
 39 79  1  0
 40 80  1  0
 41 81  1  0
 41 82  1  0
 42 83  1  0
 43 84  1  0
 43 85  1  0
 44 86  1  0
 45 87  1  0
 46 88  1  0
 46 89  1  0
 47 90  1  0
 47 91  1  0
 48 92  1  0
M  CHG  2   1   1  33   1
M  END
>  <score>  (6) 
-7.312

$$$$
=
     RDKit          3D

 92101  0  0  0  0  0  0  0  0999 V2000
    2.4680   59.8590   73.7570 N   0  0  1  0  0  4  0  0  0  0  0  0
    3.1430   61.1830   74.0060 C   0  0  0  0  0  0  0  0  0  0  0  0
    2.2640   62.0720   74.8830 C   0  0  0  0  0  0  0  0  0  0  0  0
    0.7790   62.1030   74.4550 C   0  0  2  0  0  0  0  0  0  0  0  0
    0.2020   60.6790   74.3020 C   0  0  2  0  0  0  0  0  0  0  0  0
    1.0440   59.9880   73.1710 C   0  0  1  0  0  0  0  0  0  0  0  0
    1.0440   60.7270   71.7980 C   0  0  0  0  0  0  0  0  0  0  0  0
    0.8050   62.2130   71.8970 C   0  0  0  0  0  0  0  0  0  0  0  0
    0.6260   62.7860   73.1450 C   0  0  0  0  0  0  0  0  0  0  0  0
    0.1430   64.0650   73.3190 C   0  0  0  0  0  0  0  0  0  0  0  0
   -0.1870   64.3340   74.6220 O   0  0  0  0  0  0  0  0  0  0  0  0
   -0.0170   63.0890   75.3350 C   0  0  1  0  0  0  0  0  0  0  0  0
   -1.3350   62.4240   75.7290 C   0  0  0  0  0  0  0  0  0  0  0  0
   -1.6200   62.3270   76.9950 N   0  0  0  0  0  0  0  0  0  0  0  0
   -2.1200   61.7870   74.6030 C   0  0  0  0  0  0  0  0  0  0  0  0
   -1.3210   60.6140   74.0210 C   0  0  0  0  0  0  0  0  0  0  0  0
   -0.0460   64.8890   72.2320 C   0  0  0  0  0  0  0  0  0  0  0  0
    0.2230   64.3830   70.9570 C   0  0  0  0  0  0  0  0  0  0  0  0
    0.6260   63.0410   70.7870 C   0  0  0  0  0  0  0  0  0  0  0  0
   -2.7380   61.5600   77.2470 N   0  0  0  0  0  0  0  0  0  0  0  0
   -3.8300   62.2260   77.4820 C   0  0  0  0  0  0  0  0  0  0  0  0
   -3.9250   63.7400   77.5380 C   0  0  0  0  0  0  0  0  0  0  0  0
   -5.0850   64.2170   76.6650 C   0  0  0  0  0  0  0  0  0  0  0  0
   -6.4260   63.6500   77.1690 C   0  0  2  0  0  0  0  0  0  0  0  0
   -6.4030   62.1210   77.2890 C   0  0  2  0  0  0  0  0  0  0  0  0
   -5.1180   61.4340   77.7950 C   0  0  1  0  0  0  0  0  0  0  0  0
   -5.0810   60.1220   77.1590 O   0  0  0  0  0  0  0  0  0  0  0  0
   -5.6650   60.3430   75.9340 C   0  0  0  0  0  0  0  0  0  0  0  0
   -6.3880   61.5220   75.9160 C   0  0  0  0  0  0  0  0  0  0  0  0
   -6.9240   62.0550   74.7560 C   0  0  0  0  0  0  0  0  0  0  0  0
   -7.4670   63.4580   74.7810 C   0  0  0  0  0  0  0  0  0  0  0  0
   -7.6560   63.9840   76.2350 C   0  0  1  0  0  0  0  0  0  0  0  0
   -8.9670   63.3300   76.7900 N   0  0  1  0  0  4  0  0  0  0  0  0
   -8.8250   62.5700   78.0830 C   0  0  0  0  0  0  0  0  0  0  0  0
   -7.6470   61.6000   78.0520 C   0  0  0  0  0  0  0  0  0  0  0  0
   -6.8080   61.2890   73.5930 C   0  0  0  0  0  0  0  0  0  0  0  0
   -6.1460   60.0420   73.6210 C   0  0  0  0  0  0  0  0  0  0  0  0
   -5.5560   59.5720   74.7990 C   0  0  0  0  0  0  0  0  0  0  0  0
   -4.8610   58.4040   74.8340 O   0  0  0  0  0  0  0  0  0  0  0  0
   -6.6520   64.2100   78.4750 O   0  0  0  0  0  0  0  0  0  0  0  0
  -10.1200   64.3050   76.8830 C   0  0  0  0  0  0  0  0  0  0  0  0
   -9.6640   65.7270   76.8620 C   0  0  0  0  0  0  0  0  0  0  0  0
  -10.1230   66.6600   76.0170 C   0  0  0  0  0  0  0  0  0  0  0  0
   -0.5110   66.1530   72.4160 O   0  0  0  0  0  0  0  0  0  0  0  0
    0.4820   59.9340   75.5130 O   0  0  0  0  0  0  0  0  0  0  0  0
    3.3400   58.8660   73.0420 C   0  0  0  0  0  0  0  0  0  0  0  0
    2.9800   57.3010   71.0390 C   0  0  0  0  0  0  0  0  0  0  0  0
    2.6180   57.8530   72.2060 C   0  0  0  0  0  0  0  0  0  0  0  0
    2.3234   59.4509   74.6916 H   0  0  0  0  0  0  0  0  0  0  0  0
    4.1038   61.0103   74.5129 H   0  0  0  0  0  0  0  0  0  0  0  0
    3.3093   61.6857   73.0418 H   0  0  0  0  0  0  0  0  0  0  0  0
    2.3186   61.7007   75.9170 H   0  0  0  0  0  0  0  0  0  0  0  0
    2.6467   63.0983   74.7817 H   0  0  0  0  0  0  0  0  0  0  0  0
    0.5938   59.0175   72.9152 H   0  0  0  0  0  0  0  0  0  0  0  0
    2.0211   60.5657   71.3191 H   0  0  0  0  0  0  0  0  0  0  0  0
    0.2100   60.3104   71.2142 H   0  0  0  0  0  0  0  0  0  0  0  0
    0.5183   63.3341   76.2642 H   0  0  0  0  0  0  0  0  0  0  0  0
   -3.0821   61.4193   74.9892 H   0  0  0  0  0  0  0  0  0  0  0  0
   -2.3016   62.5331   73.8153 H   0  0  0  0  0  0  0  0  0  0  0  0
   -1.7120   59.6818   74.4546 H   0  0  0  0  0  0  0  0  0  0  0  0
   -1.4425   60.6607   72.9287 H   0  0  0  0  0  0  0  0  0  0  0  0
    0.1197   65.0366   70.0783 H   0  0  0  0  0  0  0  0  0  0  0  0
    0.7999   62.6456   69.7754 H   0  0  0  0  0  0  0  0  0  0  0  0
   -4.0953   64.0573   78.5774 H   0  0  0  0  0  0  0  0  0  0  0  0
   -2.9865   64.1774   77.1668 H   0  0  0  0  0  0  0  0  0  0  0  0
   -5.1266   65.3159   76.6913 H   0  0  0  0  0  0  0  0  0  0  0  0
   -4.9188   63.8617   75.6373 H   0  0  0  0  0  0  0  0  0  0  0  0
   -5.1480   61.3673   78.8926 H   0  0  0  0  0  0  0  0  0  0  0  0
   -6.7655   64.1199   74.2521 H   0  0  0  0  0  0  0  0  0  0  0  0
   -8.4520   63.4502   74.2915 H   0  0  0  0  0  0  0  0  0  0  0  0
   -7.7275   65.0816   76.2214 H   0  0  0  0  0  0  0  0  0  0  0  0
   -9.1813   62.6227   76.0725 H   0  0  0  0  0  0  0  0  0  0  0  0
   -8.6716   63.2884   78.9018 H   0  0  0  0  0  0  0  0  0  0  0  0
   -9.7432   61.9833   78.2339 H   0  0  0  0  0  0  0  0  0  0  0  0
   -7.3494   61.3882   79.0896 H   0  0  0  0  0  0  0  0  0  0  0  0
   -7.9928   60.7064   77.5117 H   0  0  0  0  0  0  0  0  0  0  0  0
   -7.2351   61.6598   72.6496 H   0  0  0  0  0  0  0  0  0  0  0  0
   -6.0937   59.4334   72.7062 H   0  0  0  0  0  0  0  0  0  0  0  0
   -4.4538   58.0955   75.6820 H   0  0  0  0  0  0  0  0  0  0  0  0
   -6.3868   63.5528   79.1663 H   0  0  0  0  0  0  0  0  0  0  0  0
  -10.7945   64.1373   76.0304 H   0  0  0  0  0  0  0  0  0  0  0  0
  -10.6316   64.1302   77.8410 H   0  0  0  0  0  0  0  0  0  0  0  0
   -8.8979   66.0295   77.5911 H   0  0  0  0  0  0  0  0  0  0  0  0
   -9.7334   67.6874   76.0677 H   0  0  0  0  0  0  0  0  0  0  0  0
  -10.8894   66.3985   75.2725 H   0  0  0  0  0  0  0  0  0  0  0  0
   -0.6481   66.7483   71.6369 H   0  0  0  0  0  0  0  0  0  0  0  0
    0.2713   60.4945   76.3014 H   0  0  0  0  0  0  0  0  0  0  0  0
    4.0200   59.4258   72.3830 H   0  0  0  0  0  0  0  0  0  0  0  0
    3.8534   58.2949   73.8296 H   0  0  0  0  0  0  0  0  0  0  0  0
    2.3246   56.5635   70.5526 H   0  0  0  0  0  0  0  0  0  0  0  0
    3.9324   57.5856   70.5679 H   0  0  0  0  0  0  0  0  0  0  0  0
    1.6519   57.5135   72.6078 H   0  0  0  0  0  0  0  0  0  0  0  0
  2  1  1  0
  3  2  1  0
  4  3  1  1
  5  4  1  0
  6  1  1  0
  6  5  1  0
  7  6  1  0
  8  7  1  0
  9  8  2  0
  9  4  1  0
 10  9  1  0
 11 10  1  0
 12  4  1  0
 12 11  1  0
 13 12  1  0
 14 13  2  0
 15 13  1  0
 16 15  1  0
 16  5  1  0
 17 10  2  0
 18 17  1  0
 19 18  2  0
 19  8  1  0
 20 14  1  0
 21 20  2  0
 22 21  1  0
 23 22  1  0
 24 23  1  0
 25 24  1  0
 26 21  1  0
 26 25  1  0
 27 26  1  0
 28 27  1  0
 29 28  2  0
 29 25  1  0
 30 29  1  0
 31 30  1  0
 32 31  1  0
 32 24  1  0
 33 32  1  0
 34 33  1  0
 35 34  1  0
 25 35  1  1
 36 30  2  0
 37 36  1  0
 38 37  2  0
 38 28  1  0
 39 38  1  0
 24 40  1  1
 41 33  1  0
 42 41  1  0
 43 42  2  3
 44 17  1  0
  5 45  1  1
 46  1  1  0
 48 47  2  3
 48 46  1  0
  1 49  1  1
  2 50  1  0
  2 51  1  0
  3 52  1  0
  3 53  1  0
  6 54  1  6
  7 55  1  0
  7 56  1  0
 12 57  1  1
 15 58  1  0
 15 59  1  0
 16 60  1  0
 16 61  1  0
 18 62  1  0
 19 63  1  0
 22 64  1  0
 22 65  1  0
 23 66  1  0
 23 67  1  0
 26 68  1  1
 31 69  1  0
 31 70  1  0
 32 71  1  6
 33 72  1  6
 34 73  1  0
 34 74  1  0
 35 75  1  0
 35 76  1  0
 36 77  1  0
 37 78  1  0
 39 79  1  0
 40 80  1  0
 41 81  1  0
 41 82  1  0
 42 83  1  0
 43 84  1  0
 43 85  1  0
 44 86  1  0
 45 87  1  0
 46 88  1  0
 46 89  1  0
 47 90  1  0
 47 91  1  0
 48 92  1  0
M  CHG  2   1   1  33   1
M  END
>  <score>  (7) 
-7.053

$$$$
=
     RDKit          3D

 92101  0  0  0  0  0  0  0  0999 V2000
    2.1880   57.5070   74.9230 N   0  0  1  0  0  4  0  0  0  0  0  0
    3.3970   58.3650   75.1920 C   0  0  0  0  0  0  0  0  0  0  0  0
    2.9870   59.8270   75.3510 C   0  0  0  0  0  0  0  0  0  0  0  0
    1.9940   60.3210   74.2750 C   0  0  2  0  0  0  0  0  0  0  0  0
    0.7740   59.3820   74.1540 C   0  0  2  0  0  0  0  0  0  0  0  0
    1.3430   57.9840   73.7200 C   0  0  1  0  0  0  0  0  0  0  0  0
    2.1640   57.9840   72.3950 C   0  0  0  0  0  0  0  0  0  0  0  0
    2.8120   59.3070   72.0710 C   0  0  0  0  0  0  0  0  0  0  0  0
    2.6490   60.3710   72.9420 C   0  0  0  0  0  0  0  0  0  0  0  0
    2.9680   61.6690   72.6080 C   0  0  0  0  0  0  0  0  0  0  0  0
    2.4980   62.5810   73.5170 O   0  0  0  0  0  0  0  0  0  0  0  0
    1.7030   61.8260   74.4570 C   0  0  1  0  0  0  0  0  0  0  0  0
    0.1990   62.0450   74.3040 C   0  0  0  0  0  0  0  0  0  0  0  0
   -0.4380   62.6320   75.2750 N   0  0  0  0  0  0  0  0  0  0  0  0
   -0.4450   61.4060   73.0930 C   0  0  0  0  0  0  0  0  0  0  0  0
   -0.3460   59.8790   73.2060 C   0  0  0  0  0  0  0  0  0  0  0  0
    3.6130   61.9410   71.4220 C   0  0  0  0  0  0  0  0  0  0  0  0
    3.8910   60.8790   70.5560 C   0  0  0  0  0  0  0  0  0  0  0  0
    3.4720   59.5680   70.8680 C   0  0  0  0  0  0  0  0  0  0  0  0
   -1.8080   62.6230   75.1150 N   0  0  0  0  0  0  0  0  0  0  0  0
   -2.4670   61.9310   75.9980 C   0  0  0  0  0  0  0  0  0  0  0  0
   -1.8310   61.1300   77.1190 C   0  0  0  0  0  0  0  0  0  0  0  0
   -2.5070   61.4730   78.4470 C   0  0  0  0  0  0  0  0  0  0  0  0
   -4.0060   61.1150   78.4130 C   0  0  2  0  0  0  0  0  0  0  0  0
   -4.7320   61.7630   77.2270 C   0  0  2  0  0  0  0  0  0  0  0  0
   -4.0040   61.8560   75.8700 C   0  0  1  0  0  0  0  0  0  0  0  0
   -4.5230   63.0490   75.2120 O   0  0  0  0  0  0  0  0  0  0  0  0
   -4.7780   63.9070   76.2560 C   0  0  0  0  0  0  0  0  0  0  0  0
   -4.8410   63.2370   77.4650 C   0  0  0  0  0  0  0  0  0  0  0  0
   -4.9130   63.8940   78.6820 C   0  0  0  0  0  0  0  0  0  0  0  0
   -4.7160   63.1050   79.9480 C   0  0  0  0  0  0  0  0  0  0  0  0
   -4.8030   61.5700   79.6990 C   0  0  1  0  0  0  0  0  0  0  0  0
   -6.3230   61.2160   79.5630 N   0  0  1  0  0  4  0  0  0  0  0  0
   -6.7190   60.4970   78.2990 C   0  0  0  0  0  0  0  0  0  0  0  0
   -6.1550   61.1740   77.0530 C   0  0  0  0  0  0  0  0  0  0  0  0
   -5.0390   65.2840   78.6460 C   0  0  0  0  0  0  0  0  0  0  0  0
   -5.0640   65.9690   77.4110 C   0  0  0  0  0  0  0  0  0  0  0  0
   -4.9170   65.2750   76.2060 C   0  0  0  0  0  0  0  0  0  0  0  0
   -4.8750   65.9190   75.0100 O   0  0  0  0  0  0  0  0  0  0  0  0
   -4.0910   59.6850   78.2800 O   0  0  0  0  0  0  0  0  0  0  0  0
   -6.8700   60.4860   80.7700 C   0  0  0  0  0  0  0  0  0  0  0  0
   -6.8590   59.0040   80.5910 C   0  0  0  0  0  0  0  0  0  0  0  0
   -5.7770   58.2290   80.7500 C   0  0  0  0  0  0  0  0  0  0  0  0
    3.9350   63.2230   71.1080 O   0  0  0  0  0  0  0  0  0  0  0  0
    0.2100   59.1850   75.4750 O   0  0  0  0  0  0  0  0  0  0  0  0
    2.4850   56.0350   74.9200 C   0  0  0  0  0  0  0  0  0  0  0  0
    0.4870   55.4340   76.4160 C   0  0  0  0  0  0  0  0  0  0  0  0
    1.4120   55.1550   75.4860 C   0  0  0  0  0  0  0  0  0  0  0  0
    1.5738   57.6454   75.7382 H   0  0  0  0  0  0  0  0  0  0  0  0
    3.8858   58.0230   76.1162 H   0  0  0  0  0  0  0  0  0  0  0  0
    4.0915   58.2793   74.3432 H   0  0  0  0  0  0  0  0  0  0  0  0
    2.5169   59.9492   76.3379 H   0  0  0  0  0  0  0  0  0  0  0  0
    3.9015   60.4282   75.2406 H   0  0  0  0  0  0  0  0  0  0  0  0
    0.5118   57.3043   73.4808 H   0  0  0  0  0  0  0  0  0  0  0  0
    2.9545   57.2236   72.4786 H   0  0  0  0  0  0  0  0  0  0  0  0
    1.4538   57.7716   71.5823 H   0  0  0  0  0  0  0  0  0  0  0  0
    1.9861   62.1819   75.4586 H   0  0  0  0  0  0  0  0  0  0  0  0
   -1.5032   61.7019   73.0417 H   0  0  0  0  0  0  0  0  0  0  0  0
    0.0742   61.7404   72.1827 H   0  0  0  0  0  0  0  0  0  0  0  0
   -1.3079   59.4980   73.5795 H   0  0  0  0  0  0  0  0  0  0  0  0
   -0.0988   59.5038   72.2019 H   0  0  0  0  0  0  0  0  0  0  0  0
    4.4416   61.0672   69.6225 H   0  0  0  0  0  0  0  0  0  0  0  0
    3.6660   58.7482   70.1607 H   0  0  0  0  0  0  0  0  0  0  0  0
   -1.9513   60.0559   76.9144 H   0  0  0  0  0  0  0  0  0  0  0  0
   -0.7609   61.3773   77.1810 H   0  0  0  0  0  0  0  0  0  0  0  0
   -2.0203   60.9071   79.2550 H   0  0  0  0  0  0  0  0  0  0  0  0
   -2.4091   62.5548   78.6208 H   0  0  0  0  0  0  0  0  0  0  0  0
   -4.1941   60.9408   75.2900 H   0  0  0  0  0  0  0  0  0  0  0  0
   -3.7253   63.3417   80.3633 H   0  0  0  0  0  0  0  0  0  0  0  0
   -5.5178   63.3813   80.6485 H   0  0  0  0  0  0  0  0  0  0  0  0
   -4.3378   61.0348   80.5399 H   0  0  0  0  0  0  0  0  0  0  0  0
   -6.7616   62.1461   79.5048 H   0  0  0  0  0  0  0  0  0  0  0  0
   -6.3403   59.4652   78.3443 H   0  0  0  0  0  0  0  0  0  0  0  0
   -7.8165   60.5164   78.2278 H   0  0  0  0  0  0  0  0  0  0  0  0
   -6.1217   60.4299   76.2435 H   0  0  0  0  0  0  0  0  0  0  0  0
   -6.8188   62.0228   76.8318 H   0  0  0  0  0  0  0  0  0  0  0  0
   -5.1194   65.8496   79.5860 H   0  0  0  0  0  0  0  0  0  0  0  0
   -5.2006   67.0604   77.3970 H   0  0  0  0  0  0  0  0  0  0  0  0
   -4.7701   65.4015   74.1726 H   0  0  0  0  0  0  0  0  0  0  0  0
   -4.1156   59.2709   79.1789 H   0  0  0  0  0  0  0  0  0  0  0  0
   -6.2551   60.7408   81.6458 H   0  0  0  0  0  0  0  0  0  0  0  0
   -7.9153   60.7999   80.9069 H   0  0  0  0  0  0  0  0  0  0  0  0
   -7.8031   58.5147   80.3095 H   0  0  0  0  0  0  0  0  0  0  0  0
   -5.8521   57.1420   80.5992 H   0  0  0  0  0  0  0  0  0  0  0  0
   -4.8140   58.6800   81.0313 H   0  0  0  0  0  0  0  0  0  0  0  0
    4.3987   63.4225   70.2564 H   0  0  0  0  0  0  0  0  0  0  0  0
    0.8845   59.4206   76.1603 H   0  0  0  0  0  0  0  0  0  0  0  0
    2.6600   55.7275   73.8784 H   0  0  0  0  0  0  0  0  0  0  0  0
    3.3580   55.9036   75.5762 H   0  0  0  0  0  0  0  0  0  0  0  0
   -0.2358   54.6631   76.7214 H   0  0  0  0  0  0  0  0  0  0  0  0
    0.4511   56.4337   76.8734 H   0  0  0  0  0  0  0  0  0  0  0  0
    1.3783   54.1332   75.0802 H   0  0  0  0  0  0  0  0  0  0  0  0
  2  1  1  0
  3  2  1  0
  4  3  1  1
  5  4  1  0
  6  1  1  0
  6  5  1  0
  7  6  1  0
  8  7  1  0
  9  8  2  0
  9  4  1  0
 10  9  1  0
 11 10  1  0
 12  4  1  0
 12 11  1  0
 13 12  1  0
 14 13  2  0
 15 13  1  0
 16 15  1  0
 16  5  1  0
 17 10  2  0
 18 17  1  0
 19 18  2  0
 19  8  1  0
 20 14  1  0
 21 20  2  0
 22 21  1  0
 23 22  1  0
 24 23  1  0
 25 24  1  0
 26 21  1  0
 26 25  1  0
 27 26  1  0
 28 27  1  0
 29 28  2  0
 29 25  1  0
 30 29  1  0
 31 30  1  0
 32 31  1  0
 32 24  1  0
 33 32  1  0
 34 33  1  0
 35 34  1  0
 25 35  1  6
 36 30  2  0
 37 36  1  0
 38 37  2  0
 38 28  1  0
 39 38  1  0
 24 40  1  6
 41 33  1  0
 42 41  1  0
 43 42  2  3
 44 17  1  0
  5 45  1  1
 46  1  1  0
 48 47  2  3
 48 46  1  0
  1 49  1  1
  2 50  1  0
  2 51  1  0
  3 52  1  0
  3 53  1  0
  6 54  1  6
  7 55  1  0
  7 56  1  0
 12 57  1  1
 15 58  1  0
 15 59  1  0
 16 60  1  0
 16 61  1  0
 18 62  1  0
 19 63  1  0
 22 64  1  0
 22 65  1  0
 23 66  1  0
 23 67  1  0
 26 68  1  6
 31 69  1  0
 31 70  1  0
 32 71  1  1
 33 72  1  6
 34 73  1  0
 34 74  1  0
 35 75  1  0
 35 76  1  0
 36 77  1  0
 37 78  1  0
 39 79  1  0
 40 80  1  0
 41 81  1  0
 41 82  1  0
 42 83  1  0
 43 84  1  0
 43 85  1  0
 44 86  1  0
 45 87  1  0
 46 88  1  0
 46 89  1  0
 47 90  1  0
 47 91  1  0
 48 92  1  0
M  CHG  2   1   1  33   1
M  END
>  <score>  (8) 
-7.03

$$$$
=
     RDKit          3D

 92101  0  0  0  0  0  0  0  0999 V2000
    1.9020   61.0010   73.2530 N   0  0  1  0  0  4  0  0  0  0  0  0
    1.9720   59.7120   72.4770 C   0  0  0  0  0  0  0  0  0  0  0  0
    0.8660   58.7600   72.9270 C   0  0  0  0  0  0  0  0  0  0  0  0
    0.7140   58.6550   74.4620 C   0  0  2  0  0  0  0  0  0  0  0  0
    0.5880   60.0490   75.1160 C   0  0  2  0  0  0  0  0  0  0  0  0
    1.9240   60.8050   74.7860 C   0  0  1  0  0  0  0  0  0  0  0  0
    3.2260   60.0930   75.2640 C   0  0  0  0  0  0  0  0  0  0  0  0
    3.1020   58.5950   75.3830 C   0  0  0  0  0  0  0  0  0  0  0  0
    1.8990   57.9890   75.0600 C   0  0  0  0  0  0  0  0  0  0  0  0
    1.6070   56.6830   75.3880 C   0  0  0  0  0  0  0  0  0  0  0  0
    0.2850   56.3720   75.1970 O   0  0  0  0  0  0  0  0  0  0  0  0
   -0.3610   57.6100   74.8290 C   0  0  1  0  0  0  0  0  0  0  0  0
   -1.2400   58.1950   75.9330 C   0  0  0  0  0  0  0  0  0  0  0  0
   -2.5240   58.2520   75.7310 N   0  0  0  0  0  0  0  0  0  0  0  0
   -0.5100   58.8090   77.1080 C   0  0  0  0  0  0  0  0  0  0  0  0
    0.2820   60.0350   76.6360 C   0  0  0  0  0  0  0  0  0  0  0  0
    2.5770   55.8700   75.9300 C   0  0  0  0  0  0  0  0  0  0  0  0
    3.8410   56.4150   76.1780 C   0  0  0  0  0  0  0  0  0  0  0  0
    4.0970   57.7800   75.9260 C   0  0  0  0  0  0  0  0  0  0  0  0
   -3.2010   58.9520   76.7070 N   0  0  0  0  0  0  0  0  0  0  0  0
   -3.7630   60.0580   76.3130 C   0  0  0  0  0  0  0  0  0  0  0  0
   -3.6750   60.6170   74.9050 C   0  0  0  0  0  0  0  0  0  0  0  0
   -5.0740   60.9770   74.4040 C   0  0  0  0  0  0  0  0  0  0  0  0
   -5.7180   62.0580   75.2940 C   0  0  2  0  0  0  0  0  0  0  0  0
   -5.7350   61.6590   76.7740 C   0  0  2  0  0  0  0  0  0  0  0  0
   -4.5200   60.9070   77.3560 C   0  0  1  0  0  0  0  0  0  0  0  0
   -5.0390   60.0630   78.4260 O   0  0  0  0  0  0  0  0  0  0  0  0
   -6.2930   59.7170   77.9830 C   0  0  0  0  0  0  0  0  0  0  0  0
   -6.7300   60.5570   76.9740 C   0  0  0  0  0  0  0  0  0  0  0  0
   -7.8810   60.3170   76.2430 C   0  0  0  0  0  0  0  0  0  0  0  0
   -8.1420   61.1290   75.0050 C   0  0  0  0  0  0  0  0  0  0  0  0
   -7.2200   62.3820   74.9240 C   0  0  1  0  0  0  0  0  0  0  0  0
   -7.8140   63.4500   75.9040 N   0  0  1  0  0  4  0  0  0  0  0  0
   -6.8670   63.9800   76.9500 C   0  0  0  0  0  0  0  0  0  0  0  0
   -6.1250   62.8600   77.6730 C   0  0  0  0  0  0  0  0  0  0  0  0
   -8.6700   59.2340   76.6410 C   0  0  0  0  0  0  0  0  0  0  0  0
   -8.2750   58.4230   77.7280 C   0  0  0  0  0  0  0  0  0  0  0  0
   -7.0690   58.6570   78.3940 C   0  0  0  0  0  0  0  0  0  0  0  0
   -6.6390   57.8510   79.4010 O   0  0  0  0  0  0  0  0  0  0  0  0
   -4.9230   63.2490   75.1470 O   0  0  0  0  0  0  0  0  0  0  0  0
   -8.4940   64.5960   75.1880 C   0  0  0  0  0  0  0  0  0  0  0  0
   -7.7460   65.0270   73.9700 C   0  0  0  0  0  0  0  0  0  0  0  0
   -8.3130   65.3010   72.7880 C   0  0  0  0  0  0  0  0  0  0  0  0
    2.2820   54.5800   76.2380 O   0  0  0  0  0  0  0  0  0  0  0  0
   -0.4610   60.7840   74.4380 O   0  0  0  0  0  0  0  0  0  0  0  0
    2.8510   62.0530   72.7550 C   0  0  0  0  0  0  0  0  0  0  0  0
    5.2270   61.2640   72.1850 C   0  0  0  0  0  0  0  0  0  0  0  0
    3.9580   61.5630   71.8710 C   0  0  0  0  0  0  0  0  0  0  0  0
    0.9655   61.3824   73.0569 H   0  0  0  0  0  0  0  0  0  0  0  0
    1.8513   59.9271   71.4050 H   0  0  0  0  0  0  0  0  0  0  0  0
    2.9476   59.2378   72.6595 H   0  0  0  0  0  0  0  0  0  0  0  0
   -0.0874   59.1145   72.5083 H   0  0  0  0  0  0  0  0  0  0  0  0
    1.1408   57.7584   72.5647 H   0  0  0  0  0  0  0  0  0  0  0  0
    1.9591   61.7538   75.3415 H   0  0  0  0  0  0  0  0  0  0  0  0
    4.0263   60.3169   74.5434 H   0  0  0  0  0  0  0  0  0  0  0  0
    3.4429   60.4738   76.2729 H   0  0  0  0  0  0  0  0  0  0  0  0
   -1.0159   57.3765   73.9767 H   0  0  0  0  0  0  0  0  0  0  0  0
   -1.2390   59.1158   77.8725 H   0  0  0  0  0  0  0  0  0  0  0  0
    0.1820   58.0689   77.5362 H   0  0  0  0  0  0  0  0  0  0  0  0
   -0.3005   60.9360   76.8787 H   0  0  0  0  0  0  0  0  0  0  0  0
    1.2524   60.0019   77.1529 H   0  0  0  0  0  0  0  0  0  0  0  0
    4.6429   55.7740   76.5730 H   0  0  0  0  0  0  0  0  0  0  0  0
    5.0852   58.2036   76.1585 H   0  0  0  0  0  0  0  0  0  0  0  0
   -3.0448   61.5186   74.9085 H   0  0  0  0  0  0  0  0  0  0  0  0
   -3.2339   59.8600   74.2399 H   0  0  0  0  0  0  0  0  0  0  0  0
   -5.0008   61.3558   73.3739 H   0  0  0  0  0  0  0  0  0  0  0  0
   -5.7018   60.0745   74.4389 H   0  0  0  0  0  0  0  0  0  0  0  0
   -3.7792   61.6349   77.7183 H   0  0  0  0  0  0  0  0  0  0  0  0
   -7.9623   60.4981   74.1220 H   0  0  0  0  0  0  0  0  0  0  0  0
   -9.1851   61.4763   75.0401 H   0  0  0  0  0  0  0  0  0  0  0  0
   -7.1965   62.7539   73.8890 H   0  0  0  0  0  0  0  0  0  0  0  0
   -8.5225   62.9073   76.4182 H   0  0  0  0  0  0  0  0  0  0  0  0
   -6.1309   64.6359   76.4623 H   0  0  0  0  0  0  0  0  0  0  0  0
   -7.4596   64.5301   77.6958 H   0  0  0  0  0  0  0  0  0  0  0  0
   -5.2038   63.2803   78.1027 H   0  0  0  0  0  0  0  0  0  0  0  0
   -6.8163   62.4684   78.4337 H   0  0  0  0  0  0  0  0  0  0  0  0
   -9.6042   59.0119   76.1044 H   0  0  0  0  0  0  0  0  0  0  0  0
   -8.9245   57.5973   78.0541 H   0  0  0  0  0  0  0  0  0  0  0  0
   -5.7800   58.0413   79.8549 H   0  0  0  0  0  0  0  0  0  0  0  0
   -4.6878   63.6013   76.0418 H   0  0  0  0  0  0  0  0  0  0  0  0
   -9.5033   64.2771   74.8888 H   0  0  0  0  0  0  0  0  0  0  0  0
   -8.5311   65.4503   75.8799 H   0  0  0  0  0  0  0  0  0  0  0  0
   -6.6533   65.1264   74.0488 H   0  0  0  0  0  0  0  0  0  0  0  0
   -7.6888   65.6132   71.9378 H   0  0  0  0  0  0  0  0  0  0  0  0
   -9.4029   65.2138   72.6674 H   0  0  0  0  0  0  0  0  0  0  0  0
    2.9772   53.9928   76.6278 H   0  0  0  0  0  0  0  0  0  0  0  0
   -1.0575   61.2019   75.1086 H   0  0  0  0  0  0  0  0  0  0  0  0
    2.2677   62.7932   72.1876 H   0  0  0  0  0  0  0  0  0  0  0  0
    3.3411   62.4631   73.6503 H   0  0  0  0  0  0  0  0  0  0  0  0
    5.9185   60.9128   71.4049 H   0  0  0  0  0  0  0  0  0  0  0  0
    5.5764   61.3699   73.2226 H   0  0  0  0  0  0  0  0  0  0  0  0
    3.6910   61.4295   70.8123 H   0  0  0  0  0  0  0  0  0  0  0  0
  2  1  1  0
  3  2  1  0
  4  3  1  6
  5  4  1  0
  6  1  1  0
  6  5  1  0
  7  6  1  0
  8  7  1  0
  9  8  2  0
  9  4  1  0
 10  9  1  0
 11 10  1  0
 12  4  1  0
 12 11  1  0
 13 12  1  0
 14 13  2  0
 15 13  1  0
 16 15  1  0
 16  5  1  0
 17 10  2  0
 18 17  1  0
 19 18  2  0
 19  8  1  0
 20 14  1  0
 21 20  2  0
 22 21  1  0
 23 22  1  0
 24 23  1  0
 25 24  1  0
 26 21  1  0
 26 25  1  0
 27 26  1  0
 28 27  1  0
 29 28  2  0
 29 25  1  0
 30 29  1  0
 31 30  1  0
 32 31  1  0
 32 24  1  0
 33 32  1  0
 34 33  1  0
 35 34  1  0
 25 35  1  1
 36 30  2  0
 37 36  1  0
 38 37  2  0
 38 28  1  0
 39 38  1  0
 24 40  1  1
 41 33  1  0
 42 41  1  0
 43 42  2  3
 44 17  1  0
  5 45  1  6
 46  1  1  0
 48 47  2  3
 48 46  1  0
  1 49  1  1
  2 50  1  0
  2 51  1  0
  3 52  1  0
  3 53  1  0
  6 54  1  1
  7 55  1  0
  7 56  1  0
 12 57  1  6
 15 58  1  0
 15 59  1  0
 16 60  1  0
 16 61  1  0
 18 62  1  0
 19 63  1  0
 22 64  1  0
 22 65  1  0
 23 66  1  0
 23 67  1  0
 26 68  1  1
 31 69  1  0
 31 70  1  0
 32 71  1  6
 33 72  1  1
 34 73  1  0
 34 74  1  0
 35 75  1  0
 35 76  1  0
 36 77  1  0
 37 78  1  0
 39 79  1  0
 40 80  1  0
 41 81  1  0
 41 82  1  0
 42 83  1  0
 43 84  1  0
 43 85  1  0
 44 86  1  0
 45 87  1  0
 46 88  1  0
 46 89  1  0
 47 90  1  0
 47 91  1  0
 48 92  1  0
M  CHG  2   1   1  33   1
M  END
>  <score>  (9) 
-6.763

$$$$
