=
     RDKit          3D

 38 39  0  0  0  0  0  0  0  0999 V2000
    1.2670   69.0860   67.5110 C   0  0  0  0  0  0  0  0  0  0  0  0
    0.2290   69.6410   67.8530 O   0  0  0  0  0  0  0  0  0  0  0  0
    5.1650   70.6430   68.5490 C   0  0  0  0  0  0  0  0  0  0  0  0
    4.1430   70.6210   69.5020 C   0  0  0  0  0  0  0  0  0  0  0  0
    2.8710   70.1180   69.1780 C   0  0  0  0  0  0  0  0  0  0  0  0
    2.5950   69.6360   67.8920 C   0  0  0  0  0  0  0  0  0  0  0  0
    3.6050   69.6530   66.9270 C   0  0  0  0  0  0  0  0  0  0  0  0
    4.8680   70.1500   67.2740 C   0  0  0  0  0  0  0  0  0  0  0  0
    5.8940   70.1370   66.2560 N   0  0  0  0  0  4  0  0  0  0  0  0
    6.5140   71.1930   66.0720 O   0  0  0  0  0  0  0  0  0  0  0  0
    6.0330   69.0890   65.6090 O   0  0  0  0  0  1  0  0  0  0  0  0
    7.1500   70.6110   69.8770 C   0  0  0  0  0  0  0  0  0  0  0  0
    6.4240   71.1230   68.7650 O   0  0  0  0  0  0  0  0  0  0  0  0
    1.1710   67.8390   66.6630 C   0  0  0  0  0  0  0  0  0  0  0  0
    0.6240   66.8510   67.1390 O   0  0  0  0  0  0  0  0  0  0  0  0
    1.7550   67.8100   65.2940 C   0  0  0  0  0  0  0  0  0  0  0  0
    1.3410   68.6800   64.2790 C   0  0  0  0  0  0  0  0  0  0  0  0
    1.9310   68.6290   63.0030 C   0  0  0  0  0  0  0  0  0  0  0  0
    2.9430   67.7100   62.7210 C   0  0  0  0  0  0  0  0  0  0  0  0
    3.3390   66.8480   63.7490 C   0  0  0  0  0  0  0  0  0  0  0  0
    2.7680   66.8840   65.0280 C   0  0  0  0  0  0  0  0  0  0  0  0
    4.3860   65.8750   63.5120 N   0  0  0  0  0  4  0  0  0  0  0  0
    4.0630   64.8150   62.9600 O   0  0  0  0  0  0  0  0  0  0  0  0
    5.5150   66.1610   63.9320 O   0  0  0  0  0  1  0  0  0  0  0  0
    3.5940   67.6110   61.5240 O   0  0  0  0  0  0  0  0  0  0  0  0
    3.4430   68.6810   60.5970 C   0  0  0  0  0  0  0  0  0  0  0  0
    4.3360   71.0012   70.5160 H   0  0  0  0  0  0  0  0  0  0  0  0
    2.0820   70.1027   69.9443 H   0  0  0  0  0  0  0  0  0  0  0  0
    3.4115   69.2817   65.9098 H   0  0  0  0  0  0  0  0  0  0  0  0
    6.6749   70.9461   70.8108 H   0  0  0  0  0  0  0  0  0  0  0  0
    7.1505   69.5116   69.8398 H   0  0  0  0  0  0  0  0  0  0  0  0
    8.1857   70.9796   69.8398 H   0  0  0  0  0  0  0  0  0  0  0  0
    0.5452   69.4120   64.4813 H   0  0  0  0  0  0  0  0  0  0  0  0
    1.5910   69.3212   62.2186 H   0  0  0  0  0  0  0  0  0  0  0  0
    3.1120   66.1933   65.8119 H   0  0  0  0  0  0  0  0  0  0  0  0
    3.3098   69.6252   61.1454 H   0  0  0  0  0  0  0  0  0  0  0  0
    4.3406   68.7478   59.9647 H   0  0  0  0  0  0  0  0  0  0  0  0
    2.5620   68.4967   59.9647 H   0  0  0  0  0  0  0  0  0  0  0  0
  2  1  2  0
  4  3  2  0
  5  4  1  0
  6  5  2  0
  6  1  1  0
  7  6  1  0
  8  7  2  0
  8  3  1  0
  9  8  1  0
 10  9  2  0
 11  9  1  0
 13  3  1  0
 13 12  1  0
 14  1  1  0
 15 14  2  0
 16 14  1  0
 17 16  2  0
 18 17  1  0
 19 18  2  0
 20 19  1  0
 21 20  2  0
 21 16  1  0
 22 20  1  0
 23 22  2  0
 24 22  1  0
 25 19  1  0
 26 25  1  0
  4 27  1  0
  5 28  1  0
  7 29  1  0
 12 30  1  0
 12 31  1  0
 12 32  1  0
 17 33  1  0
 18 34  1  0
 21 35  1  0
 26 36  1  0
 26 37  1  0
 26 38  1  0
M  CHG  4   9   1  11  -1  22   1  24  -1
M  END
>  <score>  (1) 
-9.409

$$$$
=
     RDKit          3D

 38 39  0  0  0  0  0  0  0  0999 V2000
    1.2130   67.8330   66.6650 C   0  0  0  0  0  0  0  0  0  0  0  0
    0.7000   66.8260   67.1390 O   0  0  0  0  0  0  0  0  0  0  0  0
    2.9590   67.7810   62.7100 C   0  0  0  0  0  0  0  0  0  0  0  0
    1.9780   68.7220   63.0310 C   0  0  0  0  0  0  0  0  0  0  0  0
    1.4010   68.7510   64.3120 C   0  0  0  0  0  0  0  0  0  0  0  0
    1.7900   67.8310   65.2950 C   0  0  0  0  0  0  0  0  0  0  0  0
    2.7690   66.8820   64.9900 C   0  0  0  0  0  0  0  0  0  0  0  0
    3.3360   66.8770   63.7100 C   0  0  0  0  0  0  0  0  0  0  0  0
    4.3590   65.8930   63.4350 N   0  0  0  0  0  4  0  0  0  0  0  0
    5.4880   66.1170   63.8910 O   0  0  0  0  0  0  0  0  0  0  0  0
    4.0400   64.9350   62.7180 O   0  0  0  0  0  1  0  0  0  0  0  0
    3.4050   68.7350   60.5670 C   0  0  0  0  0  0  0  0  0  0  0  0
    3.5660   67.6670   61.4930 O   0  0  0  0  0  0  0  0  0  0  0  0
    1.2760   69.0790   67.5200 C   0  0  0  0  0  0  0  0  0  0  0  0
    0.2230   69.6030   67.8650 O   0  0  0  0  0  0  0  0  0  0  0  0
    2.5890   69.6650   67.9030 C   0  0  0  0  0  0  0  0  0  0  0  0
    2.8360   70.1970   69.1740 C   0  0  0  0  0  0  0  0  0  0  0  0
    4.0960   70.7280   69.4990 C   0  0  0  0  0  0  0  0  0  0  0  0
    5.1310   70.7370   68.5610 C   0  0  0  0  0  0  0  0  0  0  0  0
    4.8620   70.2030   67.2960 C   0  0  0  0  0  0  0  0  0  0  0  0
    3.6140   69.6650   66.9520 C   0  0  0  0  0  0  0  0  0  0  0  0
    5.8980   70.1860   66.2850 N   0  0  0  0  0  4  0  0  0  0  0  0
    6.4370   71.2640   66.0030 O   0  0  0  0  0  0  0  0  0  0  0  0
    6.1270   69.0960   65.7430 O   0  0  0  0  0  1  0  0  0  0  0  0
    6.3930   71.2010   68.7990 O   0  0  0  0  0  0  0  0  0  0  0  0
    7.1340   70.5990   69.8550 C   0  0  0  0  0  0  0  0  0  0  0  0
    1.6532   69.4490   62.2721 H   0  0  0  0  0  0  0  0  0  0  0  0
    0.6348   69.5048   64.5460 H   0  0  0  0  0  0  0  0  0  0  0  0
    3.0897   66.1491   65.7450 H   0  0  0  0  0  0  0  0  0  0  0  0
    3.2629   69.6777   61.1157 H   0  0  0  0  0  0  0  0  0  0  0  0
    4.3019   68.8104   59.9347 H   0  0  0  0  0  0  0  0  0  0  0  0
    2.5257   68.5426   59.9347 H   0  0  0  0  0  0  0  0  0  0  0  0
    2.0344   70.1995   69.9273 H   0  0  0  0  0  0  0  0  0  0  0  0
    4.2691   71.1413   70.5036 H   0  0  0  0  0  0  0  0  0  0  0  0
    3.4435   69.2488   65.9482 H   0  0  0  0  0  0  0  0  0  0  0  0
    6.7278   70.9290   70.8225 H   0  0  0  0  0  0  0  0  0  0  0  0
    7.0571   69.5043   69.7792 H   0  0  0  0  0  0  0  0  0  0  0  0
    8.1897   70.8985   69.7792 H   0  0  0  0  0  0  0  0  0  0  0  0
  2  1  2  0
  4  3  2  0
  5  4  1  0
  6  5  2  0
  6  1  1  0
  7  6  1  0
  8  7  2  0
  8  3  1  0
  9  8  1  0
 10  9  2  0
 11  9  1  0
 13  3  1  0
 13 12  1  0
 14  1  1  0
 15 14  2  0
 16 14  1  0
 17 16  2  0
 18 17  1  0
 19 18  2  0
 20 19  1  0
 21 20  2  0
 21 16  1  0
 22 20  1  0
 23 22  2  0
 24 22  1  0
 25 19  1  0
 26 25  1  0
  4 27  1  0
  5 28  1  0
  7 29  1  0
 12 30  1  0
 12 31  1  0
 12 32  1  0
 17 33  1  0
 18 34  1  0
 21 35  1  0
 26 36  1  0
 26 37  1  0
 26 38  1  0
M  CHG  4   9   1  11  -1  22   1  24  -1
M  END
>  <score>  (2) 
-9.371

$$$$
=
     RDKit          3D

 38 39  0  0  0  0  0  0  0  0999 V2000
    3.1110   67.7170   64.4110 C   0  0  0  0  0  0  0  0  0  0  0  0
    3.4350   66.6080   64.0030 O   0  0  0  0  0  0  0  0  0  0  0  0
   -0.8480   68.3960   66.0110 C   0  0  0  0  0  0  0  0  0  0  0  0
   -0.5040   68.9010   64.7550 C   0  0  0  0  0  0  0  0  0  0  0  0
    0.7800   68.6890   64.2220 C   0  0  0  0  0  0  0  0  0  0  0  0
    1.7450   67.9730   64.9420 C   0  0  0  0  0  0  0  0  0  0  0  0
    1.4180   67.4620   66.2000 C   0  0  0  0  0  0  0  0  0  0  0  0
    0.1310   67.6780   66.7070 C   0  0  0  0  0  0  0  0  0  0  0  0
   -0.1790   67.1210   68.0040 N   0  0  0  0  0  4  0  0  0  0  0  0
    0.5760   67.4210   68.9380 O   0  0  0  0  0  0  0  0  0  0  0  0
   -1.1400   66.3410   68.0680 O   0  0  0  0  0  1  0  0  0  0  0  0
   -3.2000   68.7470   65.7810 C   0  0  0  0  0  0  0  0  0  0  0  0
   -2.0610   68.5610   66.6140 O   0  0  0  0  0  0  0  0  0  0  0  0
    4.1250   68.8360   64.3370 C   0  0  0  0  0  0  0  0  0  0  0  0
    4.4480   69.2570   63.2310 O   0  0  0  0  0  0  0  0  0  0  0  0
    4.7340   69.3860   65.5780 C   0  0  0  0  0  0  0  0  0  0  0  0
    6.1000   69.6750   65.6840 C   0  0  0  0  0  0  0  0  0  0  0  0
    6.6320   70.2080   66.8710 C   0  0  0  0  0  0  0  0  0  0  0  0
    5.8100   70.4620   67.9720 C   0  0  0  0  0  0  0  0  0  0  0  0
    4.4490   70.1630   67.8450 C   0  0  0  0  0  0  0  0  0  0  0  0
    3.8980   69.6340   66.6700 C   0  0  0  0  0  0  0  0  0  0  0  0
    3.5510   70.4070   68.9540 N   0  0  0  0  0  4  0  0  0  0  0  0
    3.3460   71.5860   69.2720 O   0  0  0  0  0  0  0  0  0  0  0  0
    3.1010   69.4100   69.5340 O   0  0  0  0  0  1  0  0  0  0  0  0
    6.2330   71.0070   69.1500 O   0  0  0  0  0  0  0  0  0  0  0  0
    7.5900   70.7990   69.5280 C   0  0  0  0  0  0  0  0  0  0  0  0
   -1.2458   69.4709   64.1762 H   0  0  0  0  0  0  0  0  0  0  0  0
    1.0294   69.0899   63.2285 H   0  0  0  0  0  0  0  0  0  0  0  0
    2.1606   66.8982   66.7837 H   0  0  0  0  0  0  0  0  0  0  0  0
   -4.0925   68.8927   66.4073 H   0  0  0  0  0  0  0  0  0  0  0  0
   -3.0492   69.6324   65.1459 H   0  0  0  0  0  0  0  0  0  0  0  0
   -3.3387   67.8596   65.1459 H   0  0  0  0  0  0  0  0  0  0  0  0
    6.7644   69.4828   64.8286 H   0  0  0  0  0  0  0  0  0  0  0  0
    7.7080   70.4277   66.9338 H   0  0  0  0  0  0  0  0  0  0  0  0
    2.8214   69.4168   66.6081 H   0  0  0  0  0  0  0  0  0  0  0  0
    7.6673   70.7872   70.6252 H   0  0  0  0  0  0  0  0  0  0  0  0
    7.9394   69.8368   69.1254 H   0  0  0  0  0  0  0  0  0  0  0  0
    8.2116   71.6124   69.1254 H   0  0  0  0  0  0  0  0  0  0  0  0
  2  1  2  0
  4  3  2  0
  5  4  1  0
  6  5  2  0
  6  1  1  0
  7  6  1  0
  8  7  2  0
  8  3  1  0
  9  8  1  0
 10  9  2  0
 11  9  1  0
 13  3  1  0
 13 12  1  0
 14  1  1  0
 15 14  2  0
 16 14  1  0
 17 16  2  0
 18 17  1  0
 19 18  2  0
 20 19  1  0
 21 20  2  0
 21 16  1  0
 22 20  1  0
 23 22  2  0
 24 22  1  0
 25 19  1  0
 26 25  1  0
  4 27  1  0
  5 28  1  0
  7 29  1  0
 12 30  1  0
 12 31  1  0
 12 32  1  0
 17 33  1  0
 18 34  1  0
 21 35  1  0
 26 36  1  0
 26 37  1  0
 26 38  1  0
M  CHG  4   9   1  11  -1  22   1  24  -1
M  END
>  <score>  (3) 
-9.354

$$$$
=
     RDKit          3D

 38 39  0  0  0  0  0  0  0  0999 V2000
    4.1360   68.8120   64.2160 C   0  0  0  0  0  0  0  0  0  0  0  0
    4.5240   69.2160   63.1260 O   0  0  0  0  0  0  0  0  0  0  0  0
    5.6750   70.4270   67.9200 C   0  0  0  0  0  0  0  0  0  0  0  0
    6.5430   70.1550   66.8590 C   0  0  0  0  0  0  0  0  0  0  0  0
    6.0580   69.6290   65.6500 C   0  0  0  0  0  0  0  0  0  0  0  0
    4.6940   69.3580   65.4820 C   0  0  0  0  0  0  0  0  0  0  0  0
    3.8120   69.6230   66.5330 C   0  0  0  0  0  0  0  0  0  0  0  0
    4.3170   70.1550   67.7260 C   0  0  0  0  0  0  0  0  0  0  0  0
    3.3740   70.4330   68.7860 N   0  0  0  0  0  4  0  0  0  0  0  0
    3.8280   70.4960   69.9360 O   0  0  0  0  0  0  0  0  0  0  0  0
    2.1800   70.5270   68.4680 O   0  0  0  0  0  1  0  0  0  0  0  0
    7.4350   70.8680   69.4740 C   0  0  0  0  0  0  0  0  0  0  0  0
    6.0540   70.9250   69.1330 O   0  0  0  0  0  0  0  0  0  0  0  0
    3.0940   67.7180   64.2490 C   0  0  0  0  0  0  0  0  0  0  0  0
    3.3800   66.6250   63.7720 O   0  0  0  0  0  0  0  0  0  0  0  0
    1.7450   67.9780   64.8200 C   0  0  0  0  0  0  0  0  0  0  0  0
    0.7520   68.6780   64.1240 C   0  0  0  0  0  0  0  0  0  0  0  0
   -0.5150   68.8890   64.6950 C   0  0  0  0  0  0  0  0  0  0  0  0
   -0.8130   68.4040   65.9710 C   0  0  0  0  0  0  0  0  0  0  0  0
    0.1940   67.7100   66.6500 C   0  0  0  0  0  0  0  0  0  0  0  0
    1.4630   67.4860   66.0980 C   0  0  0  0  0  0  0  0  0  0  0  0
   -0.0600   67.1850   67.9750 N   0  0  0  0  0  4  0  0  0  0  0  0
    0.7230   67.5110   68.8770 O   0  0  0  0  0  0  0  0  0  0  0  0
   -1.0140   66.4050   68.0900 O   0  0  0  0  0  1  0  0  0  0  0  0
   -2.0230   68.5340   66.5900 O   0  0  0  0  0  0  0  0  0  0  0  0
   -3.1720   68.7110   65.7690 C   0  0  0  0  0  0  0  0  0  0  0  0
    7.6187   70.3551   66.9719 H   0  0  0  0  0  0  0  0  0  0  0  0
    6.7577   69.4276   64.8255 H   0  0  0  0  0  0  0  0  0  0  0  0
    2.7369   69.4168   66.4249 H   0  0  0  0  0  0  0  0  0  0  0  0
    7.5425   70.8636   70.5687 H   0  0  0  0  0  0  0  0  0  0  0  0
    7.8778   69.9508   69.0584 H   0  0  0  0  0  0  0  0  0  0  0  0
    7.9518   71.7456   69.0584 H   0  0  0  0  0  0  0  0  0  0  0  0
    0.9660   69.0677   63.1178 H   0  0  0  0  0  0  0  0  0  0  0  0
   -1.2804   69.4421   64.1310 H   0  0  0  0  0  0  0  0  0  0  0  0
    2.2265   66.9307   66.6626 H   0  0  0  0  0  0  0  0  0  0  0  0
   -4.0593   68.8477   66.4046 H   0  0  0  0  0  0  0  0  0  0  0  0
   -3.0356   69.5987   65.1339 H   0  0  0  0  0  0  0  0  0  0  0  0
   -3.3091   67.8234   65.1339 H   0  0  0  0  0  0  0  0  0  0  0  0
  2  1  2  0
  4  3  2  0
  5  4  1  0
  6  5  2  0
  6  1  1  0
  7  6  1  0
  8  7  2  0
  8  3  1  0
  9  8  1  0
 10  9  2  0
 11  9  1  0
 13  3  1  0
 13 12  1  0
 14  1  1  0
 15 14  2  0
 16 14  1  0
 17 16  2  0
 18 17  1  0
 19 18  2  0
 20 19  1  0
 21 20  2  0
 21 16  1  0
 22 20  1  0
 23 22  2  0
 24 22  1  0
 25 19  1  0
 26 25  1  0
  4 27  1  0
  5 28  1  0
  7 29  1  0
 12 30  1  0
 12 31  1  0
 12 32  1  0
 17 33  1  0
 18 34  1  0
 21 35  1  0
 26 36  1  0
 26 37  1  0
 26 38  1  0
M  CHG  4   9   1  11  -1  22   1  24  -1
M  END
>  <score>  (4) 
-9.329

$$$$
=
     RDKit          3D

 38 39  0  0  0  0  0  0  0  0999 V2000
    1.2100   68.7780   67.0330 C   0  0  0  0  0  0  0  0  0  0  0  0
    0.2570   68.5980   67.7820 O   0  0  0  0  0  0  0  0  0  0  0  0
    4.8680   70.6600   68.3640 C   0  0  0  0  0  0  0  0  0  0  0  0
    3.7620   70.5970   69.2160 C   0  0  0  0  0  0  0  0  0  0  0  0
    2.5660   69.9890   68.7970 C   0  0  0  0  0  0  0  0  0  0  0  0
    2.4520   69.4400   67.5130 C   0  0  0  0  0  0  0  0  0  0  0  0
    3.5480   69.4960   66.6480 C   0  0  0  0  0  0  0  0  0  0  0  0
    4.7320   70.0990   67.0900 C   0  0  0  0  0  0  0  0  0  0  0  0
    5.8520   70.1230   66.1750 N   0  0  0  0  0  4  0  0  0  0  0  0
    6.4510   71.2000   66.0530 O   0  0  0  0  0  0  0  0  0  0  0  0
    6.0860   69.0840   65.5430 O   0  0  0  0  0  1  0  0  0  0  0  0
    6.8610   70.6230   69.6810 C   0  0  0  0  0  0  0  0  0  0  0  0
    6.0630   71.2400   68.6760 O   0  0  0  0  0  0  0  0  0  0  0  0
    1.0850   68.3390   65.5920 C   0  0  0  0  0  0  0  0  0  0  0  0
    0.1440   68.7640   64.9320 O   0  0  0  0  0  0  0  0  0  0  0  0
    2.0680   67.3880   65.0050 C   0  0  0  0  0  0  0  0  0  0  0  0
    2.2580   66.0940   65.5060 C   0  0  0  0  0  0  0  0  0  0  0  0
    3.1870   65.2220   64.9110 C   0  0  0  0  0  0  0  0  0  0  0  0
    3.9430   65.6280   63.8090 C   0  0  0  0  0  0  0  0  0  0  0  0
    3.7410   66.9260   63.3280 C   0  0  0  0  0  0  0  0  0  0  0  0
    2.8170   67.8090   63.9030 C   0  0  0  0  0  0  0  0  0  0  0  0
    4.4970   67.3980   62.1870 N   0  0  0  0  0  4  0  0  0  0  0  0
    5.6170   67.8790   62.4060 O   0  0  0  0  0  0  0  0  0  0  0  0
    3.9370   67.3330   61.0840 O   0  0  0  0  0  1  0  0  0  0  0  0
    4.8430   64.8400   63.1500 O   0  0  0  0  0  0  0  0  0  0  0  0
    5.0620   63.5240   63.6480 C   0  0  0  0  0  0  0  0  0  0  0  0
    3.8282   71.0281   70.2258 H   0  0  0  0  0  0  0  0  0  0  0  0
    1.7092   69.9437   69.4854 H   0  0  0  0  0  0  0  0  0  0  0  0
    3.4817   69.0727   65.6349 H   0  0  0  0  0  0  0  0  0  0  0  0
    6.4874   70.9119   70.6745 H   0  0  0  0  0  0  0  0  0  0  0  0
    6.8067   69.5297   69.5725 H   0  0  0  0  0  0  0  0  0  0  0  0
    7.9054   70.9508   69.5725 H   0  0  0  0  0  0  0  0  0  0  0  0
    1.6740   65.7560   66.3747 H   0  0  0  0  0  0  0  0  0  0  0  0
    3.3198   64.2087   65.3180 H   0  0  0  0  0  0  0  0  0  0  0  0
    2.6831   68.8205   63.4921 H   0  0  0  0  0  0  0  0  0  0  0  0
    5.0589   63.5429   64.7478 H   0  0  0  0  0  0  0  0  0  0  0  0
    4.2622   62.8588   63.2904 H   0  0  0  0  0  0  0  0  0  0  0  0
    6.0341   63.1537   63.2904 H   0  0  0  0  0  0  0  0  0  0  0  0
  2  1  2  0
  4  3  2  0
  5  4  1  0
  6  5  2  0
  6  1  1  0
  7  6  1  0
  8  7  2  0
  8  3  1  0
  9  8  1  0
 10  9  2  0
 11  9  1  0
 13  3  1  0
 13 12  1  0
 14  1  1  0
 15 14  2  0
 16 14  1  0
 17 16  2  0
 18 17  1  0
 19 18  2  0
 20 19  1  0
 21 20  2  0
 21 16  1  0
 22 20  1  0
 23 22  2  0
 24 22  1  0
 25 19  1  0
 26 25  1  0
  4 27  1  0
  5 28  1  0
  7 29  1  0
 12 30  1  0
 12 31  1  0
 12 32  1  0
 17 33  1  0
 18 34  1  0
 21 35  1  0
 26 36  1  0
 26 37  1  0
 26 38  1  0
M  CHG  4   9   1  11  -1  22   1  24  -1
M  END
>  <score>  (5) 
-9.287

$$$$
=
     RDKit          3D

 38 39  0  0  0  0  0  0  0  0999 V2000
    1.1420   68.3970   65.7210 C   0  0  0  0  0  0  0  0  0  0  0  0
    0.1960   68.8550   65.0910 O   0  0  0  0  0  0  0  0  0  0  0  0
    3.9230   65.6900   63.8150 C   0  0  0  0  0  0  0  0  0  0  0  0
    3.2020   65.2780   64.9390 C   0  0  0  0  0  0  0  0  0  0  0  0
    2.2960   66.1470   65.5690 C   0  0  0  0  0  0  0  0  0  0  0  0
    2.0990   67.4490   65.0910 C   0  0  0  0  0  0  0  0  0  0  0  0
    2.8130   67.8770   63.9690 C   0  0  0  0  0  0  0  0  0  0  0  0
    3.7050   66.9920   63.3510 C   0  0  0  0  0  0  0  0  0  0  0  0
    4.4130   67.4630   62.1820 N   0  0  0  0  0  4  0  0  0  0  0  0
    5.5920   67.8050   62.3430 O   0  0  0  0  0  0  0  0  0  0  0  0
    3.7690   67.5420   61.1270 O   0  0  0  0  0  1  0  0  0  0  0  0
    5.0200   63.5820   63.5780 C   0  0  0  0  0  0  0  0  0  0  0  0
    4.8320   64.9240   63.1450 O   0  0  0  0  0  0  0  0  0  0  0  0
    1.3010   68.7940   67.1710 C   0  0  0  0  0  0  0  0  0  0  0  0
    0.3720   68.5760   67.9400 O   0  0  0  0  0  0  0  0  0  0  0  0
    2.5470   69.4590   67.6390 C   0  0  0  0  0  0  0  0  0  0  0  0
    2.6820   69.9880   68.9280 C   0  0  0  0  0  0  0  0  0  0  0  0
    3.8830   70.5950   69.3340 C   0  0  0  0  0  0  0  0  0  0  0  0
    4.9700   70.6850   68.4610 C   0  0  0  0  0  0  0  0  0  0  0  0
    4.8120   70.1530   67.1760 C   0  0  0  0  0  0  0  0  0  0  0  0
    3.6250   69.5400   66.7520 C   0  0  0  0  0  0  0  0  0  0  0  0
    5.9060   70.2180   66.2300 N   0  0  0  0  0  4  0  0  0  0  0  0
    6.4760   71.3090   66.0930 O   0  0  0  0  0  0  0  0  0  0  0  0
    6.1500   69.1860   65.5910 O   0  0  0  0  0  1  0  0  0  0  0  0
    6.1820   71.2270   68.7790 O   0  0  0  0  0  0  0  0  0  0  0  0
    6.9320   70.6100   69.8200 C   0  0  0  0  0  0  0  0  0  0  0  0
    3.3456   64.2618   65.3348 H   0  0  0  0  0  0  0  0  0  0  0  0
    1.7340   65.8008   66.4489 H   0  0  0  0  0  0  0  0  0  0  0  0
    2.6763   68.8954   63.5764 H   0  0  0  0  0  0  0  0  0  0  0  0
    5.0247   63.5487   64.6775 H   0  0  0  0  0  0  0  0  0  0  0  0
    4.2009   62.9552   63.1957 H   0  0  0  0  0  0  0  0  0  0  0  0
    5.9798   63.2044   63.1957 H   0  0  0  0  0  0  0  0  0  0  0  0
    1.8384   69.9280   69.6313 H   0  0  0  0  0  0  0  0  0  0  0  0
    3.9681   71.0042   70.3515 H   0  0  0  0  0  0  0  0  0  0  0  0
    3.5425   69.1282   65.7353 H   0  0  0  0  0  0  0  0  0  0  0  0
    6.5395   70.9329   70.7956 H   0  0  0  0  0  0  0  0  0  0  0  0
    6.8474   69.5166   69.7344 H   0  0  0  0  0  0  0  0  0  0  0  0
    7.9886   70.9038   69.7344 H   0  0  0  0  0  0  0  0  0  0  0  0
  2  1  2  0
  4  3  2  0
  5  4  1  0
  6  5  2  0
  6  1  1  0
  7  6  1  0
  8  7  2  0
  8  3  1  0
  9  8  1  0
 10  9  2  0
 11  9  1  0
 13  3  1  0
 13 12  1  0
 14  1  1  0
 15 14  2  0
 16 14  1  0
 17 16  2  0
 18 17  1  0
 19 18  2  0
 20 19  1  0
 21 20  2  0
 21 16  1  0
 22 20  1  0
 23 22  2  0
 24 22  1  0
 25 19  1  0
 26 25  1  0
  4 27  1  0
  5 28  1  0
  7 29  1  0
 12 30  1  0
 12 31  1  0
 12 32  1  0
 17 33  1  0
 18 34  1  0
 21 35  1  0
 26 36  1  0
 26 37  1  0
 26 38  1  0
M  CHG  4   9   1  11  -1  22   1  24  -1
M  END
>  <score>  (6) 
-9.26

$$$$
=
     RDKit          3D

 38 39  0  0  0  0  0  0  0  0999 V2000
    4.5050   69.9500   67.5490 C   0  0  0  0  0  0  0  0  0  0  0  0
    5.6080   70.2120   68.0160 O   0  0  0  0  0  0  0  0  0  0  0  0
    4.0320   68.4040   63.5390 C   0  0  0  0  0  0  0  0  0  0  0  0
    5.0430   69.3260   63.8200 C   0  0  0  0  0  0  0  0  0  0  0  0
    5.2090   69.8380   65.1180 C   0  0  0  0  0  0  0  0  0  0  0  0
    4.3590   69.4420   66.1590 C   0  0  0  0  0  0  0  0  0  0  0  0
    3.3410   68.5220   65.8950 C   0  0  0  0  0  0  0  0  0  0  0  0
    3.2000   68.0190   64.5960 C   0  0  0  0  0  0  0  0  0  0  0  0
    2.1470   67.0560   64.3620 N   0  0  0  0  0  4  0  0  0  0  0  0
    1.0460   67.5040   64.0150 O   0  0  0  0  0  0  0  0  0  0  0  0
    2.4120   65.8660   64.5840 O   0  0  0  0  0  1  0  0  0  0  0  0
    3.1870   68.6970   61.3240 C   0  0  0  0  0  0  0  0  0  0  0  0
    3.7850   67.8630   62.3100 O   0  0  0  0  0  0  0  0  0  0  0  0
    3.2850   70.1840   68.4100 C   0  0  0  0  0  0  0  0  0  0  0  0
    3.3070   71.1110   69.2130 O   0  0  0  0  0  0  0  0  0  0  0  0
    2.1020   69.2880   68.3020 C   0  0  0  0  0  0  0  0  0  0  0  0
    1.0470   69.5350   67.4160 C   0  0  0  0  0  0  0  0  0  0  0  0
   -0.0460   68.6540   67.3340 C   0  0  0  0  0  0  0  0  0  0  0  0
   -0.1030   67.5120   68.1370 C   0  0  0  0  0  0  0  0  0  0  0  0
    0.9600   67.2860   69.0180 C   0  0  0  0  0  0  0  0  0  0  0  0
    2.0600   68.1500   69.1120 C   0  0  0  0  0  0  0  0  0  0  0  0
    0.9520   66.1170   69.8720 N   0  0  0  0  0  4  0  0  0  0  0  0
    0.2510   66.1620   70.8920 O   0  0  0  0  0  0  0  0  0  0  0  0
    1.6940   65.1830   69.5420 O   0  0  0  0  0  1  0  0  0  0  0  0
   -1.1070   66.5860   68.1020 O   0  0  0  0  0  0  0  0  0  0  0  0
   -2.3030   66.9300   67.4120 C   0  0  0  0  0  0  0  0  0  0  0  0
    5.7172   69.6552   63.0156 H   0  0  0  0  0  0  0  0  0  0  0  0
    6.0158   70.5582   65.3192 H   0  0  0  0  0  0  0  0  0  0  0  0
    2.6604   68.1977   66.6960 H   0  0  0  0  0  0  0  0  0  0  0  0
    2.6142   69.4958   61.8178 H   0  0  0  0  0  0  0  0  0  0  0  0
    3.9722   69.1433   60.6960 H   0  0  0  0  0  0  0  0  0  0  0  0
    2.5124   68.0966   60.6960 H   0  0  0  0  0  0  0  0  0  0  0  0
    1.0732   70.4292   66.7760 H   0  0  0  0  0  0  0  0  0  0  0  0
   -0.8645   68.8661   66.6304 H   0  0  0  0  0  0  0  0  0  0  0  0
    2.8791   67.9350   69.8140 H   0  0  0  0  0  0  0  0  0  0  0  0
   -3.0945   67.1576   68.1412 H   0  0  0  0  0  0  0  0  0  0  0  0
   -2.1213   67.8123   66.7807 H   0  0  0  0  0  0  0  0  0  0  0  0
   -2.6178   66.0860   66.7807 H   0  0  0  0  0  0  0  0  0  0  0  0
  2  1  2  0
  4  3  2  0
  5  4  1  0
  6  5  2  0
  6  1  1  0
  7  6  1  0
  8  7  2  0
  8  3  1  0
  9  8  1  0
 10  9  2  0
 11  9  1  0
 13  3  1  0
 13 12  1  0
 14  1  1  0
 15 14  2  0
 16 14  1  0
 17 16  2  0
 18 17  1  0
 19 18  2  0
 20 19  1  0
 21 20  2  0
 21 16  1  0
 22 20  1  0
 23 22  2  0
 24 22  1  0
 25 19  1  0
 26 25  1  0
  4 27  1  0
  5 28  1  0
  7 29  1  0
 12 30  1  0
 12 31  1  0
 12 32  1  0
 17 33  1  0
 18 34  1  0
 21 35  1  0
 26 36  1  0
 26 37  1  0
 26 38  1  0
M  CHG  4   9   1  11  -1  22   1  24  -1
M  END
>  <score>  (7) 
-9.067

$$$$
=
     RDKit          3D

 38 39  0  0  0  0  0  0  0  0999 V2000
    3.2530   70.1600   68.4080 C   0  0  0  0  0  0  0  0  0  0  0  0
    3.2760   71.0910   69.2050 O   0  0  0  0  0  0  0  0  0  0  0  0
   -0.1190   67.4640   68.1780 C   0  0  0  0  0  0  0  0  0  0  0  0
   -0.0710   68.5970   67.3620 C   0  0  0  0  0  0  0  0  0  0  0  0
    1.0180   69.4830   67.4270 C   0  0  0  0  0  0  0  0  0  0  0  0
    2.0770   69.2550   68.3150 C   0  0  0  0  0  0  0  0  0  0  0  0
    2.0430   68.1270   69.1390 C   0  0  0  0  0  0  0  0  0  0  0  0
    0.9520   67.2530   69.0520 C   0  0  0  0  0  0  0  0  0  0  0  0
    0.9590   66.0880   69.9070 N   0  0  0  0  0  4  0  0  0  0  0  0
    0.2700   66.1430   70.9340 O   0  0  0  0  0  0  0  0  0  0  0  0
    1.6980   65.1500   69.5750 O   0  0  0  0  0  1  0  0  0  0  0  0
   -2.3720   66.9280   67.5920 C   0  0  0  0  0  0  0  0  0  0  0  0
   -1.1380   66.5560   68.1960 O   0  0  0  0  0  0  0  0  0  0  0  0
    4.4670   69.9290   67.5370 C   0  0  0  0  0  0  0  0  0  0  0  0
    5.5730   70.1880   67.9970 O   0  0  0  0  0  0  0  0  0  0  0  0
    4.3110   69.4290   66.1440 C   0  0  0  0  0  0  0  0  0  0  0  0
    5.1650   69.8150   65.1040 C   0  0  0  0  0  0  0  0  0  0  0  0
    4.9910   69.3060   63.8040 C   0  0  0  0  0  0  0  0  0  0  0  0
    3.9620   68.4040   63.5220 C   0  0  0  0  0  0  0  0  0  0  0  0
    3.1180   68.0360   64.5750 C   0  0  0  0  0  0  0  0  0  0  0  0
    3.2760   68.5270   65.8780 C   0  0  0  0  0  0  0  0  0  0  0  0
    2.0360   67.1030   64.3390 N   0  0  0  0  0  4  0  0  0  0  0  0
    0.9710   67.5650   63.9060 O   0  0  0  0  0  0  0  0  0  0  0  0
    2.2440   65.9210   64.6420 O   0  0  0  0  0  1  0  0  0  0  0  0
    3.7390   67.8360   62.3010 O   0  0  0  0  0  0  0  0  0  0  0  0
    3.2420   68.6720   61.2610 C   0  0  0  0  0  0  0  0  0  0  0  0
   -0.8946   68.7978   66.6610 H   0  0  0  0  0  0  0  0  0  0  0  0
    1.0390   70.3667   66.7723 H   0  0  0  0  0  0  0  0  0  0  0  0
    2.8617   67.9282   69.8462 H   0  0  0  0  0  0  0  0  0  0  0  0
   -3.1112   67.1509   68.3755 H   0  0  0  0  0  0  0  0  0  0  0  0
   -2.2200   67.8202   66.9669 H   0  0  0  0  0  0  0  0  0  0  0  0
   -2.7384   66.1004   66.9669 H   0  0  0  0  0  0  0  0  0  0  0  0
    5.9813   70.5243   65.3055 H   0  0  0  0  0  0  0  0  0  0  0  0
    5.6728   69.6217   63.0006 H   0  0  0  0  0  0  0  0  0  0  0  0
    2.5952   68.2072   66.6806 H   0  0  0  0  0  0  0  0  0  0  0  0
    2.7269   69.5384   61.7016 H   0  0  0  0  0  0  0  0  0  0  0  0
    4.0796   69.0207   60.6390 H   0  0  0  0  0  0  0  0  0  0  0  0
    2.5355   68.1028   60.6390 H   0  0  0  0  0  0  0  0  0  0  0  0
  2  1  2  0
  4  3  2  0
  5  4  1  0
  6  5  2  0
  6  1  1  0
  7  6  1  0
  8  7  2  0
  8  3  1  0
  9  8  1  0
 10  9  2  0
 11  9  1  0
 13  3  1  0
 13 12  1  0
 14  1  1  0
 15 14  2  0
 16 14  1  0
 17 16  2  0
 18 17  1  0
 19 18  2  0
 20 19  1  0
 21 20  2  0
 21 16  1  0
 22 20  1  0
 23 22  2  0
 24 22  1  0
 25 19  1  0
 26 25  1  0
  4 27  1  0
  5 28  1  0
  7 29  1  0
 12 30  1  0
 12 31  1  0
 12 32  1  0
 17 33  1  0
 18 34  1  0
 21 35  1  0
 26 36  1  0
 26 37  1  0
 26 38  1  0
M  CHG  4   9   1  11  -1  22   1  24  -1
M  END
>  <score>  (8) 
-9.025

$$$$
=
     RDKit          3D

 38 39  0  0  0  0  0  0  0  0999 V2000
    3.9390   59.6220   71.2350 C   0  0  0  0  0  0  0  0  0  0  0  0
    4.1260   59.1500   70.1200 O   0  0  0  0  0  0  0  0  0  0  0  0
    2.1310   57.3140   74.4140 C   0  0  0  0  0  0  0  0  0  0  0  0
    1.6910   57.1590   73.0970 C   0  0  0  0  0  0  0  0  0  0  0  0
    2.2680   57.9030   72.0540 C   0  0  0  0  0  0  0  0  0  0  0  0
    3.2930   58.8230   72.3100 C   0  0  0  0  0  0  0  0  0  0  0  0
    3.7450   58.9910   73.6220 C   0  0  0  0  0  0  0  0  0  0  0  0
    3.1610   58.2340   74.6440 C   0  0  0  0  0  0  0  0  0  0  0  0
    3.6640   58.4210   75.9860 N   0  0  0  0  0  4  0  0  0  0  0  0
    3.2290   59.3940   76.6170 O   0  0  0  0  0  0  0  0  0  0  0  0
    4.5330   57.6290   76.3780 O   0  0  0  0  0  1  0  0  0  0  0  0
    1.4830   55.2360   75.3960 C   0  0  0  0  0  0  0  0  0  0  0  0
    1.6240   56.6490   75.4920 O   0  0  0  0  0  0  0  0  0  0  0  0
    4.3540   61.0530   71.4900 C   0  0  0  0  0  0  0  0  0  0  0  0
    5.4910   61.2670   71.8950 O   0  0  0  0  0  0  0  0  0  0  0  0
    3.3890   62.1660   71.2810 C   0  0  0  0  0  0  0  0  0  0  0  0
    3.6230   63.2080   70.3750 C   0  0  0  0  0  0  0  0  0  0  0  0
    2.6770   64.2330   70.1980 C   0  0  0  0  0  0  0  0  0  0  0  0
    1.4820   64.2360   70.9220 C   0  0  0  0  0  0  0  0  0  0  0  0
    1.2710   63.1880   71.8240 C   0  0  0  0  0  0  0  0  0  0  0  0
    2.1980   62.1540   72.0140 C   0  0  0  0  0  0  0  0  0  0  0  0
    0.0490   63.1400   72.6000 N   0  0  0  0  0  4  0  0  0  0  0  0
    0.0040   63.8210   73.6330 O   0  0  0  0  0  0  0  0  0  0  0  0
   -0.8370   62.3760   72.1950 O   0  0  0  0  0  1  0  0  0  0  0  0
    0.4950   65.1700   70.7910 O   0  0  0  0  0  0  0  0  0  0  0  0
    0.7860   66.3410   70.0350 C   0  0  0  0  0  0  0  0  0  0  0  0
    0.8834   56.4462   72.8740 H   0  0  0  0  0  0  0  0  0  0  0  0
    1.9104   57.7613   71.0235 H   0  0  0  0  0  0  0  0  0  0  0  0
    4.5481   59.7079   73.8479 H   0  0  0  0  0  0  0  0  0  0  0  0
    1.4397   54.8024   76.4060 H   0  0  0  0  0  0  0  0  0  0  0  0
    0.5564   54.9960   74.8539 H   0  0  0  0  0  0  0  0  0  0  0  0
    2.3439   54.8176   74.8539 H   0  0  0  0  0  0  0  0  0  0  0  0
    4.5576   63.2247   69.7952 H   0  0  0  0  0  0  0  0  0  0  0  0
    2.8801   65.0421   69.4810 H   0  0  0  0  0  0  0  0  0  0  0  0
    1.9916   61.3445   72.7296 H   0  0  0  0  0  0  0  0  0  0  0  0
    0.9937   67.1769   70.7192 H   0  0  0  0  0  0  0  0  0  0  0  0
    1.6662   66.1588   69.4009 H   0  0  0  0  0  0  0  0  0  0  0  0
   -0.0771   66.5920   69.4009 H   0  0  0  0  0  0  0  0  0  0  0  0
  2  1  2  0
  4  3  2  0
  5  4  1  0
  6  5  2  0
  6  1  1  0
  7  6  1  0
  8  7  2  0
  8  3  1  0
  9  8  1  0
 10  9  2  0
 11  9  1  0
 13  3  1  0
 13 12  1  0
 14  1  1  0
 15 14  2  0
 16 14  1  0
 17 16  2  0
 18 17  1  0
 19 18  2  0
 20 19  1  0
 21 20  2  0
 21 16  1  0
 22 20  1  0
 23 22  2  0
 24 22  1  0
 25 19  1  0
 26 25  1  0
  4 27  1  0
  5 28  1  0
  7 29  1  0
 12 30  1  0
 12 31  1  0
 12 32  1  0
 17 33  1  0
 18 34  1  0
 21 35  1  0
 26 36  1  0
 26 37  1  0
 26 38  1  0
M  CHG  4   9   1  11  -1  22   1  24  -1
M  END
>  <score>  (9) 
-7.991

$$$$
