=
     RDKit          3D

 32 34  0  0  0  0  0  0  0  0999 V2000
    7.0030   70.7920   68.7510 C   0  0  0  0  0  0  0  0  0  0  0  0
    7.5820   70.6190   67.6850 O   0  0  0  0  0  0  0  0  0  0  0  0
    5.6750   70.5890   68.9820 N   0  0  0  0  0  0  0  0  0  0  0  0
    4.8050   70.1510   68.0240 C   0  0  0  0  0  0  0  0  0  0  0  0
    5.1650   69.8660   66.7310 N   0  0  0  0  0  0  0  0  0  0  0  0
    4.0450   69.4540   66.0550 C   0  0  0  0  0  0  0  0  0  0  0  0
    3.0350   69.5130   67.0100 C   0  0  0  0  0  0  0  0  0  0  0  0
    3.5230   69.9470   68.2190 N   0  0  0  0  0  0  0  0  0  0  0  0
    1.7290   69.1470   66.6580 C   0  0  0  0  0  0  0  0  0  0  0  0
    1.4850   68.7470   65.3340 C   0  0  0  0  0  0  0  0  0  0  0  0
    2.5310   68.6790   64.3990 C   0  0  0  0  0  0  0  0  0  0  0  0
    3.8390   69.0390   64.7400 C   0  0  0  0  0  0  0  0  0  0  0  0
    7.4340   70.3360   71.0050 C   0  0  0  0  0  0  0  0  0  0  0  0
    7.5960   71.2200   69.8940 O   0  0  0  0  0  0  0  0  0  0  0  0
    0.1220   68.3350   64.9000 C   0  0  0  0  0  0  0  0  0  0  0  0
   -0.0880   68.3310   63.6870 O   0  0  0  0  0  0  0  0  0  0  0  0
   -0.8750   67.9890   65.9060 C   0  0  0  0  0  0  0  0  0  0  0  0
   -0.7910   67.1320   66.9900 C   0  0  0  0  0  0  0  0  0  0  0  0
   -2.0020   67.0760   67.7410 C   0  0  0  0  0  0  0  0  0  0  0  0
   -2.9700   67.9030   67.2190 C   0  0  0  0  0  0  0  0  0  0  0  0
   -2.4170   68.7430   65.8390 S   0  0  0  0  0  0  0  0  0  0  0  0
    5.3089   70.7752   69.9266 H   0  0  0  0  0  0  0  0  0  0  0  0
    6.1128   69.9474   66.3362 H   0  0  0  0  0  0  0  0  0  0  0  0
    0.9164   69.1723   67.3990 H   0  0  0  0  0  0  0  0  0  0  0  0
    2.3169   68.3351   63.3763 H   0  0  0  0  0  0  0  0  0  0  0  0
    4.6608   68.9969   64.0100 H   0  0  0  0  0  0  0  0  0  0  0  0
    7.5378   70.9023   71.9423 H   0  0  0  0  0  0  0  0  0  0  0  0
    6.4363   69.8745   70.9640 H   0  0  0  0  0  0  0  0  0  0  0  0
    8.2032   69.5507   70.9640 H   0  0  0  0  0  0  0  0  0  0  0  0
    0.1115   66.5569   67.2443 H   0  0  0  0  0  0  0  0  0  0  0  0
   -2.1452   66.4466   68.6317 H   0  0  0  0  0  0  0  0  0  0  0  0
   -3.9803   68.0103   67.6407 H   0  0  0  0  0  0  0  0  0  0  0  0
  2  1  2  0
  3  1  1  0
  4  3  1  0
  5  4  1  0
  6  5  1  0
  7  6  2  0
  8  7  1  0
  8  4  2  0
  9  7  1  0
 10  9  2  0
 11 10  1  0
 12 11  2  0
 12  6  1  0
 14  1  1  0
 14 13  1  0
 15 10  1  0
 16 15  2  0
 17 15  1  0
 18 17  2  0
 19 18  1  0
 20 19  2  0
 21 20  1  0
 21 17  1  0
  3 22  1  0
  5 23  1  0
  9 24  1  0
 11 25  1  0
 12 26  1  0
 13 27  1  0
 13 28  1  0
 13 29  1  0
 18 30  1  0
 19 31  1  0
 20 32  1  0
M  END
>  <score>  (1) 
-8.467

$$$$
=
     RDKit          3D

 32 34  0  0  0  0  0  0  0  0999 V2000
    0.6820   69.0240   62.8880 C   0  0  0  0  0  0  0  0  0  0  0  0
   -0.5430   68.9990   62.9020 O   0  0  0  0  0  0  0  0  0  0  0  0
    1.5010   68.6260   63.9020 N   0  0  0  0  0  0  0  0  0  0  0  0
    1.0390   68.1320   65.0900 C   0  0  0  0  0  0  0  0  0  0  0  0
   -0.2900   67.9790   65.3950 N   0  0  0  0  0  0  0  0  0  0  0  0
   -0.3830   67.4580   66.6600 C   0  0  0  0  0  0  0  0  0  0  0  0
    0.9400   67.3180   67.0640 C   0  0  0  0  0  0  0  0  0  0  0  0
    1.8040   67.7410   66.0820 N   0  0  0  0  0  0  0  0  0  0  0  0
    1.2230   66.7970   68.3340 C   0  0  0  0  0  0  0  0  0  0  0  0
    0.1460   66.4500   69.1650 C   0  0  0  0  0  0  0  0  0  0  0  0
   -1.1790   66.5850   68.7190 C   0  0  0  0  0  0  0  0  0  0  0  0
   -1.4730   67.1010   67.4520 C   0  0  0  0  0  0  0  0  0  0  0  0
    2.6340   68.7060   61.6380 C   0  0  0  0  0  0  0  0  0  0  0  0
    1.4370   69.4590   61.8480 O   0  0  0  0  0  0  0  0  0  0  0  0
    0.3800   65.8810   70.5210 C   0  0  0  0  0  0  0  0  0  0  0  0
   -0.1230   66.4910   71.4640 O   0  0  0  0  0  0  0  0  0  0  0  0
    1.1900   64.6770   70.6610 C   0  0  0  0  0  0  0  0  0  0  0  0
    2.5610   64.5060   70.5690 C   0  0  0  0  0  0  0  0  0  0  0  0
    2.9610   63.1520   70.7770 C   0  0  0  0  0  0  0  0  0  0  0  0
    1.8870   62.3330   71.0370 C   0  0  0  0  0  0  0  0  0  0  0  0
    0.4110   63.1930   71.0360 S   0  0  0  0  0  0  0  0  0  0  0  0
    2.5193   68.7012   63.7664 H   0  0  0  0  0  0  0  0  0  0  0  0
   -1.0816   68.2149   64.7796 H   0  0  0  0  0  0  0  0  0  0  0  0
    2.2616   66.6635   68.6707 H   0  0  0  0  0  0  0  0  0  0  0  0
   -2.0032   66.2785   69.3799 H   0  0  0  0  0  0  0  0  0  0  0  0
   -2.5085   67.2186   67.1000 H   0  0  0  0  0  0  0  0  0  0  0  0
    3.0699   68.4318   62.6100 H   0  0  0  0  0  0  0  0  0  0  0  0
    2.3983   67.7932   61.0712 H   0  0  0  0  0  0  0  0  0  0  0  0
    3.3548   69.3137   61.0712 H   0  0  0  0  0  0  0  0  0  0  0  0
    3.2650   65.3246   70.3585 H   0  0  0  0  0  0  0  0  0  0  0  0
    4.0039   62.8047   70.7345 H   0  0  0  0  0  0  0  0  0  0  0  0
    1.9688   61.2520   71.2235 H   0  0  0  0  0  0  0  0  0  0  0  0
  2  1  2  0
  3  1  1  0
  4  3  1  0
  5  4  1  0
  6  5  1  0
  7  6  2  0
  8  7  1  0
  8  4  2  0
  9  7  1  0
 10  9  2  0
 11 10  1  0
 12 11  2  0
 12  6  1  0
 14  1  1  0
 14 13  1  0
 15 10  1  0
 16 15  2  0
 17 15  1  0
 18 17  2  0
 19 18  1  0
 20 19  2  0
 21 20  1  0
 21 17  1  0
  3 22  1  0
  5 23  1  0
  9 24  1  0
 11 25  1  0
 12 26  1  0
 13 27  1  0
 13 28  1  0
 13 29  1  0
 18 30  1  0
 19 31  1  0
 20 32  1  0
M  END
>  <score>  (2) 
-7.934

$$$$
=
     RDKit          3D

 32 34  0  0  0  0  0  0  0  0999 V2000
   -0.1530   66.5000   68.8500 C   0  0  0  0  0  0  0  0  0  0  0  0
    0.9240   66.8960   68.4220 O   0  0  0  0  0  0  0  0  0  0  0  0
   -0.3450   65.4120   69.6490 N   0  0  0  0  0  0  0  0  0  0  0  0
    0.6740   64.6120   70.0830 C   0  0  0  0  0  0  0  0  0  0  0  0
    1.9950   64.8100   69.7700 N   0  0  0  0  0  0  0  0  0  0  0  0
    2.7320   63.8240   70.3750 C   0  0  0  0  0  0  0  0  0  0  0  0
    1.7840   63.0590   71.0460 C   0  0  0  0  0  0  0  0  0  0  0  0
    0.5180   63.5590   70.8520 N   0  0  0  0  0  0  0  0  0  0  0  0
    2.1950   61.9460   71.7910 C   0  0  0  0  0  0  0  0  0  0  0  0
    3.5640   61.6330   71.8180 C   0  0  0  0  0  0  0  0  0  0  0  0
    4.4990   62.4380   71.1460 C   0  0  0  0  0  0  0  0  0  0  0  0
    4.0990   63.5530   70.4010 C   0  0  0  0  0  0  0  0  0  0  0  0
   -1.6650   67.2030   67.2090 C   0  0  0  0  0  0  0  0  0  0  0  0
   -1.3510   67.0860   68.5980 O   0  0  0  0  0  0  0  0  0  0  0  0
    4.0670   60.4700   72.6000 C   0  0  0  0  0  0  0  0  0  0  0  0
    5.1260   60.6350   73.2050 O   0  0  0  0  0  0  0  0  0  0  0  0
    3.3110   59.2230   72.5920 C   0  0  0  0  0  0  0  0  0  0  0  0
    3.1000   58.3130   71.5700 C   0  0  0  0  0  0  0  0  0  0  0  0
    2.2980   57.2070   71.9770 C   0  0  0  0  0  0  0  0  0  0  0  0
    1.9330   57.2960   73.3010 C   0  0  0  0  0  0  0  0  0  0  0  0
    2.5600   58.7000   74.0450 S   0  0  0  0  0  0  0  0  0  0  0  0
   -1.3059   65.1818   69.9398 H   0  0  0  0  0  0  0  0  0  0  0  0
    2.3689   65.5685   69.1820 H   0  0  0  0  0  0  0  0  0  0  0  0
    1.4649   61.3334   72.3403 H   0  0  0  0  0  0  0  0  0  0  0  0
    5.5681   62.1865   71.2068 H   0  0  0  0  0  0  0  0  0  0  0  0
    4.8246   64.1820   69.8645 H   0  0  0  0  0  0  0  0  0  0  0  0
   -2.6903   67.5850   67.0958 H   0  0  0  0  0  0  0  0  0  0  0  0
   -0.9596   67.8986   66.7309 H   0  0  0  0  0  0  0  0  0  0  0  0
   -1.5868   66.2154   66.7309 H   0  0  0  0  0  0  0  0  0  0  0  0
    3.5068   58.4307   70.5548 H   0  0  0  0  0  0  0  0  0  0  0  0
    2.0057   56.3809   71.3121 H   0  0  0  0  0  0  0  0  0  0  0  0
    1.3110   56.5511   73.8189 H   0  0  0  0  0  0  0  0  0  0  0  0
  2  1  2  0
  3  1  1  0
  4  3  1  0
  5  4  1  0
  6  5  1  0
  7  6  2  0
  8  7  1  0
  8  4  2  0
  9  7  1  0
 10  9  2  0
 11 10  1  0
 12 11  2  0
 12  6  1  0
 14  1  1  0
 14 13  1  0
 15 10  1  0
 16 15  2  0
 17 15  1  0
 18 17  2  0
 19 18  1  0
 20 19  2  0
 21 20  1  0
 21 17  1  0
  3 22  1  0
  5 23  1  0
  9 24  1  0
 11 25  1  0
 12 26  1  0
 13 27  1  0
 13 28  1  0
 13 29  1  0
 18 30  1  0
 19 31  1  0
 20 32  1  0
M  END
>  <score>  (3) 
-7.726

$$$$
=
     RDKit          3D

 32 34  0  0  0  0  0  0  0  0999 V2000
   -0.1530   67.3550   68.2200 C   0  0  0  0  0  0  0  0  0  0  0  0
   -1.2750   66.9200   68.4520 O   0  0  0  0  0  0  0  0  0  0  0  0
    1.0180   66.8290   68.6770 N   0  0  0  0  0  0  0  0  0  0  0  0
    1.0830   65.7170   69.4690 C   0  0  0  0  0  0  0  0  0  0  0  0
   -0.0130   65.0080   69.8910 N   0  0  0  0  0  0  0  0  0  0  0  0
    0.4230   63.9620   70.6620 C   0  0  0  0  0  0  0  0  0  0  0  0
    1.8070   64.0990   70.6620 C   0  0  0  0  0  0  0  0  0  0  0  0
    2.1960   65.1890   69.9230 N   0  0  0  0  0  0  0  0  0  0  0  0
    2.5930   63.1750   71.3660 C   0  0  0  0  0  0  0  0  0  0  0  0
    1.9430   62.1450   72.0640 C   0  0  0  0  0  0  0  0  0  0  0  0
    0.5430   62.0220   72.0270 C   0  0  0  0  0  0  0  0  0  0  0  0
   -0.2500   62.9370   71.3260 C   0  0  0  0  0  0  0  0  0  0  0  0
   -1.0420   69.0480   66.8730 C   0  0  0  0  0  0  0  0  0  0  0  0
    0.1140   68.4460   67.4590 O   0  0  0  0  0  0  0  0  0  0  0  0
    2.7200   61.1250   72.8200 C   0  0  0  0  0  0  0  0  0  0  0  0
    3.3570   61.5330   73.7920 O   0  0  0  0  0  0  0  0  0  0  0  0
    2.7080   59.7380   72.3710 C   0  0  0  0  0  0  0  0  0  0  0  0
    2.0170   58.6450   72.8650 C   0  0  0  0  0  0  0  0  0  0  0  0
    2.2800   57.4510   72.1290 C   0  0  0  0  0  0  0  0  0  0  0  0
    3.1510   57.6710   71.0880 C   0  0  0  0  0  0  0  0  0  0  0  0
    3.6410   59.3040   70.9950 S   0  0  0  0  0  0  0  0  0  0  0  0
    1.8987   67.2929   68.4122 H   0  0  0  0  0  0  0  0  0  0  0  0
   -0.9948   65.2245   69.6670 H   0  0  0  0  0  0  0  0  0  0  0  0
    3.6901   63.2553   71.3710 H   0  0  0  0  0  0  0  0  0  0  0  0
    0.0611   61.1892   72.5602 H   0  0  0  0  0  0  0  0  0  0  0  0
   -1.3464   62.8523   71.3000 H   0  0  0  0  0  0  0  0  0  0  0  0
   -1.7158   69.3989   67.6685 H   0  0  0  0  0  0  0  0  0  0  0  0
   -0.7352   69.9009   66.2497 H   0  0  0  0  0  0  0  0  0  0  0  0
   -1.5649   68.3076   66.2497 H   0  0  0  0  0  0  0  0  0  0  0  0
    1.3393   58.6917   73.7302 H   0  0  0  0  0  0  0  0  0  0  0  0
    1.8387   56.4717   72.3661 H   0  0  0  0  0  0  0  0  0  0  0  0
    3.4922   56.8868   70.3962 H   0  0  0  0  0  0  0  0  0  0  0  0
  2  1  2  0
  3  1  1  0
  4  3  1  0
  5  4  1  0
  6  5  1  0
  7  6  2  0
  8  7  1  0
  8  4  2  0
  9  7  1  0
 10  9  2  0
 11 10  1  0
 12 11  2  0
 12  6  1  0
 14  1  1  0
 14 13  1  0
 15 10  1  0
 16 15  2  0
 17 15  1  0
 18 17  2  0
 19 18  1  0
 20 19  2  0
 21 20  1  0
 21 17  1  0
  3 22  1  0
  5 23  1  0
  9 24  1  0
 11 25  1  0
 12 26  1  0
 13 27  1  0
 13 28  1  0
 13 29  1  0
 18 30  1  0
 19 31  1  0
 20 32  1  0
M  END
>  <score>  (4) 
-7.639

$$$$
=
     RDKit          3D

 32 34  0  0  0  0  0  0  0  0999 V2000
    6.6100   71.3210   68.0100 C   0  0  0  0  0  0  0  0  0  0  0  0
    6.7880   71.0170   66.8360 O   0  0  0  0  0  0  0  0  0  0  0  0
    5.5180   71.0040   68.7620 N   0  0  0  0  0  0  0  0  0  0  0  0
    4.4600   70.2840   68.2820 C   0  0  0  0  0  0  0  0  0  0  0  0
    4.3770   69.8000   67.0000 N   0  0  0  0  0  0  0  0  0  0  0  0
    3.1880   69.1300   66.8710 C   0  0  0  0  0  0  0  0  0  0  0  0
    2.5980   69.2470   68.1250 C   0  0  0  0  0  0  0  0  0  0  0  0
    3.3970   69.9650   68.9820 N   0  0  0  0  0  0  0  0  0  0  0  0
    1.3460   68.6610   68.3570 C   0  0  0  0  0  0  0  0  0  0  0  0
    0.7220   67.9850   67.2970 C   0  0  0  0  0  0  0  0  0  0  0  0
    1.3540   67.8670   66.0480 C   0  0  0  0  0  0  0  0  0  0  0  0
    2.6040   68.4460   65.8060 C   0  0  0  0  0  0  0  0  0  0  0  0
    8.1140   71.2750   69.8020 C   0  0  0  0  0  0  0  0  0  0  0  0
    7.4830   72.0320   68.7680 O   0  0  0  0  0  0  0  0  0  0  0  0
   -0.6030   67.3320   67.4820 C   0  0  0  0  0  0  0  0  0  0  0  0
   -0.6250   66.3350   68.2050 O   0  0  0  0  0  0  0  0  0  0  0  0
   -1.7710   67.8760   66.7990 C   0  0  0  0  0  0  0  0  0  0  0  0
   -3.1190   67.6990   67.0560 C   0  0  0  0  0  0  0  0  0  0  0  0
   -3.9500   68.4190   66.1480 C   0  0  0  0  0  0  0  0  0  0  0  0
   -3.2130   69.1360   65.2340 C   0  0  0  0  0  0  0  0  0  0  0  0
   -1.5330   68.9460   65.4770 S   0  0  0  0  0  0  0  0  0  0  0  0
    5.4888   71.3230   69.7409 H   0  0  0  0  0  0  0  0  0  0  0  0
    5.0858   69.9196   66.2623 H   0  0  0  0  0  0  0  0  0  0  0  0
    0.8651   68.7291   69.3440 H   0  0  0  0  0  0  0  0  0  0  0  0
    0.8552   67.3073   65.2431 H   0  0  0  0  0  0  0  0  0  0  0  0
    3.0998   68.3659   64.8274 H   0  0  0  0  0  0  0  0  0  0  0  0
    7.7953   71.6573   70.7829 H   0  0  0  0  0  0  0  0  0  0  0  0
    7.8264   70.2173   69.7097 H   0  0  0  0  0  0  0  0  0  0  0  0
    9.2062   71.3674   69.7097 H   0  0  0  0  0  0  0  0  0  0  0  0
   -3.5072   67.0714   67.8717 H   0  0  0  0  0  0  0  0  0  0  0  0
   -5.0495   68.4030   66.1751 H   0  0  0  0  0  0  0  0  0  0  0  0
   -3.6534   69.7579   64.4407 H   0  0  0  0  0  0  0  0  0  0  0  0
  2  1  2  0
  3  1  1  0
  4  3  1  0
  5  4  1  0
  6  5  1  0
  7  6  2  0
  8  7  1  0
  8  4  2  0
  9  7  1  0
 10  9  2  0
 11 10  1  0
 12 11  2  0
 12  6  1  0
 14  1  1  0
 14 13  1  0
 15 10  1  0
 16 15  2  0
 17 15  1  0
 18 17  2  0
 19 18  1  0
 20 19  2  0
 21 20  1  0
 21 17  1  0
  3 22  1  0
  5 23  1  0
  9 24  1  0
 11 25  1  0
 12 26  1  0
 13 27  1  0
 13 28  1  0
 13 29  1  0
 18 30  1  0
 19 31  1  0
 20 32  1  0
M  END
>  <score>  (5) 
-7.477

$$$$
=
     RDKit          3D

 32 34  0  0  0  0  0  0  0  0999 V2000
    0.8900   66.1860   70.0850 C   0  0  0  0  0  0  0  0  0  0  0  0
   -0.0840   66.1370   70.8270 O   0  0  0  0  0  0  0  0  0  0  0  0
    1.7890   65.1830   69.8780 N   0  0  0  0  0  0  0  0  0  0  0  0
    1.7070   63.9640   70.4900 C   0  0  0  0  0  0  0  0  0  0  0  0
    0.7170   63.6120   71.3740 N   0  0  0  0  0  0  0  0  0  0  0  0
    0.9490   62.3250   71.7850 C   0  0  0  0  0  0  0  0  0  0  0  0
    2.1030   61.9550   71.1030 C   0  0  0  0  0  0  0  0  0  0  0  0
    2.5580   62.9810   70.3100 N   0  0  0  0  0  0  0  0  0  0  0  0
    2.6330   60.6710   71.2870 C   0  0  0  0  0  0  0  0  0  0  0  0
    1.9790   59.8030   72.1760 C   0  0  0  0  0  0  0  0  0  0  0  0
    0.8030   60.2000   72.8340 C   0  0  0  0  0  0  0  0  0  0  0  0
    0.2640   61.4780   72.6560 C   0  0  0  0  0  0  0  0  0  0  0  0
    0.3710   67.5110   68.2270 C   0  0  0  0  0  0  0  0  0  0  0  0
    1.2390   67.2620   69.3350 O   0  0  0  0  0  0  0  0  0  0  0  0
    2.4850   58.4220   72.4060 C   0  0  0  0  0  0  0  0  0  0  0  0
    3.4560   58.0760   71.7330 O   0  0  0  0  0  0  0  0  0  0  0  0
    1.8100   57.5650   73.3730 C   0  0  0  0  0  0  0  0  0  0  0  0
    0.7270   56.7170   73.2130 C   0  0  0  0  0  0  0  0  0  0  0  0
    0.3730   56.0450   74.4210 C   0  0  0  0  0  0  0  0  0  0  0  0
    1.2030   56.3880   75.4620 C   0  0  0  0  0  0  0  0  0  0  0  0
    2.4040   57.5050   74.9840 S   0  0  0  0  0  0  0  0  0  0  0  0
    2.5695   65.3522   69.2276 H   0  0  0  0  0  0  0  0  0  0  0  0
   -0.0645   64.2112   71.6760 H   0  0  0  0  0  0  0  0  0  0  0  0
    3.5377   60.3514   70.7491 H   0  0  0  0  0  0  0  0  0  0  0  0
    0.2952   59.4903   73.5037 H   0  0  0  0  0  0  0  0  0  0  0  0
   -0.6514   61.7982   73.1752 H   0  0  0  0  0  0  0  0  0  0  0  0
   -0.6244   67.7966   68.5980 H   0  0  0  0  0  0  0  0  0  0  0  0
    0.7824   68.3274   67.6152 H   0  0  0  0  0  0  0  0  0  0  0  0
    0.2871   66.6007   67.6152 H   0  0  0  0  0  0  0  0  0  0  0  0
    0.1975   56.5768   72.2591 H   0  0  0  0  0  0  0  0  0  0  0  0
   -0.4642   55.3369   74.5089 H   0  0  0  0  0  0  0  0  0  0  0  0
    1.1052   55.9900   76.4828 H   0  0  0  0  0  0  0  0  0  0  0  0
  2  1  2  0
  3  1  1  0
  4  3  1  0
  5  4  1  0
  6  5  1  0
  7  6  2  0
  8  7  1  0
  8  4  2  0
  9  7  1  0
 10  9  2  0
 11 10  1  0
 12 11  2  0
 12  6  1  0
 14  1  1  0
 14 13  1  0
 15 10  1  0
 16 15  2  0
 17 15  1  0
 18 17  2  0
 19 18  1  0
 20 19  2  0
 21 20  1  0
 21 17  1  0
  3 22  1  0
  5 23  1  0
  9 24  1  0
 11 25  1  0
 12 26  1  0
 13 27  1  0
 13 28  1  0
 13 29  1  0
 18 30  1  0
 19 31  1  0
 20 32  1  0
M  END
>  <score>  (6) 
-7.359

$$$$
=
     RDKit          3D

 32 34  0  0  0  0  0  0  0  0999 V2000
    0.5690   67.6060   67.9730 C   0  0  0  0  0  0  0  0  0  0  0  0
    1.5470   67.1090   67.4270 O   0  0  0  0  0  0  0  0  0  0  0  0
    0.0150   67.1960   69.1490 N   0  0  0  0  0  0  0  0  0  0  0  0
    0.5020   66.1520   69.8840 C   0  0  0  0  0  0  0  0  0  0  0  0
    1.5970   65.4040   69.5270 N   0  0  0  0  0  0  0  0  0  0  0  0
    1.7970   64.4500   70.4910 C   0  0  0  0  0  0  0  0  0  0  0  0
    0.7810   64.6830   71.4110 C   0  0  0  0  0  0  0  0  0  0  0  0
   -0.0100   65.7360   71.0180 N   0  0  0  0  0  0  0  0  0  0  0  0
    0.6850   63.8770   72.5540 C   0  0  0  0  0  0  0  0  0  0  0  0
    1.6210   62.8430   72.7180 C   0  0  0  0  0  0  0  0  0  0  0  0
    2.6480   62.6470   71.7800 C   0  0  0  0  0  0  0  0  0  0  0  0
    2.7550   63.4470   70.6370 C   0  0  0  0  0  0  0  0  0  0  0  0
   -1.3920   68.3110   66.9100 C   0  0  0  0  0  0  0  0  0  0  0  0
   -0.1350   68.6620   67.4910 O   0  0  0  0  0  0  0  0  0  0  0  0
    1.5800   61.9590   73.9150 C   0  0  0  0  0  0  0  0  0  0  0  0
    1.4730   62.5200   75.0060 O   0  0  0  0  0  0  0  0  0  0  0  0
    1.6890   60.5150   73.7420 C   0  0  0  0  0  0  0  0  0  0  0  0
    0.8080   59.6150   73.1680 C   0  0  0  0  0  0  0  0  0  0  0  0
    1.2980   58.2760   73.1930 C   0  0  0  0  0  0  0  0  0  0  0  0
    2.5430   58.1940   73.7700 C   0  0  0  0  0  0  0  0  0  0  0  0
    3.1180   59.7230   74.2710 S   0  0  0  0  0  0  0  0  0  0  0  0
   -0.8123   67.6984   69.5013 H   0  0  0  0  0  0  0  0  0  0  0  0
    2.1693   65.5368   68.6810 H   0  0  0  0  0  0  0  0  0  0  0  0
   -0.1024   64.0499   73.3024 H   0  0  0  0  0  0  0  0  0  0  0  0
    3.3843   61.8471   71.9476 H   0  0  0  0  0  0  0  0  0  0  0  0
    3.5514   63.2932   69.8940 H   0  0  0  0  0  0  0  0  0  0  0  0
   -2.1209   68.1075   67.7083 H   0  0  0  0  0  0  0  0  0  0  0  0
   -1.7531   69.1427   66.2872 H   0  0  0  0  0  0  0  0  0  0  0  0
   -1.2700   67.4126   66.2872 H   0  0  0  0  0  0  0  0  0  0  0  0
   -0.1638   59.9012   72.7394 H   0  0  0  0  0  0  0  0  0  0  0  0
    0.7452   57.4112   72.7974 H   0  0  0  0  0  0  0  0  0  0  0  0
    3.1027   57.2553   73.8944 H   0  0  0  0  0  0  0  0  0  0  0  0
  2  1  2  0
  3  1  1  0
  4  3  1  0
  5  4  1  0
  6  5  1  0
  7  6  2  0
  8  7  1  0
  8  4  2  0
  9  7  1  0
 10  9  2  0
 11 10  1  0
 12 11  2  0
 12  6  1  0
 14  1  1  0
 14 13  1  0
 15 10  1  0
 16 15  2  0
 17 15  1  0
 18 17  2  0
 19 18  1  0
 20 19  2  0
 21 20  1  0
 21 17  1  0
  3 22  1  0
  5 23  1  0
  9 24  1  0
 11 25  1  0
 12 26  1  0
 13 27  1  0
 13 28  1  0
 13 29  1  0
 18 30  1  0
 19 31  1  0
 20 32  1  0
M  END
>  <score>  (7) 
-7.309

$$$$
=
     RDKit          3D

 32 34  0  0  0  0  0  0  0  0999 V2000
    0.4930   62.4840   72.1960 C   0  0  0  0  0  0  0  0  0  0  0  0
   -0.6520   62.4160   71.7630 O   0  0  0  0  0  0  0  0  0  0  0  0
    1.4140   63.4350   71.8750 N   0  0  0  0  0  0  0  0  0  0  0  0
    1.1630   64.4610   71.0090 C   0  0  0  0  0  0  0  0  0  0  0  0
   -0.0370   64.6520   70.3690 N   0  0  0  0  0  0  0  0  0  0  0  0
    0.0690   65.7710   69.5840 C   0  0  0  0  0  0  0  0  0  0  0  0
    1.3690   66.2130   69.8020 C   0  0  0  0  0  0  0  0  0  0  0  0
    2.0300   65.3900   70.6820 N   0  0  0  0  0  0  0  0  0  0  0  0
    1.8260   67.3650   69.1460 C   0  0  0  0  0  0  0  0  0  0  0  0
    0.9470   68.0260   68.2730 C   0  0  0  0  0  0  0  0  0  0  0  0
   -0.3670   67.5650   68.0910 C   0  0  0  0  0  0  0  0  0  0  0  0
   -0.8350   66.4180   68.7420 C   0  0  0  0  0  0  0  0  0  0  0  0
    0.6950   60.2440   72.8420 C   0  0  0  0  0  0  0  0  0  0  0  0
    1.0400   61.6100   73.0790 O   0  0  0  0  0  0  0  0  0  0  0  0
    1.3680   69.2610   67.5560 C   0  0  0  0  0  0  0  0  0  0  0  0
    0.8110   70.3060   67.8930 O   0  0  0  0  0  0  0  0  0  0  0  0
    2.3740   69.1690   66.5050 C   0  0  0  0  0  0  0  0  0  0  0  0
    3.7220   69.4850   66.5280 C   0  0  0  0  0  0  0  0  0  0  0  0
    4.3640   69.2440   65.2770 C   0  0  0  0  0  0  0  0  0  0  0  0
    3.4920   68.7370   64.3410 C   0  0  0  0  0  0  0  0  0  0  0  0
    1.9150   68.5490   64.9710 S   0  0  0  0  0  0  0  0  0  0  0  0
    2.3471   63.3774   72.3073 H   0  0  0  0  0  0  0  0  0  0  0  0
   -0.8726   64.0571   70.4626 H   0  0  0  0  0  0  0  0  0  0  0  0
    2.8465   67.7411   69.3110 H   0  0  0  0  0  0  0  0  0  0  0  0
   -1.0432   68.1176   67.4221 H   0  0  0  0  0  0  0  0  0  0  0  0
   -1.8604   66.0469   68.5974 H   0  0  0  0  0  0  0  0  0  0  0  0
    0.5643   59.7266   73.8039 H   0  0  0  0  0  0  0  0  0  0  0  0
   -0.2433   60.1968   72.2698 H   0  0  0  0  0  0  0  0  0  0  0  0
    1.4983   59.7569   72.2698 H   0  0  0  0  0  0  0  0  0  0  0  0
    4.2412   69.8789   67.4142 H   0  0  0  0  0  0  0  0  0  0  0  0
    5.4290   69.4401   65.0837 H   0  0  0  0  0  0  0  0  0  0  0  0
    3.7766   68.4828   63.3093 H   0  0  0  0  0  0  0  0  0  0  0  0
  2  1  2  0
  3  1  1  0
  4  3  1  0
  5  4  1  0
  6  5  1  0
  7  6  2  0
  8  7  1  0
  8  4  2  0
  9  7  1  0
 10  9  2  0
 11 10  1  0
 12 11  2  0
 12  6  1  0
 14  1  1  0
 14 13  1  0
 15 10  1  0
 16 15  2  0
 17 15  1  0
 18 17  2  0
 19 18  1  0
 20 19  2  0
 21 20  1  0
 21 17  1  0
  3 22  1  0
  5 23  1  0
  9 24  1  0
 11 25  1  0
 12 26  1  0
 13 27  1  0
 13 28  1  0
 13 29  1  0
 18 30  1  0
 19 31  1  0
 20 32  1  0
M  END
>  <score>  (8) 
-7.091

$$$$
=
     RDKit          3D

 32 34  0  0  0  0  0  0  0  0999 V2000
    2.5960   60.5460   73.4260 C   0  0  0  0  0  0  0  0  0  0  0  0
    1.6160   60.8300   74.1040 O   0  0  0  0  0  0  0  0  0  0  0  0
    3.0580   61.2510   72.3540 N   0  0  0  0  0  0  0  0  0  0  0  0
    2.4670   62.3950   71.8970 C   0  0  0  0  0  0  0  0  0  0  0  0
    1.3520   62.9630   72.4610 N   0  0  0  0  0  0  0  0  0  0  0  0
    1.0410   64.0940   71.7500 C   0  0  0  0  0  0  0  0  0  0  0  0
    2.0200   64.1520   70.7640 C   0  0  0  0  0  0  0  0  0  0  0  0
    2.8910   63.0940   70.8700 N   0  0  0  0  0  0  0  0  0  0  0  0
    2.0100   65.2070   69.8420 C   0  0  0  0  0  0  0  0  0  0  0  0
    0.9900   66.1670   69.9410 C   0  0  0  0  0  0  0  0  0  0  0  0
    0.0270   66.0910   70.9610 C   0  0  0  0  0  0  0  0  0  0  0  0
    0.0290   65.0430   71.8890 C   0  0  0  0  0  0  0  0  0  0  0  0
    3.3730   58.5120   72.5710 C   0  0  0  0  0  0  0  0  0  0  0  0
    3.3960   59.4700   73.6310 O   0  0  0  0  0  0  0  0  0  0  0  0
    0.9310   67.3180   68.9990 C   0  0  0  0  0  0  0  0  0  0  0  0
    1.8850   68.0960   69.0240 O   0  0  0  0  0  0  0  0  0  0  0  0
   -0.2320   67.4750   68.1340 C   0  0  0  0  0  0  0  0  0  0  0  0
   -1.4430   66.8030   68.1340 C   0  0  0  0  0  0  0  0  0  0  0  0
   -2.3270   67.2650   67.1140 C   0  0  0  0  0  0  0  0  0  0  0  0
   -1.7730   68.2850   66.3760 C   0  0  0  0  0  0  0  0  0  0  0  0
   -0.2020   68.6850   66.9150 S   0  0  0  0  0  0  0  0  0  0  0  0
    3.8947   60.9035   71.8641 H   0  0  0  0  0  0  0  0  0  0  0  0
    0.8376   62.6022   73.2772 H   0  0  0  0  0  0  0  0  0  0  0  0
    2.7810   65.2813   69.0610 H   0  0  0  0  0  0  0  0  0  0  0  0
   -0.7449   66.8715   71.0319 H   0  0  0  0  0  0  0  0  0  0  0  0
   -0.7270   64.9720   72.6849 H   0  0  0  0  0  0  0  0  0  0  0  0
    3.3486   57.4971   72.9945 H   0  0  0  0  0  0  0  0  0  0  0  0
    2.4784   58.6723   71.9513 H   0  0  0  0  0  0  0  0  0  0  0  0
    4.2742   58.6292   71.9513 H   0  0  0  0  0  0  0  0  0  0  0  0
   -1.6956   66.0008   68.8429 H   0  0  0  0  0  0  0  0  0  0  0  0
   -3.3323   66.8543   66.9386 H   0  0  0  0  0  0  0  0  0  0  0  0
   -2.2814   68.7841   65.5379 H   0  0  0  0  0  0  0  0  0  0  0  0
  2  1  2  0
  3  1  1  0
  4  3  1  0
  5  4  1  0
  6  5  1  0
  7  6  2  0
  8  7  1  0
  8  4  2  0
  9  7  1  0
 10  9  2  0
 11 10  1  0
 12 11  2  0
 12  6  1  0
 14  1  1  0
 14 13  1  0
 15 10  1  0
 16 15  2  0
 17 15  1  0
 18 17  2  0
 19 18  1  0
 20 19  2  0
 21 20  1  0
 21 17  1  0
  3 22  1  0
  5 23  1  0
  9 24  1  0
 11 25  1  0
 12 26  1  0
 13 27  1  0
 13 28  1  0
 13 29  1  0
 18 30  1  0
 19 31  1  0
 20 32  1  0
M  END
>  <score>  (9) 
-7.056

$$$$
