=
     RDKit          3D

 51 55  0  0  0  0  0  0  0  0999 V2000
    3.3330   63.4770   69.1690 O   0  0  0  0  0  0  0  0  0  0  0  0
    2.3850   63.4780   69.9270 C   0  0  0  0  0  0  0  0  0  0  0  0
    1.3740   64.5830   70.0940 C   0  0  0  0  0  0  0  0  0  0  0  0
    1.5120   65.7040   69.3660 C   0  0  0  0  0  0  0  0  0  0  0  0
    0.3680   64.1290   71.1220 C   0  0  0  0  0  0  0  0  0  0  0  0
    0.8270   62.7560   71.5120 C   0  0  0  0  0  0  0  0  0  0  0  0
    1.9970   62.3890   70.8240 C   0  0  0  0  0  0  0  0  0  0  0  0
    2.6330   61.1710   71.0010 C   0  0  0  0  0  0  0  0  0  0  0  0
    2.0360   60.3270   71.9130 C   0  0  0  0  0  0  0  0  0  0  0  0
    2.4800   59.0860   72.2480 O   0  0  0  0  0  0  0  0  0  0  0  0
    1.4970   58.6920   73.2270 C   0  0  0  0  0  0  0  0  0  0  0  0
    0.4750   59.6880   73.4470 O   0  0  0  0  0  0  0  0  0  0  0  0
    0.8840   60.6730   72.6010 C   0  0  0  0  0  0  0  0  0  0  0  0
    0.2470   61.8880   72.4260 C   0  0  0  0  0  0  0  0  0  0  0  0
    0.6910   66.9710   69.2520 C   0  0  0  0  0  0  0  0  0  0  0  0
    1.4870   67.9670   68.3770 C   0  0  0  0  0  0  0  0  0  0  0  0
    0.6010   69.0470   67.7830 C   0  0  0  0  0  0  0  0  0  0  0  0
   -0.4370   68.4270   66.8690 N   0  0  0  0  0  4  0  0  0  0  0  0
   -0.8640   67.0300   67.2640 C   0  0  0  0  0  0  0  0  0  0  0  0
   -0.7650   66.8660   68.7710 C   0  0  0  0  0  0  0  0  0  0  0  0
   -0.0730   68.4960   65.3960 C   0  0  0  0  0  0  0  0  0  0  0  0
    1.3410   68.0590   65.1220 C   0  0  0  0  0  0  0  0  0  0  0  0
    2.3640   69.0050   64.9640 C   0  0  0  0  0  0  0  0  0  0  0  0
    3.6690   68.5960   64.6880 C   0  0  0  0  0  0  0  0  0  0  0  0
    3.9670   67.2400   64.5700 C   0  0  0  0  0  0  0  0  0  0  0  0
    2.9620   66.2910   64.7340 C   0  0  0  0  0  0  0  0  0  0  0  0
    1.6550   66.6940   65.0100 C   0  0  0  0  0  0  0  0  0  0  0  0
    2.4033   65.7004   68.7214 H   0  0  0  0  0  0  0  0  0  0  0  0
    0.3700   64.8019   71.9922 H   0  0  0  0  0  0  0  0  0  0  0  0
   -0.6605   64.1322   70.7320 H   0  0  0  0  0  0  0  0  0  0  0  0
    3.5473   60.8974   70.4540 H   0  0  0  0  0  0  0  0  0  0  0  0
    1.0131   57.7663   72.8821 H   0  0  0  0  0  0  0  0  0  0  0  0
    2.0265   58.5540   74.1813 H   0  0  0  0  0  0  0  0  0  0  0  0
   -0.6666   62.1510   72.9794 H   0  0  0  0  0  0  0  0  0  0  0  0
    0.5494   67.3081   70.2895 H   0  0  0  0  0  0  0  0  0  0  0  0
    2.2592   68.4447   68.9979 H   0  0  0  0  0  0  0  0  0  0  0  0
    1.9333   67.4023   67.5451 H   0  0  0  0  0  0  0  0  0  0  0  0
    0.0935   69.5882   68.5951 H   0  0  0  0  0  0  0  0  0  0  0  0
    1.2233   69.7423   67.2005 H   0  0  0  0  0  0  0  0  0  0  0  0
   -1.2618   69.0288   67.0048 H   0  0  0  0  0  0  0  0  0  0  0  0
   -1.9038   66.8629   66.9464 H   0  0  0  0  0  0  0  0  0  0  0  0
   -0.2040   66.2978   66.7758 H   0  0  0  0  0  0  0  0  0  0  0  0
   -1.3600   67.6535   69.2566 H   0  0  0  0  0  0  0  0  0  0  0  0
   -1.1463   65.8690   69.0366 H   0  0  0  0  0  0  0  0  0  0  0  0
   -0.7574   67.8433   64.8342 H   0  0  0  0  0  0  0  0  0  0  0  0
   -0.1608   69.5468   65.0827 H   0  0  0  0  0  0  0  0  0  0  0  0
    2.1360   70.0770   65.0583 H   0  0  0  0  0  0  0  0  0  0  0  0
    4.4643   69.3456   64.5633 H   0  0  0  0  0  0  0  0  0  0  0  0
    4.9955   66.9197   64.3474 H   0  0  0  0  0  0  0  0  0  0  0  0
    3.1988   65.2204   64.6458 H   0  0  0  0  0  0  0  0  0  0  0  0
    0.8659   65.9388   65.1407 H   0  0  0  0  0  0  0  0  0  0  0  0
  2  1  2  0
  3  2  1  0
  4  3  2  0
  5  3  1  0
  6  5  1  0
  7  2  1  0
  7  6  2  0
  8  7  1  0
  9  8  2  0
 10  9  1  0
 11 10  1  0
 12 11  1  0
 13 12  1  0
 13  9  1  0
 14 13  2  0
 14  6  1  0
 15  4  1  0
 16 15  1  0
 17 16  1  0
 18 17  1  0
 19 18  1  0
 20 19  1  0
 20 15  1  0
 21 18  1  0
 22 21  1  0
 23 22  2  0
 24 23  1  0
 25 24  2  0
 26 25  1  0
 27 26  2  0
 27 22  1  0
  4 28  1  0
  5 29  1  0
  5 30  1  0
  8 31  1  0
 11 32  1  0
 11 33  1  0
 14 34  1  0
 15 35  1  0
 16 36  1  0
 16 37  1  0
 17 38  1  0
 17 39  1  0
 18 40  1  0
 19 41  1  0
 19 42  1  0
 20 43  1  0
 20 44  1  0
 21 45  1  0
 21 46  1  0
 23 47  1  0
 24 48  1  0
 25 49  1  0
 26 50  1  0
 27 51  1  0
M  CHG  1  18   1
M  END
>  <score>  (1) 
-10.038

$$$$
=
     RDKit          3D

 51 55  0  0  0  0  0  0  0  0999 V2000
   -2.1700   67.6690   67.6940 O   0  0  0  0  0  0  0  0  0  0  0  0
   -0.9920   67.6360   67.3990 C   0  0  0  0  0  0  0  0  0  0  0  0
    0.1330   67.1270   68.2640 C   0  0  0  0  0  0  0  0  0  0  0  0
   -0.1490   66.6770   69.4970 C   0  0  0  0  0  0  0  0  0  0  0  0
    1.4100   67.2570   67.4710 C   0  0  0  0  0  0  0  0  0  0  0  0
    0.9770   67.8310   66.1570 C   0  0  0  0  0  0  0  0  0  0  0  0
   -0.4110   68.0550   66.1240 C   0  0  0  0  0  0  0  0  0  0  0  0
   -1.0700   68.5830   65.0260 C   0  0  0  0  0  0  0  0  0  0  0  0
   -0.2650   68.8830   63.9480 C   0  0  0  0  0  0  0  0  0  0  0  0
   -0.6890   69.4080   62.7680 O   0  0  0  0  0  0  0  0  0  0  0  0
    0.5560   69.5150   62.0460 C   0  0  0  0  0  0  0  0  0  0  0  0
    1.6950   69.0380   62.7940 O   0  0  0  0  0  0  0  0  0  0  0  0
    1.1040   68.6700   63.9640 C   0  0  0  0  0  0  0  0  0  0  0  0
    1.7660   68.1430   65.0580 C   0  0  0  0  0  0  0  0  0  0  0  0
    0.6980   66.0780   70.5990 C   0  0  0  0  0  0  0  0  0  0  0  0
   -0.2440   65.7170   71.7720 C   0  0  0  0  0  0  0  0  0  0  0  0
    0.3680   64.6880   72.7050 C   0  0  0  0  0  0  0  0  0  0  0  0
    0.6220   63.3920   71.9610 N   0  0  0  0  0  4  0  0  0  0  0  0
    0.9300   63.5660   70.4900 C   0  0  0  0  0  0  0  0  0  0  0  0
    1.6240   64.8980   70.2610 C   0  0  0  0  0  0  0  0  0  0  0  0
   -0.4530   62.3420   72.1780 C   0  0  0  0  0  0  0  0  0  0  0  0
    0.1030   61.0190   72.6280 C   0  0  0  0  0  0  0  0  0  0  0  0
    1.4090   60.6370   72.2860 C   0  0  0  0  0  0  0  0  0  0  0  0
    1.9120   59.3990   72.6870 C   0  0  0  0  0  0  0  0  0  0  0  0
    1.1190   58.5310   73.4350 C   0  0  0  0  0  0  0  0  0  0  0  0
   -0.1760   58.9010   73.7880 C   0  0  0  0  0  0  0  0  0  0  0  0
   -0.6840   60.1380   73.3900 C   0  0  0  0  0  0  0  0  0  0  0  0
   -1.2137   66.7608   69.7603 H   0  0  0  0  0  0  0  0  0  0  0  0
    2.1153   67.9326   67.9772 H   0  0  0  0  0  0  0  0  0  0  0  0
    1.9317   66.2954   67.3565 H   0  0  0  0  0  0  0  0  0  0  0  0
   -2.1571   68.7508   65.0151 H   0  0  0  0  0  0  0  0  0  0  0  0
    0.4745   68.9254   61.1210 H   0  0  0  0  0  0  0  0  0  0  0  0
    0.7239   70.5833   61.8445 H   0  0  0  0  0  0  0  0  0  0  0  0
    2.8539   67.9806   65.0574 H   0  0  0  0  0  0  0  0  0  0  0  0
    1.4307   66.8608   70.8446 H   0  0  0  0  0  0  0  0  0  0  0  0
   -0.4610   66.6302   72.3456 H   0  0  0  0  0  0  0  0  0  0  0  0
   -1.1609   65.2831   71.3466 H   0  0  0  0  0  0  0  0  0  0  0  0
    1.3203   65.0743   73.0974 H   0  0  0  0  0  0  0  0  0  0  0  0
   -0.3293   64.4953   73.5337 H   0  0  0  0  0  0  0  0  0  0  0  0
    1.4847   63.0346   72.3956 H   0  0  0  0  0  0  0  0  0  0  0  0
    1.5876   62.7499   70.1560 H   0  0  0  0  0  0  0  0  0  0  0  0
   -0.0095   63.5441   69.9182 H   0  0  0  0  0  0  0  0  0  0  0  0
    2.5181   64.9503   70.8996 H   0  0  0  0  0  0  0  0  0  0  0  0
    1.8991   64.9670   69.1982 H   0  0  0  0  0  0  0  0  0  0  0  0
   -1.1515   62.7082   72.9448 H   0  0  0  0  0  0  0  0  0  0  0  0
   -0.9539   62.1782   71.2125 H   0  0  0  0  0  0  0  0  0  0  0  0
    2.0409   61.3185   71.6975 H   0  0  0  0  0  0  0  0  0  0  0  0
    2.9365   59.1076   72.4122 H   0  0  0  0  0  0  0  0  0  0  0  0
    1.5161   57.5536   73.7465 H   0  0  0  0  0  0  0  0  0  0  0  0
   -0.7998   58.2167   74.3818 H   0  0  0  0  0  0  0  0  0  0  0  0
   -1.7069   60.4257   73.6743 H   0  0  0  0  0  0  0  0  0  0  0  0
  2  1  2  0
  3  2  1  0
  4  3  2  0
  5  3  1  0
  6  5  1  0
  7  2  1  0
  7  6  2  0
  8  7  1  0
  9  8  2  0
 10  9  1  0
 11 10  1  0
 12 11  1  0
 13 12  1  0
 13  9  1  0
 14 13  2  0
 14  6  1  0
 15  4  1  0
 16 15  1  0
 17 16  1  0
 18 17  1  0
 19 18  1  0
 20 19  1  0
 20 15  1  0
 21 18  1  0
 22 21  1  0
 23 22  2  0
 24 23  1  0
 25 24  2  0
 26 25  1  0
 27 26  2  0
 27 22  1  0
  4 28  1  0
  5 29  1  0
  5 30  1  0
  8 31  1  0
 11 32  1  0
 11 33  1  0
 14 34  1  0
 15 35  1  0
 16 36  1  0
 16 37  1  0
 17 38  1  0
 17 39  1  0
 18 40  1  0
 19 41  1  0
 19 42  1  0
 20 43  1  0
 20 44  1  0
 21 45  1  0
 21 46  1  0
 23 47  1  0
 24 48  1  0
 25 49  1  0
 26 50  1  0
 27 51  1  0
M  CHG  1  18   1
M  END
>  <score>  (2) 
-9.888

$$$$
=
     RDKit          3D

 51 55  0  0  0  0  0  0  0  0999 V2000
   -0.5400   63.1460   71.2680 O   0  0  0  0  0  0  0  0  0  0  0  0
    0.5480   63.5610   70.9220 C   0  0  0  0  0  0  0  0  0  0  0  0
    0.8250   64.8620   70.2120 C   0  0  0  0  0  0  0  0  0  0  0  0
   -0.2080   65.6600   69.8930 C   0  0  0  0  0  0  0  0  0  0  0  0
    2.3170   64.9630   70.0130 C   0  0  0  0  0  0  0  0  0  0  0  0
    2.8610   63.7110   70.6320 C   0  0  0  0  0  0  0  0  0  0  0  0
    1.8340   62.9020   71.1470 C   0  0  0  0  0  0  0  0  0  0  0  0
    2.0640   61.6860   71.7700 C   0  0  0  0  0  0  0  0  0  0  0  0
    3.3880   61.3110   71.8510 C   0  0  0  0  0  0  0  0  0  0  0  0
    3.8510   60.1640   72.4160 O   0  0  0  0  0  0  0  0  0  0  0  0
    5.2710   60.3010   72.2040 C   0  0  0  0  0  0  0  0  0  0  0  0
    5.6360   61.5280   71.5370 O   0  0  0  0  0  0  0  0  0  0  0  0
    4.4130   62.0950   71.3460 C   0  0  0  0  0  0  0  0  0  0  0  0
    4.1860   63.3100   70.7250 C   0  0  0  0  0  0  0  0  0  0  0  0
   -0.3000   67.0160   69.2270 C   0  0  0  0  0  0  0  0  0  0  0  0
    1.1370   67.4620   68.8710 C   0  0  0  0  0  0  0  0  0  0  0  0
    1.1580   68.5280   67.7910 C   0  0  0  0  0  0  0  0  0  0  0  0
    0.5610   67.9830   66.5080 N   0  0  0  0  0  4  0  0  0  0  0  0
   -0.5070   66.9310   66.7120 C   0  0  0  0  0  0  0  0  0  0  0  0
   -1.2370   67.1830   68.0200 C   0  0  0  0  0  0  0  0  0  0  0  0
    1.5990   67.5260   65.4980 C   0  0  0  0  0  0  0  0  0  0  0  0
    1.4230   68.1640   64.1470 C   0  0  0  0  0  0  0  0  0  0  0  0
    2.4420   68.0960   63.1850 C   0  0  0  0  0  0  0  0  0  0  0  0
    2.2830   68.7090   61.9420 C   0  0  0  0  0  0  0  0  0  0  0  0
    1.1050   69.3910   61.6450 C   0  0  0  0  0  0  0  0  0  0  0  0
    0.0820   69.4580   62.5870 C   0  0  0  0  0  0  0  0  0  0  0  0
    0.2360   68.8480   63.8330 C   0  0  0  0  0  0  0  0  0  0  0  0
   -1.1864   65.2425   70.1730 H   0  0  0  0  0  0  0  0  0  0  0  0
    2.5648   65.0073   68.9422 H   0  0  0  0  0  0  0  0  0  0  0  0
    2.7398   65.8723   70.4651 H   0  0  0  0  0  0  0  0  0  0  0  0
    1.2493   61.0650   72.1708 H   0  0  0  0  0  0  0  0  0  0  0  0
    5.7737   60.2731   73.1820 H   0  0  0  0  0  0  0  0  0  0  0  0
    5.5831   59.4720   71.5518 H   0  0  0  0  0  0  0  0  0  0  0  0
    5.0085   63.9229   70.3278 H   0  0  0  0  0  0  0  0  0  0  0  0
   -0.7917   67.6605   69.9705 H   0  0  0  0  0  0  0  0  0  0  0  0
    1.6166   67.8650   69.7752 H   0  0  0  0  0  0  0  0  0  0  0  0
    1.6768   66.5836   68.4876 H   0  0  0  0  0  0  0  0  0  0  0  0
    0.5708   69.3960   68.1253 H   0  0  0  0  0  0  0  0  0  0  0  0
    2.1991   68.8296   67.6035 H   0  0  0  0  0  0  0  0  0  0  0  0
    0.0842   68.8009   66.1023 H   0  0  0  0  0  0  0  0  0  0  0  0
   -1.2248   66.9736   65.8795 H   0  0  0  0  0  0  0  0  0  0  0  0
   -0.0355   65.9377   66.7457 H   0  0  0  0  0  0  0  0  0  0  0  0
   -1.6355   68.2083   68.0156 H   0  0  0  0  0  0  0  0  0  0  0  0
   -2.0506   66.4481   68.1093 H   0  0  0  0  0  0  0  0  0  0  0  0
    2.5977   67.7837   65.8803 H   0  0  0  0  0  0  0  0  0  0  0  0
    1.4774   66.4405   65.3684 H   0  0  0  0  0  0  0  0  0  0  0  0
    3.3727   67.5556   63.4125 H   0  0  0  0  0  0  0  0  0  0  0  0
    3.0889   68.6538   61.1953 H   0  0  0  0  0  0  0  0  0  0  0  0
    0.9831   69.8768   60.6657 H   0  0  0  0  0  0  0  0  0  0  0  0
   -0.8494   69.9927   62.3489 H   0  0  0  0  0  0  0  0  0  0  0  0
   -0.5759   68.9029   64.5731 H   0  0  0  0  0  0  0  0  0  0  0  0
  2  1  2  0
  3  2  1  0
  4  3  2  0
  5  3  1  0
  6  5  1  0
  7  2  1  0
  7  6  2  0
  8  7  1  0
  9  8  2  0
 10  9  1  0
 11 10  1  0
 12 11  1  0
 13 12  1  0
 13  9  1  0
 14 13  2  0
 14  6  1  0
 15  4  1  0
 16 15  1  0
 17 16  1  0
 18 17  1  0
 19 18  1  0
 20 19  1  0
 20 15  1  0
 21 18  1  0
 22 21  1  0
 23 22  2  0
 24 23  1  0
 25 24  2  0
 26 25  1  0
 27 26  2  0
 27 22  1  0
  4 28  1  0
  5 29  1  0
  5 30  1  0
  8 31  1  0
 11 32  1  0
 11 33  1  0
 14 34  1  0
 15 35  1  0
 16 36  1  0
 16 37  1  0
 17 38  1  0
 17 39  1  0
 18 40  1  0
 19 41  1  0
 19 42  1  0
 20 43  1  0
 20 44  1  0
 21 45  1  0
 21 46  1  0
 23 47  1  0
 24 48  1  0
 25 49  1  0
 26 50  1  0
 27 51  1  0
M  CHG  1  18   1
M  END
>  <score>  (3) 
-9.684

$$$$
=
     RDKit          3D

 51 55  0  0  0  0  0  0  0  0999 V2000
   -1.0820   68.0000   65.6320 O   0  0  0  0  0  0  0  0  0  0  0  0
    0.1200   67.9470   65.7970 C   0  0  0  0  0  0  0  0  0  0  0  0
    0.8330   67.6150   67.0830 C   0  0  0  0  0  0  0  0  0  0  0  0
    0.1040   67.3710   68.1850 C   0  0  0  0  0  0  0  0  0  0  0  0
    2.3150   67.6420   66.8020 C   0  0  0  0  0  0  0  0  0  0  0  0
    2.4120   67.9780   65.3450 C   0  0  0  0  0  0  0  0  0  0  0  0
    1.1410   68.1610   64.7720 C   0  0  0  0  0  0  0  0  0  0  0  0
    0.9470   68.4820   63.4380 C   0  0  0  0  0  0  0  0  0  0  0  0
    2.1000   68.6170   62.6950 C   0  0  0  0  0  0  0  0  0  0  0  0
    2.1560   68.9270   61.3720 O   0  0  0  0  0  0  0  0  0  0  0  0
    3.5800   68.9420   61.1470 C   0  0  0  0  0  0  0  0  0  0  0  0
    4.3500   68.6240   62.3270 O   0  0  0  0  0  0  0  0  0  0  0  0
    3.3610   68.4420   63.2440 C   0  0  0  0  0  0  0  0  0  0  0  0
    3.5580   68.1200   64.5750 C   0  0  0  0  0  0  0  0  0  0  0  0
    0.4680   66.9850   69.6020 C   0  0  0  0  0  0  0  0  0  0  0  0
   -0.4680   65.8300   70.0290 C   0  0  0  0  0  0  0  0  0  0  0  0
    0.0930   65.0360   71.1950 C   0  0  0  0  0  0  0  0  0  0  0  0
    1.4040   64.3850   70.8010 N   0  0  0  0  0  4  0  0  0  0  0  0
    2.2020   65.1570   69.7720 C   0  0  0  0  0  0  0  0  0  0  0  0
    1.9340   66.6450   69.9210 C   0  0  0  0  0  0  0  0  0  0  0  0
    1.2670   62.9250   70.4080 C   0  0  0  0  0  0  0  0  0  0  0  0
    2.5530   62.1570   70.5480 C   0  0  0  0  0  0  0  0  0  0  0  0
    3.3010   62.2240   71.7320 C   0  0  0  0  0  0  0  0  0  0  0  0
    4.5050   61.5280   71.8490 C   0  0  0  0  0  0  0  0  0  0  0  0
    4.9710   60.7560   70.7870 C   0  0  0  0  0  0  0  0  0  0  0  0
    4.2340   60.6730   69.6090 C   0  0  0  0  0  0  0  0  0  0  0  0
    3.0290   61.3670   69.4870 C   0  0  0  0  0  0  0  0  0  0  0  0
   -0.9794   67.4727   68.0240 H   0  0  0  0  0  0  0  0  0  0  0  0
    2.8130   68.4097   67.4125 H   0  0  0  0  0  0  0  0  0  0  0  0
    2.8054   66.6881   67.0458 H   0  0  0  0  0  0  0  0  0  0  0  0
   -0.0543   68.6191   63.0037 H   0  0  0  0  0  0  0  0  0  0  0  0
    3.8176   68.2044   60.3663 H   0  0  0  0  0  0  0  0  0  0  0  0
    3.8510   69.9653   60.8481 H   0  0  0  0  0  0  0  0  0  0  0  0
    4.5642   67.9844   64.9983 H   0  0  0  0  0  0  0  0  0  0  0  0
    0.3294   67.9059   70.1875 H   0  0  0  0  0  0  0  0  0  0  0  0
   -1.4399   66.2526   70.3236 H   0  0  0  0  0  0  0  0  0  0  0  0
   -0.5706   65.1458   69.1738 H   0  0  0  0  0  0  0  0  0  0  0  0
    0.2639   65.7115   72.0461 H   0  0  0  0  0  0  0  0  0  0  0  0
   -0.6268   64.2532   71.4762 H   0  0  0  0  0  0  0  0  0  0  0  0
    1.9532   64.4136   71.6719 H   0  0  0  0  0  0  0  0  0  0  0  0
    3.2744   64.9627   69.9211 H   0  0  0  0  0  0  0  0  0  0  0  0
    1.9025   64.8339   68.7641 H   0  0  0  0  0  0  0  0  0  0  0  0
    2.1546   66.9467   70.9556 H   0  0  0  0  0  0  0  0  0  0  0  0
    2.5775   67.1858   69.2115 H   0  0  0  0  0  0  0  0  0  0  0  0
    0.5076   62.4580   71.0524 H   0  0  0  0  0  0  0  0  0  0  0  0
    0.9788   62.8948   69.3469 H   0  0  0  0  0  0  0  0  0  0  0  0
    2.9362   62.8295   72.5748 H   0  0  0  0  0  0  0  0  0  0  0  0
    5.0866   61.5890   72.7807 H   0  0  0  0  0  0  0  0  0  0  0  0
    5.9223   60.2115   70.8795 H   0  0  0  0  0  0  0  0  0  0  0  0
    4.6017   60.0597   68.7731 H   0  0  0  0  0  0  0  0  0  0  0  0
    2.4486   61.2953   68.5554 H   0  0  0  0  0  0  0  0  0  0  0  0
  2  1  2  0
  3  2  1  0
  4  3  2  0
  5  3  1  0
  6  5  1  0
  7  2  1  0
  7  6  2  0
  8  7  1  0
  9  8  2  0
 10  9  1  0
 11 10  1  0
 12 11  1  0
 13 12  1  0
 13  9  1  0
 14 13  2  0
 14  6  1  0
 15  4  1  0
 16 15  1  0
 17 16  1  0
 18 17  1  0
 19 18  1  0
 20 19  1  0
 20 15  1  0
 21 18  1  0
 22 21  1  0
 23 22  2  0
 24 23  1  0
 25 24  2  0
 26 25  1  0
 27 26  2  0
 27 22  1  0
  4 28  1  0
  5 29  1  0
  5 30  1  0
  8 31  1  0
 11 32  1  0
 11 33  1  0
 14 34  1  0
 15 35  1  0
 16 36  1  0
 16 37  1  0
 17 38  1  0
 17 39  1  0
 18 40  1  0
 19 41  1  0
 19 42  1  0
 20 43  1  0
 20 44  1  0
 21 45  1  0
 21 46  1  0
 23 47  1  0
 24 48  1  0
 25 49  1  0
 26 50  1  0
 27 51  1  0
M  CHG  1  18   1
M  END
>  <score>  (4) 
-9.516

$$$$
=
     RDKit          3D

 51 55  0  0  0  0  0  0  0  0999 V2000
    3.1330   56.6860   71.0200 O   0  0  0  0  0  0  0  0  0  0  0  0
    2.6420   57.5920   71.6630 C   0  0  0  0  0  0  0  0  0  0  0  0
    2.9540   59.0600   71.5220 C   0  0  0  0  0  0  0  0  0  0  0  0
    3.8760   59.4440   70.6240 C   0  0  0  0  0  0  0  0  0  0  0  0
    2.0860   59.8060   72.5050 C   0  0  0  0  0  0  0  0  0  0  0  0
    1.2830   58.7360   73.1800 C   0  0  0  0  0  0  0  0  0  0  0  0
    1.6140   57.4590   72.6950 C   0  0  0  0  0  0  0  0  0  0  0  0
    1.0210   56.2940   73.1530 C   0  0  0  0  0  0  0  0  0  0  0  0
    0.0690   56.4690   74.1350 C   0  0  0  0  0  0  0  0  0  0  0  0
   -0.6410   55.4750   74.7320 O   0  0  0  0  0  0  0  0  0  0  0  0
   -1.4520   56.2280   75.6580 C   0  0  0  0  0  0  0  0  0  0  0  0
   -1.2300   57.6530   75.5870 O   0  0  0  0  0  0  0  0  0  0  0  0
   -0.2690   57.7200   74.6260 C   0  0  0  0  0  0  0  0  0  0  0  0
    0.3210   58.8850   74.1700 C   0  0  0  0  0  0  0  0  0  0  0  0
    4.4060   60.7970   70.1990 C   0  0  0  0  0  0  0  0  0  0  0  0
    3.3580   61.4350   69.2560 C   0  0  0  0  0  0  0  0  0  0  0  0
    3.5160   62.9420   69.1570 C   0  0  0  0  0  0  0  0  0  0  0  0
    3.2970   63.5800   70.5150 N   0  0  0  0  0  4  0  0  0  0  0  0
    3.6960   62.7100   71.6860 C   0  0  0  0  0  0  0  0  0  0  0  0
    4.8400   61.7950   71.2850 C   0  0  0  0  0  0  0  0  0  0  0  0
    1.9030   64.1530   70.7030 C   0  0  0  0  0  0  0  0  0  0  0  0
    1.1320   63.4670   71.7970 C   0  0  0  0  0  0  0  0  0  0  0  0
    0.0010   62.6920   71.4990 C   0  0  0  0  0  0  0  0  0  0  0  0
   -0.7240   62.0770   72.5200 C   0  0  0  0  0  0  0  0  0  0  0  0
   -0.3270   62.2260   73.8470 C   0  0  0  0  0  0  0  0  0  0  0  0
    0.7980   62.9850   74.1560 C   0  0  0  0  0  0  0  0  0  0  0  0
    1.5270   63.6030   73.1390 C   0  0  0  0  0  0  0  0  0  0  0  0
    4.3411   58.6037   70.0877 H   0  0  0  0  0  0  0  0  0  0  0  0
    2.7035   60.3487   73.2358 H   0  0  0  0  0  0  0  0  0  0  0  0
    1.4521   60.5605   72.0162 H   0  0  0  0  0  0  0  0  0  0  0  0
    1.2899   55.3017   72.7619 H   0  0  0  0  0  0  0  0  0  0  0  0
   -2.5108   56.0286   75.4363 H   0  0  0  0  0  0  0  0  0  0  0  0
   -1.1717   55.9057   76.6717 H   0  0  0  0  0  0  0  0  0  0  0  0
    0.0441   59.8722   74.5685 H   0  0  0  0  0  0  0  0  0  0  0  0
    5.3679   60.5804   69.7114 H   0  0  0  0  0  0  0  0  0  0  0  0
    3.4737   61.0002   68.2522 H   0  0  0  0  0  0  0  0  0  0  0  0
    2.3605   61.2270   69.6704 H   0  0  0  0  0  0  0  0  0  0  0  0
    4.5303   63.1789   68.8032 H   0  0  0  0  0  0  0  0  0  0  0  0
    2.7710   63.3361   68.4501 H   0  0  0  0  0  0  0  0  0  0  0  0
    3.9518   64.3751   70.5119 H   0  0  0  0  0  0  0  0  0  0  0  0
    4.0160   63.3488   72.5224 H   0  0  0  0  0  0  0  0  0  0  0  0
    2.8344   62.0989   71.9929 H   0  0  0  0  0  0  0  0  0  0  0  0
    5.6687   62.4065   70.8985 H   0  0  0  0  0  0  0  0  0  0  0  0
    5.1553   61.2259   72.1720 H   0  0  0  0  0  0  0  0  0  0  0  0
    1.9928   65.2205   70.9529 H   0  0  0  0  0  0  0  0  0  0  0  0
    1.3524   63.9980   69.7634 H   0  0  0  0  0  0  0  0  0  0  0  0
   -0.3163   62.5685   70.4530 H   0  0  0  0  0  0  0  0  0  0  0  0
   -1.6108   61.4733   72.2768 H   0  0  0  0  0  0  0  0  0  0  0  0
   -0.9027   61.7437   74.6507 H   0  0  0  0  0  0  0  0  0  0  0  0
    1.1131   63.0980   75.2038 H   0  0  0  0  0  0  0  0  0  0  0  0
    2.4162   64.2002   73.3892 H   0  0  0  0  0  0  0  0  0  0  0  0
  2  1  2  0
  3  2  1  0
  4  3  2  0
  5  3  1  0
  6  5  1  0
  7  2  1  0
  7  6  2  0
  8  7  1  0
  9  8  2  0
 10  9  1  0
 11 10  1  0
 12 11  1  0
 13 12  1  0
 13  9  1  0
 14 13  2  0
 14  6  1  0
 15  4  1  0
 16 15  1  0
 17 16  1  0
 18 17  1  0
 19 18  1  0
 20 19  1  0
 20 15  1  0
 21 18  1  0
 22 21  1  0
 23 22  2  0
 24 23  1  0
 25 24  2  0
 26 25  1  0
 27 26  2  0
 27 22  1  0
  4 28  1  0
  5 29  1  0
  5 30  1  0
  8 31  1  0
 11 32  1  0
 11 33  1  0
 14 34  1  0
 15 35  1  0
 16 36  1  0
 16 37  1  0
 17 38  1  0
 17 39  1  0
 18 40  1  0
 19 41  1  0
 19 42  1  0
 20 43  1  0
 20 44  1  0
 21 45  1  0
 21 46  1  0
 23 47  1  0
 24 48  1  0
 25 49  1  0
 26 50  1  0
 27 51  1  0
M  CHG  1  18   1
M  END
>  <score>  (5) 
-9.465

$$$$
=
     RDKit          3D

 51 55  0  0  0  0  0  0  0  0999 V2000
    3.4040   63.7570   70.4950 O   0  0  0  0  0  0  0  0  0  0  0  0
    2.3450   63.9740   71.0500 C   0  0  0  0  0  0  0  0  0  0  0  0
    1.3630   65.0650   70.7090 C   0  0  0  0  0  0  0  0  0  0  0  0
    1.6600   65.9170   69.7150 C   0  0  0  0  0  0  0  0  0  0  0  0
    0.1880   64.9280   71.6460 C   0  0  0  0  0  0  0  0  0  0  0  0
    0.5260   63.7420   72.4970 C   0  0  0  0  0  0  0  0  0  0  0  0
    1.7770   63.2000   72.1540 C   0  0  0  0  0  0  0  0  0  0  0  0
    2.3290   62.1000   72.7890 C   0  0  0  0  0  0  0  0  0  0  0  0
    1.5610   61.5610   73.7990 C   0  0  0  0  0  0  0  0  0  0  0  0
    1.8980   60.4840   74.5580 O   0  0  0  0  0  0  0  0  0  0  0  0
    0.7550   60.3890   75.4330 C   0  0  0  0  0  0  0  0  0  0  0  0
   -0.2500   61.3920   75.1730 O   0  0  0  0  0  0  0  0  0  0  0  0
    0.3270   62.0830   74.1520 C   0  0  0  0  0  0  0  0  0  0  0  0
   -0.2270   63.1810   73.5190 C   0  0  0  0  0  0  0  0  0  0  0  0
    0.9170   67.0810   69.0930 C   0  0  0  0  0  0  0  0  0  0  0  0
    1.8710   68.2990   69.0920 C   0  0  0  0  0  0  0  0  0  0  0  0
    1.4550   69.3540   68.0820 C   0  0  0  0  0  0  0  0  0  0  0  0
    1.5060   68.7840   66.6790 N   0  0  0  0  0  4  0  0  0  0  0  0
    1.2220   67.3000   66.5960 C   0  0  0  0  0  0  0  0  0  0  0  0
    0.2730   66.8920   67.7100 C   0  0  0  0  0  0  0  0  0  0  0  0
    2.7690   69.1460   65.9180 C   0  0  0  0  0  0  0  0  0  0  0  0
    2.6210   68.9900   64.4290 C   0  0  0  0  0  0  0  0  0  0  0  0
    1.3520   68.9940   63.8320 C   0  0  0  0  0  0  0  0  0  0  0  0
    1.2190   68.8260   62.4530 C   0  0  0  0  0  0  0  0  0  0  0  0
    2.3500   68.6560   61.6570 C   0  0  0  0  0  0  0  0  0  0  0  0
    3.6160   68.6590   62.2370 C   0  0  0  0  0  0  0  0  0  0  0  0
    3.7550   68.8260   63.6150 C   0  0  0  0  0  0  0  0  0  0  0  0
    2.6439   65.7319   69.2592 H   0  0  0  0  0  0  0  0  0  0  0  0
    0.0756   65.8311   72.2639 H   0  0  0  0  0  0  0  0  0  0  0  0
   -0.7637   64.8012   71.1092 H   0  0  0  0  0  0  0  0  0  0  0  0
    3.3088   61.6865   72.5080 H   0  0  0  0  0  0  0  0  0  0  0  0
    0.2987   59.3964   75.3043 H   0  0  0  0  0  0  0  0  0  0  0  0
    1.1169   60.5499   76.4592 H   0  0  0  0  0  0  0  0  0  0  0  0
   -1.2077   63.5862   73.8089 H   0  0  0  0  0  0  0  0  0  0  0  0
    0.0274   67.2157   69.7258 H   0  0  0  0  0  0  0  0  0  0  0  0
    1.8707   68.7498   70.0954 H   0  0  0  0  0  0  0  0  0  0  0  0
    2.8734   67.9420   68.8133 H   0  0  0  0  0  0  0  0  0  0  0  0
    0.4293   69.6842   68.3030 H   0  0  0  0  0  0  0  0  0  0  0  0
    2.1465   70.2069   68.1483 H   0  0  0  0  0  0  0  0  0  0  0  0
    0.7222   69.2541   66.2041 H   0  0  0  0  0  0  0  0  0  0  0  0
    0.7627   67.0704   65.6232 H   0  0  0  0  0  0  0  0  0  0  0  0
    2.1653   66.7443   66.7022 H   0  0  0  0  0  0  0  0  0  0  0  0
   -0.6352   67.5099   67.6507 H   0  0  0  0  0  0  0  0  0  0  0  0
    0.0294   65.8267   67.5843 H   0  0  0  0  0  0  0  0  0  0  0  0
    3.0228   70.1936   66.1375 H   0  0  0  0  0  0  0  0  0  0  0  0
    3.5604   68.4555   66.2449 H   0  0  0  0  0  0  0  0  0  0  0  0
    0.4556   69.1305   64.4548 H   0  0  0  0  0  0  0  0  0  0  0  0
    0.2195   68.8278   61.9936 H   0  0  0  0  0  0  0  0  0  0  0  0
    2.2428   68.5195   60.5708 H   0  0  0  0  0  0  0  0  0  0  0  0
    4.5085   68.5294   61.6072 H   0  0  0  0  0  0  0  0  0  0  0  0
    4.7578   68.8293   64.0671 H   0  0  0  0  0  0  0  0  0  0  0  0
  2  1  2  0
  3  2  1  0
  4  3  2  0
  5  3  1  0
  6  5  1  0
  7  2  1  0
  7  6  2  0
  8  7  1  0
  9  8  2  0
 10  9  1  0
 11 10  1  0
 12 11  1  0
 13 12  1  0
 13  9  1  0
 14 13  2  0
 14  6  1  0
 15  4  1  0
 16 15  1  0
 17 16  1  0
 18 17  1  0
 19 18  1  0
 20 19  1  0
 20 15  1  0
 21 18  1  0
 22 21  1  0
 23 22  2  0
 24 23  1  0
 25 24  2  0
 26 25  1  0
 27 26  2  0
 27 22  1  0
  4 28  1  0
  5 29  1  0
  5 30  1  0
  8 31  1  0
 11 32  1  0
 11 33  1  0
 14 34  1  0
 15 35  1  0
 16 36  1  0
 16 37  1  0
 17 38  1  0
 17 39  1  0
 18 40  1  0
 19 41  1  0
 19 42  1  0
 20 43  1  0
 20 44  1  0
 21 45  1  0
 21 46  1  0
 23 47  1  0
 24 48  1  0
 25 49  1  0
 26 50  1  0
 27 51  1  0
M  CHG  1  18   1
M  END
>  <score>  (6) 
-9.157

$$$$
=
     RDKit          3D

 51 55  0  0  0  0  0  0  0  0999 V2000
   -0.3520   64.3400   73.9150 O   0  0  0  0  0  0  0  0  0  0  0  0
   -0.1770   63.2070   73.5140 C   0  0  0  0  0  0  0  0  0  0  0  0
    0.7460   62.7860   72.3990 C   0  0  0  0  0  0  0  0  0  0  0  0
    1.4450   63.7270   71.7440 C   0  0  0  0  0  0  0  0  0  0  0  0
    0.6540   61.2850   72.2760 C   0  0  0  0  0  0  0  0  0  0  0  0
   -0.3190   60.8820   73.3420 C   0  0  0  0  0  0  0  0  0  0  0  0
   -0.8010   61.9970   74.0480 C   0  0  0  0  0  0  0  0  0  0  0  0
   -1.7160   61.9040   75.0850 C   0  0  0  0  0  0  0  0  0  0  0  0
   -2.1330   60.6240   75.3840 C   0  0  0  0  0  0  0  0  0  0  0  0
   -3.0220   60.2910   76.3570 O   0  0  0  0  0  0  0  0  0  0  0  0
   -3.0800   58.8580   76.2040 C   0  0  0  0  0  0  0  0  0  0  0  0
   -2.2160   58.3570   75.1610 O   0  0  0  0  0  0  0  0  0  0  0  0
   -1.6690   59.5140   74.6970 C   0  0  0  0  0  0  0  0  0  0  0  0
   -0.7560   59.6040   73.6620 C   0  0  0  0  0  0  0  0  0  0  0  0
    2.4630   63.6690   70.6250 C   0  0  0  0  0  0  0  0  0  0  0  0
    3.8580   63.4930   71.2700 C   0  0  0  0  0  0  0  0  0  0  0  0
    4.8770   62.9350   70.2920 C   0  0  0  0  0  0  0  0  0  0  0  0
    4.4560   61.5550   69.8280 N   0  0  0  0  0  4  0  0  0  0  0  0
    2.9590   61.3400   69.7860 C   0  0  0  0  0  0  0  0  0  0  0  0
    2.2550   62.6530   69.4900 C   0  0  0  0  0  0  0  0  0  0  0  0
    5.1550   60.4250   70.5620 C   0  0  0  0  0  0  0  0  0  0  0  0
    4.2910   59.7900   71.6170 C   0  0  0  0  0  0  0  0  0  0  0  0
    4.3200   60.2540   72.9410 C   0  0  0  0  0  0  0  0  0  0  0  0
    3.5350   59.6460   73.9210 C   0  0  0  0  0  0  0  0  0  0  0  0
    2.7090   58.5740   73.5890 C   0  0  0  0  0  0  0  0  0  0  0  0
    2.6640   58.1090   72.2780 C   0  0  0  0  0  0  0  0  0  0  0  0
    3.4490   58.7120   71.2940 C   0  0  0  0  0  0  0  0  0  0  0  0
    1.2349   64.7492   72.0917 H   0  0  0  0  0  0  0  0  0  0  0  0
    0.2823   60.9981   71.2812 H   0  0  0  0  0  0  0  0  0  0  0  0
    1.6314   60.7942   72.3936 H   0  0  0  0  0  0  0  0  0  0  0  0
   -2.0827   62.7866   75.6296 H   0  0  0  0  0  0  0  0  0  0  0  0
   -2.7831   58.3934   77.1558 H   0  0  0  0  0  0  0  0  0  0  0  0
   -4.1120   58.6032   75.9210 H   0  0  0  0  0  0  0  0  0  0  0  0
   -0.3970   58.7144   73.1237 H   0  0  0  0  0  0  0  0  0  0  0  0
    2.3415   64.6198   70.0854 H   0  0  0  0  0  0  0  0  0  0  0  0
    4.2092   64.4724   71.6269 H   0  0  0  0  0  0  0  0  0  0  0  0
    3.7584   62.7766   72.0987 H   0  0  0  0  0  0  0  0  0  0  0  0
    4.9501   63.6043   69.4221 H   0  0  0  0  0  0  0  0  0  0  0  0
    5.8535   62.8627   70.7933 H   0  0  0  0  0  0  0  0  0  0  0  0
    4.7784   61.5242   68.8502 H   0  0  0  0  0  0  0  0  0  0  0  0
    2.7174   60.6112   68.9983 H   0  0  0  0  0  0  0  0  0  0  0  0
    2.6207   60.9601   70.7613 H   0  0  0  0  0  0  0  0  0  0  0  0
    2.6574   63.0723   68.5561 H   0  0  0  0  0  0  0  0  0  0  0  0
    1.1771   62.4545   69.3961 H   0  0  0  0  0  0  0  0  0  0  0  0
    5.4395   59.6543   69.8305 H   0  0  0  0  0  0  0  0  0  0  0  0
    6.0330   60.8530   71.0678 H   0  0  0  0  0  0  0  0  0  0  0  0
    4.9663   61.1031   73.2081 H   0  0  0  0  0  0  0  0  0  0  0  0
    3.5681   60.0134   74.9573 H   0  0  0  0  0  0  0  0  0  0  0  0
    2.0921   58.0950   74.3636 H   0  0  0  0  0  0  0  0  0  0  0  0
    2.0087   57.2649   72.0169 H   0  0  0  0  0  0  0  0  0  0  0  0
    3.4084   58.3412   70.2592 H   0  0  0  0  0  0  0  0  0  0  0  0
  2  1  2  0
  3  2  1  0
  4  3  2  0
  5  3  1  0
  6  5  1  0
  7  2  1  0
  7  6  2  0
  8  7  1  0
  9  8  2  0
 10  9  1  0
 11 10  1  0
 12 11  1  0
 13 12  1  0
 13  9  1  0
 14 13  2  0
 14  6  1  0
 15  4  1  0
 16 15  1  0
 17 16  1  0
 18 17  1  0
 19 18  1  0
 20 19  1  0
 20 15  1  0
 21 18  1  0
 22 21  1  0
 23 22  2  0
 24 23  1  0
 25 24  2  0
 26 25  1  0
 27 26  2  0
 27 22  1  0
  4 28  1  0
  5 29  1  0
  5 30  1  0
  8 31  1  0
 11 32  1  0
 11 33  1  0
 14 34  1  0
 15 35  1  0
 16 36  1  0
 16 37  1  0
 17 38  1  0
 17 39  1  0
 18 40  1  0
 19 41  1  0
 19 42  1  0
 20 43  1  0
 20 44  1  0
 21 45  1  0
 21 46  1  0
 23 47  1  0
 24 48  1  0
 25 49  1  0
 26 50  1  0
 27 51  1  0
M  CHG  1  18   1
M  END
>  <score>  (7) 
-8.997

$$$$
=
     RDKit          3D

 51 55  0  0  0  0  0  0  0  0999 V2000
    3.8790   58.4740   75.4890 O   0  0  0  0  0  0  0  0  0  0  0  0
    3.0630   58.1930   74.6340 C   0  0  0  0  0  0  0  0  0  0  0  0
    3.1210   58.5820   73.1790 C   0  0  0  0  0  0  0  0  0  0  0  0
    4.1480   59.3330   72.7490 C   0  0  0  0  0  0  0  0  0  0  0  0
    1.9120   57.9870   72.5000 C   0  0  0  0  0  0  0  0  0  0  0  0
    1.1940   57.2550   73.5930 C   0  0  0  0  0  0  0  0  0  0  0  0
    1.8590   57.3840   74.8250 C   0  0  0  0  0  0  0  0  0  0  0  0
    1.4040   56.8070   75.9990 C   0  0  0  0  0  0  0  0  0  0  0  0
    0.2350   56.0860   75.8820 C   0  0  0  0  0  0  0  0  0  0  0  0
   -0.3960   55.4350   76.8950 O   0  0  0  0  0  0  0  0  0  0  0  0
   -1.5380   54.8850   76.2070 C   0  0  0  0  0  0  0  0  0  0  0  0
   -1.5630   55.1970   74.7970 O   0  0  0  0  0  0  0  0  0  0  0  0
   -0.4350   55.9490   74.6770 C   0  0  0  0  0  0  0  0  0  0  0  0
    0.0170   56.5240   73.5020 C   0  0  0  0  0  0  0  0  0  0  0  0
    4.5390   59.8690   71.3880 C   0  0  0  0  0  0  0  0  0  0  0  0
    3.2500   60.3640   70.6920 C   0  0  0  0  0  0  0  0  0  0  0  0
    3.5420   61.3490   69.5730 C   0  0  0  0  0  0  0  0  0  0  0  0
    4.2160   62.5870   70.1300 N   0  0  0  0  0  4  0  0  0  0  0  0
    5.0710   62.3370   71.3530 C   0  0  0  0  0  0  0  0  0  0  0  0
    5.6460   60.9330   71.3040 C   0  0  0  0  0  0  0  0  0  0  0  0
    3.2670   63.7520   70.3490 C   0  0  0  0  0  0  0  0  0  0  0  0
    2.0620   63.3790   71.1680 C   0  0  0  0  0  0  0  0  0  0  0  0
    0.7860   63.3380   70.5860 C   0  0  0  0  0  0  0  0  0  0  0  0
   -0.3320   63.0140   71.3550 C   0  0  0  0  0  0  0  0  0  0  0  0
   -0.1880   62.7250   72.7110 C   0  0  0  0  0  0  0  0  0  0  0  0
    1.0740   62.7540   73.2990 C   0  0  0  0  0  0  0  0  0  0  0  0
    2.1950   63.0780   72.5340 C   0  0  0  0  0  0  0  0  0  0  0  0
    4.8480   59.6166   73.5488 H   0  0  0  0  0  0  0  0  0  0  0  0
    1.2747   58.7774   72.0769 H   0  0  0  0  0  0  0  0  0  0  0  0
    2.1833   57.3283   71.6618 H   0  0  0  0  0  0  0  0  0  0  0  0
    1.9367   56.9162   76.9552 H   0  0  0  0  0  0  0  0  0  0  0  0
   -1.5208   53.7911   76.3219 H   0  0  0  0  0  0  0  0  0  0  0  0
   -2.4355   55.3360   76.6554 H   0  0  0  0  0  0  0  0  0  0  0  0
   -0.5246   56.4086   72.5515 H   0  0  0  0  0  0  0  0  0  0  0  0
    5.0190   59.0199   70.8794 H   0  0  0  0  0  0  0  0  0  0  0  0
    2.7199   59.4970   70.2710 H   0  0  0  0  0  0  0  0  0  0  0  0
    2.6379   60.8816   71.4453 H   0  0  0  0  0  0  0  0  0  0  0  0
    4.2056   60.8746   68.8350 H   0  0  0  0  0  0  0  0  0  0  0  0
    2.5955   61.6397   69.0938 H   0  0  0  0  0  0  0  0  0  0  0  0
    4.8641   62.8630   69.3785 H   0  0  0  0  0  0  0  0  0  0  0  0
    5.8934   63.0671   71.3784 H   0  0  0  0  0  0  0  0  0  0  0  0
    4.4513   62.4429   72.2556 H   0  0  0  0  0  0  0  0  0  0  0  0
    6.1951   60.8041   70.3596 H   0  0  0  0  0  0  0  0  0  0  0  0
    6.3162   60.8035   72.1666 H   0  0  0  0  0  0  0  0  0  0  0  0
    3.8104   64.5544   70.8694 H   0  0  0  0  0  0  0  0  0  0  0  0
    2.9075   64.0753   69.3609 H   0  0  0  0  0  0  0  0  0  0  0  0
    0.6663   63.5629   69.5159 H   0  0  0  0  0  0  0  0  0  0  0  0
   -1.3287   62.9866   70.8905 H   0  0  0  0  0  0  0  0  0  0  0  0
   -1.0713   62.4740   73.3167 H   0  0  0  0  0  0  0  0  0  0  0  0
    1.1873   62.5211   74.3681 H   0  0  0  0  0  0  0  0  0  0  0  0
    3.1896   63.0979   73.0035 H   0  0  0  0  0  0  0  0  0  0  0  0
  2  1  2  0
  3  2  1  0
  4  3  2  0
  5  3  1  0
  6  5  1  0
  7  2  1  0
  7  6  2  0
  8  7  1  0
  9  8  2  0
 10  9  1  0
 11 10  1  0
 12 11  1  0
 13 12  1  0
 13  9  1  0
 14 13  2  0
 14  6  1  0
 15  4  1  0
 16 15  1  0
 17 16  1  0
 18 17  1  0
 19 18  1  0
 20 19  1  0
 20 15  1  0
 21 18  1  0
 22 21  1  0
 23 22  2  0
 24 23  1  0
 25 24  2  0
 26 25  1  0
 27 26  2  0
 27 22  1  0
  4 28  1  0
  5 29  1  0
  5 30  1  0
  8 31  1  0
 11 32  1  0
 11 33  1  0
 14 34  1  0
 15 35  1  0
 16 36  1  0
 16 37  1  0
 17 38  1  0
 17 39  1  0
 18 40  1  0
 19 41  1  0
 19 42  1  0
 20 43  1  0
 20 44  1  0
 21 45  1  0
 21 46  1  0
 23 47  1  0
 24 48  1  0
 25 49  1  0
 26 50  1  0
 27 51  1  0
M  CHG  1  18   1
M  END
>  <score>  (8) 
-8.997

$$$$
=
     RDKit          3D

 51 55  0  0  0  0  0  0  0  0999 V2000
    2.3670   57.6720   72.7230 O   0  0  0  0  0  0  0  0  0  0  0  0
    1.3120   57.6200   73.3230 C   0  0  0  0  0  0  0  0  0  0  0  0
    0.4460   58.7910   73.7120 C   0  0  0  0  0  0  0  0  0  0  0  0
    0.8560   60.0320   73.4030 C   0  0  0  0  0  0  0  0  0  0  0  0
   -0.7710   58.2420   74.4150 C   0  0  0  0  0  0  0  0  0  0  0  0
   -0.5740   56.7570   74.3970 C   0  0  0  0  0  0  0  0  0  0  0  0
    0.6350   56.4040   73.7720 C   0  0  0  0  0  0  0  0  0  0  0  0
    1.0610   55.0940   73.6250 C   0  0  0  0  0  0  0  0  0  0  0  0
    0.2100   54.1410   74.1420 C   0  0  0  0  0  0  0  0  0  0  0  0
    0.4190   52.7970   74.1140 O   0  0  0  0  0  0  0  0  0  0  0  0
   -0.7600   52.3160   74.7910 C   0  0  0  0  0  0  0  0  0  0  0  0
   -1.6600   53.3700   75.1950 O   0  0  0  0  0  0  0  0  0  0  0  0
   -0.9840   54.4700   74.7630 C   0  0  0  0  0  0  0  0  0  0  0  0
   -1.4130   55.7770   74.9100 C   0  0  0  0  0  0  0  0  0  0  0  0
    0.2450   61.4030   73.6030 C   0  0  0  0  0  0  0  0  0  0  0  0
    1.4000   62.4320   73.6240 C   0  0  0  0  0  0  0  0  0  0  0  0
    0.9210   63.8410   73.3230 C   0  0  0  0  0  0  0  0  0  0  0  0
    0.3310   63.9050   71.9280 N   0  0  0  0  0  4  0  0  0  0  0  0
   -0.3130   62.6180   71.4610 C   0  0  0  0  0  0  0  0  0  0  0  0
   -0.8730   61.8590   72.6510 C   0  0  0  0  0  0  0  0  0  0  0  0
    1.2890   64.4520   70.8850 C   0  0  0  0  0  0  0  0  0  0  0  0
    2.3610   63.4680   70.5020 C   0  0  0  0  0  0  0  0  0  0  0  0
    2.0610   62.3620   69.6930 C   0  0  0  0  0  0  0  0  0  0  0  0
    3.0540   61.4400   69.3590 C   0  0  0  0  0  0  0  0  0  0  0  0
    4.3550   61.6140   69.8250 C   0  0  0  0  0  0  0  0  0  0  0  0
    4.6680   62.7130   70.6210 C   0  0  0  0  0  0  0  0  0  0  0  0
    3.6790   63.6380   70.9590 C   0  0  0  0  0  0  0  0  0  0  0  0
    1.8353   60.0578   72.9026 H   0  0  0  0  0  0  0  0  0  0  0  0
   -0.8248   58.6149   75.4485 H   0  0  0  0  0  0  0  0  0  0  0  0
   -1.7092   58.5463   73.9280 H   0  0  0  0  0  0  0  0  0  0  0  0
    2.0091   54.8335   73.1318 H   0  0  0  0  0  0  0  0  0  0  0  0
   -1.2991   51.6381   74.1129 H   0  0  0  0  0  0  0  0  0  0  0  0
   -0.4237   51.8077   75.7067 H   0  0  0  0  0  0  0  0  0  0  0  0
   -2.3636   56.0253   75.4046 H   0  0  0  0  0  0  0  0  0  0  0  0
   -0.3010   61.3303   74.5552 H   0  0  0  0  0  0  0  0  0  0  0  0
    1.8650   62.4217   74.6208 H   0  0  0  0  0  0  0  0  0  0  0  0
    2.1196   62.1467   72.8425 H   0  0  0  0  0  0  0  0  0  0  0  0
    0.1530   64.1284   74.0562 H   0  0  0  0  0  0  0  0  0  0  0  0
    1.7748   64.5318   73.3843 H   0  0  0  0  0  0  0  0  0  0  0  0
   -0.4328   64.5891   72.0250 H   0  0  0  0  0  0  0  0  0  0  0  0
   -1.1285   62.8514   70.7606 H   0  0  0  0  0  0  0  0  0  0  0  0
    0.4426   61.9966   70.9580 H   0  0  0  0  0  0  0  0  0  0  0  0
   -1.5651   62.5145   73.1999 H   0  0  0  0  0  0  0  0  0  0  0  0
   -1.3947   60.9657   72.2771 H   0  0  0  0  0  0  0  0  0  0  0  0
    0.7149   64.7140   69.9841 H   0  0  0  0  0  0  0  0  0  0  0  0
    1.7873   65.3298   71.3222 H   0  0  0  0  0  0  0  0  0  0  0  0
    1.0361   62.2205   69.3193 H   0  0  0  0  0  0  0  0  0  0  0  0
    2.8087   60.5741   68.7265 H   0  0  0  0  0  0  0  0  0  0  0  0
    5.1350   60.8835   69.5643 H   0  0  0  0  0  0  0  0  0  0  0  0
    5.6969   62.8524   70.9841 H   0  0  0  0  0  0  0  0  0  0  0  0
    3.9326   64.5050   71.5867 H   0  0  0  0  0  0  0  0  0  0  0  0
  2  1  2  0
  3  2  1  0
  4  3  2  0
  5  3  1  0
  6  5  1  0
  7  2  1  0
  7  6  2  0
  8  7  1  0
  9  8  2  0
 10  9  1  0
 11 10  1  0
 12 11  1  0
 13 12  1  0
 13  9  1  0
 14 13  2  0
 14  6  1  0
 15  4  1  0
 16 15  1  0
 17 16  1  0
 18 17  1  0
 19 18  1  0
 20 19  1  0
 20 15  1  0
 21 18  1  0
 22 21  1  0
 23 22  2  0
 24 23  1  0
 25 24  2  0
 26 25  1  0
 27 26  2  0
 27 22  1  0
  4 28  1  0
  5 29  1  0
  5 30  1  0
  8 31  1  0
 11 32  1  0
 11 33  1  0
 14 34  1  0
 15 35  1  0
 16 36  1  0
 16 37  1  0
 17 38  1  0
 17 39  1  0
 18 40  1  0
 19 41  1  0
 19 42  1  0
 20 43  1  0
 20 44  1  0
 21 45  1  0
 21 46  1  0
 23 47  1  0
 24 48  1  0
 25 49  1  0
 26 50  1  0
 27 51  1  0
M  CHG  1  18   1
M  END
>  <score>  (9) 
-8.831

$$$$
