=
     RDKit          3D

 56 59  0  0  0  0  0  0  0  0999 V2000
   -0.0500   67.2060   68.4060 C   0  0  0  0  0  0  0  0  0  0  0  0
   -1.1890   66.8260   68.1160 O   0  0  0  0  0  0  0  0  0  0  0  0
    4.5900   69.4490   64.8790 C   0  0  0  0  0  0  0  0  0  0  0  0
    3.4420   68.6570   64.7630 C   0  0  0  0  0  0  0  0  0  0  0  0
    2.6410   68.4720   65.8790 C   0  0  0  0  0  0  0  0  0  0  0  0
    1.1550   67.5160   65.9590 S   0  0  0  0  0  0  0  0  0  0  0  0
    0.7040   68.2330   67.5770 C   0  0  2  0  0  0  0  0  0  0  0  0
    2.0200   68.6950   68.2250 C   0  0  0  0  0  0  0  0  0  0  0  0
    2.9570   69.0530   67.1060 C   0  0  0  0  0  0  0  0  0  0  0  0
    4.1020   69.8310   67.2410 C   0  0  0  0  0  0  0  0  0  0  0  0
    4.9230   70.0390   66.1250 C   0  0  0  0  0  0  0  0  0  0  0  0
    5.6460   68.6910   62.8700 C   0  0  0  0  0  0  0  0  0  0  0  0
    5.4580   69.7050   63.8460 O   0  0  0  0  0  0  0  0  0  0  0  0
    6.0730   70.7880   66.1420 O   0  0  0  0  0  0  0  0  0  0  0  0
    6.7760   70.9000   67.3710 C   0  0  0  0  0  0  0  0  0  0  0  0
    0.6390   66.6570   69.6480 C   0  0  0  0  0  0  0  0  0  0  0  0
    0.0170   65.3560   70.1600 C   0  0  0  0  0  0  0  0  0  0  0  0
    1.0040   64.4550   70.8620 C   0  0  0  0  0  0  0  0  0  0  0  0
    0.6470   63.7960   72.0390 C   0  0  0  0  0  0  0  0  0  0  0  0
    1.5240   62.8840   72.6140 C   0  0  0  0  0  0  0  0  0  0  0  0
    2.7270   62.6370   72.0520 N   0  0  0  0  0  4  0  0  0  0  0  0
    3.1090   63.2880   70.9280 C   0  0  0  0  0  0  0  0  0  0  0  0
    2.2610   64.2010   70.3130 C   0  0  0  0  0  0  0  0  0  0  0  0
    3.6390   61.6420   72.6680 C   0  0  0  0  0  0  0  0  0  0  0  0
    3.2840   60.2320   72.2700 C   0  0  0  0  0  0  0  0  0  0  0  0
    2.4660   59.4290   73.0810 C   0  0  0  0  0  0  0  0  0  0  0  0
    2.1540   58.1230   72.6990 C   0  0  0  0  0  0  0  0  0  0  0  0
    2.6650   57.6010   71.5130 C   0  0  0  0  0  0  0  0  0  0  0  0
    3.4900   58.3810   70.7070 C   0  0  0  0  0  0  0  0  0  0  0  0
    3.8030   59.6880   71.0840 C   0  0  0  0  0  0  0  0  0  0  0  0
    3.1798   68.1893   63.8025 H   0  0  0  0  0  0  0  0  0  0  0  0
    0.0244   69.0932   67.4865 H   0  0  0  0  0  0  0  0  0  0  0  0
    1.8396   69.5731   68.8625 H   0  0  0  0  0  0  0  0  0  0  0  0
    2.4468   67.9020   68.8567 H   0  0  0  0  0  0  0  0  0  0  0  0
    4.3599   70.2777   68.2126 H   0  0  0  0  0  0  0  0  0  0  0  0
    5.8245   67.7282   63.3712 H   0  0  0  0  0  0  0  0  0  0  0  0
    4.7465   68.6159   62.2413 H   0  0  0  0  0  0  0  0  0  0  0  0
    6.5127   68.9433   62.2413 H   0  0  0  0  0  0  0  0  0  0  0  0
    6.0712   70.7877   68.2081 H   0  0  0  0  0  0  0  0  0  0  0  0
    7.5419   70.1126   67.4284 H   0  0  0  0  0  0  0  0  0  0  0  0
    7.2593   71.8865   67.4284 H   0  0  0  0  0  0  0  0  0  0  0  0
    1.6953   66.4676   69.4064 H   0  0  0  0  0  0  0  0  0  0  0  0
    0.5240   67.4082   70.4433 H   0  0  0  0  0  0  0  0  0  0  0  0
   -0.7878   65.6086   70.8660 H   0  0  0  0  0  0  0  0  0  0  0  0
   -0.3563   64.8074   69.2827 H   0  0  0  0  0  0  0  0  0  0  0  0
   -0.3261   63.9978   72.5105 H   0  0  0  0  0  0  0  0  0  0  0  0
    1.2355   62.3581   73.5360 H   0  0  0  0  0  0  0  0  0  0  0  0
    4.1018   63.0920   70.4968 H   0  0  0  0  0  0  0  0  0  0  0  0
    2.5794   64.7210   69.3975 H   0  0  0  0  0  0  0  0  0  0  0  0
    4.6684   61.8545   72.3438 H   0  0  0  0  0  0  0  0  0  0  0  0
    3.5429   61.7222   73.7609 H   0  0  0  0  0  0  0  0  0  0  0  0
    2.0682   59.8319   74.0241 H   0  0  0  0  0  0  0  0  0  0  0  0
    1.5036   57.5052   73.3356 H   0  0  0  0  0  0  0  0  0  0  0  0
    2.4167   56.5722   71.2131 H   0  0  0  0  0  0  0  0  0  0  0  0
    3.8955   57.9668   69.7721 H   0  0  0  0  0  0  0  0  0  0  0  0
    4.4615   60.2967   70.4470 H   0  0  0  0  0  0  0  0  0  0  0  0
  2  1  2  0
  4  3  2  0
  5  4  1  0
  6  5  1  0
  7  6  1  0
  7  1  1  0
  8  7  1  0
  9  8  1  0
  9  5  2  0
 10  9  1  0
 11  3  1  0
 11 10  2  0
 13  3  1  0
 13 12  1  0
 14 11  1  0
 15 14  1  0
 16  1  1  0
 17 16  1  0
 18 17  1  0
 19 18  2  0
 20 19  1  0
 21 20  2  0
 22 21  1  0
 23 22  2  0
 23 18  1  0
 24 21  1  0
 25 24  1  0
 26 25  2  0
 27 26  1  0
 28 27  2  0
 29 28  1  0
 30 29  2  0
 30 25  1  0
  4 31  1  0
  7 32  1  6
  8 33  1  0
  8 34  1  0
 10 35  1  0
 12 36  1  0
 12 37  1  0
 12 38  1  0
 15 39  1  0
 15 40  1  0
 15 41  1  0
 16 42  1  0
 16 43  1  0
 17 44  1  0
 17 45  1  0
 19 46  1  0
 20 47  1  0
 22 48  1  0
 23 49  1  0
 24 50  1  0
 24 51  1  0
 26 52  1  0
 27 53  1  0
 28 54  1  0
 29 55  1  0
 30 56  1  0
M  CHG  1  21   1
M  END
>  <score>  (1) 
-10.354

$$$$
=
     RDKit          3D

 56 59  0  0  0  0  0  0  0  0999 V2000
    1.5510   62.8750   71.0990 C   0  0  0  0  0  0  0  0  0  0  0  0
    1.9240   62.6870   69.9350 O   0  0  0  0  0  0  0  0  0  0  0  0
    1.2610   57.1190   73.5050 C   0  0  0  0  0  0  0  0  0  0  0  0
    2.1250   57.9260   72.7550 C   0  0  0  0  0  0  0  0  0  0  0  0
    1.7620   59.2390   72.4990 C   0  0  0  0  0  0  0  0  0  0  0  0
    2.6950   60.4260   71.5780 S   0  0  0  0  0  0  0  0  0  0  0  0
    1.6500   61.8020   72.1710 C   0  0  2  0  0  0  0  0  0  0  0  0
    0.2930   61.1820   72.5430 C   0  0  0  0  0  0  0  0  0  0  0  0
    0.5600   59.7660   72.9680 C   0  0  0  0  0  0  0  0  0  0  0  0
   -0.3160   58.9730   73.7020 C   0  0  0  0  0  0  0  0  0  0  0  0
    0.0330   57.6450   73.9810 C   0  0  0  0  0  0  0  0  0  0  0  0
    2.3580   55.5420   74.9310 C   0  0  0  0  0  0  0  0  0  0  0  0
    1.5120   55.8070   73.8220 O   0  0  0  0  0  0  0  0  0  0  0  0
   -0.7520   56.7750   74.6960 O   0  0  0  0  0  0  0  0  0  0  0  0
   -1.6410   57.3190   75.6590 C   0  0  0  0  0  0  0  0  0  0  0  0
    0.9870   64.2300   71.5050 C   0  0  0  0  0  0  0  0  0  0  0  0
   -0.1430   64.7130   70.5940 C   0  0  0  0  0  0  0  0  0  0  0  0
    0.2420   65.8910   69.7330 C   0  0  0  0  0  0  0  0  0  0  0  0
   -0.6390   66.3790   68.7670 C   0  0  0  0  0  0  0  0  0  0  0  0
   -0.3200   67.5300   68.0580 C   0  0  0  0  0  0  0  0  0  0  0  0
    0.8440   68.1790   68.2850 N   0  0  0  0  0  4  0  0  0  0  0  0
    1.7290   67.7070   69.1950 C   0  0  0  0  0  0  0  0  0  0  0  0
    1.4470   66.5630   69.9340 C   0  0  0  0  0  0  0  0  0  0  0  0
    1.1560   69.4200   67.5360 C   0  0  0  0  0  0  0  0  0  0  0  0
    2.6390   69.5940   67.3280 C   0  0  0  0  0  0  0  0  0  0  0  0
    3.4490   70.1930   68.3070 C   0  0  0  0  0  0  0  0  0  0  0  0
    4.8190   70.3520   68.0930 C   0  0  0  0  0  0  0  0  0  0  0  0
    5.3930   69.9260   66.8970 C   0  0  0  0  0  0  0  0  0  0  0  0
    4.6000   69.3430   65.9130 C   0  0  0  0  0  0  0  0  0  0  0  0
    3.2300   69.1810   66.1230 C   0  0  0  0  0  0  0  0  0  0  0  0
    3.0762   57.5247   72.3752 H   0  0  0  0  0  0  0  0  0  0  0  0
    2.0706   62.3065   73.0534 H   0  0  0  0  0  0  0  0  0  0  0  0
   -0.1657   61.7446   73.3695 H   0  0  0  0  0  0  0  0  0  0  0  0
   -0.4001   61.2121   71.6893 H   0  0  0  0  0  0  0  0  0  0  0  0
   -1.2718   59.3838   74.0593 H   0  0  0  0  0  0  0  0  0  0  0  0
    1.8034   55.7157   75.8650 H   0  0  0  0  0  0  0  0  0  0  0  0
    2.6945   54.4954   74.8936 H   0  0  0  0  0  0  0  0  0  0  0  0
    3.2315   56.2096   74.8936 H   0  0  0  0  0  0  0  0  0  0  0  0
   -1.2704   57.0922   76.6695 H   0  0  0  0  0  0  0  0  0  0  0  0
   -1.7021   58.4093   75.5270 H   0  0  0  0  0  0  0  0  0  0  0  0
   -2.6397   56.8772   75.5270 H   0  0  0  0  0  0  0  0  0  0  0  0
    0.5992   64.1533   72.5315 H   0  0  0  0  0  0  0  0  0  0  0  0
    1.8052   64.9607   71.4243 H   0  0  0  0  0  0  0  0  0  0  0  0
   -0.4394   63.8827   69.9362 H   0  0  0  0  0  0  0  0  0  0  0  0
   -0.9661   65.0425   71.2451 H   0  0  0  0  0  0  0  0  0  0  0  0
   -1.5843   65.8531   68.5674 H   0  0  0  0  0  0  0  0  0  0  0  0
   -1.0214   67.9173   67.3043 H   0  0  0  0  0  0  0  0  0  0  0  0
    2.6816   68.2344   69.3514 H   0  0  0  0  0  0  0  0  0  0  0  0
    2.1711   66.1902   70.6734 H   0  0  0  0  0  0  0  0  0  0  0  0
    0.6620   69.3763   66.5541 H   0  0  0  0  0  0  0  0  0  0  0  0
    0.7922   70.2744   68.1257 H   0  0  0  0  0  0  0  0  0  0  0  0
    3.0001   70.5394   69.2496 H   0  0  0  0  0  0  0  0  0  0  0  0
    5.4463   70.8142   68.8695 H   0  0  0  0  0  0  0  0  0  0  0  0
    6.4732   70.0505   66.7305 H   0  0  0  0  0  0  0  0  0  0  0  0
    5.0539   69.0094   64.9682 H   0  0  0  0  0  0  0  0  0  0  0  0
    2.6079   68.7260   65.3382 H   0  0  0  0  0  0  0  0  0  0  0  0
  2  1  2  0
  4  3  2  0
  5  4  1  0
  6  5  1  0
  7  6  1  0
  7  1  1  0
  8  7  1  0
  9  8  1  0
  9  5  2  0
 10  9  1  0
 11  3  1  0
 11 10  2  0
 13  3  1  0
 13 12  1  0
 14 11  1  0
 15 14  1  0
 16  1  1  0
 17 16  1  0
 18 17  1  0
 19 18  2  0
 20 19  1  0
 21 20  2  0
 22 21  1  0
 23 22  2  0
 23 18  1  0
 24 21  1  0
 25 24  1  0
 26 25  2  0
 27 26  1  0
 28 27  2  0
 29 28  1  0
 30 29  2  0
 30 25  1  0
  4 31  1  0
  7 32  1  1
  8 33  1  0
  8 34  1  0
 10 35  1  0
 12 36  1  0
 12 37  1  0
 12 38  1  0
 15 39  1  0
 15 40  1  0
 15 41  1  0
 16 42  1  0
 16 43  1  0
 17 44  1  0
 17 45  1  0
 19 46  1  0
 20 47  1  0
 22 48  1  0
 23 49  1  0
 24 50  1  0
 24 51  1  0
 26 52  1  0
 27 53  1  0
 28 54  1  0
 29 55  1  0
 30 56  1  0
M  CHG  1  21   1
M  END
>  <score>  (2) 
-9.11

$$$$
=
     RDKit          3D

 56 59  0  0  0  0  0  0  0  0999 V2000
    1.6590   63.5130   71.1160 C   0  0  0  0  0  0  0  0  0  0  0  0
    2.7210   63.9440   70.6530 O   0  0  0  0  0  0  0  0  0  0  0  0
    0.8510   57.8120   73.5320 C   0  0  0  0  0  0  0  0  0  0  0  0
    1.8150   58.5580   72.8450 C   0  0  0  0  0  0  0  0  0  0  0  0
    1.5500   59.8870   72.5530 C   0  0  0  0  0  0  0  0  0  0  0  0
    2.6190   61.0090   71.6990 S   0  0  0  0  0  0  0  0  0  0  0  0
    1.6130   62.4490   72.2000 C   0  0  2  0  0  0  0  0  0  0  0  0
    0.1980   61.9130   72.4710 C   0  0  0  0  0  0  0  0  0  0  0  0
    0.3490   60.4890   72.9240 C   0  0  0  0  0  0  0  0  0  0  0  0
   -0.6260   59.7560   73.5940 C   0  0  0  0  0  0  0  0  0  0  0  0
   -0.3770   58.4130   73.9080 C   0  0  0  0  0  0  0  0  0  0  0  0
    2.0570   56.1500   74.7600 C   0  0  0  0  0  0  0  0  0  0  0  0
    0.9990   56.4910   73.8760 O   0  0  0  0  0  0  0  0  0  0  0  0
   -1.2640   57.5980   74.5660 O   0  0  0  0  0  0  0  0  0  0  0  0
   -1.6550   57.9630   75.8810 C   0  0  0  0  0  0  0  0  0  0  0  0
    0.3330   64.0690   70.6150 C   0  0  0  0  0  0  0  0  0  0  0  0
    0.1430   65.5550   70.9270 C   0  0  0  0  0  0  0  0  0  0  0  0
    0.2890   66.4460   69.7170 C   0  0  0  0  0  0  0  0  0  0  0  0
    1.4360   67.2220   69.5450 C   0  0  0  0  0  0  0  0  0  0  0  0
    1.6080   67.9520   68.3760 C   0  0  0  0  0  0  0  0  0  0  0  0
    0.6690   67.9280   67.4040 N   0  0  0  0  0  4  0  0  0  0  0  0
   -0.4680   67.2080   67.5620 C   0  0  0  0  0  0  0  0  0  0  0  0
   -0.6770   66.4560   68.7120 C   0  0  0  0  0  0  0  0  0  0  0  0
    0.8810   68.6940   66.1520 C   0  0  0  0  0  0  0  0  0  0  0  0
    2.1600   68.2970   65.4610 C   0  0  0  0  0  0  0  0  0  0  0  0
    2.3170   67.0230   64.8920 C   0  0  0  0  0  0  0  0  0  0  0  0
    3.5130   66.6710   64.2620 C   0  0  0  0  0  0  0  0  0  0  0  0
    4.5660   67.5810   64.2040 C   0  0  0  0  0  0  0  0  0  0  0  0
    4.4290   68.8420   64.7770 C   0  0  0  0  0  0  0  0  0  0  0  0
    3.2350   69.1990   65.4060 C   0  0  0  0  0  0  0  0  0  0  0  0
    2.7670   58.0977   72.5418 H   0  0  0  0  0  0  0  0  0  0  0  0
    1.9933   62.9383   73.1088 H   0  0  0  0  0  0  0  0  0  0  0  0
   -0.2885   62.5100   73.2564 H   0  0  0  0  0  0  0  0  0  0  0  0
   -0.4255   61.9740   71.5668 H   0  0  0  0  0  0  0  0  0  0  0  0
   -1.5808   60.2252   73.8738 H   0  0  0  0  0  0  0  0  0  0  0  0
    1.7158   56.2600   75.7999 H   0  0  0  0  0  0  0  0  0  0  0  0
    2.3618   55.1081   74.5824 H   0  0  0  0  0  0  0  0  0  0  0  0
    2.9129   56.8178   74.5824 H   0  0  0  0  0  0  0  0  0  0  0  0
   -1.0538   57.4017   76.6114 H   0  0  0  0  0  0  0  0  0  0  0  0
   -1.4942   59.0416   76.0253 H   0  0  0  0  0  0  0  0  0  0  0  0
   -2.7200   57.7285   76.0253 H   0  0  0  0  0  0  0  0  0  0  0  0
    0.2869   63.9326   69.5245 H   0  0  0  0  0  0  0  0  0  0  0  0
   -0.4670   63.5220   71.1354 H   0  0  0  0  0  0  0  0  0  0  0  0
   -0.8645   65.6973   71.3451 H   0  0  0  0  0  0  0  0  0  0  0  0
    0.9327   65.8408   71.6375 H   0  0  0  0  0  0  0  0  0  0  0  0
    2.2022   67.2555   70.3335 H   0  0  0  0  0  0  0  0  0  0  0  0
    2.5174   68.5557   68.2398 H   0  0  0  0  0  0  0  0  0  0  0  0
   -1.2334   67.2188   66.7720 H   0  0  0  0  0  0  0  0  0  0  0  0
   -1.6012   65.8709   68.8287 H   0  0  0  0  0  0  0  0  0  0  0  0
    0.0365   68.5061   65.4727 H   0  0  0  0  0  0  0  0  0  0  0  0
    0.9505   69.7605   66.4121 H   0  0  0  0  0  0  0  0  0  0  0  0
    1.4923   66.2969   64.9427 H   0  0  0  0  0  0  0  0  0  0  0  0
    3.6234   65.6738   63.8111 H   0  0  0  0  0  0  0  0  0  0  0  0
    5.5061   67.3029   63.7052 H   0  0  0  0  0  0  0  0  0  0  0  0
    5.2627   69.5583   64.7342 H   0  0  0  0  0  0  0  0  0  0  0  0
    3.1354   70.1949   65.8623 H   0  0  0  0  0  0  0  0  0  0  0  0
  2  1  2  0
  4  3  2  0
  5  4  1  0
  6  5  1  0
  7  6  1  0
  7  1  1  0
  8  7  1  0
  9  8  1  0
  9  5  2  0
 10  9  1  0
 11  3  1  0
 11 10  2  0
 13  3  1  0
 13 12  1  0
 14 11  1  0
 15 14  1  0
 16  1  1  0
 17 16  1  0
 18 17  1  0
 19 18  2  0
 20 19  1  0
 21 20  2  0
 22 21  1  0
 23 22  2  0
 23 18  1  0
 24 21  1  0
 25 24  1  0
 26 25  2  0
 27 26  1  0
 28 27  2  0
 29 28  1  0
 30 29  2  0
 30 25  1  0
  4 31  1  0
  7 32  1  1
  8 33  1  0
  8 34  1  0
 10 35  1  0
 12 36  1  0
 12 37  1  0
 12 38  1  0
 15 39  1  0
 15 40  1  0
 15 41  1  0
 16 42  1  0
 16 43  1  0
 17 44  1  0
 17 45  1  0
 19 46  1  0
 20 47  1  0
 22 48  1  0
 23 49  1  0
 24 50  1  0
 24 51  1  0
 26 52  1  0
 27 53  1  0
 28 54  1  0
 29 55  1  0
 30 56  1  0
M  CHG  1  21   1
M  END
>  <score>  (3) 
-9.011

$$$$
=
     RDKit          3D

 56 59  0  0  0  0  0  0  0  0999 V2000
    0.0820   65.2430   71.7020 C   0  0  0  0  0  0  0  0  0  0  0  0
   -0.5180   65.9050   72.5560 O   0  0  0  0  0  0  0  0  0  0  0  0
    3.4260   60.0890   72.8250 C   0  0  0  0  0  0  0  0  0  0  0  0
    2.7600   61.1080   73.5170 C   0  0  0  0  0  0  0  0  0  0  0  0
    2.0640   62.0650   72.7940 C   0  0  0  0  0  0  0  0  0  0  0  0
    1.1590   63.4310   73.4600 S   0  0  0  0  0  0  0  0  0  0  0  0
    0.3440   63.7540   71.8570 C   0  0  2  0  0  0  0  0  0  0  0  0
    1.2770   63.1820   70.7770 C   0  0  0  0  0  0  0  0  0  0  0  0
    2.0170   62.0330   71.4020 C   0  0  0  0  0  0  0  0  0  0  0  0
    2.6850   61.0360   70.6990 C   0  0  0  0  0  0  0  0  0  0  0  0
    3.3880   60.0530   71.4070 C   0  0  0  0  0  0  0  0  0  0  0  0
    3.9310   58.8600   74.8140 C   0  0  0  0  0  0  0  0  0  0  0  0
    4.1460   59.0890   73.4290 O   0  0  0  0  0  0  0  0  0  0  0  0
    4.0810   59.0240   70.8190 O   0  0  0  0  0  0  0  0  0  0  0  0
    3.4250   57.7720   70.6830 C   0  0  0  0  0  0  0  0  0  0  0  0
    0.5690   65.9170   70.4250 C   0  0  0  0  0  0  0  0  0  0  0  0
   -0.5700   66.3780   69.5130 C   0  0  0  0  0  0  0  0  0  0  0  0
   -0.0940   67.1230   68.2890 C   0  0  0  0  0  0  0  0  0  0  0  0
    1.1320   67.7910   68.3000 C   0  0  0  0  0  0  0  0  0  0  0  0
    1.6090   68.3780   67.1350 C   0  0  0  0  0  0  0  0  0  0  0  0
    0.8930   68.3200   65.9900 N   0  0  0  0  0  4  0  0  0  0  0  0
   -0.3140   67.7050   65.9630 C   0  0  0  0  0  0  0  0  0  0  0  0
   -0.8260   67.0960   67.1030 C   0  0  0  0  0  0  0  0  0  0  0  0
    1.4310   68.9310   64.7510 C   0  0  0  0  0  0  0  0  0  0  0  0
    2.9370   68.8920   64.7120 C   0  0  0  0  0  0  0  0  0  0  0  0
    3.7090   69.4280   65.7560 C   0  0  0  0  0  0  0  0  0  0  0  0
    5.1030   69.3890   65.6990 C   0  0  0  0  0  0  0  0  0  0  0  0
    5.7410   68.8260   64.5960 C   0  0  0  0  0  0  0  0  0  0  0  0
    4.9890   68.3050   63.5470 C   0  0  0  0  0  0  0  0  0  0  0  0
    3.5940   68.3400   63.6010 C   0  0  0  0  0  0  0  0  0  0  0  0
    2.7884   61.1487   74.6159 H   0  0  0  0  0  0  0  0  0  0  0  0
   -0.6413   63.2718   71.7754 H   0  0  0  0  0  0  0  0  0  0  0  0
    0.6886   62.8297   69.9170 H   0  0  0  0  0  0  0  0  0  0  0  0
    1.9764   63.9498   70.4146 H   0  0  0  0  0  0  0  0  0  0  0  0
    2.6615   61.0197   69.5994 H   0  0  0  0  0  0  0  0  0  0  0  0
    4.5678   59.5382   75.4010 H   0  0  0  0  0  0  0  0  0  0  0  0
    2.8746   59.0470   75.0569 H   0  0  0  0  0  0  0  0  0  0  0  0
    4.1841   57.8174   75.0569 H   0  0  0  0  0  0  0  0  0  0  0  0
    3.2095   57.3607   71.6802 H   0  0  0  0  0  0  0  0  0  0  0  0
    2.4831   57.9095   70.1317 H   0  0  0  0  0  0  0  0  0  0  0  0
    4.0742   57.0759   70.1317 H   0  0  0  0  0  0  0  0  0  0  0  0
    1.1723   66.7944   70.7012 H   0  0  0  0  0  0  0  0  0  0  0  0
    1.1539   65.1721   69.8655 H   0  0  0  0  0  0  0  0  0  0  0  0
   -1.1341   65.4925   69.1848 H   0  0  0  0  0  0  0  0  0  0  0  0
   -1.1911   67.0741   70.0957 H   0  0  0  0  0  0  0  0  0  0  0  0
    1.7185   67.8522   69.2286 H   0  0  0  0  0  0  0  0  0  0  0  0
    2.5796   68.8955   67.1443 H   0  0  0  0  0  0  0  0  0  0  0  0
   -0.8950   67.6874   65.0291 H   0  0  0  0  0  0  0  0  0  0  0  0
   -1.8047   66.5949   67.0693 H   0  0  0  0  0  0  0  0  0  0  0  0
    1.0386   68.3800   63.8836 H   0  0  0  0  0  0  0  0  0  0  0  0
    1.1170   69.9850   64.7271 H   0  0  0  0  0  0  0  0  0  0  0  0
    3.2109   69.8821   66.6253 H   0  0  0  0  0  0  0  0  0  0  0  0
    5.6985   69.8033   66.5259 H   0  0  0  0  0  0  0  0  0  0  0  0
    6.8397   68.7932   64.5540 H   0  0  0  0  0  0  0  0  0  0  0  0
    5.4941   67.8652   62.6744 H   0  0  0  0  0  0  0  0  0  0  0  0
    3.0053   67.9318   62.7663 H   0  0  0  0  0  0  0  0  0  0  0  0
  2  1  2  0
  4  3  2  0
  5  4  1  0
  6  5  1  0
  7  6  1  0
  7  1  1  0
  8  7  1  0
  9  8  1  0
  9  5  2  0
 10  9  1  0
 11  3  1  0
 11 10  2  0
 13  3  1  0
 13 12  1  0
 14 11  1  0
 15 14  1  0
 16  1  1  0
 17 16  1  0
 18 17  1  0
 19 18  2  0
 20 19  1  0
 21 20  2  0
 22 21  1  0
 23 22  2  0
 23 18  1  0
 24 21  1  0
 25 24  1  0
 26 25  2  0
 27 26  1  0
 28 27  2  0
 29 28  1  0
 30 29  2  0
 30 25  1  0
  4 31  1  0
  7 32  1  1
  8 33  1  0
  8 34  1  0
 10 35  1  0
 12 36  1  0
 12 37  1  0
 12 38  1  0
 15 39  1  0
 15 40  1  0
 15 41  1  0
 16 42  1  0
 16 43  1  0
 17 44  1  0
 17 45  1  0
 19 46  1  0
 20 47  1  0
 22 48  1  0
 23 49  1  0
 24 50  1  0
 24 51  1  0
 26 52  1  0
 27 53  1  0
 28 54  1  0
 29 55  1  0
 30 56  1  0
M  CHG  1  21   1
M  END
>  <score>  (4) 
-8.938

$$$$
=
     RDKit          3D

 56 59  0  0  0  0  0  0  0  0999 V2000
   -0.2700   67.2420   68.1470 C   0  0  0  0  0  0  0  0  0  0  0  0
   -1.2980   66.7370   67.6820 O   0  0  0  0  0  0  0  0  0  0  0  0
    4.6330   69.4650   64.9820 C   0  0  0  0  0  0  0  0  0  0  0  0
    3.4870   68.6870   64.7770 C   0  0  0  0  0  0  0  0  0  0  0  0
    2.6070   68.5010   65.8310 C   0  0  0  0  0  0  0  0  0  0  0  0
    1.1080   67.5610   65.7950 S   0  0  0  0  0  0  0  0  0  0  0  0
    0.5520   68.2680   67.3850 C   0  0  2  0  0  0  0  0  0  0  0  0
    1.8230   68.7080   68.1300 C   0  0  0  0  0  0  0  0  0  0  0  0
    2.8410   69.0660   67.0840 C   0  0  0  0  0  0  0  0  0  0  0  0
    3.9830   69.8290   67.3080 C   0  0  0  0  0  0  0  0  0  0  0  0
    4.8830   70.0380   66.2550 C   0  0  0  0  0  0  0  0  0  0  0  0
    5.4480   69.0510   62.7710 C   0  0  0  0  0  0  0  0  0  0  0  0
    5.5750   69.7200   64.0160 O   0  0  0  0  0  0  0  0  0  0  0  0
    6.0380   70.7730   66.3620 O   0  0  0  0  0  0  0  0  0  0  0  0
    6.4400   71.1960   67.6560 C   0  0  0  0  0  0  0  0  0  0  0  0
    0.2000   66.8550   69.5430 C   0  0  0  0  0  0  0  0  0  0  0  0
    1.5480   66.1320   69.5480 C   0  0  0  0  0  0  0  0  0  0  0  0
    1.5700   64.9090   70.4330 C   0  0  0  0  0  0  0  0  0  0  0  0
    0.4200   64.5100   71.1160 C   0  0  0  0  0  0  0  0  0  0  0  0
    0.4220   63.3220   71.8370 C   0  0  0  0  0  0  0  0  0  0  0  0
    1.5320   62.5540   71.8960 N   0  0  0  0  0  4  0  0  0  0  0  0
    2.6700   62.9370   71.2690 C   0  0  0  0  0  0  0  0  0  0  0  0
    2.7100   64.1120   70.5280 C   0  0  0  0  0  0  0  0  0  0  0  0
    1.5070   61.2770   72.6520 C   0  0  0  0  0  0  0  0  0  0  0  0
    0.3030   61.1810   73.5540 C   0  0  0  0  0  0  0  0  0  0  0  0
   -0.8560   60.4970   73.1530 C   0  0  0  0  0  0  0  0  0  0  0  0
   -1.9640   60.4260   74.0000 C   0  0  0  0  0  0  0  0  0  0  0  0
   -1.9310   61.0450   75.2470 C   0  0  0  0  0  0  0  0  0  0  0  0
   -0.7940   61.7390   75.6500 C   0  0  0  0  0  0  0  0  0  0  0  0
    0.3170   61.8120   74.8080 C   0  0  0  0  0  0  0  0  0  0  0  0
    3.2887   68.2312   63.7957 H   0  0  0  0  0  0  0  0  0  0  0  0
   -0.1091   69.1376   67.2555 H   0  0  0  0  0  0  0  0  0  0  0  0
    1.6073   69.5818   68.7624 H   0  0  0  0  0  0  0  0  0  0  0  0
    2.1950   67.9041   68.7822 H   0  0  0  0  0  0  0  0  0  0  0  0
    4.1767   70.2629   68.3001 H   0  0  0  0  0  0  0  0  0  0  0  0
    5.2455   67.9842   62.9470 H   0  0  0  0  0  0  0  0  0  0  0  0
    4.6176   69.4926   62.2005 H   0  0  0  0  0  0  0  0  0  0  0  0
    6.3824   69.1576   62.2005 H   0  0  0  0  0  0  0  0  0  0  0  0
    5.8926   70.6200   68.4166 H   0  0  0  0  0  0  0  0  0  0  0  0
    7.5205   71.0292   67.7771 H   0  0  0  0  0  0  0  0  0  0  0  0
    6.2184   72.2666   67.7771 H   0  0  0  0  0  0  0  0  0  0  0  0
    0.2921   67.7699   70.1467 H   0  0  0  0  0  0  0  0  0  0  0  0
   -0.5448   66.1592   69.9567 H   0  0  0  0  0  0  0  0  0  0  0  0
    1.7809   65.8216   68.5187 H   0  0  0  0  0  0  0  0  0  0  0  0
    2.2922   66.8359   69.9489 H   0  0  0  0  0  0  0  0  0  0  0  0
   -0.4852   65.1341   71.0837 H   0  0  0  0  0  0  0  0  0  0  0  0
   -0.4891   63.0038   72.3649 H   0  0  0  0  0  0  0  0  0  0  0  0
    3.5716   62.3117   71.3471 H   0  0  0  0  0  0  0  0  0  0  0  0
    3.6375   64.4121   70.0184 H   0  0  0  0  0  0  0  0  0  0  0  0
    1.4835   60.4411   71.9374 H   0  0  0  0  0  0  0  0  0  0  0  0
    2.4084   61.2357   73.2812 H   0  0  0  0  0  0  0  0  0  0  0  0
   -0.8913   60.0140   72.1653 H   0  0  0  0  0  0  0  0  0  0  0  0
   -2.8644   59.8802   73.6816 H   0  0  0  0  0  0  0  0  0  0  0  0
   -2.8039   60.9854   75.9137 H   0  0  0  0  0  0  0  0  0  0  0  0
   -0.7707   62.2308   76.6337 H   0  0  0  0  0  0  0  0  0  0  0  0
    1.2100   62.3680   75.1294 H   0  0  0  0  0  0  0  0  0  0  0  0
  2  1  2  0
  4  3  2  0
  5  4  1  0
  6  5  1  0
  7  6  1  0
  7  1  1  0
  8  7  1  0
  9  8  1  0
  9  5  2  0
 10  9  1  0
 11  3  1  0
 11 10  2  0
 13  3  1  0
 13 12  1  0
 14 11  1  0
 15 14  1  0
 16  1  1  0
 17 16  1  0
 18 17  1  0
 19 18  2  0
 20 19  1  0
 21 20  2  0
 22 21  1  0
 23 22  2  0
 23 18  1  0
 24 21  1  0
 25 24  1  0
 26 25  2  0
 27 26  1  0
 28 27  2  0
 29 28  1  0
 30 29  2  0
 30 25  1  0
  4 31  1  0
  7 32  1  6
  8 33  1  0
  8 34  1  0
 10 35  1  0
 12 36  1  0
 12 37  1  0
 12 38  1  0
 15 39  1  0
 15 40  1  0
 15 41  1  0
 16 42  1  0
 16 43  1  0
 17 44  1  0
 17 45  1  0
 19 46  1  0
 20 47  1  0
 22 48  1  0
 23 49  1  0
 24 50  1  0
 24 51  1  0
 26 52  1  0
 27 53  1  0
 28 54  1  0
 29 55  1  0
 30 56  1  0
M  CHG  1  21   1
M  END
>  <score>  (5) 
-8.808

$$$$
=
     RDKit          3D

 56 59  0  0  0  0  0  0  0  0999 V2000
   -0.8700   67.0490   67.9800 C   0  0  0  0  0  0  0  0  0  0  0  0
   -1.9640   66.5580   67.6770 O   0  0  0  0  0  0  0  0  0  0  0  0
    1.0470   69.1940   62.4370 C   0  0  0  0  0  0  0  0  0  0  0  0
   -0.0040   69.3610   63.3470 C   0  0  0  0  0  0  0  0  0  0  0  0
    0.0320   68.6690   64.5470 C   0  0  0  0  0  0  0  0  0  0  0  0
   -1.1810   68.7300   65.8330 S   0  0  0  0  0  0  0  0  0  0  0  0
   -0.0620   67.9020   67.0150 C   0  0  2  0  0  0  0  0  0  0  0  0
    0.9340   67.0910   66.1700 C   0  0  0  0  0  0  0  0  0  0  0  0
    1.0860   67.8130   64.8610 C   0  0  0  0  0  0  0  0  0  0  0  0
    2.1310   67.6240   63.9610 C   0  0  0  0  0  0  0  0  0  0  0  0
    2.1200   68.3200   62.7460 C   0  0  0  0  0  0  0  0  0  0  0  0
   -0.0520   69.8700   60.4220 C   0  0  0  0  0  0  0  0  0  0  0  0
    1.1210   69.8260   61.2200 O   0  0  0  0  0  0  0  0  0  0  0  0
    3.0960   68.2130   61.7870 O   0  0  0  0  0  0  0  0  0  0  0  0
    4.2730   67.4880   62.1130 C   0  0  0  0  0  0  0  0  0  0  0  0
   -0.2990   66.8250   69.3740 C   0  0  0  0  0  0  0  0  0  0  0  0
    1.1410   66.3060   69.3610 C   0  0  0  0  0  0  0  0  0  0  0  0
    1.3710   65.1520   70.3070 C   0  0  0  0  0  0  0  0  0  0  0  0
    0.3040   64.5900   71.0100 C   0  0  0  0  0  0  0  0  0  0  0  0
    0.5100   63.4600   71.7910 C   0  0  0  0  0  0  0  0  0  0  0  0
    1.7370   62.9030   71.8870 N   0  0  0  0  0  4  0  0  0  0  0  0
    2.7940   63.4490   71.2390 C   0  0  0  0  0  0  0  0  0  0  0  0
    2.6330   64.5740   70.4400 C   0  0  0  0  0  0  0  0  0  0  0  0
    1.9320   61.6810   72.7060 C   0  0  0  0  0  0  0  0  0  0  0  0
    2.4800   60.5380   71.8900 C   0  0  0  0  0  0  0  0  0  0  0  0
    2.5270   59.2320   72.4030 C   0  0  0  0  0  0  0  0  0  0  0  0
    3.0450   58.1880   71.6350 C   0  0  0  0  0  0  0  0  0  0  0  0
    3.5320   58.4380   70.3540 C   0  0  0  0  0  0  0  0  0  0  0  0
    3.5050   59.7310   69.8390 C   0  0  0  0  0  0  0  0  0  0  0  0
    2.9860   60.7780   70.6020 C   0  0  0  0  0  0  0  0  0  0  0  0
   -0.8447   70.0307   63.1131 H   0  0  0  0  0  0  0  0  0  0  0  0
    0.4936   68.6129   67.6443 H   0  0  0  0  0  0  0  0  0  0  0  0
    1.9048   67.0310   66.6838 H   0  0  0  0  0  0  0  0  0  0  0  0
    0.5723   66.0641   66.0133 H   0  0  0  0  0  0  0  0  0  0  0  0
    2.9553   66.9364   64.2013 H   0  0  0  0  0  0  0  0  0  0  0  0
   -0.9377   69.9032   61.0735 H   0  0  0  0  0  0  0  0  0  0  0  0
   -0.0300   70.7680   59.7870 H   0  0  0  0  0  0  0  0  0  0  0  0
   -0.0974   68.9729   59.7870 H   0  0  0  0  0  0  0  0  0  0  0  0
    4.3742   67.4257   63.2066 H   0  0  0  0  0  0  0  0  0  0  0  0
    4.2072   66.4737   61.6925 H   0  0  0  0  0  0  0  0  0  0  0  0
    5.1492   68.0031   61.6925 H   0  0  0  0  0  0  0  0  0  0  0  0
   -0.3210   67.7807   69.9183 H   0  0  0  0  0  0  0  0  0  0  0  0
   -0.9182   66.0571   69.8607 H   0  0  0  0  0  0  0  0  0  0  0  0
    1.3827   65.9739   68.3406 H   0  0  0  0  0  0  0  0  0  0  0  0
    1.7869   67.1320   69.6934 H   0  0  0  0  0  0  0  0  0  0  0  0
   -0.6973   65.0408   70.9456 H   0  0  0  0  0  0  0  0  0  0  0  0
   -0.3345   63.0141   72.3369 H   0  0  0  0  0  0  0  0  0  0  0  0
    3.7908   62.9965   71.3467 H   0  0  0  0  0  0  0  0  0  0  0  0
    3.4971   65.0068   69.9147 H   0  0  0  0  0  0  0  0  0  0  0  0
    2.6370   61.9071   73.5195 H   0  0  0  0  0  0  0  0  0  0  0  0
    0.9522   61.3771   73.1029 H   0  0  0  0  0  0  0  0  0  0  0  0
    2.1529   59.0301   73.4175 H   0  0  0  0  0  0  0  0  0  0  0  0
    3.0687   57.1663   72.0418 H   0  0  0  0  0  0  0  0  0  0  0  0
    3.9379   57.6136   69.7494 H   0  0  0  0  0  0  0  0  0  0  0  0
    3.8934   59.9279   68.8289 H   0  0  0  0  0  0  0  0  0  0  0  0
    2.9731   61.7985   70.1917 H   0  0  0  0  0  0  0  0  0  0  0  0
  2  1  2  0
  4  3  2  0
  5  4  1  0
  6  5  1  0
  7  6  1  0
  7  1  1  0
  8  7  1  0
  9  8  1  0
  9  5  2  0
 10  9  1  0
 11  3  1  0
 11 10  2  0
 13  3  1  0
 13 12  1  0
 14 11  1  0
 15 14  1  0
 16  1  1  0
 17 16  1  0
 18 17  1  0
 19 18  2  0
 20 19  1  0
 21 20  2  0
 22 21  1  0
 23 22  2  0
 23 18  1  0
 24 21  1  0
 25 24  1  0
 26 25  2  0
 27 26  1  0
 28 27  2  0
 29 28  1  0
 30 29  2  0
 30 25  1  0
  4 31  1  0
  7 32  1  1
  8 33  1  0
  8 34  1  0
 10 35  1  0
 12 36  1  0
 12 37  1  0
 12 38  1  0
 15 39  1  0
 15 40  1  0
 15 41  1  0
 16 42  1  0
 16 43  1  0
 17 44  1  0
 17 45  1  0
 19 46  1  0
 20 47  1  0
 22 48  1  0
 23 49  1  0
 24 50  1  0
 24 51  1  0
 26 52  1  0
 27 53  1  0
 28 54  1  0
 29 55  1  0
 30 56  1  0
M  CHG  1  21   1
M  END
>  <score>  (6) 
-8.609

$$$$
=
     RDKit          3D

 56 59  0  0  0  0  0  0  0  0999 V2000
    0.4390   65.1290   71.4550 C   0  0  0  0  0  0  0  0  0  0  0  0
   -0.3360   65.3780   72.3850 O   0  0  0  0  0  0  0  0  0  0  0  0
    3.4120   59.6580   71.9310 C   0  0  0  0  0  0  0  0  0  0  0  0
    2.8710   60.5030   70.9550 C   0  0  0  0  0  0  0  0  0  0  0  0
    2.3310   61.7180   71.3470 C   0  0  0  0  0  0  0  0  0  0  0  0
    1.5990   62.9330   70.2880 S   0  0  0  0  0  0  0  0  0  0  0  0
    1.6270   64.1930   71.6100 C   0  0  2  0  0  0  0  0  0  0  0  0
    1.6290   63.4230   72.9400 C   0  0  0  0  0  0  0  0  0  0  0  0
    2.3120   62.1090   72.6840 C   0  0  0  0  0  0  0  0  0  0  0  0
    2.8310   61.2740   73.6680 C   0  0  0  0  0  0  0  0  0  0  0  0
    3.3910   60.0450   73.2950 C   0  0  0  0  0  0  0  0  0  0  0  0
    3.2390   57.5270   70.8570 C   0  0  0  0  0  0  0  0  0  0  0  0
    3.9740   58.4340   71.6660 O   0  0  0  0  0  0  0  0  0  0  0  0
    3.9320   59.1440   74.1790 O   0  0  0  0  0  0  0  0  0  0  0  0
    3.0670   58.5430   75.1310 C   0  0  0  0  0  0  0  0  0  0  0  0
    0.2050   65.7540   70.0860 C   0  0  0  0  0  0  0  0  0  0  0  0
    1.0850   66.9770   69.8220 C   0  0  0  0  0  0  0  0  0  0  0  0
    0.9750   67.5020   68.4100 C   0  0  0  0  0  0  0  0  0  0  0  0
    1.8330   68.5070   67.9600 C   0  0  0  0  0  0  0  0  0  0  0  0
    1.7950   68.9020   66.6280 C   0  0  0  0  0  0  0  0  0  0  0  0
    0.9270   68.3320   65.7640 N   0  0  0  0  0  4  0  0  0  0  0  0
    0.0620   67.3780   66.1850 C   0  0  0  0  0  0  0  0  0  0  0  0
    0.0710   66.9450   67.5060 C   0  0  0  0  0  0  0  0  0  0  0  0
    0.9180   68.7510   64.3410 C   0  0  0  0  0  0  0  0  0  0  0  0
    2.0860   68.1760   63.5800 C   0  0  0  0  0  0  0  0  0  0  0  0
    2.8600   67.1310   64.1100 C   0  0  0  0  0  0  0  0  0  0  0  0
    3.9420   66.6170   63.3920 C   0  0  0  0  0  0  0  0  0  0  0  0
    4.2690   67.1480   62.1470 C   0  0  0  0  0  0  0  0  0  0  0  0
    3.5190   68.1930   61.6160 C   0  0  0  0  0  0  0  0  0  0  0  0
    2.4350   68.7090   62.3290 C   0  0  0  0  0  0  0  0  0  0  0  0
    2.8743   60.2080   69.8953 H   0  0  0  0  0  0  0  0  0  0  0  0
    2.5176   64.8371   71.5656 H   0  0  0  0  0  0  0  0  0  0  0  0
    2.1778   63.9916   73.7052 H   0  0  0  0  0  0  0  0  0  0  0  0
    0.6034   63.2683   73.3064 H   0  0  0  0  0  0  0  0  0  0  0  0
    2.8021   61.5748   74.7257 H   0  0  0  0  0  0  0  0  0  0  0  0
    2.6774   56.8339   71.5006 H   0  0  0  0  0  0  0  0  0  0  0  0
    2.5374   58.0878   70.2219 H   0  0  0  0  0  0  0  0  0  0  0  0
    3.9330   56.9569   70.2219 H   0  0  0  0  0  0  0  0  0  0  0  0
    3.4147   58.7846   76.1463 H   0  0  0  0  0  0  0  0  0  0  0  0
    2.0456   58.9270   74.9922 H   0  0  0  0  0  0  0  0  0  0  0  0
    3.0705   57.4518   74.9922 H   0  0  0  0  0  0  0  0  0  0  0  0
    0.4175   64.9979   69.3158 H   0  0  0  0  0  0  0  0  0  0  0  0
   -0.8413   66.0923   70.0563 H   0  0  0  0  0  0  0  0  0  0  0  0
    0.7871   67.7771   70.5156 H   0  0  0  0  0  0  0  0  0  0  0  0
    2.1289   66.6641   69.9716 H   0  0  0  0  0  0  0  0  0  0  0  0
    2.5369   68.9848   68.6573 H   0  0  0  0  0  0  0  0  0  0  0  0
    2.4790   69.6872   66.2736 H   0  0  0  0  0  0  0  0  0  0  0  0
   -0.6550   66.9415   65.4741 H   0  0  0  0  0  0  0  0  0  0  0  0
   -0.6320   66.1663   67.8368 H   0  0  0  0  0  0  0  0  0  0  0  0
   -0.0160   68.4053   63.8740 H   0  0  0  0  0  0  0  0  0  0  0  0
    0.9948   69.8478   64.3073 H   0  0  0  0  0  0  0  0  0  0  0  0
    2.6124   66.7144   65.0975 H   0  0  0  0  0  0  0  0  0  0  0  0
    4.5367   65.7916   63.8105 H   0  0  0  0  0  0  0  0  0  0  0  0
    5.1210   66.7410   61.5827 H   0  0  0  0  0  0  0  0  0  0  0  0
    3.7804   68.6130   60.6335 H   0  0  0  0  0  0  0  0  0  0  0  0
    1.8500   69.5396   61.9072 H   0  0  0  0  0  0  0  0  0  0  0  0
  2  1  2  0
  4  3  2  0
  5  4  1  0
  6  5  1  0
  7  6  1  0
  7  1  1  0
  8  7  1  0
  9  8  1  0
  9  5  2  0
 10  9  1  0
 11  3  1  0
 11 10  2  0
 13  3  1  0
 13 12  1  0
 14 11  1  0
 15 14  1  0
 16  1  1  0
 17 16  1  0
 18 17  1  0
 19 18  2  0
 20 19  1  0
 21 20  2  0
 22 21  1  0
 23 22  2  0
 23 18  1  0
 24 21  1  0
 25 24  1  0
 26 25  2  0
 27 26  1  0
 28 27  2  0
 29 28  1  0
 30 29  2  0
 30 25  1  0
  4 31  1  0
  7 32  1  6
  8 33  1  0
  8 34  1  0
 10 35  1  0
 12 36  1  0
 12 37  1  0
 12 38  1  0
 15 39  1  0
 15 40  1  0
 15 41  1  0
 16 42  1  0
 16 43  1  0
 17 44  1  0
 17 45  1  0
 19 46  1  0
 20 47  1  0
 22 48  1  0
 23 49  1  0
 24 50  1  0
 24 51  1  0
 26 52  1  0
 27 53  1  0
 28 54  1  0
 29 55  1  0
 30 56  1  0
M  CHG  1  21   1
M  END
>  <score>  (7) 
-8.486

$$$$
=
     RDKit          3D

 56 59  0  0  0  0  0  0  0  0999 V2000
    3.6740   59.2390   71.4650 C   0  0  0  0  0  0  0  0  0  0  0  0
    3.7190   58.3380   70.6210 O   0  0  0  0  0  0  0  0  0  0  0  0
   -1.4800   57.8180   74.6920 C   0  0  0  0  0  0  0  0  0  0  0  0
   -0.2860   57.2270   74.2640 C   0  0  0  0  0  0  0  0  0  0  0  0
    0.6390   58.0020   73.5820 C   0  0  0  0  0  0  0  0  0  0  0  0
    2.2020   57.4640   72.9530 S   0  0  0  0  0  0  0  0  0  0  0  0
    2.7530   59.1820   72.6730 C   0  0  2  0  0  0  0  0  0  0  0  0
    1.4760   60.0230   72.5080 C   0  0  0  0  0  0  0  0  0  0  0  0
    0.4020   59.3500   73.3140 C   0  0  0  0  0  0  0  0  0  0  0  0
   -0.7860   59.9490   73.7210 C   0  0  0  0  0  0  0  0  0  0  0  0
   -1.7320   59.1870   74.4190 C   0  0  0  0  0  0  0  0  0  0  0  0
   -2.1750   56.6910   76.6850 C   0  0  0  0  0  0  0  0  0  0  0  0
   -2.4690   57.1540   75.3750 O   0  0  0  0  0  0  0  0  0  0  0  0
   -2.9350   59.6730   74.8680 O   0  0  0  0  0  0  0  0  0  0  0  0
   -3.3220   60.9750   74.4550 C   0  0  0  0  0  0  0  0  0  0  0  0
    4.5820   60.4540   71.3250 C   0  0  0  0  0  0  0  0  0  0  0  0
    4.3800   61.2120   70.0120 C   0  0  0  0  0  0  0  0  0  0  0  0
    3.3740   62.3340   70.1160 C   0  0  0  0  0  0  0  0  0  0  0  0
    2.0170   62.0890   69.9060 C   0  0  0  0  0  0  0  0  0  0  0  0
    1.0910   63.1040   70.1130 C   0  0  0  0  0  0  0  0  0  0  0  0
    1.4920   64.3330   70.5060 N   0  0  0  0  0  4  0  0  0  0  0  0
    2.8070   64.6040   70.6850 C   0  0  0  0  0  0  0  0  0  0  0  0
    3.7670   63.6170   70.4980 C   0  0  0  0  0  0  0  0  0  0  0  0
    0.4860   65.3970   70.7460 C   0  0  0  0  0  0  0  0  0  0  0  0
    0.4050   66.3640   69.5930 C   0  0  0  0  0  0  0  0  0  0  0  0
   -0.7010   66.3780   68.7270 C   0  0  0  0  0  0  0  0  0  0  0  0
   -0.7550   67.2760   67.6600 C   0  0  0  0  0  0  0  0  0  0  0  0
    0.2980   68.1600   67.4390 C   0  0  0  0  0  0  0  0  0  0  0  0
    1.4070   68.1480   68.2790 C   0  0  0  0  0  0  0  0  0  0  0  0
    1.4650   67.2520   69.3490 C   0  0  0  0  0  0  0  0  0  0  0  0
   -0.0847   56.1645   74.4655 H   0  0  0  0  0  0  0  0  0  0  0  0
    3.3424   59.5814   73.5115 H   0  0  0  0  0  0  0  0  0  0  0  0
    1.6449   61.0440   72.8809 H   0  0  0  0  0  0  0  0  0  0  0  0
    1.1865   60.0949   71.4492 H   0  0  0  0  0  0  0  0  0  0  0  0
   -0.9802   61.0084   73.4974 H   0  0  0  0  0  0  0  0  0  0  0  0
   -2.6119   57.3790   77.4237 H   0  0  0  0  0  0  0  0  0  0  0  0
   -2.6009   55.6862   76.8230 H   0  0  0  0  0  0  0  0  0  0  0  0
   -1.0845   56.6491   76.8230 H   0  0  0  0  0  0  0  0  0  0  0  0
   -3.5079   61.6005   75.3406 H   0  0  0  0  0  0  0  0  0  0  0  0
   -2.5181   61.4226   73.8522 H   0  0  0  0  0  0  0  0  0  0  0  0
   -4.2399   60.9108   73.8522 H   0  0  0  0  0  0  0  0  0  0  0  0
    4.3775   61.1407   72.1596 H   0  0  0  0  0  0  0  0  0  0  0  0
    5.6194   60.0883   71.3338 H   0  0  0  0  0  0  0  0  0  0  0  0
    5.3461   61.6374   69.7027 H   0  0  0  0  0  0  0  0  0  0  0  0
    3.9889   60.4920   69.2781 H   0  0  0  0  0  0  0  0  0  0  0  0
    1.6807   61.0946   69.5773 H   0  0  0  0  0  0  0  0  0  0  0  0
    0.0207   62.9050   69.9554 H   0  0  0  0  0  0  0  0  0  0  0  0
    3.1183   65.6165   70.9816 H   0  0  0  0  0  0  0  0  0  0  0  0
    4.8320   63.8462   70.6505 H   0  0  0  0  0  0  0  0  0  0  0  0
   -0.4995   64.9293   70.8878 H   0  0  0  0  0  0  0  0  0  0  0  0
    0.7908   65.9587   71.6413 H   0  0  0  0  0  0  0  0  0  0  0  0
   -1.5313   65.6754   68.8912 H   0  0  0  0  0  0  0  0  0  0  0  0
   -1.6298   67.2855   66.9932 H   0  0  0  0  0  0  0  0  0  0  0  0
    0.2529   68.8688   66.5990 H   0  0  0  0  0  0  0  0  0  0  0  0
    2.2391   68.8449   68.1003 H   0  0  0  0  0  0  0  0  0  0  0  0
    2.3476   67.2420   70.0054 H   0  0  0  0  0  0  0  0  0  0  0  0
  2  1  2  0
  4  3  2  0
  5  4  1  0
  6  5  1  0
  7  6  1  0
  7  1  1  0
  8  7  1  0
  9  8  1  0
  9  5  2  0
 10  9  1  0
 11  3  1  0
 11 10  2  0
 13  3  1  0
 13 12  1  0
 14 11  1  0
 15 14  1  0
 16  1  1  0
 17 16  1  0
 18 17  1  0
 19 18  2  0
 20 19  1  0
 21 20  2  0
 22 21  1  0
 23 22  2  0
 23 18  1  0
 24 21  1  0
 25 24  1  0
 26 25  2  0
 27 26  1  0
 28 27  2  0
 29 28  1  0
 30 29  2  0
 30 25  1  0
  4 31  1  0
  7 32  1  1
  8 33  1  0
  8 34  1  0
 10 35  1  0
 12 36  1  0
 12 37  1  0
 12 38  1  0
 15 39  1  0
 15 40  1  0
 15 41  1  0
 16 42  1  0
 16 43  1  0
 17 44  1  0
 17 45  1  0
 19 46  1  0
 20 47  1  0
 22 48  1  0
 23 49  1  0
 24 50  1  0
 24 51  1  0
 26 52  1  0
 27 53  1  0
 28 54  1  0
 29 55  1  0
 30 56  1  0
M  CHG  1  21   1
M  END
>  <score>  (8) 
-8.272

$$$$
=
     RDKit          3D

 56 59  0  0  0  0  0  0  0  0999 V2000
    3.8810   60.1160   72.1230 C   0  0  0  0  0  0  0  0  0  0  0  0
    4.6540   60.0930   73.0870 O   0  0  0  0  0  0  0  0  0  0  0  0
   -1.1320   57.4130   74.6860 C   0  0  0  0  0  0  0  0  0  0  0  0
   -0.6050   58.6880   74.4480 C   0  0  0  0  0  0  0  0  0  0  0  0
    0.5860   58.8000   73.7480 C   0  0  0  0  0  0  0  0  0  0  0  0
    1.4270   60.3020   73.3380 S   0  0  0  0  0  0  0  0  0  0  0  0
    2.5180   59.4420   72.1530 C   0  0  2  0  0  0  0  0  0  0  0  0
    2.5730   57.9730   72.6040 C   0  0  0  0  0  0  0  0  0  0  0  0
    1.2660   57.6760   73.2830 C   0  0  0  0  0  0  0  0  0  0  0  0
    0.7630   56.4010   73.5250 C   0  0  0  0  0  0  0  0  0  0  0  0
   -0.4440   56.2630   74.2230 C   0  0  0  0  0  0  0  0  0  0  0  0
   -3.2760   58.2090   75.3890 C   0  0  0  0  0  0  0  0  0  0  0  0
   -2.3020   57.1770   75.3660 O   0  0  0  0  0  0  0  0  0  0  0  0
   -1.0330   55.0580   74.5160 O   0  0  0  0  0  0  0  0  0  0  0  0
   -0.3580   53.8740   74.1180 C   0  0  0  0  0  0  0  0  0  0  0  0
    4.2740   60.8590   70.8530 C   0  0  0  0  0  0  0  0  0  0  0  0
    3.0930   61.1200   69.9150 C   0  0  0  0  0  0  0  0  0  0  0  0
    2.4000   62.4360   70.1760 C   0  0  0  0  0  0  0  0  0  0  0  0
    3.1120   63.6350   70.1100 C   0  0  0  0  0  0  0  0  0  0  0  0
    2.4410   64.8440   70.2420 C   0  0  0  0  0  0  0  0  0  0  0  0
    1.1050   64.8730   70.4450 N   0  0  0  0  0  4  0  0  0  0  0  0
    0.3980   63.7220   70.5450 C   0  0  0  0  0  0  0  0  0  0  0  0
    1.0270   62.4890   70.4100 C   0  0  0  0  0  0  0  0  0  0  0  0
    0.4030   66.1750   70.5590 C   0  0  0  0  0  0  0  0  0  0  0  0
    0.2260   66.8370   69.2160 C   0  0  0  0  0  0  0  0  0  0  0  0
    1.1970   67.7120   68.7000 C   0  0  0  0  0  0  0  0  0  0  0  0
    1.0110   68.3210   67.4580 C   0  0  0  0  0  0  0  0  0  0  0  0
   -0.1470   68.0750   66.7250 C   0  0  0  0  0  0  0  0  0  0  0  0
   -1.1240   67.2230   67.2320 C   0  0  0  0  0  0  0  0  0  0  0  0
   -0.9430   66.6090   68.4720 C   0  0  0  0  0  0  0  0  0  0  0  0
   -1.1273   59.5857   74.8104 H   0  0  0  0  0  0  0  0  0  0  0  0
    2.1434   59.4881   71.1198 H   0  0  0  0  0  0  0  0  0  0  0  0
    2.7050   57.3145   71.7328 H   0  0  0  0  0  0  0  0  0  0  0  0
    3.4190   57.8018   73.2859 H   0  0  0  0  0  0  0  0  0  0  0  0
    1.3067   55.5121   73.1724 H   0  0  0  0  0  0  0  0  0  0  0  0
   -3.5161   58.4634   76.4319 H   0  0  0  0  0  0  0  0  0  0  0  0
   -2.8802   59.0982   74.8765 H   0  0  0  0  0  0  0  0  0  0  0  0
   -4.1866   57.8653   74.8765 H   0  0  0  0  0  0  0  0  0  0  0  0
   -0.0397   53.3157   75.0107 H   0  0  0  0  0  0  0  0  0  0  0  0
   -1.0359   53.2497   73.5175 H   0  0  0  0  0  0  0  0  0  0  0  0
    0.5246   54.1393   73.5175 H   0  0  0  0  0  0  0  0  0  0  0  0
    4.7152   61.8259   71.1364 H   0  0  0  0  0  0  0  0  0  0  0  0
    4.9872   60.2216   70.3098 H   0  0  0  0  0  0  0  0  0  0  0  0
    3.4636   61.1204   68.8793 H   0  0  0  0  0  0  0  0  0  0  0  0
    2.3552   60.3235   70.0920 H   0  0  0  0  0  0  0  0  0  0  0  0
    4.2008   63.6223   69.9540 H   0  0  0  0  0  0  0  0  0  0  0  0
    3.0028   65.7877   70.1807 H   0  0  0  0  0  0  0  0  0  0  0  0
   -0.6847   63.7629   70.7349 H   0  0  0  0  0  0  0  0  0  0  0  0
    0.4435   61.5597   70.4876 H   0  0  0  0  0  0  0  0  0  0  0  0
   -0.5879   66.0070   71.0061 H   0  0  0  0  0  0  0  0  0  0  0  0
    1.0144   66.8383   71.1884 H   0  0  0  0  0  0  0  0  0  0  0  0
    2.1095   67.9183   69.2786 H   0  0  0  0  0  0  0  0  0  0  0  0
    1.7809   68.9968   67.0573 H   0  0  0  0  0  0  0  0  0  0  0  0
   -0.2898   68.5540   65.7451 H   0  0  0  0  0  0  0  0  0  0  0  0
   -2.0405   67.0333   66.6541 H   0  0  0  0  0  0  0  0  0  0  0  0
   -1.7217   65.9415   68.8696 H   0  0  0  0  0  0  0  0  0  0  0  0
  2  1  2  0
  4  3  2  0
  5  4  1  0
  6  5  1  0
  7  6  1  0
  7  1  1  0
  8  7  1  0
  9  8  1  0
  9  5  2  0
 10  9  1  0
 11  3  1  0
 11 10  2  0
 13  3  1  0
 13 12  1  0
 14 11  1  0
 15 14  1  0
 16  1  1  0
 17 16  1  0
 18 17  1  0
 19 18  2  0
 20 19  1  0
 21 20  2  0
 22 21  1  0
 23 22  2  0
 23 18  1  0
 24 21  1  0
 25 24  1  0
 26 25  2  0
 27 26  1  0
 28 27  2  0
 29 28  1  0
 30 29  2  0
 30 25  1  0
  4 31  1  0
  7 32  1  6
  8 33  1  0
  8 34  1  0
 10 35  1  0
 12 36  1  0
 12 37  1  0
 12 38  1  0
 15 39  1  0
 15 40  1  0
 15 41  1  0
 16 42  1  0
 16 43  1  0
 17 44  1  0
 17 45  1  0
 19 46  1  0
 20 47  1  0
 22 48  1  0
 23 49  1  0
 24 50  1  0
 24 51  1  0
 26 52  1  0
 27 53  1  0
 28 54  1  0
 29 55  1  0
 30 56  1  0
M  CHG  1  21   1
M  END
>  <score>  (9) 
-8.195

$$$$
