=
     RDKit          3D

 34 35  0  0  0  0  0  0  0  0999 V2000
    1.3590   69.1620   67.3670 C   0  0  0  0  0  0  0  0  0  0  0  0
    0.4150   69.6830   67.9530 O   0  0  0  0  0  0  0  0  0  0  0  0
    5.0130   69.8960   66.7510 C   0  0  0  0  0  0  0  0  0  0  0  0
    3.6860   69.4850   66.5760 C   0  0  0  0  0  0  0  0  0  0  0  0
    2.7590   69.5940   67.6240 C   0  0  0  0  0  0  0  0  0  0  0  0
    3.1690   70.1240   68.8500 C   0  0  0  0  0  0  0  0  0  0  0  0
    4.4930   70.5360   69.0320 C   0  0  0  0  0  0  0  0  0  0  0  0
    5.4210   70.4260   67.9910 C   0  0  0  0  0  0  0  0  0  0  0  0
    5.5560   69.6060   64.4390 C   0  0  0  0  0  0  0  0  0  0  0  0
    5.9790   69.8270   65.7780 O   0  0  0  0  0  0  0  0  0  0  0  0
    6.7350   70.8110   68.0810 O   0  0  0  0  0  0  0  0  0  0  0  0
    7.3240   70.8570   69.3720 C   0  0  0  0  0  0  0  0  0  0  0  0
    1.0570   68.0310   66.4080 C   0  0  0  0  0  0  0  0  0  0  0  0
    0.9910   66.8860   66.8320 O   0  0  0  0  0  0  0  0  0  0  0  0
    0.8130   68.3690   64.9860 C   0  0  0  0  0  0  0  0  0  0  0  0
    1.8900   68.3150   64.0860 C   0  0  0  0  0  0  0  0  0  0  0  0
    1.7070   68.6550   62.7450 C   0  0  0  0  0  0  0  0  0  0  0  0
    0.4500   69.0520   62.2930 C   0  0  0  0  0  0  0  0  0  0  0  0
   -0.6250   69.1040   63.1820 C   0  0  0  0  0  0  0  0  0  0  0  0
   -0.4510   68.7630   64.5290 C   0  0  0  0  0  0  0  0  0  0  0  0
   -1.8540   68.8020   65.5360 Cl  0  0  0  0  0  0  0  0  0  0  0  0
    3.3669   69.0726   65.6075 H   0  0  0  0  0  0  0  0  0  0  0  0
    2.4477   70.2176   69.6752 H   0  0  0  0  0  0  0  0  0  0  0  0
    4.8072   70.9499   70.0015 H   0  0  0  0  0  0  0  0  0  0  0  0
    4.5810   69.0966   64.4418 H   0  0  0  0  0  0  0  0  0  0  0  0
    5.4639   70.5712   63.9195 H   0  0  0  0  0  0  0  0  0  0  0  0
    6.2957   68.9791   63.9195 H   0  0  0  0  0  0  0  0  0  0  0  0
    6.5359   70.7955   70.1370 H   0  0  0  0  0  0  0  0  0  0  0  0
    8.0161   70.0102   69.4896 H   0  0  0  0  0  0  0  0  0  0  0  0
    7.8763   71.8010   69.4896 H   0  0  0  0  0  0  0  0  0  0  0  0
    2.8835   68.0029   64.4403 H   0  0  0  0  0  0  0  0  0  0  0  0
    2.5544   68.6097   62.0452 H   0  0  0  0  0  0  0  0  0  0  0  0
    0.3051   69.3240   61.2371 H   0  0  0  0  0  0  0  0  0  0  0  0
   -1.6166   69.4153   62.8216 H   0  0  0  0  0  0  0  0  0  0  0  0
  2  1  2  0
  4  3  2  0
  5  4  1  0
  5  1  1  0
  6  5  2  0
  7  6  1  0
  8  7  2  0
  8  3  1  0
 10  3  1  0
 10  9  1  0
 11  8  1  0
 12 11  1  0
 13  1  1  0
 14 13  2  0
 15 13  1  0
 16 15  2  0
 17 16  1  0
 18 17  2  0
 19 18  1  0
 20 19  2  0
 20 15  1  0
 21 20  1  0
  4 22  1  0
  6 23  1  0
  7 24  1  0
  9 25  1  0
  9 26  1  0
  9 27  1  0
 12 28  1  0
 12 29  1  0
 12 30  1  0
 16 31  1  0
 17 32  1  0
 18 33  1  0
 19 34  1  0
M  END
>  <score>  (1) 
-9.207

$$$$
=
     RDKit          3D

 34 35  0  0  0  0  0  0  0  0999 V2000
    4.4930   68.9410   64.0380 C   0  0  0  0  0  0  0  0  0  0  0  0
    5.0650   69.3390   63.0280 O   0  0  0  0  0  0  0  0  0  0  0  0
    4.1420   69.9550   67.6600 C   0  0  0  0  0  0  0  0  0  0  0  0
    3.8550   69.4990   66.3670 C   0  0  0  0  0  0  0  0  0  0  0  0
    4.8560   69.4590   65.3840 C   0  0  0  0  0  0  0  0  0  0  0  0
    6.1510   69.8720   65.7060 C   0  0  0  0  0  0  0  0  0  0  0  0
    6.4440   70.3280   66.9950 C   0  0  0  0  0  0  0  0  0  0  0  0
    5.4490   70.3740   67.9770 C   0  0  0  0  0  0  0  0  0  0  0  0
    1.8510   70.1260   68.3260 C   0  0  0  0  0  0  0  0  0  0  0  0
    3.2230   70.0230   68.6790 O   0  0  0  0  0  0  0  0  0  0  0  0
    5.6500   70.8010   69.2650 O   0  0  0  0  0  0  0  0  0  0  0  0
    6.9710   70.7390   69.7840 C   0  0  0  0  0  0  0  0  0  0  0  0
    3.3690   67.9410   63.8660 C   0  0  0  0  0  0  0  0  0  0  0  0
    3.5590   66.7690   64.1570 O   0  0  0  0  0  0  0  0  0  0  0  0
    2.0600   68.4390   63.3820 C   0  0  0  0  0  0  0  0  0  0  0  0
    1.9750   68.9490   62.0760 C   0  0  0  0  0  0  0  0  0  0  0  0
    0.7660   69.4550   61.5950 C   0  0  0  0  0  0  0  0  0  0  0  0
   -0.3630   69.4570   62.4110 C   0  0  0  0  0  0  0  0  0  0  0  0
   -0.2850   68.9490   63.7090 C   0  0  0  0  0  0  0  0  0  0  0  0
    0.9230   68.4380   64.2000 C   0  0  0  0  0  0  0  0  0  0  0  0
    0.9050   67.7770   65.7960 Cl  0  0  0  0  0  0  0  0  0  0  0  0
    2.8352   69.1691   66.1196 H   0  0  0  0  0  0  0  0  0  0  0  0
    6.9428   69.8384   64.9431 H   0  0  0  0  0  0  0  0  0  0  0  0
    7.4661   70.6534   67.2389 H   0  0  0  0  0  0  0  0  0  0  0  0
    1.2398   70.1719   69.2394 H   0  0  0  0  0  0  0  0  0  0  0  0
    1.6926   71.0386   67.7326 H   0  0  0  0  0  0  0  0  0  0  0  0
    1.5581   69.2473   67.7326 H   0  0  0  0  0  0  0  0  0  0  0  0
    6.9335   70.7408   70.8834 H   0  0  0  0  0  0  0  0  0  0  0  0
    7.4591   69.8170   69.4352 H   0  0  0  0  0  0  0  0  0  0  0  0
    7.5433   71.6113   69.4352 H   0  0  0  0  0  0  0  0  0  0  0  0
    2.8649   68.9497   61.4294 H   0  0  0  0  0  0  0  0  0  0  0  0
    0.7049   69.8523   60.5711 H   0  0  0  0  0  0  0  0  0  0  0  0
   -1.3149   69.8584   62.0331 H   0  0  0  0  0  0  0  0  0  0  0  0
   -1.1785   68.9501   64.3506 H   0  0  0  0  0  0  0  0  0  0  0  0
  2  1  2  0
  4  3  2  0
  5  4  1  0
  5  1  1  0
  6  5  2  0
  7  6  1  0
  8  7  2  0
  8  3  1  0
 10  3  1  0
 10  9  1  0
 11  8  1  0
 12 11  1  0
 13  1  1  0
 14 13  2  0
 15 13  1  0
 16 15  2  0
 17 16  1  0
 18 17  2  0
 19 18  1  0
 20 19  2  0
 20 15  1  0
 21 20  1  0
  4 22  1  0
  6 23  1  0
  7 24  1  0
  9 25  1  0
  9 26  1  0
  9 27  1  0
 12 28  1  0
 12 29  1  0
 12 30  1  0
 16 31  1  0
 17 32  1  0
 18 33  1  0
 19 34  1  0
M  END
>  <score>  (2) 
-8.835

$$$$
=
     RDKit          3D

 34 35  0  0  0  0  0  0  0  0999 V2000
    4.3340   68.9820   63.5360 C   0  0  0  0  0  0  0  0  0  0  0  0
    4.8470   69.4650   62.5320 O   0  0  0  0  0  0  0  0  0  0  0  0
    4.0670   69.8150   67.2120 C   0  0  0  0  0  0  0  0  0  0  0  0
    3.7510   69.4200   65.9060 C   0  0  0  0  0  0  0  0  0  0  0  0
    4.7270   69.4370   64.8970 C   0  0  0  0  0  0  0  0  0  0  0  0
    6.0260   69.8470   65.2060 C   0  0  0  0  0  0  0  0  0  0  0  0
    6.3480   70.2440   66.5080 C   0  0  0  0  0  0  0  0  0  0  0  0
    5.3780   70.2310   67.5160 C   0  0  0  0  0  0  0  0  0  0  0  0
    1.7890   69.7530   67.9420 C   0  0  0  0  0  0  0  0  0  0  0  0
    3.1740   69.8240   68.2540 O   0  0  0  0  0  0  0  0  0  0  0  0
    5.6080   70.5970   68.8180 O   0  0  0  0  0  0  0  0  0  0  0  0
    6.9330   70.9610   69.1780 C   0  0  0  0  0  0  0  0  0  0  0  0
    3.2520   67.9400   63.3460 C   0  0  0  0  0  0  0  0  0  0  0  0
    2.2140   68.2500   62.7790 O   0  0  0  0  0  0  0  0  0  0  0  0
    3.5170   66.5650   63.8280 C   0  0  0  0  0  0  0  0  0  0  0  0
    4.5400   65.8220   63.2170 C   0  0  0  0  0  0  0  0  0  0  0  0
    4.8000   64.5120   63.6230 C   0  0  0  0  0  0  0  0  0  0  0  0
    4.0420   63.9350   64.6400 C   0  0  0  0  0  0  0  0  0  0  0  0
    3.0260   64.6690   65.2540 C   0  0  0  0  0  0  0  0  0  0  0  0
    2.7590   65.9850   64.8530 C   0  0  0  0  0  0  0  0  0  0  0  0
    1.5220   66.8310   65.7140 Cl  0  0  0  0  0  0  0  0  0  0  0  0
    2.7279   69.0932   65.6685 H   0  0  0  0  0  0  0  0  0  0  0  0
    6.7983   69.8577   64.4228 H   0  0  0  0  0  0  0  0  0  0  0  0
    7.3726   70.5692   66.7413 H   0  0  0  0  0  0  0  0  0  0  0  0
    1.2044   69.7230   68.8733 H   0  0  0  0  0  0  0  0  0  0  0  0
    1.4994   70.6375   67.3556 H   0  0  0  0  0  0  0  0  0  0  0  0
    1.5914   68.8435   67.3556 H   0  0  0  0  0  0  0  0  0  0  0  0
    7.0216   70.9853   70.2742 H   0  0  0  0  0  0  0  0  0  0  0  0
    7.6397   70.2237   68.7693 H   0  0  0  0  0  0  0  0  0  0  0  0
    7.1638   71.9558   68.7693 H   0  0  0  0  0  0  0  0  0  0  0  0
    5.1399   66.2749   62.4139 H   0  0  0  0  0  0  0  0  0  0  0  0
    5.6029   63.9354   63.1403 H   0  0  0  0  0  0  0  0  0  0  0  0
    4.2442   62.9018   64.9587 H   0  0  0  0  0  0  0  0  0  0  0  0
    2.4309   64.2115   66.0580 H   0  0  0  0  0  0  0  0  0  0  0  0
  2  1  2  0
  4  3  2  0
  5  4  1  0
  5  1  1  0
  6  5  2  0
  7  6  1  0
  8  7  2  0
  8  3  1  0
 10  3  1  0
 10  9  1  0
 11  8  1  0
 12 11  1  0
 13  1  1  0
 14 13  2  0
 15 13  1  0
 16 15  2  0
 17 16  1  0
 18 17  2  0
 19 18  1  0
 20 19  2  0
 20 15  1  0
 21 20  1  0
  4 22  1  0
  6 23  1  0
  7 24  1  0
  9 25  1  0
  9 26  1  0
  9 27  1  0
 12 28  1  0
 12 29  1  0
 12 30  1  0
 16 31  1  0
 17 32  1  0
 18 33  1  0
 19 34  1  0
M  END
>  <score>  (3) 
-8.828

$$$$
=
     RDKit          3D

 34 35  0  0  0  0  0  0  0  0999 V2000
    1.4180   67.7800   66.5580 C   0  0  0  0  0  0  0  0  0  0  0  0
    0.6330   67.2330   67.3270 O   0  0  0  0  0  0  0  0  0  0  0  0
    4.5230   69.9330   66.6040 C   0  0  0  0  0  0  0  0  0  0  0  0
    3.5220   69.0410   66.1980 C   0  0  0  0  0  0  0  0  0  0  0  0
    2.4630   68.7140   67.0590 C   0  0  0  0  0  0  0  0  0  0  0  0
    2.4080   69.2920   68.3290 C   0  0  0  0  0  0  0  0  0  0  0  0
    3.4040   70.1820   68.7410 C   0  0  0  0  0  0  0  0  0  0  0  0
    4.4630   70.5090   67.8890 C   0  0  0  0  0  0  0  0  0  0  0  0
    5.6650   69.7760   64.5080 C   0  0  0  0  0  0  0  0  0  0  0  0
    5.5880   70.3070   65.8240 O   0  0  0  0  0  0  0  0  0  0  0  0
    5.4780   71.3750   68.2090 O   0  0  0  0  0  0  0  0  0  0  0  0
    6.5660   70.8680   68.9680 C   0  0  0  0  0  0  0  0  0  0  0  0
    1.3220   67.4360   65.0870 C   0  0  0  0  0  0  0  0  0  0  0  0
    0.3570   67.8220   64.4430 O   0  0  0  0  0  0  0  0  0  0  0  0
    2.4340   66.6720   64.4760 C   0  0  0  0  0  0  0  0  0  0  0  0
    2.7690   65.4210   65.0190 C   0  0  0  0  0  0  0  0  0  0  0  0
    3.8310   64.6840   64.4890 C   0  0  0  0  0  0  0  0  0  0  0  0
    4.5630   65.1900   63.4180 C   0  0  0  0  0  0  0  0  0  0  0  0
    4.2320   66.4310   62.8720 C   0  0  0  0  0  0  0  0  0  0  0  0
    3.1690   67.1770   63.3950 C   0  0  0  0  0  0  0  0  0  0  0  0
    2.8000   68.6720   62.6140 Cl  0  0  0  0  0  0  0  0  0  0  0  0
    3.5664   68.5925   65.1946 H   0  0  0  0  0  0  0  0  0  0  0  0
    1.5779   69.0460   69.0076 H   0  0  0  0  0  0  0  0  0  0  0  0
    3.3541   70.6292   69.7448 H   0  0  0  0  0  0  0  0  0  0  0  0
    5.8227   68.6886   64.5600 H   0  0  0  0  0  0  0  0  0  0  0  0
    4.7271   69.9853   63.9727 H   0  0  0  0  0  0  0  0  0  0  0  0
    6.5048   70.2431   63.9727 H   0  0  0  0  0  0  0  0  0  0  0  0
    6.3445   70.9712   70.0405 H   0  0  0  0  0  0  0  0  0  0  0  0
    6.7187   69.8059   68.7257 H   0  0  0  0  0  0  0  0  0  0  0  0
    7.4775   71.4341   68.7257 H   0  0  0  0  0  0  0  0  0  0  0  0
    2.1926   65.0195   65.8655 H   0  0  0  0  0  0  0  0  0  0  0  0
    4.0888   63.7043   64.9176 H   0  0  0  0  0  0  0  0  0  0  0  0
    5.4016   64.6120   63.0025 H   0  0  0  0  0  0  0  0  0  0  0  0
    4.8108   66.8261   62.0241 H   0  0  0  0  0  0  0  0  0  0  0  0
  2  1  2  0
  4  3  2  0
  5  4  1  0
  5  1  1  0
  6  5  2  0
  7  6  1  0
  8  7  2  0
  8  3  1  0
 10  3  1  0
 10  9  1  0
 11  8  1  0
 12 11  1  0
 13  1  1  0
 14 13  2  0
 15 13  1  0
 16 15  2  0
 17 16  1  0
 18 17  2  0
 19 18  1  0
 20 19  2  0
 20 15  1  0
 21 20  1  0
  4 22  1  0
  6 23  1  0
  7 24  1  0
  9 25  1  0
  9 26  1  0
  9 27  1  0
 12 28  1  0
 12 29  1  0
 12 30  1  0
 16 31  1  0
 17 32  1  0
 18 33  1  0
 19 34  1  0
M  END
>  <score>  (4) 
-8.541

$$$$
=
     RDKit          3D

 34 35  0  0  0  0  0  0  0  0999 V2000
    1.4640   68.6630   66.7320 C   0  0  0  0  0  0  0  0  0  0  0  0
    0.3180   68.8380   67.1330 O   0  0  0  0  0  0  0  0  0  0  0  0
    4.8520   70.2970   67.0870 C   0  0  0  0  0  0  0  0  0  0  0  0
    3.7470   69.6150   66.5630 C   0  0  0  0  0  0  0  0  0  0  0  0
    2.6150   69.3700   67.3560 C   0  0  0  0  0  0  0  0  0  0  0  0
    2.5940   69.8190   68.6780 C   0  0  0  0  0  0  0  0  0  0  0  0
    3.6950   70.5000   69.2080 C   0  0  0  0  0  0  0  0  0  0  0  0
    4.8260   70.7430   68.4230 C   0  0  0  0  0  0  0  0  0  0  0  0
    6.8780   69.5040   66.0920 C   0  0  0  0  0  0  0  0  0  0  0  0
    5.9940   70.5790   66.3790 O   0  0  0  0  0  0  0  0  0  0  0  0
    5.9450   71.4060   68.8600 O   0  0  0  0  0  0  0  0  0  0  0  0
    6.8630   70.6900   69.6730 C   0  0  0  0  0  0  0  0  0  0  0  0
    1.6770   67.6660   65.6120 C   0  0  0  0  0  0  0  0  0  0  0  0
    1.8240   66.4830   65.8830 O   0  0  0  0  0  0  0  0  0  0  0  0
    1.6600   68.1690   64.2190 C   0  0  0  0  0  0  0  0  0  0  0  0
    0.4920   68.7830   63.7390 C   0  0  0  0  0  0  0  0  0  0  0  0
    0.4270   69.2430   62.4230 C   0  0  0  0  0  0  0  0  0  0  0  0
    1.5240   69.0940   61.5780 C   0  0  0  0  0  0  0  0  0  0  0  0
    2.6900   68.4890   62.0510 C   0  0  0  0  0  0  0  0  0  0  0  0
    2.7640   68.0250   63.3700 C   0  0  0  0  0  0  0  0  0  0  0  0
    4.2690   67.3440   63.8780 Cl  0  0  0  0  0  0  0  0  0  0  0  0
    3.7662   69.2677   65.5194 H   0  0  0  0  0  0  0  0  0  0  0  0
    1.7087   69.6366   69.3048 H   0  0  0  0  0  0  0  0  0  0  0  0
    3.6706   70.8473   70.2514 H   0  0  0  0  0  0  0  0  0  0  0  0
    7.2391   69.0649   67.0337 H   0  0  0  0  0  0  0  0  0  0  0  0
    6.3459   68.7371   65.5101 H   0  0  0  0  0  0  0  0  0  0  0  0
    7.7333   69.8780   65.5101 H   0  0  0  0  0  0  0  0  0  0  0  0
    6.6318   70.8703   70.7332 H   0  0  0  0  0  0  0  0  0  0  0  0
    6.7818   69.6143   69.4578 H   0  0  0  0  0  0  0  0  0  0  0  0
    7.8865   71.0307   69.4578 H   0  0  0  0  0  0  0  0  0  0  0  0
   -0.3763   68.9021   64.4037 H   0  0  0  0  0  0  0  0  0  0  0  0
   -0.4908   69.7233   62.0531 H   0  0  0  0  0  0  0  0  0  0  0  0
    1.4719   69.4525   60.5394 H   0  0  0  0  0  0  0  0  0  0  0  0
    3.5565   68.3761   61.3828 H   0  0  0  0  0  0  0  0  0  0  0  0
  2  1  2  0
  4  3  2  0
  5  4  1  0
  5  1  1  0
  6  5  2  0
  7  6  1  0
  8  7  2  0
  8  3  1  0
 10  3  1  0
 10  9  1  0
 11  8  1  0
 12 11  1  0
 13  1  1  0
 14 13  2  0
 15 13  1  0
 16 15  2  0
 17 16  1  0
 18 17  2  0
 19 18  1  0
 20 19  2  0
 20 15  1  0
 21 20  1  0
  4 22  1  0
  6 23  1  0
  7 24  1  0
  9 25  1  0
  9 26  1  0
  9 27  1  0
 12 28  1  0
 12 29  1  0
 12 30  1  0
 16 31  1  0
 17 32  1  0
 18 33  1  0
 19 34  1  0
M  END
>  <score>  (5) 
-8.136

$$$$
=
     RDKit          3D

 34 35  0  0  0  0  0  0  0  0999 V2000
    1.8450   67.8320   66.0890 C   0  0  0  0  0  0  0  0  0  0  0  0
    1.1380   67.6110   67.0670 O   0  0  0  0  0  0  0  0  0  0  0  0
    4.4400   70.1580   67.5470 C   0  0  0  0  0  0  0  0  0  0  0  0
    3.2800   69.3930   67.3720 C   0  0  0  0  0  0  0  0  0  0  0  0
    3.0870   68.6420   66.2030 C   0  0  0  0  0  0  0  0  0  0  0  0
    4.0690   68.6540   65.2090 C   0  0  0  0  0  0  0  0  0  0  0  0
    5.2300   69.4160   65.3770 C   0  0  0  0  0  0  0  0  0  0  0  0
    5.4250   70.1690   66.5400 C   0  0  0  0  0  0  0  0  0  0  0  0
    3.6200   71.2430   69.5150 C   0  0  0  0  0  0  0  0  0  0  0  0
    4.7070   70.9170   68.6590 O   0  0  0  0  0  0  0  0  0  0  0  0
    6.5340   70.9380   66.7880 O   0  0  0  0  0  0  0  0  0  0  0  0
    7.3720   70.5600   67.8710 C   0  0  0  0  0  0  0  0  0  0  0  0
    1.4390   67.2110   64.7680 C   0  0  0  0  0  0  0  0  0  0  0  0
    1.3910   65.9940   64.6660 O   0  0  0  0  0  0  0  0  0  0  0  0
    1.0740   68.1190   63.6550 C   0  0  0  0  0  0  0  0  0  0  0  0
    1.9450   68.2210   62.5580 C   0  0  0  0  0  0  0  0  0  0  0  0
    1.6510   69.0890   61.5040 C   0  0  0  0  0  0  0  0  0  0  0  0
    0.4890   69.8570   61.5380 C   0  0  0  0  0  0  0  0  0  0  0  0
   -0.3810   69.7570   62.6240 C   0  0  0  0  0  0  0  0  0  0  0  0
   -0.0950   68.8890   63.6850 C   0  0  0  0  0  0  0  0  0  0  0  0
   -1.2620   68.7910   64.9550 Cl  0  0  0  0  0  0  0  0  0  0  0  0
    2.5121   69.3809   68.1596 H   0  0  0  0  0  0  0  0  0  0  0  0
    3.9287   68.0627   64.2921 H   0  0  0  0  0  0  0  0  0  0  0  0
    5.9963   69.4233   64.5879 H   0  0  0  0  0  0  0  0  0  0  0  0
    3.9378   71.1477   70.5638 H   0  0  0  0  0  0  0  0  0  0  0  0
    3.2985   72.2771   69.3218 H   0  0  0  0  0  0  0  0  0  0  0  0
    2.7825   70.5565   69.3218 H   0  0  0  0  0  0  0  0  0  0  0  0
    6.8676   70.7875   68.8217 H   0  0  0  0  0  0  0  0  0  0  0  0
    7.5794   69.4812   67.8150 H   0  0  0  0  0  0  0  0  0  0  0  0
    8.3180   71.1186   67.8150 H   0  0  0  0  0  0  0  0  0  0  0  0
    2.8624   67.6148   62.5288 H   0  0  0  0  0  0  0  0  0  0  0  0
    2.3367   69.1662   60.6473 H   0  0  0  0  0  0  0  0  0  0  0  0
    0.2577   70.5419   60.7089 H   0  0  0  0  0  0  0  0  0  0  0  0
   -1.2980   70.3642   62.6470 H   0  0  0  0  0  0  0  0  0  0  0  0
  2  1  2  0
  4  3  2  0
  5  4  1  0
  5  1  1  0
  6  5  2  0
  7  6  1  0
  8  7  2  0
  8  3  1  0
 10  3  1  0
 10  9  1  0
 11  8  1  0
 12 11  1  0
 13  1  1  0
 14 13  2  0
 15 13  1  0
 16 15  2  0
 17 16  1  0
 18 17  2  0
 19 18  1  0
 20 19  2  0
 20 15  1  0
 21 20  1  0
  4 22  1  0
  6 23  1  0
  7 24  1  0
  9 25  1  0
  9 26  1  0
  9 27  1  0
 12 28  1  0
 12 29  1  0
 12 30  1  0
 16 31  1  0
 17 32  1  0
 18 33  1  0
 19 34  1  0
M  END
>  <score>  (6) 
-7.833

$$$$
=
     RDKit          3D

 34 35  0  0  0  0  0  0  0  0999 V2000
    2.5790   59.3830   72.3700 C   0  0  0  0  0  0  0  0  0  0  0  0
    2.6060   58.3240   72.9880 O   0  0  0  0  0  0  0  0  0  0  0  0
   -0.3330   61.6590   73.1570 C   0  0  0  0  0  0  0  0  0  0  0  0
    0.4360   60.5910   72.6760 C   0  0  0  0  0  0  0  0  0  0  0  0
    1.8230   60.5570   72.8830 C   0  0  0  0  0  0  0  0  0  0  0  0
    2.4380   61.6000   73.5820 C   0  0  0  0  0  0  0  0  0  0  0  0
    1.6770   62.6690   74.0640 C   0  0  0  0  0  0  0  0  0  0  0  0
    0.2940   62.7080   73.8570 C   0  0  0  0  0  0  0  0  0  0  0  0
   -2.5190   60.9150   73.7840 C   0  0  0  0  0  0  0  0  0  0  0  0
   -1.6930   61.7650   73.0000 O   0  0  0  0  0  0  0  0  0  0  0  0
   -0.5280   63.7140   74.2990 O   0  0  0  0  0  0  0  0  0  0  0  0
    0.0750   64.8210   74.9540 C   0  0  0  0  0  0  0  0  0  0  0  0
    3.3820   59.4740   71.0890 C   0  0  0  0  0  0  0  0  0  0  0  0
    3.7490   58.4480   70.5370 O   0  0  0  0  0  0  0  0  0  0  0  0
    3.6570   60.8200   70.5340 C   0  0  0  0  0  0  0  0  0  0  0  0
    2.8590   61.2890   69.4780 C   0  0  0  0  0  0  0  0  0  0  0  0
    3.1070   62.5400   68.9090 C   0  0  0  0  0  0  0  0  0  0  0  0
    4.1510   63.3280   69.3880 C   0  0  0  0  0  0  0  0  0  0  0  0
    4.9450   62.8690   70.4390 C   0  0  0  0  0  0  0  0  0  0  0  0
    4.7030   61.6160   71.0170 C   0  0  0  0  0  0  0  0  0  0  0  0
    5.7020   61.1620   72.3520 Cl  0  0  0  0  0  0  0  0  0  0  0  0
   -0.0531   59.7706   72.1303 H   0  0  0  0  0  0  0  0  0  0  0  0
    3.5244   61.5794   73.7533 H   0  0  0  0  0  0  0  0  0  0  0  0
    2.1698   63.4865   74.6107 H   0  0  0  0  0  0  0  0  0  0  0  0
   -2.3334   61.1060   74.8513 H   0  0  0  0  0  0  0  0  0  0  0  0
   -3.5756   61.1164   73.5538 H   0  0  0  0  0  0  0  0  0  0  0  0
   -2.2874   59.8646   73.5538 H   0  0  0  0  0  0  0  0  0  0  0  0
    0.0019   64.6868   76.0433 H   0  0  0  0  0  0  0  0  0  0  0  0
    1.1337   64.8871   74.6629 H   0  0  0  0  0  0  0  0  0  0  0  0
   -0.4437   65.7463   74.6629 H   0  0  0  0  0  0  0  0  0  0  0  0
    2.0347   60.6681   69.0972 H   0  0  0  0  0  0  0  0  0  0  0  0
    2.4781   62.9030   68.0828 H   0  0  0  0  0  0  0  0  0  0  0  0
    4.3492   64.3118   68.9376 H   0  0  0  0  0  0  0  0  0  0  0  0
    5.7668   63.4952   70.8166 H   0  0  0  0  0  0  0  0  0  0  0  0
  2  1  2  0
  4  3  2  0
  5  4  1  0
  5  1  1  0
  6  5  2  0
  7  6  1  0
  8  7  2  0
  8  3  1  0
 10  3  1  0
 10  9  1  0
 11  8  1  0
 12 11  1  0
 13  1  1  0
 14 13  2  0
 15 13  1  0
 16 15  2  0
 17 16  1  0
 18 17  2  0
 19 18  1  0
 20 19  2  0
 20 15  1  0
 21 20  1  0
  4 22  1  0
  6 23  1  0
  7 24  1  0
  9 25  1  0
  9 26  1  0
  9 27  1  0
 12 28  1  0
 12 29  1  0
 12 30  1  0
 16 31  1  0
 17 32  1  0
 18 33  1  0
 19 34  1  0
M  END
>  <score>  (7) 
-7.821

$$$$
=
     RDKit          3D

 34 35  0  0  0  0  0  0  0  0999 V2000
    2.9070   59.2890   72.3820 C   0  0  0  0  0  0  0  0  0  0  0  0
    3.6010   58.7530   73.2400 O   0  0  0  0  0  0  0  0  0  0  0  0
   -0.0160   61.6780   72.5330 C   0  0  0  0  0  0  0  0  0  0  0  0
    1.2450   61.1260   72.2770 C   0  0  0  0  0  0  0  0  0  0  0  0
    1.5590   59.8270   72.7070 C   0  0  0  0  0  0  0  0  0  0  0  0
    0.5960   59.0800   73.3900 C   0  0  0  0  0  0  0  0  0  0  0  0
   -0.6650   59.6260   73.6490 C   0  0  0  0  0  0  0  0  0  0  0  0
   -0.9800   60.9210   73.2260 C   0  0  0  0  0  0  0  0  0  0  0  0
    0.1400   63.4540   70.9370 C   0  0  0  0  0  0  0  0  0  0  0  0
   -0.4030   62.9370   72.1450 O   0  0  0  0  0  0  0  0  0  0  0  0
   -2.1920   61.5300   73.4330 O   0  0  0  0  0  0  0  0  0  0  0  0
   -3.1240   60.8780   74.2830 C   0  0  0  0  0  0  0  0  0  0  0  0
    3.4870   59.4300   70.9900 C   0  0  0  0  0  0  0  0  0  0  0  0
    3.7070   58.4270   70.3270 O   0  0  0  0  0  0  0  0  0  0  0  0
    3.7290   60.7970   70.4720 C   0  0  0  0  0  0  0  0  0  0  0  0
    3.0280   61.2180   69.3290 C   0  0  0  0  0  0  0  0  0  0  0  0
    3.2510   62.4870   68.7930 C   0  0  0  0  0  0  0  0  0  0  0  0
    4.1720   63.3440   69.3920 C   0  0  0  0  0  0  0  0  0  0  0  0
    4.8680   62.9330   70.5300 C   0  0  0  0  0  0  0  0  0  0  0  0
    4.6510   61.6610   71.0750 C   0  0  0  0  0  0  0  0  0  0  0  0
    5.5160   61.2680   72.5180 Cl  0  0  0  0  0  0  0  0  0  0  0  0
    1.9974   61.7162   71.7334 H   0  0  0  0  0  0  0  0  0  0  0  0
    0.8305   58.0589   73.7251 H   0  0  0  0  0  0  0  0  0  0  0  0
   -1.4158   59.0315   74.1903 H   0  0  0  0  0  0  0  0  0  0  0  0
    0.9182   64.1949   71.1724 H   0  0  0  0  0  0  0  0  0  0  0  0
    0.5803   62.6331   70.3520 H   0  0  0  0  0  0  0  0  0  0  0  0
   -0.6584   63.9340   70.3520 H   0  0  0  0  0  0  0  0  0  0  0  0
   -2.8560   61.0655   75.3332 H   0  0  0  0  0  0  0  0  0  0  0  0
   -4.1339   61.2676   74.0871 H   0  0  0  0  0  0  0  0  0  0  0  0
   -3.1042   59.7958   74.0871 H   0  0  0  0  0  0  0  0  0  0  0  0
    2.2998   60.5438   68.8544 H   0  0  0  0  0  0  0  0  0  0  0  0
    2.6998   62.8107   67.8978 H   0  0  0  0  0  0  0  0  0  0  0  0
    4.3504   64.3434   68.9685 H   0  0  0  0  0  0  0  0  0  0  0  0
    5.5922   63.6130   71.0023 H   0  0  0  0  0  0  0  0  0  0  0  0
  2  1  2  0
  4  3  2  0
  5  4  1  0
  5  1  1  0
  6  5  2  0
  7  6  1  0
  8  7  2  0
  8  3  1  0
 10  3  1  0
 10  9  1  0
 11  8  1  0
 12 11  1  0
 13  1  1  0
 14 13  2  0
 15 13  1  0
 16 15  2  0
 17 16  1  0
 18 17  2  0
 19 18  1  0
 20 19  2  0
 20 15  1  0
 21 20  1  0
  4 22  1  0
  6 23  1  0
  7 24  1  0
  9 25  1  0
  9 26  1  0
  9 27  1  0
 12 28  1  0
 12 29  1  0
 12 30  1  0
 16 31  1  0
 17 32  1  0
 18 33  1  0
 19 34  1  0
M  END
>  <score>  (8) 
-7.784

$$$$
=
     RDKit          3D

 34 35  0  0  0  0  0  0  0  0999 V2000
    0.1380   65.2470   71.2290 C   0  0  0  0  0  0  0  0  0  0  0  0
   -0.2660   65.6990   72.2960 O   0  0  0  0  0  0  0  0  0  0  0  0
   -0.4710   66.9710   67.9230 C   0  0  0  0  0  0  0  0  0  0  0  0
   -0.6140   66.1430   69.0430 C   0  0  0  0  0  0  0  0  0  0  0  0
    0.3610   66.1300   70.0530 C   0  0  0  0  0  0  0  0  0  0  0  0
    1.4800   66.9580   69.9360 C   0  0  0  0  0  0  0  0  0  0  0  0
    1.6290   67.7860   68.8200 C   0  0  0  0  0  0  0  0  0  0  0  0
    0.6620   67.8000   67.8090 C   0  0  0  0  0  0  0  0  0  0  0  0
   -2.6310   67.6610   67.1610 C   0  0  0  0  0  0  0  0  0  0  0  0
   -1.3780   67.0450   66.8950 O   0  0  0  0  0  0  0  0  0  0  0  0
    0.7260   68.5840   66.6860 O   0  0  0  0  0  0  0  0  0  0  0  0
    2.0100   68.8630   66.1460 C   0  0  0  0  0  0  0  0  0  0  0  0
    0.4500   63.7670   71.1610 C   0  0  0  0  0  0  0  0  0  0  0  0
   -0.4680   62.9590   71.1810 O   0  0  0  0  0  0  0  0  0  0  0  0
    1.8680   63.3590   71.0340 C   0  0  0  0  0  0  0  0  0  0  0  0
    2.5000   63.4990   69.7880 C   0  0  0  0  0  0  0  0  0  0  0  0
    3.8270   63.0980   69.6210 C   0  0  0  0  0  0  0  0  0  0  0  0
    4.5300   62.5560   70.6940 C   0  0  0  0  0  0  0  0  0  0  0  0
    3.9090   62.4180   71.9360 C   0  0  0  0  0  0  0  0  0  0  0  0
    2.5790   62.8180   72.1130 C   0  0  0  0  0  0  0  0  0  0  0  0
    1.9170   62.6620   73.7010 Cl  0  0  0  0  0  0  0  0  0  0  0  0
   -1.4992   65.4962   69.1324 H   0  0  0  0  0  0  0  0  0  0  0  0
    2.2465   66.9583   70.7250 H   0  0  0  0  0  0  0  0  0  0  0  0
    2.5148   68.4327   68.7357 H   0  0  0  0  0  0  0  0  0  0  0  0
   -2.7801   67.7343   68.2484 H   0  0  0  0  0  0  0  0  0  0  0  0
   -2.6451   68.6687   66.7202 H   0  0  0  0  0  0  0  0  0  0  0  0
   -3.4376   67.0567   66.7202 H   0  0  0  0  0  0  0  0  0  0  0  0
    2.7266   69.0187   66.9659 H   0  0  0  0  0  0  0  0  0  0  0  0
    2.3395   68.0155   65.5270 H   0  0  0  0  0  0  0  0  0  0  0  0
    1.9581   69.7708   65.5270 H   0  0  0  0  0  0  0  0  0  0  0  0
    1.9468   63.9268   68.9389 H   0  0  0  0  0  0  0  0  0  0  0  0
    4.3168   63.2101   68.6425 H   0  0  0  0  0  0  0  0  0  0  0  0
    5.5744   62.2368   70.5626 H   0  0  0  0  0  0  0  0  0  0  0  0
    4.4684   61.9920   72.7819 H   0  0  0  0  0  0  0  0  0  0  0  0
  2  1  2  0
  4  3  2  0
  5  4  1  0
  5  1  1  0
  6  5  2  0
  7  6  1  0
  8  7  2  0
  8  3  1  0
 10  3  1  0
 10  9  1  0
 11  8  1  0
 12 11  1  0
 13  1  1  0
 14 13  2  0
 15 13  1  0
 16 15  2  0
 17 16  1  0
 18 17  2  0
 19 18  1  0
 20 19  2  0
 20 15  1  0
 21 20  1  0
  4 22  1  0
  6 23  1  0
  7 24  1  0
  9 25  1  0
  9 26  1  0
  9 27  1  0
 12 28  1  0
 12 29  1  0
 12 30  1  0
 16 31  1  0
 17 32  1  0
 18 33  1  0
 19 34  1  0
M  END
>  <score>  (9) 
-7.695

$$$$
