=
     RDKit          3D

 28 29  0  0  0  0  0  0  0  0999 V2000
    2.0830   66.9030   66.5270 O   0  0  0  0  0  0  0  0  0  0  0  0
    1.5320   68.2050   66.1970 S   0  0  0  0  0  6  0  0  0  0  0  0
    1.7290   68.7920   64.8830 O   0  0  0  0  0  0  0  0  0  0  0  0
   -0.2310   68.0860   66.4390 C   0  0  0  0  0  0  0  0  0  0  0  0
   -1.0900   68.8450   65.6380 C   0  0  0  0  0  0  0  0  0  0  0  0
   -2.4680   68.7470   65.8300 C   0  0  0  0  0  0  0  0  0  0  0  0
   -2.9790   67.8900   66.8080 C   0  0  0  0  0  0  0  0  0  0  0  0
   -2.1160   67.1230   67.5930 C   0  0  0  0  0  0  0  0  0  0  0  0
   -0.7370   67.2140   67.4080 C   0  0  0  0  0  0  0  0  0  0  0  0
    1.9950   69.3890   67.4590 C   0  0  0  0  0  0  0  0  0  0  0  0
    3.4570   69.7220   67.3260 C   0  0  0  0  0  0  0  0  0  0  0  0
    4.1370   69.4800   66.1240 C   0  0  0  0  0  0  0  0  0  0  0  0
    5.4920   69.7900   66.0010 C   0  0  0  0  0  0  0  0  0  0  0  0
    6.1810   70.3470   67.0760 C   0  0  0  0  0  0  0  0  0  0  0  0
    5.5150   70.5990   68.2730 C   0  0  0  0  0  0  0  0  0  0  0  0
    4.1600   70.2900   68.3990 C   0  0  0  0  0  0  0  0  0  0  0  0
   -0.6830   69.5126   64.8643 H   0  0  0  0  0  0  0  0  0  0  0  0
   -3.1530   69.3449   65.2109 H   0  0  0  0  0  0  0  0  0  0  0  0
   -4.0661   67.8193   66.9602 H   0  0  0  0  0  0  0  0  0  0  0  0
   -2.5243   66.4463   68.3581 H   0  0  0  0  0  0  0  0  0  0  0  0
   -0.0536   66.6056   68.0185 H   0  0  0  0  0  0  0  0  0  0  0  0
    1.3983   70.3051   67.3382 H   0  0  0  0  0  0  0  0  0  0  0  0
    1.8075   68.9562   68.4528 H   0  0  0  0  0  0  0  0  0  0  0  0
    3.5980   69.0422   65.2709 H   0  0  0  0  0  0  0  0  0  0  0  0
    6.0166   69.5943   65.0542 H   0  0  0  0  0  0  0  0  0  0  0  0
    7.2500   70.5876   66.9796 H   0  0  0  0  0  0  0  0  0  0  0  0
    6.0581   71.0424   69.1206 H   0  0  0  0  0  0  0  0  0  0  0  0
    3.6394   70.4932   69.3464 H   0  0  0  0  0  0  0  0  0  0  0  0
  2  1  2  0
  3  2  2  0
  4  2  1  0
  5  4  2  0
  6  5  1  0
  7  6  2  0
  8  7  1  0
  9  8  2  0
  9  4  1  0
 10  2  1  0
 11 10  1  0
 12 11  2  0
 13 12  1  0
 14 13  2  0
 15 14  1  0
 16 11  1  0
 16 15  2  0
  5 17  1  0
  6 18  1  0
  7 19  1  0
  8 20  1  0
  9 21  1  0
 10 22  1  0
 10 23  1  0
 12 24  1  0
 13 25  1  0
 14 26  1  0
 15 27  1  0
 16 28  1  0
M  END
>  <score>  (1) 
-8.96

$$$$
=
     RDKit          3D

 28 29  0  0  0  0  0  0  0  0999 V2000
    1.3240   67.3440   69.1810 O   0  0  0  0  0  0  0  0  0  0  0  0
    1.3640   67.7090   67.7760 S   0  0  0  0  0  6  0  0  0  0  0  0
    2.0220   66.8590   66.7990 O   0  0  0  0  0  0  0  0  0  0  0  0
   -0.3310   67.8740   67.2450 C   0  0  0  0  0  0  0  0  0  0  0  0
   -1.3020   67.0130   67.7640 C   0  0  0  0  0  0  0  0  0  0  0  0
   -2.6270   67.1470   67.3480 C   0  0  0  0  0  0  0  0  0  0  0  0
   -2.9740   68.1390   66.4290 C   0  0  0  0  0  0  0  0  0  0  0  0
   -2.0010   69.0070   65.9270 C   0  0  0  0  0  0  0  0  0  0  0  0
   -0.6740   68.8810   66.3390 C   0  0  0  0  0  0  0  0  0  0  0  0
    1.9630   69.3890   67.6110 C   0  0  0  0  0  0  0  0  0  0  0  0
    3.1140   69.4210   66.6410 C   0  0  0  0  0  0  0  0  0  0  0  0
    4.4050   69.7560   67.0770 C   0  0  0  0  0  0  0  0  0  0  0  0
    5.4710   69.7840   66.1770 C   0  0  0  0  0  0  0  0  0  0  0  0
    5.2610   69.4760   64.8360 C   0  0  0  0  0  0  0  0  0  0  0  0
    3.9860   69.1340   64.3920 C   0  0  0  0  0  0  0  0  0  0  0  0
    2.9170   69.1050   65.2890 C   0  0  0  0  0  0  0  0  0  0  0  0
   -1.0244   66.2375   68.4931 H   0  0  0  0  0  0  0  0  0  0  0  0
   -3.3987   66.4706   67.7443 H   0  0  0  0  0  0  0  0  0  0  0  0
   -4.0185   68.2377   66.0985 H   0  0  0  0  0  0  0  0  0  0  0  0
   -2.2812   69.7898   65.2068 H   0  0  0  0  0  0  0  0  0  0  0  0
    0.0946   69.5676   65.9544 H   0  0  0  0  0  0  0  0  0  0  0  0
    1.1520   70.0320   67.2384 H   0  0  0  0  0  0  0  0  0  0  0  0
    2.3011   69.7546   68.5918 H   0  0  0  0  0  0  0  0  0  0  0  0
    4.5780   69.9983   68.1360 H   0  0  0  0  0  0  0  0  0  0  0  0
    6.4790   70.0499   66.5279 H   0  0  0  0  0  0  0  0  0  0  0  0
    6.1017   69.5027   64.1271 H   0  0  0  0  0  0  0  0  0  0  0  0
    3.8212   68.8864   63.3330 H   0  0  0  0  0  0  0  0  0  0  0  0
    1.9126   68.8323   64.9328 H   0  0  0  0  0  0  0  0  0  0  0  0
  2  1  2  0
  3  2  2  0
  4  2  1  0
  5  4  2  0
  6  5  1  0
  7  6  2  0
  8  7  1  0
  9  8  2  0
  9  4  1  0
 10  2  1  0
 11 10  1  0
 12 11  2  0
 13 12  1  0
 14 13  2  0
 15 14  1  0
 16 11  1  0
 16 15  2  0
  5 17  1  0
  6 18  1  0
  7 19  1  0
  8 20  1  0
  9 21  1  0
 10 22  1  0
 10 23  1  0
 12 24  1  0
 13 25  1  0
 14 26  1  0
 15 27  1  0
 16 28  1  0
M  END
>  <score>  (2) 
-8.893

$$$$
=
     RDKit          3D

 28 29  0  0  0  0  0  0  0  0999 V2000
    0.5330   66.8320   65.8950 O   0  0  0  0  0  0  0  0  0  0  0  0
    1.6910   67.6090   65.4910 S   0  0  0  0  0  6  0  0  0  0  0  0
    2.9900   66.9840   65.3160 O   0  0  0  0  0  0  0  0  0  0  0  0
    1.2770   68.3630   63.9280 C   0  0  0  0  0  0  0  0  0  0  0  0
    0.0270   68.9690   63.7650 C   0  0  0  0  0  0  0  0  0  0  0  0
   -0.2910   69.5590   62.5420 C   0  0  0  0  0  0  0  0  0  0  0  0
    0.6360   69.5490   61.4980 C   0  0  0  0  0  0  0  0  0  0  0  0
    1.8880   68.9570   61.6730 C   0  0  0  0  0  0  0  0  0  0  0  0
    2.2160   68.3650   62.8930 C   0  0  0  0  0  0  0  0  0  0  0  0
    1.8530   69.0410   66.5550 C   0  0  0  0  0  0  0  0  0  0  0  0
    3.2990   69.4530   66.6300 C   0  0  0  0  0  0  0  0  0  0  0  0
    3.8590   69.8700   67.8460 C   0  0  0  0  0  0  0  0  0  0  0  0
    5.2000   70.2510   67.9150 C   0  0  0  0  0  0  0  0  0  0  0  0
    5.9950   70.2180   66.7710 C   0  0  0  0  0  0  0  0  0  0  0  0
    5.4520   69.7990   65.5590 C   0  0  0  0  0  0  0  0  0  0  0  0
    4.1110   69.4180   65.4870 C   0  0  0  0  0  0  0  0  0  0  0  0
   -0.6975   68.9801   64.5926 H   0  0  0  0  0  0  0  0  0  0  0  0
   -1.2734   70.0329   62.3997 H   0  0  0  0  0  0  0  0  0  0  0  0
    0.3785   70.0098   60.5329 H   0  0  0  0  0  0  0  0  0  0  0  0
    2.6163   68.9573   60.8486 H   0  0  0  0  0  0  0  0  0  0  0  0
    3.2042   67.9043   63.0388 H   0  0  0  0  0  0  0  0  0  0  0  0
    1.2568   69.8701   66.1463 H   0  0  0  0  0  0  0  0  0  0  0  0
    1.4918   68.7899   67.5632 H   0  0  0  0  0  0  0  0  0  0  0  0
    3.2366   69.8971   68.7526 H   0  0  0  0  0  0  0  0  0  0  0  0
    5.6297   70.5777   68.8734 H   0  0  0  0  0  0  0  0  0  0  0  0
    7.0506   70.5227   66.8252 H   0  0  0  0  0  0  0  0  0  0  0  0
    6.0808   69.7682   64.6570 H   0  0  0  0  0  0  0  0  0  0  0  0
    3.6880   69.0879   64.5267 H   0  0  0  0  0  0  0  0  0  0  0  0
  2  1  2  0
  3  2  2  0
  4  2  1  0
  5  4  2  0
  6  5  1  0
  7  6  2  0
  8  7  1  0
  9  8  2  0
  9  4  1  0
 10  2  1  0
 11 10  1  0
 12 11  2  0
 13 12  1  0
 14 13  2  0
 15 14  1  0
 16 11  1  0
 16 15  2  0
  5 17  1  0
  6 18  1  0
  7 19  1  0
  8 20  1  0
  9 21  1  0
 10 22  1  0
 10 23  1  0
 12 24  1  0
 13 25  1  0
 14 26  1  0
 15 27  1  0
 16 28  1  0
M  END
>  <score>  (3) 
-8.879

$$$$
=
     RDKit          3D

 28 29  0  0  0  0  0  0  0  0999 V2000
    2.2260   68.4150   69.1660 O   0  0  0  0  0  0  0  0  0  0  0  0
    2.0800   69.3590   68.0720 S   0  0  0  0  0  6  0  0  0  0  0  0
    1.3160   70.5830   68.2340 O   0  0  0  0  0  0  0  0  0  0  0  0
    3.7290   69.8480   67.6000 C   0  0  0  0  0  0  0  0  0  0  0  0
    4.5290   70.5440   68.5110 C   0  0  0  0  0  0  0  0  0  0  0  0
    5.8180   70.9230   68.1390 C   0  0  0  0  0  0  0  0  0  0  0  0
    6.3040   70.5980   66.8700 C   0  0  0  0  0  0  0  0  0  0  0  0
    5.5050   69.8880   65.9710 C   0  0  0  0  0  0  0  0  0  0  0  0
    4.2140   69.5050   66.3350 C   0  0  0  0  0  0  0  0  0  0  0  0
    1.5230   68.4930   66.6060 C   0  0  0  0  0  0  0  0  0  0  0  0
    0.0440   68.2280   66.7080 C   0  0  0  0  0  0  0  0  0  0  0  0
   -0.4440   67.2410   67.5770 C   0  0  0  0  0  0  0  0  0  0  0  0
   -1.8150   66.9960   67.6720 C   0  0  0  0  0  0  0  0  0  0  0  0
   -2.7110   67.7350   66.9040 C   0  0  0  0  0  0  0  0  0  0  0  0
   -2.2390   68.7230   66.0430 C   0  0  0  0  0  0  0  0  0  0  0  0
   -0.8690   68.9700   65.9450 C   0  0  0  0  0  0  0  0  0  0  0  0
    4.1450   70.7903   69.5119 H   0  0  0  0  0  0  0  0  0  0  0  0
    6.4529   71.4783   68.8451 H   0  0  0  0  0  0  0  0  0  0  0  0
    7.3198   70.9025   66.5778 H   0  0  0  0  0  0  0  0  0  0  0  0
    5.8942   69.6306   64.9749 H   0  0  0  0  0  0  0  0  0  0  0  0
    3.5840   68.9386   65.6333 H   0  0  0  0  0  0  0  0  0  0  0  0
    1.7241   69.1098   65.7177 H   0  0  0  0  0  0  0  0  0  0  0  0
    2.0606   67.5372   66.5196 H   0  0  0  0  0  0  0  0  0  0  0  0
    0.2588   66.6557   68.1881 H   0  0  0  0  0  0  0  0  0  0  0  0
   -2.1880   66.2181   68.3545 H   0  0  0  0  0  0  0  0  0  0  0  0
   -3.7909   67.5387   66.9772 H   0  0  0  0  0  0  0  0  0  0  0  0
   -2.9473   69.3095   65.4393 H   0  0  0  0  0  0  0  0  0  0  0  0
   -0.5026   69.7525   65.2642 H   0  0  0  0  0  0  0  0  0  0  0  0
  2  1  2  0
  3  2  2  0
  4  2  1  0
  5  4  2  0
  6  5  1  0
  7  6  2  0
  8  7  1  0
  9  8  2  0
  9  4  1  0
 10  2  1  0
 11 10  1  0
 12 11  2  0
 13 12  1  0
 14 13  2  0
 15 14  1  0
 16 11  1  0
 16 15  2  0
  5 17  1  0
  6 18  1  0
  7 19  1  0
  8 20  1  0
  9 21  1  0
 10 22  1  0
 10 23  1  0
 12 24  1  0
 13 25  1  0
 14 26  1  0
 15 27  1  0
 16 28  1  0
M  END
>  <score>  (4) 
-8.823

$$$$
=
     RDKit          3D

 28 29  0  0  0  0  0  0  0  0999 V2000
    1.8320   69.1420   64.6740 O   0  0  0  0  0  0  0  0  0  0  0  0
    2.2350   68.6250   65.9690 S   0  0  0  0  0  6  0  0  0  0  0  0
    2.4160   67.2000   66.1840 O   0  0  0  0  0  0  0  0  0  0  0  0
    3.7930   69.3990   66.3630 C   0  0  0  0  0  0  0  0  0  0  0  0
    4.0100   69.8940   67.6520 C   0  0  0  0  0  0  0  0  0  0  0  0
    5.2310   70.4960   67.9560 C   0  0  0  0  0  0  0  0  0  0  0  0
    6.2260   70.5920   66.9810 C   0  0  0  0  0  0  0  0  0  0  0  0
    6.0080   70.0810   65.7000 C   0  0  0  0  0  0  0  0  0  0  0  0
    4.7900   69.4750   65.3870 C   0  0  0  0  0  0  0  0  0  0  0  0
    1.1640   69.2920   67.2400 C   0  0  0  0  0  0  0  0  0  0  0  0
   -0.1520   68.5600   67.2270 C   0  0  0  0  0  0  0  0  0  0  0  0
   -0.3360   67.4110   68.0100 C   0  0  0  0  0  0  0  0  0  0  0  0
   -1.5560   66.7340   67.9990 C   0  0  0  0  0  0  0  0  0  0  0  0
   -2.6040   67.1970   67.2080 C   0  0  0  0  0  0  0  0  0  0  0  0
   -2.4360   68.3420   66.4310 C   0  0  0  0  0  0  0  0  0  0  0  0
   -1.2170   69.0210   66.4400 C   0  0  0  0  0  0  0  0  0  0  0  0
    3.2259   69.8097   68.4189 H   0  0  0  0  0  0  0  0  0  0  0  0
    5.4103   70.8956   68.9650 H   0  0  0  0  0  0  0  0  0  0  0  0
    7.1856   71.0722   67.2231 H   0  0  0  0  0  0  0  0  0  0  0  0
    6.7967   70.1560   64.9368 H   0  0  0  0  0  0  0  0  0  0  0  0
    4.6169   69.0616   64.3824 H   0  0  0  0  0  0  0  0  0  0  0  0
    1.6418   69.1687   68.2231 H   0  0  0  0  0  0  0  0  0  0  0  0
    0.9895   70.3608   67.0468 H   0  0  0  0  0  0  0  0  0  0  0  0
    0.4879   67.0407   68.6377 H   0  0  0  0  0  0  0  0  0  0  0  0
   -1.6900   65.8333   68.6161 H   0  0  0  0  0  0  0  0  0  0  0  0
   -3.5638   66.6597   67.1962 H   0  0  0  0  0  0  0  0  0  0  0  0
   -3.2655   68.7108   65.8099 H   0  0  0  0  0  0  0  0  0  0  0  0
   -1.0906   69.9244   65.8253 H   0  0  0  0  0  0  0  0  0  0  0  0
  2  1  2  0
  3  2  2  0
  4  2  1  0
  5  4  2  0
  6  5  1  0
  7  6  2  0
  8  7  1  0
  9  8  2  0
  9  4  1  0
 10  2  1  0
 11 10  1  0
 12 11  2  0
 13 12  1  0
 14 13  2  0
 15 14  1  0
 16 11  1  0
 16 15  2  0
  5 17  1  0
  6 18  1  0
  7 19  1  0
  8 20  1  0
  9 21  1  0
 10 22  1  0
 10 23  1  0
 12 24  1  0
 13 25  1  0
 14 26  1  0
 15 27  1  0
 16 28  1  0
M  END
>  <score>  (5) 
-8.763

$$$$
=
     RDKit          3D

 28 29  0  0  0  0  0  0  0  0999 V2000
    0.3860   67.9840   63.2830 O   0  0  0  0  0  0  0  0  0  0  0  0
    1.1250   67.7490   64.5100 S   0  0  0  0  0  6  0  0  0  0  0  0
    1.3200   66.4040   65.0230 O   0  0  0  0  0  0  0  0  0  0  0  0
    2.7520   68.4370   64.2620 C   0  0  0  0  0  0  0  0  0  0  0  0
    3.3050   68.4560   62.9780 C   0  0  0  0  0  0  0  0  0  0  0  0
    4.5760   68.9970   62.7890 C   0  0  0  0  0  0  0  0  0  0  0  0
    5.2810   69.5230   63.8740 C   0  0  0  0  0  0  0  0  0  0  0  0
    4.7170   69.5160   65.1510 C   0  0  0  0  0  0  0  0  0  0  0  0
    3.4450   68.9770   65.3500 C   0  0  0  0  0  0  0  0  0  0  0  0
    0.4790   68.7990   65.8090 C   0  0  0  0  0  0  0  0  0  0  0  0
    0.2820   67.9880   67.0630 C   0  0  0  0  0  0  0  0  0  0  0  0
   -0.9050   67.2700   67.2680 C   0  0  0  0  0  0  0  0  0  0  0  0
   -1.0860   66.5180   68.4300 C   0  0  0  0  0  0  0  0  0  0  0  0
   -0.0830   66.4730   69.3960 C   0  0  0  0  0  0  0  0  0  0  0  0
    1.1040   67.1760   69.1990 C   0  0  0  0  0  0  0  0  0  0  0  0
    1.2870   67.9300   68.0390 C   0  0  0  0  0  0  0  0  0  0  0  0
    2.7427   68.0480   62.1251 H   0  0  0  0  0  0  0  0  0  0  0  0
    5.0240   69.0096   61.7844 H   0  0  0  0  0  0  0  0  0  0  0  0
    6.2854   69.9448   63.7215 H   0  0  0  0  0  0  0  0  0  0  0  0
    5.2754   69.9355   66.0008 H   0  0  0  0  0  0  0  0  0  0  0  0
    2.9922   68.9770   66.3525 H   0  0  0  0  0  0  0  0  0  0  0  0
    1.1900   69.6144   66.0082 H   0  0  0  0  0  0  0  0  0  0  0  0
   -0.4859   69.2212   65.4916 H   0  0  0  0  0  0  0  0  0  0  0  0
   -1.6993   67.2996   66.5076 H   0  0  0  0  0  0  0  0  0  0  0  0
   -2.0217   65.9603   68.5832 H   0  0  0  0  0  0  0  0  0  0  0  0
   -0.2279   65.8832   70.3131 H   0  0  0  0  0  0  0  0  0  0  0  0
    1.8981   67.1365   69.9592 H   0  0  0  0  0  0  0  0  0  0  0  0
    2.2262   68.4827   67.8893 H   0  0  0  0  0  0  0  0  0  0  0  0
  2  1  2  0
  3  2  2  0
  4  2  1  0
  5  4  2  0
  6  5  1  0
  7  6  2  0
  8  7  1  0
  9  8  2  0
  9  4  1  0
 10  2  1  0
 11 10  1  0
 12 11  2  0
 13 12  1  0
 14 13  2  0
 15 14  1  0
 16 11  1  0
 16 15  2  0
  5 17  1  0
  6 18  1  0
  7 19  1  0
  8 20  1  0
  9 21  1  0
 10 22  1  0
 10 23  1  0
 12 24  1  0
 13 25  1  0
 14 26  1  0
 15 27  1  0
 16 28  1  0
M  END
>  <score>  (6) 
-8.711

$$$$
=
     RDKit          3D

 28 29  0  0  0  0  0  0  0  0999 V2000
    0.4060   67.0450   65.3710 O   0  0  0  0  0  0  0  0  0  0  0  0
    1.7350   67.3010   65.8970 S   0  0  0  0  0  6  0  0  0  0  0  0
    2.0450   67.0700   67.2970 O   0  0  0  0  0  0  0  0  0  0  0  0
    2.8580   66.2860   64.9540 C   0  0  0  0  0  0  0  0  0  0  0  0
    3.0730   64.9580   65.3360 C   0  0  0  0  0  0  0  0  0  0  0  0
    3.9500   64.1670   64.5940 C   0  0  0  0  0  0  0  0  0  0  0  0
    4.5980   64.7000   63.4770 C   0  0  0  0  0  0  0  0  0  0  0  0
    4.3670   66.0220   63.0930 C   0  0  0  0  0  0  0  0  0  0  0  0
    3.4900   66.8200   63.8270 C   0  0  0  0  0  0  0  0  0  0  0  0
    2.2550   68.9500   65.4310 C   0  0  0  0  0  0  0  0  0  0  0  0
    3.3180   69.4310   66.3830 C   0  0  0  0  0  0  0  0  0  0  0  0
    4.6590   69.4980   65.9790 C   0  0  0  0  0  0  0  0  0  0  0  0
    5.6440   69.9450   66.8610 C   0  0  0  0  0  0  0  0  0  0  0  0
    5.2990   70.3320   68.1540 C   0  0  0  0  0  0  0  0  0  0  0  0
    3.9690   70.2780   68.5650 C   0  0  0  0  0  0  0  0  0  0  0  0
    2.9820   69.8310   67.6850 C   0  0  0  0  0  0  0  0  0  0  0  0
    2.5557   64.5415   66.2128 H   0  0  0  0  0  0  0  0  0  0  0  0
    4.1315   63.1228   64.8885 H   0  0  0  0  0  0  0  0  0  0  0  0
    5.2934   64.0751   62.8975 H   0  0  0  0  0  0  0  0  0  0  0  0
    4.8774   66.4348   62.2103 H   0  0  0  0  0  0  0  0  0  0  0  0
    3.2974   67.8593   63.5223 H   0  0  0  0  0  0  0  0  0  0  0  0
    2.6603   68.9311   64.4086 H   0  0  0  0  0  0  0  0  0  0  0  0
    1.3921   69.6309   65.4718 H   0  0  0  0  0  0  0  0  0  0  0  0
    4.9370   69.1958   64.9585 H   0  0  0  0  0  0  0  0  0  0  0  0
    6.6935   69.9917   66.5349 H   0  0  0  0  0  0  0  0  0  0  0  0
    6.0764   70.6800   68.8501 H   0  0  0  0  0  0  0  0  0  0  0  0
    3.6962   70.5881   69.5845 H   0  0  0  0  0  0  0  0  0  0  0  0
    1.9333   69.7921   68.0147 H   0  0  0  0  0  0  0  0  0  0  0  0
  2  1  2  0
  3  2  2  0
  4  2  1  0
  5  4  2  0
  6  5  1  0
  7  6  2  0
  8  7  1  0
  9  8  2  0
  9  4  1  0
 10  2  1  0
 11 10  1  0
 12 11  2  0
 13 12  1  0
 14 13  2  0
 15 14  1  0
 16 11  1  0
 16 15  2  0
  5 17  1  0
  6 18  1  0
  7 19  1  0
  8 20  1  0
  9 21  1  0
 10 22  1  0
 10 23  1  0
 12 24  1  0
 13 25  1  0
 14 26  1  0
 15 27  1  0
 16 28  1  0
M  END
>  <score>  (7) 
-8.542

$$$$
=
     RDKit          3D

 28 29  0  0  0  0  0  0  0  0999 V2000
    3.6070   66.9690   64.7950 O   0  0  0  0  0  0  0  0  0  0  0  0
    3.8040   67.6820   63.5460 S   0  0  0  0  0  6  0  0  0  0  0  0
    4.3030   67.0010   62.3640 O   0  0  0  0  0  0  0  0  0  0  0  0
    2.2200   68.3730   63.1020 C   0  0  0  0  0  0  0  0  0  0  0  0
    2.0350   68.9050   61.8220 C   0  0  0  0  0  0  0  0  0  0  0  0
    0.7940   69.4430   61.4790 C   0  0  0  0  0  0  0  0  0  0  0  0
   -0.2510   69.4380   62.4050 C   0  0  0  0  0  0  0  0  0  0  0  0
   -0.0630   68.8900   63.6760 C   0  0  0  0  0  0  0  0  0  0  0  0
    1.1740   68.3490   64.0280 C   0  0  0  0  0  0  0  0  0  0  0  0
    4.7750   69.1560   63.8440 C   0  0  0  0  0  0  0  0  0  0  0  0
    4.7330   69.5000   65.3090 C   0  0  0  0  0  0  0  0  0  0  0  0
    5.8990   69.8890   65.9840 C   0  0  0  0  0  0  0  0  0  0  0  0
    5.8590   70.2090   67.3420 C   0  0  0  0  0  0  0  0  0  0  0  0
    4.6550   70.1460   68.0380 C   0  0  0  0  0  0  0  0  0  0  0  0
    3.4880   69.7690   67.3780 C   0  0  0  0  0  0  0  0  0  0  0  0
    3.5250   69.4480   66.0200 C   0  0  0  0  0  0  0  0  0  0  0  0
    2.8590   68.8994   61.0933 H   0  0  0  0  0  0  0  0  0  0  0  0
    0.6388   69.8716   60.4779 H   0  0  0  0  0  0  0  0  0  0  0  0
   -1.2264   69.8674   62.1325 H   0  0  0  0  0  0  0  0  0  0  0  0
   -0.8910   68.8850   64.4001 H   0  0  0  0  0  0  0  0  0  0  0  0
    1.3242   67.9080   65.0245 H   0  0  0  0  0  0  0  0  0  0  0  0
    5.8167   68.9760   63.5398 H   0  0  0  0  0  0  0  0  0  0  0  0
    4.3603   69.9911   63.2604 H   0  0  0  0  0  0  0  0  0  0  0  0
    6.8529   69.9424   65.4388 H   0  0  0  0  0  0  0  0  0  0  0  0
    6.7796   70.5112   67.8627 H   0  0  0  0  0  0  0  0  0  0  0  0
    4.6254   70.3940   69.1093 H   0  0  0  0  0  0  0  0  0  0  0  0
    2.5361   69.7241   67.9274 H   0  0  0  0  0  0  0  0  0  0  0  0
    2.5999   69.1521   65.5036 H   0  0  0  0  0  0  0  0  0  0  0  0
  2  1  2  0
  3  2  2  0
  4  2  1  0
  5  4  2  0
  6  5  1  0
  7  6  2  0
  8  7  1  0
  9  8  2  0
  9  4  1  0
 10  2  1  0
 11 10  1  0
 12 11  2  0
 13 12  1  0
 14 13  2  0
 15 14  1  0
 16 11  1  0
 16 15  2  0
  5 17  1  0
  6 18  1  0
  7 19  1  0
  8 20  1  0
  9 21  1  0
 10 22  1  0
 10 23  1  0
 12 24  1  0
 13 25  1  0
 14 26  1  0
 15 27  1  0
 16 28  1  0
M  END
>  <score>  (8) 
-8.479

$$$$
=
     RDKit          3D

 28 29  0  0  0  0  0  0  0  0999 V2000
    0.7560   67.6340   63.6390 O   0  0  0  0  0  0  0  0  0  0  0  0
    1.6920   67.5280   64.7440 S   0  0  0  0  0  6  0  0  0  0  0  0
    2.0710   66.2350   65.2840 O   0  0  0  0  0  0  0  0  0  0  0  0
    3.2000   68.3160   64.2090 C   0  0  0  0  0  0  0  0  0  0  0  0
    4.0190   68.9490   65.1500 C   0  0  0  0  0  0  0  0  0  0  0  0
    5.1980   69.5620   64.7270 C   0  0  0  0  0  0  0  0  0  0  0  0
    5.5570   69.5320   63.3770 C   0  0  0  0  0  0  0  0  0  0  0  0
    4.7430   68.8840   62.4460 C   0  0  0  0  0  0  0  0  0  0  0  0
    3.5620   68.2670   62.8600 C   0  0  0  0  0  0  0  0  0  0  0  0
    1.1700   68.6060   66.0760 C   0  0  0  0  0  0  0  0  0  0  0  0
   -0.1920   68.1840   66.5610 C   0  0  0  0  0  0  0  0  0  0  0  0
   -1.3520   68.7270   65.9900 C   0  0  0  0  0  0  0  0  0  0  0  0
   -2.6130   68.3360   66.4390 C   0  0  0  0  0  0  0  0  0  0  0  0
   -2.7300   67.3960   67.4610 C   0  0  0  0  0  0  0  0  0  0  0  0
   -1.5850   66.8440   68.0320 C   0  0  0  0  0  0  0  0  0  0  0  0
   -0.3220   67.2340   67.5850 C   0  0  0  0  0  0  0  0  0  0  0  0
    3.7359   68.9631   66.2128 H   0  0  0  0  0  0  0  0  0  0  0  0
    5.8459   70.0696   65.4568 H   0  0  0  0  0  0  0  0  0  0  0  0
    6.4851   70.0211   63.0462 H   0  0  0  0  0  0  0  0  0  0  0  0
    5.0330   68.8599   61.3852 H   0  0  0  0  0  0  0  0  0  0  0  0
    2.9221   67.7471   62.1318 H   0  0  0  0  0  0  0  0  0  0  0  0
    1.8906   68.5401   66.9045 H   0  0  0  0  0  0  0  0  0  0  0  0
    1.1236   69.6427   65.7111 H   0  0  0  0  0  0  0  0  0  0  0  0
   -1.2665   69.4676   65.1811 H   0  0  0  0  0  0  0  0  0  0  0  0
   -3.5164   68.7701   65.9859 H   0  0  0  0  0  0  0  0  0  0  0  0
   -3.7250   67.0901   67.8166 H   0  0  0  0  0  0  0  0  0  0  0  0
   -1.6769   66.0995   68.8365 H   0  0  0  0  0  0  0  0  0  0  0  0
    0.5780   66.7934   68.0387 H   0  0  0  0  0  0  0  0  0  0  0  0
  2  1  2  0
  3  2  2  0
  4  2  1  0
  5  4  2  0
  6  5  1  0
  7  6  2  0
  8  7  1  0
  9  8  2  0
  9  4  1  0
 10  2  1  0
 11 10  1  0
 12 11  2  0
 13 12  1  0
 14 13  2  0
 15 14  1  0
 16 11  1  0
 16 15  2  0
  5 17  1  0
  6 18  1  0
  7 19  1  0
  8 20  1  0
  9 21  1  0
 10 22  1  0
 10 23  1  0
 12 24  1  0
 13 25  1  0
 14 26  1  0
 15 27  1  0
 16 28  1  0
M  END
>  <score>  (9) 
-8.421

$$$$
