=
     RDKit          3D

 58 60  0  0  0  0  0  0  0  0999 V2000
   -0.7810   66.8820   67.8330 C   0  0  1  0  0  0  0  0  0  0  0  0
   -2.1920   67.4580   67.6150 C   0  0  0  0  0  0  0  0  0  0  0  0
   -2.2020   68.6650   66.6750 C   0  0  0  0  0  0  0  0  0  0  0  0
   -1.0730   68.5990   65.6630 C   0  0  0  0  0  0  0  0  0  0  0  0
    0.2670   68.6300   66.3780 N   0  0  1  0  0  4  0  0  0  0  0  0
    0.2600   67.9940   67.7590 C   0  0  0  0  0  0  0  0  0  0  0  0
   -0.6790   66.1290   69.1670 C   0  0  0  0  0  0  0  0  0  0  0  0
    0.6110   66.3640   69.7350 O   0  0  0  0  0  0  0  0  0  0  0  0
    2.4190   62.9200   71.1060 C   0  0  0  0  0  0  0  0  0  0  0  0
    1.3130   63.4490   71.7780 C   0  0  0  0  0  0  0  0  0  0  0  0
    0.7070   64.6110   71.3050 C   0  0  0  0  0  0  0  0  0  0  0  0
    1.2260   65.2030   70.1650 C   0  0  0  0  0  0  0  0  0  0  0  0
    2.2900   64.7230   69.4890 N   0  0  0  0  0  0  0  0  0  0  0  0
    2.8620   63.5890   69.9730 C   0  0  0  0  0  0  0  0  0  0  0  0
    3.0420   61.6780   71.6090 C   0  0  0  0  0  0  0  0  0  0  0  0
    3.5360   61.6240   72.7300 O   0  0  0  0  0  0  0  0  0  0  0  0
    4.0570   60.1860   69.9880 N   0  0  0  0  0  0  0  0  0  0  0  0
    3.0740   60.4220   70.7940 C   0  0  0  0  0  0  0  0  0  0  0  0
    3.8320   58.9550   69.3620 O   0  0  0  0  0  0  0  0  0  0  0  0
    1.4020   68.1190   65.5100 C   0  0  0  0  0  0  0  0  0  0  0  0
    2.7160   68.7870   65.8080 C   0  0  0  0  0  0  0  0  0  0  0  0
    3.0130   69.2560   67.0900 C   0  0  0  0  0  0  0  0  0  0  0  0
    4.2200   69.9220   67.3390 C   0  0  0  0  0  0  0  0  0  0  0  0
    5.1560   70.1350   66.3170 C   0  0  0  0  0  0  0  0  0  0  0  0
    4.8710   69.6470   65.0320 C   0  0  0  0  0  0  0  0  0  0  0  0
    3.6550   68.9900   64.7900 C   0  0  0  0  0  0  0  0  0  0  0  0
    5.6320   69.7580   63.8970 O   0  0  0  0  0  0  0  0  0  0  0  0
    5.6070   68.6760   62.9730 C   0  0  0  0  0  0  0  0  0  0  0  0
    6.3210   70.8270   66.4980 O   0  0  0  0  0  0  0  0  0  0  0  0
    6.6240   71.3220   67.7980 C   0  0  0  0  0  0  0  0  0  0  0  0
   -0.5829   66.1569   67.0299 H   0  0  0  0  0  0  0  0  0  0  0  0
   -2.8296   66.6720   67.1842 H   0  0  0  0  0  0  0  0  0  0  0  0
   -2.5655   67.7970   68.5925 H   0  0  0  0  0  0  0  0  0  0  0  0
   -3.1614   68.6900   66.1374 H   0  0  0  0  0  0  0  0  0  0  0  0
   -2.0656   69.5725   67.2815 H   0  0  0  0  0  0  0  0  0  0  0  0
   -1.1560   67.6670   65.0847 H   0  0  0  0  0  0  0  0  0  0  0  0
   -1.1422   69.4643   64.9873 H   0  0  0  0  0  0  0  0  0  0  0  0
    0.4458   69.6295   66.5512 H   0  0  0  0  0  0  0  0  0  0  0  0
    1.2544   67.5727   67.9679 H   0  0  0  0  0  0  0  0  0  0  0  0
    0.0090   68.7645   68.5028 H   0  0  0  0  0  0  0  0  0  0  0  0
   -1.4569   66.4909   69.8555 H   0  0  0  0  0  0  0  0  0  0  0  0
   -0.8205   65.0513   68.9978 H   0  0  0  0  0  0  0  0  0  0  0  0
    0.9226   62.9496   72.6770 H   0  0  0  0  0  0  0  0  0  0  0  0
   -0.1602   65.0467   71.8228 H   0  0  0  0  0  0  0  0  0  0  0  0
    3.7280   63.1765   69.4346 H   0  0  0  0  0  0  0  0  0  0  0  0
    2.2541   59.6940   70.8819 H   0  0  0  0  0  0  0  0  0  0  0  0
    4.4859   58.6068   68.7053 H   0  0  0  0  0  0  0  0  0  0  0  0
    1.5124   67.0376   65.6782 H   0  0  0  0  0  0  0  0  0  0  0  0
    1.1459   68.3479   64.4650 H   0  0  0  0  0  0  0  0  0  0  0  0
    2.2948   69.1014   67.9087 H   0  0  0  0  0  0  0  0  0  0  0  0
    4.4374   70.2844   68.3546 H   0  0  0  0  0  0  0  0  0  0  0  0
    3.4343   68.6257   63.7758 H   0  0  0  0  0  0  0  0  0  0  0  0
    5.5850   67.7240   63.5237 H   0  0  0  0  0  0  0  0  0  0  0  0
    4.7104   68.7546   62.3406 H   0  0  0  0  0  0  0  0  0  0  0  0
    6.5062   68.7131   62.3406 H   0  0  0  0  0  0  0  0  0  0  0  0
    6.2076   70.6418   68.5556 H   0  0  0  0  0  0  0  0  0  0  0  0
    7.7153   71.3844   67.9214 H   0  0  0  0  0  0  0  0  0  0  0  0
    6.1832   72.3222   67.9214 H   0  0  0  0  0  0  0  0  0  0  0  0
  2  1  1  0
  3  2  1  0
  4  3  1  0
  5  4  1  0
  6  5  1  0
  6  1  1  0
  7  1  1  0
  8  7  1  0
 10  9  2  0
 11 10  1  0
 12 11  2  0
 12  8  1  0
 13 12  1  0
 14 13  2  0
 14  9  1  0
 15  9  1  0
 16 15  2  0
 18 17  2  0
 18 15  1  0
 19 17  1  0
 20  5  1  0
 21 20  1  0
 22 21  2  0
 23 22  1  0
 24 23  2  0
 25 24  1  0
 26 25  2  0
 26 21  1  0
 27 25  1  0
 28 27  1  0
 29 24  1  0
 30 29  1  0
  1 31  1  6
  2 32  1  0
  2 33  1  0
  3 34  1  0
  3 35  1  0
  4 36  1  0
  4 37  1  0
  5 38  1  1
  6 39  1  0
  6 40  1  0
  7 41  1  0
  7 42  1  0
 10 43  1  0
 11 44  1  0
 14 45  1  0
 18 46  1  0
 19 47  1  0
 20 48  1  0
 20 49  1  0
 22 50  1  0
 23 51  1  0
 26 52  1  0
 28 53  1  0
 28 54  1  0
 28 55  1  0
 30 56  1  0
 30 57  1  0
 30 58  1  0
M  CHG  1   5   1
M  END
>  <score>  (1) 
-9.94

$$$$
=
     RDKit          3D

 58 60  0  0  0  0  0  0  0  0999 V2000
    0.5120   67.1480   68.2020 C   0  0  1  0  0  0  0  0  0  0  0  0
   -1.0260   67.1240   68.2180 C   0  0  0  0  0  0  0  0  0  0  0  0
   -1.6470   68.0220   67.1460 C   0  0  0  0  0  0  0  0  0  0  0  0
   -0.7450   68.1530   65.9320 C   0  0  0  0  0  0  0  0  0  0  0  0
    0.5670   68.8100   66.3290 N   0  0  1  0  0  4  0  0  0  0  0  0
    1.0130   68.5180   67.7520 C   0  0  0  0  0  0  0  0  0  0  0  0
    1.0970   66.7780   69.5720 C   0  0  0  0  0  0  0  0  0  0  0  0
    0.2290   65.8360   70.2080 O   0  0  0  0  0  0  0  0  0  0  0  0
    2.2720   62.4600   71.4060 C   0  0  0  0  0  0  0  0  0  0  0  0
    2.9650   63.5440   70.8590 C   0  0  0  0  0  0  0  0  0  0  0  0
    2.2660   64.6820   70.4590 C   0  0  0  0  0  0  0  0  0  0  0  0
    0.8910   64.7000   70.6310 C   0  0  0  0  0  0  0  0  0  0  0  0
    0.1880   63.6750   71.1550 N   0  0  0  0  0  0  0  0  0  0  0  0
    0.8940   62.5780   71.5350 C   0  0  0  0  0  0  0  0  0  0  0  0
    3.0270   61.2660   71.8400 C   0  0  0  0  0  0  0  0  0  0  0  0
    3.6220   61.2470   72.9120 O   0  0  0  0  0  0  0  0  0  0  0  0
    4.0350   59.8320   70.1640 N   0  0  0  0  0  0  0  0  0  0  0  0
    3.0790   60.0190   71.0140 C   0  0  0  0  0  0  0  0  0  0  0  0
    3.8370   58.5960   69.5380 O   0  0  0  0  0  0  0  0  0  0  0  0
    1.6680   68.5690   65.3140 C   0  0  0  0  0  0  0  0  0  0  0  0
    3.0090   69.0760   65.7700 C   0  0  0  0  0  0  0  0  0  0  0  0
    4.1060   69.0930   64.9060 C   0  0  0  0  0  0  0  0  0  0  0  0
    5.3600   69.5200   65.3600 C   0  0  0  0  0  0  0  0  0  0  0  0
    5.5480   69.9400   66.6840 C   0  0  0  0  0  0  0  0  0  0  0  0
    4.4430   69.9450   67.5510 C   0  0  0  0  0  0  0  0  0  0  0  0
    3.1930   69.5070   67.0890 C   0  0  0  0  0  0  0  0  0  0  0  0
    4.4090   70.3000   68.8750 O   0  0  0  0  0  0  0  0  0  0  0  0
    3.2870   71.0460   69.3320 C   0  0  0  0  0  0  0  0  0  0  0  0
    6.7630   70.3120   67.1890 O   0  0  0  0  0  0  0  0  0  0  0  0
    6.8210   71.4280   68.0700 C   0  0  0  0  0  0  0  0  0  0  0  0
    0.8556   66.3901   67.4826 H   0  0  0  0  0  0  0  0  0  0  0  0
   -1.3626   66.0906   68.0483 H   0  0  0  0  0  0  0  0  0  0  0  0
   -1.3518   67.5052   69.1970 H   0  0  0  0  0  0  0  0  0  0  0  0
   -2.6079   67.5890   66.8311 H   0  0  0  0  0  0  0  0  0  0  0  0
   -1.7887   69.0238   67.5777 H   0  0  0  0  0  0  0  0  0  0  0  0
   -0.5420   67.1538   65.5192 H   0  0  0  0  0  0  0  0  0  0  0  0
   -1.2458   68.7742   65.1748 H   0  0  0  0  0  0  0  0  0  0  0  0
    0.3655   69.8201   66.3212 H   0  0  0  0  0  0  0  0  0  0  0  0
    2.1120   68.5336   67.7967 H   0  0  0  0  0  0  0  0  0  0  0  0
    0.5939   69.2855   68.4194 H   0  0  0  0  0  0  0  0  0  0  0  0
    2.0932   66.3309   69.4394 H   0  0  0  0  0  0  0  0  0  0  0  0
    1.1872   67.6805   70.1944 H   0  0  0  0  0  0  0  0  0  0  0  0
    4.0581   63.4992   70.7446 H   0  0  0  0  0  0  0  0  0  0  0  0
    2.7916   65.5422   70.0188 H   0  0  0  0  0  0  0  0  0  0  0  0
    0.3412   61.7328   71.9709 H   0  0  0  0  0  0  0  0  0  0  0  0
    2.2967   59.2546   71.1312 H   0  0  0  0  0  0  0  0  0  0  0  0
    4.4761   58.2813   68.8505 H   0  0  0  0  0  0  0  0  0  0  0  0
    1.7459   67.4870   65.1315 H   0  0  0  0  0  0  0  0  0  0  0  0
    1.4005   69.1212   64.4010 H   0  0  0  0  0  0  0  0  0  0  0  0
    3.9842   68.7688   63.8619 H   0  0  0  0  0  0  0  0  0  0  0  0
    6.2127   69.5259   64.6652 H   0  0  0  0  0  0  0  0  0  0  0  0
    2.3369   69.5021   67.7797 H   0  0  0  0  0  0  0  0  0  0  0  0
    3.2752   71.0538   70.4319 H   0  0  0  0  0  0  0  0  0  0  0  0
    3.3564   72.0784   68.9587 H   0  0  0  0  0  0  0  0  0  0  0  0
    2.3619   70.5826   68.9587 H   0  0  0  0  0  0  0  0  0  0  0  0
    6.8026   71.0743   69.1114 H   0  0  0  0  0  0  0  0  0  0  0  0
    7.7495   71.9895   67.8898 H   0  0  0  0  0  0  0  0  0  0  0  0
    5.9557   72.0828   67.8898 H   0  0  0  0  0  0  0  0  0  0  0  0
  2  1  1  0
  3  2  1  0
  4  3  1  0
  5  4  1  0
  6  5  1  0
  6  1  1  0
  7  1  1  0
  8  7  1  0
 10  9  2  0
 11 10  1  0
 12 11  2  0
 12  8  1  0
 13 12  1  0
 14 13  2  0
 14  9  1  0
 15  9  1  0
 16 15  2  0
 18 17  2  0
 18 15  1  0
 19 17  1  0
 20  5  1  0
 21 20  1  0
 22 21  2  0
 23 22  1  0
 24 23  2  0
 25 24  1  0
 26 25  2  0
 26 21  1  0
 27 25  1  0
 28 27  1  0
 29 24  1  0
 30 29  1  0
  1 31  1  6
  2 32  1  0
  2 33  1  0
  3 34  1  0
  3 35  1  0
  4 36  1  0
  4 37  1  0
  5 38  1  1
  6 39  1  0
  6 40  1  0
  7 41  1  0
  7 42  1  0
 10 43  1  0
 11 44  1  0
 14 45  1  0
 18 46  1  0
 19 47  1  0
 20 48  1  0
 20 49  1  0
 22 50  1  0
 23 51  1  0
 26 52  1  0
 28 53  1  0
 28 54  1  0
 28 55  1  0
 30 56  1  0
 30 57  1  0
 30 58  1  0
M  CHG  1   5   1
M  END
>  <score>  (2) 
-9.381

$$$$
=
     RDKit          3D

 58 60  0  0  0  0  0  0  0  0999 V2000
    0.7220   68.2390   64.3040 C   0  0  1  0  0  0  0  0  0  0  0  0
    0.4540   68.3790   62.7950 C   0  0  0  0  0  0  0  0  0  0  0  0
    1.6730   68.8810   62.0190 C   0  0  0  0  0  0  0  0  0  0  0  0
    2.9730   68.4660   62.6840 C   0  0  0  0  0  0  0  0  0  0  0  0
    3.0680   69.0850   64.0690 N   0  0  1  0  0  4  0  0  0  0  0  0
    1.7300   69.2900   64.7610 C   0  0  0  0  0  0  0  0  0  0  0  0
   -0.5750   68.3390   65.1190 C   0  0  0  0  0  0  0  0  0  0  0  0
   -0.2940   68.9870   66.3620 O   0  0  0  0  0  0  0  0  0  0  0  0
    0.1310   66.3330   69.4900 C   0  0  0  0  0  0  0  0  0  0  0  0
    1.1840   67.1860   69.1430 C   0  0  0  0  0  0  0  0  0  0  0  0
    1.0290   68.0810   68.0860 C   0  0  0  0  0  0  0  0  0  0  0  0
   -0.1830   68.1000   67.4150 C   0  0  0  0  0  0  0  0  0  0  0  0
   -1.2210   67.2940   67.7200 N   0  0  0  0  0  0  0  0  0  0  0  0
   -1.0430   66.4300   68.7540 C   0  0  0  0  0  0  0  0  0  0  0  0
    0.3020   65.4000   70.6230 C   0  0  0  0  0  0  0  0  0  0  0  0
   -0.0200   65.7200   71.7620 O   0  0  0  0  0  0  0  0  0  0  0  0
    1.9920   63.8340   69.8680 N   0  0  0  0  0  0  0  0  0  0  0  0
    0.8450   64.0180   70.4350 C   0  0  0  0  0  0  0  0  0  0  0  0
    2.2500   62.4590   69.8240 O   0  0  0  0  0  0  0  0  0  0  0  0
    4.0760   68.3790   64.9540 C   0  0  0  0  0  0  0  0  0  0  0  0
    4.7750   69.3090   65.9070 C   0  0  0  0  0  0  0  0  0  0  0  0
    6.0180   69.8640   65.5940 C   0  0  0  0  0  0  0  0  0  0  0  0
    6.6800   70.6870   66.5140 C   0  0  0  0  0  0  0  0  0  0  0  0
    6.1170   70.9770   67.7640 C   0  0  0  0  0  0  0  0  0  0  0  0
    4.8580   70.4390   68.0760 C   0  0  0  0  0  0  0  0  0  0  0  0
    4.2070   69.6080   67.1520 C   0  0  0  0  0  0  0  0  0  0  0  0
    4.1410   70.5810   69.2360 O   0  0  0  0  0  0  0  0  0  0  0  0
    2.7580   70.8970   69.1250 C   0  0  0  0  0  0  0  0  0  0  0  0
    6.7480   71.7290   68.7160 O   0  0  0  0  0  0  0  0  0  0  0  0
    7.7840   71.1260   69.4830 C   0  0  0  0  0  0  0  0  0  0  0  0
    1.1462   67.2398   64.4816 H   0  0  0  0  0  0  0  0  0  0  0  0
    0.1650   67.3951   62.3969 H   0  0  0  0  0  0  0  0  0  0  0  0
   -0.3470   69.1223   62.6691 H   0  0  0  0  0  0  0  0  0  0  0  0
    1.6442   68.4639   61.0016 H   0  0  0  0  0  0  0  0  0  0  0  0
    1.6356   69.9801   61.9961 H   0  0  0  0  0  0  0  0  0  0  0  0
    3.0038   67.3699   62.7718 H   0  0  0  0  0  0  0  0  0  0  0  0
    3.8189   68.8148   62.0734 H   0  0  0  0  0  0  0  0  0  0  0  0
    3.4259   70.0366   63.9042 H   0  0  0  0  0  0  0  0  0  0  0  0
    1.8695   69.2081   65.8490 H   0  0  0  0  0  0  0  0  0  0  0  0
    1.3453   70.2871   64.5006 H   0  0  0  0  0  0  0  0  0  0  0  0
   -1.3190   68.9236   64.5581 H   0  0  0  0  0  0  0  0  0  0  0  0
   -0.9749   67.3316   65.3068 H   0  0  0  0  0  0  0  0  0  0  0  0
    2.1306   67.1505   69.7022 H   0  0  0  0  0  0  0  0  0  0  0  0
    1.8475   68.7546   67.7922 H   0  0  0  0  0  0  0  0  0  0  0  0
   -1.8788   65.7678   69.0242 H   0  0  0  0  0  0  0  0  0  0  0  0
    0.2631   63.1515   70.7823 H   0  0  0  0  0  0  0  0  0  0  0  0
    3.0906   62.1257   69.4209 H   0  0  0  0  0  0  0  0  0  0  0  0
    3.5509   67.6087   65.5379 H   0  0  0  0  0  0  0  0  0  0  0  0
    4.8433   67.9443   64.2965 H   0  0  0  0  0  0  0  0  0  0  0  0
    6.4802   69.6533   64.6183 H   0  0  0  0  0  0  0  0  0  0  0  0
    7.6592   71.1132   66.2506 H   0  0  0  0  0  0  0  0  0  0  0  0
    3.2270   69.1810   67.4114 H   0  0  0  0  0  0  0  0  0  0  0  0
    2.3228   70.9964   70.1303 H   0  0  0  0  0  0  0  0  0  0  0  0
    2.6411   71.8450   68.5794 H   0  0  0  0  0  0  0  0  0  0  0  0
    2.2410   70.0938   68.5794 H   0  0  0  0  0  0  0  0  0  0  0  0
    7.5678   71.2518   70.5542 H   0  0  0  0  0  0  0  0  0  0  0  0
    7.8407   70.0538   69.2438 H   0  0  0  0  0  0  0  0  0  0  0  0
    8.7443   71.6063   69.2438 H   0  0  0  0  0  0  0  0  0  0  0  0
  2  1  1  0
  3  2  1  0
  4  3  1  0
  5  4  1  0
  6  5  1  0
  6  1  1  0
  7  1  1  0
  8  7  1  0
 10  9  2  0
 11 10  1  0
 12 11  2  0
 12  8  1  0
 13 12  1  0
 14 13  2  0
 14  9  1  0
 15  9  1  0
 16 15  2  0
 18 17  2  0
 18 15  1  0
 19 17  1  0
 20  5  1  0
 21 20  1  0
 22 21  2  0
 23 22  1  0
 24 23  2  0
 25 24  1  0
 26 25  2  0
 26 21  1  0
 27 25  1  0
 28 27  1  0
 29 24  1  0
 30 29  1  0
  1 31  1  6
  2 32  1  0
  2 33  1  0
  3 34  1  0
  3 35  1  0
  4 36  1  0
  4 37  1  0
  5 38  1  6
  6 39  1  0
  6 40  1  0
  7 41  1  0
  7 42  1  0
 10 43  1  0
 11 44  1  0
 14 45  1  0
 18 46  1  0
 19 47  1  0
 20 48  1  0
 20 49  1  0
 22 50  1  0
 23 51  1  0
 26 52  1  0
 28 53  1  0
 28 54  1  0
 28 55  1  0
 30 56  1  0
 30 57  1  0
 30 58  1  0
M  CHG  1   5   1
M  END
>  <score>  (3) 
-9.334

$$$$
=
     RDKit          3D

 58 60  0  0  0  0  0  0  0  0999 V2000
    1.2570   63.9730   70.8730 C   0  0  1  0  0  0  0  0  0  0  0  0
    2.6340   64.2080   70.2270 C   0  0  0  0  0  0  0  0  0  0  0  0
    3.7000   63.2320   70.7270 C   0  0  0  0  0  0  0  0  0  0  0  0
    3.0960   61.9010   71.1380 C   0  0  0  0  0  0  0  0  0  0  0  0
    2.1300   62.1040   72.2930 N   0  0  1  0  0  4  0  0  0  0  0  0
    1.4250   63.4510   72.2970 C   0  0  0  0  0  0  0  0  0  0  0  0
    0.4020   65.2480   70.8580 C   0  0  0  0  0  0  0  0  0  0  0  0
    1.1640   66.3110   70.2830 O   0  0  0  0  0  0  0  0  0  0  0  0
   -0.5890   68.0210   66.9640 C   0  0  0  0  0  0  0  0  0  0  0  0
    0.6600   68.4680   67.4090 C   0  0  0  0  0  0  0  0  0  0  0  0
    1.2450   67.8810   68.5300 C   0  0  0  0  0  0  0  0  0  0  0  0
    0.5620   66.8570   69.1650 C   0  0  0  0  0  0  0  0  0  0  0  0
   -0.6420   66.3990   68.7660 N   0  0  0  0  0  0  0  0  0  0  0  0
   -1.1910   66.9890   67.6720 C   0  0  0  0  0  0  0  0  0  0  0  0
   -1.1910   68.6410   65.7650 C   0  0  0  0  0  0  0  0  0  0  0  0
   -2.3310   69.0910   65.7880 O   0  0  0  0  0  0  0  0  0  0  0  0
   -1.0540   68.7410   63.3460 N   0  0  0  0  0  0  0  0  0  0  0  0
   -0.4340   68.7770   64.4800 C   0  0  0  0  0  0  0  0  0  0  0  0
   -0.1130   68.8920   62.3210 O   0  0  0  0  0  0  0  0  0  0  0  0
    1.1670   60.9440   72.4570 C   0  0  0  0  0  0  0  0  0  0  0  0
    1.6840   59.8770   73.3820 C   0  0  0  0  0  0  0  0  0  0  0  0
    2.5600   60.1880   74.4250 C   0  0  0  0  0  0  0  0  0  0  0  0
    3.0740   59.1760   75.2460 C   0  0  0  0  0  0  0  0  0  0  0  0
    2.7250   57.8330   75.0470 C   0  0  0  0  0  0  0  0  0  0  0  0
    1.8290   57.5180   74.0130 C   0  0  0  0  0  0  0  0  0  0  0  0
    1.3270   58.5370   73.1900 C   0  0  0  0  0  0  0  0  0  0  0  0
    1.3710   56.2810   73.6390 O   0  0  0  0  0  0  0  0  0  0  0  0
   -0.0350   56.0630   73.6480 C   0  0  0  0  0  0  0  0  0  0  0  0
    3.2420   56.8050   75.7850 O   0  0  0  0  0  0  0  0  0  0  0  0
    4.5070   56.9860   76.4110 C   0  0  0  0  0  0  0  0  0  0  0  0
    0.7274   63.2149   70.2774 H   0  0  0  0  0  0  0  0  0  0  0  0
    2.5351   64.0919   69.1376 H   0  0  0  0  0  0  0  0  0  0  0  0
    2.9593   65.2220   70.5026 H   0  0  0  0  0  0  0  0  0  0  0  0
    4.4299   63.0588   69.9225 H   0  0  0  0  0  0  0  0  0  0  0  0
    4.1834   63.6758   71.6098 H   0  0  0  0  0  0  0  0  0  0  0  0
    2.5563   61.4664   70.2837 H   0  0  0  0  0  0  0  0  0  0  0  0
    3.9008   61.2215   71.4552 H   0  0  0  0  0  0  0  0  0  0  0  0
    2.7278   62.1202   73.1316 H   0  0  0  0  0  0  0  0  0  0  0  0
    0.4337   63.3389   72.7603 H   0  0  0  0  0  0  0  0  0  0  0  0
    2.0329   64.1680   72.8683 H   0  0  0  0  0  0  0  0  0  0  0  0
   -0.5044   65.0775   70.2585 H   0  0  0  0  0  0  0  0  0  0  0  0
    0.1103   65.5125   71.8851 H   0  0  0  0  0  0  0  0  0  0  0  0
    1.1781   69.2792   66.8765 H   0  0  0  0  0  0  0  0  0  0  0  0
    2.2230   68.2220   68.9004 H   0  0  0  0  0  0  0  0  0  0  0  0
   -2.1708   66.6276   67.3265 H   0  0  0  0  0  0  0  0  0  0  0  0
    0.6579   68.9085   64.5011 H   0  0  0  0  0  0  0  0  0  0  0  0
   -0.4063   68.8893   61.3754 H   0  0  0  0  0  0  0  0  0  0  0  0
    0.2195   61.3296   72.8615 H   0  0  0  0  0  0  0  0  0  0  0  0
    1.0340   60.4844   71.4665 H   0  0  0  0  0  0  0  0  0  0  0  0
    2.8480   61.2346   74.6027 H   0  0  0  0  0  0  0  0  0  0  0  0
    3.7637   59.4399   76.0613 H   0  0  0  0  0  0  0  0  0  0  0  0
    0.6363   58.2770   72.3743 H   0  0  0  0  0  0  0  0  0  0  0  0
   -0.3908   56.0078   74.6874 H   0  0  0  0  0  0  0  0  0  0  0  0
   -0.5382   56.8939   73.1318 H   0  0  0  0  0  0  0  0  0  0  0  0
   -0.2630   55.1188   73.1318 H   0  0  0  0  0  0  0  0  0  0  0  0
    4.3813   56.9680   77.5036 H   0  0  0  0  0  0  0  0  0  0  0  0
    5.1860   56.1759   76.1066 H   0  0  0  0  0  0  0  0  0  0  0  0
    4.9316   57.9540   76.1066 H   0  0  0  0  0  0  0  0  0  0  0  0
  2  1  1  0
  3  2  1  0
  4  3  1  0
  5  4  1  0
  6  5  1  0
  6  1  1  0
  7  1  1  0
  8  7  1  0
 10  9  2  0
 11 10  1  0
 12 11  2  0
 12  8  1  0
 13 12  1  0
 14 13  2  0
 14  9  1  0
 15  9  1  0
 16 15  2  0
 18 17  2  0
 18 15  1  0
 19 17  1  0
 20  5  1  0
 21 20  1  0
 22 21  2  0
 23 22  1  0
 24 23  2  0
 25 24  1  0
 26 25  2  0
 26 21  1  0
 27 25  1  0
 28 27  1  0
 29 24  1  0
 30 29  1  0
  1 31  1  6
  2 32  1  0
  2 33  1  0
  3 34  1  0
  3 35  1  0
  4 36  1  0
  4 37  1  0
  5 38  1  1
  6 39  1  0
  6 40  1  0
  7 41  1  0
  7 42  1  0
 10 43  1  0
 11 44  1  0
 14 45  1  0
 18 46  1  0
 19 47  1  0
 20 48  1  0
 20 49  1  0
 22 50  1  0
 23 51  1  0
 26 52  1  0
 28 53  1  0
 28 54  1  0
 28 55  1  0
 30 56  1  0
 30 57  1  0
 30 58  1  0
M  CHG  1   5   1
M  END
>  <score>  (4) 
-8.686

$$$$
=
     RDKit          3D

 58 60  0  0  0  0  0  0  0  0999 V2000
    0.7980   63.1220   71.9640 C   0  0  1  0  0  0  0  0  0  0  0  0
    2.0900   62.3140   71.7500 C   0  0  0  0  0  0  0  0  0  0  0  0
    2.9380   62.8450   70.5930 C   0  0  0  0  0  0  0  0  0  0  0  0
    2.7480   64.3380   70.3950 C   0  0  0  0  0  0  0  0  0  0  0  0
    1.3020   64.6320   70.0310 N   0  0  1  0  0  4  0  0  0  0  0  0
    0.2910   63.6700   70.6330 C   0  0  0  0  0  0  0  0  0  0  0  0
   -0.2860   62.2820   72.6540 C   0  0  0  0  0  0  0  0  0  0  0  0
    0.0870   62.0740   74.0190 O   0  0  0  0  0  0  0  0  0  0  0  0
    0.8720   58.1050   74.8150 C   0  0  0  0  0  0  0  0  0  0  0  0
    0.0940   58.4590   73.7080 C   0  0  0  0  0  0  0  0  0  0  0  0
   -0.1630   59.8040   73.4460 C   0  0  0  0  0  0  0  0  0  0  0  0
    0.3770   60.7530   74.2990 C   0  0  0  0  0  0  0  0  0  0  0  0
    1.1320   60.4500   75.3750 N   0  0  0  0  0  0  0  0  0  0  0  0
    1.3660   59.1310   75.6080 C   0  0  0  0  0  0  0  0  0  0  0  0
    1.1510   56.6760   75.0720 C   0  0  0  0  0  0  0  0  0  0  0  0
    0.9400   56.1770   76.1710 O   0  0  0  0  0  0  0  0  0  0  0  0
    2.3940   54.7380   74.3090 N   0  0  0  0  0  0  0  0  0  0  0  0
    1.6710   55.7660   74.0030 C   0  0  0  0  0  0  0  0  0  0  0  0
    2.7390   54.0710   73.1280 O   0  0  0  0  0  0  0  0  0  0  0  0
    0.9290   66.0840   70.2610 C   0  0  0  0  0  0  0  0  0  0  0  0
    0.3170   66.7330   69.0500 C   0  0  0  0  0  0  0  0  0  0  0  0
   -0.9790   66.4120   68.6370 C   0  0  0  0  0  0  0  0  0  0  0  0
   -1.5160   66.9860   67.4770 C   0  0  0  0  0  0  0  0  0  0  0  0
   -0.7750   67.8920   66.7050 C   0  0  0  0  0  0  0  0  0  0  0  0
    0.5200   68.2330   67.1280 C   0  0  0  0  0  0  0  0  0  0  0  0
    1.0530   67.6460   68.2860 C   0  0  0  0  0  0  0  0  0  0  0  0
    1.4130   69.0770   66.5210 O   0  0  0  0  0  0  0  0  0  0  0  0
    2.6540   69.3130   67.1750 C   0  0  0  0  0  0  0  0  0  0  0  0
   -1.2340   68.4350   65.5380 O   0  0  0  0  0  0  0  0  0  0  0  0
   -2.5530   68.9660   65.5070 C   0  0  0  0  0  0  0  0  0  0  0  0
    1.0332   63.9661   72.6289 H   0  0  0  0  0  0  0  0  0  0  0  0
    2.6879   62.3570   72.6723 H   0  0  0  0  0  0  0  0  0  0  0  0
    1.7978   61.2834   71.4999 H   0  0  0  0  0  0  0  0  0  0  0  0
    3.9983   62.6462   70.8079 H   0  0  0  0  0  0  0  0  0  0  0  0
    2.6193   62.3343   69.6724 H   0  0  0  0  0  0  0  0  0  0  0  0
    3.0040   64.8648   71.3261 H   0  0  0  0  0  0  0  0  0  0  0  0
    3.4032   64.6815   69.5810 H   0  0  0  0  0  0  0  0  0  0  0  0
    1.2500   64.4632   69.0163 H   0  0  0  0  0  0  0  0  0  0  0  0
   -0.6585   64.2001   70.7984 H   0  0  0  0  0  0  0  0  0  0  0  0
    0.1420   62.8309   69.9375 H   0  0  0  0  0  0  0  0  0  0  0  0
   -1.2480   62.8137   72.6111 H   0  0  0  0  0  0  0  0  0  0  0  0
   -0.3871   61.3128   72.1437 H   0  0  0  0  0  0  0  0  0  0  0  0
   -0.3133   57.6797   73.0470 H   0  0  0  0  0  0  0  0  0  0  0  0
   -0.7782   60.1039   72.5848 H   0  0  0  0  0  0  0  0  0  0  0  0
    1.9839   58.8611   76.4771 H   0  0  0  0  0  0  0  0  0  0  0  0
    1.4363   55.9733   72.9485 H   0  0  0  0  0  0  0  0  0  0  0  0
    3.2957   53.2532   73.1659 H   0  0  0  0  0  0  0  0  0  0  0  0
    0.2056   66.1332   71.0882 H   0  0  0  0  0  0  0  0  0  0  0  0
    1.8560   66.6289   70.4929 H   0  0  0  0  0  0  0  0  0  0  0  0
   -1.5811   65.7045   69.2261 H   0  0  0  0  0  0  0  0  0  0  0  0
   -2.5374   66.7210   67.1664 H   0  0  0  0  0  0  0  0  0  0  0  0
    2.0735   67.9097   68.6007 H   0  0  0  0  0  0  0  0  0  0  0  0
    2.5055   69.2848   68.2646 H   0  0  0  0  0  0  0  0  0  0  0  0
    3.3759   68.5360   66.8831 H   0  0  0  0  0  0  0  0  0  0  0  0
    3.0403   70.3007   66.8831 H   0  0  0  0  0  0  0  0  0  0  0  0
   -2.9140   69.1113   66.5359 H   0  0  0  0  0  0  0  0  0  0  0  0
   -2.5472   69.9318   64.9806 H   0  0  0  0  0  0  0  0  0  0  0  0
   -3.2180   68.2655   64.9806 H   0  0  0  0  0  0  0  0  0  0  0  0
  2  1  1  0
  3  2  1  0
  4  3  1  0
  5  4  1  0
  6  5  1  0
  6  1  1  0
  7  1  1  0
  8  7  1  0
 10  9  2  0
 11 10  1  0
 12 11  2  0
 12  8  1  0
 13 12  1  0
 14 13  2  0
 14  9  1  0
 15  9  1  0
 16 15  2  0
 18 17  2  0
 18 15  1  0
 19 17  1  0
 20  5  1  0
 21 20  1  0
 22 21  2  0
 23 22  1  0
 24 23  2  0
 25 24  1  0
 26 25  2  0
 26 21  1  0
 27 25  1  0
 28 27  1  0
 29 24  1  0
 30 29  1  0
  1 31  1  1
  2 32  1  0
  2 33  1  0
  3 34  1  0
  3 35  1  0
  4 36  1  0
  4 37  1  0
  5 38  1  6
  6 39  1  0
  6 40  1  0
  7 41  1  0
  7 42  1  0
 10 43  1  0
 11 44  1  0
 14 45  1  0
 18 46  1  0
 19 47  1  0
 20 48  1  0
 20 49  1  0
 22 50  1  0
 23 51  1  0
 26 52  1  0
 28 53  1  0
 28 54  1  0
 28 55  1  0
 30 56  1  0
 30 57  1  0
 30 58  1  0
M  CHG  1   5   1
M  END
>  <score>  (5) 
-8.628

$$$$
=
     RDKit          3D

 58 60  0  0  0  0  0  0  0  0999 V2000
    1.8480   63.3880   70.6300 C   0  0  1  0  0  0  0  0  0  0  0  0
    3.1430   64.1280   70.2500 C   0  0  0  0  0  0  0  0  0  0  0  0
    4.4050   63.3610   70.6480 C   0  0  0  0  0  0  0  0  0  0  0  0
    4.1740   61.8600   70.6480 C   0  0  0  0  0  0  0  0  0  0  0  0
    3.1160   61.4990   71.6770 N   0  0  1  0  0  4  0  0  0  0  0  0
    2.0610   62.5710   71.9010 C   0  0  0  0  0  0  0  0  0  0  0  0
    0.6720   64.3590   70.7980 C   0  0  0  0  0  0  0  0  0  0  0  0
    1.1570   65.6990   70.6890 O   0  0  0  0  0  0  0  0  0  0  0  0
   -0.3270   67.7660   67.4430 C   0  0  0  0  0  0  0  0  0  0  0  0
    0.9420   68.0670   67.9480 C   0  0  0  0  0  0  0  0  0  0  0  0
    1.4350   67.3610   69.0440 C   0  0  0  0  0  0  0  0  0  0  0  0
    0.6430   66.3670   69.5940 C   0  0  0  0  0  0  0  0  0  0  0  0
   -0.5850   66.0470   69.1340 N   0  0  0  0  0  0  0  0  0  0  0  0
   -1.0420   66.7520   68.0660 C   0  0  0  0  0  0  0  0  0  0  0  0
   -0.8310   68.5120   66.2710 C   0  0  0  0  0  0  0  0  0  0  0  0
   -0.1170   68.7200   65.2970 O   0  0  0  0  0  0  0  0  0  0  0  0
   -3.2070   68.2300   65.8750 N   0  0  0  0  0  0  0  0  0  0  0  0
   -2.2380   69.0210   66.2020 C   0  0  0  0  0  0  0  0  0  0  0  0
   -4.4000   68.9610   65.8900 O   0  0  0  0  0  0  0  0  0  0  0  0
    2.5100   60.1310   71.4320 C   0  0  0  0  0  0  0  0  0  0  0  0
    2.5970   59.2260   72.6310 C   0  0  0  0  0  0  0  0  0  0  0  0
    3.4470   59.5240   73.6990 C   0  0  0  0  0  0  0  0  0  0  0  0
    3.5550   58.6450   74.7850 C   0  0  0  0  0  0  0  0  0  0  0  0
    2.8200   57.4520   74.8300 C   0  0  0  0  0  0  0  0  0  0  0  0
    1.9500   57.1590   73.7680 C   0  0  0  0  0  0  0  0  0  0  0  0
    1.8540   58.0400   72.6810 C   0  0  0  0  0  0  0  0  0  0  0  0
    1.1570   56.0520   73.6050 O   0  0  0  0  0  0  0  0  0  0  0  0
   -0.2510   56.2210   73.7280 C   0  0  0  0  0  0  0  0  0  0  0  0
    2.9340   56.5380   75.8390 O   0  0  0  0  0  0  0  0  0  0  0  0
    2.1140   56.6910   76.9920 C   0  0  0  0  0  0  0  0  0  0  0  0
    1.5942   62.7038   69.8069 H   0  0  0  0  0  0  0  0  0  0  0  0
    3.1536   64.2802   69.1606 H   0  0  0  0  0  0  0  0  0  0  0  0
    3.1505   65.0825   70.7966 H   0  0  0  0  0  0  0  0  0  0  0  0
    5.2066   63.5982   69.9331 H   0  0  0  0  0  0  0  0  0  0  0  0
    4.6834   63.6649   71.6679 H   0  0  0  0  0  0  0  0  0  0  0  0
    3.8355   61.5432   69.6505 H   0  0  0  0  0  0  0  0  0  0  0  0
    5.1146   61.3491   70.9015 H   0  0  0  0  0  0  0  0  0  0  0  0
    3.6283   61.4471   72.5691 H   0  0  0  0  0  0  0  0  0  0  0  0
    1.1129   62.0914   72.1857 H   0  0  0  0  0  0  0  0  0  0  0  0
    2.4026   63.2432   72.7019 H   0  0  0  0  0  0  0  0  0  0  0  0
   -0.0757   64.1722   70.0131 H   0  0  0  0  0  0  0  0  0  0  0  0
    0.2053   64.2112   71.7831 H   0  0  0  0  0  0  0  0  0  0  0  0
    1.5485   68.8577   67.4821 H   0  0  0  0  0  0  0  0  0  0  0  0
    2.4273   67.5875   69.4612 H   0  0  0  0  0  0  0  0  0  0  0  0
   -2.0384   66.5044   67.6713 H   0  0  0  0  0  0  0  0  0  0  0  0
   -2.4485   70.0760   66.4313 H   0  0  0  0  0  0  0  0  0  0  0  0
   -5.2554   68.5171   65.6636 H   0  0  0  0  0  0  0  0  0  0  0  0
    1.4504   60.2595   71.1660 H   0  0  0  0  0  0  0  0  0  0  0  0
    3.0826   59.6580   70.6206 H   0  0  0  0  0  0  0  0  0  0  0  0
    4.0347   60.4538   73.6873 H   0  0  0  0  0  0  0  0  0  0  0  0
    4.2289   58.8957   75.6175 H   0  0  0  0  0  0  0  0  0  0  0  0
    1.1791   57.7936   71.8480 H   0  0  0  0  0  0  0  0  0  0  0  0
   -0.5247   56.2539   74.7929 H   0  0  0  0  0  0  0  0  0  0  0  0
   -0.5511   57.1616   73.2431 H   0  0  0  0  0  0  0  0  0  0  0  0
   -0.7652   55.3781   73.2431 H   0  0  0  0  0  0  0  0  0  0  0  0
    2.7287   56.5763   77.8970 H   0  0  0  0  0  0  0  0  0  0  0  0
    1.6545   57.6904   76.9851 H   0  0  0  0  0  0  0  0  0  0  0  0
    1.3250   55.9246   76.9851 H   0  0  0  0  0  0  0  0  0  0  0  0
  2  1  1  0
  3  2  1  0
  4  3  1  0
  5  4  1  0
  6  5  1  0
  6  1  1  0
  7  1  1  0
  8  7  1  0
 10  9  2  0
 11 10  1  0
 12 11  2  0
 12  8  1  0
 13 12  1  0
 14 13  2  0
 14  9  1  0
 15  9  1  0
 16 15  2  0
 18 17  2  0
 18 15  1  0
 19 17  1  0
 20  5  1  0
 21 20  1  0
 22 21  2  0
 23 22  1  0
 24 23  2  0
 25 24  1  0
 26 25  2  0
 26 21  1  0
 27 25  1  0
 28 27  1  0
 29 24  1  0
 30 29  1  0
  1 31  1  6
  2 32  1  0
  2 33  1  0
  3 34  1  0
  3 35  1  0
  4 36  1  0
  4 37  1  0
  5 38  1  1
  6 39  1  0
  6 40  1  0
  7 41  1  0
  7 42  1  0
 10 43  1  0
 11 44  1  0
 14 45  1  0
 18 46  1  0
 19 47  1  0
 20 48  1  0
 20 49  1  0
 22 50  1  0
 23 51  1  0
 26 52  1  0
 28 53  1  0
 28 54  1  0
 28 55  1  0
 30 56  1  0
 30 57  1  0
 30 58  1  0
M  CHG  1   5   1
M  END
>  <score>  (6) 
-8.458

$$$$
=
     RDKit          3D

 58 60  0  0  0  0  0  0  0  0999 V2000
    0.8080   64.4880   70.8710 C   0  0  1  0  0  0  0  0  0  0  0  0
    2.2730   64.3630   70.4150 C   0  0  0  0  0  0  0  0  0  0  0  0
    2.9880   63.1610   71.0360 C   0  0  0  0  0  0  0  0  0  0  0  0
    2.0230   62.0290   71.3420 C   0  0  0  0  0  0  0  0  0  0  0  0
    0.9950   62.4860   72.3640 N   0  0  1  0  0  4  0  0  0  0  0  0
    0.6520   63.9650   72.2960 C   0  0  0  0  0  0  0  0  0  0  0  0
    0.3060   65.9350   70.7640 C   0  0  0  0  0  0  0  0  0  0  0  0
    1.2050   66.6780   69.9370 O   0  0  0  0  0  0  0  0  0  0  0  0
   -0.5430   68.1700   66.5130 C   0  0  0  0  0  0  0  0  0  0  0  0
    0.6720   68.6930   66.9680 C   0  0  0  0  0  0  0  0  0  0  0  0
    1.2560   68.1800   68.1240 C   0  0  0  0  0  0  0  0  0  0  0  0
    0.6060   67.1500   68.7850 C   0  0  0  0  0  0  0  0  0  0  0  0
   -0.5660   66.6200   68.3770 N   0  0  0  0  0  0  0  0  0  0  0  0
   -1.1140   67.1390   67.2480 C   0  0  0  0  0  0  0  0  0  0  0  0
   -1.1430   68.7120   65.2760 C   0  0  0  0  0  0  0  0  0  0  0  0
   -2.3280   69.0220   65.2290 O   0  0  0  0  0  0  0  0  0  0  0  0
    0.2770   67.9540   63.4620 N   0  0  0  0  0  0  0  0  0  0  0  0
   -0.3340   68.9380   64.0370 C   0  0  0  0  0  0  0  0  0  0  0  0
    0.9490   68.4450   62.3370 O   0  0  0  0  0  0  0  0  0  0  0  0
   -0.2390   61.6040   72.3810 C   0  0  0  0  0  0  0  0  0  0  0  0
   -0.0120   60.2890   73.0750 C   0  0  0  0  0  0  0  0  0  0  0  0
   -1.0560   59.6250   73.7230 C   0  0  0  0  0  0  0  0  0  0  0  0
   -0.8180   58.4270   74.4080 C   0  0  0  0  0  0  0  0  0  0  0  0
    0.4650   57.8640   74.4620 C   0  0  0  0  0  0  0  0  0  0  0  0
    1.5130   58.5170   73.7940 C   0  0  0  0  0  0  0  0  0  0  0  0
    1.2670   59.7220   73.1190 C   0  0  0  0  0  0  0  0  0  0  0  0
    2.8340   58.1520   73.7320 O   0  0  0  0  0  0  0  0  0  0  0  0
    3.7940   59.1750   73.4960 C   0  0  0  0  0  0  0  0  0  0  0  0
    0.7580   56.7280   75.1630 O   0  0  0  0  0  0  0  0  0  0  0  0
    0.5030   55.4680   74.5540 C   0  0  0  0  0  0  0  0  0  0  0  0
    0.1898   63.8745   70.1990 H   0  0  0  0  0  0  0  0  0  0  0  0
    2.2923   64.2561   69.3204 H   0  0  0  0  0  0  0  0  0  0  0  0
    2.8010   65.2693   70.7464 H   0  0  0  0  0  0  0  0  0  0  0  0
    3.7515   62.7979   70.3323 H   0  0  0  0  0  0  0  0  0  0  0  0
    3.4459   63.4859   71.9819 H   0  0  0  0  0  0  0  0  0  0  0  0
    1.5089   61.7283   70.4172 H   0  0  0  0  0  0  0  0  0  0  0  0
    2.5843   61.1757   71.7504 H   0  0  0  0  0  0  0  0  0  0  0  0
    1.4628   62.3686   73.2741 H   0  0  0  0  0  0  0  0  0  0  0  0
   -0.3884   64.1101   72.6224 H   0  0  0  0  0  0  0  0  0  0  0  0
    1.3381   64.5186   72.9538 H   0  0  0  0  0  0  0  0  0  0  0  0
   -0.6995   65.9448   70.3179 H   0  0  0  0  0  0  0  0  0  0  0  0
    0.2603   66.3882   71.7652 H   0  0  0  0  0  0  0  0  0  0  0  0
    1.1645   69.5064   66.4150 H   0  0  0  0  0  0  0  0  0  0  0  0
    2.2077   68.5818   68.5020 H   0  0  0  0  0  0  0  0  0  0  0  0
   -2.0667   66.7178   66.8946 H   0  0  0  0  0  0  0  0  0  0  0  0
   -0.2586   69.9498   63.6120 H   0  0  0  0  0  0  0  0  0  0  0  0
    1.4761   67.8300   61.7677 H   0  0  0  0  0  0  0  0  0  0  0  0
   -1.0461   62.1403   72.9016 H   0  0  0  0  0  0  0  0  0  0  0  0
   -0.5002   61.3835   71.3355 H   0  0  0  0  0  0  0  0  0  0  0  0
   -2.0719   60.0459   73.6951 H   0  0  0  0  0  0  0  0  0  0  0  0
   -1.6526   57.9185   74.9128 H   0  0  0  0  0  0  0  0  0  0  0  0
    2.0988   60.2333   72.6124 H   0  0  0  0  0  0  0  0  0  0  0  0
    4.1592   59.5641   74.4579 H   0  0  0  0  0  0  0  0  0  0  0  0
    4.6375   58.7613   72.9238 H   0  0  0  0  0  0  0  0  0  0  0  0
    3.3276   59.9905   72.9238 H   0  0  0  0  0  0  0  0  0  0  0  0
    0.3492   54.7080   75.3343 H   0  0  0  0  0  0  0  0  0  0  0  0
   -0.3990   55.5390   73.9284 H   0  0  0  0  0  0  0  0  0  0  0  0
    1.3616   55.1827   73.9284 H   0  0  0  0  0  0  0  0  0  0  0  0
  2  1  1  0
  3  2  1  0
  4  3  1  0
  5  4  1  0
  6  5  1  0
  6  1  1  0
  7  1  1  0
  8  7  1  0
 10  9  2  0
 11 10  1  0
 12 11  2  0
 12  8  1  0
 13 12  1  0
 14 13  2  0
 14  9  1  0
 15  9  1  0
 16 15  2  0
 18 17  2  0
 18 15  1  0
 19 17  1  0
 20  5  1  0
 21 20  1  0
 22 21  2  0
 23 22  1  0
 24 23  2  0
 25 24  1  0
 26 25  2  0
 26 21  1  0
 27 25  1  0
 28 27  1  0
 29 24  1  0
 30 29  1  0
  1 31  1  6
  2 32  1  0
  2 33  1  0
  3 34  1  0
  3 35  1  0
  4 36  1  0
  4 37  1  0
  5 38  1  1
  6 39  1  0
  6 40  1  0
  7 41  1  0
  7 42  1  0
 10 43  1  0
 11 44  1  0
 14 45  1  0
 18 46  1  0
 19 47  1  0
 20 48  1  0
 20 49  1  0
 22 50  1  0
 23 51  1  0
 26 52  1  0
 28 53  1  0
 28 54  1  0
 28 55  1  0
 30 56  1  0
 30 57  1  0
 30 58  1  0
M  CHG  1   5   1
M  END
>  <score>  (7) 
-8.456

$$$$
=
     RDKit          3D

 58 60  0  0  0  0  0  0  0  0999 V2000
    1.8340   63.1690   70.5740 C   0  0  1  0  0  0  0  0  0  0  0  0
    3.1180   63.9960   70.3860 C   0  0  0  0  0  0  0  0  0  0  0  0
    4.3640   63.2910   70.9250 C   0  0  0  0  0  0  0  0  0  0  0  0
    4.2290   61.7800   70.8570 C   0  0  0  0  0  0  0  0  0  0  0  0
    3.0720   61.3240   71.7290 N   0  0  1  0  0  4  0  0  0  0  0  0
    1.9330   62.3240   71.8410 C   0  0  0  0  0  0  0  0  0  0  0  0
    0.5870   64.0640   70.6130 C   0  0  0  0  0  0  0  0  0  0  0  0
    0.9990   65.4290   70.7160 O   0  0  0  0  0  0  0  0  0  0  0  0
   -0.2390   67.7980   67.5750 C   0  0  0  0  0  0  0  0  0  0  0  0
    1.0310   67.9780   68.1340 C   0  0  0  0  0  0  0  0  0  0  0  0
    1.4400   67.1710   69.1940 C   0  0  0  0  0  0  0  0  0  0  0  0
    0.5660   66.1990   69.6540 C   0  0  0  0  0  0  0  0  0  0  0  0
   -0.6650   65.9950   69.1400 N   0  0  0  0  0  0  0  0  0  0  0  0
   -1.0390   66.7980   68.1090 C   0  0  0  0  0  0  0  0  0  0  0  0
   -0.6540   68.6510   66.4420 C   0  0  0  0  0  0  0  0  0  0  0  0
   -1.4300   69.5870   66.6030 O   0  0  0  0  0  0  0  0  0  0  0  0
   -0.8880   68.6400   64.0280 N   0  0  0  0  0  0  0  0  0  0  0  0
   -0.1300   68.4370   65.0560 C   0  0  0  0  0  0  0  0  0  0  0  0
   -0.1480   68.3670   62.8710 O   0  0  0  0  0  0  0  0  0  0  0  0
    2.5890   59.9310   71.3720 C   0  0  0  0  0  0  0  0  0  0  0  0
    2.5590   58.9990   72.5530 C   0  0  0  0  0  0  0  0  0  0  0  0
    1.9710   57.7350   72.4590 C   0  0  0  0  0  0  0  0  0  0  0  0
    1.9050   56.8990   73.5810 C   0  0  0  0  0  0  0  0  0  0  0  0
    2.4230   57.3020   74.8190 C   0  0  0  0  0  0  0  0  0  0  0  0
    3.0330   58.5640   74.9130 C   0  0  0  0  0  0  0  0  0  0  0  0
    3.0860   59.3980   73.7860 C   0  0  0  0  0  0  0  0  0  0  0  0
    3.5850   59.1560   76.0190 O   0  0  0  0  0  0  0  0  0  0  0  0
    2.7440   59.9770   76.8210 C   0  0  0  0  0  0  0  0  0  0  0  0
    2.3330   56.5460   75.9540 O   0  0  0  0  0  0  0  0  0  0  0  0
    1.4940   55.3970   75.9410 C   0  0  0  0  0  0  0  0  0  0  0  0
    1.7310   62.4994   69.7074 H   0  0  0  0  0  0  0  0  0  0  0  0
    3.2591   64.1859   69.3117 H   0  0  0  0  0  0  0  0  0  0  0  0
    2.9954   64.9300   70.9539 H   0  0  0  0  0  0  0  0  0  0  0  0
    5.2343   63.5983   70.3265 H   0  0  0  0  0  0  0  0  0  0  0  0
    4.4898   63.5766   71.9798 H   0  0  0  0  0  0  0  0  0  0  0  0
    4.0426   61.4771   69.8161 H   0  0  0  0  0  0  0  0  0  0  0  0
    5.1590   61.3169   71.2185 H   0  0  0  0  0  0  0  0  0  0  0  0
    3.4671   61.2725   72.6788 H   0  0  0  0  0  0  0  0  0  0  0  0
    0.9879   61.7806   71.9880 H   0  0  0  0  0  0  0  0  0  0  0  0
    2.1268   62.9882   72.6962 H   0  0  0  0  0  0  0  0  0  0  0  0
    0.0027   63.9233   69.6917 H   0  0  0  0  0  0  0  0  0  0  0  0
   -0.0363   63.7968   71.4791 H   0  0  0  0  0  0  0  0  0  0  0  0
    1.7037   68.7532   67.7385 H   0  0  0  0  0  0  0  0  0  0  0  0
    2.4308   67.3022   69.6535 H   0  0  0  0  0  0  0  0  0  0  0  0
   -2.0366   66.6458   67.6714 H   0  0  0  0  0  0  0  0  0  0  0  0
    0.9084   68.1043   64.9108 H   0  0  0  0  0  0  0  0  0  0  0  0
   -0.5673   68.4681   61.9799 H   0  0  0  0  0  0  0  0  0  0  0  0
    1.5720   60.0074   70.9597 H   0  0  0  0  0  0  0  0  0  0  0  0
    3.2977   59.5140   70.6414 H   0  0  0  0  0  0  0  0  0  0  0  0
    1.5575   57.3944   71.4983 H   0  0  0  0  0  0  0  0  0  0  0  0
    1.4377   55.9075   73.4885 H   0  0  0  0  0  0  0  0  0  0  0  0
    3.5534   60.3899   73.8740 H   0  0  0  0  0  0  0  0  0  0  0  0
    2.9456   59.7802   77.8843 H   0  0  0  0  0  0  0  0  0  0  0  0
    2.9455   61.0354   76.5993 H   0  0  0  0  0  0  0  0  0  0  0  0
    1.6907   59.7501   76.5993 H   0  0  0  0  0  0  0  0  0  0  0  0
    1.2722   55.0932   76.9747 H   0  0  0  0  0  0  0  0  0  0  0  0
    0.5552   55.6344   75.4191 H   0  0  0  0  0  0  0  0  0  0  0  0
    2.0059   54.5751   75.4191 H   0  0  0  0  0  0  0  0  0  0  0  0
  2  1  1  0
  3  2  1  0
  4  3  1  0
  5  4  1  0
  6  5  1  0
  6  1  1  0
  7  1  1  0
  8  7  1  0
 10  9  2  0
 11 10  1  0
 12 11  2  0
 12  8  1  0
 13 12  1  0
 14 13  2  0
 14  9  1  0
 15  9  1  0
 16 15  2  0
 18 17  2  0
 18 15  1  0
 19 17  1  0
 20  5  1  0
 21 20  1  0
 22 21  2  0
 23 22  1  0
 24 23  2  0
 25 24  1  0
 26 25  2  0
 26 21  1  0
 27 25  1  0
 28 27  1  0
 29 24  1  0
 30 29  1  0
  1 31  1  6
  2 32  1  0
  2 33  1  0
  3 34  1  0
  3 35  1  0
  4 36  1  0
  4 37  1  0
  5 38  1  1
  6 39  1  0
  6 40  1  0
  7 41  1  0
  7 42  1  0
 10 43  1  0
 11 44  1  0
 14 45  1  0
 18 46  1  0
 19 47  1  0
 20 48  1  0
 20 49  1  0
 22 50  1  0
 23 51  1  0
 26 52  1  0
 28 53  1  0
 28 54  1  0
 28 55  1  0
 30 56  1  0
 30 57  1  0
 30 58  1  0
M  CHG  1   5   1
M  END
>  <score>  (8) 
-8.366

$$$$
=
     RDKit          3D

 58 60  0  0  0  0  0  0  0  0999 V2000
    3.3260   61.1960   70.2350 C   0  0  1  0  0  0  0  0  0  0  0  0
    4.6360   61.9630   70.4910 C   0  0  0  0  0  0  0  0  0  0  0  0
    4.4590   63.4810   70.4250 C   0  0  0  0  0  0  0  0  0  0  0  0
    3.0570   63.9020   70.8280 C   0  0  0  0  0  0  0  0  0  0  0  0
    2.0410   63.3130   69.8620 N   0  0  1  0  0  4  0  0  0  0  0  0
    2.4410   61.9740   69.2650 C   0  0  0  0  0  0  0  0  0  0  0  0
    3.5960   59.7790   69.7090 C   0  0  0  0  0  0  0  0  0  0  0  0
    4.3570   59.0600   70.6830 O   0  0  0  0  0  0  0  0  0  0  0  0
    1.9790   57.6390   73.7370 C   0  0  0  0  0  0  0  0  0  0  0  0
    1.8290   57.1410   72.4390 C   0  0  0  0  0  0  0  0  0  0  0  0
    2.6390   57.6260   71.4140 C   0  0  0  0  0  0  0  0  0  0  0  0
    3.5830   58.5900   71.7260 C   0  0  0  0  0  0  0  0  0  0  0  0
    3.7580   59.0940   72.9660 N   0  0  0  0  0  0  0  0  0  0  0  0
    2.9540   58.6050   73.9450 C   0  0  0  0  0  0  0  0  0  0  0  0
    1.1240   57.1040   74.8180 C   0  0  0  0  0  0  0  0  0  0  0  0
    0.9400   57.7350   75.8520 O   0  0  0  0  0  0  0  0  0  0  0  0
   -0.8600   55.7440   74.5110 N   0  0  0  0  0  0  0  0  0  0  0  0
    0.4190   55.7890   74.6920 C   0  0  0  0  0  0  0  0  0  0  0  0
   -1.2500   54.4020   74.4290 O   0  0  0  0  0  0  0  0  0  0  0  0
    0.6360   63.2980   70.4330 C   0  0  0  0  0  0  0  0  0  0  0  0
    0.5860   62.8170   71.8580 C   0  0  0  0  0  0  0  0  0  0  0  0
    0.4370   61.4610   72.1570 C   0  0  0  0  0  0  0  0  0  0  0  0
    0.3400   61.0350   73.4880 C   0  0  0  0  0  0  0  0  0  0  0  0
    0.3910   61.9500   74.5490 C   0  0  0  0  0  0  0  0  0  0  0  0
    0.5620   63.3120   74.2530 C   0  0  0  0  0  0  0  0  0  0  0  0
    0.6490   63.7300   72.9170 C   0  0  0  0  0  0  0  0  0  0  0  0
    0.6220   64.3660   75.1290 O   0  0  0  0  0  0  0  0  0  0  0  0
   -0.3520   65.3940   74.9960 C   0  0  0  0  0  0  0  0  0  0  0  0
    0.2450   61.5890   75.8590 O   0  0  0  0  0  0  0  0  0  0  0  0
    1.4030   61.2080   76.5930 C   0  0  0  0  0  0  0  0  0  0  0  0
    2.7977   61.0954   71.1946 H   0  0  0  0  0  0  0  0  0  0  0  0
    5.0094   61.6962   71.4907 H   0  0  0  0  0  0  0  0  0  0  0  0
    5.3454   61.6784   69.6999 H   0  0  0  0  0  0  0  0  0  0  0  0
    5.1824   63.9540   71.1054 H   0  0  0  0  0  0  0  0  0  0  0  0
    4.6271   63.8005   69.3859 H   0  0  0  0  0  0  0  0  0  0  0  0
    2.8457   63.5398   71.8449 H   0  0  0  0  0  0  0  0  0  0  0  0
    2.9872   64.9995   70.8017 H   0  0  0  0  0  0  0  0  0  0  0  0
    2.0346   63.9631   69.0631 H   0  0  0  0  0  0  0  0  0  0  0  0
    1.5348   61.3877   69.0528 H   0  0  0  0  0  0  0  0  0  0  0  0
    3.0042   62.1535   68.3373 H   0  0  0  0  0  0  0  0  0  0  0  0
    2.6409   59.2627   69.5321 H   0  0  0  0  0  0  0  0  0  0  0  0
    4.1565   59.8330   68.7641 H   0  0  0  0  0  0  0  0  0  0  0  0
    1.0743   56.3691   72.2278 H   0  0  0  0  0  0  0  0  0  0  0  0
    2.5314   57.2531   70.3847 H   0  0  0  0  0  0  0  0  0  0  0  0
    3.0831   58.9980   74.9643 H   0  0  0  0  0  0  0  0  0  0  0  0
    0.9944   54.8535   74.7540 H   0  0  0  0  0  0  0  0  0  0  0  0
   -2.2026   54.1710   74.2902 H   0  0  0  0  0  0  0  0  0  0  0  0
    0.2305   64.3198   70.3934 H   0  0  0  0  0  0  0  0  0  0  0  0
    0.0422   62.5971   69.8279 H   0  0  0  0  0  0  0  0  0  0  0  0
    0.3956   60.7229   71.3424 H   0  0  0  0  0  0  0  0  0  0  0  0
    0.2217   59.9631   73.7046 H   0  0  0  0  0  0  0  0  0  0  0  0
    0.7696   64.8008   72.6962 H   0  0  0  0  0  0  0  0  0  0  0  0
   -0.6698   65.7294   75.9943 H   0  0  0  0  0  0  0  0  0  0  0  0
    0.0822   66.2415   74.4454 H   0  0  0  0  0  0  0  0  0  0  0  0
   -1.2217   65.0061   74.4454 H   0  0  0  0  0  0  0  0  0  0  0  0
    1.1932   61.2770   77.6706 H   0  0  0  0  0  0  0  0  0  0  0  0
    1.6748   60.1731   76.3379 H   0  0  0  0  0  0  0  0  0  0  0  0
    2.2362   61.8794   76.3379 H   0  0  0  0  0  0  0  0  0  0  0  0
  2  1  1  0
  3  2  1  0
  4  3  1  0
  5  4  1  0
  6  5  1  0
  6  1  1  0
  7  1  1  0
  8  7  1  0
 10  9  2  0
 11 10  1  0
 12 11  2  0
 12  8  1  0
 13 12  1  0
 14 13  2  0
 14  9  1  0
 15  9  1  0
 16 15  2  0
 18 17  2  0
 18 15  1  0
 19 17  1  0
 20  5  1  0
 21 20  1  0
 22 21  2  0
 23 22  1  0
 24 23  2  0
 25 24  1  0
 26 25  2  0
 26 21  1  0
 27 25  1  0
 28 27  1  0
 29 24  1  0
 30 29  1  0
  1 31  1  1
  2 32  1  0
  2 33  1  0
  3 34  1  0
  3 35  1  0
  4 36  1  0
  4 37  1  0
  5 38  1  6
  6 39  1  0
  6 40  1  0
  7 41  1  0
  7 42  1  0
 10 43  1  0
 11 44  1  0
 14 45  1  0
 18 46  1  0
 19 47  1  0
 20 48  1  0
 20 49  1  0
 22 50  1  0
 23 51  1  0
 26 52  1  0
 28 53  1  0
 28 54  1  0
 28 55  1  0
 30 56  1  0
 30 57  1  0
 30 58  1  0
M  CHG  1   5   1
M  END
>  <score>  (9) 
-8.292

$$$$
