=
     RDKit          3D

 31 31  0  0  0  0  0  0  0  0999 V2000
    1.4220   67.7590   66.2440 C   0  0  0  0  0  0  0  0  0  0  0  0
    1.5420   67.0080   67.2010 O   0  0  0  0  0  0  0  0  0  0  0  0
    2.1650   68.8500   65.9180 N   0  0  0  0  0  0  0  0  0  0  0  0
    3.2860   69.3900   66.5890 C   0  0  0  0  0  0  0  0  0  0  0  0
    3.2370   69.8310   67.9100 C   0  0  0  0  0  0  0  0  0  0  0  0
    4.3910   70.3470   68.4840 C   0  0  0  0  0  0  0  0  0  0  0  0
    5.5680   70.4520   67.8370 N   0  0  0  0  0  0  0  0  0  0  0  0
    5.6010   70.0190   66.5570 C   0  0  0  0  0  0  0  0  0  0  0  0
    4.5030   69.4880   65.8990 C   0  0  0  0  0  0  0  0  0  0  0  0
    4.6930   68.9220   64.1000 Br  0  0  0  0  0  0  0  0  0  0  0  0
    0.4340   67.6070   65.3160 O   0  0  0  0  0  0  0  0  0  0  0  0
   -0.4950   68.7040   65.2430 C   0  0  0  0  0  0  0  0  0  0  0  0
   -1.0330   69.0820   66.6320 C   0  0  0  0  0  0  0  0  0  0  0  0
   -3.3910   68.6850   65.7960 C   0  0  0  0  0  0  0  0  0  0  0  0
   -2.4180   68.5390   66.9290 N   0  0  0  0  0  4  0  0  0  0  0  0
   -2.3980   67.1420   67.4990 C   0  0  0  0  0  0  0  0  0  0  0  0
    1.8714   69.3507   65.0671 H   0  0  0  0  0  0  0  0  0  0  0  0
    2.3022   69.7714   68.4867 H   0  0  0  0  0  0  0  0  0  0  0  0
    4.3414   70.6901   69.5279 H   0  0  0  0  0  0  0  0  0  0  0  0
    6.5512   70.0921   66.0077 H   0  0  0  0  0  0  0  0  0  0  0  0
    0.0155   69.5760   64.8083 H   0  0  0  0  0  0  0  0  0  0  0  0
   -1.3449   68.3945   64.6170 H   0  0  0  0  0  0  0  0  0  0  0  0
   -0.3386   68.6901   67.3897 H   0  0  0  0  0  0  0  0  0  0  0  0
   -1.1111   70.1790   66.6539 H   0  0  0  0  0  0  0  0  0  0  0  0
   -4.4031   68.8369   66.1991 H   0  0  0  0  0  0  0  0  0  0  0  0
   -3.1083   69.5508   65.1792 H   0  0  0  0  0  0  0  0  0  0  0  0
   -3.3748   67.7744   65.1792 H   0  0  0  0  0  0  0  0  0  0  0  0
   -2.7794   69.1511   67.6744 H   0  0  0  0  0  0  0  0  0  0  0  0
   -2.3987   67.1943   68.5978 H   0  0  0  0  0  0  0  0  0  0  0  0
   -3.2884   66.5938   67.1574 H   0  0  0  0  0  0  0  0  0  0  0  0
   -1.4923   66.6195   67.1574 H   0  0  0  0  0  0  0  0  0  0  0  0
  2  1  2  0
  3  1  1  0
  4  3  1  0
  5  4  2  0
  6  5  1  0
  7  6  2  0
  8  7  1  0
  9  4  1  0
  9  8  2  0
 10  9  1  0
 11  1  1  0
 12 11  1  0
 13 12  1  0
 15 14  1  0
 15 13  1  0
 16 15  1  0
  3 17  1  0
  5 18  1  0
  6 19  1  0
  8 20  1  0
 12 21  1  0
 12 22  1  0
 13 23  1  0
 13 24  1  0
 14 25  1  0
 14 26  1  0
 14 27  1  0
 15 28  1  0
 16 29  1  0
 16 30  1  0
 16 31  1  0
M  CHG  1  15   1
M  END
>  <score>  (1) 
-6.949

$$$$
=
     RDKit          3D

 31 31  0  0  0  0  0  0  0  0999 V2000
    1.3050   67.8330   66.3340 C   0  0  0  0  0  0  0  0  0  0  0  0
    1.3070   67.0330   67.2580 O   0  0  0  0  0  0  0  0  0  0  0  0
    2.0420   68.9660   66.1850 N   0  0  0  0  0  0  0  0  0  0  0  0
    3.0210   69.5050   67.0510 C   0  0  0  0  0  0  0  0  0  0  0  0
    2.7460   69.8760   68.3660 C   0  0  0  0  0  0  0  0  0  0  0  0
    3.7740   70.3980   69.1400 C   0  0  0  0  0  0  0  0  0  0  0  0
    5.0340   70.5720   68.6960 N   0  0  0  0  0  0  0  0  0  0  0  0
    5.2860   70.2050   67.4200 C   0  0  0  0  0  0  0  0  0  0  0  0
    4.3270   69.6750   66.5700 C   0  0  0  0  0  0  0  0  0  0  0  0
    4.8220   69.2080   64.8010 Br  0  0  0  0  0  0  0  0  0  0  0  0
    0.4810   67.7010   65.2560 O   0  0  0  0  0  0  0  0  0  0  0  0
    0.2830   68.9080   64.4990 C   0  0  0  0  0  0  0  0  0  0  0  0
   -0.4480   68.6320   63.1760 C   0  0  0  0  0  0  0  0  0  0  0  0
    0.1260   69.8870   61.0520 C   0  0  0  0  0  0  0  0  0  0  0  0
    0.4380   68.7250   61.9470 N   0  0  0  0  0  4  0  0  0  0  0  0
    1.9080   68.6170   62.2670 C   0  0  0  0  0  0  0  0  0  0  0  0
    1.8629   69.5042   65.3252 H   0  0  0  0  0  0  0  0  0  0  0  0
    1.7348   69.7577   68.7825 H   0  0  0  0  0  0  0  0  0  0  0  0
    3.5461   70.6864   70.1768 H   0  0  0  0  0  0  0  0  0  0  0  0
    6.3081   70.3338   67.0344 H   0  0  0  0  0  0  0  0  0  0  0  0
   -0.3152   69.6108   65.0976 H   0  0  0  0  0  0  0  0  0  0  0  0
    1.2701   69.3331   64.2647 H   0  0  0  0  0  0  0  0  0  0  0  0
   -0.8716   67.6178   63.2205 H   0  0  0  0  0  0  0  0  0  0  0  0
   -1.2184   69.4101   63.0711 H   0  0  0  0  0  0  0  0  0  0  0  0
   -0.1108   70.7689   61.6653 H   0  0  0  0  0  0  0  0  0  0  0  0
    0.9974   70.1051   60.4171 H   0  0  0  0  0  0  0  0  0  0  0  0
   -0.7375   69.6393   60.4171 H   0  0  0  0  0  0  0  0  0  0  0  0
    0.2000   67.8893   61.3939 H   0  0  0  0  0  0  0  0  0  0  0  0
    2.0459   68.6069   63.3583 H   0  0  0  0  0  0  0  0  0  0  0  0
    2.3093   67.6870   61.8381 H   0  0  0  0  0  0  0  0  0  0  0  0
    2.4409   69.4784   61.8381 H   0  0  0  0  0  0  0  0  0  0  0  0
  2  1  2  0
  3  1  1  0
  4  3  1  0
  5  4  2  0
  6  5  1  0
  7  6  2  0
  8  7  1  0
  9  4  1  0
  9  8  2  0
 10  9  1  0
 11  1  1  0
 12 11  1  0
 13 12  1  0
 15 14  1  0
 15 13  1  0
 16 15  1  0
  3 17  1  0
  5 18  1  0
  6 19  1  0
  8 20  1  0
 12 21  1  0
 12 22  1  0
 13 23  1  0
 13 24  1  0
 14 25  1  0
 14 26  1  0
 14 27  1  0
 15 28  1  0
 16 29  1  0
 16 30  1  0
 16 31  1  0
M  CHG  1  15   1
M  END
>  <score>  (2) 
-6.82

$$$$
=
     RDKit          3D

 31 31  0  0  0  0  0  0  0  0999 V2000
    1.6370   67.0730   65.2720 C   0  0  0  0  0  0  0  0  0  0  0  0
    2.3490   66.0970   65.4630 O   0  0  0  0  0  0  0  0  0  0  0  0
    1.9190   68.2130   64.5880 N   0  0  0  0  0  0  0  0  0  0  0  0
    3.1030   68.5620   63.8990 C   0  0  0  0  0  0  0  0  0  0  0  0
    3.2830   68.3290   62.5370 C   0  0  0  0  0  0  0  0  0  0  0  0
    4.4830   68.7060   61.9480 C   0  0  0  0  0  0  0  0  0  0  0  0
    5.4970   69.2890   62.6180 N   0  0  0  0  0  0  0  0  0  0  0  0
    5.3070   69.5110   63.9380 C   0  0  0  0  0  0  0  0  0  0  0  0
    4.1450   69.1700   64.6140 C   0  0  0  0  0  0  0  0  0  0  0  0
    4.0190   69.5380   66.4690 Br  0  0  0  0  0  0  0  0  0  0  0  0
    0.3750   67.1660   65.7800 O   0  0  0  0  0  0  0  0  0  0  0  0
   -0.2390   68.4580   65.6270 C   0  0  0  0  0  0  0  0  0  0  0  0
   -0.9150   68.9190   66.9290 C   0  0  0  0  0  0  0  0  0  0  0  0
   -3.1820   68.7870   65.8060 C   0  0  0  0  0  0  0  0  0  0  0  0
   -2.3760   68.5230   67.0420 N   0  0  0  0  0  4  0  0  0  0  0  0
   -2.5720   67.1240   67.5740 C   0  0  0  0  0  0  0  0  0  0  0  0
    1.1685   68.9181   64.5691 H   0  0  0  0  0  0  0  0  0  0  0  0
    2.4898   67.8555   61.9397 H   0  0  0  0  0  0  0  0  0  0  0  0
    4.6135   68.5179   60.8721 H   0  0  0  0  0  0  0  0  0  0  0  0
    6.1185   69.9882   64.5070 H   0  0  0  0  0  0  0  0  0  0  0  0
    0.5331   69.1897   65.3468 H   0  0  0  0  0  0  0  0  0  0  0  0
   -1.0099   68.3832   64.8459 H   0  0  0  0  0  0  0  0  0  0  0  0
   -0.3706   68.4767   67.7764 H   0  0  0  0  0  0  0  0  0  0  0  0
   -0.8831   70.0185   66.9312 H   0  0  0  0  0  0  0  0  0  0  0  0
   -4.1918   69.1178   66.0905 H   0  0  0  0  0  0  0  0  0  0  0  0
   -2.6933   69.5720   65.2103 H   0  0  0  0  0  0  0  0  0  0  0  0
   -3.2524   67.8650   65.2103 H   0  0  0  0  0  0  0  0  0  0  0  0
   -2.7601   69.1608   67.7537 H   0  0  0  0  0  0  0  0  0  0  0  0
   -2.5689   67.1461   68.6738 H   0  0  0  0  0  0  0  0  0  0  0  0
   -3.5344   66.7278   67.2180 H   0  0  0  0  0  0  0  0  0  0  0  0
   -1.7555   66.4786   67.2180 H   0  0  0  0  0  0  0  0  0  0  0  0
  2  1  2  0
  3  1  1  0
  4  3  1  0
  5  4  2  0
  6  5  1  0
  7  6  2  0
  8  7  1  0
  9  4  1  0
  9  8  2  0
 10  9  1  0
 11  1  1  0
 12 11  1  0
 13 12  1  0
 15 14  1  0
 15 13  1  0
 16 15  1  0
  3 17  1  0
  5 18  1  0
  6 19  1  0
  8 20  1  0
 12 21  1  0
 12 22  1  0
 13 23  1  0
 13 24  1  0
 14 25  1  0
 14 26  1  0
 14 27  1  0
 15 28  1  0
 16 29  1  0
 16 30  1  0
 16 31  1  0
M  CHG  1  15   1
M  END
>  <score>  (3) 
-6.818

$$$$
=
     RDKit          3D

 31 31  0  0  0  0  0  0  0  0999 V2000
    1.5840   67.6610   66.4170 C   0  0  0  0  0  0  0  0  0  0  0  0
    1.3000   67.1190   67.4750 O   0  0  0  0  0  0  0  0  0  0  0  0
    2.4000   68.7250   66.1960 N   0  0  0  0  0  0  0  0  0  0  0  0
    3.1520   69.4730   67.1300 C   0  0  0  0  0  0  0  0  0  0  0  0
    2.6290   69.9120   68.3460 C   0  0  0  0  0  0  0  0  0  0  0  0
    3.4450   70.6410   69.1990 C   0  0  0  0  0  0  0  0  0  0  0  0
    4.7260   70.9580   68.9230 N   0  0  0  0  0  0  0  0  0  0  0  0
    5.2210   70.5240   67.7430 C   0  0  0  0  0  0  0  0  0  0  0  0
    4.4840   69.7900   66.8260 C   0  0  0  0  0  0  0  0  0  0  0  0
    5.3070   69.2500   65.2060 Br  0  0  0  0  0  0  0  0  0  0  0  0
    1.0600   67.2540   65.2260 O   0  0  0  0  0  0  0  0  0  0  0  0
    2.0360   66.8870   64.2340 C   0  0  0  0  0  0  0  0  0  0  0  0
    2.8110   65.6240   64.6450 C   0  0  0  0  0  0  0  0  0  0  0  0
    4.7100   64.1310   63.8800 C   0  0  0  0  0  0  0  0  0  0  0  0
    4.2060   65.5330   64.0530 N   0  0  0  0  0  4  0  0  0  0  0  0
    4.3780   66.3690   62.8090 C   0  0  0  0  0  0  0  0  0  0  0  0
    2.4815   69.0273   65.2147 H   0  0  0  0  0  0  0  0  0  0  0  0
    1.5892   69.6846   68.6236 H   0  0  0  0  0  0  0  0  0  0  0  0
    3.0222   70.9801   70.1562 H   0  0  0  0  0  0  0  0  0  0  0  0
    6.2653   70.7661   67.4964 H   0  0  0  0  0  0  0  0  0  0  0  0
    1.5219   66.6963   63.2804 H   0  0  0  0  0  0  0  0  0  0  0  0
    2.7537   67.7146   64.1337 H   0  0  0  0  0  0  0  0  0  0  0  0
    2.8997   65.6145   65.7414 H   0  0  0  0  0  0  0  0  0  0  0  0
    2.2450   64.7642   64.2572 H   0  0  0  0  0  0  0  0  0  0  0  0
    4.8737   63.6757   64.8679 H   0  0  0  0  0  0  0  0  0  0  0  0
    3.9678   63.5407   63.3226 H   0  0  0  0  0  0  0  0  0  0  0  0
    5.6582   64.1484   63.3226 H   0  0  0  0  0  0  0  0  0  0  0  0
    4.8168   65.9508   64.7695 H   0  0  0  0  0  0  0  0  0  0  0  0
    4.5921   67.4098   63.0934 H   0  0  0  0  0  0  0  0  0  0  0  0
    5.2134   65.9724   62.2133 H   0  0  0  0  0  0  0  0  0  0  0  0
    3.4539   66.3344   62.2133 H   0  0  0  0  0  0  0  0  0  0  0  0
  2  1  2  0
  3  1  1  0
  4  3  1  0
  5  4  2  0
  6  5  1  0
  7  6  2  0
  8  7  1  0
  9  4  1  0
  9  8  2  0
 10  9  1  0
 11  1  1  0
 12 11  1  0
 13 12  1  0
 15 14  1  0
 15 13  1  0
 16 15  1  0
  3 17  1  0
  5 18  1  0
  6 19  1  0
  8 20  1  0
 12 21  1  0
 12 22  1  0
 13 23  1  0
 13 24  1  0
 14 25  1  0
 14 26  1  0
 14 27  1  0
 15 28  1  0
 16 29  1  0
 16 30  1  0
 16 31  1  0
M  CHG  1  15   1
M  END
>  <score>  (4) 
-6.78

$$$$
=
     RDKit          3D

 31 31  0  0  0  0  0  0  0  0999 V2000
    1.1990   67.3010   65.0310 C   0  0  0  0  0  0  0  0  0  0  0  0
    1.6200   66.1680   64.8460 O   0  0  0  0  0  0  0  0  0  0  0  0
    1.7230   68.4840   64.6140 N   0  0  0  0  0  0  0  0  0  0  0  0
    2.8820   68.7150   63.8380 C   0  0  0  0  0  0  0  0  0  0  0  0
    2.9280   68.4930   62.4630 C   0  0  0  0  0  0  0  0  0  0  0  0
    4.1130   68.7480   61.7860 C   0  0  0  0  0  0  0  0  0  0  0  0
    5.2350   69.2000   62.3810 N   0  0  0  0  0  0  0  0  0  0  0  0
    5.1740   69.4120   63.7140 C   0  0  0  0  0  0  0  0  0  0  0  0
    4.0380   69.1870   64.4760 C   0  0  0  0  0  0  0  0  0  0  0  0
    4.0980   69.5250   66.3400 Br  0  0  0  0  0  0  0  0  0  0  0  0
    0.0740   67.5510   65.7590 O   0  0  0  0  0  0  0  0  0  0  0  0
    0.1990   68.6240   66.7090 C   0  0  0  0  0  0  0  0  0  0  0  0
    0.8540   68.1480   68.0160 C   0  0  0  0  0  0  0  0  0  0  0  0
    0.8760   66.4050   69.8550 C   0  0  0  0  0  0  0  0  0  0  0  0
    0.3450   66.8070   68.5110 N   0  0  0  0  0  4  0  0  0  0  0  0
   -1.1550   66.6700   68.4160 C   0  0  0  0  0  0  0  0  0  0  0  0
    1.2054   69.3264   64.9026 H   0  0  0  0  0  0  0  0  0  0  0  0
    2.0429   68.1230   61.9247 H   0  0  0  0  0  0  0  0  0  0  0  0
    4.1378   68.5708   60.7006 H   0  0  0  0  0  0  0  0  0  0  0  0
    6.0757   69.7837   64.2228 H   0  0  0  0  0  0  0  0  0  0  0  0
    0.8173   69.4203   66.2690 H   0  0  0  0  0  0  0  0  0  0  0  0
   -0.8095   68.9950   66.9443 H   0  0  0  0  0  0  0  0  0  0  0  0
    1.9382   68.0659   67.8492 H   0  0  0  0  0  0  0  0  0  0  0  0
    0.5980   68.8891   68.7875 H   0  0  0  0  0  0  0  0  0  0  0  0
    0.2649   66.8676   70.6440 H   0  0  0  0  0  0  0  0  0  0  0  0
    0.8341   65.3102   69.9533 H   0  0  0  0  0  0  0  0  0  0  0  0
    1.9184   66.7424   69.9533 H   0  0  0  0  0  0  0  0  0  0  0  0
    0.7416   66.1231   67.8507 H   0  0  0  0  0  0  0  0  0  0  0  0
   -1.5844   66.6308   69.4280 H   0  0  0  0  0  0  0  0  0  0  0  0
   -1.5686   67.5341   67.8754 H   0  0  0  0  0  0  0  0  0  0  0  0
   -1.4052   65.7453   67.8754 H   0  0  0  0  0  0  0  0  0  0  0  0
  2  1  2  0
  3  1  1  0
  4  3  1  0
  5  4  2  0
  6  5  1  0
  7  6  2  0
  8  7  1  0
  9  4  1  0
  9  8  2  0
 10  9  1  0
 11  1  1  0
 12 11  1  0
 13 12  1  0
 15 14  1  0
 15 13  1  0
 16 15  1  0
  3 17  1  0
  5 18  1  0
  6 19  1  0
  8 20  1  0
 12 21  1  0
 12 22  1  0
 13 23  1  0
 13 24  1  0
 14 25  1  0
 14 26  1  0
 14 27  1  0
 15 28  1  0
 16 29  1  0
 16 30  1  0
 16 31  1  0
M  CHG  1  15   1
M  END
>  <score>  (5) 
-6.639

$$$$
=
     RDKit          3D

 31 31  0  0  0  0  0  0  0  0999 V2000
    3.6870   69.1350   64.5980 C   0  0  0  0  0  0  0  0  0  0  0  0
    4.5560   69.5110   63.8250 O   0  0  0  0  0  0  0  0  0  0  0  0
    3.6560   69.2210   65.9550 N   0  0  0  0  0  0  0  0  0  0  0  0
    4.6120   69.7890   66.8270 C   0  0  0  0  0  0  0  0  0  0  0  0
    5.9610   69.9140   66.4940 C   0  0  0  0  0  0  0  0  0  0  0  0
    6.8250   70.4850   67.4180 C   0  0  0  0  0  0  0  0  0  0  0  0
    6.4400   70.9300   68.6310 N   0  0  0  0  0  0  0  0  0  0  0  0
    5.1300   70.8050   68.9380 C   0  0  0  0  0  0  0  0  0  0  0  0
    4.1910   70.2490   68.0830 C   0  0  0  0  0  0  0  0  0  0  0  0
    2.3860   70.1330   68.6480 Br  0  0  0  0  0  0  0  0  0  0  0  0
    2.5550   68.5060   64.1720 O   0  0  0  0  0  0  0  0  0  0  0  0
    1.6710   68.0810   65.2260 C   0  0  0  0  0  0  0  0  0  0  0  0
    0.2540   68.6440   65.0360 C   0  0  0  0  0  0  0  0  0  0  0  0
   -0.3260   67.4640   67.2010 C   0  0  0  0  0  0  0  0  0  0  0  0
   -0.8070   67.9430   65.8640 N   0  0  0  0  0  4  0  0  0  0  0  0
   -2.0970   68.7210   65.9580 C   0  0  0  0  0  0  0  0  0  0  0  0
    2.8235   68.8178   66.4082 H   0  0  0  0  0  0  0  0  0  0  0  0
    6.3325   69.5669   65.5185 H   0  0  0  0  0  0  0  0  0  0  0  0
    7.8862   70.5801   67.1446 H   0  0  0  0  0  0  0  0  0  0  0  0
    4.7899   71.1642   69.9205 H   0  0  0  0  0  0  0  0  0  0  0  0
    1.6213   66.9821   65.2290 H   0  0  0  0  0  0  0  0  0  0  0  0
    2.0665   68.4585   66.1805 H   0  0  0  0  0  0  0  0  0  0  0  0
    0.2643   69.7076   65.3165 H   0  0  0  0  0  0  0  0  0  0  0  0
   -0.0114   68.4858   63.9803 H   0  0  0  0  0  0  0  0  0  0  0  0
   -0.8636   67.9994   67.9974 H   0  0  0  0  0  0  0  0  0  0  0  0
   -0.5145   66.3842   67.2932 H   0  0  0  0  0  0  0  0  0  0  0  0
    0.7530   67.6570   67.2932 H   0  0  0  0  0  0  0  0  0  0  0  0
   -1.0221   67.0871   65.3329 H   0  0  0  0  0  0  0  0  0  0  0  0
   -2.3551   68.8766   67.0159 H   0  0  0  0  0  0  0  0  0  0  0  0
   -1.9742   69.6958   65.4633 H   0  0  0  0  0  0  0  0  0  0  0  0
   -2.9019   68.1576   65.4633 H   0  0  0  0  0  0  0  0  0  0  0  0
  2  1  2  0
  3  1  1  0
  4  3  1  0
  5  4  2  0
  6  5  1  0
  7  6  2  0
  8  7  1  0
  9  4  1  0
  9  8  2  0
 10  9  1  0
 11  1  1  0
 12 11  1  0
 13 12  1  0
 15 14  1  0
 15 13  1  0
 16 15  1  0
  3 17  1  0
  5 18  1  0
  6 19  1  0
  8 20  1  0
 12 21  1  0
 12 22  1  0
 13 23  1  0
 13 24  1  0
 14 25  1  0
 14 26  1  0
 14 27  1  0
 15 28  1  0
 16 29  1  0
 16 30  1  0
 16 31  1  0
M  CHG  1  15   1
M  END
>  <score>  (6) 
-6.535

$$$$
=
     RDKit          3D

 31 31  0  0  0  0  0  0  0  0999 V2000
    3.5110   69.0400   64.7490 C   0  0  0  0  0  0  0  0  0  0  0  0
    4.2670   69.4690   63.8900 O   0  0  0  0  0  0  0  0  0  0  0  0
    3.6100   69.1420   66.1010 N   0  0  0  0  0  0  0  0  0  0  0  0
    4.6040   69.7900   66.8690 C   0  0  0  0  0  0  0  0  0  0  0  0
    5.9270   69.9150   66.4450 C   0  0  0  0  0  0  0  0  0  0  0  0
    6.8320   70.5690   67.2690 C   0  0  0  0  0  0  0  0  0  0  0  0
    6.5110   71.0960   68.4680 N   0  0  0  0  0  0  0  0  0  0  0  0
    5.2260   70.9700   68.8640 C   0  0  0  0  0  0  0  0  0  0  0  0
    4.2490   70.3350   68.1110 C   0  0  0  0  0  0  0  0  0  0  0  0
    2.4840   70.2280   68.7940 Br  0  0  0  0  0  0  0  0  0  0  0  0
    2.3920   68.3230   64.4440 O   0  0  0  0  0  0  0  0  0  0  0  0
    2.1150   67.2300   65.3390 C   0  0  0  0  0  0  0  0  0  0  0  0
    2.2200   65.8740   64.6230 C   0  0  0  0  0  0  0  0  0  0  0  0
    3.7360   63.8580   64.8690 C   0  0  0  0  0  0  0  0  0  0  0  0
    3.6320   65.3200   64.5500 N   0  0  0  0  0  4  0  0  0  0  0  0
    4.3480   65.6870   63.2730 C   0  0  0  0  0  0  0  0  0  0  0  0
    2.8592   68.6854   66.6383 H   0  0  0  0  0  0  0  0  0  0  0  0
    6.2467   69.5032   65.4764 H   0  0  0  0  0  0  0  0  0  0  0  0
    7.8722   70.6630   66.9239 H   0  0  0  0  0  0  0  0  0  0  0  0
    4.9381   71.3942   69.8372 H   0  0  0  0  0  0  0  0  0  0  0  0
    2.8389   67.2539   66.1669 H   0  0  0  0  0  0  0  0  0  0  0  0
    1.0870   67.3433   65.7137 H   0  0  0  0  0  0  0  0  0  0  0  0
    1.5918   65.1492   65.1616 H   0  0  0  0  0  0  0  0  0  0  0  0
    1.8883   66.0356   63.5867 H   0  0  0  0  0  0  0  0  0  0  0  0
    3.7458   63.7206   65.9603 H   0  0  0  0  0  0  0  0  0  0  0  0
    2.8734   63.3269   64.4403 H   0  0  0  0  0  0  0  0  0  0  0  0
    4.6651   63.4544   64.4403 H   0  0  0  0  0  0  0  0  0  0  0  0
    4.1346   65.7973   65.3119 H   0  0  0  0  0  0  0  0  0  0  0  0
    5.3028   66.1764   63.5156 H   0  0  0  0  0  0  0  0  0  0  0  0
    4.5412   64.7768   62.6864 H   0  0  0  0  0  0  0  0  0  0  0  0
    3.7218   66.3753   62.6864 H   0  0  0  0  0  0  0  0  0  0  0  0
  2  1  2  0
  3  1  1  0
  4  3  1  0
  5  4  2  0
  6  5  1  0
  7  6  2  0
  8  7  1  0
  9  4  1  0
  9  8  2  0
 10  9  1  0
 11  1  1  0
 12 11  1  0
 13 12  1  0
 15 14  1  0
 15 13  1  0
 16 15  1  0
  3 17  1  0
  5 18  1  0
  6 19  1  0
  8 20  1  0
 12 21  1  0
 12 22  1  0
 13 23  1  0
 13 24  1  0
 14 25  1  0
 14 26  1  0
 14 27  1  0
 15 28  1  0
 16 29  1  0
 16 30  1  0
 16 31  1  0
M  CHG  1  15   1
M  END
>  <score>  (7) 
-6.492

$$$$
=
     RDKit          3D

 31 31  0  0  0  0  0  0  0  0999 V2000
    3.9820   69.5810   66.8970 C   0  0  0  0  0  0  0  0  0  0  0  0
    5.1530   69.8020   67.1660 O   0  0  0  0  0  0  0  0  0  0  0  0
    3.4510   69.0760   65.7520 N   0  0  0  0  0  0  0  0  0  0  0  0
    4.1170   68.6550   64.5780 C   0  0  0  0  0  0  0  0  0  0  0  0
    5.0420   69.4520   63.9050 C   0  0  0  0  0  0  0  0  0  0  0  0
    5.6450   68.9510   62.7600 C   0  0  0  0  0  0  0  0  0  0  0  0
    5.3890   67.7310   62.2490 N   0  0  0  0  0  0  0  0  0  0  0  0
    4.4920   66.9680   62.9130 C   0  0  0  0  0  0  0  0  0  0  0  0
    3.8390   67.3800   64.0650 C   0  0  0  0  0  0  0  0  0  0  0  0
    2.6010   66.2060   64.8910 Br  0  0  0  0  0  0  0  0  0  0  0  0
    2.9680   69.8540   67.7670 O   0  0  0  0  0  0  0  0  0  0  0  0
    1.7180   69.2130   67.4540 C   0  0  0  0  0  0  0  0  0  0  0  0
    1.4160   68.0610   68.4260 C   0  0  0  0  0  0  0  0  0  0  0  0
   -0.4730   66.4730   69.0000 C   0  0  0  0  0  0  0  0  0  0  0  0
    0.3710   67.0830   67.9210 N   0  0  0  0  0  4  0  0  0  0  0  0
   -0.4530   67.6310   66.7820 C   0  0  0  0  0  0  0  0  0  0  0  0
    2.4248   68.9882   65.7378 H   0  0  0  0  0  0  0  0  0  0  0  0
    5.2890   70.4582   64.2744 H   0  0  0  0  0  0  0  0  0  0  0  0
    6.3751   69.5876   62.2388 H   0  0  0  0  0  0  0  0  0  0  0  0
    4.2679   65.9661   62.5181 H   0  0  0  0  0  0  0  0  0  0  0  0
    0.9095   69.9560   67.5183 H   0  0  0  0  0  0  0  0  0  0  0  0
    1.7884   68.7974   66.4380 H   0  0  0  0  0  0  0  0  0  0  0  0
    2.3492   67.5072   68.6061 H   0  0  0  0  0  0  0  0  0  0  0  0
    1.0091   68.5160   69.3411 H   0  0  0  0  0  0  0  0  0  0  0  0
   -0.0746   66.7610   69.9840 H   0  0  0  0  0  0  0  0  0  0  0  0
   -1.5079   66.8332   68.9037 H   0  0  0  0  0  0  0  0  0  0  0  0
   -0.4557   65.3774   68.9037 H   0  0  0  0  0  0  0  0  0  0  0  0
    0.9183   66.3010   67.5339 H   0  0  0  0  0  0  0  0  0  0  0  0
   -1.3051   68.1977   67.1854 H   0  0  0  0  0  0  0  0  0  0  0  0
    0.1701   68.2953   66.1651 H   0  0  0  0  0  0  0  0  0  0  0  0
   -0.8247   66.7995   66.1651 H   0  0  0  0  0  0  0  0  0  0  0  0
  2  1  2  0
  3  1  1  0
  4  3  1  0
  5  4  2  0
  6  5  1  0
  7  6  2  0
  8  7  1  0
  9  4  1  0
  9  8  2  0
 10  9  1  0
 11  1  1  0
 12 11  1  0
 13 12  1  0
 15 14  1  0
 15 13  1  0
 16 15  1  0
  3 17  1  0
  5 18  1  0
  6 19  1  0
  8 20  1  0
 12 21  1  0
 12 22  1  0
 13 23  1  0
 13 24  1  0
 14 25  1  0
 14 26  1  0
 14 27  1  0
 15 28  1  0
 16 29  1  0
 16 30  1  0
 16 31  1  0
M  CHG  1  15   1
M  END
>  <score>  (8) 
-6.381

$$$$
=
     RDKit          3D

 31 31  0  0  0  0  0  0  0  0999 V2000
    2.4100   68.4990   66.5240 C   0  0  0  0  0  0  0  0  0  0  0  0
    3.1770   69.4230   66.7540 O   0  0  0  0  0  0  0  0  0  0  0  0
    2.3650   67.6760   65.4430 N   0  0  0  0  0  0  0  0  0  0  0  0
    3.2080   67.6590   64.3080 C   0  0  0  0  0  0  0  0  0  0  0  0
    3.5600   68.8130   63.6090 C   0  0  0  0  0  0  0  0  0  0  0  0
    4.3940   68.6960   62.5060 C   0  0  0  0  0  0  0  0  0  0  0  0
    4.8890   67.5240   62.0600 N   0  0  0  0  0  0  0  0  0  0  0  0
    4.5410   66.4150   62.7490 C   0  0  0  0  0  0  0  0  0  0  0  0
    3.7150   66.4300   63.8630 C   0  0  0  0  0  0  0  0  0  0  0  0
    3.3070   64.7950   64.7290 Br  0  0  0  0  0  0  0  0  0  0  0  0
    1.4020   68.1590   67.3770 O   0  0  0  0  0  0  0  0  0  0  0  0
    0.2060   67.6820   66.7340 C   0  0  0  0  0  0  0  0  0  0  0  0
   -0.7450   68.8380   66.3820 C   0  0  0  0  0  0  0  0  0  0  0  0
   -3.1830   68.8530   65.6930 C   0  0  0  0  0  0  0  0  0  0  0  0
   -2.1880   68.5970   66.7860 N   0  0  0  0  0  4  0  0  0  0  0  0
   -2.4000   67.2650   67.4620 C   0  0  0  0  0  0  0  0  0  0  0  0
    1.6156   66.9694   65.4520 H   0  0  0  0  0  0  0  0  0  0  0  0
    3.1839   69.7970   63.9257 H   0  0  0  0  0  0  0  0  0  0  0  0
    4.6672   69.6133   61.9638 H   0  0  0  0  0  0  0  0  0  0  0  0
    4.9347   65.4464   62.4074 H   0  0  0  0  0  0  0  0  0  0  0  0
    0.4836   67.1537   65.8100 H   0  0  0  0  0  0  0  0  0  0  0  0
   -0.3141   67.0075   67.4301 H   0  0  0  0  0  0  0  0  0  0  0  0
   -0.3900   69.7453   66.8927 H   0  0  0  0  0  0  0  0  0  0  0  0
   -0.7340   68.9359   65.2864 H   0  0  0  0  0  0  0  0  0  0  0  0
   -4.1580   69.1039   66.1361 H   0  0  0  0  0  0  0  0  0  0  0  0
   -2.8365   69.6912   65.0707 H   0  0  0  0  0  0  0  0  0  0  0  0
   -3.2841   67.9516   65.0707 H   0  0  0  0  0  0  0  0  0  0  0  0
   -2.3792   69.3170   67.4973 H   0  0  0  0  0  0  0  0  0  0  0  0
   -2.3785   67.4002   68.5534 H   0  0  0  0  0  0  0  0  0  0  0  0
   -3.3750   66.8530   67.1627 H   0  0  0  0  0  0  0  0  0  0  0  0
   -1.6011   66.5706   67.1627 H   0  0  0  0  0  0  0  0  0  0  0  0
  2  1  2  0
  3  1  1  0
  4  3  1  0
  5  4  2  0
  6  5  1  0
  7  6  2  0
  8  7  1  0
  9  4  1  0
  9  8  2  0
 10  9  1  0
 11  1  1  0
 12 11  1  0
 13 12  1  0
 15 14  1  0
 15 13  1  0
 16 15  1  0
  3 17  1  0
  5 18  1  0
  6 19  1  0
  8 20  1  0
 12 21  1  0
 12 22  1  0
 13 23  1  0
 13 24  1  0
 14 25  1  0
 14 26  1  0
 14 27  1  0
 15 28  1  0
 16 29  1  0
 16 30  1  0
 16 31  1  0
M  CHG  1  15   1
M  END
>  <score>  (9) 
-6.208

$$$$
