=
     RDKit          3D

 30 31  0  0  0  0  0  0  0  0999 V2000
    1.8130   68.0340   65.8760 C   0  0  0  0  0  0  0  0  0  0  0  0
    1.8920   66.8550   66.2060 O   0  0  0  0  0  0  0  0  0  0  0  0
    1.0260   69.1310   61.8290 C   0  0  0  0  0  0  0  0  0  0  0  0
    2.2980   68.7130   62.2060 C   0  0  0  0  0  0  0  0  0  0  0  0
    2.5350   68.3650   63.5380 C   0  0  0  0  0  0  0  0  0  0  0  0
    1.4990   68.4280   64.4840 C   0  0  0  0  0  0  0  0  0  0  0  0
    0.2320   68.8670   64.0860 C   0  0  0  0  0  0  0  0  0  0  0  0
   -0.0080   69.2140   62.7570 C   0  0  0  0  0  0  0  0  0  0  0  0
    0.7480   69.4820   60.5410 O   0  0  0  0  0  0  0  0  0  0  0  0
   -0.7720   68.9990   65.0020 O   0  0  0  0  0  0  0  0  0  0  0  0
    2.0050   69.0910   66.9350 C   0  0  0  0  0  0  0  0  0  0  0  0
    1.0120   69.5190   67.5200 O   0  0  0  0  0  0  0  0  0  0  0  0
    3.3640   69.5910   67.2630 C   0  0  0  0  0  0  0  0  0  0  0  0
    4.4050   69.5440   66.3240 C   0  0  0  0  0  0  0  0  0  0  0  0
    5.6730   70.0340   66.6510 C   0  0  0  0  0  0  0  0  0  0  0  0
    5.8980   70.5710   67.9150 C   0  0  0  0  0  0  0  0  0  0  0  0
    4.8780   70.6260   68.8570 C   0  0  0  0  0  0  0  0  0  0  0  0
    3.6150   70.1350   68.5320 C   0  0  0  0  0  0  0  0  0  0  0  0
    2.6640   70.2240   69.5150 O   0  0  0  0  0  0  0  0  0  0  0  0
    7.1200   71.0590   68.2690 O   0  0  0  0  0  0  0  0  0  0  0  0
    3.1080   68.6571   61.4638 H   0  0  0  0  0  0  0  0  0  0  0  0
    3.5391   68.0397   63.8477 H   0  0  0  0  0  0  0  0  0  0  0  0
   -1.0073   69.5509   62.4442 H   0  0  0  0  0  0  0  0  0  0  0  0
   -0.1643   69.7767   60.2942 H   0  0  0  0  0  0  0  0  0  0  0  0
   -1.6667   69.3102   64.7144 H   0  0  0  0  0  0  0  0  0  0  0  0
    4.2229   69.1196   65.3256 H   0  0  0  0  0  0  0  0  0  0  0  0
    6.4881   69.9953   65.9134 H   0  0  0  0  0  0  0  0  0  0  0  0
    5.0662   71.0542   69.8526 H   0  0  0  0  0  0  0  0  0  0  0  0
    1.7462   69.8928   69.3473 H   0  0  0  0  0  0  0  0  0  0  0  0
    7.2591   71.4369   69.1734 H   0  0  0  0  0  0  0  0  0  0  0  0
  2  1  2  0
  4  3  2  0
  5  4  1  0
  6  5  2  0
  6  1  1  0
  7  6  1  0
  8  7  2  0
  8  3  1  0
  9  3  1  0
 10  7  1  0
 11  1  1  0
 12 11  2  0
 13 11  1  0
 14 13  2  0
 15 14  1  0
 16 15  2  0
 17 16  1  0
 18 17  2  0
 18 13  1  0
 19 18  1  0
 20 16  1  0
  4 21  1  0
  5 22  1  0
  8 23  1  0
  9 24  1  0
 10 25  1  0
 14 26  1  0
 15 27  1  0
 17 28  1  0
 19 29  1  0
 20 30  1  0
M  END
>  <score>  (1) 
-9.673

$$$$
=
     RDKit          3D

 30 31  0  0  0  0  0  0  0  0999 V2000
    1.9550   69.0770   66.9210 C   0  0  0  0  0  0  0  0  0  0  0  0
    0.9500   69.4550   67.5150 O   0  0  0  0  0  0  0  0  0  0  0  0
    5.8660   70.5380   67.7980 C   0  0  0  0  0  0  0  0  0  0  0  0
    5.5960   69.9600   66.5630 C   0  0  0  0  0  0  0  0  0  0  0  0
    4.3100   69.4820   66.2990 C   0  0  0  0  0  0  0  0  0  0  0  0
    3.2990   69.5910   67.2680 C   0  0  0  0  0  0  0  0  0  0  0  0
    3.5970   70.1610   68.5100 C   0  0  0  0  0  0  0  0  0  0  0  0
    4.8800   70.6400   68.7760 C   0  0  0  0  0  0  0  0  0  0  0  0
    7.1060   71.0180   68.1020 O   0  0  0  0  0  0  0  0  0  0  0  0
    2.6470   70.2180   69.4900 O   0  0  0  0  0  0  0  0  0  0  0  0
    1.8020   68.0340   65.8410 C   0  0  0  0  0  0  0  0  0  0  0  0
    1.9100   66.8500   66.1530 O   0  0  0  0  0  0  0  0  0  0  0  0
    1.5200   68.4360   64.4400 C   0  0  0  0  0  0  0  0  0  0  0  0
    2.5240   68.4170   63.4600 C   0  0  0  0  0  0  0  0  0  0  0  0
    2.2320   68.7860   62.1430 C   0  0  0  0  0  0  0  0  0  0  0  0
    0.9380   69.1730   61.8080 C   0  0  0  0  0  0  0  0  0  0  0  0
   -0.0690   69.1970   62.7660 C   0  0  0  0  0  0  0  0  0  0  0  0
    0.2230   68.8320   64.0790 C   0  0  0  0  0  0  0  0  0  0  0  0
   -0.8220   68.8830   64.9640 O   0  0  0  0  0  0  0  0  0  0  0  0
    0.6150   69.5380   60.5350 O   0  0  0  0  0  0  0  0  0  0  0  0
    6.3861   69.8798   65.8019 H   0  0  0  0  0  0  0  0  0  0  0  0
    4.0880   69.0177   65.3268 H   0  0  0  0  0  0  0  0  0  0  0  0
    5.1109   71.0947   69.7506 H   0  0  0  0  0  0  0  0  0  0  0  0
    7.2754   71.4257   68.9881 H   0  0  0  0  0  0  0  0  0  0  0  0
    2.8642   70.6227   70.3670 H   0  0  0  0  0  0  0  0  0  0  0  0
    3.5456   68.1104   63.7289 H   0  0  0  0  0  0  0  0  0  0  0  0
    3.0207   68.7704   61.3764 H   0  0  0  0  0  0  0  0  0  0  0  0
   -1.0891   69.5019   62.4897 H   0  0  0  0  0  0  0  0  0  0  0  0
   -0.6802   68.6359   65.9121 H   0  0  0  0  0  0  0  0  0  0  0  0
   -0.3119   69.8100   60.3181 H   0  0  0  0  0  0  0  0  0  0  0  0
  2  1  2  0
  4  3  2  0
  5  4  1  0
  6  5  2  0
  6  1  1  0
  7  6  1  0
  8  7  2  0
  8  3  1  0
  9  3  1  0
 10  7  1  0
 11  1  1  0
 12 11  2  0
 13 11  1  0
 14 13  2  0
 15 14  1  0
 16 15  2  0
 17 16  1  0
 18 17  2  0
 18 13  1  0
 19 18  1  0
 20 16  1  0
  4 21  1  0
  5 22  1  0
  8 23  1  0
  9 24  1  0
 10 25  1  0
 14 26  1  0
 15 27  1  0
 17 28  1  0
 19 29  1  0
 20 30  1  0
M  END
>  <score>  (2) 
-9.668

$$$$
=
     RDKit          3D

 30 31  0  0  0  0  0  0  0  0999 V2000
    2.8750   68.6990   65.2630 C   0  0  0  0  0  0  0  0  0  0  0  0
    2.7680   69.0910   64.1060 O   0  0  0  0  0  0  0  0  0  0  0  0
    5.4700   70.5510   68.0980 C   0  0  0  0  0  0  0  0  0  0  0  0
    4.1340   70.3280   68.4140 C   0  0  0  0  0  0  0  0  0  0  0  0
    3.3010   69.7260   67.4680 C   0  0  0  0  0  0  0  0  0  0  0  0
    3.8080   69.3440   66.2150 C   0  0  0  0  0  0  0  0  0  0  0  0
    5.1510   69.5930   65.9130 C   0  0  0  0  0  0  0  0  0  0  0  0
    5.9860   70.1930   66.8560 C   0  0  0  0  0  0  0  0  0  0  0  0
    6.3210   71.1360   68.9880 O   0  0  0  0  0  0  0  0  0  0  0  0
    5.6490   69.2900   64.6780 O   0  0  0  0  0  0  0  0  0  0  0  0
    2.0010   67.5580   65.7190 C   0  0  0  0  0  0  0  0  0  0  0  0
    2.4890   66.4300   65.7660 O   0  0  0  0  0  0  0  0  0  0  0  0
    0.5880   67.7990   66.1060 C   0  0  0  0  0  0  0  0  0  0  0  0
   -0.2860   68.5080   65.2690 C   0  0  0  0  0  0  0  0  0  0  0  0
   -1.6170   68.7110   65.6490 C   0  0  0  0  0  0  0  0  0  0  0  0
   -2.0720   68.2040   66.8620 C   0  0  0  0  0  0  0  0  0  0  0  0
   -1.2190   67.4990   67.7030 C   0  0  0  0  0  0  0  0  0  0  0  0
    0.1080   67.2990   67.3260 C   0  0  0  0  0  0  0  0  0  0  0  0
    0.8850   66.5950   68.2090 O   0  0  0  0  0  0  0  0  0  0  0  0
   -3.3610   68.3810   67.2650 O   0  0  0  0  0  0  0  0  0  0  0  0
    3.7381   70.6222   69.3972 H   0  0  0  0  0  0  0  0  0  0  0  0
    2.2415   69.5500   67.7057 H   0  0  0  0  0  0  0  0  0  0  0  0
    7.0437   70.3816   66.6198 H   0  0  0  0  0  0  0  0  0  0  0  0
    7.2683   71.2853   68.7423 H   0  0  0  0  0  0  0  0  0  0  0  0
    6.6004   69.4686   64.4704 H   0  0  0  0  0  0  0  0  0  0  0  0
    0.0766   68.9061   64.3098 H   0  0  0  0  0  0  0  0  0  0  0  0
   -2.3004   69.2688   64.9919 H   0  0  0  0  0  0  0  0  0  0  0  0
   -1.5887   67.1015   68.6597 H   0  0  0  0  0  0  0  0  0  0  0  0
    1.8365   66.4191   67.9999 H   0  0  0  0  0  0  0  0  0  0  0  0
   -3.6636   68.0116   68.1322 H   0  0  0  0  0  0  0  0  0  0  0  0
  2  1  2  0
  4  3  2  0
  5  4  1  0
  6  5  2  0
  6  1  1  0
  7  6  1  0
  8  7  2  0
  8  3  1  0
  9  3  1  0
 10  7  1  0
 11  1  1  0
 12 11  2  0
 13 11  1  0
 14 13  2  0
 15 14  1  0
 16 15  2  0
 17 16  1  0
 18 17  2  0
 18 13  1  0
 19 18  1  0
 20 16  1  0
  4 21  1  0
  5 22  1  0
  8 23  1  0
  9 24  1  0
 10 25  1  0
 14 26  1  0
 15 27  1  0
 17 28  1  0
 19 29  1  0
 20 30  1  0
M  END
>  <score>  (3) 
-9.346

$$$$
=
     RDKit          3D

 30 31  0  0  0  0  0  0  0  0999 V2000
    2.3890   67.6360   65.4290 C   0  0  0  0  0  0  0  0  0  0  0  0
    2.2300   66.4830   65.8170 O   0  0  0  0  0  0  0  0  0  0  0  0
    3.1150   68.5970   61.3360 C   0  0  0  0  0  0  0  0  0  0  0  0
    1.9570   69.0430   61.9650 C   0  0  0  0  0  0  0  0  0  0  0  0
    1.7370   68.7100   63.3040 C   0  0  0  0  0  0  0  0  0  0  0  0
    2.6770   67.9420   64.0090 C   0  0  0  0  0  0  0  0  0  0  0  0
    3.8270   67.4910   63.3530 C   0  0  0  0  0  0  0  0  0  0  0  0
    4.0500   67.8220   62.0160 C   0  0  0  0  0  0  0  0  0  0  0  0
    3.3730   68.8950   60.0310 O   0  0  0  0  0  0  0  0  0  0  0  0
    4.7220   66.6880   64.0000 O   0  0  0  0  0  0  0  0  0  0  0  0
    2.2470   68.7560   66.4290 C   0  0  0  0  0  0  0  0  0  0  0  0
    1.1160   69.0760   66.7900 O   0  0  0  0  0  0  0  0  0  0  0  0
    3.4470   69.4470   66.9640 C   0  0  0  0  0  0  0  0  0  0  0  0
    4.6260   69.5470   66.2110 C   0  0  0  0  0  0  0  0  0  0  0  0
    5.7410   70.2150   66.7310 C   0  0  0  0  0  0  0  0  0  0  0  0
    5.6740   70.7800   68.0000 C   0  0  0  0  0  0  0  0  0  0  0  0
    4.5130   70.6890   68.7600 C   0  0  0  0  0  0  0  0  0  0  0  0
    3.4040   70.0230   68.2430 C   0  0  0  0  0  0  0  0  0  0  0  0
    2.2990   69.9760   69.0520 O   0  0  0  0  0  0  0  0  0  0  0  0
    6.7380   71.4380   68.5390 O   0  0  0  0  0  0  0  0  0  0  0  0
    1.2234   69.6505   61.4148 H   0  0  0  0  0  0  0  0  0  0  0  0
    0.8214   69.0518   63.8089 H   0  0  0  0  0  0  0  0  0  0  0  0
    4.9583   67.4729   61.5030 H   0  0  0  0  0  0  0  0  0  0  0  0
    4.2035   68.5672   59.6032 H   0  0  0  0  0  0  0  0  0  0  0  0
    5.5340   66.3723   63.5297 H   0  0  0  0  0  0  0  0  0  0  0  0
    4.6748   69.0987   65.2077 H   0  0  0  0  0  0  0  0  0  0  0  0
    6.6650   70.2926   66.1391 H   0  0  0  0  0  0  0  0  0  0  0  0
    4.4706   71.1398   69.7625 H   0  0  0  0  0  0  0  0  0  0  0  0
    1.4781   69.5171   68.7426 H   0  0  0  0  0  0  0  0  0  0  0  0
    6.6690   71.8329   69.4442 H   0  0  0  0  0  0  0  0  0  0  0  0
  2  1  2  0
  4  3  2  0
  5  4  1  0
  6  5  2  0
  6  1  1  0
  7  6  1  0
  8  7  2  0
  8  3  1  0
  9  3  1  0
 10  7  1  0
 11  1  1  0
 12 11  2  0
 13 11  1  0
 14 13  2  0
 15 14  1  0
 16 15  2  0
 17 16  1  0
 18 17  2  0
 18 13  1  0
 19 18  1  0
 20 16  1  0
  4 21  1  0
  5 22  1  0
  8 23  1  0
  9 24  1  0
 10 25  1  0
 14 26  1  0
 15 27  1  0
 17 28  1  0
 19 29  1  0
 20 30  1  0
M  END
>  <score>  (4) 
-9.327

$$$$
=
     RDKit          3D

 30 31  0  0  0  0  0  0  0  0999 V2000
    2.0020   67.5280   65.7490 C   0  0  0  0  0  0  0  0  0  0  0  0
    2.5210   66.4160   65.7630 O   0  0  0  0  0  0  0  0  0  0  0  0
   -2.0590   68.1740   66.8870 C   0  0  0  0  0  0  0  0  0  0  0  0
   -1.5790   68.6870   65.6870 C   0  0  0  0  0  0  0  0  0  0  0  0
   -0.2440   68.4680   65.3370 C   0  0  0  0  0  0  0  0  0  0  0  0
    0.6010   67.7340   66.1840 C   0  0  0  0  0  0  0  0  0  0  0  0
    0.1020   67.2420   67.3940 C   0  0  0  0  0  0  0  0  0  0  0  0
   -1.2310   67.4570   67.7460 C   0  0  0  0  0  0  0  0  0  0  0  0
   -3.3530   68.3630   67.2710 O   0  0  0  0  0  0  0  0  0  0  0  0
    0.9230   66.5820   68.2630 O   0  0  0  0  0  0  0  0  0  0  0  0
    2.8370   68.7060   65.3120 C   0  0  0  0  0  0  0  0  0  0  0  0
    2.7310   69.0990   64.1530 O   0  0  0  0  0  0  0  0  0  0  0  0
    3.7570   69.3720   66.2680 C   0  0  0  0  0  0  0  0  0  0  0  0
    3.3220   69.7750   67.5390 C   0  0  0  0  0  0  0  0  0  0  0  0
    4.2100   70.3890   68.4280 C   0  0  0  0  0  0  0  0  0  0  0  0
    5.5310   70.5990   68.0450 C   0  0  0  0  0  0  0  0  0  0  0  0
    5.9790   70.2060   66.7890 C   0  0  0  0  0  0  0  0  0  0  0  0
    5.0940   69.5970   65.9030 C   0  0  0  0  0  0  0  0  0  0  0  0
    5.6110   69.2400   64.6850 O   0  0  0  0  0  0  0  0  0  0  0  0
    6.4260   71.1930   68.8840 O   0  0  0  0  0  0  0  0  0  0  0  0
   -2.2423   69.2585   65.0211 H   0  0  0  0  0  0  0  0  0  0  0  0
    0.1470   68.8732   64.3921 H   0  0  0  0  0  0  0  0  0  0  0  0
   -1.6244   67.0630   68.6947 H   0  0  0  0  0  0  0  0  0  0  0  0
   -3.6742   67.9891   68.1296 H   0  0  0  0  0  0  0  0  0  0  0  0
    0.5633   66.2362   69.1180 H   0  0  0  0  0  0  0  0  0  0  0  0
    2.2768   69.6072   67.8382 H   0  0  0  0  0  0  0  0  0  0  0  0
    3.8661   70.7041   69.4242 H   0  0  0  0  0  0  0  0  0  0  0  0
    7.0260   70.3750   66.4969 H   0  0  0  0  0  0  0  0  0  0  0  0
    5.0328   68.8029   64.0107 H   0  0  0  0  0  0  0  0  0  0  0  0
    7.3614   71.3329   68.5913 H   0  0  0  0  0  0  0  0  0  0  0  0
  2  1  2  0
  4  3  2  0
  5  4  1  0
  6  5  2  0
  6  1  1  0
  7  6  1  0
  8  7  2  0
  8  3  1  0
  9  3  1  0
 10  7  1  0
 11  1  1  0
 12 11  2  0
 13 11  1  0
 14 13  2  0
 15 14  1  0
 16 15  2  0
 17 16  1  0
 18 17  2  0
 18 13  1  0
 19 18  1  0
 20 16  1  0
  4 21  1  0
  5 22  1  0
  8 23  1  0
  9 24  1  0
 10 25  1  0
 14 26  1  0
 15 27  1  0
 17 28  1  0
 19 29  1  0
 20 30  1  0
M  END
>  <score>  (5) 
-9.301

$$$$
=
     RDKit          3D

 30 31  0  0  0  0  0  0  0  0999 V2000
    2.4420   68.7910   66.2580 C   0  0  0  0  0  0  0  0  0  0  0  0
    2.5030   69.5720   67.2020 O   0  0  0  0  0  0  0  0  0  0  0  0
    4.8700   69.1850   62.7710 C   0  0  0  0  0  0  0  0  0  0  0  0
    3.5620   68.7220   62.6650 C   0  0  0  0  0  0  0  0  0  0  0  0
    2.7880   68.5950   63.8210 C   0  0  0  0  0  0  0  0  0  0  0  0
    3.3200   68.9370   65.0740 C   0  0  0  0  0  0  0  0  0  0  0  0
    4.6420   69.3840   65.1600 C   0  0  0  0  0  0  0  0  0  0  0  0
    5.4180   69.5130   64.0080 C   0  0  0  0  0  0  0  0  0  0  0  0
    5.6640   69.3240   61.6720 O   0  0  0  0  0  0  0  0  0  0  0  0
    5.2010   69.6590   66.3750 O   0  0  0  0  0  0  0  0  0  0  0  0
    1.4720   67.6390   66.3400 C   0  0  0  0  0  0  0  0  0  0  0  0
    1.9240   66.4960   66.3770 O   0  0  0  0  0  0  0  0  0  0  0  0
    0.0090   67.8860   66.3830 C   0  0  0  0  0  0  0  0  0  0  0  0
   -0.6170   68.7170   65.4420 C   0  0  0  0  0  0  0  0  0  0  0  0
   -2.0000   68.9250   65.4940 C   0  0  0  0  0  0  0  0  0  0  0  0
   -2.7530   68.3010   66.4850 C   0  0  0  0  0  0  0  0  0  0  0  0
   -2.1470   67.4750   67.4250 C   0  0  0  0  0  0  0  0  0  0  0  0
   -0.7700   67.2710   67.3750 C   0  0  0  0  0  0  0  0  0  0  0  0
   -0.2490   66.4440   68.3360 O   0  0  0  0  0  0  0  0  0  0  0  0
   -4.1010   68.4790   66.5660 O   0  0  0  0  0  0  0  0  0  0  0  0
    3.1425   68.4591   61.6827 H   0  0  0  0  0  0  0  0  0  0  0  0
    1.7548   68.2245   63.7488 H   0  0  0  0  0  0  0  0  0  0  0  0
    6.4557   69.8714   64.0765 H   0  0  0  0  0  0  0  0  0  0  0  0
    6.5918   69.6552   61.7703 H   0  0  0  0  0  0  0  0  0  0  0  0
    6.1376   69.9752   66.4288 H   0  0  0  0  0  0  0  0  0  0  0  0
   -0.0184   69.2071   64.6601 H   0  0  0  0  0  0  0  0  0  0  0  0
   -2.4893   69.5778   64.7561 H   0  0  0  0  0  0  0  0  0  0  0  0
   -2.7511   66.9857   68.2032 H   0  0  0  0  0  0  0  0  0  0  0  0
    0.7232   66.2583   68.3551 H   0  0  0  0  0  0  0  0  0  0  0  0
   -4.6182   68.0261   67.2784 H   0  0  0  0  0  0  0  0  0  0  0  0
  2  1  2  0
  4  3  2  0
  5  4  1  0
  6  5  2  0
  6  1  1  0
  7  6  1  0
  8  7  2  0
  8  3  1  0
  9  3  1  0
 10  7  1  0
 11  1  1  0
 12 11  2  0
 13 11  1  0
 14 13  2  0
 15 14  1  0
 16 15  2  0
 17 16  1  0
 18 17  2  0
 18 13  1  0
 19 18  1  0
 20 16  1  0
  4 21  1  0
  5 22  1  0
  8 23  1  0
  9 24  1  0
 10 25  1  0
 14 26  1  0
 15 27  1  0
 17 28  1  0
 19 29  1  0
 20 30  1  0
M  END
>  <score>  (6) 
-9.216

$$$$
=
     RDKit          3D

 30 31  0  0  0  0  0  0  0  0999 V2000
    2.3360   68.4420   65.0850 C   0  0  0  0  0  0  0  0  0  0  0  0
    1.7320   69.2160   64.3500 O   0  0  0  0  0  0  0  0  0  0  0  0
    4.1430   64.8600   63.6340 C   0  0  0  0  0  0  0  0  0  0  0  0
    3.2200   64.8070   64.6730 C   0  0  0  0  0  0  0  0  0  0  0  0
    2.6460   65.9930   65.1360 C   0  0  0  0  0  0  0  0  0  0  0  0
    2.9900   67.2240   64.5550 C   0  0  0  0  0  0  0  0  0  0  0  0
    3.9320   67.2560   63.5230 C   0  0  0  0  0  0  0  0  0  0  0  0
    4.5070   66.0730   63.0560 C   0  0  0  0  0  0  0  0  0  0  0  0
    4.7310   63.7290   63.1480 O   0  0  0  0  0  0  0  0  0  0  0  0
    4.3310   68.4470   62.9880 O   0  0  0  0  0  0  0  0  0  0  0  0
    2.4360   68.7750   66.5530 C   0  0  0  0  0  0  0  0  0  0  0  0
    1.5360   68.3990   67.3010 O   0  0  0  0  0  0  0  0  0  0  0  0
    3.6010   69.5330   67.0750 C   0  0  0  0  0  0  0  0  0  0  0  0
    4.8030   69.6090   66.3560 C   0  0  0  0  0  0  0  0  0  0  0  0
    5.8830   70.3410   66.8620 C   0  0  0  0  0  0  0  0  0  0  0  0
    5.7580   70.9960   68.0840 C   0  0  0  0  0  0  0  0  0  0  0  0
    4.5740   70.9310   68.8090 C   0  0  0  0  0  0  0  0  0  0  0  0
    3.5000   70.2000   68.3060 C   0  0  0  0  0  0  0  0  0  0  0  0
    2.3680   70.1830   69.0790 O   0  0  0  0  0  0  0  0  0  0  0  0
    6.7880   71.7190   68.6080 O   0  0  0  0  0  0  0  0  0  0  0  0
    2.9453   63.8424   65.1247 H   0  0  0  0  0  0  0  0  0  0  0  0
    1.9195   65.9625   65.9614 H   0  0  0  0  0  0  0  0  0  0  0  0
    5.2418   66.0990   62.2379 H   0  0  0  0  0  0  0  0  0  0  0  0
    5.3855   63.7903   62.4077 H   0  0  0  0  0  0  0  0  0  0  0  0
    4.9986   68.4625   62.2572 H   0  0  0  0  0  0  0  0  0  0  0  0
    4.8971   69.0909   65.3902 H   0  0  0  0  0  0  0  0  0  0  0  0
    6.8253   70.3985   66.2974 H   0  0  0  0  0  0  0  0  0  0  0  0
    4.4856   71.4531   69.7732 H   0  0  0  0  0  0  0  0  0  0  0  0
    1.5698   69.6812   68.7769 H   0  0  0  0  0  0  0  0  0  0  0  0
    6.6785   72.1773   69.4787 H   0  0  0  0  0  0  0  0  0  0  0  0
  2  1  2  0
  4  3  2  0
  5  4  1  0
  6  5  2  0
  6  1  1  0
  7  6  1  0
  8  7  2  0
  8  3  1  0
  9  3  1  0
 10  7  1  0
 11  1  1  0
 12 11  2  0
 13 11  1  0
 14 13  2  0
 15 14  1  0
 16 15  2  0
 17 16  1  0
 18 17  2  0
 18 13  1  0
 19 18  1  0
 20 16  1  0
  4 21  1  0
  5 22  1  0
  8 23  1  0
  9 24  1  0
 10 25  1  0
 14 26  1  0
 15 27  1  0
 17 28  1  0
 19 29  1  0
 20 30  1  0
M  END
>  <score>  (7) 
-9.135

$$$$
=
     RDKit          3D

 30 31  0  0  0  0  0  0  0  0999 V2000
    2.2030   68.4840   64.9840 C   0  0  0  0  0  0  0  0  0  0  0  0
    1.6220   69.1420   64.1280 O   0  0  0  0  0  0  0  0  0  0  0  0
    4.8320   70.2770   67.8260 C   0  0  0  0  0  0  0  0  0  0  0  0
    3.5410   69.9170   68.1970 C   0  0  0  0  0  0  0  0  0  0  0  0
    2.6950   69.3380   67.2480 C   0  0  0  0  0  0  0  0  0  0  0  0
    3.1450   69.1130   65.9370 C   0  0  0  0  0  0  0  0  0  0  0  0
    4.4420   69.4980   65.5820 C   0  0  0  0  0  0  0  0  0  0  0  0
    5.2900   70.0760   66.5270 C   0  0  0  0  0  0  0  0  0  0  0  0
    5.6940   70.8460   68.7160 O   0  0  0  0  0  0  0  0  0  0  0  0
    4.8780   69.3490   64.2960 O   0  0  0  0  0  0  0  0  0  0  0  0
    1.9070   67.0070   65.0790 C   0  0  0  0  0  0  0  0  0  0  0  0
    0.8170   66.6570   65.5280 O   0  0  0  0  0  0  0  0  0  0  0  0
    2.9100   66.0080   64.6330 C   0  0  0  0  0  0  0  0  0  0  0  0
    3.1360   64.8280   65.3590 C   0  0  0  0  0  0  0  0  0  0  0  0
    4.0760   63.8940   64.9120 C   0  0  0  0  0  0  0  0  0  0  0  0
    4.7870   64.1390   63.7410 C   0  0  0  0  0  0  0  0  0  0  0  0
    4.5740   65.3020   63.0100 C   0  0  0  0  0  0  0  0  0  0  0  0
    3.6400   66.2340   63.4570 C   0  0  0  0  0  0  0  0  0  0  0  0
    3.4890   67.3540   62.6820 O   0  0  0  0  0  0  0  0  0  0  0  0
    5.7090   63.2520   63.2740 O   0  0  0  0  0  0  0  0  0  0  0  0
    3.1901   70.0862   69.2257 H   0  0  0  0  0  0  0  0  0  0  0  0
    1.6696   69.0565   67.5296 H   0  0  0  0  0  0  0  0  0  0  0  0
    6.3124   70.3706   66.2478 H   0  0  0  0  0  0  0  0  0  0  0  0
    6.6086   71.0943   68.4297 H   0  0  0  0  0  0  0  0  0  0  0  0
    5.7969   69.6231   64.0500 H   0  0  0  0  0  0  0  0  0  0  0  0
    2.5713   64.6372   66.2835 H   0  0  0  0  0  0  0  0  0  0  0  0
    4.2525   62.9705   65.4830 H   0  0  0  0  0  0  0  0  0  0  0  0
    5.1394   65.4853   62.0844 H   0  0  0  0  0  0  0  0  0  0  0  0
    2.8408   68.0545   62.9453 H   0  0  0  0  0  0  0  0  0  0  0  0
    6.2037   63.4460   62.4387 H   0  0  0  0  0  0  0  0  0  0  0  0
  2  1  2  0
  4  3  2  0
  5  4  1  0
  6  5  2  0
  6  1  1  0
  7  6  1  0
  8  7  2  0
  8  3  1  0
  9  3  1  0
 10  7  1  0
 11  1  1  0
 12 11  2  0
 13 11  1  0
 14 13  2  0
 15 14  1  0
 16 15  2  0
 17 16  1  0
 18 17  2  0
 18 13  1  0
 19 18  1  0
 20 16  1  0
  4 21  1  0
  5 22  1  0
  8 23  1  0
  9 24  1  0
 10 25  1  0
 14 26  1  0
 15 27  1  0
 17 28  1  0
 19 29  1  0
 20 30  1  0
M  END
>  <score>  (8) 
-8.822

$$$$
=
     RDKit          3D

 30 31  0  0  0  0  0  0  0  0999 V2000
    3.0530   67.6360   62.9740 C   0  0  0  0  0  0  0  0  0  0  0  0
    3.8430   67.2340   62.1260 O   0  0  0  0  0  0  0  0  0  0  0  0
   -0.5060   69.7860   62.0160 C   0  0  0  0  0  0  0  0  0  0  0  0
   -0.4160   69.0780   63.2100 C   0  0  0  0  0  0  0  0  0  0  0  0
    0.7570   68.3760   63.5000 C   0  0  0  0  0  0  0  0  0  0  0  0
    1.8350   68.3910   62.6000 C   0  0  0  0  0  0  0  0  0  0  0  0
    1.7160   69.0950   61.3980 C   0  0  0  0  0  0  0  0  0  0  0  0
    0.5470   69.7980   61.1050 C   0  0  0  0  0  0  0  0  0  0  0  0
   -1.6300   70.4850   61.6890 O   0  0  0  0  0  0  0  0  0  0  0  0
    2.7260   69.0680   60.4790 O   0  0  0  0  0  0  0  0  0  0  0  0
    3.3250   67.3110   64.4210 C   0  0  0  0  0  0  0  0  0  0  0  0
    3.0800   66.1740   64.8210 O   0  0  0  0  0  0  0  0  0  0  0  0
    3.8820   68.3410   65.3340 C   0  0  0  0  0  0  0  0  0  0  0  0
    5.1370   68.9220   65.0980 C   0  0  0  0  0  0  0  0  0  0  0  0
    5.6350   69.9010   65.9640 C   0  0  0  0  0  0  0  0  0  0  0  0
    4.8790   70.2970   67.0620 C   0  0  0  0  0  0  0  0  0  0  0  0
    3.6330   69.7320   67.3110 C   0  0  0  0  0  0  0  0  0  0  0  0
    3.1380   68.7550   66.4490 C   0  0  0  0  0  0  0  0  0  0  0  0
    1.9040   68.2460   66.7620 O   0  0  0  0  0  0  0  0  0  0  0  0
    5.3310   71.2480   67.9270 O   0  0  0  0  0  0  0  0  0  0  0  0
   -1.2582   69.0708   63.9175 H   0  0  0  0  0  0  0  0  0  0  0  0
    0.8365   67.8083   64.4388 H   0  0  0  0  0  0  0  0  0  0  0  0
    0.4579   70.3572   60.1619 H   0  0  0  0  0  0  0  0  0  0  0  0
   -1.6726   70.9820   60.8339 H   0  0  0  0  0  0  0  0  0  0  0  0
    2.6359   69.5686   59.6296 H   0  0  0  0  0  0  0  0  0  0  0  0
    5.7319   68.6063   64.2282 H   0  0  0  0  0  0  0  0  0  0  0  0
    6.6193   70.3552   65.7776 H   0  0  0  0  0  0  0  0  0  0  0  0
    3.0426   70.0537   68.1816 H   0  0  0  0  0  0  0  0  0  0  0  0
    1.4963   67.5488   66.1894 H   0  0  0  0  0  0  0  0  0  0  0  0
    4.7767   71.5153   68.7025 H   0  0  0  0  0  0  0  0  0  0  0  0
  2  1  2  0
  4  3  2  0
  5  4  1  0
  6  5  2  0
  6  1  1  0
  7  6  1  0
  8  7  2  0
  8  3  1  0
  9  3  1  0
 10  7  1  0
 11  1  1  0
 12 11  2  0
 13 11  1  0
 14 13  2  0
 15 14  1  0
 16 15  2  0
 17 16  1  0
 18 17  2  0
 18 13  1  0
 19 18  1  0
 20 16  1  0
  4 21  1  0
  5 22  1  0
  8 23  1  0
  9 24  1  0
 10 25  1  0
 14 26  1  0
 15 27  1  0
 17 28  1  0
 19 29  1  0
 20 30  1  0
M  END
>  <score>  (9) 
-8.161

$$$$
