=
     RDKit          3D

 84 88  0  0  0  0  0  0  0  0999 V2000
    0.1420   65.9280   70.3030 C   0  0  0  0  0  0  0  0  0  0  0  0
    1.4550   65.2280   70.6460 C   0  0  0  0  0  0  0  0  0  0  0  0
    1.6330   63.9940   69.8060 N   0  0  0  0  0  4  0  0  0  0  0  0
    5.8880   61.0060   71.5870 C   0  0  0  0  0  0  0  0  0  0  0  0
    4.7570   61.4830   72.4540 C   0  0  0  0  0  0  0  0  0  0  0  0
    3.4480   61.3110   72.1860 C   0  0  0  0  0  0  0  0  0  0  0  0
    2.8940   60.6140   70.9570 C   0  0  1  0  0  0  0  0  0  0  0  0
    2.6010   59.2080   71.3680 C   0  0  0  0  0  0  0  0  0  0  0  0
    1.8430   59.0920   72.4930 C   0  0  0  0  0  0  0  0  0  0  0  0
    1.3880   60.3760   73.2530 C   0  0  0  0  0  0  0  0  0  0  0  0
    2.2530   61.7020   72.9910 C   0  0  2  0  0  0  0  0  0  0  0  0
    1.6180   62.8660   72.1200 C   0  0  0  0  0  0  0  0  0  0  0  0
    1.5820   62.6760   70.5360 C   0  0  2  0  0  0  0  0  0  0  0  0
    2.6960   61.7330   69.9310 C   0  0  0  0  0  0  0  0  0  0  0  0
    1.3840   57.7720   73.0360 C   0  0  0  0  0  0  0  0  0  0  0  0
    2.6110   62.2530   74.3370 N   0  0  0  0  0  4  0  0  0  0  0  0
    0.2400   66.8440   69.0800 C   0  0  0  0  0  0  0  0  0  0  0  0
   -1.0650   66.9430   68.2800 C   0  0  0  0  0  0  0  0  0  0  0  0
   -0.8410   67.0810   66.7730 C   0  0  0  0  0  0  0  0  0  0  0  0
   -0.8710   68.5490   66.3320 C   0  0  0  0  0  0  0  0  0  0  0  0
    0.4190   68.9750   65.6250 C   0  0  0  0  0  0  0  0  0  0  0  0
    1.5040   68.0480   65.9780 N   0  0  0  0  0  0  0  0  0  0  0  0
    2.7800   68.6660   65.8000 C   0  0  0  0  0  0  0  0  0  0  0  0
    3.5020   68.5190   64.6060 C   0  0  0  0  0  0  0  0  0  0  0  0
    3.0340   67.7680   63.3860 C   0  0  0  0  0  0  0  0  0  0  0  0
    3.3670   68.5180   62.0920 C   0  0  0  0  0  0  0  0  0  0  0  0
    4.7580   69.1660   62.0640 C   0  0  0  0  0  0  0  0  0  0  0  0
    5.6030   68.8690   63.2980 C   0  0  0  0  0  0  0  0  0  0  0  0
    4.7900   69.0570   64.5540 C   0  0  0  0  0  0  0  0  0  0  0  0
    5.3770   69.7090   65.5810 N   0  0  0  0  0  0  0  0  0  0  0  0
    4.6870   69.8580   66.7180 C   0  0  0  0  0  0  0  0  0  0  0  0
    3.3810   69.3540   66.8920 C   0  0  0  0  0  0  0  0  0  0  0  0
    2.7310   69.5690   68.1310 C   0  0  0  0  0  0  0  0  0  0  0  0
    3.3570   70.2540   69.1710 C   0  0  0  0  0  0  0  0  0  0  0  0
    4.6450   70.7370   68.9890 C   0  0  0  0  0  0  0  0  0  0  0  0
    5.2920   70.5350   67.7680 C   0  0  0  0  0  0  0  0  0  0  0  0
   -0.6200   65.1603   70.1030 H   0  0  0  0  0  0  0  0  0  0  0  0
   -0.1208   66.5624   71.1624 H   0  0  0  0  0  0  0  0  0  0  0  0
    2.2916   65.9169   70.4579 H   0  0  0  0  0  0  0  0  0  0  0  0
    1.4338   64.9349   71.7060 H   0  0  0  0  0  0  0  0  0  0  0  0
    0.8876   63.9881   69.0952 H   0  0  0  0  0  0  0  0  0  0  0  0
    2.5865   64.0585   69.4219 H   0  0  0  0  0  0  0  0  0  0  0  0
    6.7153   60.6571   72.2226 H   0  0  0  0  0  0  0  0  0  0  0  0
    5.5393   60.1783   70.9519 H   0  0  0  0  0  0  0  0  0  0  0  0
    6.2373   61.8334   70.9519 H   0  0  0  0  0  0  0  0  0  0  0  0
    5.0187   62.0146   73.3808 H   0  0  0  0  0  0  0  0  0  0  0  0
    2.8043   60.0498   70.0170 H   0  0  0  0  0  0  0  0  0  0  0  0
    2.9683   58.3362   70.8067 H   0  0  0  0  0  0  0  0  0  0  0  0
    0.3499   60.5895   72.9584 H   0  0  0  0  0  0  0  0  0  0  0  0
    1.5194   60.1466   74.3208 H   0  0  0  0  0  0  0  0  0  0  0  0
    0.5798   62.9995   72.4580 H   0  0  0  0  0  0  0  0  0  0  0  0
    2.2841   63.7266   72.2804 H   0  0  0  0  0  0  0  0  0  0  0  0
    0.6166   62.1733   70.3769 H   0  0  0  0  0  0  0  0  0  0  0  0
    2.3645   61.3164   68.9684 H   0  0  0  0  0  0  0  0  0  0  0  0
    3.6314   62.2798   69.7412 H   0  0  0  0  0  0  0  0  0  0  0  0
    1.3951   57.8040   74.1355 H   0  0  0  0  0  0  0  0  0  0  0  0
    0.3617   57.5668   72.6855 H   0  0  0  0  0  0  0  0  0  0  0  0
    2.0584   56.9768   72.6855 H   0  0  0  0  0  0  0  0  0  0  0  0
    2.2176   61.6475   75.0715 H   0  0  0  0  0  0  0  0  0  0  0  0
    3.6360   62.2870   74.4325 H   0  0  0  0  0  0  0  0  0  0  0  0
    2.2256   63.2034   74.4325 H   0  0  0  0  0  0  0  0  0  0  0  0
    0.5153   67.8525   69.4222 H   0  0  0  0  0  0  0  0  0  0  0  0
    0.9961   66.4080   68.4105 H   0  0  0  0  0  0  0  0  0  0  0  0
   -1.6569   66.0341   68.4634 H   0  0  0  0  0  0  0  0  0  0  0  0
   -1.5859   67.8514   68.6168 H   0  0  0  0  0  0  0  0  0  0  0  0
    0.1383   66.6508   66.5164 H   0  0  0  0  0  0  0  0  0  0  0  0
   -1.6513   66.5483   66.2537 H   0  0  0  0  0  0  0  0  0  0  0  0
   -1.7156   68.6930   65.6421 H   0  0  0  0  0  0  0  0  0  0  0  0
   -0.9771   69.1675   67.2354 H   0  0  0  0  0  0  0  0  0  0  0  0
    0.2626   68.9579   64.5363 H   0  0  0  0  0  0  0  0  0  0  0  0
    0.6904   69.9927   65.9421 H   0  0  0  0  0  0  0  0  0  0  0  0
    1.3633   67.0829   66.3091 H   0  0  0  0  0  0  0  0  0  0  0  0
    3.5255   66.7841   63.3636 H   0  0  0  0  0  0  0  0  0  0  0  0
    1.9408   67.6633   63.4482 H   0  0  0  0  0  0  0  0  0  0  0  0
    3.3049   67.8044   61.2571 H   0  0  0  0  0  0  0  0  0  0  0  0
    2.6405   69.3403   62.0147 H   0  0  0  0  0  0  0  0  0  0  0  0
    5.2953   68.7948   61.1788 H   0  0  0  0  0  0  0  0  0  0  0  0
    4.6026   70.2547   62.0380 H   0  0  0  0  0  0  0  0  0  0  0  0
    5.9601   67.8297   63.2504 H   0  0  0  0  0  0  0  0  0  0  0  0
    6.4561   69.5631   63.3198 H   0  0  0  0  0  0  0  0  0  0  0  0
    1.7097   69.1872   68.2762 H   0  0  0  0  0  0  0  0  0  0  0  0
    2.8351   70.4102   70.1266 H   0  0  0  0  0  0  0  0  0  0  0  0
    5.1536   71.2760   69.8019 H   0  0  0  0  0  0  0  0  0  0  0  0
    6.3121   70.9242   67.6342 H   0  0  0  0  0  0  0  0  0  0  0  0
  2  1  1  0
  3  2  1  0
  5  4  1  0
  6  5  2  0
  7  6  1  0
  8  7  1  0
  9  8  2  0
 10  9  1  0
 11 10  1  0
 11  6  1  0
 12 11  1  0
 13  3  1  0
 13 12  1  0
 14 13  1  0
 14  7  1  0
 15  9  1  0
 11 16  1  1
 17  1  1  0
 18 17  1  0
 19 18  1  0
 20 19  1  0
 21 20  1  0
 22 21  1  0
 23 22  1  0
 24 23  1  0
 25 24  1  0
 26 25  1  0
 27 26  1  0
 28 27  1  0
 29 24  2  0
 29 28  1  0
 30 29  1  0
 31 30  2  0
 32 31  1  0
 32 23  2  0
 33 32  1  0
 34 33  2  0
 35 34  1  0
 36 35  2  0
 36 31  1  0
  1 37  1  0
  1 38  1  0
  2 39  1  0
  2 40  1  0
  3 41  1  0
  3 42  1  0
  4 43  1  0
  4 44  1  0
  4 45  1  0
  5 46  1  0
  7 47  1  6
  8 48  1  0
 10 49  1  0
 10 50  1  0
 12 51  1  0
 12 52  1  0
 13 53  1  1
 14 54  1  0
 14 55  1  0
 15 56  1  0
 15 57  1  0
 15 58  1  0
 16 59  1  0
 16 60  1  0
 16 61  1  0
 17 62  1  0
 17 63  1  0
 18 64  1  0
 18 65  1  0
 19 66  1  0
 19 67  1  0
 20 68  1  0
 20 69  1  0
 21 70  1  0
 21 71  1  0
 22 72  1  0
 25 73  1  0
 25 74  1  0
 26 75  1  0
 26 76  1  0
 27 77  1  0
 27 78  1  0
 28 79  1  0
 28 80  1  0
 33 81  1  0
 34 82  1  0
 35 83  1  0
 36 84  1  0
M  CHG  2   3   1  16   1
M  END
>  <score>  (1) 
-11.866

$$$$
=
     RDKit          3D

 84 88  0  0  0  0  0  0  0  0999 V2000
    2.2740   64.5540   70.5900 C   0  0  0  0  0  0  0  0  0  0  0  0
    2.7170   63.1480   70.1900 C   0  0  0  0  0  0  0  0  0  0  0  0
    4.0140   62.7900   70.8600 N   0  0  0  0  0  4  0  0  0  0  0  0
   -0.5520   60.8380   73.2150 C   0  0  0  0  0  0  0  0  0  0  0  0
    0.5650   59.9860   72.6820 C   0  0  0  0  0  0  0  0  0  0  0  0
    1.8690   60.1370   72.9850 C   0  0  0  0  0  0  0  0  0  0  0  0
    2.4310   61.2000   73.9100 C   0  0  1  0  0  0  0  0  0  0  0  0
    2.5900   60.5530   75.2480 C   0  0  0  0  0  0  0  0  0  0  0  0
    3.2760   59.3760   75.2290 C   0  0  0  0  0  0  0  0  0  0  0  0
    3.7890   58.8030   73.8730 C   0  0  0  0  0  0  0  0  0  0  0  0
    3.0460   59.3280   72.5520 C   0  0  2  0  0  0  0  0  0  0  0  0
    3.8170   60.3300   71.5920 C   0  0  0  0  0  0  0  0  0  0  0  0
    3.9210   61.8580   72.0410 C   0  0  2  0  0  0  0  0  0  0  0  0
    2.7710   62.3760   72.9910 C   0  0  0  0  0  0  0  0  0  0  0  0
    3.6000   58.6010   76.4720 C   0  0  0  0  0  0  0  0  0  0  0  0
    2.6620   58.1140   71.7640 N   0  0  0  0  0  4  0  0  0  0  0  0
    0.7560   64.7020   70.7240 C   0  0  0  0  0  0  0  0  0  0  0  0
    0.2390   66.0960   70.3490 C   0  0  0  0  0  0  0  0  0  0  0  0
    1.2290   66.8990   69.5010 C   0  0  0  0  0  0  0  0  0  0  0  0
    0.5510   67.5020   68.2640 C   0  0  0  0  0  0  0  0  0  0  0  0
    1.4630   67.4880   67.0340 C   0  0  0  0  0  0  0  0  0  0  0  0
    1.5820   68.8490   66.4930 N   0  0  0  0  0  0  0  0  0  0  0  0
    2.9310   69.1320   66.1140 C   0  0  0  0  0  0  0  0  0  0  0  0
    3.4250   68.7690   64.8520 C   0  0  0  0  0  0  0  0  0  0  0  0
    2.6310   68.1060   63.7570 C   0  0  0  0  0  0  0  0  0  0  0  0
    2.9490   68.7030   62.3810 C   0  0  0  0  0  0  0  0  0  0  0  0
    4.4350   68.9940   62.1350 C   0  0  0  0  0  0  0  0  0  0  0  0
    5.3500   68.5490   63.2720 C   0  0  0  0  0  0  0  0  0  0  0  0
    4.7840   68.9770   64.6020 C   0  0  0  0  0  0  0  0  0  0  0  0
    5.6430   69.5070   65.5000 N   0  0  0  0  0  0  0  0  0  0  0  0
    5.1710   69.8630   66.7000 C   0  0  0  0  0  0  0  0  0  0  0  0
    3.8210   69.6970   67.0710 C   0  0  0  0  0  0  0  0  0  0  0  0
    3.4160   70.1110   68.3630 C   0  0  0  0  0  0  0  0  0  0  0  0
    4.3240   70.6640   69.2660 C   0  0  0  0  0  0  0  0  0  0  0  0
    5.6510   70.8140   68.8910 C   0  0  0  0  0  0  0  0  0  0  0  0
    6.0580   70.4140   67.6160 C   0  0  0  0  0  0  0  0  0  0  0  0
    2.7346   64.8019   71.5577 H   0  0  0  0  0  0  0  0  0  0  0  0
    2.5955   65.2346   69.7879 H   0  0  0  0  0  0  0  0  0  0  0  0
    1.9435   62.4261   70.4911 H   0  0  0  0  0  0  0  0  0  0  0  0
    2.8617   63.1190   69.0999 H   0  0  0  0  0  0  0  0  0  0  0  0
    4.6186   62.3441   70.1553 H   0  0  0  0  0  0  0  0  0  0  0  0
    4.3816   63.6752   71.2372 H   0  0  0  0  0  0  0  0  0  0  0  0
   -0.5321   60.8228   74.3147 H   0  0  0  0  0  0  0  0  0  0  0  0
   -0.4261   61.8716   72.8602 H   0  0  0  0  0  0  0  0  0  0  0  0
   -1.5155   60.4433   72.8602 H   0  0  0  0  0  0  0  0  0  0  0  0
    0.2967   59.1746   71.9894 H   0  0  0  0  0  0  0  0  0  0  0  0
    2.5263   62.0300   74.6256 H   0  0  0  0  0  0  0  0  0  0  0  0
    2.1861   60.9913   76.1725 H   0  0  0  0  0  0  0  0  0  0  0  0
    4.8547   59.0601   73.7825 H   0  0  0  0  0  0  0  0  0  0  0  0
    3.5837   57.7231   73.9149 H   0  0  0  0  0  0  0  0  0  0  0  0
    4.8433   59.9509   71.4778 H   0  0  0  0  0  0  0  0  0  0  0  0
    3.2143   60.3517   70.6720 H   0  0  0  0  0  0  0  0  0  0  0  0
    4.8504   61.8720   72.6293 H   0  0  0  0  0  0  0  0  0  0  0  0
    3.1198   63.2359   73.5817 H   0  0  0  0  0  0  0  0  0  0  0  0
    1.8930   62.7115   72.4196 H   0  0  0  0  0  0  0  0  0  0  0  0
    3.3478   59.2044   77.3565 H   0  0  0  0  0  0  0  0  0  0  0  0
    3.0163   57.6688   76.4855 H   0  0  0  0  0  0  0  0  0  0  0  0
    4.6736   58.3616   76.4855 H   0  0  0  0  0  0  0  0  0  0  0  0
    2.4198   57.3484   72.4091 H   0  0  0  0  0  0  0  0  0  0  0  0
    1.8492   58.3329   71.1704 H   0  0  0  0  0  0  0  0  0  0  0  0
    3.4528   57.8256   71.1704 H   0  0  0  0  0  0  0  0  0  0  0  0
    0.2753   63.9640   70.0650 H   0  0  0  0  0  0  0  0  0  0  0  0
    0.5088   64.5409   71.7837 H   0  0  0  0  0  0  0  0  0  0  0  0
   -0.6954   65.9809   69.7801 H   0  0  0  0  0  0  0  0  0  0  0  0
    0.0866   66.6510   71.2864 H   0  0  0  0  0  0  0  0  0  0  0  0
    1.6453   67.7129   70.1127 H   0  0  0  0  0  0  0  0  0  0  0  0
    2.0234   66.2182   69.1613 H   0  0  0  0  0  0  0  0  0  0  0  0
   -0.3550   66.9202   68.0388 H   0  0  0  0  0  0  0  0  0  0  0  0
    0.3100   68.5510   68.4912 H   0  0  0  0  0  0  0  0  0  0  0  0
    2.4590   67.1197   67.3210 H   0  0  0  0  0  0  0  0  0  0  0  0
    1.0326   66.8266   66.2676 H   0  0  0  0  0  0  0  0  0  0  0  0
    0.7982   69.5107   66.3994 H   0  0  0  0  0  0  0  0  0  0  0  0
    2.8708   67.0326   63.7433 H   0  0  0  0  0  0  0  0  0  0  0  0
    1.5628   68.2701   63.9621 H   0  0  0  0  0  0  0  0  0  0  0  0
    2.6072   67.9938   61.6128 H   0  0  0  0  0  0  0  0  0  0  0  0
    2.4316   69.6727   62.3366 H   0  0  0  0  0  0  0  0  0  0  0  0
    4.7430   68.4705   61.2179 H   0  0  0  0  0  0  0  0  0  0  0  0
    4.5366   70.0862   62.0531 H   0  0  0  0  0  0  0  0  0  0  0  0
    5.4435   67.4531   63.2539 H   0  0  0  0  0  0  0  0  0  0  0  0
    6.3372   69.0155   63.1382 H   0  0  0  0  0  0  0  0  0  0  0  0
    2.3636   69.9941   68.6608 H   0  0  0  0  0  0  0  0  0  0  0  0
    3.9908   70.9782   70.2661 H   0  0  0  0  0  0  0  0  0  0  0  0
    6.3789   71.2456   69.5938 H   0  0  0  0  0  0  0  0  0  0  0  0
    7.1124   70.5391   67.3288 H   0  0  0  0  0  0  0  0  0  0  0  0
  2  1  1  0
  3  2  1  0
  5  4  1  0
  6  5  2  0
  7  6  1  0
  8  7  1  0
  9  8  2  0
 10  9  1  0
 11 10  1  0
 11  6  1  0
 12 11  1  0
 13  3  1  0
 13 12  1  0
 14 13  1  0
 14  7  1  0
 15  9  1  0
 11 16  1  6
 17  1  1  0
 18 17  1  0
 19 18  1  0
 20 19  1  0
 21 20  1  0
 22 21  1  0
 23 22  1  0
 24 23  1  0
 25 24  1  0
 26 25  1  0
 27 26  1  0
 28 27  1  0
 29 24  2  0
 29 28  1  0
 30 29  1  0
 31 30  2  0
 32 31  1  0
 32 23  2  0
 33 32  1  0
 34 33  2  0
 35 34  1  0
 36 35  2  0
 36 31  1  0
  1 37  1  0
  1 38  1  0
  2 39  1  0
  2 40  1  0
  3 41  1  0
  3 42  1  0
  4 43  1  0
  4 44  1  0
  4 45  1  0
  5 46  1  0
  7 47  1  1
  8 48  1  0
 10 49  1  0
 10 50  1  0
 12 51  1  0
 12 52  1  0
 13 53  1  1
 14 54  1  0
 14 55  1  0
 15 56  1  0
 15 57  1  0
 15 58  1  0
 16 59  1  0
 16 60  1  0
 16 61  1  0
 17 62  1  0
 17 63  1  0
 18 64  1  0
 18 65  1  0
 19 66  1  0
 19 67  1  0
 20 68  1  0
 20 69  1  0
 21 70  1  0
 21 71  1  0
 22 72  1  0
 25 73  1  0
 25 74  1  0
 26 75  1  0
 26 76  1  0
 27 77  1  0
 27 78  1  0
 28 79  1  0
 28 80  1  0
 33 81  1  0
 34 82  1  0
 35 83  1  0
 36 84  1  0
M  CHG  2   3   1  16   1
M  END
>  <score>  (2) 
-11.484

$$$$
=
     RDKit          3D

 84 88  0  0  0  0  0  0  0  0999 V2000
    4.1680   63.4970   65.5050 C   0  0  0  0  0  0  0  0  0  0  0  0
    3.4240   63.5210   66.8390 C   0  0  0  0  0  0  0  0  0  0  0  0
    4.3030   63.0100   67.9450 N   0  0  0  0  0  4  0  0  0  0  0  0
    3.3140   58.3020   70.6030 C   0  0  0  0  0  0  0  0  0  0  0  0
    4.0940   59.4550   71.1690 C   0  0  0  0  0  0  0  0  0  0  0  0
    3.6750   60.7350   71.1990 C   0  0  0  0  0  0  0  0  0  0  0  0
    2.3480   61.2300   70.6560 C   0  0  1  0  0  0  0  0  0  0  0  0
    1.4160   61.3020   71.8220 C   0  0  0  0  0  0  0  0  0  0  0  0
    1.9000   61.9900   72.8930 C   0  0  0  0  0  0  0  0  0  0  0  0
    3.3360   62.5960   72.8360 C   0  0  0  0  0  0  0  0  0  0  0  0
    4.3430   61.9410   71.7720 C   0  0  2  0  0  0  0  0  0  0  0  0
    4.7230   62.7720   70.4740 C   0  0  0  0  0  0  0  0  0  0  0  0
    3.6500   62.8410   69.2940 C   0  0  2  0  0  0  0  0  0  0  0  0
    2.6430   61.6280   69.2070 C   0  0  0  0  0  0  0  0  0  0  0  0
    1.0980   62.2320   74.1380 C   0  0  0  0  0  0  0  0  0  0  0  0
    5.6010   61.6150   72.5150 N   0  0  0  0  0  4  0  0  0  0  0  0
    3.5340   64.3920   64.4370 C   0  0  0  0  0  0  0  0  0  0  0  0
    4.1990   65.7690   64.3160 C   0  0  0  0  0  0  0  0  0  0  0  0
    4.2350   66.2980   62.8810 C   0  0  0  0  0  0  0  0  0  0  0  0
    5.0050   67.6210   62.7870 C   0  0  0  0  0  0  0  0  0  0  0  0
    5.4320   68.1470   64.1610 C   0  0  0  0  0  0  0  0  0  0  0  0
    4.7940   69.4470   64.4120 N   0  0  0  0  0  0  0  0  0  0  0  0
    4.1670   69.4680   65.6960 C   0  0  0  0  0  0  0  0  0  0  0  0
    2.8230   69.0990   65.8570 C   0  0  0  0  0  0  0  0  0  0  0  0
    1.9120   68.6060   64.7630 C   0  0  0  0  0  0  0  0  0  0  0  0
    1.0430   67.4330   65.2290 C   0  0  0  0  0  0  0  0  0  0  0  0
    0.4730   67.5780   66.6460 C   0  0  0  0  0  0  0  0  0  0  0  0
    0.7960   68.9130   67.3090 C   0  0  0  0  0  0  0  0  0  0  0  0
    2.2530   69.2560   67.1230 C   0  0  0  0  0  0  0  0  0  0  0  0
    2.9180   69.7390   68.1950 N   0  0  0  0  0  0  0  0  0  0  0  0
    4.2020   70.0830   68.0450 C   0  0  0  0  0  0  0  0  0  0  0  0
    4.8850   69.9750   66.8160 C   0  0  0  0  0  0  0  0  0  0  0  0
    6.2460   70.3580   66.7600 C   0  0  0  0  0  0  0  0  0  0  0  0
    6.9110   70.8450   67.8860 C   0  0  0  0  0  0  0  0  0  0  0  0
    6.2250   70.9540   69.0860 C   0  0  0  0  0  0  0  0  0  0  0  0
    4.8830   70.5720   69.1520 C   0  0  0  0  0  0  0  0  0  0  0  0
    5.2004   63.8362   65.6758 H   0  0  0  0  0  0  0  0  0  0  0  0
    4.1256   62.4641   65.1290 H   0  0  0  0  0  0  0  0  0  0  0  0
    3.1218   64.5541   67.0657 H   0  0  0  0  0  0  0  0  0  0  0  0
    2.5384   62.8731   66.7624 H   0  0  0  0  0  0  0  0  0  0  0  0
    4.6687   62.0914   67.6562 H   0  0  0  0  0  0  0  0  0  0  0  0
    5.0248   63.7326   68.0780 H   0  0  0  0  0  0  0  0  0  0  0  0
    2.9048   57.6971   71.4256 H   0  0  0  0  0  0  0  0  0  0  0  0
    2.4892   58.6857   69.9845 H   0  0  0  0  0  0  0  0  0  0  0  0
    3.9770   57.6792   69.9845 H   0  0  0  0  0  0  0  0  0  0  0  0
    5.0855   59.2366   71.5923 H   0  0  0  0  0  0  0  0  0  0  0  0
    1.3391   61.2715   70.2196 H   0  0  0  0  0  0  0  0  0  0  0  0
    0.4193   60.8367   71.8157 H   0  0  0  0  0  0  0  0  0  0  0  0
    3.2394   63.6643   72.5922 H   0  0  0  0  0  0  0  0  0  0  0  0
    3.7790   62.3931   73.8222 H   0  0  0  0  0  0  0  0  0  0  0  0
    4.9263   63.8048   70.7934 H   0  0  0  0  0  0  0  0  0  0  0  0
    5.5778   62.2326   70.0400 H   0  0  0  0  0  0  0  0  0  0  0  0
    3.0571   63.7283   69.5609 H   0  0  0  0  0  0  0  0  0  0  0  0
    1.7175   61.9336   68.6971 H   0  0  0  0  0  0  0  0  0  0  0  0
    3.0655   60.7897   68.6336 H   0  0  0  0  0  0  0  0  0  0  0  0
    1.7258   62.0426   75.0212 H   0  0  0  0  0  0  0  0  0  0  0  0
    0.7496   63.2753   74.1527 H   0  0  0  0  0  0  0  0  0  0  0  0
    0.2307   61.5556   74.1527 H   0  0  0  0  0  0  0  0  0  0  0  0
    5.4229   61.6611   73.5284 H   0  0  0  0  0  0  0  0  0  0  0  0
    5.9119   60.6657   72.2639 H   0  0  0  0  0  0  0  0  0  0  0  0
    6.3338   62.2939   72.2639 H   0  0  0  0  0  0  0  0  0  0  0  0
    3.6110   63.8820   63.4654 H   0  0  0  0  0  0  0  0  0  0  0  0
    2.4899   64.5633   64.7379 H   0  0  0  0  0  0  0  0  0  0  0  0
    3.6392   66.4832   64.9377 H   0  0  0  0  0  0  0  0  0  0  0  0
    5.2414   65.6585   64.6494 H   0  0  0  0  0  0  0  0  0  0  0  0
    4.7258   65.5527   62.2378 H   0  0  0  0  0  0  0  0  0  0  0  0
    3.2002   66.4778   62.5542 H   0  0  0  0  0  0  0  0  0  0  0  0
    5.9046   67.4634   62.1739 H   0  0  0  0  0  0  0  0  0  0  0  0
    4.3352   68.3676   62.3354 H   0  0  0  0  0  0  0  0  0  0  0  0
    5.1243   67.4321   64.9383 H   0  0  0  0  0  0  0  0  0  0  0  0
    6.5253   68.2667   64.1824 H   0  0  0  0  0  0  0  0  0  0  0  0
    4.7982   70.2370   63.7511 H   0  0  0  0  0  0  0  0  0  0  0  0
    1.2564   69.4310   64.4473 H   0  0  0  0  0  0  0  0  0  0  0  0
    2.5384   68.2563   63.9292 H   0  0  0  0  0  0  0  0  0  0  0  0
    0.1999   67.3326   64.5296 H   0  0  0  0  0  0  0  0  0  0  0  0
    1.6987   66.5500   65.2477 H   0  0  0  0  0  0  0  0  0  0  0  0
   -0.6207   67.4741   66.5916 H   0  0  0  0  0  0  0  0  0  0  0  0
    0.9418   66.7951   67.2602 H   0  0  0  0  0  0  0  0  0  0  0  0
    0.1776   69.7015   66.8553 H   0  0  0  0  0  0  0  0  0  0  0  0
    0.5830   68.8365   68.3855 H   0  0  0  0  0  0  0  0  0  0  0  0
    6.7914   70.2700   65.8088 H   0  0  0  0  0  0  0  0  0  0  0  0
    7.9689   71.1395   67.8222 H   0  0  0  0  0  0  0  0  0  0  0  0
    6.7349   71.3393   69.9813 H   0  0  0  0  0  0  0  0  0  0  0  0
    4.3495   70.6612   70.1098 H   0  0  0  0  0  0  0  0  0  0  0  0
  2  1  1  0
  3  2  1  0
  5  4  1  0
  6  5  2  0
  7  6  1  0
  8  7  1  0
  9  8  2  0
 10  9  1  0
 11 10  1  0
 11  6  1  0
 12 11  1  0
 13  3  1  0
 13 12  1  0
 14 13  1  0
 14  7  1  0
 15  9  1  0
 11 16  1  1
 17  1  1  0
 18 17  1  0
 19 18  1  0
 20 19  1  0
 21 20  1  0
 22 21  1  0
 23 22  1  0
 24 23  1  0
 25 24  1  0
 26 25  1  0
 27 26  1  0
 28 27  1  0
 29 24  2  0
 29 28  1  0
 30 29  1  0
 31 30  2  0
 32 31  1  0
 32 23  2  0
 33 32  1  0
 34 33  2  0
 35 34  1  0
 36 35  2  0
 36 31  1  0
  1 37  1  0
  1 38  1  0
  2 39  1  0
  2 40  1  0
  3 41  1  0
  3 42  1  0
  4 43  1  0
  4 44  1  0
  4 45  1  0
  5 46  1  0
  7 47  1  6
  8 48  1  0
 10 49  1  0
 10 50  1  0
 12 51  1  0
 12 52  1  0
 13 53  1  1
 14 54  1  0
 14 55  1  0
 15 56  1  0
 15 57  1  0
 15 58  1  0
 16 59  1  0
 16 60  1  0
 16 61  1  0
 17 62  1  0
 17 63  1  0
 18 64  1  0
 18 65  1  0
 19 66  1  0
 19 67  1  0
 20 68  1  0
 20 69  1  0
 21 70  1  0
 21 71  1  0
 22 72  1  0
 25 73  1  0
 25 74  1  0
 26 75  1  0
 26 76  1  0
 27 77  1  0
 27 78  1  0
 28 79  1  0
 28 80  1  0
 33 81  1  0
 34 82  1  0
 35 83  1  0
 36 84  1  0
M  CHG  2   3   1  16   1
M  END
>  <score>  (3) 
-11.283

$$$$
=
     RDKit          3D

 84 88  0  0  0  0  0  0  0  0999 V2000
    2.2320   64.4240   70.2000 C   0  0  0  0  0  0  0  0  0  0  0  0
    3.0780   63.4120   70.9700 C   0  0  0  0  0  0  0  0  0  0  0  0
    2.5230   62.0250   70.8090 N   0  0  0  0  0  4  0  0  0  0  0  0
    1.0870   64.3980   75.5540 C   0  0  0  0  0  0  0  0  0  0  0  0
    0.2140   63.4600   74.7680 C   0  0  0  0  0  0  0  0  0  0  0  0
    0.5840   62.2440   74.3230 C   0  0  0  0  0  0  0  0  0  0  0  0
    1.9510   61.6190   74.5300 C   0  0  1  0  0  0  0  0  0  0  0  0
    1.8280   60.7220   75.7180 C   0  0  0  0  0  0  0  0  0  0  0  0
    0.7890   59.8430   75.6590 C   0  0  0  0  0  0  0  0  0  0  0  0
   -0.1680   59.8610   74.4280 C   0  0  0  0  0  0  0  0  0  0  0  0
   -0.2090   61.2220   73.5790 C   0  0  2  0  0  0  0  0  0  0  0  0
    0.4650   61.2430   72.1430 C   0  0  0  0  0  0  0  0  0  0  0  0
    2.0560   61.3410   72.0690 C   0  0  2  0  0  0  0  0  0  0  0  0
    2.7610   62.0360   73.2990 C   0  0  0  0  0  0  0  0  0  0  0  0
    0.5300   58.8140   76.7190 C   0  0  0  0  0  0  0  0  0  0  0  0
   -1.6520   61.5940   73.4340 N   0  0  0  0  0  4  0  0  0  0  0  0
    0.9110   64.7680   70.8930 C   0  0  0  0  0  0  0  0  0  0  0  0
    0.2560   66.0500   70.3660 C   0  0  0  0  0  0  0  0  0  0  0  0
    1.2030   66.9110   69.5270 C   0  0  0  0  0  0  0  0  0  0  0  0
    0.5110   67.4500   68.2690 C   0  0  0  0  0  0  0  0  0  0  0  0
    1.4340   67.4480   67.0480 C   0  0  0  0  0  0  0  0  0  0  0  0
    1.5240   68.8060   66.4950 N   0  0  0  0  0  0  0  0  0  0  0  0
    2.8680   69.1180   66.1220 C   0  0  0  0  0  0  0  0  0  0  0  0
    3.3730   68.7750   64.8590 C   0  0  0  0  0  0  0  0  0  0  0  0
    2.5940   68.1070   63.7560 C   0  0  0  0  0  0  0  0  0  0  0  0
    2.9050   68.7210   62.3860 C   0  0  0  0  0  0  0  0  0  0  0  0
    4.3860   69.0420   62.1470 C   0  0  0  0  0  0  0  0  0  0  0  0
    5.3050   68.6050   63.2820 C   0  0  0  0  0  0  0  0  0  0  0  0
    4.7280   69.0110   64.6150 C   0  0  0  0  0  0  0  0  0  0  0  0
    5.5750   69.5490   65.5190 N   0  0  0  0  0  0  0  0  0  0  0  0
    5.0930   69.8860   66.7210 C   0  0  0  0  0  0  0  0  0  0  0  0
    3.7450   69.6900   67.0870 C   0  0  0  0  0  0  0  0  0  0  0  0
    3.3290   70.0860   68.3810 C   0  0  0  0  0  0  0  0  0  0  0  0
    4.2240   70.6480   69.2910 C   0  0  0  0  0  0  0  0  0  0  0  0
    5.5480   70.8260   68.9210 C   0  0  0  0  0  0  0  0  0  0  0  0
    5.9660   70.4450   67.6440 C   0  0  0  0  0  0  0  0  0  0  0  0
    2.8156   65.3492   70.0839 H   0  0  0  0  0  0  0  0  0  0  0  0
    1.9801   63.9657   69.2323 H   0  0  0  0  0  0  0  0  0  0  0  0
    4.1084   63.4357   70.5855 H   0  0  0  0  0  0  0  0  0  0  0  0
    3.0631   63.6775   72.0374 H   0  0  0  0  0  0  0  0  0  0  0  0
    1.7199   62.0811   70.1665 H   0  0  0  0  0  0  0  0  0  0  0  0
    3.3071   61.4545   70.4617 H   0  0  0  0  0  0  0  0  0  0  0  0
    0.9305   64.2298   76.6297 H   0  0  0  0  0  0  0  0  0  0  0  0
    2.1421   64.2134   75.3037 H   0  0  0  0  0  0  0  0  0  0  0  0
    0.8272   65.4372   75.3037 H   0  0  0  0  0  0  0  0  0  0  0  0
   -0.8087   63.7935   74.5380 H   0  0  0  0  0  0  0  0  0  0  0  0
    2.9832   61.4289   74.8591 H   0  0  0  0  0  0  0  0  0  0  0  0
    2.5204   60.7675   76.5715 H   0  0  0  0  0  0  0  0  0  0  0  0
    0.1428   59.0524   73.7501 H   0  0  0  0  0  0  0  0  0  0  0  0
   -1.1803   59.7430   74.8418 H   0  0  0  0  0  0  0  0  0  0  0  0
    0.1691   60.3171   71.6281 H   0  0  0  0  0  0  0  0  0  0  0  0
    0.1084   62.1766   71.6833 H   0  0  0  0  0  0  0  0  0  0  0  0
    2.3617   60.2844   72.0820 H   0  0  0  0  0  0  0  0  0  0  0  0
    3.8017   61.6914   73.3897 H   0  0  0  0  0  0  0  0  0  0  0  0
    2.7923   63.1296   73.1846 H   0  0  0  0  0  0  0  0  0  0  0  0
    0.6456   59.2732   77.7118 H   0  0  0  0  0  0  0  0  0  0  0  0
   -0.4937   58.4263   76.6113 H   0  0  0  0  0  0  0  0  0  0  0  0
    1.2482   57.9878   76.6113 H   0  0  0  0  0  0  0  0  0  0  0  0
   -2.0740   61.7028   74.3673 H   0  0  0  0  0  0  0  0  0  0  0  0
   -1.7274   62.4819   72.9175 H   0  0  0  0  0  0  0  0  0  0  0  0
   -2.1473   60.8532   72.9175 H   0  0  0  0  0  0  0  0  0  0  0  0
    0.2114   63.9327   70.7418 H   0  0  0  0  0  0  0  0  0  0  0  0
    1.1391   64.9362   71.9559 H   0  0  0  0  0  0  0  0  0  0  0  0
   -0.6068   65.7711   69.7433 H   0  0  0  0  0  0  0  0  0  0  0  0
   -0.0409   66.6481   71.2402 H   0  0  0  0  0  0  0  0  0  0  0  0
    1.5479   67.7596   70.1360 H   0  0  0  0  0  0  0  0  0  0  0  0
    2.0499   66.2838   69.2118 H   0  0  0  0  0  0  0  0  0  0  0  0
   -0.3646   66.8210   68.0507 H   0  0  0  0  0  0  0  0  0  0  0  0
    0.2200   68.4921   68.4672 H   0  0  0  0  0  0  0  0  0  0  0  0
    2.4362   67.1077   67.3475 H   0  0  0  0  0  0  0  0  0  0  0  0
    1.0271   66.7691   66.2841 H   0  0  0  0  0  0  0  0  0  0  0  0
    0.7252   69.4477   66.3901 H   0  0  0  0  0  0  0  0  0  0  0  0
    2.8531   67.0382   63.7341 H   0  0  0  0  0  0  0  0  0  0  0  0
    1.5225   68.2503   63.9593 H   0  0  0  0  0  0  0  0  0  0  0  0
    2.5790   68.0117   61.6110 H   0  0  0  0  0  0  0  0  0  0  0  0
    2.3696   69.6812   62.3478 H   0  0  0  0  0  0  0  0  0  0  0  0
    4.7064   68.5322   61.2264 H   0  0  0  0  0  0  0  0  0  0  0  0
    4.4672   70.1366   62.0746 H   0  0  0  0  0  0  0  0  0  0  0  0
    5.4189   67.5112   63.2549 H   0  0  0  0  0  0  0  0  0  0  0  0
    6.2834   69.0914   63.1549 H   0  0  0  0  0  0  0  0  0  0  0  0
    2.2780   69.9475   68.6748 H   0  0  0  0  0  0  0  0  0  0  0  0
    3.8825   70.9472   70.2929 H   0  0  0  0  0  0  0  0  0  0  0  0
    6.2658   71.2651   69.6295 H   0  0  0  0  0  0  0  0  0  0  0  0
    7.0188   70.5924   67.3612 H   0  0  0  0  0  0  0  0  0  0  0  0
  2  1  1  0
  3  2  1  0
  5  4  1  0
  6  5  2  0
  7  6  1  0
  8  7  1  0
  9  8  2  0
 10  9  1  0
 11 10  1  0
 11  6  1  0
 12 11  1  0
 13  3  1  0
 13 12  1  0
 14 13  1  0
 14  7  1  0
 15  9  1  0
 11 16  1  6
 17  1  1  0
 18 17  1  0
 19 18  1  0
 20 19  1  0
 21 20  1  0
 22 21  1  0
 23 22  1  0
 24 23  1  0
 25 24  1  0
 26 25  1  0
 27 26  1  0
 28 27  1  0
 29 24  2  0
 29 28  1  0
 30 29  1  0
 31 30  2  0
 32 31  1  0
 32 23  2  0
 33 32  1  0
 34 33  2  0
 35 34  1  0
 36 35  2  0
 36 31  1  0
  1 37  1  0
  1 38  1  0
  2 39  1  0
  2 40  1  0
  3 41  1  0
  3 42  1  0
  4 43  1  0
  4 44  1  0
  4 45  1  0
  5 46  1  0
  7 47  1  1
  8 48  1  0
 10 49  1  0
 10 50  1  0
 12 51  1  0
 12 52  1  0
 13 53  1  6
 14 54  1  0
 14 55  1  0
 15 56  1  0
 15 57  1  0
 15 58  1  0
 16 59  1  0
 16 60  1  0
 16 61  1  0
 17 62  1  0
 17 63  1  0
 18 64  1  0
 18 65  1  0
 19 66  1  0
 19 67  1  0
 20 68  1  0
 20 69  1  0
 21 70  1  0
 21 71  1  0
 22 72  1  0
 25 73  1  0
 25 74  1  0
 26 75  1  0
 26 76  1  0
 27 77  1  0
 27 78  1  0
 28 79  1  0
 28 80  1  0
 33 81  1  0
 34 82  1  0
 35 83  1  0
 36 84  1  0
M  CHG  2   3   1  16   1
M  END
>  <score>  (4) 
-11.242

$$$$
=
     RDKit          3D

 84 88  0  0  0  0  0  0  0  0999 V2000
    2.2720   64.3670   70.2200 C   0  0  0  0  0  0  0  0  0  0  0  0
    3.1120   63.4700   71.1260 C   0  0  0  0  0  0  0  0  0  0  0  0
    2.8410   62.0200   70.8350 N   0  0  0  0  0  4  0  0  0  0  0  0
    3.8890   58.5440   74.9610 C   0  0  0  0  0  0  0  0  0  0  0  0
    3.0810   59.8050   75.0910 C   0  0  0  0  0  0  0  0  0  0  0  0
    2.0450   60.1470   74.3020 C   0  0  0  0  0  0  0  0  0  0  0  0
    1.5230   59.3210   73.1410 C   0  0  1  0  0  0  0  0  0  0  0  0
    0.3650   58.5380   73.6690 C   0  0  0  0  0  0  0  0  0  0  0  0
   -0.5720   59.2820   74.3210 C   0  0  0  0  0  0  0  0  0  0  0  0
   -0.3580   60.8170   74.4890 C   0  0  0  0  0  0  0  0  0  0  0  0
    1.1530   61.3420   74.3680 C   0  0  2  0  0  0  0  0  0  0  0  0
    1.5740   62.1570   73.0720 C   0  0  0  0  0  0  0  0  0  0  0  0
    1.8400   61.3350   71.7300 C   0  0  2  0  0  0  0  0  0  0  0  0
    2.2920   59.8340   71.9200 C   0  0  0  0  0  0  0  0  0  0  0  0
   -1.8400   58.6980   74.8690 C   0  0  0  0  0  0  0  0  0  0  0  0
    1.4090   62.1960   75.5720 N   0  0  0  0  0  4  0  0  0  0  0  0
    1.0160   64.9180   70.9010 C   0  0  0  0  0  0  0  0  0  0  0  0
    0.2610   65.9500   70.0540 C   0  0  0  0  0  0  0  0  0  0  0  0
    1.1790   66.9940   69.4140 C   0  0  0  0  0  0  0  0  0  0  0  0
    0.5490   67.6030   68.1560 C   0  0  0  0  0  0  0  0  0  0  0  0
    1.4660   67.5000   66.9340 C   0  0  0  0  0  0  0  0  0  0  0  0
    1.5810   68.8160   66.2910 N   0  0  0  0  0  0  0  0  0  0  0  0
    2.9450   69.1180   65.9860 C   0  0  0  0  0  0  0  0  0  0  0  0
    3.5060   68.7810   64.7450 C   0  0  0  0  0  0  0  0  0  0  0  0
    2.7740   68.1310   63.5990 C   0  0  0  0  0  0  0  0  0  0  0  0
    3.1550   68.7550   62.2520 C   0  0  0  0  0  0  0  0  0  0  0  0
    4.6480   69.0630   62.0860 C   0  0  0  0  0  0  0  0  0  0  0  0
    5.5090   68.6070   63.2600 C   0  0  0  0  0  0  0  0  0  0  0  0
    4.8730   69.0060   64.5670 C   0  0  0  0  0  0  0  0  0  0  0  0
    5.6810   69.5280   65.5160 N   0  0  0  0  0  0  0  0  0  0  0  0
    5.1460   69.8580   66.6970 C   0  0  0  0  0  0  0  0  0  0  0  0
    3.7800   69.6730   66.9960 C   0  0  0  0  0  0  0  0  0  0  0  0
    3.3070   70.0610   68.2730 C   0  0  0  0  0  0  0  0  0  0  0  0
    4.1630   70.6060   69.2300 C   0  0  0  0  0  0  0  0  0  0  0  0
    5.5050   70.7740   68.9250 C   0  0  0  0  0  0  0  0  0  0  0  0
    5.9790   70.4000   67.6650 C   0  0  0  0  0  0  0  0  0  0  0  0
    2.8934   65.2152   69.8968 H   0  0  0  0  0  0  0  0  0  0  0  0
    1.9368   63.7493   69.3738 H   0  0  0  0  0  0  0  0  0  0  0  0
    4.1781   63.6799   70.9543 H   0  0  0  0  0  0  0  0  0  0  0  0
    2.8469   63.6767   72.1734 H   0  0  0  0  0  0  0  0  0  0  0  0
    2.4940   61.9536   69.8675 H   0  0  0  0  0  0  0  0  0  0  0  0
    3.7345   61.5350   71.0005 H   0  0  0  0  0  0  0  0  0  0  0  0
    4.1345   58.1609   75.9625 H   0  0  0  0  0  0  0  0  0  0  0  0
    3.3057   57.7896   74.4127 H   0  0  0  0  0  0  0  0  0  0  0  0
    4.8181   58.7587   74.4127 H   0  0  0  0  0  0  0  0  0  0  0  0
    3.3581   60.5036   75.8943 H   0  0  0  0  0  0  0  0  0  0  0  0
    1.3613   58.5138   72.4114 H   0  0  0  0  0  0  0  0  0  0  0  0
    0.2762   57.4490   73.5416 H   0  0  0  0  0  0  0  0  0  0  0  0
   -0.9521   61.3248   73.7149 H   0  0  0  0  0  0  0  0  0  0  0  0
   -0.6656   61.0446   75.5203 H   0  0  0  0  0  0  0  0  0  0  0  0
    0.7696   62.8772   72.8616 H   0  0  0  0  0  0  0  0  0  0  0  0
    2.5500   62.5964   73.3259 H   0  0  0  0  0  0  0  0  0  0  0  0
    0.8443   61.3110   71.2632 H   0  0  0  0  0  0  0  0  0  0  0  0
    2.0371   59.2410   71.0293 H   0  0  0  0  0  0  0  0  0  0  0  0
    3.3798   59.7524   72.0616 H   0  0  0  0  0  0  0  0  0  0  0  0
   -1.8058   58.7137   75.9684 H   0  0  0  0  0  0  0  0  0  0  0  0
   -2.6978   59.2917   74.5203 H   0  0  0  0  0  0  0  0  0  0  0  0
   -1.9464   57.6602   74.5203 H   0  0  0  0  0  0  0  0  0  0  0  0
    1.2436   61.6441   76.4258 H   0  0  0  0  0  0  0  0  0  0  0  0
    2.3853   62.5240   75.5590 H   0  0  0  0  0  0  0  0  0  0  0  0
    0.7741   63.0070   75.5590 H   0  0  0  0  0  0  0  0  0  0  0  0
    0.3378   64.0780   71.1118 H   0  0  0  0  0  0  0  0  0  0  0  0
    1.3443   65.4307   71.8172 H   0  0  0  0  0  0  0  0  0  0  0  0
   -0.2761   65.4196   69.2539 H   0  0  0  0  0  0  0  0  0  0  0  0
   -0.4240   66.4864   70.7271 H   0  0  0  0  0  0  0  0  0  0  0  0
    1.3696   67.7962   70.1421 H   0  0  0  0  0  0  0  0  0  0  0  0
    2.1162   66.4967   69.1236 H   0  0  0  0  0  0  0  0  0  0  0  0
   -0.3896   67.0721   67.9388 H   0  0  0  0  0  0  0  0  0  0  0  0
    0.3726   68.6707   68.3532 H   0  0  0  0  0  0  0  0  0  0  0  0
    2.4626   67.1597   67.2519 H   0  0  0  0  0  0  0  0  0  0  0  0
    1.0415   66.7801   66.2188 H   0  0  0  0  0  0  0  0  0  0  0  0
    0.7856   69.4378   66.0872 H   0  0  0  0  0  0  0  0  0  0  0  0
    3.0242   67.0600   63.5786 H   0  0  0  0  0  0  0  0  0  0  0  0
    1.6954   68.2826   63.7528 H   0  0  0  0  0  0  0  0  0  0  0  0
    2.8589   68.0567   61.4553 H   0  0  0  0  0  0  0  0  0  0  0  0
    2.6315   69.7210   62.1988 H   0  0  0  0  0  0  0  0  0  0  0  0
    5.0066   68.5578   61.1771 H   0  0  0  0  0  0  0  0  0  0  0  0
    4.7430   70.1573   62.0273 H   0  0  0  0  0  0  0  0  0  0  0  0
    5.6146   67.5125   63.2280 H   0  0  0  0  0  0  0  0  0  0  0  0
    6.4966   69.0855   63.1841 H   0  0  0  0  0  0  0  0  0  0  0  0
    2.2421   69.9299   68.5154 H   0  0  0  0  0  0  0  0  0  0  0  0
    3.7770   70.8997   70.2173 H   0  0  0  0  0  0  0  0  0  0  0  0
    6.1927   71.1993   69.6708 H   0  0  0  0  0  0  0  0  0  0  0  0
    7.0453   70.5396   67.4335 H   0  0  0  0  0  0  0  0  0  0  0  0
  2  1  1  0
  3  2  1  0
  5  4  1  0
  6  5  2  0
  7  6  1  0
  8  7  1  0
  9  8  2  0
 10  9  1  0
 11 10  1  0
 11  6  1  0
 12 11  1  0
 13  3  1  0
 13 12  1  0
 14 13  1  0
 14  7  1  0
 15  9  1  0
 11 16  1  1
 17  1  1  0
 18 17  1  0
 19 18  1  0
 20 19  1  0
 21 20  1  0
 22 21  1  0
 23 22  1  0
 24 23  1  0
 25 24  1  0
 26 25  1  0
 27 26  1  0
 28 27  1  0
 29 24  2  0
 29 28  1  0
 30 29  1  0
 31 30  2  0
 32 31  1  0
 32 23  2  0
 33 32  1  0
 34 33  2  0
 35 34  1  0
 36 35  2  0
 36 31  1  0
  1 37  1  0
  1 38  1  0
  2 39  1  0
  2 40  1  0
  3 41  1  0
  3 42  1  0
  4 43  1  0
  4 44  1  0
  4 45  1  0
  5 46  1  0
  7 47  1  1
  8 48  1  0
 10 49  1  0
 10 50  1  0
 12 51  1  0
 12 52  1  0
 13 53  1  6
 14 54  1  0
 14 55  1  0
 15 56  1  0
 15 57  1  0
 15 58  1  0
 16 59  1  0
 16 60  1  0
 16 61  1  0
 17 62  1  0
 17 63  1  0
 18 64  1  0
 18 65  1  0
 19 66  1  0
 19 67  1  0
 20 68  1  0
 20 69  1  0
 21 70  1  0
 21 71  1  0
 22 72  1  0
 25 73  1  0
 25 74  1  0
 26 75  1  0
 26 76  1  0
 27 77  1  0
 27 78  1  0
 28 79  1  0
 28 80  1  0
 33 81  1  0
 34 82  1  0
 35 83  1  0
 36 84  1  0
M  CHG  2   3   1  16   1
M  END
>  <score>  (5) 
-11.097

$$$$
=
     RDKit          3D

 84 88  0  0  0  0  0  0  0  0999 V2000
    2.2620   69.1750   69.0270 C   0  0  0  0  0  0  0  0  0  0  0  0
    2.8040   70.1760   68.0080 C   0  0  0  0  0  0  0  0  0  0  0  0
    3.9760   69.5950   67.2670 N   0  0  0  0  0  4  0  0  0  0  0  0
    4.6290   64.9960   64.3290 C   0  0  0  0  0  0  0  0  0  0  0  0
    3.3830   65.8370   64.3350 C   0  0  0  0  0  0  0  0  0  0  0  0
    3.3430   67.1670   64.1270 C   0  0  0  0  0  0  0  0  0  0  0  0
    4.5520   68.0440   63.8610 C   0  0  1  0  0  0  0  0  0  0  0  0
    4.6390   68.2020   62.3780 C   0  0  0  0  0  0  0  0  0  0  0  0
    3.4840   68.6090   61.7820 C   0  0  0  0  0  0  0  0  0  0  0  0
    2.2070   68.8350   62.6490 C   0  0  0  0  0  0  0  0  0  0  0  0
    2.1680   68.0860   64.0670 C   0  0  2  0  0  0  0  0  0  0  0  0
    2.3390   68.9480   65.3890 C   0  0  0  0  0  0  0  0  0  0  0  0
    3.8100   69.4310   65.7770 C   0  0  2  0  0  0  0  0  0  0  0  0
    4.9930   68.5300   65.2440 C   0  0  0  0  0  0  0  0  0  0  0  0
    3.3780   68.8890   60.3130 C   0  0  0  0  0  0  0  0  0  0  0  0
    0.8580   67.3630   64.1350 N   0  0  0  0  0  4  0  0  0  0  0  0
    1.8580   67.8340   68.4100 C   0  0  0  0  0  0  0  0  0  0  0  0
    0.3430   67.5960   68.3970 C   0  0  0  0  0  0  0  0  0  0  0  0
   -0.0880   66.4010   69.2510 C   0  0  0  0  0  0  0  0  0  0  0  0
    1.0210   65.9720   70.2190 C   0  0  0  0  0  0  0  0  0  0  0  0
    0.5510   64.9000   71.2080 C   0  0  0  0  0  0  0  0  0  0  0  0
    0.3450   63.6300   70.4990 N   0  0  0  0  0  0  0  0  0  0  0  0
    1.0490   62.5660   71.1420 C   0  0  0  0  0  0  0  0  0  0  0  0
    2.3830   62.2750   70.8200 C   0  0  0  0  0  0  0  0  0  0  0  0
    3.2330   63.0350   69.8350 C   0  0  0  0  0  0  0  0  0  0  0  0
    4.6600   63.2420   70.3550 C   0  0  0  0  0  0  0  0  0  0  0  0
    5.2700   62.0250   71.0620 C   0  0  0  0  0  0  0  0  0  0  0  0
    4.3790   60.7870   71.0410 C   0  0  0  0  0  0  0  0  0  0  0  0
    2.9630   61.1480   71.4100 C   0  0  0  0  0  0  0  0  0  0  0  0
    2.3170   60.3300   72.2680 N   0  0  0  0  0  0  0  0  0  0  0  0
    1.0480   60.6110   72.5840 C   0  0  0  0  0  0  0  0  0  0  0  0
    0.3530   61.7170   72.0490 C   0  0  0  0  0  0  0  0  0  0  0  0
   -0.9860   61.9350   72.4500 C   0  0  0  0  0  0  0  0  0  0  0  0
   -1.6250   61.0780   73.3460 C   0  0  0  0  0  0  0  0  0  0  0  0
   -0.9330   59.9900   73.8570 C   0  0  0  0  0  0  0  0  0  0  0  0
    0.3910   59.7700   73.4720 C   0  0  0  0  0  0  0  0  0  0  0  0
    3.0405   68.9905   69.7819 H   0  0  0  0  0  0  0  0  0  0  0  0
    1.3542   69.6170   69.4634 H   0  0  0  0  0  0  0  0  0  0  0  0
    2.0098   70.4260   67.2892 H   0  0  0  0  0  0  0  0  0  0  0  0
    3.1340   71.0803   68.5403 H   0  0  0  0  0  0  0  0  0  0  0  0
    4.7852   70.2119   67.4265 H   0  0  0  0  0  0  0  0  0  0  0  0
    4.0892   68.6406   67.6373 H   0  0  0  0  0  0  0  0  0  0  0  0
    4.9363   64.7886   65.3646 H   0  0  0  0  0  0  0  0  0  0  0  0
    4.4287   64.0476   63.8090 H   0  0  0  0  0  0  0  0  0  0  0  0
    5.4337   65.5365   63.8090 H   0  0  0  0  0  0  0  0  0  0  0  0
    2.4278   65.3253   64.5244 H   0  0  0  0  0  0  0  0  0  0  0  0
    5.5757   68.3958   63.6654 H   0  0  0  0  0  0  0  0  0  0  0  0
    5.5619   68.0054   61.8127 H   0  0  0  0  0  0  0  0  0  0  0  0
    2.1172   69.9149   62.8380 H   0  0  0  0  0  0  0  0  0  0  0  0
    1.3782   68.4048   62.0676 H   0  0  0  0  0  0  0  0  0  0  0  0
    1.7170   69.8483   65.2765 H   0  0  0  0  0  0  0  0  0  0  0  0
    2.0468   68.2682   66.2029 H   0  0  0  0  0  0  0  0  0  0  0  0
    3.8894   70.3991   65.2608 H   0  0  0  0  0  0  0  0  0  0  0  0
    5.9189   69.1189   65.1665 H   0  0  0  0  0  0  0  0  0  0  0  0
    5.2012   67.6897   65.9226 H   0  0  0  0  0  0  0  0  0  0  0  0
    2.9923   69.9079   60.1608 H   0  0  0  0  0  0  0  0  0  0  0  0
    4.3719   68.8003   59.8502 H   0  0  0  0  0  0  0  0  0  0  0  0
    2.6920   68.1643   59.8502 H   0  0  0  0  0  0  0  0  0  0  0  0
    0.5963   67.2186   65.1207 H   0  0  0  0  0  0  0  0  0  0  0  0
    0.1320   67.9229   63.6655 H   0  0  0  0  0  0  0  0  0  0  0  0
    0.9448   66.4503   63.6655 H   0  0  0  0  0  0  0  0  0  0  0  0
    2.2237   67.8040   67.3730 H   0  0  0  0  0  0  0  0  0  0  0  0
    2.3033   67.0447   69.0335 H   0  0  0  0  0  0  0  0  0  0  0  0
   -0.1557   68.4980   68.7812 H   0  0  0  0  0  0  0  0  0  0  0  0
    0.0561   67.3753   67.3583 H   0  0  0  0  0  0  0  0  0  0  0  0
   -0.9803   66.6795   69.8308 H   0  0  0  0  0  0  0  0  0  0  0  0
   -0.3046   65.5574   68.5792 H   0  0  0  0  0  0  0  0  0  0  0  0
    1.8627   65.5700   69.6360 H   0  0  0  0  0  0  0  0  0  0  0  0
    1.3194   66.8568   70.8004 H   0  0  0  0  0  0  0  0  0  0  0  0
    1.3134   64.7634   71.9891 H   0  0  0  0  0  0  0  0  0  0  0  0
   -0.3959   65.2185   71.6684 H   0  0  0  0  0  0  0  0  0  0  0  0
   -0.2302   63.5212   69.6515 H   0  0  0  0  0  0  0  0  0  0  0  0
    3.2761   62.4704   68.8920 H   0  0  0  0  0  0  0  0  0  0  0  0
    2.7777   64.0247   69.6829 H   0  0  0  0  0  0  0  0  0  0  0  0
    5.3022   63.4981   69.4994 H   0  0  0  0  0  0  0  0  0  0  0  0
    4.6020   64.0411   71.1088 H   0  0  0  0  0  0  0  0  0  0  0  0
    6.2199   61.7765   70.5661 H   0  0  0  0  0  0  0  0  0  0  0  0
    5.4048   62.3034   72.1176 H   0  0  0  0  0  0  0  0  0  0  0  0
    4.3897   60.3507   70.0313 H   0  0  0  0  0  0  0  0  0  0  0  0
    4.7626   60.0607   71.7727 H   0  0  0  0  0  0  0  0  0  0  0  0
   -1.5349   62.7987   72.0466 H   0  0  0  0  0  0  0  0  0  0  0  0
   -2.6674   61.2632   73.6444 H   0  0  0  0  0  0  0  0  0  0  0  0
   -1.4248   59.3038   74.5621 H   0  0  0  0  0  0  0  0  0  0  0  0
    0.9297   58.9043   73.8847 H   0  0  0  0  0  0  0  0  0  0  0  0
  2  1  1  0
  3  2  1  0
  5  4  1  0
  6  5  2  0
  7  6  1  0
  8  7  1  0
  9  8  2  0
 10  9  1  0
 11 10  1  0
 11  6  1  0
 12 11  1  0
 13  3  1  0
 13 12  1  0
 14 13  1  0
 14  7  1  0
 15  9  1  0
 11 16  1  1
 17  1  1  0
 18 17  1  0
 19 18  1  0
 20 19  1  0
 21 20  1  0
 22 21  1  0
 23 22  1  0
 24 23  1  0
 25 24  1  0
 26 25  1  0
 27 26  1  0
 28 27  1  0
 29 24  2  0
 29 28  1  0
 30 29  1  0
 31 30  2  0
 32 31  1  0
 32 23  2  0
 33 32  1  0
 34 33  2  0
 35 34  1  0
 36 35  2  0
 36 31  1  0
  1 37  1  0
  1 38  1  0
  2 39  1  0
  2 40  1  0
  3 41  1  0
  3 42  1  0
  4 43  1  0
  4 44  1  0
  4 45  1  0
  5 46  1  0
  7 47  1  6
  8 48  1  0
 10 49  1  0
 10 50  1  0
 12 51  1  0
 12 52  1  0
 13 53  1  6
 14 54  1  0
 14 55  1  0
 15 56  1  0
 15 57  1  0
 15 58  1  0
 16 59  1  0
 16 60  1  0
 16 61  1  0
 17 62  1  0
 17 63  1  0
 18 64  1  0
 18 65  1  0
 19 66  1  0
 19 67  1  0
 20 68  1  0
 20 69  1  0
 21 70  1  0
 21 71  1  0
 22 72  1  0
 25 73  1  0
 25 74  1  0
 26 75  1  0
 26 76  1  0
 27 77  1  0
 27 78  1  0
 28 79  1  0
 28 80  1  0
 33 81  1  0
 34 82  1  0
 35 83  1  0
 36 84  1  0
M  CHG  2   3   1  16   1
M  END
>  <score>  (6) 
-10.586

$$$$
=
     RDKit          3D

 84 88  0  0  0  0  0  0  0  0999 V2000
    3.8670   63.5290   67.5610 C   0  0  0  0  0  0  0  0  0  0  0  0
    3.3780   62.2860   68.3020 C   0  0  0  0  0  0  0  0  0  0  0  0
    3.5900   62.4340   69.7830 N   0  0  0  0  0  4  0  0  0  0  0  0
    3.7300   59.3750   74.3470 C   0  0  0  0  0  0  0  0  0  0  0  0
    3.1650   60.7650   74.2670 C   0  0  0  0  0  0  0  0  0  0  0  0
    2.2580   61.1840   73.3630 C   0  0  0  0  0  0  0  0  0  0  0  0
    1.6610   60.3230   72.2650 C   0  0  1  0  0  0  0  0  0  0  0  0
    0.3490   59.8310   72.7830 C   0  0  0  0  0  0  0  0  0  0  0  0
   -0.4700   60.8050   73.2690 C   0  0  0  0  0  0  0  0  0  0  0  0
    0.0150   62.2870   73.2790 C   0  0  0  0  0  0  0  0  0  0  0  0
    1.6010   62.5170   73.2210 C   0  0  2  0  0  0  0  0  0  0  0  0
    2.2420   63.0740   71.8800 C   0  0  0  0  0  0  0  0  0  0  0  0
    2.4280   62.0550   70.6660 C   0  0  2  0  0  0  0  0  0  0  0  0
    2.5820   60.5340   71.0600 C   0  0  0  0  0  0  0  0  0  0  0  0
   -1.8550   60.5300   73.7750 C   0  0  0  0  0  0  0  0  0  0  0  0
    1.9400   63.4560   74.3370 N   0  0  0  0  0  4  0  0  0  0  0  0
    3.7920   63.3990   66.0370 C   0  0  0  0  0  0  0  0  0  0  0  0
    3.4080   64.7050   65.3280 C   0  0  0  0  0  0  0  0  0  0  0  0
    4.4350   65.1510   64.2860 C   0  0  0  0  0  0  0  0  0  0  0  0
    4.1080   66.5420   63.7320 C   0  0  0  0  0  0  0  0  0  0  0  0
    5.0060   67.6330   64.3230 C   0  0  0  0  0  0  0  0  0  0  0  0
    4.2640   68.9000   64.3890 N   0  0  0  0  0  0  0  0  0  0  0  0
    3.7820   69.1410   65.7130 C   0  0  0  0  0  0  0  0  0  0  0  0
    2.4470   68.8830   66.0610 C   0  0  0  0  0  0  0  0  0  0  0  0
    1.4000   68.3010   65.1470 C   0  0  0  0  0  0  0  0  0  0  0  0
    0.5320   67.2610   65.8640 C   0  0  0  0  0  0  0  0  0  0  0  0
    0.1260   67.6390   67.2940 C   0  0  0  0  0  0  0  0  0  0  0  0
    0.5840   69.0310   67.7200 C   0  0  0  0  0  0  0  0  0  0  0  0
    2.0260   69.2520   67.3410 C   0  0  0  0  0  0  0  0  0  0  0  0
    2.8260   69.8370   68.2580 N   0  0  0  0  0  0  0  0  0  0  0  0
    4.1010   70.0750   67.9320 C   0  0  0  0  0  0  0  0  0  0  0  0
    4.6410   69.7530   66.6690 C   0  0  0  0  0  0  0  0  0  0  0  0
    6.0050   70.0370   66.4220 C   0  0  0  0  0  0  0  0  0  0  0  0
    6.8110   70.6340   67.3920 C   0  0  0  0  0  0  0  0  0  0  0  0
    6.2650   70.9530   68.6260 C   0  0  0  0  0  0  0  0  0  0  0  0
    4.9210   70.6700   68.8810 C   0  0  0  0  0  0  0  0  0  0  0  0
    3.2475   64.3843   67.8686 H   0  0  0  0  0  0  0  0  0  0  0  0
    4.9265   63.6666   67.8228 H   0  0  0  0  0  0  0  0  0  0  0  0
    2.3054   62.1452   68.1028 H   0  0  0  0  0  0  0  0  0  0  0  0
    3.9489   61.4150   67.9478 H   0  0  0  0  0  0  0  0  0  0  0  0
    4.3903   61.8414   70.0461 H   0  0  0  0  0  0  0  0  0  0  0  0
    3.7366   63.4414   69.9399 H   0  0  0  0  0  0  0  0  0  0  0  0
    3.8471   59.0870   75.4021 H   0  0  0  0  0  0  0  0  0  0  0  0
    3.0462   58.6720   73.8487 H   0  0  0  0  0  0  0  0  0  0  0  0
    4.7103   59.3484   73.8487 H   0  0  0  0  0  0  0  0  0  0  0  0
    3.5202   61.4990   75.0053 H   0  0  0  0  0  0  0  0  0  0  0  0
    1.3965   59.4704   71.6222 H   0  0  0  0  0  0  0  0  0  0  0  0
    0.0670   58.7678   72.7728 H   0  0  0  0  0  0  0  0  0  0  0  0
   -0.4286   62.7905   72.4074 H   0  0  0  0  0  0  0  0  0  0  0  0
   -0.3045   62.6932   74.2501 H   0  0  0  0  0  0  0  0  0  0  0  0
    1.6001   63.8937   71.5251 H   0  0  0  0  0  0  0  0  0  0  0  0
    3.2661   63.3612   72.1605 H   0  0  0  0  0  0  0  0  0  0  0  0
    1.4738   62.1484   70.1268 H   0  0  0  0  0  0  0  0  0  0  0  0
    2.2743   59.8883   70.2243 H   0  0  0  0  0  0  0  0  0  0  0  0
    3.6256   60.2796   71.2971 H   0  0  0  0  0  0  0  0  0  0  0  0
   -1.8504   60.5309   74.8750 H   0  0  0  0  0  0  0  0  0  0  0  0
   -2.5401   61.3097   73.4105 H   0  0  0  0  0  0  0  0  0  0  0  0
   -2.1902   59.5478   73.4105 H   0  0  0  0  0  0  0  0  0  0  0  0
    1.7720   62.9905   75.2403 H   0  0  0  0  0  0  0  0  0  0  0  0
    2.9316   63.7261   74.2692 H   0  0  0  0  0  0  0  0  0  0  0  0
    1.3496   64.2973   74.2692 H   0  0  0  0  0  0  0  0  0  0  0  0
    4.7768   63.0784   65.6663 H   0  0  0  0  0  0  0  0  0  0  0  0
    3.0026   62.6662   65.8138 H   0  0  0  0  0  0  0  0  0  0  0  0
    2.4410   64.5580   64.8248 H   0  0  0  0  0  0  0  0  0  0  0  0
    3.3598   65.4911   66.0959 H   0  0  0  0  0  0  0  0  0  0  0  0
    5.4301   65.1779   64.7541 H   0  0  0  0  0  0  0  0  0  0  0  0
    4.4129   64.4342   63.4519 H   0  0  0  0  0  0  0  0  0  0  0  0
    4.2418   66.5276   62.6403 H   0  0  0  0  0  0  0  0  0  0  0  0
    3.0695   66.7769   64.0083 H   0  0  0  0  0  0  0  0  0  0  0  0
    5.3204   67.3397   65.3355 H   0  0  0  0  0  0  0  0  0  0  0  0
    5.8927   67.7617   63.6849 H   0  0  0  0  0  0  0  0  0  0  0  0
    4.1117   69.5299   63.5884 H   0  0  0  0  0  0  0  0  0  0  0  0
    0.7541   69.1135   64.7828 H   0  0  0  0  0  0  0  0  0  0  0  0
    1.9144   67.8004   64.3134 H   0  0  0  0  0  0  0  0  0  0  0  0
   -0.3854   67.1159   65.2747 H   0  0  0  0  0  0  0  0  0  0  0  0
    1.1434   66.3502   65.9458 H   0  0  0  0  0  0  0  0  0  0  0  0
   -0.9710   67.5988   67.3645 H   0  0  0  0  0  0  0  0  0  0  0  0
    0.6193   66.9213   67.9660 H   0  0  0  0  0  0  0  0  0  0  0  0
   -0.0411   69.7861   67.2210 H   0  0  0  0  0  0  0  0  0  0  0  0
    0.4860   69.1187   68.8121 H   0  0  0  0  0  0  0  0  0  0  0  0
    6.4393   69.7816   65.4442 H   0  0  0  0  0  0  0  0  0  0  0  0
    7.8687   70.8494   67.1799 H   0  0  0  0  0  0  0  0  0  0  0  0
    6.8869   71.4264   69.4001 H   0  0  0  0  0  0  0  0  0  0  0  0
    4.4995   70.9265   69.8641 H   0  0  0  0  0  0  0  0  0  0  0  0
  2  1  1  0
  3  2  1  0
  5  4  1  0
  6  5  2  0
  7  6  1  0
  8  7  1  0
  9  8  2  0
 10  9  1  0
 11 10  1  0
 11  6  1  0
 12 11  1  0
 13  3  1  0
 13 12  1  0
 14 13  1  0
 14  7  1  0
 15  9  1  0
 11 16  1  1
 17  1  1  0
 18 17  1  0
 19 18  1  0
 20 19  1  0
 21 20  1  0
 22 21  1  0
 23 22  1  0
 24 23  1  0
 25 24  1  0
 26 25  1  0
 27 26  1  0
 28 27  1  0
 29 24  2  0
 29 28  1  0
 30 29  1  0
 31 30  2  0
 32 31  1  0
 32 23  2  0
 33 32  1  0
 34 33  2  0
 35 34  1  0
 36 35  2  0
 36 31  1  0
  1 37  1  0
  1 38  1  0
  2 39  1  0
  2 40  1  0
  3 41  1  0
  3 42  1  0
  4 43  1  0
  4 44  1  0
  4 45  1  0
  5 46  1  0
  7 47  1  1
  8 48  1  0
 10 49  1  0
 10 50  1  0
 12 51  1  0
 12 52  1  0
 13 53  1  6
 14 54  1  0
 14 55  1  0
 15 56  1  0
 15 57  1  0
 15 58  1  0
 16 59  1  0
 16 60  1  0
 16 61  1  0
 17 62  1  0
 17 63  1  0
 18 64  1  0
 18 65  1  0
 19 66  1  0
 19 67  1  0
 20 68  1  0
 20 69  1  0
 21 70  1  0
 21 71  1  0
 22 72  1  0
 25 73  1  0
 25 74  1  0
 26 75  1  0
 26 76  1  0
 27 77  1  0
 27 78  1  0
 28 79  1  0
 28 80  1  0
 33 81  1  0
 34 82  1  0
 35 83  1  0
 36 84  1  0
M  CHG  2   3   1  16   1
M  END
>  <score>  (7) 
-10.553

$$$$
=
     RDKit          3D

 84 88  0  0  0  0  0  0  0  0999 V2000
    3.3420   63.1820   69.5860 C   0  0  0  0  0  0  0  0  0  0  0  0
    4.1010   63.2210   70.9110 C   0  0  0  0  0  0  0  0  0  0  0  0
    4.8010   61.9140   71.1590 N   0  0  0  0  0  4  0  0  0  0  0  0
   -0.2220   60.7970   73.0920 C   0  0  0  0  0  0  0  0  0  0  0  0
    0.8530   59.7710   72.8620 C   0  0  0  0  0  0  0  0  0  0  0  0
    2.1150   59.8520   73.3260 C   0  0  0  0  0  0  0  0  0  0  0  0
    2.6680   60.9980   74.1520 C   0  0  1  0  0  0  0  0  0  0  0  0
    2.5800   60.5690   75.5800 C   0  0  0  0  0  0  0  0  0  0  0  0
    3.1260   59.3490   75.8400 C   0  0  0  0  0  0  0  0  0  0  0  0
    3.7430   58.5160   74.6750 C   0  0  0  0  0  0  0  0  0  0  0  0
    3.2400   58.8800   73.1960 C   0  0  2  0  0  0  0  0  0  0  0  0
    4.2360   59.6360   72.2180 C   0  0  0  0  0  0  0  0  0  0  0  0
    4.4520   61.2020   72.4420 C   0  0  2  0  0  0  0  0  0  0  0  0
    3.2540   61.9720   73.1250 C   0  0  0  0  0  0  0  0  0  0  0  0
    3.1970   58.7640   77.2190 C   0  0  0  0  0  0  0  0  0  0  0  0
    2.8280   57.5920   72.5530 N   0  0  0  0  0  4  0  0  0  0  0  0
    1.9830   63.8860   69.6410 C   0  0  0  0  0  0  0  0  0  0  0  0
    2.0110   65.2160   70.4050 C   0  0  0  0  0  0  0  0  0  0  0  0
    0.8320   66.1310   70.0680 C   0  0  0  0  0  0  0  0  0  0  0  0
    1.1510   67.0480   68.8810 C   0  0  0  0  0  0  0  0  0  0  0  0
    1.9740   68.2710   69.2920 C   0  0  0  0  0  0  0  0  0  0  0  0
    1.7970   69.3420   68.3010 N   0  0  0  0  0  0  0  0  0  0  0  0
    2.9750   69.5020   67.5070 C   0  0  0  0  0  0  0  0  0  0  0  0
    4.1010   70.1770   68.0010 C   0  0  0  0  0  0  0  0  0  0  0  0
    4.2380   70.7560   69.3850 C   0  0  0  0  0  0  0  0  0  0  0  0
    5.6260   70.4890   69.9790 C   0  0  0  0  0  0  0  0  0  0  0  0
    6.7900   70.6600   68.9950 C   0  0  0  0  0  0  0  0  0  0  0  0
    6.3680   71.1580   67.6170 C   0  0  0  0  0  0  0  0  0  0  0  0
    5.1670   70.3920   67.1240 C   0  0  0  0  0  0  0  0  0  0  0  0
    5.1760   69.9870   65.8350 N   0  0  0  0  0  0  0  0  0  0  0  0
    4.1070   69.3350   65.3650 C   0  0  0  0  0  0  0  0  0  0  0  0
    2.9680   69.0640   66.1520 C   0  0  0  0  0  0  0  0  0  0  0  0
    1.8890   68.3610   65.5650 C   0  0  0  0  0  0  0  0  0  0  0  0
    1.9300   67.9460   64.2340 C   0  0  0  0  0  0  0  0  0  0  0  0
    3.0520   68.2270   63.4690 C   0  0  0  0  0  0  0  0  0  0  0  0
    4.1240   68.9150   64.0420 C   0  0  0  0  0  0  0  0  0  0  0  0
    3.9575   63.6722   68.8173 H   0  0  0  0  0  0  0  0  0  0  0  0
    3.1499   62.1242   69.3535 H   0  0  0  0  0  0  0  0  0  0  0  0
    4.8462   64.0294   70.8770 H   0  0  0  0  0  0  0  0  0  0  0  0
    3.3833   63.3988   71.7255 H   0  0  0  0  0  0  0  0  0  0  0  0
    4.5730   61.2827   70.3777 H   0  0  0  0  0  0  0  0  0  0  0  0
    5.8008   62.1486   71.2383 H   0  0  0  0  0  0  0  0  0  0  0  0
   -0.3694   60.9377   74.1730 H   0  0  0  0  0  0  0  0  0  0  0  0
    0.0786   61.7517   72.6356 H   0  0  0  0  0  0  0  0  0  0  0  0
   -1.1616   60.4522   72.6356 H   0  0  0  0  0  0  0  0  0  0  0  0
    0.5878   58.8841   72.2678 H   0  0  0  0  0  0  0  0  0  0  0  0
    2.7610   61.9228   74.7403 H   0  0  0  0  0  0  0  0  0  0  0  0
    2.1118   61.1887   76.3589 H   0  0  0  0  0  0  0  0  0  0  0  0
    4.8334   58.6582   74.7025 H   0  0  0  0  0  0  0  0  0  0  0  0
    3.4150   57.4806   74.8495 H   0  0  0  0  0  0  0  0  0  0  0  0
    5.2193   59.1521   72.3125 H   0  0  0  0  0  0  0  0  0  0  0  0
    3.7635   59.5599   71.2276 H   0  0  0  0  0  0  0  0  0  0  0  0
    5.2927   61.2290   73.1509 H   0  0  0  0  0  0  0  0  0  0  0  0
    3.6177   62.8825   73.6237 H   0  0  0  0  0  0  0  0  0  0  0  0
    2.5007   62.2871   72.3880 H   0  0  0  0  0  0  0  0  0  0  0  0
    3.0995   59.5677   77.9637 H   0  0  0  0  0  0  0  0  0  0  0  0
    2.3802   58.0394   77.3524 H   0  0  0  0  0  0  0  0  0  0  0  0
    4.1634   58.2558   77.3524 H   0  0  0  0  0  0  0  0  0  0  0  0
    2.6065   56.8995   73.2826 H   0  0  0  0  0  0  0  0  0  0  0  0
    1.9960   57.7515   71.9671 H   0  0  0  0  0  0  0  0  0  0  0  0
    3.5981   57.2390   71.9671 H   0  0  0  0  0  0  0  0  0  0  0  0
    1.6517   64.0836   68.6108 H   0  0  0  0  0  0  0  0  0  0  0  0
    1.2953   63.2183   70.1807 H   0  0  0  0  0  0  0  0  0  0  0  0
    1.9885   65.0000   71.4834 H   0  0  0  0  0  0  0  0  0  0  0  0
    2.9291   65.7439   70.1077 H   0  0  0  0  0  0  0  0  0  0  0  0
   -0.0406   65.5107   69.8156 H   0  0  0  0  0  0  0  0  0  0  0  0
    0.6246   66.7622   70.9447 H   0  0  0  0  0  0  0  0  0  0  0  0
    1.7198   66.4743   68.1345 H   0  0  0  0  0  0  0  0  0  0  0  0
    0.1964   67.4091   68.4707 H   0  0  0  0  0  0  0  0  0  0  0  0
    1.6363   68.6248   70.2773 H   0  0  0  0  0  0  0  0  0  0  0  0
    3.0374   67.9943   69.3439 H   0  0  0  0  0  0  0  0  0  0  0  0
    0.9393   69.9021   68.1931 H   0  0  0  0  0  0  0  0  0  0  0  0
    4.0756   71.8427   69.3340 H   0  0  0  0  0  0  0  0  0  0  0  0
    3.4905   70.2745   70.0326 H   0  0  0  0  0  0  0  0  0  0  0  0
    5.7800   71.1861   70.8159 H   0  0  0  0  0  0  0  0  0  0  0  0
    5.6333   69.4330   70.2871 H   0  0  0  0  0  0  0  0  0  0  0  0
    7.5005   71.3833   69.4217 H   0  0  0  0  0  0  0  0  0  0  0  0
    7.2348   69.6642   68.8515 H   0  0  0  0  0  0  0  0  0  0  0  0
    6.1149   72.2266   67.6801 H   0  0  0  0  0  0  0  0  0  0  0  0
    7.2000   71.0064   66.9137 H   0  0  0  0  0  0  0  0  0  0  0  0
    0.9990   68.1371   66.1714 H   0  0  0  0  0  0  0  0  0  0  0  0
    1.0809   67.4013   63.7955 H   0  0  0  0  0  0  0  0  0  0  0  0
    3.0975   67.9098   62.4167 H   0  0  0  0  0  0  0  0  0  0  0  0
    5.0093   69.1307   63.4257 H   0  0  0  0  0  0  0  0  0  0  0  0
  2  1  1  0
  3  2  1  0
  5  4  1  0
  6  5  2  0
  7  6  1  0
  8  7  1  0
  9  8  2  0
 10  9  1  0
 11 10  1  0
 11  6  1  0
 12 11  1  0
 13  3  1  0
 13 12  1  0
 14 13  1  0
 14  7  1  0
 15  9  1  0
 11 16  1  6
 17  1  1  0
 18 17  1  0
 19 18  1  0
 20 19  1  0
 21 20  1  0
 22 21  1  0
 23 22  1  0
 24 23  1  0
 25 24  1  0
 26 25  1  0
 27 26  1  0
 28 27  1  0
 29 24  2  0
 29 28  1  0
 30 29  1  0
 31 30  2  0
 32 31  1  0
 32 23  2  0
 33 32  1  0
 34 33  2  0
 35 34  1  0
 36 35  2  0
 36 31  1  0
  1 37  1  0
  1 38  1  0
  2 39  1  0
  2 40  1  0
  3 41  1  0
  3 42  1  0
  4 43  1  0
  4 44  1  0
  4 45  1  0
  5 46  1  0
  7 47  1  1
  8 48  1  0
 10 49  1  0
 10 50  1  0
 12 51  1  0
 12 52  1  0
 13 53  1  1
 14 54  1  0
 14 55  1  0
 15 56  1  0
 15 57  1  0
 15 58  1  0
 16 59  1  0
 16 60  1  0
 16 61  1  0
 17 62  1  0
 17 63  1  0
 18 64  1  0
 18 65  1  0
 19 66  1  0
 19 67  1  0
 20 68  1  0
 20 69  1  0
 21 70  1  0
 21 71  1  0
 22 72  1  0
 25 73  1  0
 25 74  1  0
 26 75  1  0
 26 76  1  0
 27 77  1  0
 27 78  1  0
 28 79  1  0
 28 80  1  0
 33 81  1  0
 34 82  1  0
 35 83  1  0
 36 84  1  0
M  CHG  2   3   1  16   1
M  END
>  <score>  (8) 
-10.535

$$$$
=
     RDKit          3D

 84 88  0  0  0  0  0  0  0  0999 V2000
    2.4300   63.2430   71.2880 C   0  0  0  0  0  0  0  0  0  0  0  0
    3.1650   62.2070   70.4390 C   0  0  0  0  0  0  0  0  0  0  0  0
    2.9260   60.8210   70.9690 N   0  0  0  0  0  4  0  0  0  0  0  0
    0.3420   56.6510   73.4480 C   0  0  0  0  0  0  0  0  0  0  0  0
    1.6680   57.2120   73.8790 C   0  0  0  0  0  0  0  0  0  0  0  0
    1.9230   58.5150   74.1050 C   0  0  0  0  0  0  0  0  0  0  0  0
    0.9160   59.6390   73.9530 C   0  0  1  0  0  0  0  0  0  0  0  0
    0.3720   59.9050   75.3190 C   0  0  0  0  0  0  0  0  0  0  0  0
    1.3190   60.0980   76.2780 C   0  0  0  0  0  0  0  0  0  0  0  0
    2.8290   59.9990   75.9030 C   0  0  0  0  0  0  0  0  0  0  0  0
    3.1790   59.1710   74.5750 C   0  0  2  0  0  0  0  0  0  0  0  0
    3.6540   59.9650   73.2850 C   0  0  0  0  0  0  0  0  0  0  0  0
    2.5410   60.7190   72.4240 C   0  0  2  0  0  0  0  0  0  0  0  0
    1.0830   60.1200   72.5090 C   0  0  0  0  0  0  0  0  0  0  0  0
    0.9830   60.4410   77.6990 C   0  0  0  0  0  0  0  0  0  0  0  0
    4.2460   58.1890   74.9490 N   0  0  0  0  0  4  0  0  0  0  0  0
    2.2610   64.5950   70.5910 C   0  0  0  0  0  0  0  0  0  0  0  0
    0.8020   64.9370   70.2590 C   0  0  0  0  0  0  0  0  0  0  0  0
    0.5200   66.4400   70.2550 C   0  0  0  0  0  0  0  0  0  0  0  0
    0.9640   67.0930   68.9410 C   0  0  0  0  0  0  0  0  0  0  0  0
    1.8920   68.2910   69.1660 C   0  0  0  0  0  0  0  0  0  0  0  0
    1.6110   69.3280   68.1640 N   0  0  0  0  0  0  0  0  0  0  0  0
    2.6550   69.3920   67.1900 C   0  0  0  0  0  0  0  0  0  0  0  0
    2.4780   68.8770   65.8970 C   0  0  0  0  0  0  0  0  0  0  0  0
    1.2110   68.2580   65.3660 C   0  0  0  0  0  0  0  0  0  0  0  0
    0.9150   68.7070   63.9310 C   0  0  0  0  0  0  0  0  0  0  0  0
    2.1410   68.7690   63.0110 C   0  0  0  0  0  0  0  0  0  0  0  0
    3.4300   68.2800   63.6640 C   0  0  0  0  0  0  0  0  0  0  0  0
    3.5820   68.8740   65.0410 C   0  0  0  0  0  0  0  0  0  0  0  0
    4.8030   69.3390   65.3850 N   0  0  0  0  0  0  0  0  0  0  0  0
    4.9710   69.8400   66.6140 C   0  0  0  0  0  0  0  0  0  0  0  0
    3.9340   69.8910   67.5680 C   0  0  0  0  0  0  0  0  0  0  0  0
    4.2090   70.4460   68.8400 C   0  0  0  0  0  0  0  0  0  0  0  0
    5.4770   70.9280   69.1640 C   0  0  0  0  0  0  0  0  0  0  0  0
    6.4910   70.8630   68.2190 C   0  0  0  0  0  0  0  0  0  0  0  0
    6.2260   70.3230   66.9590 C   0  0  0  0  0  0  0  0  0  0  0  0
    1.4320   62.8493   71.5308 H   0  0  0  0  0  0  0  0  0  0  0  0
    3.0402   63.4164   72.1867 H   0  0  0  0  0  0  0  0  0  0  0  0
    2.8009   62.2652   69.4026 H   0  0  0  0  0  0  0  0  0  0  0  0
    4.2437   62.4193   70.4766 H   0  0  0  0  0  0  0  0  0  0  0  0
    2.1682   60.3990   70.4135 H   0  0  0  0  0  0  0  0  0  0  0  0
    3.8316   60.3368   70.8900 H   0  0  0  0  0  0  0  0  0  0  0  0
   -0.2554   56.3983   74.3364 H   0  0  0  0  0  0  0  0  0  0  0  0
   -0.1945   57.3992   72.8461 H   0  0  0  0  0  0  0  0  0  0  0  0
    0.5054   55.7449   72.8461 H   0  0  0  0  0  0  0  0  0  0  0  0
    2.4960   56.5020   74.0212 H   0  0  0  0  0  0  0  0  0  0  0  0
   -0.0134   60.2047   73.7909 H   0  0  0  0  0  0  0  0  0  0  0  0
   -0.7064   59.9419   75.5326 H   0  0  0  0  0  0  0  0  0  0  0  0
    3.2089   61.0227   75.7695 H   0  0  0  0  0  0  0  0  0  0  0  0
    3.2999   59.4435   76.7274 H   0  0  0  0  0  0  0  0  0  0  0  0
    4.3820   60.7210   73.6145 H   0  0  0  0  0  0  0  0  0  0  0  0
    4.0475   59.1895   72.6114 H   0  0  0  0  0  0  0  0  0  0  0  0
    2.5046   61.7126   72.8945 H   0  0  0  0  0  0  0  0  0  0  0  0
    0.3365   60.8929   72.2735 H   0  0  0  0  0  0  0  0  0  0  0  0
    0.9380   59.3011   71.7890 H   0  0  0  0  0  0  0  0  0  0  0  0
    1.5884   59.8230   78.3784 H   0  0  0  0  0  0  0  0  0  0  0  0
    1.1987   61.5043   77.8804 H   0  0  0  0  0  0  0  0  0  0  0  0
   -0.0845   60.2473   77.8804 H   0  0  0  0  0  0  0  0  0  0  0  0
    4.3122   58.1281   75.9751 H   0  0  0  0  0  0  0  0  0  0  0  0
    4.0103   57.2629   74.5646 H   0  0  0  0  0  0  0  0  0  0  0  0
    5.1494   58.5006   74.5646 H   0  0  0  0  0  0  0  0  0  0  0  0
    2.6604   65.3790   71.2512 H   0  0  0  0  0  0  0  0  0  0  0  0
    2.8038   64.5357   69.6361 H   0  0  0  0  0  0  0  0  0  0  0  0
    0.5670   64.5348   69.2625 H   0  0  0  0  0  0  0  0  0  0  0  0
    0.1752   64.4895   71.0444 H   0  0  0  0  0  0  0  0  0  0  0  0
   -0.5601   66.6011   70.3868 H   0  0  0  0  0  0  0  0  0  0  0  0
    1.0884   66.8993   71.0772 H   0  0  0  0  0  0  0  0  0  0  0  0
    1.4957   66.3434   68.3365 H   0  0  0  0  0  0  0  0  0  0  0  0
    0.0625   67.4599   68.4285 H   0  0  0  0  0  0  0  0  0  0  0  0
    1.7238   68.7001   70.1731 H   0  0  0  0  0  0  0  0  0  0  0  0
    2.9383   67.9652   69.0705 H   0  0  0  0  0  0  0  0  0  0  0  0
    0.7740   69.9283   68.1635 H   0  0  0  0  0  0  0  0  0  0  0  0
    1.3161   67.1631   65.3818 H   0  0  0  0  0  0  0  0  0  0  0  0
    0.3774   68.5850   66.0049 H   0  0  0  0  0  0  0  0  0  0  0  0
    0.1940   68.0010   63.4933 H   0  0  0  0  0  0  0  0  0  0  0  0
    0.5281   69.7343   64.0013 H   0  0  0  0  0  0  0  0  0  0  0  0
    1.9424   68.1452   62.1270 H   0  0  0  0  0  0  0  0  0  0  0  0
    2.2947   69.8278   62.7553 H   0  0  0  0  0  0  0  0  0  0  0  0
    3.4020   67.1833   63.7439 H   0  0  0  0  0  0  0  0  0  0  0  0
    4.2837   68.5932   63.0450 H   0  0  0  0  0  0  0  0  0  0  0  0
    3.4055   70.4985   69.5895 H   0  0  0  0  0  0  0  0  0  0  0  0
    5.6713   71.3554   70.1588 H   0  0  0  0  0  0  0  0  0  0  0  0
    7.4976   71.2347   68.4611 H   0  0  0  0  0  0  0  0  0  0  0  0
    7.0366   70.2789   66.2168 H   0  0  0  0  0  0  0  0  0  0  0  0
  2  1  1  0
  3  2  1  0
  5  4  1  0
  6  5  2  0
  7  6  1  0
  8  7  1  0
  9  8  2  0
 10  9  1  0
 11 10  1  0
 11  6  1  0
 12 11  1  0
 13  3  1  0
 13 12  1  0
 14 13  1  0
 14  7  1  0
 15  9  1  0
 11 16  1  1
 17  1  1  0
 18 17  1  0
 19 18  1  0
 20 19  1  0
 21 20  1  0
 22 21  1  0
 23 22  1  0
 24 23  1  0
 25 24  1  0
 26 25  1  0
 27 26  1  0
 28 27  1  0
 29 24  2  0
 29 28  1  0
 30 29  1  0
 31 30  2  0
 32 31  1  0
 32 23  2  0
 33 32  1  0
 34 33  2  0
 35 34  1  0
 36 35  2  0
 36 31  1  0
  1 37  1  0
  1 38  1  0
  2 39  1  0
  2 40  1  0
  3 41  1  0
  3 42  1  0
  4 43  1  0
  4 44  1  0
  4 45  1  0
  5 46  1  0
  7 47  1  6
  8 48  1  0
 10 49  1  0
 10 50  1  0
 12 51  1  0
 12 52  1  0
 13 53  1  1
 14 54  1  0
 14 55  1  0
 15 56  1  0
 15 57  1  0
 15 58  1  0
 16 59  1  0
 16 60  1  0
 16 61  1  0
 17 62  1  0
 17 63  1  0
 18 64  1  0
 18 65  1  0
 19 66  1  0
 19 67  1  0
 20 68  1  0
 20 69  1  0
 21 70  1  0
 21 71  1  0
 22 72  1  0
 25 73  1  0
 25 74  1  0
 26 75  1  0
 26 76  1  0
 27 77  1  0
 27 78  1  0
 28 79  1  0
 28 80  1  0
 33 81  1  0
 34 82  1  0
 35 83  1  0
 36 84  1  0
M  CHG  2   3   1  16   1
M  END
>  <score>  (9) 
-10.417

$$$$
