=
     RDKit          3D

 23 24  0  0  0  0  0  0  0  0999 V2000
    4.0660   70.6530   69.9010 O   0  0  0  0  0  0  0  0  0  0  0  0
    4.0030   70.2650   68.7400 C   0  0  0  0  0  0  0  0  0  0  0  0
    2.8470   69.7880   68.1840 N   0  0  0  0  0  0  0  0  0  0  0  0
    2.6770   69.3410   66.8940 C   0  0  0  0  0  0  0  0  0  0  0  0
    1.5620   68.9710   66.5400 O   0  0  0  0  0  0  0  0  0  0  0  0
    3.8220   69.3340   66.1010 N   0  0  0  0  0  0  0  0  0  0  0  0
    5.0260   69.8300   66.5840 C   0  0  0  0  0  0  0  0  0  0  0  0
    5.1610   70.2770   67.8320 C   0  0  0  0  0  0  0  0  0  0  0  0
    6.3260   70.7560   68.3040 F   0  0  0  0  0  0  0  0  0  0  0  0
    3.7550   68.9530   64.6890 C   0  0  1  0  0  0  0  0  0  0  0  0
    4.8570   69.4670   63.7650 C   0  0  0  0  0  0  0  0  0  0  0  0
    5.6190   68.2220   63.3750 C   0  0  0  0  0  0  0  0  0  0  0  0
    4.5840   67.1320   63.5230 C   0  0  0  0  0  0  0  0  0  0  0  0
    3.7300   67.5220   64.6030 O   0  0  0  0  0  0  0  0  0  0  0  0
    2.0181   69.7608   68.7948 H   0  0  0  0  0  0  0  0  0  0  0  0
    5.8977   69.8547   65.9136 H   0  0  0  0  0  0  0  0  0  0  0  0
    2.8402   69.4425   64.3237 H   0  0  0  0  0  0  0  0  0  0  0  0
    4.4271   69.9559   62.8783 H   0  0  0  0  0  0  0  0  0  0  0  0
    5.4966   70.2204   64.2480 H   0  0  0  0  0  0  0  0  0  0  0  0
    5.9793   68.2873   62.3377 H   0  0  0  0  0  0  0  0  0  0  0  0
    6.5176   68.0535   63.9867 H   0  0  0  0  0  0  0  0  0  0  0  0
    4.0014   67.0335   62.5952 H   0  0  0  0  0  0  0  0  0  0  0  0
    5.0580   66.1599   63.7237 H   0  0  0  0  0  0  0  0  0  0  0  0
  2  1  2  0
  3  2  1  0
  4  3  1  0
  5  4  2  0
  6  4  1  0
  7  6  1  0
  8  7  2  0
  8  2  1  0
  9  8  1  0
 10  6  1  0
 11 10  1  0
 12 11  1  0
 13 12  1  0
 14 13  1  0
 14 10  1  0
  3 15  1  0
  7 16  1  0
 10 17  1  6
 11 18  1  0
 11 19  1  0
 12 20  1  0
 12 21  1  0
 13 22  1  0
 13 23  1  0
M  END
>  <score>  (1) 
-7.069

$$$$
=
     RDKit          3D

 23 24  0  0  0  0  0  0  0  0999 V2000
    2.7770   69.0830   60.5880 O   0  0  0  0  0  0  0  0  0  0  0  0
    2.5110   68.7020   61.7230 C   0  0  0  0  0  0  0  0  0  0  0  0
    3.3680   67.9310   62.4610 N   0  0  0  0  0  0  0  0  0  0  0  0
    3.1640   67.4650   63.7390 C   0  0  0  0  0  0  0  0  0  0  0  0
    4.0500   66.8060   64.2750 O   0  0  0  0  0  0  0  0  0  0  0  0
    1.9320   67.7780   64.3060 N   0  0  0  0  0  0  0  0  0  0  0  0
    1.0210   68.5810   63.6330 C   0  0  0  0  0  0  0  0  0  0  0  0
    1.2500   69.0380   62.4030 C   0  0  0  0  0  0  0  0  0  0  0  0
    0.3690   69.8150   61.7460 F   0  0  0  0  0  0  0  0  0  0  0  0
    1.6250   67.4040   65.6880 C   0  0  1  0  0  0  0  0  0  0  0  0
    1.6690   68.5060   66.7450 C   0  0  0  0  0  0  0  0  0  0  0  0
    0.2290   68.6630   67.1730 C   0  0  0  0  0  0  0  0  0  0  0  0
   -0.3620   67.3050   66.8740 C   0  0  0  0  0  0  0  0  0  0  0  0
    0.3230   66.8060   65.7210 O   0  0  0  0  0  0  0  0  0  0  0  0
    4.2586   67.6728   62.0126 H   0  0  0  0  0  0  0  0  0  0  0  0
    0.0782   68.8489   64.1325 H   0  0  0  0  0  0  0  0  0  0  0  0
    2.4417   66.7220   65.9670 H   0  0  0  0  0  0  0  0  0  0  0  0
    2.2988   68.2064   67.5956 H   0  0  0  0  0  0  0  0  0  0  0  0
    2.1000   69.4424   66.3612 H   0  0  0  0  0  0  0  0  0  0  0  0
    0.1582   68.8980   68.2453 H   0  0  0  0  0  0  0  0  0  0  0  0
   -0.2899   69.4853   66.6587 H   0  0  0  0  0  0  0  0  0  0  0  0
   -0.2101   66.6286   67.7280 H   0  0  0  0  0  0  0  0  0  0  0  0
   -1.4448   67.3747   66.6930 H   0  0  0  0  0  0  0  0  0  0  0  0
  2  1  2  0
  3  2  1  0
  4  3  1  0
  5  4  2  0
  6  4  1  0
  7  6  1  0
  8  7  2  0
  8  2  1  0
  9  8  1  0
 10  6  1  0
 11 10  1  0
 12 11  1  0
 13 12  1  0
 14 13  1  0
 14 10  1  0
  3 15  1  0
  7 16  1  0
 10 17  1  1
 11 18  1  0
 11 19  1  0
 12 20  1  0
 12 21  1  0
 13 22  1  0
 13 23  1  0
M  END
>  <score>  (2) 
-6.933

$$$$
=
     RDKit          3D

 23 24  0  0  0  0  0  0  0  0999 V2000
    3.0190   69.0950   60.5940 O   0  0  0  0  0  0  0  0  0  0  0  0
    2.5020   68.8410   61.6770 C   0  0  0  0  0  0  0  0  0  0  0  0
    1.1500   68.6990   61.8320 N   0  0  0  0  0  0  0  0  0  0  0  0
    0.4810   68.4070   62.9990 C   0  0  0  0  0  0  0  0  0  0  0  0
   -0.7390   68.2830   62.9640 O   0  0  0  0  0  0  0  0  0  0  0  0
    1.2740   68.2970   64.1380 N   0  0  0  0  0  0  0  0  0  0  0  0
    2.6560   68.3990   64.0570 C   0  0  0  0  0  0  0  0  0  0  0  0
    3.2830   68.6620   62.9120 C   0  0  0  0  0  0  0  0  0  0  0  0
    4.6220   68.7630   62.8290 F   0  0  0  0  0  0  0  0  0  0  0  0
    0.6890   67.9140   65.4250 C   0  0  1  0  0  0  0  0  0  0  0  0
    1.6470   67.5170   66.5460 C   0  0  0  0  0  0  0  0  0  0  0  0
    1.4990   68.6230   67.5650 C   0  0  0  0  0  0  0  0  0  0  0  0
    0.1050   69.1420   67.3010 C   0  0  0  0  0  0  0  0  0  0  0  0
   -0.1260   68.9960   65.8950 O   0  0  0  0  0  0  0  0  0  0  0  0
    0.5730   68.8235   60.9879 H   0  0  0  0  0  0  0  0  0  0  0  0
    3.2536   68.2578   64.9697 H   0  0  0  0  0  0  0  0  0  0  0  0
    0.1307   66.9929   65.2019 H   0  0  0  0  0  0  0  0  0  0  0  0
    1.3616   66.5467   66.9784 H   0  0  0  0  0  0  0  0  0  0  0  0
    2.6832   67.4015   66.1952 H   0  0  0  0  0  0  0  0  0  0  0  0
    1.5881   68.2318   68.5892 H   0  0  0  0  0  0  0  0  0  0  0  0
    2.2743   69.3986   67.4795 H   0  0  0  0  0  0  0  0  0  0  0  0
   -0.6322   68.5562   67.8697 H   0  0  0  0  0  0  0  0  0  0  0  0
    0.0070   70.1924   67.6124 H   0  0  0  0  0  0  0  0  0  0  0  0
  2  1  2  0
  3  2  1  0
  4  3  1  0
  5  4  2  0
  6  4  1  0
  7  6  1  0
  8  7  2  0
  8  2  1  0
  9  8  1  0
 10  6  1  0
 11 10  1  0
 12 11  1  0
 13 12  1  0
 14 13  1  0
 14 10  1  0
  3 15  1  0
  7 16  1  0
 10 17  1  6
 11 18  1  0
 11 19  1  0
 12 20  1  0
 12 21  1  0
 13 22  1  0
 13 23  1  0
M  END
>  <score>  (3) 
-6.886

$$$$
=
     RDKit          3D

 23 24  0  0  0  0  0  0  0  0999 V2000
    3.4040   70.9340   69.7260 O   0  0  0  0  0  0  0  0  0  0  0  0
    3.8050   70.4530   68.6720 C   0  0  0  0  0  0  0  0  0  0  0  0
    5.1260   70.4680   68.3110 N   0  0  0  0  0  0  0  0  0  0  0  0
    5.6700   69.9480   67.1600 C   0  0  0  0  0  0  0  0  0  0  0  0
    6.8850   70.0170   66.9980 O   0  0  0  0  0  0  0  0  0  0  0  0
    4.7640   69.3970   66.2580 N   0  0  0  0  0  0  0  0  0  0  0  0
    3.4120   69.3190   66.5640 C   0  0  0  0  0  0  0  0  0  0  0  0
    2.9110   69.8110   67.6960 C   0  0  0  0  0  0  0  0  0  0  0  0
    1.6010   69.7380   67.9970 F   0  0  0  0  0  0  0  0  0  0  0  0
    5.2270   68.7440   65.0320 C   0  0  1  0  0  0  0  0  0  0  0  0
    4.2620   67.7920   64.3300 C   0  0  0  0  0  0  0  0  0  0  0  0
    3.9290   68.4950   63.0340 C   0  0  0  0  0  0  0  0  0  0  0  0
    5.1410   69.3670   62.8020 C   0  0  0  0  0  0  0  0  0  0  0  0
    5.6180   69.7570   64.0950 O   0  0  0  0  0  0  0  0  0  0  0  0
    5.7796   70.9150   68.9697 H   0  0  0  0  0  0  0  0  0  0  0  0
    2.7319   68.8348   65.8478 H   0  0  0  0  0  0  0  0  0  0  0  0
    6.0518   68.0987   65.3687 H   0  0  0  0  0  0  0  0  0  0  0  0
    4.7426   66.8218   64.1358 H   0  0  0  0  0  0  0  0  0  0  0  0
    3.3689   67.5745   64.9342 H   0  0  0  0  0  0  0  0  0  0  0  0
    3.7981   67.7731   62.2144 H   0  0  0  0  0  0  0  0  0  0  0  0
    2.9875   69.0622   63.0769 H   0  0  0  0  0  0  0  0  0  0  0  0
    5.9177   68.8024   62.2653 H   0  0  0  0  0  0  0  0  0  0  0  0
    4.8864   70.2458   62.1914 H   0  0  0  0  0  0  0  0  0  0  0  0
  2  1  2  0
  3  2  1  0
  4  3  1  0
  5  4  2  0
  6  4  1  0
  7  6  1  0
  8  7  2  0
  8  2  1  0
  9  8  1  0
 10  6  1  0
 11 10  1  0
 12 11  1  0
 13 12  1  0
 14 13  1  0
 14 10  1  0
  3 15  1  0
  7 16  1  0
 10 17  1  1
 11 18  1  0
 11 19  1  0
 12 20  1  0
 12 21  1  0
 13 22  1  0
 13 23  1  0
M  END
>  <score>  (4) 
-6.84

$$$$
=
     RDKit          3D

 23 24  0  0  0  0  0  0  0  0999 V2000
   -1.6250   68.8240   63.1970 O   0  0  0  0  0  0  0  0  0  0  0  0
   -0.5190   68.7380   63.7170 C   0  0  0  0  0  0  0  0  0  0  0  0
   -0.3450   68.3570   65.0200 N   0  0  0  0  0  0  0  0  0  0  0  0
    0.8510   68.2230   65.6870 C   0  0  0  0  0  0  0  0  0  0  0  0
    0.8360   67.8410   66.8530 O   0  0  0  0  0  0  0  0  0  0  0  0
    1.9890   68.5620   64.9600 N   0  0  0  0  0  0  0  0  0  0  0  0
    1.8980   68.9290   63.6240 C   0  0  0  0  0  0  0  0  0  0  0  0
    0.7290   69.0320   62.9940 C   0  0  0  0  0  0  0  0  0  0  0  0
    0.6360   69.3890   61.7000 F   0  0  0  0  0  0  0  0  0  0  0  0
    3.3250   68.3890   65.5340 C   0  0  1  0  0  0  0  0  0  0  0  0
    4.5070   68.3400   64.5690 C   0  0  0  0  0  0  0  0  0  0  0  0
    5.2750   69.6080   64.8620 C   0  0  0  0  0  0  0  0  0  0  0  0
    4.9030   69.9020   66.2970 C   0  0  0  0  0  0  0  0  0  0  0  0
    3.5580   69.4460   66.4730 O   0  0  0  0  0  0  0  0  0  0  0  0
   -1.1986   68.1488   65.5575 H   0  0  0  0  0  0  0  0  0  0  0  0
    2.8224   69.1418   63.0671 H   0  0  0  0  0  0  0  0  0  0  0  0
    3.2952   67.3854   65.9833 H   0  0  0  0  0  0  0  0  0  0  0  0
    5.1298   67.4535   64.7592 H   0  0  0  0  0  0  0  0  0  0  0  0
    4.1910   68.2713   63.5176 H   0  0  0  0  0  0  0  0  0  0  0  0
    6.3583   69.4477   64.7586 H   0  0  0  0  0  0  0  0  0  0  0  0
    5.0349   70.4311   64.1729 H   0  0  0  0  0  0  0  0  0  0  0  0
    5.5777   69.3666   66.9812 H   0  0  0  0  0  0  0  0  0  0  0  0
    4.9893   70.9764   66.5168 H   0  0  0  0  0  0  0  0  0  0  0  0
  2  1  2  0
  3  2  1  0
  4  3  1  0
  5  4  2  0
  6  4  1  0
  7  6  1  0
  8  7  2  0
  8  2  1  0
  9  8  1  0
 10  6  1  0
 11 10  1  0
 12 11  1  0
 13 12  1  0
 14 13  1  0
 14 10  1  0
  3 15  1  0
  7 16  1  0
 10 17  1  1
 11 18  1  0
 11 19  1  0
 12 20  1  0
 12 21  1  0
 13 22  1  0
 13 23  1  0
M  END
>  <score>  (5) 
-6.772

$$$$
=
     RDKit          3D

 23 24  0  0  0  0  0  0  0  0999 V2000
   -1.9110   68.7020   65.8990 O   0  0  0  0  0  0  0  0  0  0  0  0
   -0.8610   68.7030   65.2670 C   0  0  0  0  0  0  0  0  0  0  0  0
   -0.8060   68.9910   63.9300 N   0  0  0  0  0  0  0  0  0  0  0  0
    0.3200   69.0260   63.1400 C   0  0  0  0  0  0  0  0  0  0  0  0
    0.2020   69.3330   61.9580 O   0  0  0  0  0  0  0  0  0  0  0  0
    1.5110   68.6800   63.7710 N   0  0  0  0  0  0  0  0  0  0  0  0
    1.5430   68.4030   65.1320 C   0  0  0  0  0  0  0  0  0  0  0  0
    0.4410   68.3960   65.8800 C   0  0  0  0  0  0  0  0  0  0  0  0
    0.4670   68.1260   67.1980 F   0  0  0  0  0  0  0  0  0  0  0  0
    2.7870   68.7520   63.0570 C   0  0  1  0  0  0  0  0  0  0  0  0
    4.0420   69.0410   63.8790 C   0  0  0  0  0  0  0  0  0  0  0  0
    4.8360   67.7570   63.8020 C   0  0  0  0  0  0  0  0  0  0  0  0
    4.3610   67.1440   62.5050 C   0  0  0  0  0  0  0  0  0  0  0  0
    2.9870   67.5190   62.3540 O   0  0  0  0  0  0  0  0  0  0  0  0
   -1.7011   69.2038   63.4669 H   0  0  0  0  0  0  0  0  0  0  0  0
    2.5101   68.1822   65.6074 H   0  0  0  0  0  0  0  0  0  0  0  0
    2.6780   69.6305   62.4041 H   0  0  0  0  0  0  0  0  0  0  0  0
    4.6092   69.8776   63.4450 H   0  0  0  0  0  0  0  0  0  0  0  0
    3.8111   69.3335   64.9139 H   0  0  0  0  0  0  0  0  0  0  0  0
    5.9165   67.9610   63.7710 H   0  0  0  0  0  0  0  0  0  0  0  0
    4.6873   67.1013   64.6726 H   0  0  0  0  0  0  0  0  0  0  0  0
    4.9545   67.5300   61.6631 H   0  0  0  0  0  0  0  0  0  0  0  0
    4.4743   66.0499   62.5185 H   0  0  0  0  0  0  0  0  0  0  0  0
  2  1  2  0
  3  2  1  0
  4  3  1  0
  5  4  2  0
  6  4  1  0
  7  6  1  0
  8  7  2  0
  8  2  1  0
  9  8  1  0
 10  6  1  0
 11 10  1  0
 12 11  1  0
 13 12  1  0
 14 13  1  0
 14 10  1  0
  3 15  1  0
  7 16  1  0
 10 17  1  6
 11 18  1  0
 11 19  1  0
 12 20  1  0
 12 21  1  0
 13 22  1  0
 13 23  1  0
M  END
>  <score>  (6) 
-6.759

$$$$
=
     RDKit          3D

 23 24  0  0  0  0  0  0  0  0999 V2000
    6.7480   71.1470   68.2180 O   0  0  0  0  0  0  0  0  0  0  0  0
    5.9140   70.6400   67.4770 C   0  0  0  0  0  0  0  0  0  0  0  0
    6.1410   70.4410   66.1410 N   0  0  0  0  0  0  0  0  0  0  0  0
    5.2740   69.8740   65.2350 C   0  0  0  0  0  0  0  0  0  0  0  0
    5.6430   69.7390   64.0720 O   0  0  0  0  0  0  0  0  0  0  0  0
    4.0250   69.5180   65.7350 N   0  0  0  0  0  0  0  0  0  0  0  0
    3.7290   69.6620   67.0840 C   0  0  0  0  0  0  0  0  0  0  0  0
    4.5930   70.1950   67.9470 C   0  0  0  0  0  0  0  0  0  0  0  0
    4.3100   70.3380   69.2550 F   0  0  0  0  0  0  0  0  0  0  0  0
    3.0440   68.8380   64.8880 C   0  0  1  0  0  0  0  0  0  0  0  0
    3.3490   67.4020   64.4660 C   0  0  0  0  0  0  0  0  0  0  0  0
    2.3070   66.5770   65.1850 C   0  0  0  0  0  0  0  0  0  0  0  0
    1.1760   67.5590   65.3800 C   0  0  0  0  0  0  0  0  0  0  0  0
    1.7770   68.8460   65.5590 O   0  0  0  0  0  0  0  0  0  0  0  0
    7.0546   70.7472   65.7769 H   0  0  0  0  0  0  0  0  0  0  0  0
    2.7489   69.3249   67.4524 H   0  0  0  0  0  0  0  0  0  0  0  0
    3.0608   69.4107   63.9490 H   0  0  0  0  0  0  0  0  0  0  0  0
    3.2543   67.2869   63.3761 H   0  0  0  0  0  0  0  0  0  0  0  0
    4.3757   67.0973   64.7172 H   0  0  0  0  0  0  0  0  0  0  0  0
    1.9872   65.7215   64.5719 H   0  0  0  0  0  0  0  0  0  0  0  0
    2.6716   66.1411   66.1269 H   0  0  0  0  0  0  0  0  0  0  0  0
    0.5223   67.5653   64.4954 H   0  0  0  0  0  0  0  0  0  0  0  0
    0.5589   67.2855   66.2486 H   0  0  0  0  0  0  0  0  0  0  0  0
  2  1  2  0
  3  2  1  0
  4  3  1  0
  5  4  2  0
  6  4  1  0
  7  6  1  0
  8  7  2  0
  8  2  1  0
  9  8  1  0
 10  6  1  0
 11 10  1  0
 12 11  1  0
 13 12  1  0
 14 13  1  0
 14 10  1  0
  3 15  1  0
  7 16  1  0
 10 17  1  6
 11 18  1  0
 11 19  1  0
 12 20  1  0
 12 21  1  0
 13 22  1  0
 13 23  1  0
M  END
>  <score>  (7) 
-6.726

$$$$
=
     RDKit          3D

 23 24  0  0  0  0  0  0  0  0999 V2000
    4.8410   63.4290   63.0950 O   0  0  0  0  0  0  0  0  0  0  0  0
    4.3530   64.5000   63.4370 C   0  0  0  0  0  0  0  0  0  0  0  0
    4.4850   65.6410   62.6930 N   0  0  0  0  0  0  0  0  0  0  0  0
    3.9670   66.8810   62.9880 C   0  0  0  0  0  0  0  0  0  0  0  0
    4.1520   67.8010   62.1970 O   0  0  0  0  0  0  0  0  0  0  0  0
    3.2830   66.9780   64.1970 N   0  0  0  0  0  0  0  0  0  0  0  0
    3.0820   65.8590   64.9930 C   0  0  0  0  0  0  0  0  0  0  0  0
    3.5750   64.6630   64.6760 C   0  0  0  0  0  0  0  0  0  0  0  0
    3.3840   63.5760   65.4460 F   0  0  0  0  0  0  0  0  0  0  0  0
    2.6210   68.2250   64.5870 C   0  0  1  0  0  0  0  0  0  0  0  0
    1.1840   68.4380   64.1180 C   0  0  0  0  0  0  0  0  0  0  0  0
    0.3710   68.3910   65.3910 C   0  0  0  0  0  0  0  0  0  0  0  0
    1.3690   68.8120   66.4440 C   0  0  0  0  0  0  0  0  0  0  0  0
    2.6450   68.3260   66.0160 O   0  0  0  0  0  0  0  0  0  0  0  0
    5.0287   65.5634   61.8216 H   0  0  0  0  0  0  0  0  0  0  0  0
    2.4953   65.9635   65.9176 H   0  0  0  0  0  0  0  0  0  0  0  0
    3.1971   69.0068   64.0703 H   0  0  0  0  0  0  0  0  0  0  0  0
    1.0758   69.4134   63.6211 H   0  0  0  0  0  0  0  0  0  0  0  0
    0.8631   67.6845   63.3836 H   0  0  0  0  0  0  0  0  0  0  0  0
   -0.4760   69.0914   65.3458 H   0  0  0  0  0  0  0  0  0  0  0  0
   -0.0757   67.4047   65.5852 H   0  0  0  0  0  0  0  0  0  0  0  0
    1.3900   69.9084   66.5302 H   0  0  0  0  0  0  0  0  0  0  0  0
    1.1002   68.4054   67.4301 H   0  0  0  0  0  0  0  0  0  0  0  0
  2  1  2  0
  3  2  1  0
  4  3  1  0
  5  4  2  0
  6  4  1  0
  7  6  1  0
  8  7  2  0
  8  2  1  0
  9  8  1  0
 10  6  1  0
 11 10  1  0
 12 11  1  0
 13 12  1  0
 14 13  1  0
 14 10  1  0
  3 15  1  0
  7 16  1  0
 10 17  1  6
 11 18  1  0
 11 19  1  0
 12 20  1  0
 12 21  1  0
 13 22  1  0
 13 23  1  0
M  END
>  <score>  (8) 
-6.725

$$$$
=
     RDKit          3D

 23 24  0  0  0  0  0  0  0  0999 V2000
    5.3040   67.9510   63.8250 O   0  0  0  0  0  0  0  0  0  0  0  0
    4.2260   67.9110   64.4070 C   0  0  0  0  0  0  0  0  0  0  0  0
    3.3620   66.8550   64.2870 N   0  0  0  0  0  0  0  0  0  0  0  0
    2.1410   66.7160   64.9050 C   0  0  0  0  0  0  0  0  0  0  0  0
    1.4970   65.6890   64.7140 O   0  0  0  0  0  0  0  0  0  0  0  0
    1.7350   67.7920   65.6900 N   0  0  0  0  0  0  0  0  0  0  0  0
    2.5680   68.8860   65.8850 C   0  0  0  0  0  0  0  0  0  0  0  0
    3.7560   68.9890   65.2930 C   0  0  0  0  0  0  0  0  0  0  0  0
    4.5650   70.0470   65.4780 F   0  0  0  0  0  0  0  0  0  0  0  0
    0.4910   67.7320   66.4600 C   0  0  1  0  0  0  0  0  0  0  0  0
    0.3680   68.6450   67.6780 C   0  0  0  0  0  0  0  0  0  0  0  0
   -0.7030   69.6370   67.2890 C   0  0  0  0  0  0  0  0  0  0  0  0
   -1.5170   68.8730   66.2710 C   0  0  0  0  0  0  0  0  0  0  0  0
   -0.6040   68.0140   65.5780 O   0  0  0  0  0  0  0  0  0  0  0  0
    3.6572   66.0850   63.6699 H   0  0  0  0  0  0  0  0  0  0  0  0
    2.2348   69.6952   66.5515 H   0  0  0  0  0  0  0  0  0  0  0  0
    0.4843   66.7146   66.8781 H   0  0  0  0  0  0  0  0  0  0  0  0
    0.0650   68.0718   68.5666 H   0  0  0  0  0  0  0  0  0  0  0  0
    1.3195   69.1317   67.9383 H   0  0  0  0  0  0  0  0  0  0  0  0
   -1.3173   69.9170   68.1574 H   0  0  0  0  0  0  0  0  0  0  0  0
   -0.2983   70.5830   66.9001 H   0  0  0  0  0  0  0  0  0  0  0  0
   -2.2914   68.2761   66.7750 H   0  0  0  0  0  0  0  0  0  0  0  0
   -2.0242   69.5570   65.5747 H   0  0  0  0  0  0  0  0  0  0  0  0
  2  1  2  0
  3  2  1  0
  4  3  1  0
  5  4  2  0
  6  4  1  0
  7  6  1  0
  8  7  2  0
  8  2  1  0
  9  8  1  0
 10  6  1  0
 11 10  1  0
 12 11  1  0
 13 12  1  0
 14 13  1  0
 14 10  1  0
  3 15  1  0
  7 16  1  0
 10 17  1  1
 11 18  1  0
 11 19  1  0
 12 20  1  0
 12 21  1  0
 13 22  1  0
 13 23  1  0
M  END
>  <score>  (9) 
-6.719

$$$$
