=
     RDKit          3D

 47 47  0  0  0  0  0  0  0  0999 V2000
    1.9360   69.3330   67.9290 C   0  0  0  0  0  0  0  0  0  0  0  0
    2.3720   70.0810   69.0330 C   0  0  0  0  0  0  0  0  0  0  0  0
    3.6680   70.6070   69.0780 C   0  0  0  0  0  0  0  0  0  0  0  0
    4.5420   70.3700   68.0210 C   0  0  0  0  0  0  0  0  0  0  0  0
    4.1270   69.6370   66.9090 C   0  0  0  0  0  0  0  0  0  0  0  0
    2.8210   69.1200   66.8490 C   0  0  0  0  0  0  0  0  0  0  0  0
    2.4700   68.3770   65.5970 C   0  0  0  0  0  0  0  0  0  0  0  0
    2.5710   67.1530   65.5360 O   0  0  0  0  0  0  0  0  0  0  0  0
    2.0820   69.0970   64.4920 N   0  0  0  0  0  0  0  0  0  0  0  0
    1.5440   68.4920   63.2810 C   0  0  0  0  0  0  0  0  0  0  0  0
    2.5700   68.3220   62.1370 C   0  0  0  0  0  0  0  0  0  0  0  0
    3.9580   67.9550   62.6470 N   0  0  0  0  0  4  0  0  0  0  0  0
    4.9650   69.0570   62.4260 C   0  0  0  0  0  0  0  0  0  0  0  0
    5.6350   69.4710   63.7230 C   0  0  0  0  0  0  0  0  0  0  0  0
    4.4010   66.5540   62.2970 C   0  0  0  0  0  0  0  0  0  0  0  0
    4.5100   65.6510   63.5120 C   0  0  0  0  0  0  0  0  0  0  0  0
    6.1670   71.0950   68.0460 S   0  0  0  0  0  6  0  0  0  0  0  0
    6.9550   70.3990   67.0450 O   0  0  0  0  0  0  0  0  0  0  0  0
    5.9850   72.5310   67.9870 O   0  0  0  0  0  0  0  0  0  0  0  0
    6.7960   70.6650   69.6470 C   0  0  0  0  0  0  0  0  0  0  0  0
    0.4610   67.5050   68.4050 C   0  0  0  0  0  0  0  0  0  0  0  0
    0.6760   68.7940   67.8310 O   0  0  0  0  0  0  0  0  0  0  0  0
    1.6858   70.2564   69.8746 H   0  0  0  0  0  0  0  0  0  0  0  0
    3.9938   71.2037   69.9428 H   0  0  0  0  0  0  0  0  0  0  0  0
    4.8241   69.4629   66.0761 H   0  0  0  0  0  0  0  0  0  0  0  0
    2.1771   70.1222   64.5221 H   0  0  0  0  0  0  0  0  0  0  0  0
    1.1504   67.4979   63.5396 H   0  0  0  0  0  0  0  0  0  0  0  0
    0.7699   69.1781   62.9067 H   0  0  0  0  0  0  0  0  0  0  0  0
    2.2194   67.5253   61.4644 H   0  0  0  0  0  0  0  0  0  0  0  0
    2.6505   69.2866   61.6145 H   0  0  0  0  0  0  0  0  0  0  0  0
    3.8867   67.8923   63.6726 H   0  0  0  0  0  0  0  0  0  0  0  0
    5.7343   68.7019   61.7245 H   0  0  0  0  0  0  0  0  0  0  0  0
    4.4347   69.9306   62.0190 H   0  0  0  0  0  0  0  0  0  0  0  0
    5.0428   69.1051   64.5747 H   0  0  0  0  0  0  0  0  0  0  0  0
    6.6461   69.0400   63.7673 H   0  0  0  0  0  0  0  0  0  0  0  0
    5.7018   70.5681   63.7673 H   0  0  0  0  0  0  0  0  0  0  0  0
    3.6704   66.1182   61.5996 H   0  0  0  0  0  0  0  0  0  0  0  0
    5.4021   66.6259   61.8468 H   0  0  0  0  0  0  0  0  0  0  0  0
    4.4368   66.2571   64.4270 H   0  0  0  0  0  0  0  0  0  0  0  0
    3.6944   64.9131   63.4948 H   0  0  0  0  0  0  0  0  0  0  0  0
    5.4778   65.1284   63.4948 H   0  0  0  0  0  0  0  0  0  0  0  0
    6.1530   71.1046   70.4237 H   0  0  0  0  0  0  0  0  0  0  0  0
    6.8057   69.5704   69.7553 H   0  0  0  0  0  0  0  0  0  0  0  0
    7.8195   71.0533   69.7553 H   0  0  0  0  0  0  0  0  0  0  0  0
    0.4744   67.5853   69.5020 H   0  0  0  0  0  0  0  0  0  0  0  0
   -0.5144   67.1159   68.0777 H   0  0  0  0  0  0  0  0  0  0  0  0
    1.2574   66.8204   68.0777 H   0  0  0  0  0  0  0  0  0  0  0  0
  2  1  2  0
  3  2  1  0
  4  3  2  0
  5  4  1  0
  6  5  2  0
  6  1  1  0
  7  6  1  0
  8  7  2  0
  9  7  1  0
 10  9  1  0
 11 10  1  0
 12 11  1  0
 13 12  1  0
 14 13  1  0
 15 12  1  0
 16 15  1  0
 17  4  1  0
 18 17  2  0
 19 17  2  0
 20 17  1  0
 22 21  1  0
 22  1  1  0
  2 23  1  0
  3 24  1  0
  5 25  1  0
  9 26  1  0
 10 27  1  0
 10 28  1  0
 11 29  1  0
 11 30  1  0
 12 31  1  0
 13 32  1  0
 13 33  1  0
 14 34  1  0
 14 35  1  0
 14 36  1  0
 15 37  1  0
 15 38  1  0
 16 39  1  0
 16 40  1  0
 16 41  1  0
 20 42  1  0
 20 43  1  0
 20 44  1  0
 21 45  1  0
 21 46  1  0
 21 47  1  0
M  CHG  1  12   1
M  END
>  <score>  (1) 
-8.074

$$$$
=
     RDKit          3D

 47 47  0  0  0  0  0  0  0  0999 V2000
    3.2660   69.4610   67.2900 C   0  0  0  0  0  0  0  0  0  0  0  0
    4.3760   69.8620   66.5310 C   0  0  0  0  0  0  0  0  0  0  0  0
    4.5210   69.4570   65.2000 C   0  0  0  0  0  0  0  0  0  0  0  0
    3.5590   68.6320   64.6250 C   0  0  0  0  0  0  0  0  0  0  0  0
    2.4420   68.2270   65.3570 C   0  0  0  0  0  0  0  0  0  0  0  0
    2.2820   68.6440   66.6910 C   0  0  0  0  0  0  0  0  0  0  0  0
    1.0330   68.1800   67.3740 C   0  0  0  0  0  0  0  0  0  0  0  0
   -0.0710   68.6000   67.0310 O   0  0  0  0  0  0  0  0  0  0  0  0
    1.1460   67.3110   68.4330 N   0  0  0  0  0  0  0  0  0  0  0  0
    0.0110   66.6480   69.0600 C   0  0  0  0  0  0  0  0  0  0  0  0
    0.3460   65.9090   70.3760 C   0  0  0  0  0  0  0  0  0  0  0  0
    0.9630   64.5370   70.1350 N   0  0  0  0  0  4  0  0  0  0  0  0
    0.0430   63.4100   70.5380 C   0  0  0  0  0  0  0  0  0  0  0  0
    0.1090   63.1390   72.0300 C   0  0  0  0  0  0  0  0  0  0  0  0
    2.4060   64.4180   70.5640 C   0  0  0  0  0  0  0  0  0  0  0  0
    3.1650   63.3540   69.7890 C   0  0  0  0  0  0  0  0  0  0  0  0
    3.7070   68.1710   62.9120 S   0  0  0  0  0  6  0  0  0  0  0  0
    3.9360   66.7380   62.8790 O   0  0  0  0  0  0  0  0  0  0  0  0
    2.5780   68.7620   62.2230 O   0  0  0  0  0  0  0  0  0  0  0  0
    5.1900   68.9860   62.3830 C   0  0  0  0  0  0  0  0  0  0  0  0
    4.0810   70.6260   69.2190 C   0  0  0  0  0  0  0  0  0  0  0  0
    3.0730   69.8280   68.6000 O   0  0  0  0  0  0  0  0  0  0  0  0
    5.1429   70.5039   66.9891 H   0  0  0  0  0  0  0  0  0  0  0  0
    5.3895   69.7883   64.6118 H   0  0  0  0  0  0  0  0  0  0  0  0
    1.6848   67.5802   64.8898 H   0  0  0  0  0  0  0  0  0  0  0  0
    2.0871   67.1177   68.8043 H   0  0  0  0  0  0  0  0  0  0  0  0
   -0.7533   67.4084   69.2781 H   0  0  0  0  0  0  0  0  0  0  0  0
   -0.3343   65.8816   68.3504 H   0  0  0  0  0  0  0  0  0  0  0  0
    1.0573   66.5193   70.9518 H   0  0  0  0  0  0  0  0  0  0  0  0
   -0.5959   65.7598   70.9242 H   0  0  0  0  0  0  0  0  0  0  0  0
    1.0477   64.4288   69.1142 H   0  0  0  0  0  0  0  0  0  0  0  0
   -0.9893   63.6790   70.2697 H   0  0  0  0  0  0  0  0  0  0  0  0
    0.3628   62.5000   70.0093 H   0  0  0  0  0  0  0  0  0  0  0  0
   -0.1163   64.0640   72.5810 H   0  0  0  0  0  0  0  0  0  0  0  0
   -0.6271   62.3658   72.2951 H   0  0  0  0  0  0  0  0  0  0  0  0
    1.1182   62.7908   72.2951 H   0  0  0  0  0  0  0  0  0  0  0  0
    2.9007   65.3877   70.4061 H   0  0  0  0  0  0  0  0  0  0  0  0
    2.4132   64.1239   71.6239 H   0  0  0  0  0  0  0  0  0  0  0  0
    3.6553   62.6666   70.4940 H   0  0  0  0  0  0  0  0  0  0  0  0
    2.4634   62.7910   69.1560 H   0  0  0  0  0  0  0  0  0  0  0  0
    3.9257   63.8341   69.1560 H   0  0  0  0  0  0  0  0  0  0  0  0
    5.7679   69.3036   63.2634 H   0  0  0  0  0  0  0  0  0  0  0  0
    5.7937   68.2929   61.7787 H   0  0  0  0  0  0  0  0  0  0  0  0
    4.9285   69.8672   61.7787 H   0  0  0  0  0  0  0  0  0  0  0  0
    3.9873   70.5518   70.3125 H   0  0  0  0  0  0  0  0  0  0  0  0
    5.0739   70.2665   68.9109 H   0  0  0  0  0  0  0  0  0  0  0  0
    3.9589   71.6749   68.9109 H   0  0  0  0  0  0  0  0  0  0  0  0
  2  1  2  0
  3  2  1  0
  4  3  2  0
  5  4  1  0
  6  5  2  0
  6  1  1  0
  7  6  1  0
  8  7  2  0
  9  7  1  0
 10  9  1  0
 11 10  1  0
 12 11  1  0
 13 12  1  0
 14 13  1  0
 15 12  1  0
 16 15  1  0
 17  4  1  0
 18 17  2  0
 19 17  2  0
 20 17  1  0
 22 21  1  0
 22  1  1  0
  2 23  1  0
  3 24  1  0
  5 25  1  0
  9 26  1  0
 10 27  1  0
 10 28  1  0
 11 29  1  0
 11 30  1  0
 12 31  1  0
 13 32  1  0
 13 33  1  0
 14 34  1  0
 14 35  1  0
 14 36  1  0
 15 37  1  0
 15 38  1  0
 16 39  1  0
 16 40  1  0
 16 41  1  0
 20 42  1  0
 20 43  1  0
 20 44  1  0
 21 45  1  0
 21 46  1  0
 21 47  1  0
M  CHG  1  12   1
M  END
>  <score>  (2) 
-7.566

$$$$
=
     RDKit          3D

 47 47  0  0  0  0  0  0  0  0999 V2000
    4.6150   69.9090   67.0570 C   0  0  0  0  0  0  0  0  0  0  0  0
    5.7180   70.0520   66.2020 C   0  0  0  0  0  0  0  0  0  0  0  0
    5.6430   69.6640   64.8600 C   0  0  0  0  0  0  0  0  0  0  0  0
    4.4630   69.1120   64.3700 C   0  0  0  0  0  0  0  0  0  0  0  0
    3.3500   68.9680   65.1990 C   0  0  0  0  0  0  0  0  0  0  0  0
    3.4130   69.3720   66.5450 C   0  0  0  0  0  0  0  0  0  0  0  0
    2.1540   69.2040   67.3360 C   0  0  0  0  0  0  0  0  0  0  0  0
    1.6860   70.1340   67.9920 O   0  0  0  0  0  0  0  0  0  0  0  0
    1.5530   67.9670   67.3610 N   0  0  0  0  0  0  0  0  0  0  0  0
    0.2380   67.7180   67.9370 C   0  0  0  0  0  0  0  0  0  0  0  0
   -0.8790   67.4610   66.9000 C   0  0  0  0  0  0  0  0  0  0  0  0
   -0.9220   68.5260   65.8110 N   0  0  0  0  0  4  0  0  0  0  0  0
   -2.3230   69.0190   65.5400 C   0  0  0  0  0  0  0  0  0  0  0  0
   -3.3510   68.2670   66.3650 C   0  0  0  0  0  0  0  0  0  0  0  0
   -0.0690   68.2190   64.6040 C   0  0  0  0  0  0  0  0  0  0  0  0
   -0.4750   69.0160   63.3770 C   0  0  0  0  0  0  0  0  0  0  0  0
    4.3430   68.6800   62.6480 S   0  0  0  0  0  6  0  0  0  0  0  0
    2.9690   68.9190   62.2470 O   0  0  0  0  0  0  0  0  0  0  0  0
    5.4430   69.3400   61.9750 O   0  0  0  0  0  0  0  0  0  0  0  0
    4.6330   66.9300   62.6300 C   0  0  0  0  0  0  0  0  0  0  0  0
    5.8130   70.9020   68.8790 C   0  0  0  0  0  0  0  0  0  0  0  0
    4.6330   70.2730   68.3820 O   0  0  0  0  0  0  0  0  0  0  0  0
    6.6553   70.4753   66.5924 H   0  0  0  0  0  0  0  0  0  0  0  0
    6.5107   69.7943   64.1966 H   0  0  0  0  0  0  0  0  0  0  0  0
    2.4203   68.5372   64.7988 H   0  0  0  0  0  0  0  0  0  0  0  0
    2.0614   67.1715   66.9491 H   0  0  0  0  0  0  0  0  0  0  0  0
    0.3105   66.8354   68.5895 H   0  0  0  0  0  0  0  0  0  0  0  0
   -0.0437   68.6326   68.4794 H   0  0  0  0  0  0  0  0  0  0  0  0
   -0.7046   66.4822   66.4292 H   0  0  0  0  0  0  0  0  0  0  0  0
   -1.8413   67.4888   67.4322 H   0  0  0  0  0  0  0  0  0  0  0  0
   -0.4409   69.3536   66.1911 H   0  0  0  0  0  0  0  0  0  0  0  0
   -2.3791   70.0889   65.7893 H   0  0  0  0  0  0  0  0  0  0  0  0
   -2.5465   68.8504   64.4762 H   0  0  0  0  0  0  0  0  0  0  0  0
   -3.1443   68.4182   67.4348 H   0  0  0  0  0  0  0  0  0  0  0  0
   -4.3572   68.6438   66.1291 H   0  0  0  0  0  0  0  0  0  0  0  0
   -3.2966   67.1940   66.1291 H   0  0  0  0  0  0  0  0  0  0  0  0
    0.9782   68.4543   64.8450 H   0  0  0  0  0  0  0  0  0  0  0  0
   -0.2042   67.1536   64.3659 H   0  0  0  0  0  0  0  0  0  0  0  0
   -0.9534   69.9552   63.6916 H   0  0  0  0  0  0  0  0  0  0  0  0
    0.4174   69.2428   62.7752 H   0  0  0  0  0  0  0  0  0  0  0  0
   -1.1831   68.4274   62.7752 H   0  0  0  0  0  0  0  0  0  0  0  0
    4.6947   66.5579   63.6633 H   0  0  0  0  0  0  0  0  0  0  0  0
    3.8060   66.4266   62.1078 H   0  0  0  0  0  0  0  0  0  0  0  0
    5.5781   66.7203   62.1078 H   0  0  0  0  0  0  0  0  0  0  0  0
    5.7974   70.8937   69.9789 H   0  0  0  0  0  0  0  0  0  0  0  0
    6.6982   70.3561   68.5207 H   0  0  0  0  0  0  0  0  0  0  0  0
    5.8532   71.9412   68.5207 H   0  0  0  0  0  0  0  0  0  0  0  0
  2  1  2  0
  3  2  1  0
  4  3  2  0
  5  4  1  0
  6  5  2  0
  6  1  1  0
  7  6  1  0
  8  7  2  0
  9  7  1  0
 10  9  1  0
 11 10  1  0
 12 11  1  0
 13 12  1  0
 14 13  1  0
 15 12  1  0
 16 15  1  0
 17  4  1  0
 18 17  2  0
 19 17  2  0
 20 17  1  0
 22 21  1  0
 22  1  1  0
  2 23  1  0
  3 24  1  0
  5 25  1  0
  9 26  1  0
 10 27  1  0
 10 28  1  0
 11 29  1  0
 11 30  1  0
 12 31  1  0
 13 32  1  0
 13 33  1  0
 14 34  1  0
 14 35  1  0
 14 36  1  0
 15 37  1  0
 15 38  1  0
 16 39  1  0
 16 40  1  0
 16 41  1  0
 20 42  1  0
 20 43  1  0
 20 44  1  0
 21 45  1  0
 21 46  1  0
 21 47  1  0
M  CHG  1  12   1
M  END
>  <score>  (3) 
-7.429

$$$$
=
     RDKit          3D

 47 47  0  0  0  0  0  0  0  0999 V2000
    0.1560   61.8280   72.5540 C   0  0  0  0  0  0  0  0  0  0  0  0
    0.6630   60.5280   72.7020 C   0  0  0  0  0  0  0  0  0  0  0  0
    1.8570   60.1460   72.0810 C   0  0  0  0  0  0  0  0  0  0  0  0
    2.5440   61.0640   71.2920 C   0  0  0  0  0  0  0  0  0  0  0  0
    2.0650   62.3650   71.1380 C   0  0  0  0  0  0  0  0  0  0  0  0
    0.8740   62.7600   71.7730 C   0  0  0  0  0  0  0  0  0  0  0  0
    0.4680   64.1860   71.5670 C   0  0  0  0  0  0  0  0  0  0  0  0
   -0.0290   64.8440   72.4810 O   0  0  0  0  0  0  0  0  0  0  0  0
    0.6100   64.7370   70.3150 N   0  0  0  0  0  0  0  0  0  0  0  0
    0.4260   66.1540   70.0290 C   0  0  0  0  0  0  0  0  0  0  0  0
   -0.6520   66.4590   68.9640 C   0  0  0  0  0  0  0  0  0  0  0  0
   -0.0600   67.0150   67.6750 N   0  0  0  0  0  4  0  0  0  0  0  0
    1.2510   67.7280   67.9020 C   0  0  0  0  0  0  0  0  0  0  0  0
    1.1290   69.2200   67.6480 C   0  0  0  0  0  0  0  0  0  0  0  0
   -1.0580   67.7050   66.7760 C   0  0  0  0  0  0  0  0  0  0  0  0
   -2.4950   67.4930   67.2190 C   0  0  0  0  0  0  0  0  0  0  0  0
    4.0970   60.6010   70.5570 S   0  0  0  0  0  6  0  0  0  0  0  0
    4.1920   59.1550   70.6460 O   0  0  0  0  0  0  0  0  0  0  0  0
    4.1710   61.2760   69.2770 O   0  0  0  0  0  0  0  0  0  0  0  0
    5.3060   61.3070   71.6450 C   0  0  0  0  0  0  0  0  0  0  0  0
   -1.8830   61.2650   73.6800 C   0  0  0  0  0  0  0  0  0  0  0  0
   -1.0100   62.2570   73.1400 O   0  0  0  0  0  0  0  0  0  0  0  0
    0.1136   59.7986   73.3153 H   0  0  0  0  0  0  0  0  0  0  0  0
    2.2500   59.1274   72.2153 H   0  0  0  0  0  0  0  0  0  0  0  0
    2.6205   63.0841   70.5180 H   0  0  0  0  0  0  0  0  0  0  0  0
    0.8607   64.1126   69.5351 H   0  0  0  0  0  0  0  0  0  0  0  0
    0.1382   66.6584   70.9632 H   0  0  0  0  0  0  0  0  0  0  0  0
    1.3806   66.5169   69.6203 H   0  0  0  0  0  0  0  0  0  0  0  0
   -1.1911   65.5287   68.7317 H   0  0  0  0  0  0  0  0  0  0  0  0
   -1.3243   67.2241   69.3795 H   0  0  0  0  0  0  0  0  0  0  0  0
    0.2005   66.2028   67.0977 H   0  0  0  0  0  0  0  0  0  0  0  0
    1.5683   67.5682   68.9430 H   0  0  0  0  0  0  0  0  0  0  0  0
    1.9906   67.3192   67.1978 H   0  0  0  0  0  0  0  0  0  0  0  0
    1.0854   69.7532   68.6091 H   0  0  0  0  0  0  0  0  0  0  0  0
    2.0018   69.5670   67.0754 H   0  0  0  0  0  0  0  0  0  0  0  0
    0.2115   69.4206   67.0754 H   0  0  0  0  0  0  0  0  0  0  0  0
   -0.8453   68.7842   66.7781 H   0  0  0  0  0  0  0  0  0  0  0  0
   -0.9540   67.2702   65.7710 H   0  0  0  0  0  0  0  0  0  0  0  0
   -2.5427   67.4860   68.3179 H   0  0  0  0  0  0  0  0  0  0  0  0
   -3.1227   68.3083   66.8300 H   0  0  0  0  0  0  0  0  0  0  0  0
   -2.8605   66.5312   66.8300 H   0  0  0  0  0  0  0  0  0  0  0  0
    5.0065   61.1321   72.6889 H   0  0  0  0  0  0  0  0  0  0  0  0
    6.2837   60.8379   71.4605 H   0  0  0  0  0  0  0  0  0  0  0  0
    5.3779   62.3890   71.4605 H   0  0  0  0  0  0  0  0  0  0  0  0
   -1.8481   61.3047   74.7787 H   0  0  0  0  0  0  0  0  0  0  0  0
   -2.9111   61.4563   73.3387 H   0  0  0  0  0  0  0  0  0  0  0  0
   -1.5626   60.2696   73.3387 H   0  0  0  0  0  0  0  0  0  0  0  0
  2  1  2  0
  3  2  1  0
  4  3  2  0
  5  4  1  0
  6  5  2  0
  6  1  1  0
  7  6  1  0
  8  7  2  0
  9  7  1  0
 10  9  1  0
 11 10  1  0
 12 11  1  0
 13 12  1  0
 14 13  1  0
 15 12  1  0
 16 15  1  0
 17  4  1  0
 18 17  2  0
 19 17  2  0
 20 17  1  0
 22 21  1  0
 22  1  1  0
  2 23  1  0
  3 24  1  0
  5 25  1  0
  9 26  1  0
 10 27  1  0
 10 28  1  0
 11 29  1  0
 11 30  1  0
 12 31  1  0
 13 32  1  0
 13 33  1  0
 14 34  1  0
 14 35  1  0
 14 36  1  0
 15 37  1  0
 15 38  1  0
 16 39  1  0
 16 40  1  0
 16 41  1  0
 20 42  1  0
 20 43  1  0
 20 44  1  0
 21 45  1  0
 21 46  1  0
 21 47  1  0
M  CHG  1  12   1
M  END
>  <score>  (4) 
-6.965

$$$$
=
     RDKit          3D

 47 47  0  0  0  0  0  0  0  0999 V2000
    1.1140   63.4000   73.1200 C   0  0  0  0  0  0  0  0  0  0  0  0
    1.8610   62.6070   74.0050 C   0  0  0  0  0  0  0  0  0  0  0  0
    2.8360   61.7240   73.5300 C   0  0  0  0  0  0  0  0  0  0  0  0
    3.0570   61.6170   72.1600 C   0  0  0  0  0  0  0  0  0  0  0  0
    2.3330   62.4020   71.2620 C   0  0  0  0  0  0  0  0  0  0  0  0
    1.3630   63.3040   71.7330 C   0  0  0  0  0  0  0  0  0  0  0  0
    0.6690   64.1200   70.6870 C   0  0  0  0  0  0  0  0  0  0  0  0
   -0.1010   63.5980   69.8830 O   0  0  0  0  0  0  0  0  0  0  0  0
    0.9490   65.4630   70.6070 N   0  0  0  0  0  0  0  0  0  0  0  0
    0.2120   66.3940   69.7630 C   0  0  0  0  0  0  0  0  0  0  0  0
    1.0930   67.2250   68.8020 C   0  0  0  0  0  0  0  0  0  0  0  0
    0.5850   67.1920   67.3660 N   0  0  0  0  0  4  0  0  0  0  0  0
    1.4460   68.0040   66.4290 C   0  0  0  0  0  0  0  0  0  0  0  0
    2.2180   69.0800   67.1690 C   0  0  0  0  0  0  0  0  0  0  0  0
   -0.9090   67.3590   67.2280 C   0  0  0  0  0  0  0  0  0  0  0  0
   -1.2910   68.4540   66.2470 C   0  0  0  0  0  0  0  0  0  0  0  0
    4.3440   60.5440   71.5590 S   0  0  0  0  0  6  0  0  0  0  0  0
    5.5370   61.3570   71.4130 O   0  0  0  0  0  0  0  0  0  0  0  0
    4.3390   59.3710   72.4080 O   0  0  0  0  0  0  0  0  0  0  0  0
    3.7840   60.0790   69.9410 C   0  0  0  0  0  0  0  0  0  0  0  0
    0.0340   64.5410   74.9290 C   0  0  0  0  0  0  0  0  0  0  0  0
    0.1450   64.2830   73.5300 O   0  0  0  0  0  0  0  0  0  0  0  0
    1.6770   62.6810   75.0870 H   0  0  0  0  0  0  0  0  0  0  0  0
    3.4244   61.1180   74.2346 H   0  0  0  0  0  0  0  0  0  0  0  0
    2.5218   62.3148   70.1818 H   0  0  0  0  0  0  0  0  0  0  0  0
    1.7240   65.8324   71.1761 H   0  0  0  0  0  0  0  0  0  0  0  0
   -0.5045   65.8172   69.1598 H   0  0  0  0  0  0  0  0  0  0  0  0
   -0.2745   67.1116   70.4401 H   0  0  0  0  0  0  0  0  0  0  0  0
    1.1040   68.2691   69.1480 H   0  0  0  0  0  0  0  0  0  0  0  0
    2.1011   66.7849   68.8092 H   0  0  0  0  0  0  0  0  0  0  0  0
    0.7089   66.2250   67.0336 H   0  0  0  0  0  0  0  0  0  0  0  0
    2.1598   67.3330   65.9287 H   0  0  0  0  0  0  0  0  0  0  0  0
    0.7882   68.4952   65.6969 H   0  0  0  0  0  0  0  0  0  0  0  0
    2.1097   68.9290   68.2532 H   0  0  0  0  0  0  0  0  0  0  0  0
    3.2818   69.0220   66.8952 H   0  0  0  0  0  0  0  0  0  0  0  0
    1.8223   70.0692   66.8952 H   0  0  0  0  0  0  0  0  0  0  0  0
   -1.3380   66.4084   66.8782 H   0  0  0  0  0  0  0  0  0  0  0  0
   -1.3026   67.6460   68.2143 H   0  0  0  0  0  0  0  0  0  0  0  0
   -1.6038   69.3507   66.8020 H   0  0  0  0  0  0  0  0  0  0  0  0
   -0.4249   68.6980   65.6143 H   0  0  0  0  0  0  0  0  0  0  0  0
   -2.1209   68.1063   65.6143 H   0  0  0  0  0  0  0  0  0  0  0  0
    2.9406   59.3787   70.0321 H   0  0  0  0  0  0  0  0  0  0  0  0
    3.4583   60.9760   69.3939 H   0  0  0  0  0  0  0  0  0  0  0  0
    4.6059   59.5940   69.3939 H   0  0  0  0  0  0  0  0  0  0  0  0
    0.4073   63.6733   75.4926 H   0  0  0  0  0  0  0  0  0  0  0  0
    0.6296   65.4293   75.1864 H   0  0  0  0  0  0  0  0  0  0  0  0
   -1.0205   64.7194   75.1864 H   0  0  0  0  0  0  0  0  0  0  0  0
  2  1  2  0
  3  2  1  0
  4  3  2  0
  5  4  1  0
  6  5  2  0
  6  1  1  0
  7  6  1  0
  8  7  2  0
  9  7  1  0
 10  9  1  0
 11 10  1  0
 12 11  1  0
 13 12  1  0
 14 13  1  0
 15 12  1  0
 16 15  1  0
 17  4  1  0
 18 17  2  0
 19 17  2  0
 20 17  1  0
 22 21  1  0
 22  1  1  0
  2 23  1  0
  3 24  1  0
  5 25  1  0
  9 26  1  0
 10 27  1  0
 10 28  1  0
 11 29  1  0
 11 30  1  0
 12 31  1  0
 13 32  1  0
 13 33  1  0
 14 34  1  0
 14 35  1  0
 14 36  1  0
 15 37  1  0
 15 38  1  0
 16 39  1  0
 16 40  1  0
 16 41  1  0
 20 42  1  0
 20 43  1  0
 20 44  1  0
 21 45  1  0
 21 46  1  0
 21 47  1  0
M  CHG  1  12   1
M  END
>  <score>  (5) 
-6.875

$$$$
=
     RDKit          3D

 47 47  0  0  0  0  0  0  0  0999 V2000
    2.9230   62.2250   69.6720 C   0  0  0  0  0  0  0  0  0  0  0  0
    3.5400   60.9810   69.4670 C   0  0  0  0  0  0  0  0  0  0  0  0
    3.3780   59.9380   70.3840 C   0  0  0  0  0  0  0  0  0  0  0  0
    2.6070   60.1410   71.5250 C   0  0  0  0  0  0  0  0  0  0  0  0
    1.9760   61.3660   71.7460 C   0  0  0  0  0  0  0  0  0  0  0  0
    2.1210   62.4130   70.8190 C   0  0  0  0  0  0  0  0  0  0  0  0
    1.3760   63.6720   71.1360 C   0  0  0  0  0  0  0  0  0  0  0  0
    1.1250   63.9860   72.2990 O   0  0  0  0  0  0  0  0  0  0  0  0
    0.9250   64.4510   70.0960 N   0  0  0  0  0  0  0  0  0  0  0  0
    0.3530   65.7790   70.2680 C   0  0  0  0  0  0  0  0  0  0  0  0
    0.9890   66.8720   69.3790 C   0  0  0  0  0  0  0  0  0  0  0  0
    0.3480   66.9500   67.9990 N   0  0  0  0  0  4  0  0  0  0  0  0
    0.9790   68.0090   67.1270 C   0  0  0  0  0  0  0  0  0  0  0  0
    1.7580   69.0190   67.9490 C   0  0  0  0  0  0  0  0  0  0  0  0
   -1.1610   66.8920   68.0080 C   0  0  0  0  0  0  0  0  0  0  0  0
   -1.7950   67.9020   67.0670 C   0  0  0  0  0  0  0  0  0  0  0  0
    2.3440   58.7950   72.6590 S   0  0  0  0  0  6  0  0  0  0  0  0
    3.4450   58.8190   73.6050 O   0  0  0  0  0  0  0  0  0  0  0  0
    0.9710   58.8910   73.1100 O   0  0  0  0  0  0  0  0  0  0  0  0
    2.5130   57.3500   71.6450 C   0  0  0  0  0  0  0  0  0  0  0  0
    3.7910   63.0720   67.6050 C   0  0  0  0  0  0  0  0  0  0  0  0
    3.0470   63.2830   68.8040 O   0  0  0  0  0  0  0  0  0  0  0  0
    4.1600   60.8244   68.5719 H   0  0  0  0  0  0  0  0  0  0  0  0
    3.8565   58.9638   70.2050 H   0  0  0  0  0  0  0  0  0  0  0  0
    1.3636   61.5128   72.6479 H   0  0  0  0  0  0  0  0  0  0  0  0
    0.9960   64.0732   69.1404 H   0  0  0  0  0  0  0  0  0  0  0  0
   -0.7196   65.7243   70.0304 H   0  0  0  0  0  0  0  0  0  0  0  0
    0.5489   66.0709   71.3103 H   0  0  0  0  0  0  0  0  0  0  0  0
    0.8708   67.8451   69.8780 H   0  0  0  0  0  0  0  0  0  0  0  0
    2.0492   66.6138   69.2402 H   0  0  0  0  0  0  0  0  0  0  0  0
    0.5793   66.0692   67.5178 H   0  0  0  0  0  0  0  0  0  0  0  0
    1.6635   67.5241   66.4154 H   0  0  0  0  0  0  0  0  0  0  0  0
    0.1755   68.5426   66.5982 H   0  0  0  0  0  0  0  0  0  0  0  0
    1.6031   68.8182   69.0194 H   0  0  0  0  0  0  0  0  0  0  0  0
    2.8290   68.9370   67.7118 H   0  0  0  0  0  0  0  0  0  0  0  0
    1.4066   70.0340   67.7118 H   0  0  0  0  0  0  0  0  0  0  0  0
   -1.4757   65.8828   67.7040 H   0  0  0  0  0  0  0  0  0  0  0  0
   -1.4955   67.1342   69.0276 H   0  0  0  0  0  0  0  0  0  0  0  0
   -2.2896   68.6899   67.6540 H   0  0  0  0  0  0  0  0  0  0  0  0
   -1.0166   68.3512   66.4328 H   0  0  0  0  0  0  0  0  0  0  0  0
   -2.5379   67.3962   66.4328 H   0  0  0  0  0  0  0  0  0  0  0  0
    2.6168   56.4622   72.2862 H   0  0  0  0  0  0  0  0  0  0  0  0
    1.6214   57.2414   71.0099 H   0  0  0  0  0  0  0  0  0  0  0  0
    3.4056   57.4501   71.0099 H   0  0  0  0  0  0  0  0  0  0  0  0
    4.8207   62.7800   67.8590 H   0  0  0  0  0  0  0  0  0  0  0  0
    3.3179   62.2726   67.0158 H   0  0  0  0  0  0  0  0  0  0  0  0
    3.8080   64.0007   67.0158 H   0  0  0  0  0  0  0  0  0  0  0  0
  2  1  2  0
  3  2  1  0
  4  3  2  0
  5  4  1  0
  6  5  2  0
  6  1  1  0
  7  6  1  0
  8  7  2  0
  9  7  1  0
 10  9  1  0
 11 10  1  0
 12 11  1  0
 13 12  1  0
 14 13  1  0
 15 12  1  0
 16 15  1  0
 17  4  1  0
 18 17  2  0
 19 17  2  0
 20 17  1  0
 22 21  1  0
 22  1  1  0
  2 23  1  0
  3 24  1  0
  5 25  1  0
  9 26  1  0
 10 27  1  0
 10 28  1  0
 11 29  1  0
 11 30  1  0
 12 31  1  0
 13 32  1  0
 13 33  1  0
 14 34  1  0
 14 35  1  0
 14 36  1  0
 15 37  1  0
 15 38  1  0
 16 39  1  0
 16 40  1  0
 16 41  1  0
 20 42  1  0
 20 43  1  0
 20 44  1  0
 21 45  1  0
 21 46  1  0
 21 47  1  0
M  CHG  1  12   1
M  END
>  <score>  (6) 
-6.736

$$$$
=
     RDKit          3D

 47 47  0  0  0  0  0  0  0  0999 V2000
    1.6460   69.5010   67.6760 C   0  0  0  0  0  0  0  0  0  0  0  0
    2.0360   70.2820   68.7750 C   0  0  0  0  0  0  0  0  0  0  0  0
    3.3770   70.6270   68.9710 C   0  0  0  0  0  0  0  0  0  0  0  0
    4.3410   70.1760   68.0740 C   0  0  0  0  0  0  0  0  0  0  0  0
    3.9760   69.4060   66.9690 C   0  0  0  0  0  0  0  0  0  0  0  0
    2.6270   69.0700   66.7560 C   0  0  0  0  0  0  0  0  0  0  0  0
    2.3420   68.2690   65.5240 C   0  0  0  0  0  0  0  0  0  0  0  0
    1.8750   68.7980   64.5160 O   0  0  0  0  0  0  0  0  0  0  0  0
    2.5610   66.9120   65.5560 N   0  0  0  0  0  0  0  0  0  0  0  0
    2.4990   66.0540   64.3790 C   0  0  0  0  0  0  0  0  0  0  0  0
    3.7750   66.0660   63.5080 C   0  0  0  0  0  0  0  0  0  0  0  0
    4.1710   67.4710   63.0690 N   0  0  0  0  0  4  0  0  0  0  0  0
    4.0340   67.6710   61.5790 C   0  0  0  0  0  0  0  0  0  0  0  0
    3.0100   68.7410   61.2490 C   0  0  0  0  0  0  0  0  0  0  0  0
    5.4350   67.9920   63.7080 C   0  0  0  0  0  0  0  0  0  0  0  0
    5.5430   69.5060   63.6520 C   0  0  0  0  0  0  0  0  0  0  0  0
    6.0380   70.6690   68.2850 S   0  0  0  0  0  6  0  0  0  0  0  0
    6.3590   70.4880   69.6890 O   0  0  0  0  0  0  0  0  0  0  0  0
    6.8000   69.9970   67.2530 O   0  0  0  0  0  0  0  0  0  0  0  0
    6.0180   72.4080   67.9380 C   0  0  0  0  0  0  0  0  0  0  0  0
   -0.1080   67.8990   67.9870 C   0  0  0  0  0  0  0  0  0  0  0  0
    0.3450   69.1330   67.4330 O   0  0  0  0  0  0  0  0  0  0  0  0
    1.2766   70.6274   69.4919 H   0  0  0  0  0  0  0  0  0  0  0  0
    3.6682   71.2510   69.8288 H   0  0  0  0  0  0  0  0  0  0  0  0
    4.7454   69.0609   66.2626 H   0  0  0  0  0  0  0  0  0  0  0  0
    2.7814   66.4769   66.4632 H   0  0  0  0  0  0  0  0  0  0  0  0
    2.3227   65.0217   64.7155 H   0  0  0  0  0  0  0  0  0  0  0  0
    1.6871   66.4463   63.7490 H   0  0  0  0  0  0  0  0  0  0  0  0
    4.6022   65.6319   64.0888 H   0  0  0  0  0  0  0  0  0  0  0  0
    3.5652   65.4800   62.6011 H   0  0  0  0  0  0  0  0  0  0  0  0
    3.4688   68.1112   63.4664 H   0  0  0  0  0  0  0  0  0  0  0  0
    5.0091   67.9719   61.1684 H   0  0  0  0  0  0  0  0  0  0  0  0
    3.6953   66.7232   61.1352 H   0  0  0  0  0  0  0  0  0  0  0  0
    2.6066   69.1625   62.1815 H   0  0  0  0  0  0  0  0  0  0  0  0
    3.4894   69.5391   60.6631 H   0  0  0  0  0  0  0  0  0  0  0  0
    2.1916   68.2971   60.6631 H   0  0  0  0  0  0  0  0  0  0  0  0
    5.4513   67.6774   64.7619 H   0  0  0  0  0  0  0  0  0  0  0  0
    6.2849   67.5787   63.1451 H   0  0  0  0  0  0  0  0  0  0  0  0
    5.5718   69.9096   64.6749 H   0  0  0  0  0  0  0  0  0  0  0  0
    6.4636   69.7885   63.1203 H   0  0  0  0  0  0  0  0  0  0  0  0
    4.6718   69.9163   63.1203 H   0  0  0  0  0  0  0  0  0  0  0  0
    6.0115   72.9705   68.8833 H   0  0  0  0  0  0  0  0  0  0  0  0
    6.9131   72.6764   67.3577 H   0  0  0  0  0  0  0  0  0  0  0  0
    5.1169   72.6558   67.3577 H   0  0  0  0  0  0  0  0  0  0  0  0
   -0.0856   67.9599   69.0851 H   0  0  0  0  0  0  0  0  0  0  0  0
   -1.1370   67.7023   67.6516 H   0  0  0  0  0  0  0  0  0  0  0  0
    0.5493   67.0832   67.6516 H   0  0  0  0  0  0  0  0  0  0  0  0
  2  1  2  0
  3  2  1  0
  4  3  2  0
  5  4  1  0
  6  5  2  0
  6  1  1  0
  7  6  1  0
  8  7  2  0
  9  7  1  0
 10  9  1  0
 11 10  1  0
 12 11  1  0
 13 12  1  0
 14 13  1  0
 15 12  1  0
 16 15  1  0
 17  4  1  0
 18 17  2  0
 19 17  2  0
 20 17  1  0
 22 21  1  0
 22  1  1  0
  2 23  1  0
  3 24  1  0
  5 25  1  0
  9 26  1  0
 10 27  1  0
 10 28  1  0
 11 29  1  0
 11 30  1  0
 12 31  1  0
 13 32  1  0
 13 33  1  0
 14 34  1  0
 14 35  1  0
 14 36  1  0
 15 37  1  0
 15 38  1  0
 16 39  1  0
 16 40  1  0
 16 41  1  0
 20 42  1  0
 20 43  1  0
 20 44  1  0
 21 45  1  0
 21 46  1  0
 21 47  1  0
M  CHG  1  12   1
M  END
>  <score>  (7) 
-6.611

$$$$
=
     RDKit          3D

 47 47  0  0  0  0  0  0  0  0999 V2000
    1.9580   62.8420   70.9580 C   0  0  0  0  0  0  0  0  0  0  0  0
    2.0520   61.5110   71.3910 C   0  0  0  0  0  0  0  0  0  0  0  0
    1.1150   60.9770   72.2820 C   0  0  0  0  0  0  0  0  0  0  0  0
    0.0830   61.7820   72.7580 C   0  0  0  0  0  0  0  0  0  0  0  0
   -0.0360   63.1050   72.3340 C   0  0  0  0  0  0  0  0  0  0  0  0
    0.8930   63.6440   71.4260 C   0  0  0  0  0  0  0  0  0  0  0  0
    0.6540   65.0630   71.0120 C   0  0  0  0  0  0  0  0  0  0  0  0
   -0.1070   65.7900   71.6490 O   0  0  0  0  0  0  0  0  0  0  0  0
    1.2610   65.5270   69.8690 N   0  0  0  0  0  0  0  0  0  0  0  0
    1.2570   66.9250   69.4620 C   0  0  0  0  0  0  0  0  0  0  0  0
    0.2450   67.2650   68.3430 C   0  0  0  0  0  0  0  0  0  0  0  0
    0.2900   68.7340   67.9410 N   0  0  0  0  0  4  0  0  0  0  0  0
   -0.8120   69.1030   66.9780 C   0  0  0  0  0  0  0  0  0  0  0  0
   -1.7770   67.9520   66.7630 C   0  0  0  0  0  0  0  0  0  0  0  0
    1.6720   69.2510   67.6180 C   0  0  0  0  0  0  0  0  0  0  0  0
    2.1850   68.7610   66.2750 C   0  0  0  0  0  0  0  0  0  0  0  0
   -1.1480   61.0850   73.8370 S   0  0  0  0  0  6  0  0  0  0  0  0
   -0.8770   61.5920   75.1700 O   0  0  0  0  0  0  0  0  0  0  0  0
   -2.4320   61.3040   73.2020 O   0  0  0  0  0  0  0  0  0  0  0  0
   -0.7910   59.3480   73.8190 C   0  0  0  0  0  0  0  0  0  0  0  0
    3.3280   62.6190   69.0050 C   0  0  0  0  0  0  0  0  0  0  0  0
    2.8490   63.4180   70.0860 O   0  0  0  0  0  0  0  0  0  0  0  0
    2.8740   60.8784   71.0248 H   0  0  0  0  0  0  0  0  0  0  0  0
    1.1928   59.9282   72.6045 H   0  0  0  0  0  0  0  0  0  0  0  0
   -0.8594   63.7294   72.7110 H   0  0  0  0  0  0  0  0  0  0  0  0
    1.7461   64.8470   69.2664 H   0  0  0  0  0  0  0  0  0  0  0  0
    1.0145   67.5383   70.3424 H   0  0  0  0  0  0  0  0  0  0  0  0
    2.2566   67.1345   69.0536 H   0  0  0  0  0  0  0  0  0  0  0  0
    0.4758   66.6506   67.4602 H   0  0  0  0  0  0  0  0  0  0  0  0
   -0.7632   67.0554   68.7297 H   0  0  0  0  0  0  0  0  0  0  0  0
    0.0666   69.2770   68.7872 H   0  0  0  0  0  0  0  0  0  0  0  0
   -1.3665   69.9624   67.3829 H   0  0  0  0  0  0  0  0  0  0  0  0
   -0.3528   69.3514   66.0098 H   0  0  0  0  0  0  0  0  0  0  0  0
   -2.1046   67.5612   67.7377 H   0  0  0  0  0  0  0  0  0  0  0  0
   -2.6512   68.3072   66.1977 H   0  0  0  0  0  0  0  0  0  0  0  0
   -1.2747   67.1531   66.1977 H   0  0  0  0  0  0  0  0  0  0  0  0
    1.6411   70.3505   67.6025 H   0  0  0  0  0  0  0  0  0  0  0  0
    2.3562   68.8727   68.3918 H   0  0  0  0  0  0  0  0  0  0  0  0
    2.9720   68.0093   66.4352 H   0  0  0  0  0  0  0  0  0  0  0  0
    1.3569   68.3099   65.7086 H   0  0  0  0  0  0  0  0  0  0  0  0
    2.5976   69.6089   65.7086 H   0  0  0  0  0  0  0  0  0  0  0  0
   -0.7151   58.9786   74.8523 H   0  0  0  0  0  0  0  0  0  0  0  0
   -1.5980   58.8132   73.2968 H   0  0  0  0  0  0  0  0  0  0  0  0
    0.1615   59.1748   73.2968 H   0  0  0  0  0  0  0  0  0  0  0  0
    3.8550   61.7399   69.4043 H   0  0  0  0  0  0  0  0  0  0  0  0
    2.4788   62.2888   68.3887 H   0  0  0  0  0  0  0  0  0  0  0  0
    4.0194   63.2124   68.3887 H   0  0  0  0  0  0  0  0  0  0  0  0
  2  1  2  0
  3  2  1  0
  4  3  2  0
  5  4  1  0
  6  5  2  0
  6  1  1  0
  7  6  1  0
  8  7  2  0
  9  7  1  0
 10  9  1  0
 11 10  1  0
 12 11  1  0
 13 12  1  0
 14 13  1  0
 15 12  1  0
 16 15  1  0
 17  4  1  0
 18 17  2  0
 19 17  2  0
 20 17  1  0
 22 21  1  0
 22  1  1  0
  2 23  1  0
  3 24  1  0
  5 25  1  0
  9 26  1  0
 10 27  1  0
 10 28  1  0
 11 29  1  0
 11 30  1  0
 12 31  1  0
 13 32  1  0
 13 33  1  0
 14 34  1  0
 14 35  1  0
 14 36  1  0
 15 37  1  0
 15 38  1  0
 16 39  1  0
 16 40  1  0
 16 41  1  0
 20 42  1  0
 20 43  1  0
 20 44  1  0
 21 45  1  0
 21 46  1  0
 21 47  1  0
M  CHG  1  12   1
M  END
>  <score>  (8) 
-6.463

$$$$
=
     RDKit          3D

 47 47  0  0  0  0  0  0  0  0999 V2000
    1.7370   64.0930   70.8960 C   0  0  0  0  0  0  0  0  0  0  0  0
    2.7830   63.9870   69.9670 C   0  0  0  0  0  0  0  0  0  0  0  0
    3.5620   62.8270   69.8910 C   0  0  0  0  0  0  0  0  0  0  0  0
    3.3050   61.7690   70.7590 C   0  0  0  0  0  0  0  0  0  0  0  0
    2.2640   61.8480   71.6840 C   0  0  0  0  0  0  0  0  0  0  0  0
    1.4670   63.0040   71.7550 C   0  0  0  0  0  0  0  0  0  0  0  0
    0.3570   62.9710   72.7600 C   0  0  0  0  0  0  0  0  0  0  0  0
   -0.7340   62.4740   72.4850 O   0  0  0  0  0  0  0  0  0  0  0  0
    0.5630   63.5570   73.9860 N   0  0  0  0  0  0  0  0  0  0  0  0
   -0.3610   63.4340   75.1070 C   0  0  0  0  0  0  0  0  0  0  0  0
   -0.2560   62.1000   75.8810 C   0  0  0  0  0  0  0  0  0  0  0  0
   -0.9590   60.9520   75.1660 N   0  0  0  0  0  4  0  0  0  0  0  0
   -2.4030   60.8100   75.5820 C   0  0  0  0  0  0  0  0  0  0  0  0
   -3.3300   60.7680   74.3820 C   0  0  0  0  0  0  0  0  0  0  0  0
   -0.1500   59.6800   75.0830 C   0  0  0  0  0  0  0  0  0  0  0  0
    0.0680   59.2130   73.6550 C   0  0  0  0  0  0  0  0  0  0  0  0
    4.2500   60.2680   70.6170 S   0  0  0  0  0  6  0  0  0  0  0  0
    4.0200   59.7480   69.2820 O   0  0  0  0  0  0  0  0  0  0  0  0
    5.5890   60.5730   71.0780 O   0  0  0  0  0  0  0  0  0  0  0  0
    3.4810   59.1740   71.7820 C   0  0  0  0  0  0  0  0  0  0  0  0
    1.1450   66.2680   70.0840 C   0  0  0  0  0  0  0  0  0  0  0  0
    0.9410   65.2060   71.0150 O   0  0  0  0  0  0  0  0  0  0  0  0
    2.9936   64.8273   69.2891 H   0  0  0  0  0  0  0  0  0  0  0  0
    4.3719   62.7515   69.1505 H   0  0  0  0  0  0  0  0  0  0  0  0
    2.0660   61.0032   72.3601 H   0  0  0  0  0  0  0  0  0  0  0  0
    1.4185   64.1146   74.1204 H   0  0  0  0  0  0  0  0  0  0  0  0
   -0.1597   64.2558   75.8099 H   0  0  0  0  0  0  0  0  0  0  0  0
   -1.3749   63.4701   74.6820 H   0  0  0  0  0  0  0  0  0  0  0  0
    0.8072   61.8436   75.9989 H   0  0  0  0  0  0  0  0  0  0  0  0
   -0.7495   62.2391   76.8542 H   0  0  0  0  0  0  0  0  0  0  0  0
   -1.0172   61.2163   74.1722 H   0  0  0  0  0  0  0  0  0  0  0  0
   -2.5191   59.8783   76.1552 H   0  0  0  0  0  0  0  0  0  0  0  0
   -2.6718   61.6842   76.1931 H   0  0  0  0  0  0  0  0  0  0  0  0
   -4.3736   60.7207   74.7264 H   0  0  0  0  0  0  0  0  0  0  0  0
   -3.1849   61.6736   73.7747 H   0  0  0  0  0  0  0  0  0  0  0  0
   -3.1036   59.8792   73.7747 H   0  0  0  0  0  0  0  0  0  0  0  0
    0.8309   59.8564   75.5486 H   0  0  0  0  0  0  0  0  0  0  0  0
   -0.7147   58.8939   75.6057 H   0  0  0  0  0  0  0  0  0  0  0  0
    0.5333   58.2163   73.6622 H   0  0  0  0  0  0  0  0  0  0  0  0
   -0.8995   59.1623   73.1341 H   0  0  0  0  0  0  0  0  0  0  0  0
    0.7282   59.9221   73.1341 H   0  0  0  0  0  0  0  0  0  0  0  0
    3.7138   59.5052   72.8048 H   0  0  0  0  0  0  0  0  0  0  0  0
    2.3914   59.1856   71.6319 H   0  0  0  0  0  0  0  0  0  0  0  0
    3.8609   58.1527   71.6319 H   0  0  0  0  0  0  0  0  0  0  0  0
    1.3251   67.2054   70.6307 H   0  0  0  0  0  0  0  0  0  0  0  0
    2.0156   66.0392   69.4518 H   0  0  0  0  0  0  0  0  0  0  0  0
    0.2516   66.3781   69.4518 H   0  0  0  0  0  0  0  0  0  0  0  0
  2  1  2  0
  3  2  1  0
  4  3  2  0
  5  4  1  0
  6  5  2  0
  6  1  1  0
  7  6  1  0
  8  7  2  0
  9  7  1  0
 10  9  1  0
 11 10  1  0
 12 11  1  0
 13 12  1  0
 14 13  1  0
 15 12  1  0
 16 15  1  0
 17  4  1  0
 18 17  2  0
 19 17  2  0
 20 17  1  0
 22 21  1  0
 22  1  1  0
  2 23  1  0
  3 24  1  0
  5 25  1  0
  9 26  1  0
 10 27  1  0
 10 28  1  0
 11 29  1  0
 11 30  1  0
 12 31  1  0
 13 32  1  0
 13 33  1  0
 14 34  1  0
 14 35  1  0
 14 36  1  0
 15 37  1  0
 15 38  1  0
 16 39  1  0
 16 40  1  0
 16 41  1  0
 20 42  1  0
 20 43  1  0
 20 44  1  0
 21 45  1  0
 21 46  1  0
 21 47  1  0
M  CHG  1  12   1
M  END
>  <score>  (9) 
-6.08

$$$$
