=
     RDKit          3D

 41 42  0  0  0  0  0  0  0  0999 V2000
    1.9060   67.7060   66.2540 C   0  0  0  0  0  0  0  0  0  0  0  0
    2.1360   66.5500   65.8990 O   0  0  0  0  0  0  0  0  0  0  0  0
    2.3700   68.8610   65.6600 N   0  0  0  0  0  0  0  0  0  0  0  0
   -0.4880   66.5660   69.0190 C   0  0  0  0  0  0  0  0  0  0  0  0
   -0.0620   66.9150   67.6280 N   0  0  1  0  0  4  0  0  0  0  0  0
   -1.2130   67.2130   66.6890 C   0  0  0  0  0  0  0  0  0  0  0  0
   -1.2330   68.6620   66.2290 C   0  0  0  0  0  0  0  0  0  0  0  0
   -0.8160   69.6120   67.3360 C   0  0  0  0  0  0  0  0  0  0  0  0
    0.6090   69.3400   67.8130 C   0  0  0  0  0  0  0  0  0  0  0  0
    1.1070   67.9130   67.5680 C   0  0  2  0  0  0  0  0  0  0  0  0
    3.1360   68.9270   64.4650 C   0  0  0  0  0  0  0  0  0  0  0  0
    2.6000   68.6850   63.1810 C   0  0  0  0  0  0  0  0  0  0  0  0
    1.1450   68.4390   62.8890 C   0  0  0  0  0  0  0  0  0  0  0  0
    3.4550   68.7180   62.0630 C   0  0  0  0  0  0  0  0  0  0  0  0
    4.7980   69.0520   62.1920 C   0  0  0  0  0  0  0  0  0  0  0  0
    5.3120   69.3640   63.4430 C   0  0  0  0  0  0  0  0  0  0  0  0
    4.4970   69.3120   64.5860 C   0  0  0  0  0  0  0  0  0  0  0  0
    5.1380   69.6430   65.9100 C   0  0  0  0  0  0  0  0  0  0  0  0
    2.1416   69.7526   66.1224 H   0  0  0  0  0  0  0  0  0  0  0  0
    0.1535   67.0916   69.7417 H   0  0  0  0  0  0  0  0  0  0  0  0
   -1.5345   66.8697   69.1690 H   0  0  0  0  0  0  0  0  0  0  0  0
   -0.3962   65.4802   69.1690 H   0  0  0  0  0  0  0  0  0  0  0  0
    0.3408   66.0482   67.2443 H   0  0  0  0  0  0  0  0  0  0  0  0
   -1.1236   66.5641   65.8053 H   0  0  0  0  0  0  0  0  0  0  0  0
   -2.1476   67.0251   67.2378 H   0  0  0  0  0  0  0  0  0  0  0  0
   -0.5400   68.7761   65.3824 H   0  0  0  0  0  0  0  0  0  0  0  0
   -2.2628   68.9123   65.9344 H   0  0  0  0  0  0  0  0  0  0  0  0
   -0.8742   70.6440   66.9597 H   0  0  0  0  0  0  0  0  0  0  0  0
   -1.4953   69.4618   68.1881 H   0  0  0  0  0  0  0  0  0  0  0  0
    1.2835   70.0326   67.2883 H   0  0  0  0  0  0  0  0  0  0  0  0
    0.6029   69.4827   68.9037 H   0  0  0  0  0  0  0  0  0  0  0  0
    1.8232   67.7249   68.3815 H   0  0  0  0  0  0  0  0  0  0  0  0
    0.5918   68.3455   63.8352 H   0  0  0  0  0  0  0  0  0  0  0  0
    0.7399   69.2814   62.3091 H   0  0  0  0  0  0  0  0  0  0  0  0
    1.0393   67.5102   62.3091 H   0  0  0  0  0  0  0  0  0  0  0  0
    3.0526   68.4748   61.0686 H   0  0  0  0  0  0  0  0  0  0  0  0
    5.4506   69.0690   61.3067 H   0  0  0  0  0  0  0  0  0  0  0  0
    6.3683   69.6550   63.5404 H   0  0  0  0  0  0  0  0  0  0  0  0
    4.4847   69.3057   66.7282 H   0  0  0  0  0  0  0  0  0  0  0  0
    6.1105   69.1344   65.9839 H   0  0  0  0  0  0  0  0  0  0  0  0
    5.2864   70.7304   65.9839 H   0  0  0  0  0  0  0  0  0  0  0  0
  2  1  2  0
  3  1  1  0
  5  4  1  0
  6  5  1  0
  7  6  1  0
  8  7  1  0
  9  8  1  0
 10  9  1  0
 10  5  1  0
 10  1  1  0
 11  3  1  0
 12 11  2  0
 13 12  1  0
 14 12  1  0
 15 14  2  0
 16 15  1  0
 17 16  2  0
 17 11  1  0
 18 17  1  0
  3 19  1  0
  4 20  1  0
  4 21  1  0
  4 22  1  0
  5 23  1  6
  6 24  1  0
  6 25  1  0
  7 26  1  0
  7 27  1  0
  8 28  1  0
  8 29  1  0
  9 30  1  0
  9 31  1  0
 10 32  1  1
 13 33  1  0
 13 34  1  0
 13 35  1  0
 14 36  1  0
 15 37  1  0
 16 38  1  0
 18 39  1  0
 18 40  1  0
 18 41  1  0
M  CHG  1   5   1
M  END
>  <score>  (1) 
-9.288

$$$$
=
     RDKit          3D

 41 42  0  0  0  0  0  0  0  0999 V2000
    1.8140   67.6380   66.0720 C   0  0  0  0  0  0  0  0  0  0  0  0
    2.0780   66.4760   65.7600 O   0  0  0  0  0  0  0  0  0  0  0  0
    2.1100   68.7750   65.3480 N   0  0  0  0  0  0  0  0  0  0  0  0
   -0.1960   66.5800   69.1570 C   0  0  0  0  0  0  0  0  0  0  0  0
    0.0470   66.8800   67.7120 N   0  0  1  0  0  4  0  0  0  0  0  0
   -1.2170   67.1290   66.9150 C   0  0  0  0  0  0  0  0  0  0  0  0
   -1.3170   68.5590   66.4080 C   0  0  0  0  0  0  0  0  0  0  0  0
   -0.7800   69.5560   67.4160 C   0  0  0  0  0  0  0  0  0  0  0  0
    0.6980   69.3170   67.7200 C   0  0  0  0  0  0  0  0  0  0  0  0
    1.1840   67.8870   67.4670 C   0  0  2  0  0  0  0  0  0  0  0  0
    2.7040   68.8040   64.0570 C   0  0  0  0  0  0  0  0  0  0  0  0
    4.0980   68.8770   63.8420 C   0  0  0  0  0  0  0  0  0  0  0  0
    5.1400   68.8200   64.9250 C   0  0  0  0  0  0  0  0  0  0  0  0
    4.5840   68.9580   62.5220 C   0  0  0  0  0  0  0  0  0  0  0  0
    3.7250   68.8990   61.4320 C   0  0  0  0  0  0  0  0  0  0  0  0
    2.3600   68.7520   61.6390 C   0  0  0  0  0  0  0  0  0  0  0  0
    1.8340   68.6980   62.9410 C   0  0  0  0  0  0  0  0  0  0  0  0
    0.3390   68.5610   63.0790 C   0  0  0  0  0  0  0  0  0  0  0  0
    1.8806   69.6811   65.7807 H   0  0  0  0  0  0  0  0  0  0  0  0
    0.3751   67.2850   69.7789 H   0  0  0  0  0  0  0  0  0  0  0  0
   -1.2688   66.6825   69.3774 H   0  0  0  0  0  0  0  0  0  0  0  0
    0.1270   65.5519   69.3774 H   0  0  0  0  0  0  0  0  0  0  0  0
    0.4126   66.0032   67.3139 H   0  0  0  0  0  0  0  0  0  0  0  0
   -1.2289   66.4475   66.0516 H   0  0  0  0  0  0  0  0  0  0  0  0
   -2.0724   66.9522   67.5836 H   0  0  0  0  0  0  0  0  0  0  0  0
   -0.7375   68.6475   65.4772 H   0  0  0  0  0  0  0  0  0  0  0  0
   -2.3796   68.7862   66.2372 H   0  0  0  0  0  0  0  0  0  0  0  0
   -0.9003   70.5716   67.0108 H   0  0  0  0  0  0  0  0  0  0  0  0
   -1.3452   69.4336   68.3517 H   0  0  0  0  0  0  0  0  0  0  0  0
    1.2909   69.9962   67.0898 H   0  0  0  0  0  0  0  0  0  0  0  0
    0.8257   69.5008   68.7970 H   0  0  0  0  0  0  0  0  0  0  0  0
    2.0003   67.7380   68.1891 H   0  0  0  0  0  0  0  0  0  0  0  0
    4.6483   68.8469   65.9086 H   0  0  0  0  0  0  0  0  0  0  0  0
    5.7178   67.8889   64.8292 H   0  0  0  0  0  0  0  0  0  0  0  0
    5.8159   69.6825   64.8292 H   0  0  0  0  0  0  0  0  0  0  0  0
    5.6649   69.0702   62.3513 H   0  0  0  0  0  0  0  0  0  0  0  0
    4.1244   68.9684   60.4094 H   0  0  0  0  0  0  0  0  0  0  0  0
    1.6833   68.6770   60.7750 H   0  0  0  0  0  0  0  0  0  0  0  0
    0.0699   68.5363   64.1453 H   0  0  0  0  0  0  0  0  0  0  0  0
   -0.1538   69.4177   62.5962 H   0  0  0  0  0  0  0  0  0  0  0  0
    0.0101   67.6290   62.5962 H   0  0  0  0  0  0  0  0  0  0  0  0
  2  1  2  0
  3  1  1  0
  5  4  1  0
  6  5  1  0
  7  6  1  0
  8  7  1  0
  9  8  1  0
 10  9  1  0
 10  5  1  0
 10  1  1  0
 11  3  1  0
 12 11  2  0
 13 12  1  0
 14 12  1  0
 15 14  2  0
 16 15  1  0
 17 16  2  0
 17 11  1  0
 18 17  1  0
  3 19  1  0
  4 20  1  0
  4 21  1  0
  4 22  1  0
  5 23  1  6
  6 24  1  0
  6 25  1  0
  7 26  1  0
  7 27  1  0
  8 28  1  0
  8 29  1  0
  9 30  1  0
  9 31  1  0
 10 32  1  1
 13 33  1  0
 13 34  1  0
 13 35  1  0
 14 36  1  0
 15 37  1  0
 16 38  1  0
 18 39  1  0
 18 40  1  0
 18 41  1  0
M  CHG  1   5   1
M  END
>  <score>  (2) 
-8.898

$$$$
=
     RDKit          3D

 41 42  0  0  0  0  0  0  0  0999 V2000
    2.6490   68.6310   64.8490 C   0  0  0  0  0  0  0  0  0  0  0  0
    1.7580   69.4770   64.7670 O   0  0  0  0  0  0  0  0  0  0  0  0
    3.6120   68.5390   65.8340 N   0  0  0  0  0  0  0  0  0  0  0  0
    4.3230   65.6800   63.0700 C   0  0  0  0  0  0  0  0  0  0  0  0
    4.2250   67.0480   63.6680 N   0  0  1  0  0  4  0  0  0  0  0  0
    5.2990   68.0040   63.1940 C   0  0  0  0  0  0  0  0  0  0  0  0
    4.7370   69.1550   62.3730 C   0  0  0  0  0  0  0  0  0  0  0  0
    3.5920   68.7090   61.4850 C   0  0  0  0  0  0  0  0  0  0  0  0
    2.4220   68.1590   62.2990 C   0  0  0  0  0  0  0  0  0  0  0  0
    2.7980   67.6210   63.6820 C   0  0  2  0  0  0  0  0  0  0  0  0
    3.6960   69.3610   66.9890 C   0  0  0  0  0  0  0  0  0  0  0  0
    2.6730   69.4510   67.9590 C   0  0  0  0  0  0  0  0  0  0  0  0
    1.4200   68.6180   67.9670 C   0  0  0  0  0  0  0  0  0  0  0  0
    2.8280   70.3400   69.0400 C   0  0  0  0  0  0  0  0  0  0  0  0
    3.9950   71.0770   69.2060 C   0  0  0  0  0  0  0  0  0  0  0  0
    5.0330   70.9350   68.2950 C   0  0  0  0  0  0  0  0  0  0  0  0
    4.9040   70.0810   67.1870 C   0  0  0  0  0  0  0  0  0  0  0  0
    6.0680   70.0020   66.2330 C   0  0  0  0  0  0  0  0  0  0  0  0
    4.3319   67.8111   65.7214 H   0  0  0  0  0  0  0  0  0  0  0  0
    4.3766   64.9313   63.8741 H   0  0  0  0  0  0  0  0  0  0  0  0
    3.4364   65.4873   62.4481 H   0  0  0  0  0  0  0  0  0  0  0  0
    5.2281   65.6156   62.4481 H   0  0  0  0  0  0  0  0  0  0  0  0
    4.4422   66.9206   64.6667 H   0  0  0  0  0  0  0  0  0  0  0  0
    5.8155   68.4174   64.0728 H   0  0  0  0  0  0  0  0  0  0  0  0
    5.9867   67.4386   62.5479 H   0  0  0  0  0  0  0  0  0  0  0  0
    4.3733   69.9357   63.0573 H   0  0  0  0  0  0  0  0  0  0  0  0
    5.5408   69.5376   61.7269 H   0  0  0  0  0  0  0  0  0  0  0  0
    3.2423   69.5698   60.8961 H   0  0  0  0  0  0  0  0  0  0  0  0
    3.9605   67.9051   60.8308 H   0  0  0  0  0  0  0  0  0  0  0  0
    1.6892   68.9681   62.4343 H   0  0  0  0  0  0  0  0  0  0  0  0
    2.0253   67.3040   61.7318 H   0  0  0  0  0  0  0  0  0  0  0  0
    2.0614   66.8291   63.8829 H   0  0  0  0  0  0  0  0  0  0  0  0
    1.1193   68.4181   69.0060 H   0  0  0  0  0  0  0  0  0  0  0  0
    0.6151   69.1614   67.4504 H   0  0  0  0  0  0  0  0  0  0  0  0
    1.6096   67.6655   67.4504 H   0  0  0  0  0  0  0  0  0  0  0  0
    2.0102   70.4534   69.7669 H   0  0  0  0  0  0  0  0  0  0  0  0
    4.0955   71.7692   70.0549 H   0  0  0  0  0  0  0  0  0  0  0  0
    5.9668   71.4974   68.4424 H   0  0  0  0  0  0  0  0  0  0  0  0
    7.0062   69.9383   66.8037 H   0  0  0  0  0  0  0  0  0  0  0  0
    5.9629   69.1089   65.5995 H   0  0  0  0  0  0  0  0  0  0  0  0
    6.0845   70.9011   65.5995 H   0  0  0  0  0  0  0  0  0  0  0  0
  2  1  2  0
  3  1  1  0
  5  4  1  0
  6  5  1  0
  7  6  1  0
  8  7  1  0
  9  8  1  0
 10  9  1  0
 10  5  1  0
 10  1  1  0
 11  3  1  0
 12 11  2  0
 13 12  1  0
 14 12  1  0
 15 14  2  0
 16 15  1  0
 17 16  2  0
 17 11  1  0
 18 17  1  0
  3 19  1  0
  4 20  1  0
  4 21  1  0
  4 22  1  0
  5 23  1  1
  6 24  1  0
  6 25  1  0
  7 26  1  0
  7 27  1  0
  8 28  1  0
  8 29  1  0
  9 30  1  0
  9 31  1  0
 10 32  1  1
 13 33  1  0
 13 34  1  0
 13 35  1  0
 14 36  1  0
 15 37  1  0
 16 38  1  0
 18 39  1  0
 18 40  1  0
 18 41  1  0
M  CHG  1   5   1
M  END
>  <score>  (3) 
-8.137

$$$$
=
     RDKit          3D

 41 42  0  0  0  0  0  0  0  0999 V2000
    1.1790   67.9250   65.3290 C   0  0  0  0  0  0  0  0  0  0  0  0
    1.4410   66.7380   65.1290 O   0  0  0  0  0  0  0  0  0  0  0  0
    1.9370   69.0140   64.9510 N   0  0  0  0  0  0  0  0  0  0  0  0
   -0.8930   70.1820   67.6290 C   0  0  0  0  0  0  0  0  0  0  0  0
    0.2790   69.3500   67.2110 N   0  0  1  0  0  4  0  0  0  0  0  0
    1.1580   68.9050   68.3610 C   0  0  0  0  0  0  0  0  0  0  0  0
    1.1330   67.3980   68.5670 C   0  0  0  0  0  0  0  0  0  0  0  0
   -0.2460   66.8170   68.3220 C   0  0  0  0  0  0  0  0  0  0  0  0
   -0.7170   67.0560   66.8890 C   0  0  0  0  0  0  0  0  0  0  0  0
   -0.0690   68.2540   66.1900 C   0  0  2  0  0  0  0  0  0  0  0  0
    3.1280   68.9650   64.1770 C   0  0  0  0  0  0  0  0  0  0  0  0
    3.1420   68.7600   62.7800 C   0  0  0  0  0  0  0  0  0  0  0  0
    1.9180   68.6790   61.9100 C   0  0  0  0  0  0  0  0  0  0  0  0
    4.3790   68.6700   62.1120 C   0  0  0  0  0  0  0  0  0  0  0  0
    5.5790   68.8470   62.7900 C   0  0  0  0  0  0  0  0  0  0  0  0
    5.5660   69.1230   64.1510 C   0  0  0  0  0  0  0  0  0  0  0  0
    4.3530   69.1900   64.8570 C   0  0  0  0  0  0  0  0  0  0  0  0
    4.4270   69.4720   66.3370 C   0  0  0  0  0  0  0  0  0  0  0  0
    1.6118   69.9425   65.2560 H   0  0  0  0  0  0  0  0  0  0  0  0
   -0.9439   70.2182   68.7272 H   0  0  0  0  0  0  0  0  0  0  0  0
   -0.7783   71.2020   67.2335 H   0  0  0  0  0  0  0  0  0  0  0  0
   -1.8181   69.7373   67.2335 H   0  0  0  0  0  0  0  0  0  0  0  0
    0.8872   69.9892   66.6796 H   0  0  0  0  0  0  0  0  0  0  0  0
    2.1929   69.2152   68.1540 H   0  0  0  0  0  0  0  0  0  0  0  0
    0.7699   69.3731   69.2776 H   0  0  0  0  0  0  0  0  0  0  0  0
    1.8444   66.9318   67.8695 H   0  0  0  0  0  0  0  0  0  0  0  0
    1.4093   67.1919   69.6116 H   0  0  0  0  0  0  0  0  0  0  0  0
   -0.2143   65.7337   68.5101 H   0  0  0  0  0  0  0  0  0  0  0  0
   -0.9525   67.3163   69.0014 H   0  0  0  0  0  0  0  0  0  0  0  0
   -0.4925   66.1542   66.3004 H   0  0  0  0  0  0  0  0  0  0  0  0
   -1.7925   67.2787   66.9503 H   0  0  0  0  0  0  0  0  0  0  0  0
   -0.8313   68.6077   65.4802 H   0  0  0  0  0  0  0  0  0  0  0  0
    1.0209   68.6196   62.5438 H   0  0  0  0  0  0  0  0  0  0  0  0
    1.8596   69.5752   61.2749 H   0  0  0  0  0  0  0  0  0  0  0  0
    1.9782   67.7829   61.2749 H   0  0  0  0  0  0  0  0  0  0  0  0
    4.3953   68.4555   61.0332 H   0  0  0  0  0  0  0  0  0  0  0  0
    6.5348   68.7689   62.2512 H   0  0  0  0  0  0  0  0  0  0  0  0
    6.5148   69.2908   64.6816 H   0  0  0  0  0  0  0  0  0  0  0  0
    4.1867   68.5563   66.8972 H   0  0  0  0  0  0  0  0  0  0  0  0
    5.4429   69.8047   66.5965 H   0  0  0  0  0  0  0  0  0  0  0  0
    3.7054   70.2606   66.5965 H   0  0  0  0  0  0  0  0  0  0  0  0
  2  1  2  0
  3  1  1  0
  5  4  1  0
  6  5  1  0
  7  6  1  0
  8  7  1  0
  9  8  1  0
 10  9  1  0
 10  5  1  0
 10  1  1  0
 11  3  1  0
 12 11  2  0
 13 12  1  0
 14 12  1  0
 15 14  2  0
 16 15  1  0
 17 16  2  0
 17 11  1  0
 18 17  1  0
  3 19  1  0
  4 20  1  0
  4 21  1  0
  4 22  1  0
  5 23  1  6
  6 24  1  0
  6 25  1  0
  7 26  1  0
  7 27  1  0
  8 28  1  0
  8 29  1  0
  9 30  1  0
  9 31  1  0
 10 32  1  6
 13 33  1  0
 13 34  1  0
 13 35  1  0
 14 36  1  0
 15 37  1  0
 16 38  1  0
 18 39  1  0
 18 40  1  0
 18 41  1  0
M  CHG  1   5   1
M  END
>  <score>  (4) 
-8.066

$$$$
=
     RDKit          3D

 41 42  0  0  0  0  0  0  0  0999 V2000
    4.8460   68.8440   64.7630 C   0  0  0  0  0  0  0  0  0  0  0  0
    5.9180   68.3070   65.0430 O   0  0  0  0  0  0  0  0  0  0  0  0
    4.0680   69.6190   65.5990 N   0  0  0  0  0  0  0  0  0  0  0  0
    1.9300   68.6450   62.2870 C   0  0  0  0  0  0  0  0  0  0  0  0
    2.7130   68.3120   63.5170 N   0  0  1  0  0  4  0  0  0  0  0  0
    2.3180   66.9980   64.1600 C   0  0  0  0  0  0  0  0  0  0  0  0
    3.4280   65.9600   64.0990 C   0  0  0  0  0  0  0  0  0  0  0  0
    4.1970   66.0310   62.7930 C   0  0  0  0  0  0  0  0  0  0  0  0
    4.8750   67.3870   62.6050 C   0  0  0  0  0  0  0  0  0  0  0  0
    4.2270   68.5420   63.3740 C   0  0  2  0  0  0  0  0  0  0  0  0
    4.4110   70.0140   66.9190 C   0  0  0  0  0  0  0  0  0  0  0  0
    5.6480   70.6050   67.2600 C   0  0  0  0  0  0  0  0  0  0  0  0
    6.7140   70.9970   66.2740 C   0  0  0  0  0  0  0  0  0  0  0  0
    5.9150   70.9080   68.6090 C   0  0  0  0  0  0  0  0  0  0  0  0
    4.9600   70.7020   69.5980 C   0  0  0  0  0  0  0  0  0  0  0  0
    3.7150   70.1910   69.2550 C   0  0  0  0  0  0  0  0  0  0  0  0
    3.4230   69.8470   67.9240 C   0  0  0  0  0  0  0  0  0  0  0  0
    2.0560   69.2770   67.6400 C   0  0  0  0  0  0  0  0  0  0  0  0
    3.1596   69.9386   65.2336 H   0  0  0  0  0  0  0  0  0  0  0  0
    0.9532   69.0604   62.5755 H   0  0  0  0  0  0  0  0  0  0  0  0
    2.4820   69.3862   61.6904 H   0  0  0  0  0  0  0  0  0  0  0  0
    1.7790   67.7332   61.6904 H   0  0  0  0  0  0  0  0  0  0  0  0
    2.4288   69.0148   64.2142 H   0  0  0  0  0  0  0  0  0  0  0  0
    2.0666   67.1834   65.2147 H   0  0  0  0  0  0  0  0  0  0  0  0
    1.4580   66.5993   63.6020 H   0  0  0  0  0  0  0  0  0  0  0  0
    4.1247   66.1349   64.9320 H   0  0  0  0  0  0  0  0  0  0  0  0
    2.9676   64.9635   64.1701 H   0  0  0  0  0  0  0  0  0  0  0  0
    4.9666   65.2450   62.7901 H   0  0  0  0  0  0  0  0  0  0  0  0
    3.4829   65.8893   61.9684 H   0  0  0  0  0  0  0  0  0  0  0  0
    5.9191   67.2967   62.9393 H   0  0  0  0  0  0  0  0  0  0  0  0
    4.7805   67.6347   61.5374 H   0  0  0  0  0  0  0  0  0  0  0  0
    4.4306   69.4332   62.7622 H   0  0  0  0  0  0  0  0  0  0  0  0
    7.6120   71.3272   66.8168 H   0  0  0  0  0  0  0  0  0  0  0  0
    6.9648   70.1323   65.6421 H   0  0  0  0  0  0  0  0  0  0  0  0
    6.3448   71.8182   65.6421 H   0  0  0  0  0  0  0  0  0  0  0  0
    6.8985   71.3157   68.8856 H   0  0  0  0  0  0  0  0  0  0  0  0
    5.1892   70.9425   70.6466 H   0  0  0  0  0  0  0  0  0  0  0  0
    2.9496   70.0541   70.0331 H   0  0  0  0  0  0  0  0  0  0  0  0
    1.5434   69.0632   68.5895 H   0  0  0  0  0  0  0  0  0  0  0  0
    1.4681   70.0050   67.0617 H   0  0  0  0  0  0  0  0  0  0  0  0
    2.1594   68.3470   67.0617 H   0  0  0  0  0  0  0  0  0  0  0  0
  2  1  2  0
  3  1  1  0
  5  4  1  0
  6  5  1  0
  7  6  1  0
  8  7  1  0
  9  8  1  0
 10  9  1  0
 10  5  1  0
 10  1  1  0
 11  3  1  0
 12 11  2  0
 13 12  1  0
 14 12  1  0
 15 14  2  0
 16 15  1  0
 17 16  2  0
 17 11  1  0
 18 17  1  0
  3 19  1  0
  4 20  1  0
  4 21  1  0
  4 22  1  0
  5 23  1  1
  6 24  1  0
  6 25  1  0
  7 26  1  0
  7 27  1  0
  8 28  1  0
  8 29  1  0
  9 30  1  0
  9 31  1  0
 10 32  1  6
 13 33  1  0
 13 34  1  0
 13 35  1  0
 14 36  1  0
 15 37  1  0
 16 38  1  0
 18 39  1  0
 18 40  1  0
 18 41  1  0
M  CHG  1   5   1
M  END
>  <score>  (5) 
-7.776

$$$$
=
     RDKit          3D

 41 42  0  0  0  0  0  0  0  0999 V2000
    2.1170   66.8730   65.1470 C   0  0  0  0  0  0  0  0  0  0  0  0
    1.5560   65.8940   64.6550 O   0  0  0  0  0  0  0  0  0  0  0  0
    1.5170   67.9180   65.8210 N   0  0  0  0  0  0  0  0  0  0  0  0
    5.3660   68.8980   64.9980 C   0  0  0  0  0  0  0  0  0  0  0  0
    3.9710   68.5080   64.6230 N   0  0  1  0  0  4  0  0  0  0  0  0
    3.5330   69.0220   63.2660 C   0  0  0  0  0  0  0  0  0  0  0  0
    3.3000   67.9010   62.2640 C   0  0  0  0  0  0  0  0  0  0  0  0
    4.3080   66.7800   62.4250 C   0  0  0  0  0  0  0  0  0  0  0  0
    4.2250   66.1350   63.8080 C   0  0  0  0  0  0  0  0  0  0  0  0
    3.6400   67.0330   64.9020 C   0  0  2  0  0  0  0  0  0  0  0  0
    0.1370   68.0080   66.1470 C   0  0  0  0  0  0  0  0  0  0  0  0
   -0.4020   67.5800   67.3810 C   0  0  0  0  0  0  0  0  0  0  0  0
    0.4080   67.0820   68.5470 C   0  0  0  0  0  0  0  0  0  0  0  0
   -1.7930   67.6590   67.5860 C   0  0  0  0  0  0  0  0  0  0  0  0
   -2.6330   68.2120   66.6270 C   0  0  0  0  0  0  0  0  0  0  0  0
   -2.0970   68.7020   65.4440 C   0  0  0  0  0  0  0  0  0  0  0  0
   -0.7180   68.6130   65.1900 C   0  0  0  0  0  0  0  0  0  0  0  0
   -0.2200   69.1480   63.8710 C   0  0  0  0  0  0  0  0  0  0  0  0
    2.1216   68.6993   66.1125 H   0  0  0  0  0  0  0  0  0  0  0  0
    5.4575   68.9236   66.0939 H   0  0  0  0  0  0  0  0  0  0  0  0
    6.0748   68.1636   64.5879 H   0  0  0  0  0  0  0  0  0  0  0  0
    5.5912   69.8935   64.5879 H   0  0  0  0  0  0  0  0  0  0  0  0
    3.3638   69.0184   65.2800 H   0  0  0  0  0  0  0  0  0  0  0  0
    2.5964   69.5858   63.3882 H   0  0  0  0  0  0  0  0  0  0  0  0
    4.3405   69.6576   62.8736 H   0  0  0  0  0  0  0  0  0  0  0  0
    2.2890   67.4944   62.4141 H   0  0  0  0  0  0  0  0  0  0  0  0
    3.4135   68.3187   61.2528 H   0  0  0  0  0  0  0  0  0  0  0  0
    4.1115   66.0124   61.6620 H   0  0  0  0  0  0  0  0  0  0  0  0
    5.3150   67.2067   62.3071 H   0  0  0  0  0  0  0  0  0  0  0  0
    3.5948   65.2369   63.7293 H   0  0  0  0  0  0  0  0  0  0  0  0
    5.2597   65.9145   64.1092 H   0  0  0  0  0  0  0  0  0  0  0  0
    4.1238   66.6935   65.8298 H   0  0  0  0  0  0  0  0  0  0  0  0
   -0.0793   67.3816   69.4866 H   0  0  0  0  0  0  0  0  0  0  0  0
    0.4773   65.9851   68.5035 H   0  0  0  0  0  0  0  0  0  0  0  0
    1.4181   67.5153   68.5035 H   0  0  0  0  0  0  0  0  0  0  0  0
   -2.2228   67.2756   68.5232 H   0  0  0  0  0  0  0  0  0  0  0  0
   -3.7175   68.2612   66.8045 H   0  0  0  0  0  0  0  0  0  0  0  0
   -2.7590   69.1649   64.6974 H   0  0  0  0  0  0  0  0  0  0  0  0
    0.5192   69.9421   64.0530 H   0  0  0  0  0  0  0  0  0  0  0  0
    0.2495   68.3342   63.2989 H   0  0  0  0  0  0  0  0  0  0  0  0
   -1.0654   69.5580   63.2989 H   0  0  0  0  0  0  0  0  0  0  0  0
  2  1  2  0
  3  1  1  0
  5  4  1  0
  6  5  1  0
  7  6  1  0
  8  7  1  0
  9  8  1  0
 10  9  1  0
 10  5  1  0
 10  1  1  0
 11  3  1  0
 12 11  2  0
 13 12  1  0
 14 12  1  0
 15 14  2  0
 16 15  1  0
 17 16  2  0
 17 11  1  0
 18 17  1  0
  3 19  1  0
  4 20  1  0
  4 21  1  0
  4 22  1  0
  5 23  1  1
  6 24  1  0
  6 25  1  0
  7 26  1  0
  7 27  1  0
  8 28  1  0
  8 29  1  0
  9 30  1  0
  9 31  1  0
 10 32  1  1
 13 33  1  0
 13 34  1  0
 13 35  1  0
 14 36  1  0
 15 37  1  0
 16 38  1  0
 18 39  1  0
 18 40  1  0
 18 41  1  0
M  CHG  1   5   1
M  END
>  <score>  (6) 
-7.575

$$$$
=
     RDKit          3D

 41 42  0  0  0  0  0  0  0  0999 V2000
    1.4180   67.9890   65.4510 C   0  0  0  0  0  0  0  0  0  0  0  0
    1.8330   66.8290   65.4460 O   0  0  0  0  0  0  0  0  0  0  0  0
    2.0400   69.0910   64.9000 N   0  0  0  0  0  0  0  0  0  0  0  0
   -0.7980   70.1800   67.6780 C   0  0  0  0  0  0  0  0  0  0  0  0
    0.4020   69.3670   67.3090 N   0  0  1  0  0  4  0  0  0  0  0  0
    1.2190   68.9030   68.4970 C   0  0  0  0  0  0  0  0  0  0  0  0
    1.1960   67.3920   68.6690 C   0  0  0  0  0  0  0  0  0  0  0  0
   -0.1620   66.8060   68.3350 C   0  0  0  0  0  0  0  0  0  0  0  0
   -0.5540   67.0720   66.8830 C   0  0  0  0  0  0  0  0  0  0  0  0
    0.1220   68.2900   66.2470 C   0  0  2  0  0  0  0  0  0  0  0  0
    3.2430   69.0710   64.1440 C   0  0  0  0  0  0  0  0  0  0  0  0
    4.5220   69.2780   64.7080 C   0  0  0  0  0  0  0  0  0  0  0  0
    4.7990   69.4320   66.1780 C   0  0  0  0  0  0  0  0  0  0  0  0
    5.6480   69.2960   63.8630 C   0  0  0  0  0  0  0  0  0  0  0  0
    5.5330   69.0470   62.5010 C   0  0  0  0  0  0  0  0  0  0  0  0
    4.2870   68.7690   61.9560 C   0  0  0  0  0  0  0  0  0  0  0  0
    3.1350   68.7730   62.7610 C   0  0  0  0  0  0  0  0  0  0  0  0
    1.8170   68.4840   62.0870 C   0  0  0  0  0  0  0  0  0  0  0  0
    1.5936   70.0071   65.0497 H   0  0  0  0  0  0  0  0  0  0  0  0
   -0.8804   70.2358   68.7735 H   0  0  0  0  0  0  0  0  0  0  0  0
   -0.6943   71.1946   67.2659 H   0  0  0  0  0  0  0  0  0  0  0  0
   -1.7019   69.7075   67.2659 H   0  0  0  0  0  0  0  0  0  0  0  0
    1.0325   70.0230   66.8263 H   0  0  0  0  0  0  0  0  0  0  0  0
    2.2611   69.2255   68.3554 H   0  0  0  0  0  0  0  0  0  0  0  0
    0.7756   69.3477   69.4001 H   0  0  0  0  0  0  0  0  0  0  0  0
    1.9493   66.9466   68.0025 H   0  0  0  0  0  0  0  0  0  0  0  0
    1.4155   67.1653   69.7228 H   0  0  0  0  0  0  0  0  0  0  0  0
   -0.1315   65.7192   68.5020 H   0  0  0  0  0  0  0  0  0  0  0  0
   -0.9098   67.2853   68.9839 H   0  0  0  0  0  0  0  0  0  0  0  0
   -0.2889   66.1848   66.2892 H   0  0  0  0  0  0  0  0  0  0  0  0
   -1.6332   67.2849   66.8882 H   0  0  0  0  0  0  0  0  0  0  0  0
   -0.6021   68.6535   65.5030 H   0  0  0  0  0  0  0  0  0  0  0  0
    3.9805   68.9769   66.7550 H   0  0  0  0  0  0  0  0  0  0  0  0
    5.7460   68.9309   66.4271 H   0  0  0  0  0  0  0  0  0  0  0  0
    4.8732   70.5008   66.4271 H   0  0  0  0  0  0  0  0  0  0  0  0
    6.6387   69.5115   64.2897 H   0  0  0  0  0  0  0  0  0  0  0  0
    6.4250   69.0700   61.8577 H   0  0  0  0  0  0  0  0  0  0  0  0
    4.2004   68.5432   60.8829 H   0  0  0  0  0  0  0  0  0  0  0  0
    1.0439   68.3145   62.8509 H   0  0  0  0  0  0  0  0  0  0  0  0
    1.5306   69.3407   61.4593 H   0  0  0  0  0  0  0  0  0  0  0  0
    1.9153   67.5861   61.4593 H   0  0  0  0  0  0  0  0  0  0  0  0
  2  1  2  0
  3  1  1  0
  5  4  1  0
  6  5  1  0
  7  6  1  0
  8  7  1  0
  9  8  1  0
 10  9  1  0
 10  5  1  0
 10  1  1  0
 11  3  1  0
 12 11  2  0
 13 12  1  0
 14 12  1  0
 15 14  2  0
 16 15  1  0
 17 16  2  0
 17 11  1  0
 18 17  1  0
  3 19  1  0
  4 20  1  0
  4 21  1  0
  4 22  1  0
  5 23  1  6
  6 24  1  0
  6 25  1  0
  7 26  1  0
  7 27  1  0
  8 28  1  0
  8 29  1  0
  9 30  1  0
  9 31  1  0
 10 32  1  6
 13 33  1  0
 13 34  1  0
 13 35  1  0
 14 36  1  0
 15 37  1  0
 16 38  1  0
 18 39  1  0
 18 40  1  0
 18 41  1  0
M  CHG  1   5   1
M  END
>  <score>  (7) 
-7.566

$$$$
=
     RDKit          3D

 41 42  0  0  0  0  0  0  0  0999 V2000
    2.1690   60.6920   73.3900 C   0  0  0  0  0  0  0  0  0  0  0  0
    3.2330   61.1170   73.8400 O   0  0  0  0  0  0  0  0  0  0  0  0
    1.6780   60.8800   72.1140 N   0  0  0  0  0  0  0  0  0  0  0  0
    1.3660   58.7980   76.6220 C   0  0  0  0  0  0  0  0  0  0  0  0
    2.0140   59.0400   75.2950 N   0  0  1  0  0  4  0  0  0  0  0  0
    2.5600   57.7880   74.6410 C   0  0  0  0  0  0  0  0  0  0  0  0
    1.8250   57.4300   73.3580 C   0  0  0  0  0  0  0  0  0  0  0  0
    0.3400   57.7150   73.4600 C   0  0  0  0  0  0  0  0  0  0  0  0
    0.0610   59.1970   73.7080 C   0  0  0  0  0  0  0  0  0  0  0  0
    1.2090   59.9650   74.3680 C   0  0  2  0  0  0  0  0  0  0  0  0
    2.3610   61.5310   71.0520 C   0  0  0  0  0  0  0  0  0  0  0  0
    3.2090   60.8600   70.1430 C   0  0  0  0  0  0  0  0  0  0  0  0
    3.4160   59.3710   70.1000 C   0  0  0  0  0  0  0  0  0  0  0  0
    3.8860   61.6050   69.1590 C   0  0  0  0  0  0  0  0  0  0  0  0
    3.6830   62.9730   69.0220 C   0  0  0  0  0  0  0  0  0  0  0  0
    2.7930   63.6230   69.8660 C   0  0  0  0  0  0  0  0  0  0  0  0
    2.1210   62.9190   70.8800 C   0  0  0  0  0  0  0  0  0  0  0  0
    1.1900   63.7040   71.7690 C   0  0  0  0  0  0  0  0  0  0  0  0
    0.7350   60.5170   71.9144 H   0  0  0  0  0  0  0  0  0  0  0  0
    2.0688   59.0604   77.4265 H   0  0  0  0  0  0  0  0  0  0  0  0
    0.4622   59.4192   76.7075 H   0  0  0  0  0  0  0  0  0  0  0  0
    1.0907   57.7364   76.7075 H   0  0  0  0  0  0  0  0  0  0  0  0
    2.8599   59.5887   75.5052 H   0  0  0  0  0  0  0  0  0  0  0  0
    3.6224   57.9483   74.4054 H   0  0  0  0  0  0  0  0  0  0  0  0
    2.4221   56.9560   75.3472 H   0  0  0  0  0  0  0  0  0  0  0  0
    2.2447   58.0212   72.5307 H   0  0  0  0  0  0  0  0  0  0  0  0
    1.9542   56.3522   73.1801 H   0  0  0  0  0  0  0  0  0  0  0  0
   -0.1455   57.4140   72.5200 H   0  0  0  0  0  0  0  0  0  0  0  0
   -0.0592   57.1452   74.3120 H   0  0  0  0  0  0  0  0  0  0  0  0
   -0.1555   59.6712   72.7393 H   0  0  0  0  0  0  0  0  0  0  0  0
   -0.7842   59.2395   74.4108 H   0  0  0  0  0  0  0  0  0  0  0  0
    0.7160   60.7622   74.9438 H   0  0  0  0  0  0  0  0  0  0  0  0
    3.4706   58.9786   71.1262 H   0  0  0  0  0  0  0  0  0  0  0  0
    2.5748   58.8990   69.5712 H   0  0  0  0  0  0  0  0  0  0  0  0
    4.3540   59.1463   69.5712 H   0  0  0  0  0  0  0  0  0  0  0  0
    4.5896   61.0943   68.4852 H   0  0  0  0  0  0  0  0  0  0  0  0
    4.2247   63.5377   68.2489 H   0  0  0  0  0  0  0  0  0  0  0  0
    2.6117   64.7006   69.7399 H   0  0  0  0  0  0  0  0  0  0  0  0
    1.4311   63.5007   72.8228 H   0  0  0  0  0  0  0  0  0  0  0  0
    1.3088   64.7786   71.5664 H   0  0  0  0  0  0  0  0  0  0  0  0
    0.1509   63.4054   71.5664 H   0  0  0  0  0  0  0  0  0  0  0  0
  2  1  2  0
  3  1  1  0
  5  4  1  0
  6  5  1  0
  7  6  1  0
  8  7  1  0
  9  8  1  0
 10  9  1  0
 10  5  1  0
 10  1  1  0
 11  3  1  0
 12 11  2  0
 13 12  1  0
 14 12  1  0
 15 14  2  0
 16 15  1  0
 17 16  2  0
 17 11  1  0
 18 17  1  0
  3 19  1  0
  4 20  1  0
  4 21  1  0
  4 22  1  0
  5 23  1  1
  6 24  1  0
  6 25  1  0
  7 26  1  0
  7 27  1  0
  8 28  1  0
  8 29  1  0
  9 30  1  0
  9 31  1  0
 10 32  1  1
 13 33  1  0
 13 34  1  0
 13 35  1  0
 14 36  1  0
 15 37  1  0
 16 38  1  0
 18 39  1  0
 18 40  1  0
 18 41  1  0
M  CHG  1   5   1
M  END
>  <score>  (8) 
-7.006

$$$$
=
     RDKit          3D

 41 42  0  0  0  0  0  0  0  0999 V2000
    2.0400   60.4310   73.5780 C   0  0  0  0  0  0  0  0  0  0  0  0
    3.0210   60.9720   74.0890 O   0  0  0  0  0  0  0  0  0  0  0  0
    1.6270   60.5370   72.2660 N   0  0  0  0  0  0  0  0  0  0  0  0
    1.2270   58.4420   76.7500 C   0  0  0  0  0  0  0  0  0  0  0  0
    1.9100   58.7420   75.4530 N   0  0  1  0  0  4  0  0  0  0  0  0
    2.5530   57.5340   74.8030 C   0  0  0  0  0  0  0  0  0  0  0  0
    1.8890   57.1550   73.4880 C   0  0  0  0  0  0  0  0  0  0  0  0
    0.3870   57.3520   73.5360 C   0  0  0  0  0  0  0  0  0  0  0  0
    0.0130   58.8110   73.7930 C   0  0  0  0  0  0  0  0  0  0  0  0
    1.0880   59.6330   74.5080 C   0  0  2  0  0  0  0  0  0  0  0  0
    2.3190   61.2280   71.2340 C   0  0  0  0  0  0  0  0  0  0  0  0
    2.1890   62.6160   71.0030 C   0  0  0  0  0  0  0  0  0  0  0  0
    1.4060   63.5630   71.8690 C   0  0  0  0  0  0  0  0  0  0  0  0
    2.8730   63.1970   69.9170 C   0  0  0  0  0  0  0  0  0  0  0  0
    3.7240   62.4450   69.1150 C   0  0  0  0  0  0  0  0  0  0  0  0
    3.9110   61.0970   69.3860 C   0  0  0  0  0  0  0  0  0  0  0  0
    3.2220   60.4740   70.4410 C   0  0  0  0  0  0  0  0  0  0  0  0
    3.4640   59.0020   70.6530 C   0  0  0  0  0  0  0  0  0  0  0  0
    0.7415   60.0761   72.0124 H   0  0  0  0  0  0  0  0  0  0  0  0
    1.8827   58.7300   77.5849 H   0  0  0  0  0  0  0  0  0  0  0  0
    0.2869   59.0100   76.8093 H   0  0  0  0  0  0  0  0  0  0  0  0
    1.0093   57.3654   76.8093 H   0  0  0  0  0  0  0  0  0  0  0  0
    2.7139   59.3351   75.7040 H   0  0  0  0  0  0  0  0  0  0  0  0
    3.6123   57.7594   74.6107 H   0  0  0  0  0  0  0  0  0  0  0  0
    2.4378   56.6841   75.4917 H   0  0  0  0  0  0  0  0  0  0  0  0
    2.3046   57.7826   72.6859 H   0  0  0  0  0  0  0  0  0  0  0  0
    2.0873   56.0894   73.3006 H   0  0  0  0  0  0  0  0  0  0  0  0
   -0.0440   57.0383   72.5738 H   0  0  0  0  0  0  0  0  0  0  0  0
   -0.0105   56.7466   74.3640 H   0  0  0  0  0  0  0  0  0  0  0  0
   -0.1933   59.2873   72.8232 H   0  0  0  0  0  0  0  0  0  0  0  0
   -0.8597   58.7936   74.4624 H   0  0  0  0  0  0  0  0  0  0  0  0
    0.5275   60.3903   75.0757 H   0  0  0  0  0  0  0  0  0  0  0  0
    1.5957   63.3335   72.9279 H   0  0  0  0  0  0  0  0  0  0  0  0
    1.7169   64.5965   71.6564 H   0  0  0  0  0  0  0  0  0  0  0  0
    0.3325   63.4519   71.6564 H   0  0  0  0  0  0  0  0  0  0  0  0
    2.7311   64.2659   69.6995 H   0  0  0  0  0  0  0  0  0  0  0  0
    4.2466   62.9164   68.2696 H   0  0  0  0  0  0  0  0  0  0  0  0
    4.6062   60.5094   68.7684 H   0  0  0  0  0  0  0  0  0  0  0  0
    3.4992   58.7878   71.7314 H   0  0  0  0  0  0  0  0  0  0  0  0
    2.6485   58.4261   70.1912 H   0  0  0  0  0  0  0  0  0  0  0  0
    4.4210   58.7175   70.1912 H   0  0  0  0  0  0  0  0  0  0  0  0
  2  1  2  0
  3  1  1  0
  5  4  1  0
  6  5  1  0
  7  6  1  0
  8  7  1  0
  9  8  1  0
 10  9  1  0
 10  5  1  0
 10  1  1  0
 11  3  1  0
 12 11  2  0
 13 12  1  0
 14 12  1  0
 15 14  2  0
 16 15  1  0
 17 16  2  0
 17 11  1  0
 18 17  1  0
  3 19  1  0
  4 20  1  0
  4 21  1  0
  4 22  1  0
  5 23  1  1
  6 24  1  0
  6 25  1  0
  7 26  1  0
  7 27  1  0
  8 28  1  0
  8 29  1  0
  9 30  1  0
  9 31  1  0
 10 32  1  1
 13 33  1  0
 13 34  1  0
 13 35  1  0
 14 36  1  0
 15 37  1  0
 16 38  1  0
 18 39  1  0
 18 40  1  0
 18 41  1  0
M  CHG  1   5   1
M  END
>  <score>  (9) 
-6.956

$$$$
