=
     RDKit          3D

 73 75  0  0  0  0  0  0  0  0999 V2000
    0.1030   67.6870   66.3210 C   0  0  2  0  0  0  0  0  0  0  0  0
   -0.0380   69.1890   66.6920 C   0  0  2  0  0  0  0  0  0  0  0  0
    0.6860   69.5610   68.0110 C   0  0  0  0  0  0  0  0  0  0  0  0
    1.6510   68.4660   68.4930 C   0  0  2  0  0  0  0  0  0  0  0  0
    0.9000   67.1330   68.7640 C   0  0  1  0  0  0  0  0  0  0  0  0
   -0.0950   66.8310   67.5980 C   0  0  1  0  0  0  0  0  0  0  0  0
   -1.4930   69.5480   66.8100 N   0  0  0  0  0  4  0  0  0  0  0  0
    2.3400   68.9260   69.7510 N   0  0  0  0  0  4  0  0  0  0  0  0
   -1.4180   67.1430   68.0810 O   0  0  0  0  0  0  0  0  0  0  0  0
    1.8730   66.0820   68.9940 O   0  0  0  0  0  0  0  0  0  0  0  0
    1.6950   65.4160   70.2720 C   0  0  1  0  0  0  0  0  0  0  0  0
    0.3530   65.0040   70.4460 O   0  0  0  0  0  0  0  0  0  0  0  0
    0.0170   64.5860   71.7900 C   0  0  1  0  0  0  0  0  0  0  0  0
    1.1430   63.7320   72.4170 C   0  0  2  0  0  0  0  0  0  0  0  0
    1.9330   63.0990   71.2640 C   0  0  1  0  0  0  0  0  0  0  0  0
    2.6170   64.1640   70.3850 C   0  0  1  0  0  0  0  0  0  0  0  0
    2.9080   62.0900   71.7920 N   0  0  0  0  0  4  0  0  0  0  0  0
    2.8790   63.5510   69.1170 O   0  0  0  0  0  0  0  0  0  0  0  0
    0.6540   62.6700   73.2310 O   0  0  0  0  0  0  0  0  0  0  0  0
   -0.3550   65.8100   72.6480 C   0  0  0  0  0  0  0  0  0  0  0  0
   -0.3560   65.4420   74.0340 O   0  0  0  0  0  0  0  0  0  0  0  0
    1.3930   67.4560   65.7150 O   0  0  0  0  0  0  0  0  0  0  0  0
    1.9750   68.5020   63.0290 C   0  0  1  0  0  0  0  0  0  0  0  0
    0.9820   67.5200   63.3800 O   0  0  0  0  0  0  0  0  0  0  0  0
    1.3340   66.6740   64.4910 C   0  0  1  0  0  0  0  0  0  0  0  0
    2.6490   65.9240   64.1750 C   0  0  1  0  0  0  0  0  0  0  0  0
    3.7550   66.9680   64.0560 C   0  0  2  0  0  0  0  0  0  0  0  0
    3.4120   67.9520   62.9370 C   0  0  2  0  0  0  0  0  0  0  0  0
    2.9830   64.9780   65.1920 O   0  0  0  0  0  0  0  0  0  0  0  0
    5.0120   66.3570   63.7530 O   0  0  0  0  0  0  0  0  0  0  0  0
    4.3180   69.0540   62.9860 O   0  0  0  0  0  0  0  0  0  0  0  0
    1.6100   69.1040   61.6460 C   0  0  0  0  0  0  0  0  0  0  0  0
    2.7300   68.9490   60.6770 N   0  0  0  0  0  4  0  0  0  0  0  0
   -0.6653   67.3972   65.5891 H   0  0  0  0  0  0  0  0  0  0  0  0
    0.4419   69.7602   65.8836 H   0  0  0  0  0  0  0  0  0  0  0  0
    1.2581   70.4863   67.8484 H   0  0  0  0  0  0  0  0  0  0  0  0
   -0.0842   69.6868   68.7862 H   0  0  0  0  0  0  0  0  0  0  0  0
    2.3938   68.2843   67.7022 H   0  0  0  0  0  0  0  0  0  0  0  0
    0.2836   67.2044   69.6723 H   0  0  0  0  0  0  0  0  0  0  0  0
    0.0715   65.7806   67.3170 H   0  0  0  0  0  0  0  0  0  0  0  0
   -1.7513   69.6117   67.8050 H   0  0  0  0  0  0  0  0  0  0  0  0
   -1.6609   70.4556   66.3529 H   0  0  0  0  0  0  0  0  0  0  0  0
   -2.0638   68.8226   66.3529 H   0  0  0  0  0  0  0  0  0  0  0  0
    1.8225   68.5805   70.5718 H   0  0  0  0  0  0  0  0  0  0  0  0
    3.3013   68.5566   69.7707 H   0  0  0  0  0  0  0  0  0  0  0  0
    2.3673   69.9554   69.7707 H   0  0  0  0  0  0  0  0  0  0  0  0
   -1.4165   67.1426   69.0710 H   0  0  0  0  0  0  0  0  0  0  0  0
    1.9630   66.1419   71.0538 H   0  0  0  0  0  0  0  0  0  0  0  0
   -0.8672   63.9329   71.7485 H   0  0  0  0  0  0  0  0  0  0  0  0
    1.7494   64.3918   73.0550 H   0  0  0  0  0  0  0  0  0  0  0  0
    1.2229   62.5712   70.6104 H   0  0  0  0  0  0  0  0  0  0  0  0
    3.5659   64.5157   70.8161 H   0  0  0  0  0  0  0  0  0  0  0  0
    2.8936   62.1049   72.8218 H   0  0  0  0  0  0  0  0  0  0  0  0
    2.6454   61.1516   71.4585 H   0  0  0  0  0  0  0  0  0  0  0  0
    3.8549   62.3203   71.4585 H   0  0  0  0  0  0  0  0  0  0  0  0
    3.2640   62.6501   69.2593 H   0  0  0  0  0  0  0  0  0  0  0  0
    0.7638   62.9084   74.1856 H   0  0  0  0  0  0  0  0  0  0  0  0
    0.3806   66.6108   72.4822 H   0  0  0  0  0  0  0  0  0  0  0  0
   -1.3562   66.1658   72.3632 H   0  0  0  0  0  0  0  0  0  0  0  0
   -0.3538   66.2594   74.5925 H   0  0  0  0  0  0  0  0  0  0  0  0
    1.9664   69.2469   63.8383 H   0  0  0  0  0  0  0  0  0  0  0  0
    0.5608   65.9081   64.6510 H   0  0  0  0  0  0  0  0  0  0  0  0
    2.5280   65.3581   63.2395 H   0  0  0  0  0  0  0  0  0  0  0  0
    3.8334   67.4898   65.0212 H   0  0  0  0  0  0  0  0  0  0  0  0
    3.4959   67.3963   61.9914 H   0  0  0  0  0  0  0  0  0  0  0  0
    2.8389   65.3861   66.0824 H   0  0  0  0  0  0  0  0  0  0  0  0
    5.4799   66.1296   64.5953 H   0  0  0  0  0  0  0  0  0  0  0  0
    4.5071   69.2840   63.9302 H   0  0  0  0  0  0  0  0  0  0  0  0
    0.7219   68.5873   61.2532 H   0  0  0  0  0  0  0  0  0  0  0  0
    1.4091   70.1776   61.7763 H   0  0  0  0  0  0  0  0  0  0  0  0
    3.6142   68.8266   61.1909 H   0  0  0  0  0  0  0  0  0  0  0  0
    2.5600   68.1235   60.0849 H   0  0  0  0  0  0  0  0  0  0  0  0
    2.7905   69.7896   60.0849 H   0  0  0  0  0  0  0  0  0  0  0  0
  2  1  1  0
  3  2  1  0
  4  3  1  0
  5  4  1  0
  6  5  1  0
  6  1  1  0
  7  2  1  0
  8  4  1  0
  9  6  1  0
 10  5  1  0
 11 10  1  0
 12 11  1  0
 13 12  1  0
 14 13  1  0
 15 14  1  0
 16 15  1  0
 16 11  1  0
 17 15  1  0
 18 16  1  0
 19 14  1  0
 20 13  1  0
 21 20  1  0
 22  1  1  0
 24 23  1  0
 25 24  1  0
 25 22  1  0
 26 25  1  0
 27 26  1  0
 28 27  1  0
 28 23  1  0
 29 26  1  0
 30 27  1  0
 31 28  1  0
 32 23  1  0
 33 32  1  0
  1 34  1  6
  2 35  1  6
  3 36  1  0
  3 37  1  0
  4 38  1  6
  5 39  1  1
  6 40  1  6
  7 41  1  0
  7 42  1  0
  7 43  1  0
  8 44  1  0
  8 45  1  0
  8 46  1  0
  9 47  1  0
 11 48  1  1
 13 49  1  6
 14 50  1  1
 15 51  1  6
 16 52  1  1
 17 53  1  0
 17 54  1  0
 17 55  1  0
 18 56  1  0
 19 57  1  0
 20 58  1  0
 20 59  1  0
 21 60  1  0
 23 61  1  1
 25 62  1  1
 26 63  1  6
 27 64  1  1
 28 65  1  6
 29 66  1  0
 30 67  1  0
 31 68  1  0
 32 69  1  0
 32 70  1  0
 33 71  1  0
 33 72  1  0
 33 73  1  0
M  CHG  4   7   1   8   1  17   1  33   1
M  END
>  <score>  (1) 
-7.13

$$$$
=
     RDKit          3D

 73 75  0  0  0  0  0  0  0  0999 V2000
    3.1780   56.5900   76.4930 C   0  0  2  0  0  0  0  0  0  0  0  0
    3.5110   56.9520   77.9670 C   0  0  2  0  0  0  0  0  0  0  0  0
    3.4870   58.4770   78.2390 C   0  0  0  0  0  0  0  0  0  0  0  0
    2.8280   59.2780   77.1050 C   0  0  2  0  0  0  0  0  0  0  0  0
    3.5870   59.0820   75.7640 C   0  0  1  0  0  0  0  0  0  0  0  0
    3.9230   57.5710   75.5520 C   0  0  1  0  0  0  0  0  0  0  0  0
    4.8640   56.4060   78.3300 N   0  0  0  0  0  4  0  0  0  0  0  0
    2.8100   60.7390   77.4700 N   0  0  0  0  0  4  0  0  0  0  0  0
    5.3270   57.4060   75.8420 O   0  0  0  0  0  0  0  0  0  0  0  0
    2.8060   59.6660   74.6890 O   0  0  0  0  0  0  0  0  0  0  0  0
    3.2840   59.2880   73.3720 C   0  0  1  0  0  0  0  0  0  0  0  0
    2.2060   58.9600   72.5160 O   0  0  0  0  0  0  0  0  0  0  0  0
    2.5880   58.3090   71.2820 C   0  0  1  0  0  0  0  0  0  0  0  0
    3.8540   58.9530   70.6680 C   0  0  2  0  0  0  0  0  0  0  0  0
    3.9310   60.3950   71.1880 C   0  0  1  0  0  0  0  0  0  0  0  0
    4.1020   60.4440   72.7190 C   0  0  1  0  0  0  0  0  0  0  0  0
    5.0110   61.1490   70.4730 N   0  0  0  0  0  4  0  0  0  0  0  0
    3.6660   61.7410   73.1450 O   0  0  0  0  0  0  0  0  0  0  0  0
    3.8180   59.0150   69.2460 O   0  0  0  0  0  0  0  0  0  0  0  0
    2.7380   56.7930   71.5060 C   0  0  0  0  0  0  0  0  0  0  0  0
    3.6940   56.2620   70.5810 O   0  0  0  0  0  0  0  0  0  0  0  0
    1.7490   56.6360   76.2930 O   0  0  0  0  0  0  0  0  0  0  0  0
    0.2200   54.2980   75.3750 C   0  0  1  0  0  0  0  0  0  0  0  0
    1.2640   54.9840   74.6600 O   0  0  0  0  0  0  0  0  0  0  0  0
    1.3420   56.4000   74.9170 C   0  0  1  0  0  0  0  0  0  0  0  0
   -0.0020   57.0680   74.5480 C   0  0  1  0  0  0  0  0  0  0  0  0
   -1.0640   56.5140   75.4930 C   0  0  2  0  0  0  0  0  0  0  0  0
   -1.1530   54.9970   75.3280 C   0  0  2  0  0  0  0  0  0  0  0  0
    0.0570   58.4910   74.6670 O   0  0  0  0  0  0  0  0  0  0  0  0
   -2.3490   57.0760   75.2130 O   0  0  0  0  0  0  0  0  0  0  0  0
   -1.9660   54.4580   76.3700 O   0  0  0  0  0  0  0  0  0  0  0  0
    0.0500   52.8810   74.7640 C   0  0  0  0  0  0  0  0  0  0  0  0
   -1.2040   52.7830   73.9690 N   0  0  0  0  0  4  0  0  0  0  0  0
    3.5137   55.5683   76.2620 H   0  0  0  0  0  0  0  0  0  0  0  0
    2.7263   56.4974   78.5895 H   0  0  0  0  0  0  0  0  0  0  0  0
    2.9269   58.6587   79.1681 H   0  0  0  0  0  0  0  0  0  0  0  0
    4.5311   58.8142   78.3169 H   0  0  0  0  0  0  0  0  0  0  0  0
    1.7994   58.9114   76.9722 H   0  0  0  0  0  0  0  0  0  0  0  0
    4.5547   59.6049   75.7795 H   0  0  0  0  0  0  0  0  0  0  0  0
    3.6204   57.3310   74.5220 H   0  0  0  0  0  0  0  0  0  0  0  0
    4.9555   56.3691   79.3553 H   0  0  0  0  0  0  0  0  0  0  0  0
    4.9670   55.4576   77.9417 H   0  0  0  0  0  0  0  0  0  0  0  0
    5.5964   57.0173   77.9417 H   0  0  0  0  0  0  0  0  0  0  0  0
    2.8088   60.8367   78.4954 H   0  0  0  0  0  0  0  0  0  0  0  0
    3.6454   61.2001   77.0821 H   0  0  0  0  0  0  0  0  0  0  0  0
    1.9635   61.1794   77.0821 H   0  0  0  0  0  0  0  0  0  0  0  0
    5.4618   57.3902   76.8227 H   0  0  0  0  0  0  0  0  0  0  0  0
    3.9312   58.4085   73.5046 H   0  0  0  0  0  0  0  0  0  0  0  0
    1.7871   58.4545   70.5422 H   0  0  0  0  0  0  0  0  0  0  0  0
    4.7180   58.3355   70.9546 H   0  0  0  0  0  0  0  0  0  0  0  0
    2.9735   60.8908   70.9706 H   0  0  0  0  0  0  0  0  0  0  0  0
    5.1476   60.2972   73.0276 H   0  0  0  0  0  0  0  0  0  0  0  0
    5.6383   61.5869   71.1627 H   0  0  0  0  0  0  0  0  0  0  0  0
    5.5499   60.4996   69.8825 H   0  0  0  0  0  0  0  0  0  0  0  0
    4.5871   61.8787   69.8825 H   0  0  0  0  0  0  0  0  0  0  0  0
    3.6540   61.7767   74.1343 H   0  0  0  0  0  0  0  0  0  0  0  0
    3.3416   59.8355   68.9634 H   0  0  0  0  0  0  0  0  0  0  0  0
    3.0816   56.6073   72.5343 H   0  0  0  0  0  0  0  0  0  0  0  0
    1.7660   56.3028   71.3479 H   0  0  0  0  0  0  0  0  0  0  0  0
    4.4412   55.8470   71.0805 H   0  0  0  0  0  0  0  0  0  0  0  0
    0.5346   54.2782   76.4289 H   0  0  0  0  0  0  0  0  0  0  0  0
    2.1124   56.8643   74.2838 H   0  0  0  0  0  0  0  0  0  0  0  0
   -0.2416   56.8445   73.4979 H   0  0  0  0  0  0  0  0  0  0  0  0
   -0.7738   56.7772   76.5209 H   0  0  0  0  0  0  0  0  0  0  0  0
   -1.5871   54.8124   74.3343 H   0  0  0  0  0  0  0  0  0  0  0  0
    0.0674   58.7419   75.6246 H   0  0  0  0  0  0  0  0  0  0  0  0
   -2.8129   57.2789   76.0637 H   0  0  0  0  0  0  0  0  0  0  0  0
   -1.5860   54.7099   77.2488 H   0  0  0  0  0  0  0  0  0  0  0  0
    0.9075   52.6679   74.1088 H   0  0  0  0  0  0  0  0  0  0  0  0
   -0.0017   52.1519   75.5860 H   0  0  0  0  0  0  0  0  0  0  0  0
   -2.0106   52.7200   74.6064 H   0  0  0  0  0  0  0  0  0  0  0  0
   -1.3002   53.6190   73.3751 H   0  0  0  0  0  0  0  0  0  0  0  0
   -1.1692   51.9422   73.3751 H   0  0  0  0  0  0  0  0  0  0  0  0
  2  1  1  0
  3  2  1  0
  4  3  1  0
  5  4  1  0
  6  5  1  0
  6  1  1  0
  7  2  1  0
  8  4  1  0
  9  6  1  0
 10  5  1  0
 11 10  1  0
 12 11  1  0
 13 12  1  0
 14 13  1  0
 15 14  1  0
 16 15  1  0
 16 11  1  0
 17 15  1  0
 18 16  1  0
 19 14  1  0
 20 13  1  0
 21 20  1  0
 22  1  1  0
 24 23  1  0
 25 24  1  0
 25 22  1  0
 26 25  1  0
 27 26  1  0
 28 27  1  0
 28 23  1  0
 29 26  1  0
 30 27  1  0
 31 28  1  0
 32 23  1  0
 33 32  1  0
  1 34  1  6
  2 35  1  1
  3 36  1  0
  3 37  1  0
  4 38  1  6
  5 39  1  1
  6 40  1  6
  7 41  1  0
  7 42  1  0
  7 43  1  0
  8 44  1  0
  8 45  1  0
  8 46  1  0
  9 47  1  0
 11 48  1  1
 13 49  1  6
 14 50  1  6
 15 51  1  1
 16 52  1  6
 17 53  1  0
 17 54  1  0
 17 55  1  0
 18 56  1  0
 19 57  1  0
 20 58  1  0
 20 59  1  0
 21 60  1  0
 23 61  1  1
 25 62  1  6
 26 63  1  6
 27 64  1  1
 28 65  1  6
 29 66  1  0
 30 67  1  0
 31 68  1  0
 32 69  1  0
 32 70  1  0
 33 71  1  0
 33 72  1  0
 33 73  1  0
M  CHG  4   7   1   8   1  17   1  33   1
M  END
>  <score>  (2) 
-7.119

$$$$
=
     RDKit          3D

 73 75  0  0  0  0  0  0  0  0999 V2000
    1.4880   67.2320   67.4330 C   0  0  2  0  0  0  0  0  0  0  0  0
   -0.0530   67.0630   67.5430 C   0  0  2  0  0  0  0  0  0  0  0  0
   -0.7940   68.3990   67.8010 C   0  0  0  0  0  0  0  0  0  0  0  0
    0.0940   69.6320   67.5670 C   0  0  2  0  0  0  0  0  0  0  0  0
    1.3270   69.6240   68.5110 C   0  0  1  0  0  0  0  0  0  0  0  0
    1.9700   68.2000   68.5430 C   0  0  1  0  0  0  0  0  0  0  0  0
   -0.3790   66.0960   68.6460 N   0  0  0  0  0  4  0  0  0  0  0  0
   -0.7150   70.8810   67.7980 N   0  0  0  0  0  4  0  0  0  0  0  0
    1.5840   67.5910   69.7930 O   0  0  0  0  0  0  0  0  0  0  0  0
    2.2420   70.6730   68.1010 O   0  0  0  0  0  0  0  0  0  0  0  0
    3.5930   70.1890   67.8770 C   0  0  1  0  0  0  0  0  0  0  0  0
    4.0930   70.6430   66.6320 O   0  0  0  0  0  0  0  0  0  0  0  0
    5.3090   69.9920   66.1960 C   0  0  1  0  0  0  0  0  0  0  0  0
    6.3000   69.7960   67.3670 C   0  0  2  0  0  0  0  0  0  0  0  0
    5.9720   70.8570   68.4260 C   0  0  1  0  0  0  0  0  0  0  0  0
    4.5550   70.6730   69.0040 C   0  0  1  0  0  0  0  0  0  0  0  0
    7.0230   70.8670   69.4950 N   0  0  0  0  0  4  0  0  0  0  0  0
    4.1670   71.9330   69.5630 O   0  0  0  0  0  0  0  0  0  0  0  0
    7.6600   69.9790   66.9870 O   0  0  0  0  0  0  0  0  0  0  0  0
    4.9760   68.6770   65.4670 C   0  0  0  0  0  0  0  0  0  0  0  0
    6.0200   68.3660   64.5370 O   0  0  0  0  0  0  0  0  0  0  0  0
    1.8310   67.7140   66.1150 O   0  0  0  0  0  0  0  0  0  0  0  0
    1.4390   68.7330   63.3850 C   0  0  1  0  0  0  0  0  0  0  0  0
    0.5480   67.8800   64.1270 O   0  0  0  0  0  0  0  0  0  0  0  0
    1.1980   66.9720   65.0370 C   0  0  1  0  0  0  0  0  0  0  0  0
    2.1770   66.0670   64.2550 C   0  0  1  0  0  0  0  0  0  0  0  0
    3.2700   66.9630   63.6800 C   0  0  2  0  0  0  0  0  0  0  0  0
    2.6430   68.0050   62.7540 C   0  0  2  0  0  0  0  0  0  0  0  0
    2.7610   65.0640   65.0880 O   0  0  0  0  0  0  0  0  0  0  0  0
    4.2200   66.2020   62.9280 O   0  0  0  0  0  0  0  0  0  0  0  0
    3.6270   68.9810   62.4110 O   0  0  0  0  0  0  0  0  0  0  0  0
    0.6400   69.4070   62.2370 C   0  0  0  0  0  0  0  0  0  0  0  0
    1.2840   69.1650   60.9170 N   0  0  0  0  0  4  0  0  0  0  0  0
    1.9924   66.2649   67.5756 H   0  0  0  0  0  0  0  0  0  0  0  0
   -0.3998   66.6798   66.5720 H   0  0  0  0  0  0  0  0  0  0  0  0
   -1.6594   68.4565   67.1243 H   0  0  0  0  0  0  0  0  0  0  0  0
   -1.0986   68.4081   68.8579 H   0  0  0  0  0  0  0  0  0  0  0  0
    0.4584   69.6068   66.5294 H   0  0  0  0  0  0  0  0  0  0  0  0
    1.0314   69.8423   69.5478 H   0  0  0  0  0  0  0  0  0  0  0  0
    3.0508   68.3479   68.4017 H   0  0  0  0  0  0  0  0  0  0  0  0
   -0.2258   66.5505   69.5575 H   0  0  0  0  0  0  0  0  0  0  0  0
   -1.3643   65.8060   68.5683 H   0  0  0  0  0  0  0  0  0  0  0  0
    0.2296   65.2687   68.5683 H   0  0  0  0  0  0  0  0  0  0  0  0
   -0.8185   71.0407   68.8103 H   0  0  0  0  0  0  0  0  0  0  0  0
   -0.2341   71.6855   67.3709 H   0  0  0  0  0  0  0  0  0  0  0  0
   -1.6458   70.7711   67.3709 H   0  0  0  0  0  0  0  0  0  0  0  0
    1.9286   68.1346   70.5452 H   0  0  0  0  0  0  0  0  0  0  0  0
    3.5474   69.0899   67.8790 H   0  0  0  0  0  0  0  0  0  0  0  0
    5.8216   70.6457   65.4750 H   0  0  0  0  0  0  0  0  0  0  0  0
    6.1903   68.7638   67.7311 H   0  0  0  0  0  0  0  0  0  0  0  0
    5.9775   71.8429   67.9381 H   0  0  0  0  0  0  0  0  0  0  0  0
    4.5202   69.9061   69.7919 H   0  0  0  0  0  0  0  0  0  0  0  0
    6.5713   70.8627   70.4206 H   0  0  0  0  0  0  0  0  0  0  0  0
    7.6179   70.0316   69.3994 H   0  0  0  0  0  0  0  0  0  0  0  0
    7.6019   71.7135   69.3994 H   0  0  0  0  0  0  0  0  0  0  0  0
    4.1848   71.8751   70.5511 H   0  0  0  0  0  0  0  0  0  0  0  0
    8.2221   70.0546   67.7985 H   0  0  0  0  0  0  0  0  0  0  0  0
    4.8860   67.8635   66.2020 H   0  0  0  0  0  0  0  0  0  0  0  0
    4.0255   68.7901   64.9250 H   0  0  0  0  0  0  0  0  0  0  0  0
    6.8413   68.1213   65.0326 H   0  0  0  0  0  0  0  0  0  0  0  0
    1.8429   69.4550   64.1099 H   0  0  0  0  0  0  0  0  0  0  0  0
    0.4597   66.3082   65.5106 H   0  0  0  0  0  0  0  0  0  0  0  0
    1.6279   65.5415   63.4598 H   0  0  0  0  0  0  0  0  0  0  0  0
    3.7854   67.4504   64.5207 H   0  0  0  0  0  0  0  0  0  0  0  0
    2.2789   67.4633   61.8686 H   0  0  0  0  0  0  0  0  0  0  0  0
    2.6221   65.3026   66.0387 H   0  0  0  0  0  0  0  0  0  0  0  0
    4.8220   65.7198   63.5486 H   0  0  0  0  0  0  0  0  0  0  0  0
    4.0136   69.3645   63.2378 H   0  0  0  0  0  0  0  0  0  0  0  0
   -0.3796   68.9945   62.2195 H   0  0  0  0  0  0  0  0  0  0  0  0
    0.6173   70.4916   62.4192 H   0  0  0  0  0  0  0  0  0  0  0  0
    2.2387   68.8063   61.0614 H   0  0  0  0  0  0  0  0  0  0  0  0
    0.7337   68.4734   60.3881 H   0  0  0  0  0  0  0  0  0  0  0  0
    1.3253   70.0479   60.3881 H   0  0  0  0  0  0  0  0  0  0  0  0
  2  1  1  0
  3  2  1  0
  4  3  1  0
  5  4  1  0
  6  5  1  0
  6  1  1  0
  7  2  1  0
  8  4  1  0
  9  6  1  0
 10  5  1  0
 11 10  1  0
 12 11  1  0
 13 12  1  0
 14 13  1  0
 15 14  1  0
 16 15  1  0
 16 11  1  0
 17 15  1  0
 18 16  1  0
 19 14  1  0
 20 13  1  0
 21 20  1  0
 22  1  1  0
 24 23  1  0
 25 24  1  0
 25 22  1  0
 26 25  1  0
 27 26  1  0
 28 27  1  0
 28 23  1  0
 29 26  1  0
 30 27  1  0
 31 28  1  0
 32 23  1  0
 33 32  1  0
  1 34  1  1
  2 35  1  6
  3 36  1  0
  3 37  1  0
  4 38  1  6
  5 39  1  1
  6 40  1  1
  7 41  1  0
  7 42  1  0
  7 43  1  0
  8 44  1  0
  8 45  1  0
  8 46  1  0
  9 47  1  0
 11 48  1  6
 13 49  1  6
 14 50  1  1
 15 51  1  6
 16 52  1  1
 17 53  1  0
 17 54  1  0
 17 55  1  0
 18 56  1  0
 19 57  1  0
 20 58  1  0
 20 59  1  0
 21 60  1  0
 23 61  1  1
 25 62  1  1
 26 63  1  6
 27 64  1  1
 28 65  1  6
 29 66  1  0
 30 67  1  0
 31 68  1  0
 32 69  1  0
 32 70  1  0
 33 71  1  0
 33 72  1  0
 33 73  1  0
M  CHG  4   7   1   8   1  17   1  33   1
M  END
>  <score>  (3) 
-6.996

$$$$
=
     RDKit          3D

 73 75  0  0  0  0  0  0  0  0999 V2000
    1.8490   59.5930   75.3230 C   0  0  2  0  0  0  0  0  0  0  0  0
    2.7940   60.2400   76.3730 C   0  0  2  0  0  0  0  0  0  0  0  0
    3.7830   59.2290   77.0070 C   0  0  0  0  0  0  0  0  0  0  0  0
    3.8480   57.8970   76.2430 C   0  0  2  0  0  0  0  0  0  0  0  0
    2.4620   57.1960   76.2120 C   0  0  1  0  0  0  0  0  0  0  0  0
    1.3440   58.2330   75.8690 C   0  0  1  0  0  0  0  0  0  0  0  0
    1.9800   60.8820   77.4620 N   0  0  0  0  0  4  0  0  0  0  0  0
    4.8590   56.9930   76.8980 N   0  0  0  0  0  4  0  0  0  0  0  0
    0.6550   58.5330   77.1000 O   0  0  0  0  0  0  0  0  0  0  0  0
    2.5210   56.0710   75.2980 O   0  0  0  0  0  0  0  0  0  0  0  0
    1.3630   55.2010   75.3960 C   0  0  1  0  0  0  0  0  0  0  0  0
    0.2220   55.8100   74.8220 O   0  0  0  0  0  0  0  0  0  0  0  0
   -1.0300   55.1470   75.1170 C   0  0  1  0  0  0  0  0  0  0  0  0
   -0.8910   53.6090   75.0390 C   0  0  2  0  0  0  0  0  0  0  0  0
    0.2900   53.3030   74.1090 C   0  0  1  0  0  0  0  0  0  0  0  0
    1.6190   53.8440   74.6720 C   0  0  1  0  0  0  0  0  0  0  0  0
    0.3560   51.8340   73.8160 N   0  0  0  0  0  4  0  0  0  0  0  0
    2.5210   53.9670   73.5660 O   0  0  0  0  0  0  0  0  0  0  0  0
   -2.0400   52.9690   74.4920 O   0  0  0  0  0  0  0  0  0  0  0  0
   -1.5800   55.6310   76.4710 C   0  0  0  0  0  0  0  0  0  0  0  0
   -1.8620   57.0340   76.4030 O   0  0  0  0  0  0  0  0  0  0  0  0
    2.5480   59.4420   74.0690 O   0  0  0  0  0  0  0  0  0  0  0  0
    2.7720   60.9050   71.5280 C   0  0  1  0  0  0  0  0  0  0  0  0
    1.5590   60.4860   72.1820 O   0  0  0  0  0  0  0  0  0  0  0  0
    1.6680   59.2580   72.9270 C   0  0  1  0  0  0  0  0  0  0  0  0
    2.1140   58.1180   71.9820 C   0  0  1  0  0  0  0  0  0  0  0  0
    3.5190   58.4530   71.4910 C   0  0  2  0  0  0  0  0  0  0  0  0
    3.4960   59.7890   70.7490 C   0  0  2  0  0  0  0  0  0  0  0  0
    2.1210   56.8490   72.6400 O   0  0  0  0  0  0  0  0  0  0  0  0
    4.0080   57.4480   70.5980 O   0  0  0  0  0  0  0  0  0  0  0  0
    4.8370   60.2130   70.5020 O   0  0  0  0  0  0  0  0  0  0  0  0
    2.4270   62.0370   70.5230 C   0  0  0  0  0  0  0  0  0  0  0  0
    2.6910   61.6110   69.1210 N   0  0  0  0  0  4  0  0  0  0  0  0
    0.9759   60.2371   75.1415 H   0  0  0  0  0  0  0  0  0  0  0  0
    3.3928   60.9913   75.8373 H   0  0  0  0  0  0  0  0  0  0  0  0
    4.7870   59.6783   77.0153 H   0  0  0  0  0  0  0  0  0  0  0  0
    3.4245   59.0095   78.0235 H   0  0  0  0  0  0  0  0  0  0  0  0
    4.1474   58.1072   75.2056 H   0  0  0  0  0  0  0  0  0  0  0  0
    2.2025   56.7914   77.2014 H   0  0  0  0  0  0  0  0  0  0  0  0
    0.7289   57.7723   75.0820 H   0  0  0  0  0  0  0  0  0  0  0  0
    2.3464   60.5930   78.3802 H   0  0  0  0  0  0  0  0  0  0  0  0
    2.0388   61.9067   77.3759 H   0  0  0  0  0  0  0  0  0  0  0  0
    0.9972   60.5861   77.3759 H   0  0  0  0  0  0  0  0  0  0  0  0
    4.7746   57.0684   77.9218 H   0  0  0  0  0  0  0  0  0  0  0  0
    4.6863   56.0193   76.6101 H   0  0  0  0  0  0  0  0  0  0  0  0
    5.8074   57.2731   76.6101 H   0  0  0  0  0  0  0  0  0  0  0  0
    1.2278   58.2836   77.8680 H   0  0  0  0  0  0  0  0  0  0  0  0
    1.1855   55.0191   76.4662 H   0  0  0  0  0  0  0  0  0  0  0  0
   -1.7663   55.4206   74.3469 H   0  0  0  0  0  0  0  0  0  0  0  0
   -0.7530   53.2321   76.0631 H   0  0  0  0  0  0  0  0  0  0  0  0
    0.1228   53.8292   73.1576 H   0  0  0  0  0  0  0  0  0  0  0  0
    2.0606   53.1704   75.4211 H   0  0  0  0  0  0  0  0  0  0  0  0
    0.3796   51.3081   74.7013 H   0  0  0  0  0  0  0  0  0  0  0  0
   -0.4733   51.5547   73.2727 H   0  0  0  0  0  0  0  0  0  0  0  0
    1.2070   51.6302   73.2727 H   0  0  0  0  0  0  0  0  0  0  0  0
    3.4428   54.0927   73.9044 H   0  0  0  0  0  0  0  0  0  0  0  0
   -2.6193   52.6463   75.2271 H   0  0  0  0  0  0  0  0  0  0  0  0
   -2.5041   55.0832   76.7074 H   0  0  0  0  0  0  0  0  0  0  0  0
   -0.8312   55.4472   77.2555 H   0  0  0  0  0  0  0  0  0  0  0  0
   -1.9357   57.4006   77.3197 H   0  0  0  0  0  0  0  0  0  0  0  0
    3.4528   61.2321   72.3277 H   0  0  0  0  0  0  0  0  0  0  0  0
    0.6891   58.9685   73.3368 H   0  0  0  0  0  0  0  0  0  0  0  0
    1.4031   58.0410   71.1461 H   0  0  0  0  0  0  0  0  0  0  0  0
    4.1806   58.5064   72.3682 H   0  0  0  0  0  0  0  0  0  0  0  0
    2.9419   59.6212   69.8137 H   0  0  0  0  0  0  0  0  0  0  0  0
    2.1202   56.9857   73.6205 H   0  0  0  0  0  0  0  0  0  0  0  0
    4.3757   56.6923   71.1212 H   0  0  0  0  0  0  0  0  0  0  0  0
    5.3008   60.3597   71.3642 H   0  0  0  0  0  0  0  0  0  0  0  0
    1.3627   62.2954   70.6251 H   0  0  0  0  0  0  0  0  0  0  0  0
    3.0607   62.9075   70.7478 H   0  0  0  0  0  0  0  0  0  0  0  0
    3.2336   60.7355   69.1246 H   0  0  0  0  0  0  0  0  0  0  0  0
    1.7962   61.4584   68.6343 H   0  0  0  0  0  0  0  0  0  0  0  0
    3.2259   62.3444   68.6343 H   0  0  0  0  0  0  0  0  0  0  0  0
  2  1  1  0
  3  2  1  0
  4  3  1  0
  5  4  1  0
  6  5  1  0
  6  1  1  0
  7  2  1  0
  8  4  1  0
  9  6  1  0
 10  5  1  0
 11 10  1  0
 12 11  1  0
 13 12  1  0
 14 13  1  0
 15 14  1  0
 16 15  1  0
 16 11  1  0
 17 15  1  0
 18 16  1  0
 19 14  1  0
 20 13  1  0
 21 20  1  0
 22  1  1  0
 24 23  1  0
 25 24  1  0
 25 22  1  0
 26 25  1  0
 27 26  1  0
 28 27  1  0
 28 23  1  0
 29 26  1  0
 30 27  1  0
 31 28  1  0
 32 23  1  0
 33 32  1  0
  1 34  1  6
  2 35  1  6
  3 36  1  0
  3 37  1  0
  4 38  1  6
  5 39  1  1
  6 40  1  6
  7 41  1  0
  7 42  1  0
  7 43  1  0
  8 44  1  0
  8 45  1  0
  8 46  1  0
  9 47  1  0
 11 48  1  1
 13 49  1  6
 14 50  1  1
 15 51  1  6
 16 52  1  1
 17 53  1  0
 17 54  1  0
 17 55  1  0
 18 56  1  0
 19 57  1  0
 20 58  1  0
 20 59  1  0
 21 60  1  0
 23 61  1  1
 25 62  1  1
 26 63  1  6
 27 64  1  1
 28 65  1  6
 29 66  1  0
 30 67  1  0
 31 68  1  0
 32 69  1  0
 32 70  1  0
 33 71  1  0
 33 72  1  0
 33 73  1  0
M  CHG  4   7   1   8   1  17   1  33   1
M  END
>  <score>  (4) 
-6.967

$$$$
=
     RDKit          3D

 73 75  0  0  0  0  0  0  0  0999 V2000
    1.8500   58.7610   76.3730 C   0  0  2  0  0  0  0  0  0  0  0  0
    0.6000   59.2400   77.1610 C   0  0  2  0  0  0  0  0  0  0  0  0
   -0.3980   60.0440   76.2900 C   0  0  0  0  0  0  0  0  0  0  0  0
   -0.1140   59.9180   74.7840 C   0  0  2  0  0  0  0  0  0  0  0  0
    1.3030   60.4480   74.4320 C   0  0  1  0  0  0  0  0  0  0  0  0
    2.3470   59.9160   75.4650 C   0  0  1  0  0  0  0  0  0  0  0  0
    1.0290   60.0870   78.3270 N   0  0  0  0  0  4  0  0  0  0  0  0
   -1.1510   60.6910   74.0140 N   0  0  0  0  0  4  0  0  0  0  0  0
    2.6580   61.0090   76.3530 O   0  0  0  0  0  0  0  0  0  0  0  0
    1.6090   60.1020   73.0570 O   0  0  0  0  0  0  0  0  0  0  0  0
    2.5120   61.0460   72.4240 C   0  0  1  0  0  0  0  0  0  0  0  0
    3.1140   60.4790   71.2750 O   0  0  0  0  0  0  0  0  0  0  0  0
    4.2280   61.2320   70.7410 C   0  0  1  0  0  0  0  0  0  0  0  0
    3.9460   62.7530   70.7570 C   0  0  2  0  0  0  0  0  0  0  0  0
    2.4220   62.9350   70.7400 C   0  0  1  0  0  0  0  0  0  0  0  0
    1.7600   62.3440   72.0000 C   0  0  1  0  0  0  0  0  0  0  0  0
    2.0730   64.3800   70.5410 N   0  0  0  0  0  4  0  0  0  0  0  0
    0.3850   62.1080   71.6740 O   0  0  0  0  0  0  0  0  0  0  0  0
    4.4690   63.4320   69.6200 O   0  0  0  0  0  0  0  0  0  0  0  0
    5.5250   60.8560   71.4810 C   0  0  0  0  0  0  0  0  0  0  0  0
    5.6670   61.6740   72.6490 O   0  0  0  0  0  0  0  0  0  0  0  0
    1.5200   57.5820   75.6080 O   0  0  0  0  0  0  0  0  0  0  0  0
   -0.5550   55.4980   75.6070 C   0  0  1  0  0  0  0  0  0  0  0  0
    0.2560   55.9120   76.7220 O   0  0  0  0  0  0  0  0  0  0  0  0
    1.5840   56.3490   76.3750 C   0  0  1  0  0  0  0  0  0  0  0  0
    2.3310   55.2080   75.6460 C   0  0  1  0  0  0  0  0  0  0  0  0
    1.6010   54.9490   74.3310 C   0  0  2  0  0  0  0  0  0  0  0  0
    0.1540   54.5490   74.6190 C   0  0  2  0  0  0  0  0  0  0  0  0
    3.6950   55.5420   75.3850 O   0  0  0  0  0  0  0  0  0  0  0  0
    2.2240   53.8950   73.5930 O   0  0  0  0  0  0  0  0  0  0  0  0
   -0.5840   54.5420   73.3980 O   0  0  0  0  0  0  0  0  0  0  0  0
   -1.8080   54.7620   76.1520 C   0  0  0  0  0  0  0  0  0  0  0  0
   -2.9690   54.9210   75.2330 N   0  0  0  0  0  4  0  0  0  0  0  0
    2.6615   58.4919   77.0652 H   0  0  0  0  0  0  0  0  0  0  0  0
    0.0783   58.3347   77.5049 H   0  0  0  0  0  0  0  0  0  0  0  0
   -1.4145   59.6730   76.4878 H   0  0  0  0  0  0  0  0  0  0  0  0
   -0.2902   61.1052   76.5587 H   0  0  0  0  0  0  0  0  0  0  0  0
   -0.1579   58.8536   74.5099 H   0  0  0  0  0  0  0  0  0  0  0  0
    1.3423   61.5450   74.5035 H   0  0  0  0  0  0  0  0  0  0  0  0
    3.1914   59.5296   74.8754 H   0  0  0  0  0  0  0  0  0  0  0  0
    0.7867   59.6086   79.2064 H   0  0  0  0  0  0  0  0  0  0  0  0
    2.0473   60.2363   78.2867 H   0  0  0  0  0  0  0  0  0  0  0  0
    0.5468   60.9963   78.2867 H   0  0  0  0  0  0  0  0  0  0  0  0
   -1.7858   61.1642   74.6728 H   0  0  0  0  0  0  0  0  0  0  0  0
   -0.6858   61.3931   73.4212 H   0  0  0  0  0  0  0  0  0  0  0  0
   -1.6910   60.0446   73.4212 H   0  0  0  0  0  0  0  0  0  0  0  0
    2.5719   60.7063   77.2917 H   0  0  0  0  0  0  0  0  0  0  0  0
    3.2875   61.2951   73.1633 H   0  0  0  0  0  0  0  0  0  0  0  0
    4.3633   60.9631   69.6830 H   0  0  0  0  0  0  0  0  0  0  0  0
    4.4290   63.1755   71.6504 H   0  0  0  0  0  0  0  0  0  0  0  0
    2.0170   62.3699   69.8876 H   0  0  0  0  0  0  0  0  0  0  0  0
    1.8132   63.0272   72.8604 H   0  0  0  0  0  0  0  0  0  0  0  0
    1.9629   64.8360   71.4580 H   0  0  0  0  0  0  0  0  0  0  0  0
    2.8257   64.8456   70.0142 H   0  0  0  0  0  0  0  0  0  0  0  0
    1.1907   64.4507   70.0142 H   0  0  0  0  0  0  0  0  0  0  0  0
   -0.1410   62.0177   72.5078 H   0  0  0  0  0  0  0  0  0  0  0  0
    5.0450   64.1799   69.9183 H   0  0  0  0  0  0  0  0  0  0  0  0
    5.4832   59.7977   71.7782 H   0  0  0  0  0  0  0  0  0  0  0  0
    6.3854   61.0180   70.8150 H   0  0  0  0  0  0  0  0  0  0  0  0
    5.5696   61.1128   73.4587 H   0  0  0  0  0  0  0  0  0  0  0  0
   -0.8017   56.4152   75.0520 H   0  0  0  0  0  0  0  0  0  0  0  0
    2.1617   56.5798   77.2822 H   0  0  0  0  0  0  0  0  0  0  0  0
    2.3382   54.3130   76.2854 H   0  0  0  0  0  0  0  0  0  0  0  0
    1.6372   55.8734   73.7359 H   0  0  0  0  0  0  0  0  0  0  0  0
    0.1887   53.5513   75.0809 H   0  0  0  0  0  0  0  0  0  0  0  0
    4.1758   55.6597   76.2424 H   0  0  0  0  0  0  0  0  0  0  0  0
    2.6130   53.2369   74.2220 H   0  0  0  0  0  0  0  0  0  0  0  0
   -1.5535   54.5328   73.5984 H   0  0  0  0  0  0  0  0  0  0  0  0
   -1.5777   53.6915   76.2571 H   0  0  0  0  0  0  0  0  0  0  0  0
   -2.0725   55.1997   77.1259 H   0  0  0  0  0  0  0  0  0  0  0  0
   -3.8304   55.0390   75.7853 H   0  0  0  0  0  0  0  0  0  0  0  0
   -2.8257   55.7502   74.6391 H   0  0  0  0  0  0  0  0  0  0  0  0
   -3.0539   54.0838   74.6391 H   0  0  0  0  0  0  0  0  0  0  0  0
  2  1  1  0
  3  2  1  0
  4  3  1  0
  5  4  1  0
  6  5  1  0
  6  1  1  0
  7  2  1  0
  8  4  1  0
  9  6  1  0
 10  5  1  0
 11 10  1  0
 12 11  1  0
 13 12  1  0
 14 13  1  0
 15 14  1  0
 16 15  1  0
 16 11  1  0
 17 15  1  0
 18 16  1  0
 19 14  1  0
 20 13  1  0
 21 20  1  0
 22  1  1  0
 24 23  1  0
 25 24  1  0
 25 22  1  0
 26 25  1  0
 27 26  1  0
 28 27  1  0
 28 23  1  0
 29 26  1  0
 30 27  1  0
 31 28  1  0
 32 23  1  0
 33 32  1  0
  1 34  1  1
  2 35  1  1
  3 36  1  0
  3 37  1  0
  4 38  1  6
  5 39  1  6
  6 40  1  6
  7 41  1  0
  7 42  1  0
  7 43  1  0
  8 44  1  0
  8 45  1  0
  8 46  1  0
  9 47  1  0
 11 48  1  1
 13 49  1  6
 14 50  1  1
 15 51  1  6
 16 52  1  1
 17 53  1  0
 17 54  1  0
 17 55  1  0
 18 56  1  0
 19 57  1  0
 20 58  1  0
 20 59  1  0
 21 60  1  0
 23 61  1  6
 25 62  1  1
 26 63  1  1
 27 64  1  6
 28 65  1  1
 29 66  1  0
 30 67  1  0
 31 68  1  0
 32 69  1  0
 32 70  1  0
 33 71  1  0
 33 72  1  0
 33 73  1  0
M  CHG  4   7   1   8   1  17   1  33   1
M  END
>  <score>  (5) 
-6.666

$$$$
=
     RDKit          3D

 73 75  0  0  0  0  0  0  0  0999 V2000
    0.7160   58.6160   73.7570 C   0  0  2  0  0  0  0  0  0  0  0  0
    0.8780   57.4580   74.7800 C   0  0  2  0  0  0  0  0  0  0  0  0
    2.3400   57.2690   75.2570 C   0  0  0  0  0  0  0  0  0  0  0  0
    3.2500   58.4510   74.8840 C   0  0  2  0  0  0  0  0  0  0  0  0
    3.3110   58.6500   73.3450 C   0  0  1  0  0  0  0  0  0  0  0  0
    1.8770   58.5510   72.7330 C   0  0  1  0  0  0  0  0  0  0  0  0
    0.3870   56.1730   74.1740 N   0  0  0  0  0  4  0  0  0  0  0  0
    4.6350   58.2040   75.4210 N   0  0  0  0  0  4  0  0  0  0  0  0
    1.7760   57.2590   72.1010 O   0  0  0  0  0  0  0  0  0  0  0  0
    3.9890   59.9000   73.0570 O   0  0  0  0  0  0  0  0  0  0  0  0
    3.2320   60.7620   72.1670 C   0  0  1  0  0  0  0  0  0  0  0  0
    3.1330   62.0720   72.6930 O   0  0  0  0  0  0  0  0  0  0  0  0
    2.1720   62.9210   72.0230 C   0  0  1  0  0  0  0  0  0  0  0  0
    2.2250   62.7400   70.4880 C   0  0  2  0  0  0  0  0  0  0  0  0
    3.6270   62.2230   70.1370 C   0  0  1  0  0  0  0  0  0  0  0  0
    3.9010   60.8410   70.7610 C   0  0  1  0  0  0  0  0  0  0  0  0
    3.8250   62.2230   68.6510 N   0  0  0  0  0  4  0  0  0  0  0  0
    5.3240   60.6830   70.8140 O   0  0  0  0  0  0  0  0  0  0  0  0
    2.0280   63.9550   69.7730 O   0  0  0  0  0  0  0  0  0  0  0  0
    0.7650   62.6920   72.6050 C   0  0  0  0  0  0  0  0  0  0  0  0
   -0.0860   63.7900   72.2520 O   0  0  0  0  0  0  0  0  0  0  0  0
    0.6850   59.8800   74.4550 O   0  0  0  0  0  0  0  0  0  0  0  0
    0.4650   62.1240   76.3420 C   0  0  1  0  0  0  0  0  0  0  0  0
    0.5510   60.7250   76.6680 O   0  0  0  0  0  0  0  0  0  0  0  0
   -0.0550   59.8410   75.7050 C   0  0  1  0  0  0  0  0  0  0  0  0
   -1.5510   60.1980   75.5460 C   0  0  1  0  0  0  0  0  0  0  0  0
   -1.6280   61.6020   74.9550 C   0  0  2  0  0  0  0  0  0  0  0  0
   -0.9350   62.5900   75.8930 C   0  0  2  0  0  0  0  0  0  0  0  0
   -2.2340   59.2750   74.6940 O   0  0  0  0  0  0  0  0  0  0  0  0
   -2.9860   62.0170   74.7830 O   0  0  0  0  0  0  0  0  0  0  0  0
   -0.7980   63.8480   75.2330 O   0  0  0  0  0  0  0  0  0  0  0  0
    0.8590   62.9500   77.5960 C   0  0  0  0  0  0  0  0  0  0  0  0
    1.5300   64.2230   77.2140 N   0  0  0  0  0  4  0  0  0  0  0  0
   -0.2325   58.5158   73.2089 H   0  0  0  0  0  0  0  0  0  0  0  0
    0.2784   57.7287   75.6616 H   0  0  0  0  0  0  0  0  0  0  0  0
    2.3403   57.1578   76.3514 H   0  0  0  0  0  0  0  0  0  0  0  0
    2.7378   56.3753   74.7540 H   0  0  0  0  0  0  0  0  0  0  0  0
    2.8324   59.3660   75.3295 H   0  0  0  0  0  0  0  0  0  0  0  0
    3.8957   57.8504   72.8667 H   0  0  0  0  0  0  0  0  0  0  0  0
    1.7693   59.4155   72.0614 H   0  0  0  0  0  0  0  0  0  0  0  0
    0.1351   55.5138   74.9243 H   0  0  0  0  0  0  0  0  0  0  0  0
   -0.4409   56.3625   73.5912 H   0  0  0  0  0  0  0  0  0  0  0  0
    1.1303   55.7622   73.5912 H   0  0  0  0  0  0  0  0  0  0  0  0
    4.6099   58.2085   76.4507 H   0  0  0  0  0  0  0  0  0  0  0  0
    4.9736   57.2894   75.0898 H   0  0  0  0  0  0  0  0  0  0  0  0
    5.2689   58.9452   75.0898 H   0  0  0  0  0  0  0  0  0  0  0  0
    1.7210   56.5554   72.7953 H   0  0  0  0  0  0  0  0  0  0  0  0
    2.2269   60.3251   72.0724 H   0  0  0  0  0  0  0  0  0  0  0  0
    2.4374   63.9720   72.2097 H   0  0  0  0  0  0  0  0  0  0  0  0
    1.4177   62.0493   70.2029 H   0  0  0  0  0  0  0  0  0  0  0  0
    4.3665   62.9093   70.5752 H   0  0  0  0  0  0  0  0  0  0  0  0
    3.4709   60.0215   70.1665 H   0  0  0  0  0  0  0  0  0  0  0  0
    3.8703   61.2519   68.3107 H   0  0  0  0  0  0  0  0  0  0  0  0
    3.0367   62.7085   68.1996 H   0  0  0  0  0  0  0  0  0  0  0  0
    4.7040   62.7085   68.4217 H   0  0  0  0  0  0  0  0  0  0  0  0
    5.6174   60.6504   71.7590 H   0  0  0  0  0  0  0  0  0  0  0  0
    1.9073   64.6995   70.4143 H   0  0  0  0  0  0  0  0  0  0  0  0
    0.3475   61.7595   72.1973 H   0  0  0  0  0  0  0  0  0  0  0  0
    0.8305   62.6181   73.7006 H   0  0  0  0  0  0  0  0  0  0  0  0
   -0.4227   64.2245   73.0754 H   0  0  0  0  0  0  0  0  0  0  0  0
    1.1448   62.2818   75.4917 H   0  0  0  0  0  0  0  0  0  0  0  0
   -0.0099   58.7999   76.0571 H   0  0  0  0  0  0  0  0  0  0  0  0
   -2.0416   60.1488   76.5293 H   0  0  0  0  0  0  0  0  0  0  0  0
   -1.1316   61.5841   73.9735 H   0  0  0  0  0  0  0  0  0  0  0  0
   -1.5649   62.6668   76.7915 H   0  0  0  0  0  0  0  0  0  0  0  0
   -2.7225   58.6149   75.2469 H   0  0  0  0  0  0  0  0  0  0  0  0
   -3.4066   62.1455   75.6699 H   0  0  0  0  0  0  0  0  0  0  0  0
   -0.7196   64.5680   75.9080 H   0  0  0  0  0  0  0  0  0  0  0  0
   -0.0487   63.1819   78.1725 H   0  0  0  0  0  0  0  0  0  0  0  0
    1.5601   62.3543   78.1989 H   0  0  0  0  0  0  0  0  0  0  0  0
    1.8009   64.7370   78.0645 H   0  0  0  0  0  0  0  0  0  0  0  0
    2.3706   64.0142   76.6566 H   0  0  0  0  0  0  0  0  0  0  0  0
    0.8827   64.7985   76.6566 H   0  0  0  0  0  0  0  0  0  0  0  0
  2  1  1  0
  3  2  1  0
  4  3  1  0
  5  4  1  0
  6  5  1  0
  6  1  1  0
  7  2  1  0
  8  4  1  0
  9  6  1  0
 10  5  1  0
 11 10  1  0
 12 11  1  0
 13 12  1  0
 14 13  1  0
 15 14  1  0
 16 15  1  0
 16 11  1  0
 17 15  1  0
 18 16  1  0
 19 14  1  0
 20 13  1  0
 21 20  1  0
 22  1  1  0
 24 23  1  0
 25 24  1  0
 25 22  1  0
 26 25  1  0
 27 26  1  0
 28 27  1  0
 28 23  1  0
 29 26  1  0
 30 27  1  0
 31 28  1  0
 32 23  1  0
 33 32  1  0
  1 34  1  6
  2 35  1  1
  3 36  1  0
  3 37  1  0
  4 38  1  1
  5 39  1  6
  6 40  1  6
  7 41  1  0
  7 42  1  0
  7 43  1  0
  8 44  1  0
  8 45  1  0
  8 46  1  0
  9 47  1  0
 11 48  1  6
 13 49  1  6
 14 50  1  6
 15 51  1  1
 16 52  1  6
 17 53  1  0
 17 54  1  0
 17 55  1  0
 18 56  1  0
 19 57  1  0
 20 58  1  0
 20 59  1  0
 21 60  1  0
 23 61  1  6
 25 62  1  1
 26 63  1  1
 27 64  1  6
 28 65  1  1
 29 66  1  0
 30 67  1  0
 31 68  1  0
 32 69  1  0
 32 70  1  0
 33 71  1  0
 33 72  1  0
 33 73  1  0
M  CHG  4   7   1   8   1  17   1  33   1
M  END
>  <score>  (6) 
-6.625

$$$$
=
     RDKit          3D

 73 75  0  0  0  0  0  0  0  0999 V2000
    3.2960   61.9220   71.9020 C   0  0  2  0  0  0  0  0  0  0  0  0
    3.0630   61.3230   70.4870 C   0  0  2  0  0  0  0  0  0  0  0  0
    3.2380   59.7840   70.4420 C   0  0  0  0  0  0  0  0  0  0  0  0
    3.2770   59.1440   71.8390 C   0  0  2  0  0  0  0  0  0  0  0  0
    4.4610   59.6970   72.6790 C   0  0  1  0  0  0  0  0  0  0  0  0
    4.5420   61.2510   72.5350 C   0  0  1  0  0  0  0  0  0  0  0  0
    4.0090   61.9570   69.5060 N   0  0  0  0  0  4  0  0  0  0  0  0
    3.4060   57.6500   71.7010 N   0  0  0  0  0  4  0  0  0  0  0  0
    5.6400   61.5360   71.6430 O   0  0  0  0  0  0  0  0  0  0  0  0
    4.3230   59.2400   74.0490 O   0  0  0  0  0  0  0  0  0  0  0  0
    2.9670   58.8370   74.3760 C   0  0  1  0  0  0  0  0  0  0  0  0
    2.9490   57.5520   74.9670 O   0  0  0  0  0  0  0  0  0  0  0  0
    1.6370   56.9520   75.0710 C   0  0  1  0  0  0  0  0  0  0  0  0
    0.5720   57.9850   75.5090 C   0  0  2  0  0  0  0  0  0  0  0  0
    1.3030   59.1010   76.2670 C   0  0  1  0  0  0  0  0  0  0  0  0
    2.3050   59.8470   75.3630 C   0  0  1  0  0  0  0  0  0  0  0  0
    0.3160   60.0310   76.9040 N   0  0  0  0  0  4  0  0  0  0  0  0
    3.2550   60.4800   76.2290 O   0  0  0  0  0  0  0  0  0  0  0  0
   -0.4060   57.4430   76.3910 O   0  0  0  0  0  0  0  0  0  0  0  0
    1.2730   56.2390   73.7550 C   0  0  0  0  0  0  0  0  0  0  0  0
    2.3540   55.3880   73.3550 O   0  0  0  0  0  0  0  0  0  0  0  0
    2.1160   61.7320   72.7110 O   0  0  0  0  0  0  0  0  0  0  0  0
   -0.5710   61.1870   73.7760 C   0  0  1  0  0  0  0  0  0  0  0  0
   -0.1440   61.0760   72.4050 O   0  0  0  0  0  0  0  0  0  0  0  0
    0.8740   62.0170   72.0110 C   0  0  1  0  0  0  0  0  0  0  0  0
    0.3600   63.4580   72.2320 C   0  0  1  0  0  0  0  0  0  0  0  0
    0.1510   63.6470   73.7310 C   0  0  2  0  0  0  0  0  0  0  0  0
   -0.8690   62.6270   74.2380 C   0  0  2  0  0  0  0  0  0  0  0  0
    1.2810   64.4350   71.7430 O   0  0  0  0  0  0  0  0  0  0  0  0
   -0.3360   64.9590   74.0240 O   0  0  0  0  0  0  0  0  0  0  0  0
   -0.8830   62.6460   75.6650 O   0  0  0  0  0  0  0  0  0  0  0  0
   -1.8680   60.3530   73.9590 C   0  0  0  0  0  0  0  0  0  0  0  0
   -3.0710   61.2290   73.9990 N   0  0  0  0  0  4  0  0  0  0  0  0
    3.4826   63.0040   71.8355 H   0  0  0  0  0  0  0  0  0  0  0  0
    2.0185   61.5407   70.2192 H   0  0  0  0  0  0  0  0  0  0  0  0
    2.3961   59.3515   69.8815 H   0  0  0  0  0  0  0  0  0  0  0  0
    4.2033   59.5762   69.9573 H   0  0  0  0  0  0  0  0  0  0  0  0
    2.3419   59.3938   72.3617 H   0  0  0  0  0  0  0  0  0  0  0  0
    5.4218   59.3112   72.3075 H   0  0  0  0  0  0  0  0  0  0  0  0
    4.6454   61.6486   73.5554 H   0  0  0  0  0  0  0  0  0  0  0  0
    4.7516   62.4547   70.0177 H   0  0  0  0  0  0  0  0  0  0  0  0
    4.4300   61.2268   68.9140 H   0  0  0  0  0  0  0  0  0  0  0  0
    3.4936   62.6240   68.9140 H   0  0  0  0  0  0  0  0  0  0  0  0
    3.4431   57.2207   72.6365 H   0  0  0  0  0  0  0  0  0  0  0  0
    2.5937   57.2814   71.1860 H   0  0  0  0  0  0  0  0  0  0  0  0
    4.2695   57.4261   71.1860 H   0  0  0  0  0  0  0  0  0  0  0  0
    6.4495   61.7461   72.1727 H   0  0  0  0  0  0  0  0  0  0  0  0
    2.3999   58.8179   73.4337 H   0  0  0  0  0  0  0  0  0  0  0  0
    1.6588   56.1889   75.8630 H   0  0  0  0  0  0  0  0  0  0  0  0
    0.0515   58.3345   74.6052 H   0  0  0  0  0  0  0  0  0  0  0  0
    1.8973   58.6391   77.0692 H   0  0  0  0  0  0  0  0  0  0  0  0
    1.8183   60.6140   74.7426 H   0  0  0  0  0  0  0  0  0  0  0  0
    0.3903   59.9610   77.9289 H   0  0  0  0  0  0  0  0  0  0  0  0
    0.5163   60.9978   76.6105 H   0  0  0  0  0  0  0  0  0  0  0  0
   -0.6372   59.7736   76.6105 H   0  0  0  0  0  0  0  0  0  0  0  0
    3.0043   60.3130   77.1721 H   0  0  0  0  0  0  0  0  0  0  0  0
   -0.1270   57.5976   77.3282 H   0  0  0  0  0  0  0  0  0  0  0  0
    0.3668   55.6338   73.9050 H   0  0  0  0  0  0  0  0  0  0  0  0
    1.0892   56.9891   72.9717 H   0  0  0  0  0  0  0  0  0  0  0  0
    2.8077   55.0308   74.1591 H   0  0  0  0  0  0  0  0  0  0  0  0
    0.2668   60.8207   74.3875 H   0  0  0  0  0  0  0  0  0  0  0  0
    1.0946   61.9175   70.9380 H   0  0  0  0  0  0  0  0  0  0  0  0
   -0.5788   63.5972   71.6759 H   0  0  0  0  0  0  0  0  0  0  0  0
    1.1218   63.5059   74.2286 H   0  0  0  0  0  0  0  0  0  0  0  0
   -1.8425   62.9175   73.8162 H   0  0  0  0  0  0  0  0  0  0  0  0
    1.7128   64.8930   72.5071 H   0  0  0  0  0  0  0  0  0  0  0  0
   -0.3818   65.0825   75.0052 H   0  0  0  0  0  0  0  0  0  0  0  0
   -0.3326   61.8991   76.0104 H   0  0  0  0  0  0  0  0  0  0  0  0
   -1.9640   59.6500   73.1184 H   0  0  0  0  0  0  0  0  0  0  0  0
   -1.8009   59.8101   74.9133 H   0  0  0  0  0  0  0  0  0  0  0  0
   -3.3274   61.4157   74.9790 H   0  0  0  0  0  0  0  0  0  0  0  0
   -2.8639   62.1186   73.5229 H   0  0  0  0  0  0  0  0  0  0  0  0
   -3.8540   60.7589   73.5229 H   0  0  0  0  0  0  0  0  0  0  0  0
  2  1  1  0
  3  2  1  0
  4  3  1  0
  5  4  1  0
  6  5  1  0
  6  1  1  0
  7  2  1  0
  8  4  1  0
  9  6  1  0
 10  5  1  0
 11 10  1  0
 12 11  1  0
 13 12  1  0
 14 13  1  0
 15 14  1  0
 16 15  1  0
 16 11  1  0
 17 15  1  0
 18 16  1  0
 19 14  1  0
 20 13  1  0
 21 20  1  0
 22  1  1  0
 24 23  1  0
 25 24  1  0
 25 22  1  0
 26 25  1  0
 27 26  1  0
 28 27  1  0
 28 23  1  0
 29 26  1  0
 30 27  1  0
 31 28  1  0
 32 23  1  0
 33 32  1  0
  1 34  1  6
  2 35  1  6
  3 36  1  0
  3 37  1  0
  4 38  1  1
  5 39  1  6
  6 40  1  1
  7 41  1  0
  7 42  1  0
  7 43  1  0
  8 44  1  0
  8 45  1  0
  8 46  1  0
  9 47  1  0
 11 48  1  6
 13 49  1  1
 14 50  1  6
 15 51  1  1
 16 52  1  6
 17 53  1  0
 17 54  1  0
 17 55  1  0
 18 56  1  0
 19 57  1  0
 20 58  1  0
 20 59  1  0
 21 60  1  0
 23 61  1  1
 25 62  1  6
 26 63  1  6
 27 64  1  1
 28 65  1  6
 29 66  1  0
 30 67  1  0
 31 68  1  0
 32 69  1  0
 32 70  1  0
 33 71  1  0
 33 72  1  0
 33 73  1  0
M  CHG  4   7   1   8   1  17   1  33   1
M  END
>  <score>  (7) 
-6.595

$$$$
=
     RDKit          3D

 73 75  0  0  0  0  0  0  0  0999 V2000
    0.6810   58.8740   76.4670 C   0  0  2  0  0  0  0  0  0  0  0  0
   -0.7760   59.1370   75.9960 C   0  0  2  0  0  0  0  0  0  0  0  0
   -0.8540   59.9910   74.7050 C   0  0  0  0  0  0  0  0  0  0  0  0
    0.5000   60.1160   73.9880 C   0  0  2  0  0  0  0  0  0  0  0  0
    1.5600   60.7940   74.9010 C   0  0  1  0  0  0  0  0  0  0  0  0
    1.4970   60.1860   76.3380 C   0  0  1  0  0  0  0  0  0  0  0  0
   -1.5460   59.8240   77.0890 N   0  0  0  0  0  4  0  0  0  0  0  0
    0.3250   60.9220   72.7280 N   0  0  0  0  0  4  0  0  0  0  0  0
    0.8280   61.1510   77.1760 O   0  0  0  0  0  0  0  0  0  0  0  0
    2.8630   60.6840   74.2720 O   0  0  0  0  0  0  0  0  0  0  0  0
    2.7860   60.3000   72.8740 C   0  0  1  0  0  0  0  0  0  0  0  0
    3.7850   60.9520   72.1130 O   0  0  0  0  0  0  0  0  0  0  0  0
    3.6160   60.8520   70.6800 C   0  0  1  0  0  0  0  0  0  0  0  0
    3.1710   59.4320   70.2580 C   0  0  2  0  0  0  0  0  0  0  0  0
    3.6370   58.4630   71.3530 C   0  0  1  0  0  0  0  0  0  0  0  0
    2.9620   58.7590   72.7070 C   0  0  1  0  0  0  0  0  0  0  0  0
    3.4290   57.0440   70.9160 N   0  0  0  0  0  4  0  0  0  0  0  0
    3.7920   58.1820   73.7210 O   0  0  0  0  0  0  0  0  0  0  0  0
    3.7560   59.0020   69.0330 O   0  0  0  0  0  0  0  0  0  0  0  0
    2.6610   61.9510   70.1800 C   0  0  0  0  0  0  0  0  0  0  0  0
    2.6170   61.9340   68.7480 O   0  0  0  0  0  0  0  0  0  0  0  0
    1.2580   57.8050   75.6870 O   0  0  0  0  0  0  0  0  0  0  0  0
   -0.5340   55.4750   75.5790 C   0  0  1  0  0  0  0  0  0  0  0  0
    0.1810   55.9650   76.7280 O   0  0  0  0  0  0  0  0  0  0  0  0
    1.4540   56.5740   76.4350 C   0  0  1  0  0  0  0  0  0  0  0  0
    2.3620   55.5520   75.7130 C   0  0  1  0  0  0  0  0  0  0  0  0
    1.7140   55.2310   74.3690 C   0  0  2  0  0  0  0  0  0  0  0  0
    0.3210   54.6450   74.6000 C   0  0  2  0  0  0  0  0  0  0  0  0
    3.6810   56.0620   75.5050 O   0  0  0  0  0  0  0  0  0  0  0  0
    2.4900   54.2800   73.6350 O   0  0  0  0  0  0  0  0  0  0  0  0
   -0.3700   54.5700   73.3540 O   0  0  0  0  0  0  0  0  0  0  0  0
   -1.7010   54.5760   76.0670 C   0  0  0  0  0  0  0  0  0  0  0  0
   -2.9200   54.7760   75.2370 N   0  0  0  0  0  4  0  0  0  0  0  0
    0.6944   58.5611   77.5215 H   0  0  0  0  0  0  0  0  0  0  0  0
   -1.2152   58.1553   75.7651 H   0  0  0  0  0  0  0  0  0  0  0  0
   -1.5735   59.5227   74.0172 H   0  0  0  0  0  0  0  0  0  0  0  0
   -1.1674   61.0040   74.9976 H   0  0  0  0  0  0  0  0  0  0  0  0
    0.8579   59.1055   73.7416 H   0  0  0  0  0  0  0  0  0  0  0  0
    1.3507   61.8672   75.0207 H   0  0  0  0  0  0  0  0  0  0  0  0
    2.5352   59.9542   76.6180 H   0  0  0  0  0  0  0  0  0  0  0  0
   -1.1950   59.5108   78.0053 H   0  0  0  0  0  0  0  0  0  0  0  0
   -1.4254   60.8435   77.0053 H   0  0  0  0  0  0  0  0  0  0  0  0
   -2.5452   59.5884   77.0053 H   0  0  0  0  0  0  0  0  0  0  0  0
    0.1127   61.8998   72.9726 H   0  0  0  0  0  0  0  0  0  0  0  0
    1.1931   60.8872   72.1748 H   0  0  0  0  0  0  0  0  0  0  0  0
   -0.4505   60.5303   72.1748 H   0  0  0  0  0  0  0  0  0  0  0  0
    0.9839   60.9262   78.1274 H   0  0  0  0  0  0  0  0  0  0  0  0
    1.7916   60.5994   72.5112 H   0  0  0  0  0  0  0  0  0  0  0  0
    4.5898   61.0182   70.1962 H   0  0  0  0  0  0  0  0  0  0  0  0
    2.0797   59.4487   70.1207 H   0  0  0  0  0  0  0  0  0  0  0  0
    4.7155   58.6138   71.5082 H   0  0  0  0  0  0  0  0  0  0  0  0
    1.9551   58.3218   72.7772 H   0  0  0  0  0  0  0  0  0  0  0  0
    3.3403   56.4390   71.7449 H   0  0  0  0  0  0  0  0  0  0  0  0
    2.5698   56.9810   70.3515 H   0  0  0  0  0  0  0  0  0  0  0  0
    4.2340   56.7371   70.3515 H   0  0  0  0  0  0  0  0  0  0  0  0
    3.4405   58.4263   74.6137 H   0  0  0  0  0  0  0  0  0  0  0  0
    4.5385   58.4268   69.2250 H   0  0  0  0  0  0  0  0  0  0  0  0
    1.6524   61.7692   70.5795 H   0  0  0  0  0  0  0  0  0  0  0  0
    3.0214   62.9321   70.5229 H   0  0  0  0  0  0  0  0  0  0  0  0
    1.7367   61.5939   68.4489 H   0  0  0  0  0  0  0  0  0  0  0  0
   -0.8768   56.3653   75.0314 H   0  0  0  0  0  0  0  0  0  0  0  0
    1.9688   56.8570   77.3650 H   0  0  0  0  0  0  0  0  0  0  0  0
    2.4614   54.6513   76.3366 H   0  0  0  0  0  0  0  0  0  0  0  0
    1.6516   56.1649   73.7911 H   0  0  0  0  0  0  0  0  0  0  0  0
    0.4670   53.6502   75.0461 H   0  0  0  0  0  0  0  0  0  0  0  0
    4.1122   56.2287   76.3804 H   0  0  0  0  0  0  0  0  0  0  0  0
    2.9719   53.6894   74.2667 H   0  0  0  0  0  0  0  0  0  0  0  0
   -1.3402   54.4647   73.5205 H   0  0  0  0  0  0  0  0  0  0  0  0
   -1.3926   53.5221   76.0029 H   0  0  0  0  0  0  0  0  0  0  0  0
   -1.9391   54.8489   77.1057 H   0  0  0  0  0  0  0  0  0  0  0  0
   -3.7357   54.9098   75.8516 H   0  0  0  0  0  0  0  0  0  0  0  0
   -2.7978   55.6082   74.6425 H   0  0  0  0  0  0  0  0  0  0  0  0
   -3.0702   53.9484   74.6425 H   0  0  0  0  0  0  0  0  0  0  0  0
  2  1  1  0
  3  2  1  0
  4  3  1  0
  5  4  1  0
  6  5  1  0
  6  1  1  0
  7  2  1  0
  8  4  1  0
  9  6  1  0
 10  5  1  0
 11 10  1  0
 12 11  1  0
 13 12  1  0
 14 13  1  0
 15 14  1  0
 16 15  1  0
 16 11  1  0
 17 15  1  0
 18 16  1  0
 19 14  1  0
 20 13  1  0
 21 20  1  0
 22  1  1  0
 24 23  1  0
 25 24  1  0
 25 22  1  0
 26 25  1  0
 27 26  1  0
 28 27  1  0
 28 23  1  0
 29 26  1  0
 30 27  1  0
 31 28  1  0
 32 23  1  0
 33 32  1  0
  1 34  1  1
  2 35  1  6
  3 36  1  0
  3 37  1  0
  4 38  1  6
  5 39  1  1
  6 40  1  1
  7 41  1  0
  7 42  1  0
  7 43  1  0
  8 44  1  0
  8 45  1  0
  8 46  1  0
  9 47  1  0
 11 48  1  6
 13 49  1  6
 14 50  1  6
 15 51  1  1
 16 52  1  6
 17 53  1  0
 17 54  1  0
 17 55  1  0
 18 56  1  0
 19 57  1  0
 20 58  1  0
 20 59  1  0
 21 60  1  0
 23 61  1  6
 25 62  1  1
 26 63  1  1
 27 64  1  6
 28 65  1  1
 29 66  1  0
 30 67  1  0
 31 68  1  0
 32 69  1  0
 32 70  1  0
 33 71  1  0
 33 72  1  0
 33 73  1  0
M  CHG  4   7   1   8   1  17   1  33   1
M  END
>  <score>  (8) 
-6.564

$$$$
=
     RDKit          3D

 73 75  0  0  0  0  0  0  0  0999 V2000
    2.7760   57.4900   75.2450 C   0  0  2  0  0  0  0  0  0  0  0  0
    3.4460   57.7800   76.6160 C   0  0  2  0  0  0  0  0  0  0  0  0
    3.3540   59.2690   77.0350 C   0  0  0  0  0  0  0  0  0  0  0  0
    2.3530   60.0700   76.1860 C   0  0  2  0  0  0  0  0  0  0  0  0
    2.7520   60.0580   74.6850 C   0  0  1  0  0  0  0  0  0  0  0  0
    3.1590   58.6140   74.2480 C   0  0  1  0  0  0  0  0  0  0  0  0
    4.8900   57.3680   76.5730 N   0  0  0  0  0  4  0  0  0  0  0  0
    2.2960   61.4890   76.6860 N   0  0  0  0  0  4  0  0  0  0  0  0
    4.5980   58.5900   74.1600 O   0  0  0  0  0  0  0  0  0  0  0  0
    1.6690   60.6260   73.9040 O   0  0  0  0  0  0  0  0  0  0  0  0
    2.1360   61.4550   72.8080 C   0  0  1  0  0  0  0  0  0  0  0  0
    2.6480   60.6620   71.7540 O   0  0  0  0  0  0  0  0  0  0  0  0
    3.3850   61.3940   70.7480 C   0  0  1  0  0  0  0  0  0  0  0  0
    2.6950   62.7340   70.4000 C   0  0  2  0  0  0  0  0  0  0  0  0
    1.2070   62.5830   70.7400 C   0  0  1  0  0  0  0  0  0  0  0  0
    0.9840   62.3430   72.2460 C   0  0  1  0  0  0  0  0  0  0  0  0
    0.4350   63.7650   70.2350 N   0  0  0  0  0  4  0  0  0  0  0  0
   -0.3050   61.7320   72.3840 O   0  0  0  0  0  0  0  0  0  0  0  0
    2.7850   63.0690   69.0190 O   0  0  0  0  0  0  0  0  0  0  0  0
    4.8500   61.5720   71.1880 C   0  0  0  0  0  0  0  0  0  0  0  0
    5.6260   60.4550   70.7390 O   0  0  0  0  0  0  0  0  0  0  0  0
    1.3460   57.3880   75.4140 O   0  0  0  0  0  0  0  0  0  0  0  0
   -0.4280   55.0450   75.2910 C   0  0  1  0  0  0  0  0  0  0  0  0
    0.4620   55.5130   74.2600 O   0  0  0  0  0  0  0  0  0  0  0  0
    0.6450   56.9410   74.2210 C   0  0  1  0  0  0  0  0  0  0  0  0
   -0.7230   57.6330   74.0150 C   0  0  1  0  0  0  0  0  0  0  0  0
   -1.5760   57.3370   75.2440 C   0  0  2  0  0  0  0  0  0  0  0  0
   -1.7530   55.8260   75.3930 C   0  0  2  0  0  0  0  0  0  0  0  0
   -0.5880   59.0450   73.8470 O   0  0  0  0  0  0  0  0  0  0  0  0
   -2.8700   57.9360   75.1310 O   0  0  0  0  0  0  0  0  0  0  0  0
   -2.3420   55.5450   76.6630 O   0  0  0  0  0  0  0  0  0  0  0  0
   -0.7750   53.5590   75.0080 C   0  0  0  0  0  0  0  0  0  0  0  0
   -2.2470   53.3600   74.9000 N   0  0  0  0  0  4  0  0  0  0  0  0
    3.1318   56.5318   74.8385 H   0  0  0  0  0  0  0  0  0  0  0  0
    2.8949   57.1944   77.3666 H   0  0  0  0  0  0  0  0  0  0  0  0
    3.0393   59.3183   78.0879 H   0  0  0  0  0  0  0  0  0  0  0  0
    4.3474   59.7162   76.8827 H   0  0  0  0  0  0  0  0  0  0  0  0
    1.3632   59.5992   76.2795 H   0  0  0  0  0  0  0  0  0  0  0  0
    3.6386   60.6845   74.5077 H   0  0  0  0  0  0  0  0  0  0  0  0
    2.6238   58.4148   73.3078 H   0  0  0  0  0  0  0  0  0  0  0  0
    5.2467   57.2662   77.5339 H   0  0  0  0  0  0  0  0  0  0  0  0
    4.9759   56.4689   76.0778 H   0  0  0  0  0  0  0  0  0  0  0  0
    5.4374   58.0864   76.0778 H   0  0  0  0  0  0  0  0  0  0  0  0
    2.2959   61.4903   77.7160 H   0  0  0  0  0  0  0  0  0  0  0  0
    3.1168   62.0075   76.3420 H   0  0  0  0  0  0  0  0  0  0  0  0
    1.4362   61.9400   76.3420 H   0  0  0  0  0  0  0  0  0  0  0  0
    4.9843   58.5836   75.0715 H   0  0  0  0  0  0  0  0  0  0  0  0
    2.9343   62.0973   73.2082 H   0  0  0  0  0  0  0  0  0  0  0  0
    3.3904   60.8085   69.8168 H   0  0  0  0  0  0  0  0  0  0  0  0
    3.1974   63.5292   70.9704 H   0  0  0  0  0  0  0  0  0  0  0  0
    0.8265   61.6874   70.2271 H   0  0  0  0  0  0  0  0  0  0  0  0
    1.0018   63.2780   72.8252 H   0  0  0  0  0  0  0  0  0  0  0  0
    0.0794   64.3095   71.0337 H   0  0  0  0  0  0  0  0  0  0  0  0
    1.0518   64.3586   69.6622 H   0  0  0  0  0  0  0  0  0  0  0  0
   -0.3565   63.4389   69.6622 H   0  0  0  0  0  0  0  0  0  0  0  0
   -0.5206   61.6298   73.3448 H   0  0  0  0  0  0  0  0  0  0  0  0
    3.0407   64.0209   68.9263 H   0  0  0  0  0  0  0  0  0  0  0  0
    5.2536   62.4973   70.7511 H   0  0  0  0  0  0  0  0  0  0  0  0
    4.8970   61.6317   72.2854 H   0  0  0  0  0  0  0  0  0  0  0  0
    5.9717   59.9573   71.5219 H   0  0  0  0  0  0  0  0  0  0  0  0
    0.1042   55.1890   76.2429 H   0  0  0  0  0  0  0  0  0  0  0  0
    1.2779   57.2241   73.3670 H   0  0  0  0  0  0  0  0  0  0  0  0
   -1.1913   57.2456   73.0981 H   0  0  0  0  0  0  0  0  0  0  0  0
   -1.0620   57.7557   76.1218 H   0  0  0  0  0  0  0  0  0  0  0  0
   -2.3968   55.5000   74.5628 H   0  0  0  0  0  0  0  0  0  0  0  0
   -0.5464   59.4805   74.7351 H   0  0  0  0  0  0  0  0  0  0  0  0
   -3.2354   58.1052   76.0354 H   0  0  0  0  0  0  0  0  0  0  0  0
   -1.7288   55.8375   77.3831 H   0  0  0  0  0  0  0  0  0  0  0  0
   -0.3015   53.2538   74.0632 H   0  0  0  0  0  0  0  0  0  0  0  0
   -0.4018   52.9492   75.8440 H   0  0  0  0  0  0  0  0  0  0  0  0
   -2.6561   53.3047   75.8436 H   0  0  0  0  0  0  0  0  0  0  0  0
   -2.6641   54.1523   74.3908 H   0  0  0  0  0  0  0  0  0  0  0  0
   -2.4388   52.4854   74.3908 H   0  0  0  0  0  0  0  0  0  0  0  0
  2  1  1  0
  3  2  1  0
  4  3  1  0
  5  4  1  0
  6  5  1  0
  6  1  1  0
  7  2  1  0
  8  4  1  0
  9  6  1  0
 10  5  1  0
 11 10  1  0
 12 11  1  0
 13 12  1  0
 14 13  1  0
 15 14  1  0
 16 15  1  0
 16 11  1  0
 17 15  1  0
 18 16  1  0
 19 14  1  0
 20 13  1  0
 21 20  1  0
 22  1  1  0
 24 23  1  0
 25 24  1  0
 25 22  1  0
 26 25  1  0
 27 26  1  0
 28 27  1  0
 28 23  1  0
 29 26  1  0
 30 27  1  0
 31 28  1  0
 32 23  1  0
 33 32  1  0
  1 34  1  6
  2 35  1  1
  3 36  1  0
  3 37  1  0
  4 38  1  6
  5 39  1  1
  6 40  1  6
  7 41  1  0
  7 42  1  0
  7 43  1  0
  8 44  1  0
  8 45  1  0
  8 46  1  0
  9 47  1  0
 11 48  1  1
 13 49  1  6
 14 50  1  1
 15 51  1  6
 16 52  1  1
 17 53  1  0
 17 54  1  0
 17 55  1  0
 18 56  1  0
 19 57  1  0
 20 58  1  0
 20 59  1  0
 21 60  1  0
 23 61  1  1
 25 62  1  6
 26 63  1  6
 27 64  1  1
 28 65  1  6
 29 66  1  0
 30 67  1  0
 31 68  1  0
 32 69  1  0
 32 70  1  0
 33 71  1  0
 33 72  1  0
 33 73  1  0
M  CHG  4   7   1   8   1  17   1  33   1
M  END
>  <score>  (9) 
-6.514

$$$$
