=
     RDKit          3D

 60 63  0  0  0  0  0  0  0  0999 V2000
   -0.3130   65.4640   69.8980 C   0  0  0  0  0  0  0  0  0  0  0  0
    3.8070   61.5690   72.6540 C   0  0  0  0  0  0  0  0  0  0  0  0
    3.6970   62.3520   71.4980 C   0  0  0  0  0  0  0  0  0  0  0  0
    2.5920   63.1680   71.3380 C   0  0  0  0  0  0  0  0  0  0  0  0
    2.2690   64.2330   69.9700 S   0  0  0  0  0  0  0  0  0  0  0  0
    0.8520   65.0240   70.8110 C   0  0  2  0  0  0  0  0  0  0  0  0
    0.4150   64.0790   71.9520 C   0  0  0  0  0  0  0  0  0  0  0  0
    1.5840   63.2040   72.2990 C   0  0  0  0  0  0  0  0  0  0  0  0
    1.6690   62.4070   73.4400 C   0  0  0  0  0  0  0  0  0  0  0  0
    2.7850   61.5770   73.6280 C   0  0  0  0  0  0  0  0  0  0  0  0
    5.7160   60.8070   71.4960 C   0  0  0  0  0  0  0  0  0  0  0  0
    4.9350   60.7870   72.6870 O   0  0  0  0  0  0  0  0  0  0  0  0
    2.9270   60.7240   74.6890 O   0  0  0  0  0  0  0  0  0  0  0  0
    1.9030   60.7030   75.6740 C   0  0  0  0  0  0  0  0  0  0  0  0
   -0.2450   66.8320   69.1750 C   0  0  1  0  0  0  0  0  0  0  0  0
    1.1630   67.4470   69.0660 C   0  0  0  0  0  0  0  0  0  0  0  0
    1.8110   67.1820   67.7160 C   0  0  0  0  0  0  0  0  0  0  0  0
    1.0010   67.8320   66.5710 N   0  0  2  0  0  4  0  0  0  0  0  0
   -0.5040   67.8780   66.8920 C   0  0  0  0  0  0  0  0  0  0  0  0
   -0.8980   66.7090   67.7830 C   0  0  0  0  0  0  0  0  0  0  0  0
    1.2260   67.0020   65.3060 C   0  0  0  0  0  0  0  0  0  0  0  0
    1.5390   69.2750   66.3450 C   0  0  0  0  0  0  0  0  0  0  0  0
    3.0360   69.4620   66.4260 C   0  0  0  0  0  0  0  0  0  0  0  0
    3.8540   69.1520   65.3270 C   0  0  0  0  0  0  0  0  0  0  0  0
    5.2360   69.3340   65.3950 C   0  0  0  0  0  0  0  0  0  0  0  0
    5.8190   69.8200   66.5630 C   0  0  0  0  0  0  0  0  0  0  0  0
    5.0240   70.1150   67.6670 C   0  0  0  0  0  0  0  0  0  0  0  0
    3.6410   69.9340   67.6020 C   0  0  0  0  0  0  0  0  0  0  0  0
   -0.4151   64.6953   69.1178 H   0  0  0  0  0  0  0  0  0  0  0  0
   -1.1549   65.5839   70.5958 H   0  0  0  0  0  0  0  0  0  0  0  0
    4.4803   62.3183   70.7264 H   0  0  0  0  0  0  0  0  0  0  0  0
    1.1864   65.9930   71.2099 H   0  0  0  0  0  0  0  0  0  0  0  0
    0.1151   64.6682   72.8312 H   0  0  0  0  0  0  0  0  0  0  0  0
   -0.4418   63.4662   71.6352 H   0  0  0  0  0  0  0  0  0  0  0  0
    0.8645   62.4287   74.1899 H   0  0  0  0  0  0  0  0  0  0  0  0
    6.7839   60.8343   71.7582 H   0  0  0  0  0  0  0  0  0  0  0  0
    5.5066   59.9032   70.9050 H   0  0  0  0  0  0  0  0  0  0  0  0
    5.4606   61.6989   70.9050 H   0  0  0  0  0  0  0  0  0  0  0  0
    2.3575   60.7123   76.6757 H   0  0  0  0  0  0  0  0  0  0  0  0
    1.2610   61.5882   75.5544 H   0  0  0  0  0  0  0  0  0  0  0  0
    1.2978   59.7923   75.5544 H   0  0  0  0  0  0  0  0  0  0  0  0
   -0.8037   67.5369   69.8082 H   0  0  0  0  0  0  0  0  0  0  0  0
    1.0854   68.5344   69.2127 H   0  0  0  0  0  0  0  0  0  0  0  0
    1.7929   66.9790   69.8369 H   0  0  0  0  0  0  0  0  0  0  0  0
    2.8285   67.5998   67.7180 H   0  0  0  0  0  0  0  0  0  0  0  0
    1.8389   66.0950   67.5500 H   0  0  0  0  0  0  0  0  0  0  0  0
   -0.7345   68.8208   67.4097 H   0  0  0  0  0  0  0  0  0  0  0  0
   -1.0694   67.8125   65.9507 H   0  0  0  0  0  0  0  0  0  0  0  0
   -1.9919   66.6970   67.8983 H   0  0  0  0  0  0  0  0  0  0  0  0
   -0.5504   65.7770   67.3134 H   0  0  0  0  0  0  0  0  0  0  0  0
    1.5043   65.9752   65.5858 H   0  0  0  0  0  0  0  0  0  0  0  0
    0.3009   66.9819   64.7112 H   0  0  0  0  0  0  0  0  0  0  0  0
    2.0346   67.4519   64.7112 H   0  0  0  0  0  0  0  0  0  0  0  0
    1.2165   69.5979   65.3441 H   0  0  0  0  0  0  0  0  0  0  0  0
    1.1284   69.8696   67.1744 H   0  0  0  0  0  0  0  0  0  0  0  0
    3.4008   68.7619   64.4037 H   0  0  0  0  0  0  0  0  0  0  0  0
    5.8654   69.0935   64.5255 H   0  0  0  0  0  0  0  0  0  0  0  0
    6.9075   69.9707   66.6130 H   0  0  0  0  0  0  0  0  0  0  0  0
    5.4859   70.4912   68.5917 H   0  0  0  0  0  0  0  0  0  0  0  0
    3.0196   70.1633   68.4802 H   0  0  0  0  0  0  0  0  0  0  0  0
  3  2  2  0
  4  3  1  0
  5  4  1  0
  6  5  1  0
  6  1  1  0
  7  6  1  0
  8  7  1  0
  8  4  2  0
  9  8  1  0
 10  9  2  0
 10  2  1  0
 12  2  1  0
 12 11  1  0
 13 10  1  0
 14 13  1  0
 15  1  1  0
 16 15  1  0
 17 16  1  0
 18 17  1  0
 19 18  1  0
 20 19  1  0
 20 15  1  0
 18 21  1  6
 22 18  1  0
 23 22  1  0
 24 23  2  0
 25 24  1  0
 26 25  2  0
 27 26  1  0
 28 27  2  0
 28 23  1  0
  1 29  1  0
  1 30  1  0
  3 31  1  0
  6 32  1  1
  7 33  1  0
  7 34  1  0
  9 35  1  0
 11 36  1  0
 11 37  1  0
 11 38  1  0
 14 39  1  0
 14 40  1  0
 14 41  1  0
 15 42  1  1
 16 43  1  0
 16 44  1  0
 17 45  1  0
 17 46  1  0
 19 47  1  0
 19 48  1  0
 20 49  1  0
 20 50  1  0
 21 51  1  0
 21 52  1  0
 21 53  1  0
 22 54  1  0
 22 55  1  0
 24 56  1  0
 25 57  1  0
 26 58  1  0
 27 59  1  0
 28 60  1  0
M  CHG  1  18   1
M  END
>  <score>  (1) 
-9.346

$$$$
=
     RDKit          3D

 60 63  0  0  0  0  0  0  0  0999 V2000
   -0.0200   66.8830   68.8780 C   0  0  0  0  0  0  0  0  0  0  0  0
    4.4970   69.6780   65.4830 C   0  0  0  0  0  0  0  0  0  0  0  0
    3.4210   68.8020   65.2990 C   0  0  0  0  0  0  0  0  0  0  0  0
    2.5920   68.5170   66.3690 C   0  0  0  0  0  0  0  0  0  0  0  0
    1.1840   67.4540   66.3460 S   0  0  0  0  0  0  0  0  0  0  0  0
    0.6600   67.9710   68.0200 C   0  0  2  0  0  0  0  0  0  0  0  0
    1.8880   68.6140   68.7020 C   0  0  0  0  0  0  0  0  0  0  0  0
    2.8270   69.0730   67.6240 C   0  0  0  0  0  0  0  0  0  0  0  0
    3.9130   69.9240   67.8260 C   0  0  0  0  0  0  0  0  0  0  0  0
    4.7630   70.2340   66.7530 C   0  0  0  0  0  0  0  0  0  0  0  0
    4.8750   69.0740   63.2340 C   0  0  0  0  0  0  0  0  0  0  0  0
    5.2580   69.8640   64.3560 O   0  0  0  0  0  0  0  0  0  0  0  0
    5.8810   71.0160   66.8720 O   0  0  0  0  0  0  0  0  0  0  0  0
    6.3600   71.3060   68.1780 C   0  0  0  0  0  0  0  0  0  0  0  0
    0.7430   66.2620   70.0750 C   0  0  1  0  0  0  0  0  0  0  0  0
   -0.0880   65.3180   70.9630 C   0  0  0  0  0  0  0  0  0  0  0  0
    0.1270   63.8530   70.6150 C   0  0  0  0  0  0  0  0  0  0  0  0
    1.5970   63.4340   70.8510 N   0  0  2  0  0  4  0  0  0  0  0  0
    2.5680   64.6040   70.6110 C   0  0  0  0  0  0  0  0  0  0  0  0
    2.0140   65.5550   69.5610 C   0  0  0  0  0  0  0  0  0  0  0  0
    1.9210   62.2950   69.8820 C   0  0  0  0  0  0  0  0  0  0  0  0
    1.7340   62.9220   72.3150 C   0  0  0  0  0  0  0  0  0  0  0  0
    2.4790   61.6240   72.5130 C   0  0  0  0  0  0  0  0  0  0  0  0
    1.7880   60.4010   72.5380 C   0  0  0  0  0  0  0  0  0  0  0  0
    2.4750   59.1980   72.7100 C   0  0  0  0  0  0  0  0  0  0  0  0
    3.8590   59.2020   72.8670 C   0  0  0  0  0  0  0  0  0  0  0  0
    4.5560   60.4070   72.8620 C   0  0  0  0  0  0  0  0  0  0  0  0
    3.8720   61.6120   72.6910 C   0  0  0  0  0  0  0  0  0  0  0  0
   -0.9422   67.3256   69.2824 H   0  0  0  0  0  0  0  0  0  0  0  0
   -0.1329   66.0398   68.1806 H   0  0  0  0  0  0  0  0  0  0  0  0
    3.2368   68.3456   64.3152 H   0  0  0  0  0  0  0  0  0  0  0  0
   -0.1573   68.6997   67.9155 H   0  0  0  0  0  0  0  0  0  0  0  0
    1.5701   69.4729   69.3113 H   0  0  0  0  0  0  0  0  0  0  0  0
    2.3859   67.8862   69.3595 H   0  0  0  0  0  0  0  0  0  0  0  0
    4.1027   70.3505   68.8220 H   0  0  0  0  0  0  0  0  0  0  0  0
    4.4201   68.1357   63.5843 H   0  0  0  0  0  0  0  0  0  0  0  0
    4.1464   69.6300   62.6257 H   0  0  0  0  0  0  0  0  0  0  0  0
    5.7628   68.8463   62.6257 H   0  0  0  0  0  0  0  0  0  0  0  0
    5.6682   70.8872   68.9237 H   0  0  0  0  0  0  0  0  0  0  0  0
    7.3564   70.8594   68.3107 H   0  0  0  0  0  0  0  0  0  0  0  0
    6.4261   72.3960   68.3107 H   0  0  0  0  0  0  0  0  0  0  0  0
    1.0036   67.1011   70.7368 H   0  0  0  0  0  0  0  0  0  0  0  0
    0.1991   65.4772   72.0129 H   0  0  0  0  0  0  0  0  0  0  0  0
   -1.1502   65.5494   70.7952 H   0  0  0  0  0  0  0  0  0  0  0  0
   -0.5285   63.2342   71.2454 H   0  0  0  0  0  0  0  0  0  0  0  0
   -0.1107   63.7084   69.5508 H   0  0  0  0  0  0  0  0  0  0  0  0
    2.7135   65.1519   71.5537 H   0  0  0  0  0  0  0  0  0  0  0  0
    3.5265   64.2006   70.2526 H   0  0  0  0  0  0  0  0  0  0  0  0
    2.7758   66.3119   69.3227 H   0  0  0  0  0  0  0  0  0  0  0  0
    1.7549   64.9749   68.6630 H   0  0  0  0  0  0  0  0  0  0  0  0
    2.1783   61.3903   70.4524 H   0  0  0  0  0  0  0  0  0  0  0  0
    1.0449   62.0922   69.2485 H   0  0  0  0  0  0  0  0  0  0  0  0
    2.7727   62.5837   69.2485 H   0  0  0  0  0  0  0  0  0  0  0  0
    2.2581   63.6983   72.8918 H   0  0  0  0  0  0  0  0  0  0  0  0
    0.7053   62.7182   72.6471 H   0  0  0  0  0  0  0  0  0  0  0  0
    0.6943   60.3913   72.4208 H   0  0  0  0  0  0  0  0  0  0  0  0
    1.9231   58.2465   72.7215 H   0  0  0  0  0  0  0  0  0  0  0  0
    4.4010   58.2534   72.9949 H   0  0  0  0  0  0  0  0  0  0  0  0
    5.6482   60.4098   72.9931 H   0  0  0  0  0  0  0  0  0  0  0  0
    4.4291   62.5605   72.6957 H   0  0  0  0  0  0  0  0  0  0  0  0
  3  2  2  0
  4  3  1  0
  5  4  1  0
  6  5  1  0
  6  1  1  0
  7  6  1  0
  8  7  1  0
  8  4  2  0
  9  8  1  0
 10  9  2  0
 10  2  1  0
 12  2  1  0
 12 11  1  0
 13 10  1  0
 14 13  1  0
 15  1  1  0
 16 15  1  0
 17 16  1  0
 18 17  1  0
 19 18  1  0
 20 19  1  0
 20 15  1  0
 18 21  1  6
 22 18  1  0
 23 22  1  0
 24 23  2  0
 25 24  1  0
 26 25  2  0
 27 26  1  0
 28 27  2  0
 28 23  1  0
  1 29  1  0
  1 30  1  0
  3 31  1  0
  6 32  1  6
  7 33  1  0
  7 34  1  0
  9 35  1  0
 11 36  1  0
 11 37  1  0
 11 38  1  0
 14 39  1  0
 14 40  1  0
 14 41  1  0
 15 42  1  1
 16 43  1  0
 16 44  1  0
 17 45  1  0
 17 46  1  0
 19 47  1  0
 19 48  1  0
 20 49  1  0
 20 50  1  0
 21 51  1  0
 21 52  1  0
 21 53  1  0
 22 54  1  0
 22 55  1  0
 24 56  1  0
 25 57  1  0
 26 58  1  0
 27 59  1  0
 28 60  1  0
M  CHG  1  18   1
M  END
>  <score>  (2) 
-8.951

$$$$
=
     RDKit          3D

 60 63  0  0  0  0  0  0  0  0999 V2000
   -0.5660   66.1010   69.7000 C   0  0  0  0  0  0  0  0  0  0  0  0
    1.4190   68.7980   64.3590 C   0  0  0  0  0  0  0  0  0  0  0  0
    0.2350   68.3030   64.9210 C   0  0  0  0  0  0  0  0  0  0  0  0
    0.2440   67.8630   66.2330 C   0  0  0  0  0  0  0  0  0  0  0  0
   -1.1320   67.2180   67.1280 S   0  0  0  0  0  0  0  0  0  0  0  0
   -0.2190   67.2350   68.7110 C   0  0  2  0  0  0  0  0  0  0  0  0
    1.2860   67.3110   68.3680 C   0  0  0  0  0  0  0  0  0  0  0  0
    1.4140   67.8880   66.9880 C   0  0  0  0  0  0  0  0  0  0  0  0
    2.6050   68.3510   66.4290 C   0  0  0  0  0  0  0  0  0  0  0  0
    2.6180   68.8100   65.1020 C   0  0  0  0  0  0  0  0  0  0  0  0
    0.0220   68.8970   62.4590 C   0  0  0  0  0  0  0  0  0  0  0  0
    1.2890   69.1830   63.0470 O   0  0  0  0  0  0  0  0  0  0  0  0
    3.7490   69.2320   64.4560 O   0  0  0  0  0  0  0  0  0  0  0  0
    4.9530   69.3260   65.2050 C   0  0  0  0  0  0  0  0  0  0  0  0
    0.5600   65.1860   70.2430 C   0  0  1  0  0  0  0  0  0  0  0  0
    0.8610   65.3390   71.7460 C   0  0  0  0  0  0  0  0  0  0  0  0
    0.1740   64.2760   72.5880 C   0  0  0  0  0  0  0  0  0  0  0  0
    0.6790   62.8610   72.2220 N   0  0  2  0  0  4  0  0  0  0  0  0
    1.0760   62.7650   70.7370 C   0  0  0  0  0  0  0  0  0  0  0  0
    0.2390   63.7180   69.8960 C   0  0  0  0  0  0  0  0  0  0  0  0
   -0.4500   61.8700   72.5120 C   0  0  0  0  0  0  0  0  0  0  0  0
    1.9050   62.5280   73.1210 C   0  0  0  0  0  0  0  0  0  0  0  0
    3.1170   61.9490   72.4300 C   0  0  0  0  0  0  0  0  0  0  0  0
    3.4330   60.5870   72.5660 C   0  0  0  0  0  0  0  0  0  0  0  0
    4.5450   60.0460   71.9200 C   0  0  0  0  0  0  0  0  0  0  0  0
    5.3610   60.8590   71.1370 C   0  0  0  0  0  0  0  0  0  0  0  0
    5.0710   62.2150   71.0070 C   0  0  0  0  0  0  0  0  0  0  0  0
    3.9590   62.7590   71.6520 C   0  0  0  0  0  0  0  0  0  0  0  0
   -1.0423   66.5727   70.5721 H   0  0  0  0  0  0  0  0  0  0  0  0
   -1.1848   65.4177   69.0999 H   0  0  0  0  0  0  0  0  0  0  0  0
   -0.6900   68.2646   64.3269 H   0  0  0  0  0  0  0  0  0  0  0  0
   -0.5370   68.1201   69.2815 H   0  0  0  0  0  0  0  0  0  0  0  0
    1.8028   67.9570   69.0930 H   0  0  0  0  0  0  0  0  0  0  0  0
    1.7404   66.3101   68.4094 H   0  0  0  0  0  0  0  0  0  0  0  0
    3.5297   68.3566   67.0248 H   0  0  0  0  0  0  0  0  0  0  0  0
   -0.7210   68.7293   63.2526 H   0  0  0  0  0  0  0  0  0  0  0  0
   -0.2930   69.7466   61.8354 H   0  0  0  0  0  0  0  0  0  0  0  0
    0.1025   67.9944   61.8354 H   0  0  0  0  0  0  0  0  0  0  0  0
    4.7187   69.3077   66.2796 H   0  0  0  0  0  0  0  0  0  0  0  0
    5.6060   68.4761   64.9576 H   0  0  0  0  0  0  0  0  0  0  0  0
    5.4662   70.2669   64.9576 H   0  0  0  0  0  0  0  0  0  0  0  0
    1.4837   65.5131   69.7432 H   0  0  0  0  0  0  0  0  0  0  0  0
    1.9477   65.2616   71.8979 H   0  0  0  0  0  0  0  0  0  0  0  0
    0.4769   66.3189   72.0659 H   0  0  0  0  0  0  0  0  0  0  0  0
    0.3842   64.4684   73.6504 H   0  0  0  0  0  0  0  0  0  0  0  0
   -0.9075   64.3216   72.3925 H   0  0  0  0  0  0  0  0  0  0  0  0
    2.1391   63.0264   70.6294 H   0  0  0  0  0  0  0  0  0  0  0  0
    0.8998   61.7366   70.3886 H   0  0  0  0  0  0  0  0  0  0  0  0
    0.4556   63.5440   68.8317 H   0  0  0  0  0  0  0  0  0  0  0  0
   -0.8243   63.5316   70.1075 H   0  0  0  0  0  0  0  0  0  0  0  0
   -0.5728   61.7622   73.5998 H   0  0  0  0  0  0  0  0  0  0  0  0
   -1.3869   62.2427   72.0724 H   0  0  0  0  0  0  0  0  0  0  0  0
   -0.2020   60.8927   72.0724 H   0  0  0  0  0  0  0  0  0  0  0  0
    2.2172   63.4590   73.6167 H   0  0  0  0  0  0  0  0  0  0  0  0
    1.5568   61.7382   73.8029 H   0  0  0  0  0  0  0  0  0  0  0  0
    2.7971   59.9403   73.1883 H   0  0  0  0  0  0  0  0  0  0  0  0
    4.7775   58.9764   72.0292 H   0  0  0  0  0  0  0  0  0  0  0  0
    6.2334   60.4306   70.6219 H   0  0  0  0  0  0  0  0  0  0  0  0
    5.7197   62.8587   70.3947 H   0  0  0  0  0  0  0  0  0  0  0  0
    3.7406   63.8322   71.5497 H   0  0  0  0  0  0  0  0  0  0  0  0
  3  2  2  0
  4  3  1  0
  5  4  1  0
  6  5  1  0
  6  1  1  0
  7  6  1  0
  8  7  1  0
  8  4  2  0
  9  8  1  0
 10  9  2  0
 10  2  1  0
 12  2  1  0
 12 11  1  0
 13 10  1  0
 14 13  1  0
 15  1  1  0
 16 15  1  0
 17 16  1  0
 18 17  1  0
 19 18  1  0
 20 19  1  0
 20 15  1  0
 18 21  1  6
 22 18  1  0
 23 22  1  0
 24 23  2  0
 25 24  1  0
 26 25  2  0
 27 26  1  0
 28 27  2  0
 28 23  1  0
  1 29  1  0
  1 30  1  0
  3 31  1  0
  6 32  1  1
  7 33  1  0
  7 34  1  0
  9 35  1  0
 11 36  1  0
 11 37  1  0
 11 38  1  0
 14 39  1  0
 14 40  1  0
 14 41  1  0
 15 42  1  6
 16 43  1  0
 16 44  1  0
 17 45  1  0
 17 46  1  0
 19 47  1  0
 19 48  1  0
 20 49  1  0
 20 50  1  0
 21 51  1  0
 21 52  1  0
 21 53  1  0
 22 54  1  0
 22 55  1  0
 24 56  1  0
 25 57  1  0
 26 58  1  0
 27 59  1  0
 28 60  1  0
M  CHG  1  18   1
M  END
>  <score>  (3) 
-8.31

$$$$
=
     RDKit          3D

 60 63  0  0  0  0  0  0  0  0999 V2000
   -0.4140   66.4770   69.3350 C   0  0  0  0  0  0  0  0  0  0  0  0
    1.4460   68.8910   63.8170 C   0  0  0  0  0  0  0  0  0  0  0  0
    0.2600   68.5610   64.4840 C   0  0  0  0  0  0  0  0  0  0  0  0
    0.3240   68.1210   65.7940 C   0  0  0  0  0  0  0  0  0  0  0  0
   -1.0450   67.6660   66.8110 S   0  0  0  0  0  0  0  0  0  0  0  0
   -0.0030   67.5550   68.3090 C   0  0  2  0  0  0  0  0  0  0  0  0
    1.4620   67.4270   67.8360 C   0  0  0  0  0  0  0  0  0  0  0  0
    1.5470   67.9850   66.4450 C   0  0  0  0  0  0  0  0  0  0  0  0
    2.7360   68.2830   65.7810 C   0  0  0  0  0  0  0  0  0  0  0  0
    2.6970   68.7390   64.4540 C   0  0  0  0  0  0  0  0  0  0  0  0
   -0.0830   69.6530   62.1890 C   0  0  0  0  0  0  0  0  0  0  0  0
    1.2560   69.2930   62.5170 O   0  0  0  0  0  0  0  0  0  0  0  0
    3.8140   69.0050   63.7080 O   0  0  0  0  0  0  0  0  0  0  0  0
    4.9610   69.5100   64.3780 C   0  0  0  0  0  0  0  0  0  0  0  0
    0.6290   65.9520   70.3540 C   0  0  1  0  0  0  0  0  0  0  0  0
    0.0900   64.9390   71.3800 C   0  0  0  0  0  0  0  0  0  0  0  0
    0.3810   63.4990   70.9850 C   0  0  0  0  0  0  0  0  0  0  0  0
    1.9030   63.2340   70.9240 N   0  0  2  0  0  4  0  0  0  0  0  0
    2.6840   64.4940   70.5060 C   0  0  0  0  0  0  0  0  0  0  0  0
    1.8390   65.3710   69.5940 C   0  0  0  0  0  0  0  0  0  0  0  0
    2.1450   62.1230   69.9000 C   0  0  0  0  0  0  0  0  0  0  0  0
    2.3760   62.7570   72.3280 C   0  0  0  0  0  0  0  0  0  0  0  0
    2.5400   61.2680   72.5190 C   0  0  0  0  0  0  0  0  0  0  0  0
    1.4210   60.4520   72.7580 C   0  0  0  0  0  0  0  0  0  0  0  0
    1.5670   59.0740   72.9240 C   0  0  0  0  0  0  0  0  0  0  0  0
    2.8310   58.4940   72.8620 C   0  0  0  0  0  0  0  0  0  0  0  0
    3.9520   59.2910   72.6440 C   0  0  0  0  0  0  0  0  0  0  0  0
    3.8090   60.6700   72.4770 C   0  0  0  0  0  0  0  0  0  0  0  0
   -1.2489   66.8929   69.9181 H   0  0  0  0  0  0  0  0  0  0  0  0
   -0.6290   65.5970   68.7110 H   0  0  0  0  0  0  0  0  0  0  0  0
   -0.7100   68.6504   63.9730 H   0  0  0  0  0  0  0  0  0  0  0  0
   -0.1460   68.4736   68.8969 H   0  0  0  0  0  0  0  0  0  0  0  0
    2.1228   67.9947   68.5077 H   0  0  0  0  0  0  0  0  0  0  0  0
    1.7779   66.3734   67.8467 H   0  0  0  0  0  0  0  0  0  0  0  0
    3.7009   68.1613   66.2949 H   0  0  0  0  0  0  0  0  0  0  0  0
   -0.6581   69.8076   63.1138 H   0  0  0  0  0  0  0  0  0  0  0  0
   -0.0791   70.5820   61.6000 H   0  0  0  0  0  0  0  0  0  0  0  0
   -0.5455   68.8473   61.6000 H   0  0  0  0  0  0  0  0  0  0  0  0
    4.8094   69.4433   65.4655 H   0  0  0  0  0  0  0  0  0  0  0  0
    5.8426   68.9168   64.0936 H   0  0  0  0  0  0  0  0  0  0  0  0
    5.1188   70.5608   64.0936 H   0  0  0  0  0  0  0  0  0  0  0  0
    0.9272   66.8215   70.9582 H   0  0  0  0  0  0  0  0  0  0  0  0
    0.5600   65.1395   72.3541 H   0  0  0  0  0  0  0  0  0  0  0  0
   -1.0025   65.0588   71.4258 H   0  0  0  0  0  0  0  0  0  0  0  0
   -0.0714   62.8247   71.7271 H   0  0  0  0  0  0  0  0  0  0  0  0
   -0.0449   63.3181   69.9870 H   0  0  0  0  0  0  0  0  0  0  0  0
    2.9565   65.0653   71.4057 H   0  0  0  0  0  0  0  0  0  0  0  0
    3.5889   64.1856   69.9619 H   0  0  0  0  0  0  0  0  0  0  0  0
    2.4576   66.1983   69.2158 H   0  0  0  0  0  0  0  0  0  0  0  0
    1.4679   64.7561   68.7608 H   0  0  0  0  0  0  0  0  0  0  0  0
    2.3507   61.1787   70.4253 H   0  0  0  0  0  0  0  0  0  0  0  0
    1.2516   62.0047   69.2693 H   0  0  0  0  0  0  0  0  0  0  0  0
    3.0067   62.3870   69.2693 H   0  0  0  0  0  0  0  0  0  0  0  0
    3.3494   63.2281   72.5296 H   0  0  0  0  0  0  0  0  0  0  0  0
    1.5717   63.0501   73.0188 H   0  0  0  0  0  0  0  0  0  0  0  0
    0.4198   60.9041   72.8148 H   0  0  0  0  0  0  0  0  0  0  0  0
    0.6824   58.4455   73.1040 H   0  0  0  0  0  0  0  0  0  0  0  0
    2.9443   57.4068   72.9851 H   0  0  0  0  0  0  0  0  0  0  0  0
    4.9516   58.8336   72.6033 H   0  0  0  0  0  0  0  0  0  0  0  0
    4.6997   61.2937   72.3109 H   0  0  0  0  0  0  0  0  0  0  0  0
  3  2  2  0
  4  3  1  0
  5  4  1  0
  6  5  1  0
  6  1  1  0
  7  6  1  0
  8  7  1  0
  8  4  2  0
  9  8  1  0
 10  9  2  0
 10  2  1  0
 12  2  1  0
 12 11  1  0
 13 10  1  0
 14 13  1  0
 15  1  1  0
 16 15  1  0
 17 16  1  0
 18 17  1  0
 19 18  1  0
 20 19  1  0
 20 15  1  0
 18 21  1  6
 22 18  1  0
 23 22  1  0
 24 23  2  0
 25 24  1  0
 26 25  2  0
 27 26  1  0
 28 27  2  0
 28 23  1  0
  1 29  1  0
  1 30  1  0
  3 31  1  0
  6 32  1  1
  7 33  1  0
  7 34  1  0
  9 35  1  0
 11 36  1  0
 11 37  1  0
 11 38  1  0
 14 39  1  0
 14 40  1  0
 14 41  1  0
 15 42  1  1
 16 43  1  0
 16 44  1  0
 17 45  1  0
 17 46  1  0
 19 47  1  0
 19 48  1  0
 20 49  1  0
 20 50  1  0
 21 51  1  0
 21 52  1  0
 21 53  1  0
 22 54  1  0
 22 55  1  0
 24 56  1  0
 25 57  1  0
 26 58  1  0
 27 59  1  0
 28 60  1  0
M  CHG  1  18   1
M  END
>  <score>  (4) 
-8.242

$$$$
=
     RDKit          3D

 60 63  0  0  0  0  0  0  0  0999 V2000
    0.4260   56.8420   73.7460 C   0  0  0  0  0  0  0  0  0  0  0  0
   -4.8180   59.5270   75.9880 C   0  0  0  0  0  0  0  0  0  0  0  0
   -4.1050   58.3280   76.1100 C   0  0  0  0  0  0  0  0  0  0  0  0
   -2.8850   58.2010   75.4710 C   0  0  0  0  0  0  0  0  0  0  0  0
   -1.8300   56.7880   75.5050 S   0  0  0  0  0  0  0  0  0  0  0  0
   -0.4620   57.6840   74.6880 C   0  0  2  0  0  0  0  0  0  0  0  0
   -1.0750   58.9270   74.0060 C   0  0  0  0  0  0  0  0  0  0  0  0
   -2.3710   59.2380   74.6960 C   0  0  0  0  0  0  0  0  0  0  0  0
   -3.0870   60.4260   74.5440 C   0  0  0  0  0  0  0  0  0  0  0  0
   -4.3230   60.5810   75.1900 C   0  0  0  0  0  0  0  0  0  0  0  0
   -6.9440   58.5290   76.2140 C   0  0  0  0  0  0  0  0  0  0  0  0
   -6.0220   59.5250   76.6490 O   0  0  0  0  0  0  0  0  0  0  0  0
   -5.1170   61.6890   75.0550 O   0  0  0  0  0  0  0  0  0  0  0  0
   -4.8130   62.8300   75.8450 C   0  0  0  0  0  0  0  0  0  0  0  0
    1.8910   57.2730   73.4850 C   0  0  1  0  0  0  0  0  0  0  0  0
    2.1290   58.0150   72.1570 C   0  0  0  0  0  0  0  0  0  0  0  0
    2.1640   59.5250   72.3320 C   0  0  0  0  0  0  0  0  0  0  0  0
    3.3360   59.9540   73.2450 N   0  0  2  0  0  4  0  0  0  0  0  0
    3.6540   58.8830   74.3040 C   0  0  0  0  0  0  0  0  0  0  0  0
    2.3990   58.1090   74.6790 C   0  0  0  0  0  0  0  0  0  0  0  0
    2.9360   61.2560   73.9420 C   0  0  0  0  0  0  0  0  0  0  0  0
    4.5870   60.2070   72.3540 C   0  0  0  0  0  0  0  0  0  0  0  0
    4.4260   61.1950   71.2220 C   0  0  0  0  0  0  0  0  0  0  0  0
    4.9580   62.4910   71.3250 C   0  0  0  0  0  0  0  0  0  0  0  0
    4.8210   63.4020   70.2770 C   0  0  0  0  0  0  0  0  0  0  0  0
    4.1440   63.0340   69.1170 C   0  0  0  0  0  0  0  0  0  0  0  0
    3.5940   61.7600   69.0070 C   0  0  0  0  0  0  0  0  0  0  0  0
    3.7300   60.8450   70.0540 C   0  0  0  0  0  0  0  0  0  0  0  0
    0.4622   55.8257   74.1653 H   0  0  0  0  0  0  0  0  0  0  0  0
   -0.0555   56.9619   72.7643 H   0  0  0  0  0  0  0  0  0  0  0  0
   -4.5102   57.4974   76.7067 H   0  0  0  0  0  0  0  0  0  0  0  0
    0.2652   57.9782   75.4591 H   0  0  0  0  0  0  0  0  0  0  0  0
   -0.3879   59.7811   74.0981 H   0  0  0  0  0  0  0  0  0  0  0  0
   -1.2464   58.7328   72.9369 H   0  0  0  0  0  0  0  0  0  0  0  0
   -2.6842   61.2377   73.9203 H   0  0  0  0  0  0  0  0  0  0  0  0
   -7.3962   58.0405   77.0897 H   0  0  0  0  0  0  0  0  0  0  0  0
   -7.7328   58.9990   75.6083 H   0  0  0  0  0  0  0  0  0  0  0  0
   -6.4146   57.7788   75.6083 H   0  0  0  0  0  0  0  0  0  0  0  0
   -4.8830   62.5672   76.9109 H   0  0  0  0  0  0  0  0  0  0  0  0
   -3.7924   63.1719   75.6179 H   0  0  0  0  0  0  0  0  0  0  0  0
   -5.5282   63.6343   75.6179 H   0  0  0  0  0  0  0  0  0  0  0  0
    2.4681   56.3419   73.3857 H   0  0  0  0  0  0  0  0  0  0  0  0
    3.0909   57.6862   71.7366 H   0  0  0  0  0  0  0  0  0  0  0  0
    1.2913   57.7756   71.4855 H   0  0  0  0  0  0  0  0  0  0  0  0
    2.2851   59.9979   71.3463 H   0  0  0  0  0  0  0  0  0  0  0  0
    1.2216   59.8437   72.8013 H   0  0  0  0  0  0  0  0  0  0  0  0
    4.4013   58.1849   73.8987 H   0  0  0  0  0  0  0  0  0  0  0  0
    4.0452   59.3803   75.2038 H   0  0  0  0  0  0  0  0  0  0  0  0
    2.6281   57.4361   75.5185 H   0  0  0  0  0  0  0  0  0  0  0  0
    1.6156   58.8263   74.9648 H   0  0  0  0  0  0  0  0  0  0  0  0
    2.9789   61.1164   75.0323 H   0  0  0  0  0  0  0  0  0  0  0  0
    3.6293   62.0576   73.6474 H   0  0  0  0  0  0  0  0  0  0  0  0
    1.9122   61.5301   73.6474 H   0  0  0  0  0  0  0  0  0  0  0  0
    5.3918   60.5763   73.0067 H   0  0  0  0  0  0  0  0  0  0  0  0
    4.7954   59.2424   71.8680 H   0  0  0  0  0  0  0  0  0  0  0  0
    5.4880   62.7907   72.2411 H   0  0  0  0  0  0  0  0  0  0  0  0
    5.2481   64.4117   70.3672 H   0  0  0  0  0  0  0  0  0  0  0  0
    4.0439   63.7499   68.2879 H   0  0  0  0  0  0  0  0  0  0  0  0
    3.0514   61.4732   68.0942 H   0  0  0  0  0  0  0  0  0  0  0  0
    3.2880   59.8419   69.9624 H   0  0  0  0  0  0  0  0  0  0  0  0
  3  2  2  0
  4  3  1  0
  5  4  1  0
  6  5  1  0
  6  1  1  0
  7  6  1  0
  8  7  1  0
  8  4  2  0
  9  8  1  0
 10  9  2  0
 10  2  1  0
 12  2  1  0
 12 11  1  0
 13 10  1  0
 14 13  1  0
 15  1  1  0
 16 15  1  0
 17 16  1  0
 18 17  1  0
 19 18  1  0
 20 19  1  0
 20 15  1  0
 18 21  1  1
 22 18  1  0
 23 22  1  0
 24 23  2  0
 25 24  1  0
 26 25  2  0
 27 26  1  0
 28 27  2  0
 28 23  1  0
  1 29  1  0
  1 30  1  0
  3 31  1  0
  6 32  1  1
  7 33  1  0
  7 34  1  0
  9 35  1  0
 11 36  1  0
 11 37  1  0
 11 38  1  0
 14 39  1  0
 14 40  1  0
 14 41  1  0
 15 42  1  6
 16 43  1  0
 16 44  1  0
 17 45  1  0
 17 46  1  0
 19 47  1  0
 19 48  1  0
 20 49  1  0
 20 50  1  0
 21 51  1  0
 21 52  1  0
 21 53  1  0
 22 54  1  0
 22 55  1  0
 24 56  1  0
 25 57  1  0
 26 58  1  0
 27 59  1  0
 28 60  1  0
M  CHG  1  18   1
M  END
>  <score>  (5) 
-7.748

$$$$
=
     RDKit          3D

 60 63  0  0  0  0  0  0  0  0999 V2000
   -0.2570   66.4880   69.3970 C   0  0  0  0  0  0  0  0  0  0  0  0
    3.1540   69.0710   64.7680 C   0  0  0  0  0  0  0  0  0  0  0  0
    2.0120   68.2760   64.9270 C   0  0  0  0  0  0  0  0  0  0  0  0
    1.5440   68.0160   66.2030 C   0  0  0  0  0  0  0  0  0  0  0  0
    0.1260   67.0530   66.6190 S   0  0  0  0  0  0  0  0  0  0  0  0
    0.1970   67.5530   68.3760 C   0  0  2  0  0  0  0  0  0  0  0  0
    1.6220   68.0890   68.6390 C   0  0  0  0  0  0  0  0  0  0  0  0
    2.2040   68.5150   67.3230 C   0  0  0  0  0  0  0  0  0  0  0  0
    3.3590   69.2840   67.1770 C   0  0  0  0  0  0  0  0  0  0  0  0
    3.8480   69.5680   65.8920 C   0  0  0  0  0  0  0  0  0  0  0  0
    4.6630   68.4710   63.0550 C   0  0  0  0  0  0  0  0  0  0  0  0
    3.5330   69.2390   63.4580 O   0  0  0  0  0  0  0  0  0  0  0  0
    5.0010   70.2680   65.6560 O   0  0  0  0  0  0  0  0  0  0  0  0
    6.1110   70.0390   66.5140 C   0  0  0  0  0  0  0  0  0  0  0  0
    0.7170   66.0290   70.5110 C   0  0  1  0  0  0  0  0  0  0  0  0
    0.0510   65.3850   71.7400 C   0  0  0  0  0  0  0  0  0  0  0  0
    0.0730   63.8660   71.6860 C   0  0  0  0  0  0  0  0  0  0  0  0
    1.5220   63.3280   71.6890 N   0  0  2  0  0  4  0  0  0  0  0  0
    2.4930   64.3020   70.9960 C   0  0  0  0  0  0  0  0  0  0  0  0
    1.7790   65.0860   69.9060 C   0  0  0  0  0  0  0  0  0  0  0  0
    1.5280   61.9900   70.9470 C   0  0  0  0  0  0  0  0  0  0  0  0
    1.9600   63.1030   73.1660 C   0  0  0  0  0  0  0  0  0  0  0  0
    0.8570   62.9580   74.1870 C   0  0  0  0  0  0  0  0  0  0  0  0
    0.1290   61.7600   74.2850 C   0  0  0  0  0  0  0  0  0  0  0  0
   -0.8840   61.6190   75.2350 C   0  0  0  0  0  0  0  0  0  0  0  0
   -1.1890   62.6730   76.0920 C   0  0  0  0  0  0  0  0  0  0  0  0
   -0.4880   63.8730   75.9950 C   0  0  0  0  0  0  0  0  0  0  0  0
    0.5250   64.0170   75.0460 C   0  0  0  0  0  0  0  0  0  0  0  0
   -1.1504   66.8877   69.8990 H   0  0  0  0  0  0  0  0  0  0  0  0
   -0.3890   65.5845   68.7835 H   0  0  0  0  0  0  0  0  0  0  0  0
    1.4937   67.8636   64.0488 H   0  0  0  0  0  0  0  0  0  0  0  0
   -0.5545   68.3391   68.5410 H   0  0  0  0  0  0  0  0  0  0  0  0
    1.5776   68.9486   69.3240 H   0  0  0  0  0  0  0  0  0  0  0  0
    2.2461   67.3091   69.0998 H   0  0  0  0  0  0  0  0  0  0  0  0
    3.8842   69.6661   68.0648 H   0  0  0  0  0  0  0  0  0  0  0  0
    5.1965   68.1084   63.9460 H   0  0  0  0  0  0  0  0  0  0  0  0
    4.3277   67.6130   62.4539 H   0  0  0  0  0  0  0  0  0  0  0  0
    5.3374   69.0986   62.4539 H   0  0  0  0  0  0  0  0  0  0  0  0
    5.7843   70.1064   67.5622 H   0  0  0  0  0  0  0  0  0  0  0  0
    6.5224   69.0371   66.3219 H   0  0  0  0  0  0  0  0  0  0  0  0
    6.8853   70.7963   66.3219 H   0  0  0  0  0  0  0  0  0  0  0  0
    1.1838   66.9453   70.9015 H   0  0  0  0  0  0  0  0  0  0  0  0
    0.5857   65.7135   72.6434 H   0  0  0  0  0  0  0  0  0  0  0  0
   -1.0018   65.7034   71.7544 H   0  0  0  0  0  0  0  0  0  0  0  0
   -0.4594   63.4680   72.5624 H   0  0  0  0  0  0  0  0  0  0  0  0
   -0.4167   63.5432   70.7554 H   0  0  0  0  0  0  0  0  0  0  0  0
    2.8945   65.0038   71.7419 H   0  0  0  0  0  0  0  0  0  0  0  0
    3.3093   63.7233   70.5392 H   0  0  0  0  0  0  0  0  0  0  0  0
    2.5166   65.6837   69.3503 H   0  0  0  0  0  0  0  0  0  0  0  0
    1.2757   64.3751   69.2342 H   0  0  0  0  0  0  0  0  0  0  0  0
    1.5317   61.1664   71.6761 H   0  0  0  0  0  0  0  0  0  0  0  0
    0.6302   61.9168   70.3157 H   0  0  0  0  0  0  0  0  0  0  0  0
    2.4264   61.9248   70.3157 H   0  0  0  0  0  0  0  0  0  0  0  0
    2.5659   62.1855   73.1977 H   0  0  0  0  0  0  0  0  0  0  0  0
    2.4977   64.0195   73.4503 H   0  0  0  0  0  0  0  0  0  0  0  0
    0.3596   60.9254   73.6066 H   0  0  0  0  0  0  0  0  0  0  0  0
   -1.4421   60.6738   75.3066 H   0  0  0  0  0  0  0  0  0  0  0  0
   -1.9827   62.5584   76.8449 H   0  0  0  0  0  0  0  0  0  0  0  0
   -0.7333   64.7082   76.6674 H   0  0  0  0  0  0  0  0  0  0  0  0
    1.0688   64.9702   74.9705 H   0  0  0  0  0  0  0  0  0  0  0  0
  3  2  2  0
  4  3  1  0
  5  4  1  0
  6  5  1  0
  6  1  1  0
  7  6  1  0
  8  7  1  0
  8  4  2  0
  9  8  1  0
 10  9  2  0
 10  2  1  0
 12  2  1  0
 12 11  1  0
 13 10  1  0
 14 13  1  0
 15  1  1  0
 16 15  1  0
 17 16  1  0
 18 17  1  0
 19 18  1  0
 20 19  1  0
 20 15  1  0
 18 21  1  6
 22 18  1  0
 23 22  1  0
 24 23  2  0
 25 24  1  0
 26 25  2  0
 27 26  1  0
 28 27  2  0
 28 23  1  0
  1 29  1  0
  1 30  1  0
  3 31  1  0
  6 32  1  6
  7 33  1  0
  7 34  1  0
  9 35  1  0
 11 36  1  0
 11 37  1  0
 11 38  1  0
 14 39  1  0
 14 40  1  0
 14 41  1  0
 15 42  1  1
 16 43  1  0
 16 44  1  0
 17 45  1  0
 17 46  1  0
 19 47  1  0
 19 48  1  0
 20 49  1  0
 20 50  1  0
 21 51  1  0
 21 52  1  0
 21 53  1  0
 22 54  1  0
 22 55  1  0
 24 56  1  0
 25 57  1  0
 26 58  1  0
 27 59  1  0
 28 60  1  0
M  CHG  1  18   1
M  END
>  <score>  (6) 
-7.623

$$$$
=
     RDKit          3D

 60 63  0  0  0  0  0  0  0  0999 V2000
   -0.8420   59.6710   74.8440 C   0  0  0  0  0  0  0  0  0  0  0  0
   -6.2070   62.8670   75.7090 C   0  0  0  0  0  0  0  0  0  0  0  0
   -4.8400   62.9940   75.9850 C   0  0  0  0  0  0  0  0  0  0  0  0
   -3.9620   62.0420   75.4990 C   0  0  0  0  0  0  0  0  0  0  0  0
   -2.2120   62.0240   75.7230 S   0  0  0  0  0  0  0  0  0  0  0  0
   -1.9890   60.6570   74.5310 C   0  0  2  0  0  0  0  0  0  0  0  0
   -3.3620   59.9690   74.3640 C   0  0  0  0  0  0  0  0  0  0  0  0
   -4.4220   60.9550   74.7610 C   0  0  0  0  0  0  0  0  0  0  0  0
   -5.7840   60.8030   74.5040 C   0  0  0  0  0  0  0  0  0  0  0  0
   -6.6930   61.7600   74.9810 C   0  0  0  0  0  0  0  0  0  0  0  0
   -7.1890   64.9930   75.4270 C   0  0  0  0  0  0  0  0  0  0  0  0
   -6.9780   63.8590   76.2630 O   0  0  0  0  0  0  0  0  0  0  0  0
   -8.0500   61.6640   74.8230 O   0  0  0  0  0  0  0  0  0  0  0  0
   -8.5840   61.8160   73.5140 C   0  0  0  0  0  0  0  0  0  0  0  0
    0.0250   59.1120   73.6880 C   0  0  1  0  0  0  0  0  0  0  0  0
    0.6930   60.1750   72.7960 C   0  0  0  0  0  0  0  0  0  0  0  0
    2.1390   60.4370   73.1860 C   0  0  0  0  0  0  0  0  0  0  0  0
    3.0030   59.1680   73.0100 N   0  0  2  0  0  4  0  0  0  0  0  0
    2.1880   57.8850   73.2540 C   0  0  0  0  0  0  0  0  0  0  0  0
    1.0770   58.1390   74.2620 C   0  0  0  0  0  0  0  0  0  0  0  0
    4.1530   59.2390   74.0170 C   0  0  0  0  0  0  0  0  0  0  0  0
    3.5810   59.1630   71.5640 C   0  0  0  0  0  0  0  0  0  0  0  0
    3.7940   60.5080   70.9130 C   0  0  0  0  0  0  0  0  0  0  0  0
    3.0340   60.8880   69.7940 C   0  0  0  0  0  0  0  0  0  0  0  0
    3.2200   62.1350   69.1970 C   0  0  0  0  0  0  0  0  0  0  0  0
    4.1720   63.0160   69.7030 C   0  0  0  0  0  0  0  0  0  0  0  0
    4.9460   62.6480   70.8010 C   0  0  0  0  0  0  0  0  0  0  0  0
    4.7620   61.4010   71.4010 C   0  0  0  0  0  0  0  0  0  0  0  0
   -0.1586   60.1854   75.5356 H   0  0  0  0  0  0  0  0  0  0  0  0
   -1.3649   58.7818   75.2258 H   0  0  0  0  0  0  0  0  0  0  0  0
   -4.4689   63.8407   76.5811 H   0  0  0  0  0  0  0  0  0  0  0  0
   -1.6465   61.0855   73.5775 H   0  0  0  0  0  0  0  0  0  0  0  0
   -3.5046   59.6685   73.3155 H   0  0  0  0  0  0  0  0  0  0  0  0
   -3.4195   59.0692   74.9942 H   0  0  0  0  0  0  0  0  0  0  0  0
   -6.1445   59.9367   73.9299 H   0  0  0  0  0  0  0  0  0  0  0  0
   -7.3546   65.8832   76.0516 H   0  0  0  0  0  0  0  0  0  0  0  0
   -6.3047   65.1500   74.7920 H   0  0  0  0  0  0  0  0  0  0  0  0
   -8.0706   64.8214   74.7920 H   0  0  0  0  0  0  0  0  0  0  0  0
   -9.6400   62.1166   73.5814 H   0  0  0  0  0  0  0  0  0  0  0  0
   -8.0167   62.5883   72.9740 H   0  0  0  0  0  0  0  0  0  0  0  0
   -8.5084   60.8607   72.9740 H   0  0  0  0  0  0  0  0  0  0  0  0
   -0.6688   58.5867   73.0152 H   0  0  0  0  0  0  0  0  0  0  0  0
    0.6664   59.8273   71.7527 H   0  0  0  0  0  0  0  0  0  0  0  0
    0.1368   61.1155   72.9231 H   0  0  0  0  0  0  0  0  0  0  0  0
    2.5432   61.2376   72.5491 H   0  0  0  0  0  0  0  0  0  0  0  0
    2.1663   60.7334   74.2450 H   0  0  0  0  0  0  0  0  0  0  0  0
    1.7447   57.5523   72.3038 H   0  0  0  0  0  0  0  0  0  0  0  0
    2.8585   57.1099   73.6536 H   0  0  0  0  0  0  0  0  0  0  0  0
    0.5886   57.1845   74.5080 H   0  0  0  0  0  0  0  0  0  0  0  0
    1.5169   58.5889   75.1643 H   0  0  0  0  0  0  0  0  0  0  0  0
    3.7474   59.2140   75.0392 H   0  0  0  0  0  0  0  0  0  0  0  0
    4.8245   58.3806   73.8679 H   0  0  0  0  0  0  0  0  0  0  0  0
    4.7138   60.1735   73.8679 H   0  0  0  0  0  0  0  0  0  0  0  0
    4.5539   58.6507   71.5960 H   0  0  0  0  0  0  0  0  0  0  0  0
    2.8175   58.6630   70.9499 H   0  0  0  0  0  0  0  0  0  0  0  0
    2.2844   60.1949   69.3844 H   0  0  0  0  0  0  0  0  0  0  0  0
    2.6138   62.4226   68.3254 H   0  0  0  0  0  0  0  0  0  0  0  0
    4.3128   64.0019   69.2360 H   0  0  0  0  0  0  0  0  0  0  0  0
    5.7034   63.3410   71.1960 H   0  0  0  0  0  0  0  0  0  0  0  0
    5.3810   61.1151   72.2642 H   0  0  0  0  0  0  0  0  0  0  0  0
  3  2  2  0
  4  3  1  0
  5  4  1  0
  6  5  1  0
  6  1  1  0
  7  6  1  0
  8  7  1  0
  8  4  2  0
  9  8  1  0
 10  9  2  0
 10  2  1  0
 12  2  1  0
 12 11  1  0
 13 10  1  0
 14 13  1  0
 15  1  1  0
 16 15  1  0
 17 16  1  0
 18 17  1  0
 19 18  1  0
 20 19  1  0
 20 15  1  0
 18 21  1  1
 22 18  1  0
 23 22  1  0
 24 23  2  0
 25 24  1  0
 26 25  2  0
 27 26  1  0
 28 27  2  0
 28 23  1  0
  1 29  1  0
  1 30  1  0
  3 31  1  0
  6 32  1  6
  7 33  1  0
  7 34  1  0
  9 35  1  0
 11 36  1  0
 11 37  1  0
 11 38  1  0
 14 39  1  0
 14 40  1  0
 14 41  1  0
 15 42  1  6
 16 43  1  0
 16 44  1  0
 17 45  1  0
 17 46  1  0
 19 47  1  0
 19 48  1  0
 20 49  1  0
 20 50  1  0
 21 51  1  0
 21 52  1  0
 21 53  1  0
 22 54  1  0
 22 55  1  0
 24 56  1  0
 25 57  1  0
 26 58  1  0
 27 59  1  0
 28 60  1  0
M  CHG  1  18   1
M  END
>  <score>  (7) 
-7.538

$$$$
=
     RDKit          3D

 60 63  0  0  0  0  0  0  0  0999 V2000
   -2.4680   60.1080   74.8150 C   0  0  0  0  0  0  0  0  0  0  0  0
    2.9090   60.8320   71.6040 C   0  0  0  0  0  0  0  0  0  0  0  0
    2.2770   59.8810   72.4160 C   0  0  0  0  0  0  0  0  0  0  0  0
    0.9860   60.1170   72.8520 C   0  0  0  0  0  0  0  0  0  0  0  0
    0.0150   59.0490   73.8670 S   0  0  0  0  0  0  0  0  0  0  0  0
   -1.4960   60.0480   73.6170 C   0  0  2  0  0  0  0  0  0  0  0  0
   -1.0450   61.4400   73.1210 C   0  0  0  0  0  0  0  0  0  0  0  0
    0.3200   61.2920   72.5130 C   0  0  0  0  0  0  0  0  0  0  0  0
    0.9490   62.2580   71.7300 C   0  0  0  0  0  0  0  0  0  0  0  0
    2.2560   62.0380   71.2690 C   0  0  0  0  0  0  0  0  0  0  0  0
    5.1950   60.8910   72.1870 C   0  0  0  0  0  0  0  0  0  0  0  0
    4.1930   60.4950   71.2540 O   0  0  0  0  0  0  0  0  0  0  0  0
    2.9700   62.9520   70.5400 O   0  0  0  0  0  0  0  0  0  0  0  0
    2.3900   64.2300   70.3180 C   0  0  0  0  0  0  0  0  0  0  0  0
   -3.9140   60.6220   74.6040 C   0  0  1  0  0  0  0  0  0  0  0  0
   -5.0160   59.5580   74.7560 C   0  0  0  0  0  0  0  0  0  0  0  0
   -5.6630   59.5820   76.1320 C   0  0  0  0  0  0  0  0  0  0  0  0
   -6.3720   60.9320   76.3910 N   0  0  2  0  0  4  0  0  0  0  0  0
   -5.6650   62.0940   75.6700 C   0  0  0  0  0  0  0  0  0  0  0  0
   -4.1750   61.8190   75.5420 C   0  0  0  0  0  0  0  0  0  0  0  0
   -6.3600   61.1860   77.9000 C   0  0  0  0  0  0  0  0  0  0  0  0
   -7.8440   60.8180   75.8980 C   0  0  0  0  0  0  0  0  0  0  0  0
   -8.2710   61.7720   74.8080 C   0  0  0  0  0  0  0  0  0  0  0  0
   -8.7400   63.0570   75.1290 C   0  0  0  0  0  0  0  0  0  0  0  0
   -9.1250   63.9460   74.1240 C   0  0  0  0  0  0  0  0  0  0  0  0
   -9.0550   63.5600   72.7870 C   0  0  0  0  0  0  0  0  0  0  0  0
   -8.6100   62.2840   72.4540 C   0  0  0  0  0  0  0  0  0  0  0  0
   -8.2240   61.3920   73.4570 C   0  0  0  0  0  0  0  0  0  0  0  0
   -2.5476   59.0856   75.2129 H   0  0  0  0  0  0  0  0  0  0  0  0
   -2.0190   60.8676   75.4718 H   0  0  0  0  0  0  0  0  0  0  0  0
    2.8014   58.9577   72.7032 H   0  0  0  0  0  0  0  0  0  0  0  0
   -2.1193   59.5461   72.8623 H   0  0  0  0  0  0  0  0  0  0  0  0
   -1.7519   61.8152   72.3663 H   0  0  0  0  0  0  0  0  0  0  0  0
   -1.0173   62.1547   73.9567 H   0  0  0  0  0  0  0  0  0  0  0  0
    0.4229   63.1896   71.4742 H   0  0  0  0  0  0  0  0  0  0  0  0
    4.8214   60.7433   73.2110 H   0  0  0  0  0  0  0  0  0  0  0  0
    6.0986   60.2824   72.0350 H   0  0  0  0  0  0  0  0  0  0  0  0
    5.4384   61.9529   72.0350 H   0  0  0  0  0  0  0  0  0  0  0  0
    2.1734   64.7073   71.2851 H   0  0  0  0  0  0  0  0  0  0  0  0
    3.0917   64.8572   69.7485 H   0  0  0  0  0  0  0  0  0  0  0  0
    1.4560   64.1148   69.7485 H   0  0  0  0  0  0  0  0  0  0  0  0
   -3.9745   60.9311   73.5501 H   0  0  0  0  0  0  0  0  0  0  0  0
   -5.7917   59.7428   73.9982 H   0  0  0  0  0  0  0  0  0  0  0  0
   -4.5483   58.5712   74.6238 H   0  0  0  0  0  0  0  0  0  0  0  0
   -6.4024   58.7700   76.1955 H   0  0  0  0  0  0  0  0  0  0  0  0
   -4.8768   59.4494   76.8899 H   0  0  0  0  0  0  0  0  0  0  0  0
   -6.0980   62.2129   74.6658 H   0  0  0  0  0  0  0  0  0  0  0  0
   -5.8061   63.0133   76.2574 H   0  0  0  0  0  0  0  0  0  0  0  0
   -3.6779   62.7114   75.1338 H   0  0  0  0  0  0  0  0  0  0  0  0
   -3.7755   61.5782   76.5382 H   0  0  0  0  0  0  0  0  0  0  0  0
   -6.4054   60.2253   78.4339 H   0  0  0  0  0  0  0  0  0  0  0  0
   -5.4358   61.7152   78.1754 H   0  0  0  0  0  0  0  0  0  0  0  0
   -7.2301   61.8000   78.1754 H   0  0  0  0  0  0  0  0  0  0  0  0
   -7.9910   59.7949   75.5216 H   0  0  0  0  0  0  0  0  0  0  0  0
   -8.4615   61.0806   76.7696 H   0  0  0  0  0  0  0  0  0  0  0  0
   -8.8044   63.3656   76.1829 H   0  0  0  0  0  0  0  0  0  0  0  0
   -9.4838   64.9518   74.3877 H   0  0  0  0  0  0  0  0  0  0  0  0
   -9.3513   64.2635   71.9950 H   0  0  0  0  0  0  0  0  0  0  0  0
   -8.5622   61.9774   71.3987 H   0  0  0  0  0  0  0  0  0  0  0  0
   -7.8801   60.3828   73.1862 H   0  0  0  0  0  0  0  0  0  0  0  0
  3  2  2  0
  4  3  1  0
  5  4  1  0
  6  5  1  0
  6  1  1  0
  7  6  1  0
  8  7  1  0
  8  4  2  0
  9  8  1  0
 10  9  2  0
 10  2  1  0
 12  2  1  0
 12 11  1  0
 13 10  1  0
 14 13  1  0
 15  1  1  0
 16 15  1  0
 17 16  1  0
 18 17  1  0
 19 18  1  0
 20 19  1  0
 20 15  1  0
 18 21  1  1
 22 18  1  0
 23 22  1  0
 24 23  2  0
 25 24  1  0
 26 25  2  0
 27 26  1  0
 28 27  2  0
 28 23  1  0
  1 29  1  0
  1 30  1  0
  3 31  1  0
  6 32  1  6
  7 33  1  0
  7 34  1  0
  9 35  1  0
 11 36  1  0
 11 37  1  0
 11 38  1  0
 14 39  1  0
 14 40  1  0
 14 41  1  0
 15 42  1  6
 16 43  1  0
 16 44  1  0
 17 45  1  0
 17 46  1  0
 19 47  1  0
 19 48  1  0
 20 49  1  0
 20 50  1  0
 21 51  1  0
 21 52  1  0
 21 53  1  0
 22 54  1  0
 22 55  1  0
 24 56  1  0
 25 57  1  0
 26 58  1  0
 27 59  1  0
 28 60  1  0
M  CHG  1  18   1
M  END
>  <score>  (8) 
-7.342

$$$$
=
     RDKit          3D

 60 63  0  0  0  0  0  0  0  0999 V2000
   -0.9300   58.4440   74.7160 C   0  0  0  0  0  0  0  0  0  0  0  0
   -6.9840   59.7190   75.9260 C   0  0  0  0  0  0  0  0  0  0  0  0
   -5.9750   58.8510   76.3610 C   0  0  0  0  0  0  0  0  0  0  0  0
   -4.6960   58.9950   75.8550 C   0  0  0  0  0  0  0  0  0  0  0  0
   -3.2890   58.0180   76.2770 S   0  0  0  0  0  0  0  0  0  0  0  0
   -2.1440   59.1260   75.3810 C   0  0  2  0  0  0  0  0  0  0  0  0
   -2.9950   59.9600   74.3970 C   0  0  0  0  0  0  0  0  0  0  0  0
   -4.4070   59.9740   74.9080 C   0  0  0  0  0  0  0  0  0  0  0  0
   -5.4100   60.8250   74.4450 C   0  0  0  0  0  0  0  0  0  0  0  0
   -6.7140   60.7030   74.9500 C   0  0  0  0  0  0  0  0  0  0  0  0
   -8.2860   58.2670   77.2530 C   0  0  0  0  0  0  0  0  0  0  0  0
   -8.2120   59.4640   76.4830 O   0  0  0  0  0  0  0  0  0  0  0  0
   -7.7700   61.4590   74.5170 O   0  0  0  0  0  0  0  0  0  0  0  0
   -8.0120   61.5320   73.1180 C   0  0  0  0  0  0  0  0  0  0  0  0
    0.0050   59.2690   73.7960 C   0  0  1  0  0  0  0  0  0  0  0  0
    0.6240   60.5210   74.4450 C   0  0  0  0  0  0  0  0  0  0  0  0
    2.0380   60.2770   74.9490 C   0  0  0  0  0  0  0  0  0  0  0  0
    2.9900   59.9170   73.7850 N   0  0  2  0  0  4  0  0  0  0  0  0
    2.2560   59.1650   72.6600 C   0  0  0  0  0  0  0  0  0  0  0  0
    1.1030   58.3490   73.2240 C   0  0  0  0  0  0  0  0  0  0  0  0
    4.1040   59.0310   74.3470 C   0  0  0  0  0  0  0  0  0  0  0  0
    3.6070   61.2340   73.2290 C   0  0  0  0  0  0  0  0  0  0  0  0
    3.3530   61.5410   71.7720 C   0  0  0  0  0  0  0  0  0  0  0  0
    4.2260   61.0640   70.7800 C   0  0  0  0  0  0  0  0  0  0  0  0
    3.9880   61.3360   69.4330 C   0  0  0  0  0  0  0  0  0  0  0  0
    2.8820   62.0940   69.0580 C   0  0  0  0  0  0  0  0  0  0  0  0
    2.0180   62.5900   70.0310 C   0  0  0  0  0  0  0  0  0  0  0  0
    2.2530   62.3190   71.3810 C   0  0  0  0  0  0  0  0  0  0  0  0
   -0.3056   58.0422   75.5276 H   0  0  0  0  0  0  0  0  0  0  0  0
   -1.3887   57.7170   74.0296 H   0  0  0  0  0  0  0  0  0  0  0  0
   -6.1971   58.0638   77.0966 H   0  0  0  0  0  0  0  0  0  0  0  0
   -1.6463   59.7742   76.1173 H   0  0  0  0  0  0  0  0  0  0  0  0
   -2.6061   60.9876   74.3442 H   0  0  0  0  0  0  0  0  0  0  0  0
   -2.9559   59.5218   73.3888 H   0  0  0  0  0  0  0  0  0  0  0  0
   -5.1803   61.5886   73.6873 H   0  0  0  0  0  0  0  0  0  0  0  0
   -8.2705   58.5183   78.3238 H   0  0  0  0  0  0  0  0  0  0  0  0
   -9.2188   57.7348   77.0148 H   0  0  0  0  0  0  0  0  0  0  0  0
   -7.4259   57.6240   77.0148 H   0  0  0  0  0  0  0  0  0  0  0  0
   -9.0515   61.8456   72.9416 H   0  0  0  0  0  0  0  0  0  0  0  0
   -7.3265   62.2633   72.6650 H   0  0  0  0  0  0  0  0  0  0  0  0
   -7.8453   60.5436   72.6650 H   0  0  0  0  0  0  0  0  0  0  0  0
   -0.6326   59.6636   72.9912 H   0  0  0  0  0  0  0  0  0  0  0  0
    0.6499   61.3289   73.6989 H   0  0  0  0  0  0  0  0  0  0  0  0
    0.0022   60.7905   75.3114 H   0  0  0  0  0  0  0  0  0  0  0  0
    2.4049   61.1880   75.4444 H   0  0  0  0  0  0  0  0  0  0  0  0
    2.0163   59.4343   75.6557 H   0  0  0  0  0  0  0  0  0  0  0  0
    1.8628   59.8932   71.9353 H   0  0  0  0  0  0  0  0  0  0  0  0
    2.9654   58.4831   72.1682 H   0  0  0  0  0  0  0  0  0  0  0  0
    0.6731   57.7309   72.4220 H   0  0  0  0  0  0  0  0  0  0  0  0
    1.4866   57.7133   74.0356 H   0  0  0  0  0  0  0  0  0  0  0  0
    4.0728   59.0558   75.4463 H   0  0  0  0  0  0  0  0  0  0  0  0
    3.9609   57.9972   73.9993 H   0  0  0  0  0  0  0  0  0  0  0  0
    5.0790   59.4031   73.9993 H   0  0  0  0  0  0  0  0  0  0  0  0
    3.2012   62.0678   73.8208 H   0  0  0  0  0  0  0  0  0  0  0  0
    4.6957   61.0994   73.3101 H   0  0  0  0  0  0  0  0  0  0  0  0
    5.1059   60.4702   71.0685 H   0  0  0  0  0  0  0  0  0  0  0  0
    4.6754   60.9509   68.6654 H   0  0  0  0  0  0  0  0  0  0  0  0
    2.6909   62.3008   67.9946 H   0  0  0  0  0  0  0  0  0  0  0  0
    1.1489   63.1963   69.7359 H   0  0  0  0  0  0  0  0  0  0  0  0
    1.5695   62.7192   72.1443 H   0  0  0  0  0  0  0  0  0  0  0  0
  3  2  2  0
  4  3  1  0
  5  4  1  0
  6  5  1  0
  6  1  1  0
  7  6  1  0
  8  7  1  0
  8  4  2  0
  9  8  1  0
 10  9  2  0
 10  2  1  0
 12  2  1  0
 12 11  1  0
 13 10  1  0
 14 13  1  0
 15  1  1  0
 16 15  1  0
 17 16  1  0
 18 17  1  0
 19 18  1  0
 20 19  1  0
 20 15  1  0
 18 21  1  1
 22 18  1  0
 23 22  1  0
 24 23  2  0
 25 24  1  0
 26 25  2  0
 27 26  1  0
 28 27  2  0
 28 23  1  0
  1 29  1  0
  1 30  1  0
  3 31  1  0
  6 32  1  1
  7 33  1  0
  7 34  1  0
  9 35  1  0
 11 36  1  0
 11 37  1  0
 11 38  1  0
 14 39  1  0
 14 40  1  0
 14 41  1  0
 15 42  1  6
 16 43  1  0
 16 44  1  0
 17 45  1  0
 17 46  1  0
 19 47  1  0
 19 48  1  0
 20 49  1  0
 20 50  1  0
 21 51  1  0
 21 52  1  0
 21 53  1  0
 22 54  1  0
 22 55  1  0
 24 56  1  0
 25 57  1  0
 26 58  1  0
 27 59  1  0
 28 60  1  0
M  CHG  1  18   1
M  END
>  <score>  (9) 
-7.227

$$$$
