=
     RDKit          3D

 28 28  0  0  0  0  0  0  0  0999 V2000
    3.8050   67.6410   64.2530 C   0  0  0  0  0  0  0  0  0  0  0  0
    4.0180   67.4460   62.4430 P   0  0  0  0  0  5  0  0  0  0  0  0
    3.0140   68.0390   61.5140 O   0  0  0  0  0  0  0  0  0  0  0  0
    5.5010   67.9520   62.0900 O   0  0  0  0  0  0  0  0  0  0  0  0
    4.2140   65.8690   62.1950 O   0  0  0  0  0  0  0  0  0  0  0  0
    2.4100   66.6780   64.9060 P   0  0  0  0  0  5  0  0  0  0  0  0
    2.0130   66.8690   66.3310 O   0  0  0  0  0  0  0  0  0  0  0  0
    1.1730   66.9180   63.9090 O   0  0  0  0  0  0  0  0  0  0  0  0
    2.6960   65.1320   64.5860 O   0  0  0  0  0  0  0  0  0  0  0  0
    5.0330   67.1210   64.8430 O   0  0  0  0  0  0  0  0  0  0  0  0
    3.6690   69.1430   64.5600 C   0  0  0  0  0  0  0  0  0  0  0  0
    4.3450   69.6210   65.8190 C   0  0  0  0  0  0  0  0  0  0  0  0
    5.6950   69.9800   65.8270 C   0  0  0  0  0  0  0  0  0  0  0  0
    6.2900   70.4090   67.0080 C   0  0  0  0  0  0  0  0  0  0  0  0
    5.5110   70.4650   68.1510 C   0  0  0  0  0  0  0  0  0  0  0  0
    4.2050   70.1270   68.1880 N   0  0  0  0  0  0  0  0  0  0  0  0
    3.6520   69.7160   67.0240 C   0  0  0  0  0  0  0  0  0  0  0  0
    2.2910   68.4660   62.0384 H   0  0  0  0  0  0  0  0  0  0  0  0
    4.2720   65.4026   63.0663 H   0  0  0  0  0  0  0  0  0  0  0  0
    0.3504   67.0776   64.4362 H   0  0  0  0  0  0  0  0  0  0  0  0
    2.7887   64.6310   65.4348 H   0  0  0  0  0  0  0  0  0  0  0  0
    4.9631   67.1506   65.8301 H   0  0  0  0  0  0  0  0  0  0  0  0
    4.0986   69.7001   63.7144 H   0  0  0  0  0  0  0  0  0  0  0  0
    2.5942   69.3194   64.7138 H   0  0  0  0  0  0  0  0  0  0  0  0
    6.2859   69.9234   64.9009 H   0  0  0  0  0  0  0  0  0  0  0  0
    7.3515   70.6963   67.0335 H   0  0  0  0  0  0  0  0  0  0  0  0
    5.9844   70.8050   69.0839 H   0  0  0  0  0  0  0  0  0  0  0  0
    2.5874   69.4391   67.0291 H   0  0  0  0  0  0  0  0  0  0  0  0
  2  1  1  0
  3  2  1  0
  4  2  2  0
  5  2  1  0
  6  1  1  0
  7  6  2  0
  8  6  1  0
  9  6  1  0
 10  1  1  0
 11  1  1  0
 12 11  1  0
 13 12  2  0
 14 13  1  0
 15 14  2  0
 16 15  1  0
 17 16  2  0
 17 12  1  0
  3 18  1  0
  5 19  1  0
  8 20  1  0
  9 21  1  0
 10 22  1  0
 11 23  1  0
 11 24  1  0
 13 25  1  0
 14 26  1  0
 15 27  1  0
 17 28  1  0
M  END
>  <score>  (1) 
-7.132

$$$$
=
     RDKit          3D

 28 28  0  0  0  0  0  0  0  0999 V2000
    1.7960   68.0050   66.1860 C   0  0  0  0  0  0  0  0  0  0  0  0
    2.2260   66.9090   64.7810 P   0  0  0  0  0  5  0  0  0  0  0  0
    3.5960   66.3270   64.6920 O   0  0  0  0  0  0  0  0  0  0  0  0
    1.1060   65.7590   64.7280 O   0  0  0  0  0  0  0  0  0  0  0  0
    1.8270   67.7250   63.4540 O   0  0  0  0  0  0  0  0  0  0  0  0
    0.0050   68.2610   66.3560 P   0  0  0  0  0  5  0  0  0  0  0  0
   -0.4810   69.3450   67.2570 O   0  0  0  0  0  0  0  0  0  0  0  0
   -0.5850   68.4160   64.8690 O   0  0  0  0  0  0  0  0  0  0  0  0
   -0.6520   66.8480   66.7410 O   0  0  0  0  0  0  0  0  0  0  0  0
    2.2710   67.3100   67.3770 O   0  0  0  0  0  0  0  0  0  0  0  0
    2.5580   69.3310   66.0100 C   0  0  0  0  0  0  0  0  0  0  0  0
    3.3630   69.7890   67.1990 C   0  0  0  0  0  0  0  0  0  0  0  0
    4.7490   69.9420   67.1210 C   0  0  0  0  0  0  0  0  0  0  0  0
    5.4630   70.3590   68.2400 C   0  0  0  0  0  0  0  0  0  0  0  0
    4.7620   70.6110   69.4080 C   0  0  0  0  0  0  0  0  0  0  0  0
    3.4250   70.4730   69.5250 N   0  0  0  0  0  0  0  0  0  0  0  0
    2.7560   70.0690   68.4220 C   0  0  0  0  0  0  0  0  0  0  0  0
    3.9505   66.1764   65.6040 H   0  0  0  0  0  0  0  0  0  0  0  0
    1.4068   68.5844   63.7089 H   0  0  0  0  0  0  0  0  0  0  0  0
   -1.5413   68.6672   64.9180 H   0  0  0  0  0  0  0  0  0  0  0  0
   -0.6927   66.7605   67.7263 H   0  0  0  0  0  0  0  0  0  0  0  0
    1.9484   67.7820   68.1852 H   0  0  0  0  0  0  0  0  0  0  0  0
    3.2474   69.2137   65.1609 H   0  0  0  0  0  0  0  0  0  0  0  0
    1.7866   70.1003   65.8579 H   0  0  0  0  0  0  0  0  0  0  0  0
    5.2747   69.7334   66.1775 H   0  0  0  0  0  0  0  0  0  0  0  0
    6.5549   70.4852   68.1984 H   0  0  0  0  0  0  0  0  0  0  0  0
    5.3281   70.9427   70.2909 H   0  0  0  0  0  0  0  0  0  0  0  0
    1.6644   69.9541   68.4942 H   0  0  0  0  0  0  0  0  0  0  0  0
  2  1  1  0
  3  2  1  0
  4  2  2  0
  5  2  1  0
  6  1  1  0
  7  6  2  0
  8  6  1  0
  9  6  1  0
 10  1  1  0
 11  1  1  0
 12 11  1  0
 13 12  2  0
 14 13  1  0
 15 14  2  0
 16 15  1  0
 17 16  2  0
 17 12  1  0
  3 18  1  0
  5 19  1  0
  8 20  1  0
  9 21  1  0
 10 22  1  0
 11 23  1  0
 11 24  1  0
 13 25  1  0
 14 26  1  0
 15 27  1  0
 17 28  1  0
M  END
>  <score>  (2) 
-6.688

$$$$
=
     RDKit          3D

 28 28  0  0  0  0  0  0  0  0999 V2000
    1.4710   68.5220   66.3890 C   0  0  0  0  0  0  0  0  0  0  0  0
   -0.3540   68.3470   66.3780 P   0  0  0  0  0  5  0  0  0  0  0  0
   -1.1850   69.2330   67.2410 O   0  0  0  0  0  0  0  0  0  0  0  0
   -0.8210   68.4330   64.8440 O   0  0  0  0  0  0  0  0  0  0  0  0
   -0.6430   66.7890   66.6530 O   0  0  0  0  0  0  0  0  0  0  0  0
    2.0930   69.3200   67.8980 P   0  0  0  0  0  5  0  0  0  0  0  0
    3.5100   69.7830   67.9320 O   0  0  0  0  0  0  0  0  0  0  0  0
    1.0720   70.5110   68.2470 O   0  0  0  0  0  0  0  0  0  0  0  0
    1.7720   68.3440   69.1310 O   0  0  0  0  0  0  0  0  0  0  0  0
    1.9890   67.1590   66.3490 O   0  0  0  0  0  0  0  0  0  0  0  0
    1.8870   69.2810   65.1160 C   0  0  0  0  0  0  0  0  0  0  0  0
    3.0550   68.7040   64.3580 C   0  0  0  0  0  0  0  0  0  0  0  0
    4.3700   69.0420   64.6840 C   0  0  0  0  0  0  0  0  0  0  0  0
    5.4240   68.4970   63.9580 C   0  0  0  0  0  0  0  0  0  0  0  0
    5.1270   67.6270   62.9240 C   0  0  0  0  0  0  0  0  0  0  0  0
    3.8710   67.2750   62.5760 N   0  0  0  0  0  0  0  0  0  0  0  0
    2.8660   67.8180   63.3000 C   0  0  0  0  0  0  0  0  0  0  0  0
   -0.9992   69.0349   68.1930 H   0  0  0  0  0  0  0  0  0  0  0  0
   -0.6732   66.6262   67.6291 H   0  0  0  0  0  0  0  0  0  0  0  0
    0.9943   70.6017   69.2298 H   0  0  0  0  0  0  0  0  0  0  0  0
    1.9300   68.8245   69.9820 H   0  0  0  0  0  0  0  0  0  0  0  0
    2.1153   66.8267   67.2730 H   0  0  0  0  0  0  0  0  0  0  0  0
    1.0215   69.3009   64.4374 H   0  0  0  0  0  0  0  0  0  0  0  0
    2.2139   70.2750   65.4553 H   0  0  0  0  0  0  0  0  0  0  0  0
    4.5718   69.7371   65.5123 H   0  0  0  0  0  0  0  0  0  0  0  0
    6.4666   68.7511   64.1997 H   0  0  0  0  0  0  0  0  0  0  0  0
    5.9627   67.1972   62.3523 H   0  0  0  0  0  0  0  0  0  0  0  0
    1.8341   67.5425   63.0367 H   0  0  0  0  0  0  0  0  0  0  0  0
  2  1  1  0
  3  2  1  0
  4  2  2  0
  5  2  1  0
  6  1  1  0
  7  6  2  0
  8  6  1  0
  9  6  1  0
 10  1  1  0
 11  1  1  0
 12 11  1  0
 13 12  2  0
 14 13  1  0
 15 14  2  0
 16 15  1  0
 17 16  2  0
 17 12  1  0
  3 18  1  0
  5 19  1  0
  8 20  1  0
  9 21  1  0
 10 22  1  0
 11 23  1  0
 11 24  1  0
 13 25  1  0
 14 26  1  0
 15 27  1  0
 17 28  1  0
M  END
>  <score>  (3) 
-6.579

$$$$
=
     RDKit          3D

 28 28  0  0  0  0  0  0  0  0999 V2000
    3.9460   67.9330   64.1370 C   0  0  0  0  0  0  0  0  0  0  0  0
    5.2330   69.1340   64.6500 P   0  0  0  0  0  5  0  0  0  0  0  0
    4.9620   70.0710   65.7760 O   0  0  0  0  0  0  0  0  0  0  0  0
    6.5770   68.2930   64.9090 O   0  0  0  0  0  0  0  0  0  0  0  0
    5.6650   69.9090   63.3080 O   0  0  0  0  0  0  0  0  0  0  0  0
    4.2900   67.1800   62.5200 P   0  0  0  0  0  5  0  0  0  0  0  0
    4.1180   65.7070   62.3650 O   0  0  0  0  0  0  0  0  0  0  0  0
    3.4290   67.9950   61.4360 O   0  0  0  0  0  0  0  0  0  0  0  0
    5.7610   67.6420   62.0730 O   0  0  0  0  0  0  0  0  0  0  0  0
    3.9790   66.8800   65.1460 O   0  0  0  0  0  0  0  0  0  0  0  0
    2.5840   68.6490   64.1670 C   0  0  0  0  0  0  0  0  0  0  0  0
    1.6960   68.3240   65.3400 C   0  0  0  0  0  0  0  0  0  0  0  0
    1.7780   69.0440   66.5340 C   0  0  0  0  0  0  0  0  0  0  0  0
    0.9490   68.7120   67.6010 C   0  0  0  0  0  0  0  0  0  0  0  0
    0.0590   67.6640   67.4370 C   0  0  0  0  0  0  0  0  0  0  0  0
   -0.0510   66.9430   66.3020 N   0  0  0  0  0  0  0  0  0  0  0  0
    0.7650   67.2890   65.2810 C   0  0  0  0  0  0  0  0  0  0  0  0
    5.0980   69.6008   66.6366 H   0  0  0  0  0  0  0  0  0  0  0  0
    6.1327   70.7480   63.5475 H   0  0  0  0  0  0  0  0  0  0  0  0
    2.7947   68.5954   61.9022 H   0  0  0  0  0  0  0  0  0  0  0  0
    6.3113   67.8148   62.8776 H   0  0  0  0  0  0  0  0  0  0  0  0
    3.9662   67.2871   66.0483 H   0  0  0  0  0  0  0  0  0  0  0  0
    2.7729   69.7326   64.1772 H   0  0  0  0  0  0  0  0  0  0  0  0
    2.0425   68.2966   63.2767 H   0  0  0  0  0  0  0  0  0  0  0  0
    2.4962   69.8715   66.6306 H   0  0  0  0  0  0  0  0  0  0  0  0
    0.9993   69.2671   68.5493 H   0  0  0  0  0  0  0  0  0  0  0  0
   -0.5965   67.4042   68.2813 H   0  0  0  0  0  0  0  0  0  0  0  0
    0.6891   66.7172   64.3444 H   0  0  0  0  0  0  0  0  0  0  0  0
  2  1  1  0
  3  2  1  0
  4  2  2  0
  5  2  1  0
  6  1  1  0
  7  6  2  0
  8  6  1  0
  9  6  1  0
 10  1  1  0
 11  1  1  0
 12 11  1  0
 13 12  2  0
 14 13  1  0
 15 14  2  0
 16 15  1  0
 17 16  2  0
 17 12  1  0
  3 18  1  0
  5 19  1  0
  8 20  1  0
  9 21  1  0
 10 22  1  0
 11 23  1  0
 11 24  1  0
 13 25  1  0
 14 26  1  0
 15 27  1  0
 17 28  1  0
M  END
>  <score>  (4) 
-6.344

$$$$
=
     RDKit          3D

 28 28  0  0  0  0  0  0  0  0999 V2000
    1.0590   67.7010   67.2190 C   0  0  0  0  0  0  0  0  0  0  0  0
   -0.6640   67.9130   66.6320 P   0  0  0  0  0  5  0  0  0  0  0  0
   -1.6650   66.8370   66.8790 O   0  0  0  0  0  0  0  0  0  0  0  0
   -1.1800   69.3240   67.2010 O   0  0  0  0  0  0  0  0  0  0  0  0
   -0.5490   68.2880   65.0720 O   0  0  0  0  0  0  0  0  0  0  0  0
    1.1540   66.9050   68.8490 P   0  0  0  0  0  5  0  0  0  0  0  0
    1.8410   65.5860   68.9630 O   0  0  0  0  0  0  0  0  0  0  0  0
    1.7800   67.9880   69.8590 O   0  0  0  0  0  0  0  0  0  0  0  0
   -0.3350   66.8370   69.4430 O   0  0  0  0  0  0  0  0  0  0  0  0
    1.6930   66.8200   66.2450 O   0  0  0  0  0  0  0  0  0  0  0  0
    1.7430   69.0800   67.2050 C   0  0  0  0  0  0  0  0  0  0  0  0
    2.9340   69.2140   66.2910 C   0  0  0  0  0  0  0  0  0  0  0  0
    4.1910   69.5690   66.7860 C   0  0  0  0  0  0  0  0  0  0  0  0
    5.2680   69.6930   65.9140 C   0  0  0  0  0  0  0  0  0  0  0  0
    5.0500   69.4550   64.5670 C   0  0  0  0  0  0  0  0  0  0  0  0
    3.8520   69.1120   64.0490 N   0  0  0  0  0  0  0  0  0  0  0  0
    2.8250   68.9980   64.9200 C   0  0  0  0  0  0  0  0  0  0  0  0
   -1.7813   66.7120   67.8542 H   0  0  0  0  0  0  0  0  0  0  0  0
   -0.2600   69.2304   64.9796 H   0  0  0  0  0  0  0  0  0  0  0  0
    1.6151   67.7026   70.7925 H   0  0  0  0  0  0  0  0  0  0  0  0
   -0.2961   66.8388   70.4322 H   0  0  0  0  0  0  0  0  0  0  0  0
    2.2006   66.1147   66.7193 H   0  0  0  0  0  0  0  0  0  0  0  0
    0.9947   69.8244   66.8951 H   0  0  0  0  0  0  0  0  0  0  0  0
    2.1304   69.2308   68.2234 H   0  0  0  0  0  0  0  0  0  0  0  0
    4.3290   69.7500   67.8622 H   0  0  0  0  0  0  0  0  0  0  0  0
    6.2654   69.9724   66.2842 H   0  0  0  0  0  0  0  0  0  0  0  0
    5.9032   69.5512   63.8794 H   0  0  0  0  0  0  0  0  0  0  0  0
    1.8397   68.7165   64.5200 H   0  0  0  0  0  0  0  0  0  0  0  0
  2  1  1  0
  3  2  1  0
  4  2  2  0
  5  2  1  0
  6  1  1  0
  7  6  2  0
  8  6  1  0
  9  6  1  0
 10  1  1  0
 11  1  1  0
 12 11  1  0
 13 12  2  0
 14 13  1  0
 15 14  2  0
 16 15  1  0
 17 16  2  0
 17 12  1  0
  3 18  1  0
  5 19  1  0
  8 20  1  0
  9 21  1  0
 10 22  1  0
 11 23  1  0
 11 24  1  0
 13 25  1  0
 14 26  1  0
 15 27  1  0
 17 28  1  0
M  END
>  <score>  (5) 
-6.135

$$$$
=
     RDKit          3D

 28 28  0  0  0  0  0  0  0  0999 V2000
    3.1740   61.1360   71.9020 C   0  0  0  0  0  0  0  0  0  0  0  0
    4.9110   61.5590   71.4970 P   0  0  0  0  0  5  0  0  0  0  0  0
    5.2220   62.8710   70.8620 O   0  0  0  0  0  0  0  0  0  0  0  0
    5.7670   61.3500   72.8400 O   0  0  0  0  0  0  0  0  0  0  0  0
    5.4710   60.3220   70.6350 O   0  0  0  0  0  0  0  0  0  0  0  0
    2.9510   59.3750   72.2900 P   0  0  0  0  0  5  0  0  0  0  0  0
    1.7050   58.9490   72.9910 O   0  0  0  0  0  0  0  0  0  0  0  0
    3.1660   58.5670   70.9190 O   0  0  0  0  0  0  0  0  0  0  0  0
    4.2580   58.8840   73.0810 O   0  0  0  0  0  0  0  0  0  0  0  0
    2.8580   61.9090   73.0980 O   0  0  0  0  0  0  0  0  0  0  0  0
    2.2850   61.5910   70.7310 C   0  0  0  0  0  0  0  0  0  0  0  0
    1.6360   62.9420   70.8830 C   0  0  0  0  0  0  0  0  0  0  0  0
    2.1510   64.0700   70.2410 C   0  0  0  0  0  0  0  0  0  0  0  0
    1.5320   65.3050   70.4100 C   0  0  0  0  0  0  0  0  0  0  0  0
    0.4120   65.3710   71.2210 C   0  0  0  0  0  0  0  0  0  0  0  0
   -0.1160   64.3060   71.8610 N   0  0  0  0  0  0  0  0  0  0  0  0
    0.5040   63.1190   71.6770 C   0  0  0  0  0  0  0  0  0  0  0  0
    5.3826   63.5485   71.5658 H   0  0  0  0  0  0  0  0  0  0  0  0
    5.7922   59.6125   71.2461 H   0  0  0  0  0  0  0  0  0  0  0  0
    3.4151   57.6309   71.1232 H   0  0  0  0  0  0  0  0  0  0  0  0
    4.0961   58.9448   74.0558 H   0  0  0  0  0  0  0  0  0  0  0  0
    3.0761   61.3755   73.9029 H   0  0  0  0  0  0  0  0  0  0  0  0
    2.9083   61.6167   69.8250 H   0  0  0  0  0  0  0  0  0  0  0  0
    1.4580   60.8671   70.6868 H   0  0  0  0  0  0  0  0  0  0  0  0
    3.0433   63.9828   69.6036 H   0  0  0  0  0  0  0  0  0  0  0  0
    1.9224   66.2049   69.9123 H   0  0  0  0  0  0  0  0  0  0  0  0
   -0.0761   66.3481   71.3515 H   0  0  0  0  0  0  0  0  0  0  0  0
    0.0889   62.2367   72.1862 H   0  0  0  0  0  0  0  0  0  0  0  0
  2  1  1  0
  3  2  1  0
  4  2  2  0
  5  2  1  0
  6  1  1  0
  7  6  2  0
  8  6  1  0
  9  6  1  0
 10  1  1  0
 11  1  1  0
 12 11  1  0
 13 12  2  0
 14 13  1  0
 15 14  2  0
 16 15  1  0
 17 16  2  0
 17 12  1  0
  3 18  1  0
  5 19  1  0
  8 20  1  0
  9 21  1  0
 10 22  1  0
 11 23  1  0
 11 24  1  0
 13 25  1  0
 14 26  1  0
 15 27  1  0
 17 28  1  0
M  END
>  <score>  (6) 
-6.056

$$$$
=
     RDKit          3D

 28 28  0  0  0  0  0  0  0  0999 V2000
    3.1330   61.7690   71.7830 C   0  0  0  0  0  0  0  0  0  0  0  0
    3.4920   63.1110   70.5880 P   0  0  0  0  0  5  0  0  0  0  0  0
    2.6980   64.3710   70.6330 O   0  0  0  0  0  0  0  0  0  0  0  0
    5.0660   63.4160   70.6890 O   0  0  0  0  0  0  0  0  0  0  0  0
    3.4520   62.4220   69.1350 O   0  0  0  0  0  0  0  0  0  0  0  0
    4.5520   60.6670   72.0520 P   0  0  0  0  0  5  0  0  0  0  0  0
    4.3280   59.3660   72.7470 O   0  0  0  0  0  0  0  0  0  0  0  0
    5.2570   60.4610   70.6220 O   0  0  0  0  0  0  0  0  0  0  0  0
    5.6990   61.5220   72.7780 O   0  0  0  0  0  0  0  0  0  0  0  0
    2.8360   62.4430   73.0420 O   0  0  0  0  0  0  0  0  0  0  0  0
    1.8900   61.0060   71.2890 C   0  0  0  0  0  0  0  0  0  0  0  0
    0.7320   60.9410   72.2510 C   0  0  0  0  0  0  0  0  0  0  0  0
    0.5690   59.8570   73.1160 C   0  0  0  0  0  0  0  0  0  0  0  0
   -0.5160   59.8240   73.9860 C   0  0  0  0  0  0  0  0  0  0  0  0
   -1.4080   60.8830   73.9620 C   0  0  0  0  0  0  0  0  0  0  0  0
   -1.2870   61.9480   73.1410 N   0  0  0  0  0  0  0  0  0  0  0  0
   -0.2220   61.9540   72.3080 C   0  0  0  0  0  0  0  0  0  0  0  0
    2.5372   64.6262   71.5759 H   0  0  0  0  0  0  0  0  0  0  0  0
    3.3949   61.4390   69.2374 H   0  0  0  0  0  0  0  0  0  0  0  0
    6.1987   60.1858   70.7549 H   0  0  0  0  0  0  0  0  0  0  0  0
    5.5963   61.4454   73.7597 H   0  0  0  0  0  0  0  0  0  0  0  0
    3.0937   61.8582   73.7982 H   0  0  0  0  0  0  0  0  0  0  0  0
    1.5372   61.4960   70.3695 H   0  0  0  0  0  0  0  0  0  0  0  0
    2.2169   59.9655   71.1461 H   0  0  0  0  0  0  0  0  0  0  0  0
    1.2963   59.0317   73.1095 H   0  0  0  0  0  0  0  0  0  0  0  0
   -0.6616   58.9789   74.6749 H   0  0  0  0  0  0  0  0  0  0  0  0
   -2.2645   60.8549   74.6516 H   0  0  0  0  0  0  0  0  0  0  0  0
   -0.1014   62.8136   71.6324 H   0  0  0  0  0  0  0  0  0  0  0  0
  2  1  1  0
  3  2  1  0
  4  2  2  0
  5  2  1  0
  6  1  1  0
  7  6  2  0
  8  6  1  0
  9  6  1  0
 10  1  1  0
 11  1  1  0
 12 11  1  0
 13 12  2  0
 14 13  1  0
 15 14  2  0
 16 15  1  0
 17 16  2  0
 17 12  1  0
  3 18  1  0
  5 19  1  0
  8 20  1  0
  9 21  1  0
 10 22  1  0
 11 23  1  0
 11 24  1  0
 13 25  1  0
 14 26  1  0
 15 27  1  0
 17 28  1  0
M  END
>  <score>  (7) 
-5.931

$$$$
=
     RDKit          3D

 28 28  0  0  0  0  0  0  0  0999 V2000
    0.6680   68.0900   65.0340 C   0  0  0  0  0  0  0  0  0  0  0  0
   -0.1230   68.7620   63.5230 P   0  0  0  0  0  5  0  0  0  0  0  0
    0.3180   70.0790   62.9820 O   0  0  0  0  0  0  0  0  0  0  0  0
   -0.0300   67.6170   62.4000 O   0  0  0  0  0  0  0  0  0  0  0  0
   -1.7060   68.7230   63.8060 O   0  0  0  0  0  0  0  0  0  0  0  0
   -0.3260   68.3640   66.5300 P   0  0  0  0  0  5  0  0  0  0  0  0
   -1.1470   67.2380   67.0600 O   0  0  0  0  0  0  0  0  0  0  0  0
    0.6690   68.9500   67.6470 O   0  0  0  0  0  0  0  0  0  0  0  0
   -1.2250   69.6710   66.2820 O   0  0  0  0  0  0  0  0  0  0  0  0
    0.7660   66.6530   64.8100 O   0  0  0  0  0  0  0  0  0  0  0  0
    2.0750   68.7030   65.1510 C   0  0  0  0  0  0  0  0  0  0  0  0
    3.0850   68.2280   64.1380 C   0  0  0  0  0  0  0  0  0  0  0  0
    3.7270   69.1240   63.2790 C   0  0  0  0  0  0  0  0  0  0  0  0
    4.6480   68.6510   62.3500 C   0  0  0  0  0  0  0  0  0  0  0  0
    4.8990   67.2900   62.3100 C   0  0  0  0  0  0  0  0  0  0  0  0
    4.3000   66.3920   63.1200 N   0  0  0  0  0  0  0  0  0  0  0  0
    3.4110   66.8800   64.0150 C   0  0  0  0  0  0  0  0  0  0  0  0
    0.5232   70.6918   63.7320 H   0  0  0  0  0  0  0  0  0  0  0  0
   -1.8666   68.7190   64.7829 H   0  0  0  0  0  0  0  0  0  0  0  0
    0.3142   68.7410   68.5473 H   0  0  0  0  0  0  0  0  0  0  0  0
   -1.4915   70.0584   67.1532 H   0  0  0  0  0  0  0  0  0  0  0  0
    0.7979   66.1846   65.6816 H   0  0  0  0  0  0  0  0  0  0  0  0
    1.9777   69.7935   65.0445 H   0  0  0  0  0  0  0  0  0  0  0  0
    2.4602   68.3810   66.1298 H   0  0  0  0  0  0  0  0  0  0  0  0
    3.5048   70.1997   63.3373 H   0  0  0  0  0  0  0  0  0  0  0  0
    5.1634   69.3403   61.6650 H   0  0  0  0  0  0  0  0  0  0  0  0
    5.6290   66.9191   61.5754 H   0  0  0  0  0  0  0  0  0  0  0  0
    2.9139   66.1664   64.6886 H   0  0  0  0  0  0  0  0  0  0  0  0
  2  1  1  0
  3  2  1  0
  4  2  2  0
  5  2  1  0
  6  1  1  0
  7  6  2  0
  8  6  1  0
  9  6  1  0
 10  1  1  0
 11  1  1  0
 12 11  1  0
 13 12  2  0
 14 13  1  0
 15 14  2  0
 16 15  1  0
 17 16  2  0
 17 12  1  0
  3 18  1  0
  5 19  1  0
  8 20  1  0
  9 21  1  0
 10 22  1  0
 11 23  1  0
 11 24  1  0
 13 25  1  0
 14 26  1  0
 15 27  1  0
 17 28  1  0
M  END
>  <score>  (8) 
-5.93

$$$$
=
     RDKit          3D

 28 28  0  0  0  0  0  0  0  0999 V2000
    3.4120   67.4450   63.5560 C   0  0  0  0  0  0  0  0  0  0  0  0
    3.8560   65.6940   63.8650 P   0  0  0  0  0  5  0  0  0  0  0  0
    2.9870   64.8540   64.7360 O   0  0  0  0  0  0  0  0  0  0  0  0
    4.0690   65.0070   62.4280 O   0  0  0  0  0  0  0  0  0  0  0  0
    5.3830   65.7150   64.3720 O   0  0  0  0  0  0  0  0  0  0  0  0
    4.6420   68.3150   62.5410 P   0  0  0  0  0  5  0  0  0  0  0  0
    5.4000   69.4470   63.1470 O   0  0  0  0  0  0  0  0  0  0  0  0
    5.6260   67.1950   61.9430 O   0  0  0  0  0  0  0  0  0  0  0  0
    3.9170   68.7650   61.1810 O   0  0  0  0  0  0  0  0  0  0  0  0
    2.1580   67.3990   62.8130 O   0  0  0  0  0  0  0  0  0  0  0  0
    3.1920   68.1300   64.9170 C   0  0  0  0  0  0  0  0  0  0  0  0
    1.7950   68.0490   65.4770 C   0  0  0  0  0  0  0  0  0  0  0  0
    0.7410   68.7630   64.9030 C   0  0  0  0  0  0  0  0  0  0  0  0
   -0.5350   68.6720   65.4490 C   0  0  0  0  0  0  0  0  0  0  0  0
   -0.7150   67.8650   66.5590 C   0  0  0  0  0  0  0  0  0  0  0  0
    0.2750   67.1600   67.1450 N   0  0  0  0  0  0  0  0  0  0  0  0
    1.5040   67.2650   66.5910 C   0  0  0  0  0  0  0  0  0  0  0  0
    3.1869   65.0472   65.6862 H   0  0  0  0  0  0  0  0  0  0  0  0
    5.4021   65.7153   65.3618 H   0  0  0  0  0  0  0  0  0  0  0  0
    6.0575   66.7039   62.6864 H   0  0  0  0  0  0  0  0  0  0  0  0
    3.0962   69.2744   61.3975 H   0  0  0  0  0  0  0  0  0  0  0  0
    1.3990   67.3712   63.4480 H   0  0  0  0  0  0  0  0  0  0  0  0
    3.8737   67.6633   65.6432 H   0  0  0  0  0  0  0  0  0  0  0  0
    3.3823   69.1998   64.7458 H   0  0  0  0  0  0  0  0  0  0  0  0
    0.9195   69.3959   64.0212 H   0  0  0  0  0  0  0  0  0  0  0  0
   -1.3780   69.2262   65.0106 H   0  0  0  0  0  0  0  0  0  0  0  0
   -1.7250   67.7942   66.9889 H   0  0  0  0  0  0  0  0  0  0  0  0
    2.3260   66.6953   67.0490 H   0  0  0  0  0  0  0  0  0  0  0  0
  2  1  1  0
  3  2  1  0
  4  2  2  0
  5  2  1  0
  6  1  1  0
  7  6  2  0
  8  6  1  0
  9  6  1  0
 10  1  1  0
 11  1  1  0
 12 11  1  0
 13 12  2  0
 14 13  1  0
 15 14  2  0
 16 15  1  0
 17 16  2  0
 17 12  1  0
  3 18  1  0
  5 19  1  0
  8 20  1  0
  9 21  1  0
 10 22  1  0
 11 23  1  0
 11 24  1  0
 13 25  1  0
 14 26  1  0
 15 27  1  0
 17 28  1  0
M  END
>  <score>  (9) 
-5.922

$$$$
