=
     RDKit          3D

 55 58  0  0  0  0  0  0  0  0999 V2000
    1.5560   61.4150   72.7050 C   0  0  2  0  0  0  0  0  0  0  0  0
    2.4450   62.3860   71.8870 C   0  0  0  0  0  0  0  0  0  0  0  0
    3.4100   61.8710   71.0670 C   0  0  0  0  0  0  0  0  0  0  0  0
    3.6630   60.3970   70.9590 C   0  0  0  0  0  0  0  0  0  0  0  0
    4.3440   59.9260   70.0380 O   0  0  0  0  0  0  0  0  0  0  0  0
    2.9850   59.4580   71.9990 C   0  0  2  0  0  0  0  0  0  0  0  0
    1.5540   59.9260   72.2560 C   0  0  1  0  0  0  0  0  0  0  0  0
    0.8120   59.0190   73.2950 C   0  0  0  0  0  0  0  0  0  0  0  0
    1.6200   57.8130   73.8390 C   0  0  1  0  0  0  0  0  0  0  0  0
    3.0130   58.2960   74.1630 C   0  0  0  0  0  0  0  0  0  0  0  0
    3.6770   59.1470   73.3420 C   0  0  0  0  0  0  0  0  0  0  0  0
    4.7420   59.7920   73.5150 O   0  0  0  0  0  1  0  0  0  0  0  0
    3.5310   57.9840   75.5210 C   0  0  0  0  0  0  0  0  0  0  0  0
    4.6520   57.5860   75.8130 O   0  0  0  0  0  0  0  0  0  0  0  0
    2.5410   58.1450   76.5990 C   0  0  0  0  0  0  0  0  0  0  0  0
    1.2040   57.7400   76.3820 C   0  0  0  0  0  0  0  0  0  0  0  0
    0.8820   57.0990   75.0280 C   0  0  2  0  0  0  0  0  0  0  0  0
    1.2720   55.6090   75.0850 C   0  0  0  0  0  0  0  0  0  0  0  0
    0.3240   57.8630   77.4740 C   0  0  0  0  0  0  0  0  0  0  0  0
   -1.3170   57.3140   77.4460 Cl  0  0  0  0  0  0  0  0  0  0  0  0
    0.7550   58.4070   78.6960 C   0  0  0  0  0  0  0  0  0  0  0  0
    2.0770   58.8020   78.8760 C   0  0  0  0  0  0  0  0  0  0  0  0
    2.9750   58.6520   77.8330 C   0  0  0  0  0  0  0  0  0  0  0  0
    2.1550   63.6040   72.1180 O   0  0  0  0  0  1  0  0  0  0  0  0
    4.2260   62.7910   70.1990 C   0  0  0  0  0  0  0  0  0  0  0  0
    5.1960   63.4330   70.5890 O   0  0  0  0  0  0  0  0  0  0  0  0
    3.8590   62.8260   68.8820 N   0  0  0  0  0  0  0  0  0  0  0  0
   -0.3260   62.4510   74.0760 C   0  0  0  0  0  0  0  0  0  0  0  0
    0.0290   61.8400   72.7580 N   0  0  0  0  0  4  0  0  0  0  0  0
   -0.3900   62.6950   71.6040 C   0  0  0  0  0  0  0  0  0  0  0  0
   -0.5200   57.1350   74.7230 O   0  0  0  0  0  0  0  0  0  0  0  0
    4.2720   59.0110   78.0790 O   0  0  0  0  0  0  0  0  0  0  0  0
    2.8970   58.1860   71.2950 O   0  0  0  0  0  0  0  0  0  0  0  0
    2.0457   61.4939   73.6868 H   0  0  0  0  0  0  0  0  0  0  0  0
    0.9950   59.8395   71.3126 H   0  0  0  0  0  0  0  0  0  0  0  0
    0.5291   59.6490   74.1512 H   0  0  0  0  0  0  0  0  0  0  0  0
   -0.0429   58.5857   72.7552 H   0  0  0  0  0  0  0  0  0  0  0  0
    1.7036   57.0235   73.0776 H   0  0  0  0  0  0  0  0  0  0  0  0
    1.3551   55.2916   76.1349 H   0  0  0  0  0  0  0  0  0  0  0  0
    0.5008   55.0085   74.5804 H   0  0  0  0  0  0  0  0  0  0  0  0
    2.2385   55.4634   74.5804 H   0  0  0  0  0  0  0  0  0  0  0  0
    0.0373   58.5221   79.5216 H   0  0  0  0  0  0  0  0  0  0  0  0
    2.4047   59.2284   79.8356 H   0  0  0  0  0  0  0  0  0  0  0  0
    4.3677   63.4309   68.2215 H   0  0  0  0  0  0  0  0  0  0  0  0
    3.0739   62.2475   68.5506 H   0  0  0  0  0  0  0  0  0  0  0  0
    0.0461   61.8105   74.8892 H   0  0  0  0  0  0  0  0  0  0  0  0
    0.1340   63.4472   74.1541 H   0  0  0  0  0  0  0  0  0  0  0  0
   -1.4192   62.5448   74.1541 H   0  0  0  0  0  0  0  0  0  0  0  0
   -0.5150   60.9704   72.6645 H   0  0  0  0  0  0  0  0  0  0  0  0
   -0.8447   63.6229   71.9812 H   0  0  0  0  0  0  0  0  0  0  0  0
    0.4898   62.9406   70.9912 H   0  0  0  0  0  0  0  0  0  0  0  0
   -1.1232   62.1501   70.9912 H   0  0  0  0  0  0  0  0  0  0  0  0
   -1.0406   57.1484   75.5649 H   0  0  0  0  0  0  0  0  0  0  0  0
    4.9536   58.9231   77.3664 H   0  0  0  0  0  0  0  0  0  0  0  0
    2.8459   57.4477   71.9526 H   0  0  0  0  0  0  0  0  0  0  0  0
  2  1  1  0
  3  2  2  0
  4  3  1  0
  5  4  2  0
  6  4  1  0
  7  6  1  0
  7  1  1  0
  8  7  1  0
  9  8  1  0
 10  9  1  0
 11 10  2  0
 11  6  1  0
 12 11  1  0
 13 10  1  0
 14 13  2  0
 15 13  1  0
 16 15  2  0
 17  9  1  0
 17 16  1  0
 18 17  1  0
 19 16  1  0
 20 19  1  0
 21 19  2  0
 22 21  1  0
 23 22  2  0
 23 15  1  0
 24  2  1  0
 25  3  1  0
 26 25  2  0
 27 25  1  0
 29 28  1  0
 29  1  1  0
 30 29  1  0
 17 31  1  6
 32 23  1  0
  6 33  1  6
  1 34  1  1
  7 35  1  6
  8 36  1  0
  8 37  1  0
  9 38  1  6
 18 39  1  0
 18 40  1  0
 18 41  1  0
 21 42  1  0
 22 43  1  0
 27 44  1  0
 27 45  1  0
 28 46  1  0
 28 47  1  0
 28 48  1  0
 29 49  1  0
 30 50  1  0
 30 51  1  0
 30 52  1  0
 31 53  1  0
 32 54  1  0
 33 55  1  0
M  CHG  3  12  -1  24  -1  29   1
M  END
>  <score>  (1) 
-8.06

$$$$
=
     RDKit          3D

 55 58  0  0  0  0  0  0  0  0999 V2000
    2.7640   61.5210   72.0320 C   0  0  2  0  0  0  0  0  0  0  0  0
    2.2060   62.4680   70.9390 C   0  0  0  0  0  0  0  0  0  0  0  0
    1.2410   63.3770   71.2780 C   0  0  0  0  0  0  0  0  0  0  0  0
    0.6790   63.4650   72.6640 C   0  0  0  0  0  0  0  0  0  0  0  0
    0.0100   64.4420   73.0270 O   0  0  0  0  0  0  0  0  0  0  0  0
    1.0160   62.3230   73.6670 C   0  0  2  0  0  0  0  0  0  0  0  0
    2.4800   61.9180   73.5090 C   0  0  1  0  0  0  0  0  0  0  0  0
    2.8860   60.7710   74.4950 C   0  0  0  0  0  0  0  0  0  0  0  0
    1.7760   60.2850   75.4610 C   0  0  1  0  0  0  0  0  0  0  0  0
    0.5000   60.1400   74.6680 C   0  0  0  0  0  0  0  0  0  0  0  0
    0.1340   61.0600   73.7410 C   0  0  0  0  0  0  0  0  0  0  0  0
   -0.7720   61.0320   72.8710 O   0  0  0  0  0  1  0  0  0  0  0  0
   -0.2140   58.8420   74.7810 C   0  0  0  0  0  0  0  0  0  0  0  0
   -1.4200   58.6680   74.9060 O   0  0  0  0  0  0  0  0  0  0  0  0
    0.6670   57.6620   74.7780 C   0  0  0  0  0  0  0  0  0  0  0  0
    1.8950   57.7100   75.4770 C   0  0  0  0  0  0  0  0  0  0  0  0
    2.2070   58.9960   76.2500 C   0  0  2  0  0  0  0  0  0  0  0  0
    1.4890   58.9350   77.6130 C   0  0  0  0  0  0  0  0  0  0  0  0
    2.6600   56.5280   75.4870 C   0  0  0  0  0  0  0  0  0  0  0  0
    4.1310   56.3490   76.3820 Cl  0  0  0  0  0  0  0  0  0  0  0  0
    2.2360   55.3820   74.7920 C   0  0  0  0  0  0  0  0  0  0  0  0
    1.0240   55.3700   74.1080 C   0  0  0  0  0  0  0  0  0  0  0  0
    0.2300   56.5040   74.1180 C   0  0  0  0  0  0  0  0  0  0  0  0
    2.7350   62.2450   69.8030 O   0  0  0  0  0  1  0  0  0  0  0  0
    0.7490   64.3630   70.2530 C   0  0  0  0  0  0  0  0  0  0  0  0
   -0.3800   64.3550   69.7690 O   0  0  0  0  0  0  0  0  0  0  0  0
    1.6330   65.3530   69.9240 N   0  0  0  0  0  0  0  0  0  0  0  0
    4.6770   60.0600   71.1980 C   0  0  0  0  0  0  0  0  0  0  0  0
    4.3320   61.3060   71.9490 N   0  0  0  0  0  4  0  0  0  0  0  0
    5.0700   62.5030   71.4350 C   0  0  0  0  0  0  0  0  0  0  0  0
    3.6060   59.1370   76.5390 O   0  0  0  0  0  0  0  0  0  0  0  0
   -0.9720   56.4210   73.4700 O   0  0  0  0  0  0  0  0  0  0  0  0
    0.8910   62.9700   74.9660 O   0  0  0  0  0  0  0  0  0  0  0  0
    2.2039   60.6054   71.7913 H   0  0  0  0  0  0  0  0  0  0  0  0
    3.1018   62.7872   73.7694 H   0  0  0  0  0  0  0  0  0  0  0  0
    3.2109   59.9090   73.8939 H   0  0  0  0  0  0  0  0  0  0  0  0
    3.6741   61.1938   75.1354 H   0  0  0  0  0  0  0  0  0  0  0  0
    1.5978   61.0250   76.2551 H   0  0  0  0  0  0  0  0  0  0  0  0
    2.2318   58.9981   78.4219 H   0  0  0  0  0  0  0  0  0  0  0  0
    0.7854   59.7766   77.6948 H   0  0  0  0  0  0  0  0  0  0  0  0
    0.9375   57.9868   77.6948 H   0  0  0  0  0  0  0  0  0  0  0  0
    2.8702   54.4833   74.7887 H   0  0  0  0  0  0  0  0  0  0  0  0
    0.7005   54.4694   73.5654 H   0  0  0  0  0  0  0  0  0  0  0  0
    1.3713   66.0673   69.2296 H   0  0  0  0  0  0  0  0  0  0  0  0
    2.5606   65.3845   70.3706 H   0  0  0  0  0  0  0  0  0  0  0  0
    4.9006   59.2524   71.9106 H   0  0  0  0  0  0  0  0  0  0  0  0
    3.8265   59.7658   70.5654 H   0  0  0  0  0  0  0  0  0  0  0  0
    5.5577   60.2451   70.5654 H   0  0  0  0  0  0  0  0  0  0  0  0
    4.6568   61.1816   72.9185 H   0  0  0  0  0  0  0  0  0  0  0  0
    5.4376   63.0992   72.2832 H   0  0  0  0  0  0  0  0  0  0  0  0
    5.9218   62.1733   70.8221 H   0  0  0  0  0  0  0  0  0  0  0  0
    4.3928   63.1160   70.8221 H   0  0  0  0  0  0  0  0  0  0  0  0
    3.7406   59.1506   77.5197 H   0  0  0  0  0  0  0  0  0  0  0  0
   -1.5774   57.2040   73.4476 H   0  0  0  0  0  0  0  0  0  0  0  0
    1.0206   62.2993   75.6826 H   0  0  0  0  0  0  0  0  0  0  0  0
  2  1  1  0
  3  2  2  0
  4  3  1  0
  5  4  2  0
  6  4  1  0
  7  6  1  0
  7  1  1  0
  8  7  1  0
  9  8  1  0
 10  9  1  0
 11 10  2  0
 11  6  1  0
 12 11  1  0
 13 10  1  0
 14 13  2  0
 15 13  1  0
 16 15  2  0
 17  9  1  0
 17 16  1  0
 18 17  1  0
 19 16  1  0
 20 19  1  0
 21 19  2  0
 22 21  1  0
 23 22  2  0
 23 15  1  0
 24  2  1  0
 25  3  1  0
 26 25  2  0
 27 25  1  0
 29 28  1  0
 29  1  1  0
 30 29  1  0
 17 31  1  1
 32 23  1  0
  6 33  1  1
  1 34  1  6
  7 35  1  1
  8 36  1  0
  8 37  1  0
  9 38  1  1
 18 39  1  0
 18 40  1  0
 18 41  1  0
 21 42  1  0
 22 43  1  0
 27 44  1  0
 27 45  1  0
 28 46  1  0
 28 47  1  0
 28 48  1  0
 29 49  1  0
 30 50  1  0
 30 51  1  0
 30 52  1  0
 31 53  1  0
 32 54  1  0
 33 55  1  0
M  CHG  3  12  -1  24  -1  29   1
M  END
>  <score>  (2) 
-7.786

$$$$
=
     RDKit          3D

 55 58  0  0  0  0  0  0  0  0999 V2000
    2.3440   59.0500   73.4130 C   0  0  2  0  0  0  0  0  0  0  0  0
    2.7980   59.2110   71.9400 C   0  0  0  0  0  0  0  0  0  0  0  0
    2.9410   60.4690   71.4240 C   0  0  0  0  0  0  0  0  0  0  0  0
    2.6390   61.7000   72.2240 C   0  0  0  0  0  0  0  0  0  0  0  0
    3.0130   62.8200   71.8500 O   0  0  0  0  0  0  0  0  0  0  0  0
    1.8990   61.5280   73.5830 C   0  0  2  0  0  0  0  0  0  0  0  0
    2.4530   60.3100   74.3180 C   0  0  1  0  0  0  0  0  0  0  0  0
    1.7510   60.0820   75.6990 C   0  0  0  0  0  0  0  0  0  0  0  0
    0.6720   61.1250   76.0890 C   0  0  1  0  0  0  0  0  0  0  0  0
   -0.1860   61.3830   74.8740 C   0  0  0  0  0  0  0  0  0  0  0  0
    0.3580   61.5100   73.6380 C   0  0  0  0  0  0  0  0  0  0  0  0
   -0.1830   61.5460   72.5040 O   0  0  0  0  0  1  0  0  0  0  0  0
   -1.6560   61.2650   75.0550 C   0  0  0  0  0  0  0  0  0  0  0  0
   -2.5180   62.0170   74.6200 O   0  0  0  0  0  0  0  0  0  0  0  0
   -2.0740   60.1280   75.8920 C   0  0  0  0  0  0  0  0  0  0  0  0
   -1.3210   59.7950   77.0410 C   0  0  0  0  0  0  0  0  0  0  0  0
   -0.1250   60.6930   77.3730 C   0  0  2  0  0  0  0  0  0  0  0  0
   -0.6380   61.9350   78.1290 C   0  0  0  0  0  0  0  0  0  0  0  0
   -1.8120   58.7380   77.8300 C   0  0  0  0  0  0  0  0  0  0  0  0
   -1.1000   58.2580   79.3340 Cl  0  0  0  0  0  0  0  0  0  0  0  0
   -2.9650   58.0270   77.4570 C   0  0  0  0  0  0  0  0  0  0  0  0
   -3.6810   58.3760   76.3160 C   0  0  0  0  0  0  0  0  0  0  0  0
   -3.2460   59.4400   75.5440 C   0  0  0  0  0  0  0  0  0  0  0  0
    2.9660   58.0860   71.3690 O   0  0  0  0  0  1  0  0  0  0  0  0
    3.4640   60.6500   70.0240 C   0  0  0  0  0  0  0  0  0  0  0  0
    4.4470   60.0700   69.5700 O   0  0  0  0  0  0  0  0  0  0  0  0
    2.7210   61.4750   69.2260 N   0  0  0  0  0  0  0  0  0  0  0  0
    4.1380   58.4650   75.1250 C   0  0  0  0  0  0  0  0  0  0  0  0
    3.1110   57.9030   74.1950 N   0  0  0  0  0  4  0  0  0  0  0  0
    2.1960   56.9350   74.8770 C   0  0  0  0  0  0  0  0  0  0  0  0
    0.8170   60.0520   78.2470 O   0  0  0  0  0  0  0  0  0  0  0  0
   -4.0140   59.7700   74.4610 O   0  0  0  0  0  0  0  0  0  0  0  0
    2.3080   62.7040   74.3380 O   0  0  0  0  0  0  0  0  0  0  0  0
    1.2818   58.8105   73.2568 H   0  0  0  0  0  0  0  0  0  0  0  0
    3.5142   60.5002   74.5365 H   0  0  0  0  0  0  0  0  0  0  0  0
    1.2705   59.0928   75.6739 H   0  0  0  0  0  0  0  0  0  0  0  0
    2.5438   60.1758   76.4557 H   0  0  0  0  0  0  0  0  0  0  0  0
    1.1375   62.0774   76.3827 H   0  0  0  0  0  0  0  0  0  0  0  0
   -0.5659   61.7604   79.2127 H   0  0  0  0  0  0  0  0  0  0  0  0
   -0.0269   62.8082   77.8569 H   0  0  0  0  0  0  0  0  0  0  0  0
   -1.6872   62.1225   77.8569 H   0  0  0  0  0  0  0  0  0  0  0  0
   -3.3062   57.1834   78.0750 H   0  0  0  0  0  0  0  0  0  0  0  0
   -4.5820   57.8132   76.0307 H   0  0  0  0  0  0  0  0  0  0  0  0
    3.0123   61.6505   68.2538 H   0  0  0  0  0  0  0  0  0  0  0  0
    1.8699   61.9210   69.5971 H   0  0  0  0  0  0  0  0  0  0  0  0
    3.8240   58.2932   76.1651 H   0  0  0  0  0  0  0  0  0  0  0  0
    5.1040   57.9698   74.9470 H   0  0  0  0  0  0  0  0  0  0  0  0
    4.2417   59.5456   74.9470 H   0  0  0  0  0  0  0  0  0  0  0  0
    3.6089   57.3514   73.4818 H   0  0  0  0  0  0  0  0  0  0  0  0
    2.2965   57.0413   75.9672 H   0  0  0  0  0  0  0  0  0  0  0  0
    1.1568   57.1430   74.5825 H   0  0  0  0  0  0  0  0  0  0  0  0
    2.4622   55.9091   74.5825 H   0  0  0  0  0  0  0  0  0  0  0  0
    0.5638   60.2243   79.1884 H   0  0  0  0  0  0  0  0  0  0  0  0
   -3.7474   60.5230   73.8761 H   0  0  0  0  0  0  0  0  0  0  0  0
    2.2417   62.5134   75.3072 H   0  0  0  0  0  0  0  0  0  0  0  0
  2  1  1  0
  3  2  2  0
  4  3  1  0
  5  4  2  0
  6  4  1  0
  7  6  1  0
  7  1  1  0
  8  7  1  0
  9  8  1  0
 10  9  1  0
 11 10  2  0
 11  6  1  0
 12 11  1  0
 13 10  1  0
 14 13  2  0
 15 13  1  0
 16 15  2  0
 17  9  1  0
 17 16  1  0
 18 17  1  0
 19 16  1  0
 20 19  1  0
 21 19  2  0
 22 21  1  0
 23 22  2  0
 23 15  1  0
 24  2  1  0
 25  3  1  0
 26 25  2  0
 27 25  1  0
 29 28  1  0
 29  1  1  0
 30 29  1  0
 17 31  1  1
 32 23  1  0
  6 33  1  1
  1 34  1  6
  7 35  1  1
  8 36  1  0
  8 37  1  0
  9 38  1  1
 18 39  1  0
 18 40  1  0
 18 41  1  0
 21 42  1  0
 22 43  1  0
 27 44  1  0
 27 45  1  0
 28 46  1  0
 28 47  1  0
 28 48  1  0
 29 49  1  0
 30 50  1  0
 30 51  1  0
 30 52  1  0
 31 53  1  0
 32 54  1  0
 33 55  1  0
M  CHG  3  12  -1  24  -1  29   1
M  END
>  <score>  (3) 
-6.895

$$$$
=
     RDKit          3D

 55 58  0  0  0  0  0  0  0  0999 V2000
   -0.9520   60.0140   75.0480 C   0  0  2  0  0  0  0  0  0  0  0  0
   -0.6910   61.5350   75.1880 C   0  0  0  0  0  0  0  0  0  0  0  0
    0.3670   62.0920   74.5220 C   0  0  0  0  0  0  0  0  0  0  0  0
    1.3050   61.2720   73.6900 C   0  0  0  0  0  0  0  0  0  0  0  0
    2.0900   61.8040   72.8920 O   0  0  0  0  0  0  0  0  0  0  0  0
    1.2220   59.7220   73.8000 C   0  0  2  0  0  0  0  0  0  0  0  0
   -0.2420   59.2910   73.8690 C   0  0  1  0  0  0  0  0  0  0  0  0
   -0.3970   57.7370   73.9780 C   0  0  0  0  0  0  0  0  0  0  0  0
    0.9220   56.9220   73.9580 C   0  0  1  0  0  0  0  0  0  0  0  0
    1.9110   57.6170   74.8630 C   0  0  0  0  0  0  0  0  0  0  0  0
    2.0340   58.9670   74.8720 C   0  0  0  0  0  0  0  0  0  0  0  0
    2.6520   59.7300   75.6570 O   0  0  0  0  0  1  0  0  0  0  0  0
    2.5730   56.7820   75.8980 C   0  0  0  0  0  0  0  0  0  0  0  0
    3.7550   56.7930   76.2140 O   0  0  0  0  0  0  0  0  0  0  0  0
    1.6790   55.8180   76.5620 C   0  0  0  0  0  0  0  0  0  0  0  0
    0.7050   55.1320   75.8010 C   0  0  0  0  0  0  0  0  0  0  0  0
    0.6810   55.4060   74.2930 C   0  0  2  0  0  0  0  0  0  0  0  0
    1.7550   54.5300   73.6180 C   0  0  0  0  0  0  0  0  0  0  0  0
   -0.0730   54.1800   76.4850 C   0  0  0  0  0  0  0  0  0  0  0  0
   -1.2330   53.1570   75.7080 Cl  0  0  0  0  0  0  0  0  0  0  0  0
    0.0860   53.9680   77.8650 C   0  0  0  0  0  0  0  0  0  0  0  0
    1.0510   54.6640   78.5880 C   0  0  0  0  0  0  0  0  0  0  0  0
    1.8610   55.5750   77.9320 C   0  0  0  0  0  0  0  0  0  0  0  0
   -1.5310   62.0920   75.9650 O   0  0  0  0  0  1  0  0  0  0  0  0
    0.5870   63.5800   74.5750 C   0  0  0  0  0  0  0  0  0  0  0  0
   -0.1380   64.4080   74.0310 O   0  0  0  0  0  0  0  0  0  0  0  0
    1.6400   63.9860   75.3460 N   0  0  0  0  0  0  0  0  0  0  0  0
   -3.0810   59.2500   76.2210 C   0  0  0  0  0  0  0  0  0  0  0  0
   -2.4870   59.6410   74.9060 N   0  0  0  0  0  4  0  0  0  0  0  0
   -3.2920   60.6930   74.2090 C   0  0  0  0  0  0  0  0  0  0  0  0
   -0.5690   55.0440   73.6890 O   0  0  0  0  0  0  0  0  0  0  0  0
    2.8230   56.1960   78.6800 O   0  0  0  0  0  0  0  0  0  0  0  0
    1.7400   59.2660   72.5170 O   0  0  0  0  0  0  0  0  0  0  0  0
   -0.5226   59.6615   75.9974 H   0  0  0  0  0  0  0  0  0  0  0  0
   -0.7266   59.5864   72.9267 H   0  0  0  0  0  0  0  0  0  0  0  0
   -0.9159   57.5154   74.9223 H   0  0  0  0  0  0  0  0  0  0  0  0
   -0.9509   57.4292   73.0788 H   0  0  0  0  0  0  0  0  0  0  0  0
    1.3503   56.8963   72.9451 H   0  0  0  0  0  0  0  0  0  0  0  0
    2.3623   54.0346   74.3898 H   0  0  0  0  0  0  0  0  0  0  0  0
    1.2668   53.7692   72.9913 H   0  0  0  0  0  0  0  0  0  0  0  0
    2.4022   55.1611   72.9913 H   0  0  0  0  0  0  0  0  0  0  0  0
   -0.5604   53.2427   78.3808 H   0  0  0  0  0  0  0  0  0  0  0  0
    1.1685   54.4920   79.6681 H   0  0  0  0  0  0  0  0  0  0  0  0
    1.8572   64.9890   75.4342 H   0  0  0  0  0  0  0  0  0  0  0  0
    2.2164   63.2890   75.8388 H   0  0  0  0  0  0  0  0  0  0  0  0
   -2.4647   59.6557   77.0369 H   0  0  0  0  0  0  0  0  0  0  0  0
   -4.1015   59.6535   76.2969 H   0  0  0  0  0  0  0  0  0  0  0  0
   -3.1139   58.1531   76.2969 H   0  0  0  0  0  0  0  0  0  0  0  0
   -2.5269   58.8154   74.2915 H   0  0  0  0  0  0  0  0  0  0  0  0
   -3.7827   61.3342   74.9561 H   0  0  0  0  0  0  0  0  0  0  0  0
   -2.6292   61.3047   73.5794 H   0  0  0  0  0  0  0  0  0  0  0  0
   -4.0557   60.2131   73.5794 H   0  0  0  0  0  0  0  0  0  0  0  0
   -1.2340   54.8514   74.3967 H   0  0  0  0  0  0  0  0  0  0  0  0
    3.4284   56.8562   78.2584 H   0  0  0  0  0  0  0  0  0  0  0  0
    2.4743   58.6196   72.6685 H   0  0  0  0  0  0  0  0  0  0  0  0
  2  1  1  0
  3  2  2  0
  4  3  1  0
  5  4  2  0
  6  4  1  0
  7  6  1  0
  7  1  1  0
  8  7  1  0
  9  8  1  0
 10  9  1  0
 11 10  2  0
 11  6  1  0
 12 11  1  0
 13 10  1  0
 14 13  2  0
 15 13  1  0
 16 15  2  0
 17  9  1  0
 17 16  1  0
 18 17  1  0
 19 16  1  0
 20 19  1  0
 21 19  2  0
 22 21  1  0
 23 22  2  0
 23 15  1  0
 24  2  1  0
 25  3  1  0
 26 25  2  0
 27 25  1  0
 29 28  1  0
 29  1  1  0
 30 29  1  0
 17 31  1  6
 32 23  1  0
  6 33  1  6
  1 34  1  1
  7 35  1  6
  8 36  1  0
  8 37  1  0
  9 38  1  6
 18 39  1  0
 18 40  1  0
 18 41  1  0
 21 42  1  0
 22 43  1  0
 27 44  1  0
 27 45  1  0
 28 46  1  0
 28 47  1  0
 28 48  1  0
 29 49  1  0
 30 50  1  0
 30 51  1  0
 30 52  1  0
 31 53  1  0
 32 54  1  0
 33 55  1  0
M  CHG  3  12  -1  24  -1  29   1
M  END
>  <score>  (4) 
-6.854

$$$$
=
     RDKit          3D

 55 58  0  0  0  0  0  0  0  0999 V2000
    1.4970   61.7360   72.7670 C   0  0  2  0  0  0  0  0  0  0  0  0
    2.7210   61.8570   71.8240 C   0  0  0  0  0  0  0  0  0  0  0  0
    3.3400   60.7170   71.3910 C   0  0  0  0  0  0  0  0  0  0  0  0
    2.8980   59.3530   71.8270 C   0  0  0  0  0  0  0  0  0  0  0  0
    3.2830   58.3320   71.2410 O   0  0  0  0  0  0  0  0  0  0  0  0
    1.8790   59.2520   73.0000 C   0  0  2  0  0  0  0  0  0  0  0  0
    0.8170   60.3400   72.8510 C   0  0  1  0  0  0  0  0  0  0  0  0
   -0.2440   60.2920   74.0010 C   0  0  0  0  0  0  0  0  0  0  0  0
   -0.0640   59.1570   75.0420 C   0  0  1  0  0  0  0  0  0  0  0  0
    1.4000   59.0870   75.4040 C   0  0  0  0  0  0  0  0  0  0  0  0
    2.3690   59.2030   74.4610 C   0  0  0  0  0  0  0  0  0  0  0  0
    3.6120   59.3490   74.5760 O   0  0  0  0  0  1  0  0  0  0  0  0
    1.7340   59.1160   76.8510 C   0  0  0  0  0  0  0  0  0  0  0  0
    2.5560   58.4230   77.4360 O   0  0  0  0  0  0  0  0  0  0  0  0
    0.9350   60.0700   77.6390 C   0  0  0  0  0  0  0  0  0  0  0  0
   -0.4430   60.2200   77.3600 C   0  0  0  0  0  0  0  0  0  0  0  0
   -1.0330   59.3230   76.2670 C   0  0  2  0  0  0  0  0  0  0  0  0
   -1.3590   57.9480   76.8840 C   0  0  0  0  0  0  0  0  0  0  0  0
   -1.1600   61.1010   78.1900 C   0  0  0  0  0  0  0  0  0  0  0  0
   -2.8730   61.3320   78.0850 Cl  0  0  0  0  0  0  0  0  0  0  0  0
   -0.5180   61.8240   79.2100 C   0  0  0  0  0  0  0  0  0  0  0  0
    0.8410   61.6570   79.4560 C   0  0  0  0  0  0  0  0  0  0  0  0
    1.5640   60.7650   78.6820 C   0  0  0  0  0  0  0  0  0  0  0  0
    3.0160   63.0710   71.5810 O   0  0  0  0  0  1  0  0  0  0  0  0
    4.4750   60.8080   70.4070 C   0  0  0  0  0  0  0  0  0  0  0  0
    5.6300   60.4660   70.6460 O   0  0  0  0  0  0  0  0  0  0  0  0
    4.1300   61.2440   69.1570 N   0  0  0  0  0  0  0  0  0  0  0  0
    0.3910   63.9700   73.2940 C   0  0  0  0  0  0  0  0  0  0  0  0
    0.3280   62.7530   72.4280 N   0  0  0  0  0  4  0  0  0  0  0  0
    0.2400   63.0930   70.9740 C   0  0  0  0  0  0  0  0  0  0  0  0
   -2.2710   59.8330   75.7470 O   0  0  0  0  0  0  0  0  0  0  0  0
    2.8850   60.6050   78.9980 O   0  0  0  0  0  0  0  0  0  0  0  0
    1.2180   57.9760   72.7610 O   0  0  0  0  0  0  0  0  0  0  0  0
    1.9791   61.9597   73.7301 H   0  0  0  0  0  0  0  0  0  0  0  0
    0.2701   60.1537   71.9150 H   0  0  0  0  0  0  0  0  0  0  0  0
   -0.2027   61.2512   74.5378 H   0  0  0  0  0  0  0  0  0  0  0  0
   -1.2076   60.0941   73.5087 H   0  0  0  0  0  0  0  0  0  0  0  0
   -0.3545   58.1860   74.6146 H   0  0  0  0  0  0  0  0  0  0  0  0
   -1.3408   58.0248   77.9812 H   0  0  0  0  0  0  0  0  0  0  0  0
   -2.3583   57.6263   76.5555 H   0  0  0  0  0  0  0  0  0  0  0  0
   -0.6105   57.2119   76.5555 H   0  0  0  0  0  0  0  0  0  0  0  0
   -1.0976   62.5310   79.8217 H   0  0  0  0  0  0  0  0  0  0  0  0
    1.3356   62.2270   80.2563 H   0  0  0  0  0  0  0  0  0  0  0  0
    4.8500   61.3337   68.4259 H   0  0  0  0  0  0  0  0  0  0  0  0
    3.1503   61.4825   68.9470 H   0  0  0  0  0  0  0  0  0  0  0  0
    0.3754   63.6685   74.3518 H   0  0  0  0  0  0  0  0  0  0  0  0
    1.3189   64.5220   73.0837 H   0  0  0  0  0  0  0  0  0  0  0  0
   -0.4750   64.6149   73.0837 H   0  0  0  0  0  0  0  0  0  0  0  0
   -0.5519   62.2642   72.6467 H   0  0  0  0  0  0  0  0  0  0  0  0
   -0.0342   64.1523   70.8611 H   0  0  0  0  0  0  0  0  0  0  0  0
    1.2142   62.9134   70.4958 H   0  0  0  0  0  0  0  0  0  0  0  0
   -0.5248   62.4633   70.4958 H   0  0  0  0  0  0  0  0  0  0  0  0
   -2.8679   60.0789   76.4976 H   0  0  0  0  0  0  0  0  0  0  0  0
    3.4466   59.9791   78.4756 H   0  0  0  0  0  0  0  0  0  0  0  0
    0.9978   57.5510   73.6276 H   0  0  0  0  0  0  0  0  0  0  0  0
  2  1  1  0
  3  2  2  0
  4  3  1  0
  5  4  2  0
  6  4  1  0
  7  6  1  0
  7  1  1  0
  8  7  1  0
  9  8  1  0
 10  9  1  0
 11 10  2  0
 11  6  1  0
 12 11  1  0
 13 10  1  0
 14 13  2  0
 15 13  1  0
 16 15  2  0
 17  9  1  0
 17 16  1  0
 18 17  1  0
 19 16  1  0
 20 19  1  0
 21 19  2  0
 22 21  1  0
 23 22  2  0
 23 15  1  0
 24  2  1  0
 25  3  1  0
 26 25  2  0
 27 25  1  0
 29 28  1  0
 29  1  1  0
 30 29  1  0
 17 31  1  6
 32 23  1  0
  6 33  1  6
  1 34  1  1
  7 35  1  6
  8 36  1  0
  8 37  1  0
  9 38  1  6
 18 39  1  0
 18 40  1  0
 18 41  1  0
 21 42  1  0
 22 43  1  0
 27 44  1  0
 27 45  1  0
 28 46  1  0
 28 47  1  0
 28 48  1  0
 29 49  1  0
 30 50  1  0
 30 51  1  0
 30 52  1  0
 31 53  1  0
 32 54  1  0
 33 55  1  0
M  CHG  3  12  -1  24  -1  29   1
M  END
>  <score>  (5) 
-6.742

$$$$
=
     RDKit          3D

 55 58  0  0  0  0  0  0  0  0999 V2000
   -1.6580   60.4400   74.4330 C   0  0  2  0  0  0  0  0  0  0  0  0
   -3.1400   59.9990   74.5330 C   0  0  0  0  0  0  0  0  0  0  0  0
   -3.4750   58.9850   75.3870 C   0  0  0  0  0  0  0  0  0  0  0  0
   -2.4500   58.2580   76.2040 C   0  0  0  0  0  0  0  0  0  0  0  0
   -2.7780   57.5320   77.1520 O   0  0  0  0  0  0  0  0  0  0  0  0
   -0.9470   58.4930   75.8740 C   0  0  2  0  0  0  0  0  0  0  0  0
   -0.7130   59.9730   75.5760 C   0  0  1  0  0  0  0  0  0  0  0  0
    0.7850   60.2790   75.2390 C   0  0  0  0  0  0  0  0  0  0  0  0
    1.7530   59.0700   75.3000 C   0  0  1  0  0  0  0  0  0  0  0  0
    1.0810   57.9020   74.6200 C   0  0  0  0  0  0  0  0  0  0  0  0
   -0.2340   57.6330   74.8110 C   0  0  0  0  0  0  0  0  0  0  0  0
   -1.0040   56.8390   74.2140 O   0  0  0  0  0  1  0  0  0  0  0  0
    1.8600   57.2030   73.5650 C   0  0  0  0  0  0  0  0  0  0  0  0
    1.9570   55.9950   73.3930 O   0  0  0  0  0  0  0  0  0  0  0  0
    2.6160   58.1000   72.6750 C   0  0  0  0  0  0  0  0  0  0  0  0
    3.2640   59.2340   73.2180 C   0  0  0  0  0  0  0  0  0  0  0  0
    3.1750   59.4270   74.7350 C   0  0  2  0  0  0  0  0  0  0  0  0
    4.2540   58.5520   75.4050 C   0  0  0  0  0  0  0  0  0  0  0  0
    4.0210   60.0140   72.3230 C   0  0  0  0  0  0  0  0  0  0  0  0
    4.9790   61.3700   72.8130 Cl  0  0  0  0  0  0  0  0  0  0  0  0
    4.0810   59.6980   70.9550 C   0  0  0  0  0  0  0  0  0  0  0  0
    3.4280   58.5780   70.4520 C   0  0  0  0  0  0  0  0  0  0  0  0
    2.7110   57.7680   71.3160 C   0  0  0  0  0  0  0  0  0  0  0  0
   -3.8880   60.6650   73.7470 O   0  0  0  0  0  1  0  0  0  0  0  0
   -4.9200   58.6000   75.5650 C   0  0  0  0  0  0  0  0  0  0  0  0
   -5.7950   59.3600   75.9680 O   0  0  0  0  0  0  0  0  0  0  0  0
   -5.2370   57.3280   75.1740 N   0  0  0  0  0  0  0  0  0  0  0  0
   -1.3460   62.6290   75.6980 C   0  0  0  0  0  0  0  0  0  0  0  0
   -1.4640   62.0100   74.3420 N   0  0  0  0  0  4  0  0  0  0  0  0
   -0.3490   62.4200   73.4310 C   0  0  0  0  0  0  0  0  0  0  0  0
    3.4500   60.7780   75.1340 O   0  0  0  0  0  0  0  0  0  0  0  0
    2.1280   56.6540   70.7770 O   0  0  0  0  0  0  0  0  0  0  0  0
   -0.2770   58.2010   77.1330 O   0  0  0  0  0  0  0  0  0  0  0  0
   -1.3738   59.9302   73.5006 H   0  0  0  0  0  0  0  0  0  0  0  0
   -0.9491   60.5432   76.4866 H   0  0  0  0  0  0  0  0  0  0  0  0
    0.8239   60.6908   74.2197 H   0  0  0  0  0  0  0  0  0  0  0  0
    1.1291   60.9755   76.0177 H   0  0  0  0  0  0  0  0  0  0  0  0
    1.9552   58.7835   76.3426 H   0  0  0  0  0  0  0  0  0  0  0  0
    4.1606   58.6277   76.4984 H   0  0  0  0  0  0  0  0  0  0  0  0
    4.1198   57.5045   75.0972 H   0  0  0  0  0  0  0  0  0  0  0  0
    5.2512   58.8997   75.0972 H   0  0  0  0  0  0  0  0  0  0  0  0
    4.6521   60.3452   70.2730 H   0  0  0  0  0  0  0  0  0  0  0  0
    3.4806   58.3383   69.3797 H   0  0  0  0  0  0  0  0  0  0  0  0
   -6.2051   56.9879   75.2635 H   0  0  0  0  0  0  0  0  0  0  0  0
   -4.5076   56.7104   74.7901 H   0  0  0  0  0  0  0  0  0  0  0  0
   -1.4932   61.8569   76.4676 H   0  0  0  0  0  0  0  0  0  0  0  0
   -0.3467   63.0745   75.8120 H   0  0  0  0  0  0  0  0  0  0  0  0
   -2.1113   63.4109   75.8120 H   0  0  0  0  0  0  0  0  0  0  0  0
   -2.3211   62.3803   73.9072 H   0  0  0  0  0  0  0  0  0  0  0  0
    0.5164   62.7382   74.0309 H   0  0  0  0  0  0  0  0  0  0  0  0
   -0.0621   61.5686   72.7964 H   0  0  0  0  0  0  0  0  0  0  0  0
   -0.6820   63.2545   72.7964 H   0  0  0  0  0  0  0  0  0  0  0  0
    3.4615   60.8344   76.1223 H   0  0  0  0  0  0  0  0  0  0  0  0
    1.6042   56.0419   71.3524 H   0  0  0  0  0  0  0  0  0  0  0  0
   -0.8651   58.4573   77.8870 H   0  0  0  0  0  0  0  0  0  0  0  0
  2  1  1  0
  3  2  2  0
  4  3  1  0
  5  4  2  0
  6  4  1  0
  7  6  1  0
  7  1  1  0
  8  7  1  0
  9  8  1  0
 10  9  1  0
 11 10  2  0
 11  6  1  0
 12 11  1  0
 13 10  1  0
 14 13  2  0
 15 13  1  0
 16 15  2  0
 17  9  1  0
 17 16  1  0
 18 17  1  0
 19 16  1  0
 20 19  1  0
 21 19  2  0
 22 21  1  0
 23 22  2  0
 23 15  1  0
 24  2  1  0
 25  3  1  0
 26 25  2  0
 27 25  1  0
 29 28  1  0
 29  1  1  0
 30 29  1  0
 17 31  1  6
 32 23  1  0
  6 33  1  1
  1 34  1  6
  7 35  1  1
  8 36  1  0
  8 37  1  0
  9 38  1  1
 18 39  1  0
 18 40  1  0
 18 41  1  0
 21 42  1  0
 22 43  1  0
 27 44  1  0
 27 45  1  0
 28 46  1  0
 28 47  1  0
 28 48  1  0
 29 49  1  0
 30 50  1  0
 30 51  1  0
 30 52  1  0
 31 53  1  0
 32 54  1  0
 33 55  1  0
M  CHG  3  12  -1  24  -1  29   1
M  END
>  <score>  (6) 
-6.672

$$$$
=
     RDKit          3D

 55 58  0  0  0  0  0  0  0  0999 V2000
    2.2580   60.0890   72.7990 C   0  0  2  0  0  0  0  0  0  0  0  0
    2.0380   61.3230   71.8890 C   0  0  0  0  0  0  0  0  0  0  0  0
    1.7470   62.5300   72.4640 C   0  0  0  0  0  0  0  0  0  0  0  0
    1.5960   62.6920   73.9460 C   0  0  0  0  0  0  0  0  0  0  0  0
    1.5930   63.8110   74.4750 O   0  0  0  0  0  0  0  0  0  0  0  0
    1.5140   61.4060   74.8200 C   0  0  2  0  0  0  0  0  0  0  0  0
    2.5150   60.3730   74.3070 C   0  0  1  0  0  0  0  0  0  0  0  0
    2.4850   59.0520   75.1480 C   0  0  0  0  0  0  0  0  0  0  0  0
    1.5020   59.0350   76.3460 C   0  0  1  0  0  0  0  0  0  0  0  0
    0.1940   59.6270   75.8820 C   0  0  0  0  0  0  0  0  0  0  0  0
    0.1570   60.7240   75.0860 C   0  0  0  0  0  0  0  0  0  0  0  0
   -0.7970   61.2520   74.4600 O   0  0  0  0  0  1  0  0  0  0  0  0
   -1.0330   58.8310   76.1440 C   0  0  0  0  0  0  0  0  0  0  0  0
   -2.1100   59.2420   76.5550 O   0  0  0  0  0  0  0  0  0  0  0  0
   -0.8780   57.3850   75.9100 C   0  0  0  0  0  0  0  0  0  0  0  0
    0.3230   56.7430   76.2930 C   0  0  0  0  0  0  0  0  0  0  0  0
    1.3820   57.6050   76.9870 C   0  0  2  0  0  0  0  0  0  0  0  0
    1.0230   57.7150   78.4820 C   0  0  0  0  0  0  0  0  0  0  0  0
    0.3800   55.3500   76.0990 C   0  0  0  0  0  0  0  0  0  0  0  0
    1.7120   54.3680   76.6100 Cl  0  0  0  0  0  0  0  0  0  0  0  0
   -0.6880   54.6530   75.5100 C   0  0  0  0  0  0  0  0  0  0  0  0
   -1.8540   55.3160   75.1390 C   0  0  0  0  0  0  0  0  0  0  0  0
   -1.9570   56.6790   75.3580 C   0  0  0  0  0  0  0  0  0  0  0  0
    2.1440   61.0290   70.6550 O   0  0  0  0  0  1  0  0  0  0  0  0
    1.6160   63.7580   71.6040 C   0  0  0  0  0  0  0  0  0  0  0  0
    0.6370   64.4990   71.5980 O   0  0  0  0  0  0  0  0  0  0  0  0
    2.7140   64.0600   70.8480 N   0  0  0  0  0  0  0  0  0  0  0  0
    2.9960   58.1020   71.3860 C   0  0  0  0  0  0  0  0  0  0  0  0
    3.4570   59.1600   72.3360 N   0  0  0  0  0  4  0  0  0  0  0  0
    4.6320   59.9240   71.8110 C   0  0  0  0  0  0  0  0  0  0  0  0
    2.6910   57.0170   76.9320 O   0  0  0  0  0  0  0  0  0  0  0  0
   -3.1420   57.2710   75.0190 O   0  0  0  0  0  0  0  0  0  0  0  0
    1.9930   61.8530   76.1210 O   0  0  0  0  0  0  0  0  0  0  0  0
    1.2812   59.5958   72.6865 H   0  0  0  0  0  0  0  0  0  0  0  0
    3.5249   60.7933   74.4229 H   0  0  0  0  0  0  0  0  0  0  0  0
    2.2080   58.2288   74.4730 H   0  0  0  0  0  0  0  0  0  0  0  0
    3.4895   58.9546   75.5855 H   0  0  0  0  0  0  0  0  0  0  0  0
    1.8809   59.6562   77.1710 H   0  0  0  0  0  0  0  0  0  0  0  0
    1.8993   57.4465   79.0902 H   0  0  0  0  0  0  0  0  0  0  0  0
    0.7199   58.7472   78.7113 H   0  0  0  0  0  0  0  0  0  0  0  0
    0.1936   57.0298   78.7113 H   0  0  0  0  0  0  0  0  0  0  0  0
   -0.6016   53.5697   75.3399 H   0  0  0  0  0  0  0  0  0  0  0  0
   -2.6849   54.7629   74.6767 H   0  0  0  0  0  0  0  0  0  0  0  0
    2.7040   64.8856   70.2322 H   0  0  0  0  0  0  0  0  0  0  0  0
    3.5514   63.4620   70.8941 H   0  0  0  0  0  0  0  0  0  0  0  0
    2.6196   57.2382   71.9537 H   0  0  0  0  0  0  0  0  0  0  0  0
    2.1912   58.5034   70.7526 H   0  0  0  0  0  0  0  0  0  0  0  0
    3.8379   57.7858   70.7526 H   0  0  0  0  0  0  0  0  0  0  0  0
    3.7982   58.6855   73.1841 H   0  0  0  0  0  0  0  0  0  0  0  0
    5.2249   60.3095   72.6536 H   0  0  0  0  0  0  0  0  0  0  0  0
    5.2570   59.2590   71.1968 H   0  0  0  0  0  0  0  0  0  0  0  0
    4.2778   60.7650   71.1968 H   0  0  0  0  0  0  0  0  0  0  0  0
    3.0244   56.8672   77.8521 H   0  0  0  0  0  0  0  0  0  0  0  0
   -3.2664   58.2436   75.1559 H   0  0  0  0  0  0  0  0  0  0  0  0
    1.4920   61.3855   76.8355 H   0  0  0  0  0  0  0  0  0  0  0  0
  2  1  1  0
  3  2  2  0
  4  3  1  0
  5  4  2  0
  6  4  1  0
  7  6  1  0
  7  1  1  0
  8  7  1  0
  9  8  1  0
 10  9  1  0
 11 10  2  0
 11  6  1  0
 12 11  1  0
 13 10  1  0
 14 13  2  0
 15 13  1  0
 16 15  2  0
 17  9  1  0
 17 16  1  0
 18 17  1  0
 19 16  1  0
 20 19  1  0
 21 19  2  0
 22 21  1  0
 23 22  2  0
 23 15  1  0
 24  2  1  0
 25  3  1  0
 26 25  2  0
 27 25  1  0
 29 28  1  0
 29  1  1  0
 30 29  1  0
 17 31  1  1
 32 23  1  0
  6 33  1  1
  1 34  1  1
  7 35  1  6
  8 36  1  0
  8 37  1  0
  9 38  1  1
 18 39  1  0
 18 40  1  0
 18 41  1  0
 21 42  1  0
 22 43  1  0
 27 44  1  0
 27 45  1  0
 28 46  1  0
 28 47  1  0
 28 48  1  0
 29 49  1  0
 30 50  1  0
 30 51  1  0
 30 52  1  0
 31 53  1  0
 32 54  1  0
 33 55  1  0
M  CHG  3  12  -1  24  -1  29   1
M  END
>  <score>  (7) 
-6.452

$$$$
=
     RDKit          3D

 55 58  0  0  0  0  0  0  0  0999 V2000
    2.9030   59.5240   78.3130 C   0  0  2  0  0  0  0  0  0  0  0  0
    3.3510   58.5830   79.4600 C   0  0  0  0  0  0  0  0  0  0  0  0
    4.1150   57.4880   79.1600 C   0  0  0  0  0  0  0  0  0  0  0  0
    4.5050   57.1480   77.7540 C   0  0  0  0  0  0  0  0  0  0  0  0
    5.3970   56.3230   77.5140 O   0  0  0  0  0  0  0  0  0  0  0  0
    3.8050   57.9120   76.5920 C   0  0  2  0  0  0  0  0  0  0  0  0
    3.6620   59.3870   76.9620 C   0  0  1  0  0  0  0  0  0  0  0  0
    2.9660   60.2170   75.8310 C   0  0  0  0  0  0  0  0  0  0  0  0
    2.5870   59.4290   74.5510 C   0  0  1  0  0  0  0  0  0  0  0  0
    1.9660   58.1210   74.9770 C   0  0  0  0  0  0  0  0  0  0  0  0
    2.4770   57.3960   76.0030 C   0  0  0  0  0  0  0  0  0  0  0  0
    2.0140   56.3990   76.6130 O   0  0  0  0  0  1  0  0  0  0  0  0
    0.6500   57.7780   74.3790 C   0  0  0  0  0  0  0  0  0  0  0  0
    0.2920   56.6900   73.9490 O   0  0  0  0  0  0  0  0  0  0  0  0
   -0.2830   58.9140   74.2750 C   0  0  0  0  0  0  0  0  0  0  0  0
    0.2090   60.1860   73.9020 C   0  0  0  0  0  0  0  0  0  0  0  0
    1.7030   60.2860   73.5740 C   0  0  2  0  0  0  0  0  0  0  0  0
    1.9170   59.8310   72.1170 C   0  0  0  0  0  0  0  0  0  0  0  0
   -0.7440   61.2120   73.7600 C   0  0  0  0  0  0  0  0  0  0  0  0
   -0.3580   62.8040   73.1990 Cl  0  0  0  0  0  0  0  0  0  0  0  0
   -2.1040   60.9820   74.0260 C   0  0  0  0  0  0  0  0  0  0  0  0
   -2.5560   59.7190   74.3970 C   0  0  0  0  0  0  0  0  0  0  0  0
   -1.6470   58.6800   74.5020 C   0  0  0  0  0  0  0  0  0  0  0  0
    2.9050   58.9640   80.5890 O   0  0  0  0  0  1  0  0  0  0  0  0
    4.6340   56.6100   80.2670 C   0  0  0  0  0  0  0  0  0  0  0  0
    4.0050   55.6830   80.7700 O   0  0  0  0  0  0  0  0  0  0  0  0
    5.9210   56.8620   80.6560 N   0  0  0  0  0  0  0  0  0  0  0  0
    1.7620   61.5120   79.4240 C   0  0  0  0  0  0  0  0  0  0  0  0
    2.9810   61.0630   78.6850 N   0  0  0  0  0  4  0  0  0  0  0  0
    4.2450   61.4410   79.3900 C   0  0  0  0  0  0  0  0  0  0  0  0
    2.1920   61.6330   73.6500 O   0  0  0  0  0  0  0  0  0  0  0  0
   -2.1510   57.4500   74.8230 O   0  0  0  0  0  0  0  0  0  0  0  0
    4.7750   57.8370   75.5080 O   0  0  0  0  0  0  0  0  0  0  0  0
    1.8672   59.1785   78.1797 H   0  0  0  0  0  0  0  0  0  0  0  0
    4.6725   59.8058   77.0777 H   0  0  0  0  0  0  0  0  0  0  0  0
    2.0435   60.6477   76.2476 H   0  0  0  0  0  0  0  0  0  0  0  0
    3.7057   60.9661   75.5123 H   0  0  0  0  0  0  0  0  0  0  0  0
    3.4821   59.1996   73.9541 H   0  0  0  0  0  0  0  0  0  0  0  0
    2.3852   58.8356   72.1087 H   0  0  0  0  0  0  0  0  0  0  0  0
    0.9465   59.7841   71.6012 H   0  0  0  0  0  0  0  0  0  0  0  0
    2.5720   60.5486   71.6012 H   0  0  0  0  0  0  0  0  0  0  0  0
   -2.8215   61.8113   73.9399 H   0  0  0  0  0  0  0  0  0  0  0  0
   -3.6227   59.5483   74.6043 H   0  0  0  0  0  0  0  0  0  0  0  0
    6.3502   56.3044   81.4081 H   0  0  0  0  0  0  0  0  0  0  0  0
    6.4608   57.6094   80.1968 H   0  0  0  0  0  0  0  0  0  0  0  0
    1.9441   61.4449   80.5067 H   0  0  0  0  0  0  0  0  0  0  0  0
    1.5328   62.5536   79.1546 H   0  0  0  0  0  0  0  0  0  0  0  0
    0.9119   60.8680   79.1546 H   0  0  0  0  0  0  0  0  0  0  0  0
    3.0053   61.5738   77.7909 H   0  0  0  0  0  0  0  0  0  0  0  0
    4.0865   61.3936   80.4775 H   0  0  0  0  0  0  0  0  0  0  0  0
    5.0463   60.7432   79.1055 H   0  0  0  0  0  0  0  0  0  0  0  0
    4.5316   62.4642   79.1055 H   0  0  0  0  0  0  0  0  0  0  0  0
    2.2876   61.8963   74.5995 H   0  0  0  0  0  0  0  0  0  0  0  0
   -1.5432   56.6734   74.9104 H   0  0  0  0  0  0  0  0  0  0  0  0
    5.6873   57.7665   75.8859 H   0  0  0  0  0  0  0  0  0  0  0  0
  2  1  1  0
  3  2  2  0
  4  3  1  0
  5  4  2  0
  6  4  1  0
  7  6  1  0
  7  1  1  0
  8  7  1  0
  9  8  1  0
 10  9  1  0
 11 10  2  0
 11  6  1  0
 12 11  1  0
 13 10  1  0
 14 13  2  0
 15 13  1  0
 16 15  2  0
 17  9  1  0
 17 16  1  0
 18 17  1  0
 19 16  1  0
 20 19  1  0
 21 19  2  0
 22 21  1  0
 23 22  2  0
 23 15  1  0
 24  2  1  0
 25  3  1  0
 26 25  2  0
 27 25  1  0
 29 28  1  0
 29  1  1  0
 30 29  1  0
 17 31  1  6
 32 23  1  0
  6 33  1  6
  1 34  1  6
  7 35  1  1
  8 36  1  0
  8 37  1  0
  9 38  1  6
 18 39  1  0
 18 40  1  0
 18 41  1  0
 21 42  1  0
 22 43  1  0
 27 44  1  0
 27 45  1  0
 28 46  1  0
 28 47  1  0
 28 48  1  0
 29 49  1  0
 30 50  1  0
 30 51  1  0
 30 52  1  0
 31 53  1  0
 32 54  1  0
 33 55  1  0
M  CHG  3  12  -1  24  -1  29   1
M  END
>  <score>  (8) 
-5.881

$$$$
=
     RDKit          3D

 55 58  0  0  0  0  0  0  0  0999 V2000
   -2.2690   61.1160   75.8010 C   0  0  2  0  0  0  0  0  0  0  0  0
   -0.9390   60.7300   75.1060 C   0  0  0  0  0  0  0  0  0  0  0  0
    0.2290   61.2840   75.5530 C   0  0  0  0  0  0  0  0  0  0  0  0
    0.2630   62.2820   76.6710 C   0  0  0  0  0  0  0  0  0  0  0  0
    1.3230   62.5780   77.2380 O   0  0  0  0  0  0  0  0  0  0  0  0
   -1.0860   62.8900   77.1530 C   0  0  2  0  0  0  0  0  0  0  0  0
   -2.1540   61.7990   77.1940 C   0  0  1  0  0  0  0  0  0  0  0  0
   -3.5410   62.3450   77.6760 C   0  0  0  0  0  0  0  0  0  0  0  0
   -3.5800   63.8480   78.0550 C   0  0  1  0  0  0  0  0  0  0  0  0
   -2.8280   64.6150   76.9950 C   0  0  0  0  0  0  0  0  0  0  0  0
   -1.6620   64.1520   76.4800 C   0  0  0  0  0  0  0  0  0  0  0  0
   -0.9910   64.5390   75.4900 O   0  0  0  0  0  1  0  0  0  0  0  0
   -3.5290   65.7720   76.3820 C   0  0  0  0  0  0  0  0  0  0  0  0
   -3.0600   66.8750   76.1320 O   0  0  0  0  0  0  0  0  0  0  0  0
   -4.9540   65.5350   76.0960 C   0  0  0  0  0  0  0  0  0  0  0  0
   -5.7380   64.8080   77.0210 C   0  0  0  0  0  0  0  0  0  0  0  0
   -5.0470   64.3510   78.3100 C   0  0  2  0  0  0  0  0  0  0  0  0
   -5.0460   65.5250   79.3090 C   0  0  0  0  0  0  0  0  0  0  0  0
   -7.1050   64.6720   76.7180 C   0  0  0  0  0  0  0  0  0  0  0  0
   -8.2500   63.9210   77.7780 Cl  0  0  0  0  0  0  0  0  0  0  0  0
   -7.6420   65.1960   75.5290 C   0  0  0  0  0  0  0  0  0  0  0  0
   -6.8420   65.9020   74.6360 C   0  0  0  0  0  0  0  0  0  0  0  0
   -5.5020   66.0890   74.9290 C   0  0  0  0  0  0  0  0  0  0  0  0
   -1.1240   59.9190   74.1430 O   0  0  0  0  0  1  0  0  0  0  0  0
    1.5400   60.8570   74.9500 C   0  0  0  0  0  0  0  0  0  0  0  0
    1.9210   59.6930   74.8700 O   0  0  0  0  0  0  0  0  0  0  0  0
    2.2900   61.8660   74.4100 N   0  0  0  0  0  0  0  0  0  0  0  0
   -4.1220   59.6730   74.8130 C   0  0  0  0  0  0  0  0  0  0  0  0
   -3.2570   59.8940   76.0120 N   0  0  0  0  0  4  0  0  0  0  0  0
   -2.5660   58.6420   76.4530 C   0  0  0  0  0  0  0  0  0  0  0  0
   -5.7450   63.2760   78.9560 O   0  0  0  0  0  0  0  0  0  0  0  0
   -4.7740   66.8310   74.0410 O   0  0  0  0  0  0  0  0  0  0  0  0
   -0.8100   63.2670   78.5320 O   0  0  0  0  0  0  0  0  0  0  0  0
   -2.6567   61.8444   75.0736 H   0  0  0  0  0  0  0  0  0  0  0  0
   -1.8409   61.0478   77.9341 H   0  0  0  0  0  0  0  0  0  0  0  0
   -4.2676   62.1822   76.8664 H   0  0  0  0  0  0  0  0  0  0  0  0
   -3.7722   61.7975   78.6016 H   0  0  0  0  0  0  0  0  0  0  0  0
   -3.0769   64.0211   79.0178 H   0  0  0  0  0  0  0  0  0  0  0  0
   -5.0463   65.1321   80.3365 H   0  0  0  0  0  0  0  0  0  0  0  0
   -4.1473   66.1395   79.1517 H   0  0  0  0  0  0  0  0  0  0  0  0
   -5.9436   66.1411   79.1517 H   0  0  0  0  0  0  0  0  0  0  0  0
   -8.7078   65.0460   75.3019 H   0  0  0  0  0  0  0  0  0  0  0  0
   -7.2697   66.3072   73.7071 H   0  0  0  0  0  0  0  0  0  0  0  0
    3.2009   61.6559   73.9776 H   0  0  0  0  0  0  0  0  0  0  0  0
    1.9437   62.8357   74.4359 H   0  0  0  0  0  0  0  0  0  0  0  0
   -5.1401   59.4129   75.1383 H   0  0  0  0  0  0  0  0  0  0  0  0
   -4.1535   60.5919   74.2092 H   0  0  0  0  0  0  0  0  0  0  0  0
   -3.7089   58.8516   74.2092 H   0  0  0  0  0  0  0  0  0  0  0  0
   -3.8749   60.1549   76.7937 H   0  0  0  0  0  0  0  0  0  0  0  0
   -2.5444   58.6028   77.5521 H   0  0  0  0  0  0  0  0  0  0  0  0
   -3.1092   57.7675   76.0655 H   0  0  0  0  0  0  0  0  0  0  0  0
   -1.5365   58.6354   76.0655 H   0  0  0  0  0  0  0  0  0  0  0  0
   -5.6767   63.3812   79.9380 H   0  0  0  0  0  0  0  0  0  0  0  0
   -3.8113   66.9941   74.2044 H   0  0  0  0  0  0  0  0  0  0  0  0
   -1.2696   62.6391   79.1441 H   0  0  0  0  0  0  0  0  0  0  0  0
  2  1  1  0
  3  2  2  0
  4  3  1  0
  5  4  2  0
  6  4  1  0
  7  6  1  0
  7  1  1  0
  8  7  1  0
  9  8  1  0
 10  9  1  0
 11 10  2  0
 11  6  1  0
 12 11  1  0
 13 10  1  0
 14 13  2  0
 15 13  1  0
 16 15  2  0
 17  9  1  0
 17 16  1  0
 18 17  1  0
 19 16  1  0
 20 19  1  0
 21 19  2  0
 22 21  1  0
 23 22  2  0
 23 15  1  0
 24  2  1  0
 25  3  1  0
 26 25  2  0
 27 25  1  0
 29 28  1  0
 29  1  1  0
 30 29  1  0
 17 31  1  1
 32 23  1  0
  6 33  1  1
  1 34  1  6
  7 35  1  1
  8 36  1  0
  8 37  1  0
  9 38  1  1
 18 39  1  0
 18 40  1  0
 18 41  1  0
 21 42  1  0
 22 43  1  0
 27 44  1  0
 27 45  1  0
 28 46  1  0
 28 47  1  0
 28 48  1  0
 29 49  1  0
 30 50  1  0
 30 51  1  0
 30 52  1  0
 31 53  1  0
 32 54  1  0
 33 55  1  0
M  CHG  3  12  -1  24  -1  29   1
M  END
>  <score>  (9) 
-5.856

$$$$
