=
     RDKit          3D

 53 53  0  0  0  0  0  0  0  0999 V2000
    1.5380   68.1110   66.1980 C   0  0  0  0  0  0  0  0  0  0  0  0
    1.7240   69.0000   67.2560 C   0  0  0  0  0  0  0  0  0  0  0  0
    2.9350   69.7020   67.3810 C   0  0  0  0  0  0  0  0  0  0  0  0
    3.9580   69.4700   66.4450 C   0  0  0  0  0  0  0  0  0  0  0  0
    3.7800   68.5510   65.4060 C   0  0  0  0  0  0  0  0  0  0  0  0
    2.5760   67.8600   65.3050 C   0  0  0  0  0  0  0  0  0  0  0  0
    0.3400   67.4020   66.0470 O   0  0  0  0  0  0  0  0  0  0  0  0
   -0.7700   68.7160   64.4990 O   0  0  0  0  0  0  0  0  0  0  0  0
   -0.7560   68.1190   65.5730 C   0  0  0  0  0  0  0  0  0  0  0  0
   -1.8300   68.0910   66.4530 N   0  0  0  0  0  0  0  0  0  0  0  0
   -3.1020   68.6410   66.0210 C   0  0  0  0  0  0  0  0  0  0  0  0
   -1.8550   67.2240   67.6200 C   0  0  0  0  0  0  0  0  0  0  0  0
    2.4120   66.9520   64.2590 O   0  0  0  0  0  0  0  0  0  0  0  0
    3.0570   65.7380   64.4850 C   0  0  0  0  0  0  0  0  0  0  0  0
    2.7920   64.9820   65.4160 O   0  0  0  0  0  0  0  0  0  0  0  0
    4.0460   65.4770   63.5430 N   0  0  0  0  0  0  0  0  0  0  0  0
    4.9170   64.3350   63.7380 C   0  0  0  0  0  0  0  0  0  0  0  0
    4.4560   66.4510   62.5440 C   0  0  0  0  0  0  0  0  0  0  0  0
    3.1460   70.6780   68.5100 C   0  0  1  0  0  0  0  0  0  0  0  0
    2.1280   70.5430   69.5210 O   0  0  0  0  0  0  0  0  0  0  0  0
    4.5100   70.4860   69.2120 C   0  0  0  0  0  0  0  0  0  0  0  0
    5.4340   71.6060   68.7870 N   0  0  0  0  0  4  0  0  0  0  0  0
    6.8530   71.3140   68.4280 C   0  0  0  0  0  0  0  0  0  0  0  0
    7.6300   70.9010   69.6710 C   0  0  0  0  0  0  0  0  0  0  0  0
    6.9360   70.2820   67.3130 C   0  0  0  0  0  0  0  0  0  0  0  0
    0.9221   69.1520   67.9935 H   0  0  0  0  0  0  0  0  0  0  0  0
    4.9084   70.0171   66.5308 H   0  0  0  0  0  0  0  0  0  0  0  0
    4.5837   68.3759   64.6757 H   0  0  0  0  0  0  0  0  0  0  0  0
   -3.7066   68.9024   66.9020 H   0  0  0  0  0  0  0  0  0  0  0  0
   -2.9252   69.5431   65.4168 H   0  0  0  0  0  0  0  0  0  0  0  0
   -3.6381   67.8943   65.4168 H   0  0  0  0  0  0  0  0  0  0  0  0
   -1.8373   67.8374   68.5329 H   0  0  0  0  0  0  0  0  0  0  0  0
   -2.7711   66.6152   67.6050 H   0  0  0  0  0  0  0  0  0  0  0  0
   -0.9755   66.5635   67.6050 H   0  0  0  0  0  0  0  0  0  0  0  0
    5.0527   64.1570   64.8150 H   0  0  0  0  0  0  0  0  0  0  0  0
    4.4655   63.4460   63.2735 H   0  0  0  0  0  0  0  0  0  0  0  0
    5.8938   64.5353   63.2735 H   0  0  0  0  0  0  0  0  0  0  0  0
    4.8358   67.3532   63.0458 H   0  0  0  0  0  0  0  0  0  0  0  0
    5.2490   66.0198   61.9153 H   0  0  0  0  0  0  0  0  0  0  0  0
    3.5934   66.7167   61.9153 H   0  0  0  0  0  0  0  0  0  0  0  0
    3.1048   71.6729   68.0426 H   0  0  0  0  0  0  0  0  0  0  0  0
    2.5440   70.5982   70.4176 H   0  0  0  0  0  0  0  0  0  0  0  0
    4.3723   70.5132   70.3030 H   0  0  0  0  0  0  0  0  0  0  0  0
    4.9434   69.5147   68.9315 H   0  0  0  0  0  0  0  0  0  0  0  0
    5.0043   72.0475   67.9616 H   0  0  0  0  0  0  0  0  0  0  0  0
    5.5206   72.1753   69.6410 H   0  0  0  0  0  0  0  0  0  0  0  0
    7.3213   72.2285   68.0350 H   0  0  0  0  0  0  0  0  0  0  0  0
    7.0696   71.1989   70.5695 H   0  0  0  0  0  0  0  0  0  0  0  0
    7.7692   69.8098   69.6707 H   0  0  0  0  0  0  0  0  0  0  0  0
    8.6123   71.3960   69.6707 H   0  0  0  0  0  0  0  0  0  0  0  0
    7.0169   69.2758   67.7500 H   0  0  0  0  0  0  0  0  0  0  0  0
    6.0303   70.3401   66.6915 H   0  0  0  0  0  0  0  0  0  0  0  0
    7.8208   70.4841   66.6915 H   0  0  0  0  0  0  0  0  0  0  0  0
  2  1  2  0
  3  2  1  0
  4  3  2  0
  5  4  1  0
  6  5  2  0
  6  1  1  0
  7  1  1  0
  9  8  2  0
  9  7  1  0
 10  9  1  0
 11 10  1  0
 12 10  1  0
 13  6  1  0
 14 13  1  0
 15 14  2  0
 16 14  1  0
 17 16  1  0
 18 16  1  0
 19  3  1  0
 20 19  1  0
 21 19  1  0
 22 21  1  0
 23 22  1  0
 24 23  1  0
 25 23  1  0
  2 26  1  0
  4 27  1  0
  5 28  1  0
 11 29  1  0
 11 30  1  0
 11 31  1  0
 12 32  1  0
 12 33  1  0
 12 34  1  0
 17 35  1  0
 17 36  1  0
 17 37  1  0
 18 38  1  0
 18 39  1  0
 18 40  1  0
 19 41  1  6
 20 42  1  0
 21 43  1  0
 21 44  1  0
 22 45  1  0
 22 46  1  0
 23 47  1  0
 24 48  1  0
 24 49  1  0
 24 50  1  0
 25 51  1  0
 25 52  1  0
 25 53  1  0
M  CHG  1  22   1
M  END
>  <score>  (1) 
-8.931

$$$$
=
     RDKit          3D

 53 53  0  0  0  0  0  0  0  0999 V2000
    2.8730   68.9230   65.6490 C   0  0  0  0  0  0  0  0  0  0  0  0
    3.6930   68.6510   64.5560 C   0  0  0  0  0  0  0  0  0  0  0  0
    3.1250   68.3750   63.3010 C   0  0  0  0  0  0  0  0  0  0  0  0
    1.7250   68.3490   63.1760 C   0  0  0  0  0  0  0  0  0  0  0  0
    0.9050   68.5890   64.2830 C   0  0  0  0  0  0  0  0  0  0  0  0
    1.4880   68.8520   65.5190 C   0  0  0  0  0  0  0  0  0  0  0  0
    3.4120   69.2060   66.9100 O   0  0  0  0  0  0  0  0  0  0  0  0
    5.4220   69.8940   65.9940 O   0  0  0  0  0  0  0  0  0  0  0  0
    4.6310   69.8800   66.9340 C   0  0  0  0  0  0  0  0  0  0  0  0
    4.8560   70.5280   68.1410 N   0  0  0  0  0  0  0  0  0  0  0  0
    5.9970   71.4170   68.2540 C   0  0  0  0  0  0  0  0  0  0  0  0
    3.8260   70.6550   69.1590 C   0  0  0  0  0  0  0  0  0  0  0  0
    0.6560   69.0960   66.6130 O   0  0  0  0  0  0  0  0  0  0  0  0
    0.0440   67.9430   67.0990 C   0  0  0  0  0  0  0  0  0  0  0  0
    0.6570   66.9750   67.5450 O   0  0  0  0  0  0  0  0  0  0  0  0
   -1.3420   68.0010   67.0170 N   0  0  0  0  0  0  0  0  0  0  0  0
   -2.1140   66.8150   67.3290 C   0  0  0  0  0  0  0  0  0  0  0  0
   -2.0450   69.0810   66.3430 C   0  0  0  0  0  0  0  0  0  0  0  0
    3.9990   68.0930   62.1050 C   0  0  1  0  0  0  0  0  0  0  0  0
    4.7370   69.2640   61.7040 O   0  0  0  0  0  0  0  0  0  0  0  0
    5.0320   66.9770   62.3770 C   0  0  0  0  0  0  0  0  0  0  0  0
    4.2900   65.6880   62.6510 N   0  0  0  0  0  4  0  0  0  0  0  0
    4.4310   65.0060   63.9720 C   0  0  0  0  0  0  0  0  0  0  0  0
    3.0960   65.0070   64.7030 C   0  0  0  0  0  0  0  0  0  0  0  0
    5.0130   63.6100   63.8090 C   0  0  0  0  0  0  0  0  0  0  0  0
    4.7865   68.6523   64.6758 H   0  0  0  0  0  0  0  0  0  0  0  0
    1.2698   68.1377   62.1972 H   0  0  0  0  0  0  0  0  0  0  0  0
   -0.1898   68.5701   64.1779 H   0  0  0  0  0  0  0  0  0  0  0  0
    6.2216   71.5920   69.3165 H   0  0  0  0  0  0  0  0  0  0  0  0
    6.8692   70.9580   67.7656 H   0  0  0  0  0  0  0  0  0  0  0  0
    5.7652   72.3750   67.7656 H   0  0  0  0  0  0  0  0  0  0  0  0
    4.2870   70.5982   70.1561 H   0  0  0  0  0  0  0  0  0  0  0  0
    3.3157   71.6229   69.0456 H   0  0  0  0  0  0  0  0  0  0  0  0
    3.0959   69.8401   69.0456 H   0  0  0  0  0  0  0  0  0  0  0  0
   -2.1875   66.7020   68.4207 H   0  0  0  0  0  0  0  0  0  0  0  0
   -3.1230   66.9113   66.9016 H   0  0  0  0  0  0  0  0  0  0  0  0
   -1.6175   65.9314   66.9016 H   0  0  0  0  0  0  0  0  0  0  0  0
   -2.4845   69.7561   67.0920 H   0  0  0  0  0  0  0  0  0  0  0  0
   -1.3384   69.6419   65.7136 H   0  0  0  0  0  0  0  0  0  0  0  0
   -2.8439   68.6619   65.7136 H   0  0  0  0  0  0  0  0  0  0  0  0
    3.3079   67.7744   61.3107 H   0  0  0  0  0  0  0  0  0  0  0  0
    5.0445   69.7519   62.5087 H   0  0  0  0  0  0  0  0  0  0  0  0
    5.6813   66.8510   61.4981 H   0  0  0  0  0  0  0  0  0  0  0  0
    5.6536   67.2440   63.2443 H   0  0  0  0  0  0  0  0  0  0  0  0
    3.2878   65.8910   62.5277 H   0  0  0  0  0  0  0  0  0  0  0  0
    4.7254   65.0229   61.9960 H   0  0  0  0  0  0  0  0  0  0  0  0
    5.1463   65.5651   64.5932 H   0  0  0  0  0  0  0  0  0  0  0  0
    3.2725   65.0069   65.7887 H   0  0  0  0  0  0  0  0  0  0  0  0
    2.5260   65.9056   64.4243 H   0  0  0  0  0  0  0  0  0  0  0  0
    2.5247   64.1093   64.4243 H   0  0  0  0  0  0  0  0  0  0  0  0
    5.1960   63.1710   64.8008 H   0  0  0  0  0  0  0  0  0  0  0  0
    4.3029   62.9792   63.2542 H   0  0  0  0  0  0  0  0  0  0  0  0
    5.9609   63.6704   63.2542 H   0  0  0  0  0  0  0  0  0  0  0  0
  2  1  2  0
  3  2  1  0
  4  3  2  0
  5  4  1  0
  6  5  2  0
  6  1  1  0
  7  1  1  0
  9  8  2  0
  9  7  1  0
 10  9  1  0
 11 10  1  0
 12 10  1  0
 13  6  1  0
 14 13  1  0
 15 14  2  0
 16 14  1  0
 17 16  1  0
 18 16  1  0
 19  3  1  0
 20 19  1  0
 21 19  1  0
 22 21  1  0
 23 22  1  0
 24 23  1  0
 25 23  1  0
  2 26  1  0
  4 27  1  0
  5 28  1  0
 11 29  1  0
 11 30  1  0
 11 31  1  0
 12 32  1  0
 12 33  1  0
 12 34  1  0
 17 35  1  0
 17 36  1  0
 17 37  1  0
 18 38  1  0
 18 39  1  0
 18 40  1  0
 19 41  1  6
 20 42  1  0
 21 43  1  0
 21 44  1  0
 22 45  1  0
 22 46  1  0
 23 47  1  0
 24 48  1  0
 24 49  1  0
 24 50  1  0
 25 51  1  0
 25 52  1  0
 25 53  1  0
M  CHG  1  22   1
M  END
>  <score>  (2) 
-8.657

$$$$
=
     RDKit          3D

 53 53  0  0  0  0  0  0  0  0999 V2000
    2.8230   68.3410   65.2990 C   0  0  0  0  0  0  0  0  0  0  0  0
    4.0620   68.8640   65.6670 C   0  0  0  0  0  0  0  0  0  0  0  0
    4.1760   69.6620   66.8170 C   0  0  0  0  0  0  0  0  0  0  0  0
    3.0210   69.9460   67.5680 C   0  0  0  0  0  0  0  0  0  0  0  0
    1.7750   69.4480   67.1770 C   0  0  0  0  0  0  0  0  0  0  0  0
    1.6820   68.6660   66.0290 C   0  0  0  0  0  0  0  0  0  0  0  0
    2.6810   67.5390   64.1600 O   0  0  0  0  0  0  0  0  0  0  0  0
    2.3590   65.4040   64.9910 O   0  0  0  0  0  0  0  0  0  0  0  0
    3.0020   66.1910   64.3000 C   0  0  0  0  0  0  0  0  0  0  0  0
    4.1330   65.8360   63.5770 N   0  0  0  0  0  0  0  0  0  0  0  0
    4.4890   64.4320   63.4800 C   0  0  0  0  0  0  0  0  0  0  0  0
    4.7590   66.7360   62.6220 C   0  0  0  0  0  0  0  0  0  0  0  0
    0.4330   68.1710   65.6560 O   0  0  0  0  0  0  0  0  0  0  0  0
   -0.2370   67.5390   66.7010 C   0  0  0  0  0  0  0  0  0  0  0  0
    0.2830   66.7200   67.4550 O   0  0  0  0  0  0  0  0  0  0  0  0
   -1.5680   67.9290   66.7940 N   0  0  0  0  0  0  0  0  0  0  0  0
   -2.4390   67.2380   67.7250 C   0  0  0  0  0  0  0  0  0  0  0  0
   -2.2100   68.7750   65.8010 C   0  0  0  0  0  0  0  0  0  0  0  0
    5.5110   70.2240   67.2370 C   0  0  1  0  0  0  0  0  0  0  0  0
    6.1850   70.8590   66.1320 O   0  0  0  0  0  0  0  0  0  0  0  0
    5.3830   71.2800   68.3580 C   0  0  0  0  0  0  0  0  0  0  0  0
    5.7810   70.6420   69.6700 N   0  0  0  0  0  4  0  0  0  0  0  0
    7.2220   70.4020   69.9820 C   0  0  0  0  0  0  0  0  0  0  0  0
    8.0800   71.4810   69.3370 C   0  0  0  0  0  0  0  0  0  0  0  0
    7.4460   70.2890   71.4820 C   0  0  0  0  0  0  0  0  0  0  0  0
    4.9514   68.6513   65.0557 H   0  0  0  0  0  0  0  0  0  0  0  0
    3.0993   70.5667   68.4728 H   0  0  0  0  0  0  0  0  0  0  0  0
    0.8764   69.6718   67.7707 H   0  0  0  0  0  0  0  0  0  0  0  0
    4.5960   64.0102   64.4903 H   0  0  0  0  0  0  0  0  0  0  0  0
    3.6998   63.8902   62.9381 H   0  0  0  0  0  0  0  0  0  0  0  0
    5.4410   64.3317   62.9381 H   0  0  0  0  0  0  0  0  0  0  0  0
    5.3058   67.5222   63.1632 H   0  0  0  0  0  0  0  0  0  0  0  0
    5.4597   66.1705   61.9902 H   0  0  0  0  0  0  0  0  0  0  0  0
    3.9851   67.1962   61.9902 H   0  0  0  0  0  0  0  0  0  0  0  0
   -2.1376   67.4771   68.7555 H   0  0  0  0  0  0  0  0  0  0  0  0
   -3.4782   67.5600   67.5628 H   0  0  0  0  0  0  0  0  0  0  0  0
   -2.3618   66.1528   67.5628 H   0  0  0  0  0  0  0  0  0  0  0  0
   -2.8001   69.5526   66.3081 H   0  0  0  0  0  0  0  0  0  0  0  0
   -1.4424   69.2492   65.1718 H   0  0  0  0  0  0  0  0  0  0  0  0
   -2.8733   68.1633   65.1718 H   0  0  0  0  0  0  0  0  0  0  0  0
    6.0860   69.3611   67.6041 H   0  0  0  0  0  0  0  0  0  0  0  0
    6.8600   71.4949   66.4786 H   0  0  0  0  0  0  0  0  0  0  0  0
    6.0466   72.1306   68.1433 H   0  0  0  0  0  0  0  0  0  0  0  0
    4.3461   71.6426   68.4159 H   0  0  0  0  0  0  0  0  0  0  0  0
    5.4125   71.2470   70.4177 H   0  0  0  0  0  0  0  0  0  0  0  0
    5.3954   69.6899   69.5946 H   0  0  0  0  0  0  0  0  0  0  0  0
    7.5297   69.4370   69.5529 H   0  0  0  0  0  0  0  0  0  0  0  0
    8.5602   72.0849   70.1210 H   0  0  0  0  0  0  0  0  0  0  0  0
    8.8529   71.0099   68.7119 H   0  0  0  0  0  0  0  0  0  0  0  0
    7.4469   72.1279   68.7119 H   0  0  0  0  0  0  0  0  0  0  0  0
    6.5867   70.7225   72.0147 H   0  0  0  0  0  0  0  0  0  0  0  0
    7.5521   69.2295   71.7581 H   0  0  0  0  0  0  0  0  0  0  0  0
    8.3612   70.8333   71.7581 H   0  0  0  0  0  0  0  0  0  0  0  0
  2  1  2  0
  3  2  1  0
  4  3  2  0
  5  4  1  0
  6  5  2  0
  6  1  1  0
  7  1  1  0
  9  8  2  0
  9  7  1  0
 10  9  1  0
 11 10  1  0
 12 10  1  0
 13  6  1  0
 14 13  1  0
 15 14  2  0
 16 14  1  0
 17 16  1  0
 18 16  1  0
 19  3  1  0
 20 19  1  0
 21 19  1  0
 22 21  1  0
 23 22  1  0
 24 23  1  0
 25 23  1  0
  2 26  1  0
  4 27  1  0
  5 28  1  0
 11 29  1  0
 11 30  1  0
 11 31  1  0
 12 32  1  0
 12 33  1  0
 12 34  1  0
 17 35  1  0
 17 36  1  0
 17 37  1  0
 18 38  1  0
 18 39  1  0
 18 40  1  0
 19 41  1  1
 20 42  1  0
 21 43  1  0
 21 44  1  0
 22 45  1  0
 22 46  1  0
 23 47  1  0
 24 48  1  0
 24 49  1  0
 24 50  1  0
 25 51  1  0
 25 52  1  0
 25 53  1  0
M  CHG  1  22   1
M  END
>  <score>  (3) 
-8.422

$$$$
=
     RDKit          3D

 53 53  0  0  0  0  0  0  0  0999 V2000
    2.0590   68.4560   64.6140 C   0  0  0  0  0  0  0  0  0  0  0  0
    3.4390   68.6340   64.5270 C   0  0  0  0  0  0  0  0  0  0  0  0
    4.1550   69.1380   65.6250 C   0  0  0  0  0  0  0  0  0  0  0  0
    3.4550   69.4860   66.7950 C   0  0  0  0  0  0  0  0  0  0  0  0
    2.0660   69.3390   66.8650 C   0  0  0  0  0  0  0  0  0  0  0  0
    1.3750   68.8450   65.7630 C   0  0  0  0  0  0  0  0  0  0  0  0
    1.3220   67.9510   63.5350 O   0  0  0  0  0  0  0  0  0  0  0  0
    2.3320   68.7100   61.5970 O   0  0  0  0  0  0  0  0  0  0  0  0
    1.3620   68.6840   62.3510 C   0  0  0  0  0  0  0  0  0  0  0  0
    0.1870   69.3870   62.1230 N   0  0  0  0  0  0  0  0  0  0  0  0
    0.0090   70.0540   60.8460 C   0  0  0  0  0  0  0  0  0  0  0  0
   -1.0070   69.1880   62.9280 C   0  0  0  0  0  0  0  0  0  0  0  0
   -0.0090   68.6970   65.8520 O   0  0  0  0  0  0  0  0  0  0  0  0
   -0.3940   67.6960   66.7410 C   0  0  0  0  0  0  0  0  0  0  0  0
    0.3830   66.8890   67.2460 O   0  0  0  0  0  0  0  0  0  0  0  0
   -1.7610   67.7020   66.9900 N   0  0  0  0  0  0  0  0  0  0  0  0
   -2.3390   66.6200   67.7630 C   0  0  0  0  0  0  0  0  0  0  0  0
   -2.6880   68.5570   66.2660 C   0  0  0  0  0  0  0  0  0  0  0  0
    5.6490   69.3230   65.5530 C   0  0  1  0  0  0  0  0  0  0  0  0
    6.1050   69.4010   64.1870 O   0  0  0  0  0  0  0  0  0  0  0  0
    6.1220   70.6120   66.2630 C   0  0  0  0  0  0  0  0  0  0  0  0
    6.7920   70.2290   67.5630 N   0  0  0  0  0  4  0  0  0  0  0  0
    6.5650   71.0420   68.7940 C   0  0  0  0  0  0  0  0  0  0  0  0
    5.2290   70.6700   69.4240 C   0  0  0  0  0  0  0  0  0  0  0  0
    7.7300   70.9090   69.7630 C   0  0  0  0  0  0  0  0  0  0  0  0
    3.9679   68.3792   63.5968 H   0  0  0  0  0  0  0  0  0  0  0  0
    4.0057   69.8775   67.6630 H   0  0  0  0  0  0  0  0  0  0  0  0
    1.5247   69.6115   67.7830 H   0  0  0  0  0  0  0  0  0  0  0  0
   -0.2712   71.1039   61.0166 H   0  0  0  0  0  0  0  0  0  0  0  0
    0.9494   70.0133   60.2768 H   0  0  0  0  0  0  0  0  0  0  0  0
   -0.7861   69.5502   60.2768 H   0  0  0  0  0  0  0  0  0  0  0  0
   -0.7417   69.2322   63.9946 H   0  0  0  0  0  0  0  0  0  0  0  0
   -1.7391   69.9765   62.6993 H   0  0  0  0  0  0  0  0  0  0  0  0
   -1.4438   68.2047   62.6993 H   0  0  0  0  0  0  0  0  0  0  0  0
   -2.2247   66.8341   68.8359 H   0  0  0  0  0  0  0  0  0  0  0  0
   -3.4076   66.5257   67.5198 H   0  0  0  0  0  0  0  0  0  0  0  0
   -1.8232   65.6794   67.5198 H   0  0  0  0  0  0  0  0  0  0  0  0
   -3.3013   69.1227   66.9829 H   0  0  0  0  0  0  0  0  0  0  0  0
   -2.1230   69.2578   65.6337 H   0  0  0  0  0  0  0  0  0  0  0  0
   -3.3409   67.9373   65.6337 H   0  0  0  0  0  0  0  0  0  0  0  0
    6.0733   68.4432   66.0589 H   0  0  0  0  0  0  0  0  0  0  0  0
    7.0807   69.5679   64.1738 H   0  0  0  0  0  0  0  0  0  0  0  0
    6.8372   71.1473   65.6212 H   0  0  0  0  0  0  0  0  0  0  0  0
    5.2619   71.2680   66.4627 H   0  0  0  0  0  0  0  0  0  0  0  0
    6.4879   69.2695   67.7815 H   0  0  0  0  0  0  0  0  0  0  0  0
    7.7915   70.3789   67.3644 H   0  0  0  0  0  0  0  0  0  0  0  0
    6.5154   72.1061   68.5197 H   0  0  0  0  0  0  0  0  0  0  0  0
    5.3206   70.6955   70.5199 H   0  0  0  0  0  0  0  0  0  0  0  0
    4.4599   71.3882   69.1035 H   0  0  0  0  0  0  0  0  0  0  0  0
    4.9417   69.6577   69.1035 H   0  0  0  0  0  0  0  0  0  0  0  0
    7.3544   70.9519   70.7960 H   0  0  0  0  0  0  0  0  0  0  0  0
    8.2371   69.9471   69.5969 H   0  0  0  0  0  0  0  0  0  0  0  0
    8.4409   71.7318   69.5969 H   0  0  0  0  0  0  0  0  0  0  0  0
  2  1  2  0
  3  2  1  0
  4  3  2  0
  5  4  1  0
  6  5  2  0
  6  1  1  0
  7  1  1  0
  9  8  2  0
  9  7  1  0
 10  9  1  0
 11 10  1  0
 12 10  1  0
 13  6  1  0
 14 13  1  0
 15 14  2  0
 16 14  1  0
 17 16  1  0
 18 16  1  0
 19  3  1  0
 20 19  1  0
 21 19  1  0
 22 21  1  0
 23 22  1  0
 24 23  1  0
 25 23  1  0
  2 26  1  0
  4 27  1  0
  5 28  1  0
 11 29  1  0
 11 30  1  0
 11 31  1  0
 12 32  1  0
 12 33  1  0
 12 34  1  0
 17 35  1  0
 17 36  1  0
 17 37  1  0
 18 38  1  0
 18 39  1  0
 18 40  1  0
 19 41  1  1
 20 42  1  0
 21 43  1  0
 21 44  1  0
 22 45  1  0
 22 46  1  0
 23 47  1  0
 24 48  1  0
 24 49  1  0
 24 50  1  0
 25 51  1  0
 25 52  1  0
 25 53  1  0
M  CHG  1  22   1
M  END
>  <score>  (4) 
-8.156

$$$$
=
     RDKit          3D

 53 53  0  0  0  0  0  0  0  0999 V2000
    2.4140   68.8650   65.4870 C   0  0  0  0  0  0  0  0  0  0  0  0
    3.3610   69.3550   66.3850 C   0  0  0  0  0  0  0  0  0  0  0  0
    4.7100   69.4520   66.0030 C   0  0  0  0  0  0  0  0  0  0  0  0
    5.0890   69.0210   64.7190 C   0  0  0  0  0  0  0  0  0  0  0  0
    4.1410   68.4970   63.8340 C   0  0  0  0  0  0  0  0  0  0  0  0
    2.8120   68.4020   64.2350 C   0  0  0  0  0  0  0  0  0  0  0  0
    1.0630   68.7610   65.8390 O   0  0  0  0  0  0  0  0  0  0  0  0
    1.4950   66.8220   67.0240 O   0  0  0  0  0  0  0  0  0  0  0  0
    0.7120   67.6990   66.6690 C   0  0  0  0  0  0  0  0  0  0  0  0
   -0.6250   67.7370   67.0430 N   0  0  0  0  0  0  0  0  0  0  0  0
   -1.0970   66.8000   68.0450 C   0  0  0  0  0  0  0  0  0  0  0  0
   -1.4770   68.8820   66.7660 C   0  0  0  0  0  0  0  0  0  0  0  0
    1.8780   67.8840   63.3370 O   0  0  0  0  0  0  0  0  0  0  0  0
    1.6820   68.7000   62.2240 C   0  0  0  0  0  0  0  0  0  0  0  0
    2.5750   69.0260   61.4450 O   0  0  0  0  0  0  0  0  0  0  0  0
    0.3620   69.1150   62.0950 N   0  0  0  0  0  0  0  0  0  0  0  0
    0.0320   70.1000   61.0840 C   0  0  0  0  0  0  0  0  0  0  0  0
   -0.6470   68.8530   63.1080 C   0  0  0  0  0  0  0  0  0  0  0  0
    5.7440   69.9930   66.9580 C   0  0  1  0  0  0  0  0  0  0  0  0
    6.8300   70.6270   66.2520 O   0  0  0  0  0  0  0  0  0  0  0  0
    5.1600   71.0430   67.9290 C   0  0  0  0  0  0  0  0  0  0  0  0
    5.5860   70.6880   69.3370 N   0  0  0  0  0  4  0  0  0  0  0  0
    7.0290   70.4720   69.6530 C   0  0  0  0  0  0  0  0  0  0  0  0
    7.8510   71.6580   69.1660 C   0  0  0  0  0  0  0  0  0  0  0  0
    7.2290   70.1850   71.1340 C   0  0  0  0  0  0  0  0  0  0  0  0
    3.0520   69.6661   67.3938 H   0  0  0  0  0  0  0  0  0  0  0  0
    6.1413   69.0967   64.4077 H   0  0  0  0  0  0  0  0  0  0  0  0
    4.4433   68.1632   62.8304 H   0  0  0  0  0  0  0  0  0  0  0  0
   -0.8940   67.2029   69.0482 H   0  0  0  0  0  0  0  0  0  0  0  0
   -2.1795   66.6474   67.9232 H   0  0  0  0  0  0  0  0  0  0  0  0
   -0.5753   65.8393   67.9232 H   0  0  0  0  0  0  0  0  0  0  0  0
   -1.8098   69.3293   67.7142 H   0  0  0  0  0  0  0  0  0  0  0  0
   -0.9124   69.6277   66.1871 H   0  0  0  0  0  0  0  0  0  0  0  0
   -2.3535   68.5553   66.1871 H   0  0  0  0  0  0  0  0  0  0  0  0
   -0.2812   71.0350   61.5715 H   0  0  0  0  0  0  0  0  0  0  0  0
    0.9150   70.2915   60.4567 H   0  0  0  0  0  0  0  0  0  0  0  0
   -0.7882   69.7209   60.4567 H   0  0  0  0  0  0  0  0  0  0  0  0
   -0.2020   68.9686   64.1073 H   0  0  0  0  0  0  0  0  0  0  0  0
   -1.4770   69.5654   62.9916 H   0  0  0  0  0  0  0  0  0  0  0  0
   -1.0256   67.8268   62.9916 H   0  0  0  0  0  0  0  0  0  0  0  0
    6.1005   69.1205   67.5251 H   0  0  0  0  0  0  0  0  0  0  0  0
    7.4731   71.0024   66.9043 H   0  0  0  0  0  0  0  0  0  0  0  0
    5.5401   72.0415   67.6674 H   0  0  0  0  0  0  0  0  0  0  0  0
    4.0623   71.0501   67.8590 H   0  0  0  0  0  0  0  0  0  0  0  0
    5.2601   71.4515   69.9467 H   0  0  0  0  0  0  0  0  0  0  0  0
    5.1724   69.7555   69.4793 H   0  0  0  0  0  0  0  0  0  0  0  0
    7.3873   69.5807   69.1171 H   0  0  0  0  0  0  0  0  0  0  0  0
    8.2378   72.2161   70.0314 H   0  0  0  0  0  0  0  0  0  0  0  0
    8.6926   71.2956   68.5574 H   0  0  0  0  0  0  0  0  0  0  0  0
    7.2163   72.3189   68.5574 H   0  0  0  0  0  0  0  0  0  0  0  0
    6.7001   70.9439   71.7292 H   0  0  0  0  0  0  0  0  0  0  0  0
    6.8288   69.1883   71.3716 H   0  0  0  0  0  0  0  0  0  0  0  0
    8.3026   70.2153   71.3716 H   0  0  0  0  0  0  0  0  0  0  0  0
  2  1  2  0
  3  2  1  0
  4  3  2  0
  5  4  1  0
  6  5  2  0
  6  1  1  0
  7  1  1  0
  9  8  2  0
  9  7  1  0
 10  9  1  0
 11 10  1  0
 12 10  1  0
 13  6  1  0
 14 13  1  0
 15 14  2  0
 16 14  1  0
 17 16  1  0
 18 16  1  0
 19  3  1  0
 20 19  1  0
 21 19  1  0
 22 21  1  0
 23 22  1  0
 24 23  1  0
 25 23  1  0
  2 26  1  0
  4 27  1  0
  5 28  1  0
 11 29  1  0
 11 30  1  0
 11 31  1  0
 12 32  1  0
 12 33  1  0
 12 34  1  0
 17 35  1  0
 17 36  1  0
 17 37  1  0
 18 38  1  0
 18 39  1  0
 18 40  1  0
 19 41  1  1
 20 42  1  0
 21 43  1  0
 21 44  1  0
 22 45  1  0
 22 46  1  0
 23 47  1  0
 24 48  1  0
 24 49  1  0
 24 50  1  0
 25 51  1  0
 25 52  1  0
 25 53  1  0
M  CHG  1  22   1
M  END
>  <score>  (5) 
-8.067

$$$$
=
     RDKit          3D

 53 53  0  0  0  0  0  0  0  0999 V2000
    2.3060   68.2830   65.4790 C   0  0  0  0  0  0  0  0  0  0  0  0
    2.7690   68.8980   66.6410 C   0  0  0  0  0  0  0  0  0  0  0  0
    1.8590   69.4640   67.5490 C   0  0  0  0  0  0  0  0  0  0  0  0
    0.4850   69.4260   67.2520 C   0  0  0  0  0  0  0  0  0  0  0  0
    0.0270   68.8390   66.0690 C   0  0  0  0  0  0  0  0  0  0  0  0
    0.9460   68.2910   65.1780 C   0  0  0  0  0  0  0  0  0  0  0  0
    3.1900   67.7070   64.5590 O   0  0  0  0  0  0  0  0  0  0  0  0
    2.8530   65.6230   65.5060 O   0  0  0  0  0  0  0  0  0  0  0  0
    3.3930   66.3320   64.6610 C   0  0  0  0  0  0  0  0  0  0  0  0
    4.2800   65.8540   63.7060 N   0  0  0  0  0  0  0  0  0  0  0  0
    4.4560   64.4200   63.5710 C   0  0  0  0  0  0  0  0  0  0  0  0
    4.7540   66.6770   62.6040 C   0  0  0  0  0  0  0  0  0  0  0  0
    0.4720   67.7020   64.0050 O   0  0  0  0  0  0  0  0  0  0  0  0
   -0.2620   68.5830   63.2120 C   0  0  0  0  0  0  0  0  0  0  0  0
   -1.4540   68.8280   63.3810 O   0  0  0  0  0  0  0  0  0  0  0  0
    0.5020   69.1480   62.1990 N   0  0  0  0  0  0  0  0  0  0  0  0
   -0.1560   69.9560   61.1910 C   0  0  0  0  0  0  0  0  0  0  0  0
    1.8650   68.7290   61.9140 C   0  0  0  0  0  0  0  0  0  0  0  0
    2.3430   70.1200   68.8170 C   0  0  1  0  0  0  0  0  0  0  0  0
    2.8520   69.1470   69.7520 O   0  0  0  0  0  0  0  0  0  0  0  0
    3.4770   71.1390   68.5620 C   0  0  0  0  0  0  0  0  0  0  0  0
    4.7860   70.5250   69.0060 N   0  0  0  0  0  4  0  0  0  0  0  0
    6.0680   70.9450   68.3650 C   0  0  0  0  0  0  0  0  0  0  0  0
    7.2170   70.7890   69.3500 C   0  0  0  0  0  0  0  0  0  0  0  0
    6.3020   70.1920   67.0630 C   0  0  0  0  0  0  0  0  0  0  0  0
    3.8487   68.9402   66.8472 H   0  0  0  0  0  0  0  0  0  0  0  0
   -0.2368   69.8627   67.9579 H   0  0  0  0  0  0  0  0  0  0  0  0
   -1.0494   68.8103   65.8440 H   0  0  0  0  0  0  0  0  0  0  0  0
    4.5122   63.9619   64.5695 H   0  0  0  0  0  0  0  0  0  0  0  0
    3.6031   63.9961   63.0206 H   0  0  0  0  0  0  0  0  0  0  0  0
    5.3861   64.2149   63.0206 H   0  0  0  0  0  0  0  0  0  0  0  0
    5.2655   67.5652   63.0033 H   0  0  0  0  0  0  0  0  0  0  0  0
    5.4557   66.0958   61.9877 H   0  0  0  0  0  0  0  0  0  0  0  0
    3.8991   66.9923   61.9877 H   0  0  0  0  0  0  0  0  0  0  0  0
   -0.7777   70.7195   61.6815 H   0  0  0  0  0  0  0  0  0  0  0  0
    0.6017   70.4479   60.5634 H   0  0  0  0  0  0  0  0  0  0  0  0
   -0.7912   69.3137   60.5634 H   0  0  0  0  0  0  0  0  0  0  0  0
    2.4030   68.5636   62.8591 H   0  0  0  0  0  0  0  0  0  0  0  0
    1.8476   67.7947   61.3336 H   0  0  0  0  0  0  0  0  0  0  0  0
    2.3755   69.5117   61.3336 H   0  0  0  0  0  0  0  0  0  0  0  0
    1.4637   70.6376   69.2280 H   0  0  0  0  0  0  0  0  0  0  0  0
    2.6880   69.4605   70.6766 H   0  0  0  0  0  0  0  0  0  0  0  0
    3.5252   71.3792   67.4896 H   0  0  0  0  0  0  0  0  0  0  0  0
    3.2852   72.0638   69.1259 H   0  0  0  0  0  0  0  0  0  0  0  0
    4.8794   70.7217   70.0127 H   0  0  0  0  0  0  0  0  0  0  0  0
    4.6922   69.5399   68.7203 H   0  0  0  0  0  0  0  0  0  0  0  0
    6.0066   72.0100   68.0968 H   0  0  0  0  0  0  0  0  0  0  0  0
    6.8286   70.8417   70.3778 H   0  0  0  0  0  0  0  0  0  0  0  0
    7.7057   69.8163   69.1922 H   0  0  0  0  0  0  0  0  0  0  0  0
    7.9474   71.5962   69.1922 H   0  0  0  0  0  0  0  0  0  0  0  0
    6.6216   69.1635   67.2866 H   0  0  0  0  0  0  0  0  0  0  0  0
    5.3691   70.1676   66.4807 H   0  0  0  0  0  0  0  0  0  0  0  0
    7.0844   70.7007   66.4807 H   0  0  0  0  0  0  0  0  0  0  0  0
  2  1  2  0
  3  2  1  0
  4  3  2  0
  5  4  1  0
  6  5  2  0
  6  1  1  0
  7  1  1  0
  9  8  2  0
  9  7  1  0
 10  9  1  0
 11 10  1  0
 12 10  1  0
 13  6  1  0
 14 13  1  0
 15 14  2  0
 16 14  1  0
 17 16  1  0
 18 16  1  0
 19  3  1  0
 20 19  1  0
 21 19  1  0
 22 21  1  0
 23 22  1  0
 24 23  1  0
 25 23  1  0
  2 26  1  0
  4 27  1  0
  5 28  1  0
 11 29  1  0
 11 30  1  0
 11 31  1  0
 12 32  1  0
 12 33  1  0
 12 34  1  0
 17 35  1  0
 17 36  1  0
 17 37  1  0
 18 38  1  0
 18 39  1  0
 18 40  1  0
 19 41  1  1
 20 42  1  0
 21 43  1  0
 21 44  1  0
 22 45  1  0
 22 46  1  0
 23 47  1  0
 24 48  1  0
 24 49  1  0
 24 50  1  0
 25 51  1  0
 25 52  1  0
 25 53  1  0
M  CHG  1  22   1
M  END
>  <score>  (6) 
-8.033

$$$$
=
     RDKit          3D

 53 53  0  0  0  0  0  0  0  0999 V2000
    3.1330   68.6310   65.8030 C   0  0  0  0  0  0  0  0  0  0  0  0
    4.0570   67.9580   65.0060 C   0  0  0  0  0  0  0  0  0  0  0  0
    3.7120   66.7340   64.4090 C   0  0  0  0  0  0  0  0  0  0  0  0
    2.4380   66.1900   64.6530 C   0  0  0  0  0  0  0  0  0  0  0  0
    1.5270   66.8520   65.4810 C   0  0  0  0  0  0  0  0  0  0  0  0
    1.8910   68.0590   66.0700 C   0  0  0  0  0  0  0  0  0  0  0  0
    3.4490   69.8540   66.4070 O   0  0  0  0  0  0  0  0  0  0  0  0
    5.7560   69.8310   66.2410 O   0  0  0  0  0  0  0  0  0  0  0  0
    4.7400   69.9880   66.9130 C   0  0  0  0  0  0  0  0  0  0  0  0
    4.7500   70.3120   68.2630 N   0  0  0  0  0  0  0  0  0  0  0  0
    6.0130   70.6580   68.8890 C   0  0  0  0  0  0  0  0  0  0  0  0
    3.5420   70.6780   68.9840 C   0  0  0  0  0  0  0  0  0  0  0  0
    0.9680   68.7100   66.8880 O   0  0  0  0  0  0  0  0  0  0  0  0
    0.0860   67.8340   67.5180 C   0  0  0  0  0  0  0  0  0  0  0  0
    0.4340   66.9530   68.3010 O   0  0  0  0  0  0  0  0  0  0  0  0
   -1.2370   68.0600   67.1570 N   0  0  0  0  0  0  0  0  0  0  0  0
   -2.2540   67.1270   67.5990 C   0  0  0  0  0  0  0  0  0  0  0  0
   -1.6170   68.9980   66.1130 C   0  0  0  0  0  0  0  0  0  0  0  0
    4.6950   66.0000   63.5310 C   0  0  1  0  0  0  0  0  0  0  0  0
    4.1010   64.8230   62.9470 O   0  0  0  0  0  0  0  0  0  0  0  0
    5.2150   66.8720   62.3670 C   0  0  0  0  0  0  0  0  0  0  0  0
    4.0520   67.2090   61.4600 N   0  0  0  0  0  4  0  0  0  0  0  0
    3.6430   68.6310   61.2590 C   0  0  0  0  0  0  0  0  0  0  0  0
    2.2570   68.8610   61.8450 C   0  0  0  0  0  0  0  0  0  0  0  0
    4.6860   69.5860   61.8200 C   0  0  0  0  0  0  0  0  0  0  0  0
    5.0575   68.3856   64.8442 H   0  0  0  0  0  0  0  0  0  0  0  0
    2.1558   65.2341   64.1876 H   0  0  0  0  0  0  0  0  0  0  0  0
    0.5312   66.4226   65.6654 H   0  0  0  0  0  0  0  0  0  0  0  0
    5.9007   70.6272   69.9828 H   0  0  0  0  0  0  0  0  0  0  0  0
    6.7851   69.9383   68.5793 H   0  0  0  0  0  0  0  0  0  0  0  0
    6.3104   71.6707   68.5793 H   0  0  0  0  0  0  0  0  0  0  0  0
    3.7296   70.6212   70.0664 H   0  0  0  0  0  0  0  0  0  0  0  0
    3.2516   71.7045   68.7156 H   0  0  0  0  0  0  0  0  0  0  0  0
    2.7307   69.9853   68.7156 H   0  0  0  0  0  0  0  0  0  0  0  0
   -2.2782   67.1048   68.6985 H   0  0  0  0  0  0  0  0  0  0  0  0
   -3.2350   67.4458   67.2170 H   0  0  0  0  0  0  0  0  0  0  0  0
   -2.0207   66.1222   67.2170 H   0  0  0  0  0  0  0  0  0  0  0  0
   -1.9924   69.9247   66.5716 H   0  0  0  0  0  0  0  0  0  0  0  0
   -0.7406   69.2267   65.4888 H   0  0  0  0  0  0  0  0  0  0  0  0
   -2.4055   68.5522   65.4888 H   0  0  0  0  0  0  0  0  0  0  0  0
    5.5304   65.7301   64.1937 H   0  0  0  0  0  0  0  0  0  0  0  0
    3.7947   64.2162   63.6668 H   0  0  0  0  0  0  0  0  0  0  0  0
    5.6548   67.7982   62.7655 H   0  0  0  0  0  0  0  0  0  0  0  0
    5.9855   66.3258   61.8031 H   0  0  0  0  0  0  0  0  0  0  0  0
    4.2832   66.8328   60.5295 H   0  0  0  0  0  0  0  0  0  0  0  0
    3.2448   66.8002   61.9521 H   0  0  0  0  0  0  0  0  0  0  0  0
    3.5836   68.8415   60.1810 H   0  0  0  0  0  0  0  0  0  0  0  0
    2.3170   68.8510   62.9433 H   0  0  0  0  0  0  0  0  0  0  0  0
    1.8733   69.8351   61.5076 H   0  0  0  0  0  0  0  0  0  0  0  0
    1.5792   68.0631   61.5076 H   0  0  0  0  0  0  0  0  0  0  0  0
    4.6553   69.5579   62.9192 H   0  0  0  0  0  0  0  0  0  0  0  0
    5.6849   69.2829   61.4732 H   0  0  0  0  0  0  0  0  0  0  0  0
    4.4719   70.6077   61.4732 H   0  0  0  0  0  0  0  0  0  0  0  0
  2  1  2  0
  3  2  1  0
  4  3  2  0
  5  4  1  0
  6  5  2  0
  6  1  1  0
  7  1  1  0
  9  8  2  0
  9  7  1  0
 10  9  1  0
 11 10  1  0
 12 10  1  0
 13  6  1  0
 14 13  1  0
 15 14  2  0
 16 14  1  0
 17 16  1  0
 18 16  1  0
 19  3  1  0
 20 19  1  0
 21 19  1  0
 22 21  1  0
 23 22  1  0
 24 23  1  0
 25 23  1  0
  2 26  1  0
  4 27  1  0
  5 28  1  0
 11 29  1  0
 11 30  1  0
 11 31  1  0
 12 32  1  0
 12 33  1  0
 12 34  1  0
 17 35  1  0
 17 36  1  0
 17 37  1  0
 18 38  1  0
 18 39  1  0
 18 40  1  0
 19 41  1  1
 20 42  1  0
 21 43  1  0
 21 44  1  0
 22 45  1  0
 22 46  1  0
 23 47  1  0
 24 48  1  0
 24 49  1  0
 24 50  1  0
 25 51  1  0
 25 52  1  0
 25 53  1  0
M  CHG  1  22   1
M  END
>  <score>  (7) 
-7.713

$$$$
=
     RDKit          3D

 53 53  0  0  0  0  0  0  0  0999 V2000
    3.0270   69.1150   65.9410 C   0  0  0  0  0  0  0  0  0  0  0  0
    2.7830   68.5350   64.6970 C   0  0  0  0  0  0  0  0  0  0  0  0
    3.7770   68.5570   63.7040 C   0  0  0  0  0  0  0  0  0  0  0  0
    5.0000   69.1960   63.9750 C   0  0  0  0  0  0  0  0  0  0  0  0
    5.2260   69.8070   65.2120 C   0  0  0  0  0  0  0  0  0  0  0  0
    4.2260   69.7810   66.1800 C   0  0  0  0  0  0  0  0  0  0  0  0
    2.0560   69.1040   66.9510 O   0  0  0  0  0  0  0  0  0  0  0  0
    1.7450   66.8220   67.1690 O   0  0  0  0  0  0  0  0  0  0  0  0
    1.2790   67.9530   67.0590 C   0  0  0  0  0  0  0  0  0  0  0  0
   -0.0820   68.2260   67.0210 N   0  0  0  0  0  0  0  0  0  0  0  0
   -1.0190   67.1530   67.3000 C   0  0  0  0  0  0  0  0  0  0  0  0
   -0.6050   69.5820   67.0820 C   0  0  0  0  0  0  0  0  0  0  0  0
    4.4710   70.3890   67.4110 O   0  0  0  0  0  0  0  0  0  0  0  0
    5.8260   70.6120   67.6490 C   0  0  0  0  0  0  0  0  0  0  0  0
    6.6830   70.6380   66.7690 O   0  0  0  0  0  0  0  0  0  0  0  0
    6.1060   70.7930   68.9980 N   0  0  0  0  0  0  0  0  0  0  0  0
    7.4900   70.8700   69.4230 C   0  0  0  0  0  0  0  0  0  0  0  0
    5.1110   70.6010   70.0410 C   0  0  0  0  0  0  0  0  0  0  0  0
    3.5350   67.9220   62.3580 C   0  0  1  0  0  0  0  0  0  0  0  0
    3.6580   68.8840   61.2920 O   0  0  0  0  0  0  0  0  0  0  0  0
    4.5320   66.7800   62.0550 C   0  0  0  0  0  0  0  0  0  0  0  0
    4.7730   65.9990   63.3280 N   0  0  0  0  0  4  0  0  0  0  0  0
    4.0430   64.7200   63.5750 C   0  0  0  0  0  0  0  0  0  0  0  0
    5.0350   63.6080   63.8860 C   0  0  0  0  0  0  0  0  0  0  0  0
    2.9900   64.8900   64.6590 C   0  0  0  0  0  0  0  0  0  0  0  0
    1.8121   68.0600   64.4927 H   0  0  0  0  0  0  0  0  0  0  0  0
    5.7865   69.2153   63.2062 H   0  0  0  0  0  0  0  0  0  0  0  0
    6.1854   70.3038   65.4185 H   0  0  0  0  0  0  0  0  0  0  0  0
   -1.1246   67.0321   68.3882 H   0  0  0  0  0  0  0  0  0  0  0  0
   -1.9977   67.3977   66.8616 H   0  0  0  0  0  0  0  0  0  0  0  0
   -0.6447   66.2161   66.8616 H   0  0  0  0  0  0  0  0  0  0  0  0
   -0.7212   69.8832   68.1336 H   0  0  0  0  0  0  0  0  0  0  0  0
    0.0933   70.2673   66.5793 H   0  0  0  0  0  0  0  0  0  0  0  0
   -1.5826   69.6209   66.5793 H   0  0  0  0  0  0  0  0  0  0  0  0
    7.5365   70.8726   70.5220 H   0  0  0  0  0  0  0  0  0  0  0  0
    8.0417   70.0012   69.0347 H   0  0  0  0  0  0  0  0  0  0  0  0
    7.9419   71.7947   69.0347 H   0  0  0  0  0  0  0  0  0  0  0  0
    5.5905   70.6935   71.0267 H   0  0  0  0  0  0  0  0  0  0  0  0
    4.3248   71.3640   69.9426 H   0  0  0  0  0  0  0  0  0  0  0  0
    4.6651   69.6002   69.9426 H   0  0  0  0  0  0  0  0  0  0  0  0
    2.5122   67.5202   62.4074 H   0  0  0  0  0  0  0  0  0  0  0  0
    3.7737   69.7891   61.6760 H   0  0  0  0  0  0  0  0  0  0  0  0
    4.1113   66.1150   61.2863 H   0  0  0  0  0  0  0  0  0  0  0  0
    5.4801   67.1973   61.6851 H   0  0  0  0  0  0  0  0  0  0  0  0
    5.7783   65.7760   63.3530 H   0  0  0  0  0  0  0  0  0  0  0  0
    4.4051   66.6239   64.0595 H   0  0  0  0  0  0  0  0  0  0  0  0
    3.4994   64.4315   62.6632 H   0  0  0  0  0  0  0  0  0  0  0  0
    5.1329   63.4983   64.9761 H   0  0  0  0  0  0  0  0  0  0  0  0
    4.6742   62.6632   63.4533 H   0  0  0  0  0  0  0  0  0  0  0  0
    6.0147   63.8590   63.4533 H   0  0  0  0  0  0  0  0  0  0  0  0
    3.4659   64.8132   65.6477 H   0  0  0  0  0  0  0  0  0  0  0  0
    2.5144   65.8766   64.5567 H   0  0  0  0  0  0  0  0  0  0  0  0
    2.2281   64.1032   64.5567 H   0  0  0  0  0  0  0  0  0  0  0  0
  2  1  2  0
  3  2  1  0
  4  3  2  0
  5  4  1  0
  6  5  2  0
  6  1  1  0
  7  1  1  0
  9  8  2  0
  9  7  1  0
 10  9  1  0
 11 10  1  0
 12 10  1  0
 13  6  1  0
 14 13  1  0
 15 14  2  0
 16 14  1  0
 17 16  1  0
 18 16  1  0
 19  3  1  0
 20 19  1  0
 21 19  1  0
 22 21  1  0
 23 22  1  0
 24 23  1  0
 25 23  1  0
  2 26  1  0
  4 27  1  0
  5 28  1  0
 11 29  1  0
 11 30  1  0
 11 31  1  0
 12 32  1  0
 12 33  1  0
 12 34  1  0
 17 35  1  0
 17 36  1  0
 17 37  1  0
 18 38  1  0
 18 39  1  0
 18 40  1  0
 19 41  1  1
 20 42  1  0
 21 43  1  0
 21 44  1  0
 22 45  1  0
 22 46  1  0
 23 47  1  0
 24 48  1  0
 24 49  1  0
 24 50  1  0
 25 51  1  0
 25 52  1  0
 25 53  1  0
M  CHG  1  22   1
M  END
>  <score>  (8) 
-7.634

$$$$
=
     RDKit          3D

 53 53  0  0  0  0  0  0  0  0999 V2000
    2.2250   64.2230   70.5910 C   0  0  0  0  0  0  0  0  0  0  0  0
    2.2410   65.4100   69.8590 C   0  0  0  0  0  0  0  0  0  0  0  0
    1.1420   66.2840   69.9120 C   0  0  0  0  0  0  0  0  0  0  0  0
    0.0230   65.9280   70.6860 C   0  0  0  0  0  0  0  0  0  0  0  0
   -0.0020   64.7210   71.3900 C   0  0  0  0  0  0  0  0  0  0  0  0
    1.0930   63.8650   71.3180 C   0  0  0  0  0  0  0  0  0  0  0  0
    3.3080   63.3370   70.5600 O   0  0  0  0  0  0  0  0  0  0  0  0
    2.7740   62.2970   68.5630 O   0  0  0  0  0  0  0  0  0  0  0  0
    3.1910   62.2340   69.7170 C   0  0  0  0  0  0  0  0  0  0  0  0
    3.5900   61.0530   70.3290 N   0  0  0  0  0  0  0  0  0  0  0  0
    3.6940   59.8490   69.5250 C   0  0  0  0  0  0  0  0  0  0  0  0
    4.2560   61.0340   71.6220 C   0  0  0  0  0  0  0  0  0  0  0  0
    1.0550   62.6680   72.0330 O   0  0  0  0  0  0  0  0  0  0  0  0
    0.9250   62.8570   73.4070 C   0  0  0  0  0  0  0  0  0  0  0  0
    1.7600   63.4290   74.1040 O   0  0  0  0  0  0  0  0  0  0  0  0
   -0.2540   62.3180   73.9090 N   0  0  0  0  0  0  0  0  0  0  0  0
   -0.4560   62.2880   75.3440 C   0  0  0  0  0  0  0  0  0  0  0  0
   -1.1530   61.5080   73.1040 C   0  0  0  0  0  0  0  0  0  0  0  0
    1.1480   67.5780   69.1380 C   0  0  1  0  0  0  0  0  0  0  0  0
    2.1710   68.4730   69.6190 O   0  0  0  0  0  0  0  0  0  0  0  0
    1.4060   67.3650   67.6290 C   0  0  0  0  0  0  0  0  0  0  0  0
    0.0880   67.0610   66.9530 N   0  0  0  0  0  4  0  0  0  0  0  0
   -1.0990   67.9340   67.1930 C   0  0  0  0  0  0  0  0  0  0  0  0
   -1.3020   68.8720   66.0120 C   0  0  0  0  0  0  0  0  0  0  0  0
   -2.3360   67.1050   67.5070 C   0  0  0  0  0  0  0  0  0  0  0  0
    3.1145   65.6622   69.2398 H   0  0  0  0  0  0  0  0  0  0  0  0
   -0.8413   66.6065   70.7378 H   0  0  0  0  0  0  0  0  0  0  0  0
   -0.8793   64.4499   71.9956 H   0  0  0  0  0  0  0  0  0  0  0  0
    3.7697   58.9725   70.1854 H   0  0  0  0  0  0  0  0  0  0  0  0
    2.8007   59.7537   68.8902 H   0  0  0  0  0  0  0  0  0  0  0  0
    4.5904   59.9083   68.8902 H   0  0  0  0  0  0  0  0  0  0  0  0
    3.5024   61.0555   72.4230 H   0  0  0  0  0  0  0  0  0  0  0  0
    4.8590   60.1183   71.7104 H   0  0  0  0  0  0  0  0  0  0  0  0
    4.9103   61.9138   71.7104 H   0  0  0  0  0  0  0  0  0  0  0  0
    0.5085   62.4312   75.8531 H   0  0  0  0  0  0  0  0  0  0  0  0
   -1.1468   63.0934   75.6340 H   0  0  0  0  0  0  0  0  0  0  0  0
   -0.8830   61.3166   75.6340 H   0  0  0  0  0  0  0  0  0  0  0  0
   -1.8066   60.9191   73.7644 H   0  0  0  0  0  0  0  0  0  0  0  0
   -1.7676   62.1632   72.4692 H   0  0  0  0  0  0  0  0  0  0  0  0
   -0.5652   60.8286   72.4692 H   0  0  0  0  0  0  0  0  0  0  0  0
    0.1468   68.0087   69.2865 H   0  0  0  0  0  0  0  0  0  0  0  0
    2.1708   68.4728   70.6090 H   0  0  0  0  0  0  0  0  0  0  0  0
    1.8434   68.2764   67.1955 H   0  0  0  0  0  0  0  0  0  0  0  0
    2.1058   66.5293   67.4815 H   0  0  0  0  0  0  0  0  0  0  0  0
    0.2654   67.0744   65.9385 H   0  0  0  0  0  0  0  0  0  0  0  0
   -0.1911   66.1644   67.3763 H   0  0  0  0  0  0  0  0  0  0  0  0
   -0.9154   68.5574   68.0805 H   0  0  0  0  0  0  0  0  0  0  0  0
   -1.5212   69.8846   66.3815 H   0  0  0  0  0  0  0  0  0  0  0  0
   -0.3880   68.8947   65.4004 H   0  0  0  0  0  0  0  0  0  0  0  0
   -2.1436   68.5147   65.4004 H   0  0  0  0  0  0  0  0  0  0  0  0
   -2.4563   67.0244   68.5974 H   0  0  0  0  0  0  0  0  0  0  0  0
   -3.2229   67.5918   67.0753 H   0  0  0  0  0  0  0  0  0  0  0  0
   -2.2229   66.0996   67.0753 H   0  0  0  0  0  0  0  0  0  0  0  0
  2  1  2  0
  3  2  1  0
  4  3  2  0
  5  4  1  0
  6  5  2  0
  6  1  1  0
  7  1  1  0
  9  8  2  0
  9  7  1  0
 10  9  1  0
 11 10  1  0
 12 10  1  0
 13  6  1  0
 14 13  1  0
 15 14  2  0
 16 14  1  0
 17 16  1  0
 18 16  1  0
 19  3  1  0
 20 19  1  0
 21 19  1  0
 22 21  1  0
 23 22  1  0
 24 23  1  0
 25 23  1  0
  2 26  1  0
  4 27  1  0
  5 28  1  0
 11 29  1  0
 11 30  1  0
 11 31  1  0
 12 32  1  0
 12 33  1  0
 12 34  1  0
 17 35  1  0
 17 36  1  0
 17 37  1  0
 18 38  1  0
 18 39  1  0
 18 40  1  0
 19 41  1  6
 20 42  1  0
 21 43  1  0
 21 44  1  0
 22 45  1  0
 22 46  1  0
 23 47  1  0
 24 48  1  0
 24 49  1  0
 24 50  1  0
 25 51  1  0
 25 52  1  0
 25 53  1  0
M  CHG  1  22   1
M  END
>  <score>  (9) 
-7.09

$$$$
