=
     RDKit          3D

 55 59  0  0  0  0  0  0  0  0999 V2000
   -0.7700   68.4490   66.9770 C   0  0  0  0  0  0  0  0  0  0  0  0
    0.6430   68.5480   67.5800 C   0  0  0  0  0  0  0  0  0  0  0  0
    1.2600   67.1920   67.8770 C   0  0  0  0  0  0  0  0  0  0  0  0
    0.3870   66.3810   68.8330 N   0  0  0  0  0  4  0  0  0  0  0  0
   -1.0900   66.7100   68.7560 C   0  0  0  0  0  0  0  0  0  0  0  0
   -1.4690   67.1350   67.3520 C   0  0  0  0  0  0  0  0  0  0  0  0
    3.2500   68.8380   61.2850 Cl  0  0  0  0  0  0  0  0  0  0  0  0
    2.1190   68.7700   62.5800 C   0  0  0  0  0  0  0  0  0  0  0  0
    2.5840   68.5190   63.8890 C   0  0  0  0  0  0  0  0  0  0  0  0
    1.6950   68.4570   64.9710 C   0  0  0  0  0  0  0  0  0  0  0  0
    0.3570   68.6510   64.6990 C   0  0  0  0  0  0  0  0  0  0  0  0
   -0.0870   68.8990   63.3960 C   0  0  0  0  0  0  0  0  0  0  0  0
    0.7630   68.9650   62.3160 C   0  0  0  0  0  0  0  0  0  0  0  0
   -1.4670   69.0550   63.4270 N   0  0  0  0  0  0  0  0  0  0  0  0
   -1.9120   68.9090   64.7420 C   0  0  0  0  0  0  0  0  0  0  0  0
   -3.0650   68.9890   65.1330 O   0  0  0  0  0  0  0  0  0  0  0  0
   -0.7720   68.6540   65.5390 N   0  0  0  0  0  0  0  0  0  0  0  0
    0.9360   66.4050   70.2480 C   0  0  0  0  0  0  0  0  0  0  0  0
    0.3960   65.2780   71.1220 C   0  0  0  0  0  0  0  0  0  0  0  0
    0.4670   63.9050   70.4530 C   0  0  0  0  0  0  0  0  0  0  0  0
    1.2790   62.9940   71.2080 N   0  0  0  0  0  0  0  0  0  0  0  0
    0.7570   62.0200   72.0880 C   0  0  0  0  0  0  0  0  0  0  0  0
   -0.4200   61.8340   72.3460 O   0  0  0  0  0  0  0  0  0  0  0  0
    1.8500   61.2970   72.5780 N   0  0  0  0  0  0  0  0  0  0  0  0
    3.0150   61.7930   72.0010 C   0  0  0  0  0  0  0  0  0  0  0  0
    2.6700   62.8420   71.1440 C   0  0  0  0  0  0  0  0  0  0  0  0
    3.6240   63.5240   70.4210 C   0  0  0  0  0  0  0  0  0  0  0  0
    4.9560   63.1210   70.5860 C   0  0  0  0  0  0  0  0  0  0  0  0
    5.2960   62.0600   71.4530 C   0  0  0  0  0  0  0  0  0  0  0  0
    4.3130   61.3790   72.1790 C   0  0  0  0  0  0  0  0  0  0  0  0
   -1.3513   69.2693   67.4233 H   0  0  0  0  0  0  0  0  0  0  0  0
    1.2913   69.0792   66.8676 H   0  0  0  0  0  0  0  0  0  0  0  0
    0.5550   69.0850   68.5360 H   0  0  0  0  0  0  0  0  0  0  0  0
    1.3720   66.6354   66.9348 H   0  0  0  0  0  0  0  0  0  0  0  0
    2.2384   67.3531   68.3532 H   0  0  0  0  0  0  0  0  0  0  0  0
    0.4402   65.4055   68.5066 H   0  0  0  0  0  0  0  0  0  0  0  0
   -1.6736   65.8201   69.0343 H   0  0  0  0  0  0  0  0  0  0  0  0
   -1.3055   67.5379   69.4475 H   0  0  0  0  0  0  0  0  0  0  0  0
   -1.1671   66.3500   66.6430 H   0  0  0  0  0  0  0  0  0  0  0  0
   -2.5575   67.2883   67.3100 H   0  0  0  0  0  0  0  0  0  0  0  0
    3.6599   68.3699   64.0625 H   0  0  0  0  0  0  0  0  0  0  0  0
    2.0496   68.2619   65.9938 H   0  0  0  0  0  0  0  0  0  0  0  0
    0.3931   69.1610   61.2988 H   0  0  0  0  0  0  0  0  0  0  0  0
   -2.0655   69.2474   62.6111 H   0  0  0  0  0  0  0  0  0  0  0  0
    2.0313   66.3154   70.1994 H   0  0  0  0  0  0  0  0  0  0  0  0
    0.6185   67.3537   70.7054 H   0  0  0  0  0  0  0  0  0  0  0  0
    0.9843   65.2444   72.0509 H   0  0  0  0  0  0  0  0  0  0  0  0
   -0.6661   65.4932   71.3108 H   0  0  0  0  0  0  0  0  0  0  0  0
   -0.5501   63.4940   70.3714 H   0  0  0  0  0  0  0  0  0  0  0  0
    0.9201   64.0285   69.4583 H   0  0  0  0  0  0  0  0  0  0  0  0
    1.8003   60.5231   73.2559 H   0  0  0  0  0  0  0  0  0  0  0  0
    3.3524   64.3478   69.7446 H   0  0  0  0  0  0  0  0  0  0  0  0
    5.7505   63.6405   70.0302 H   0  0  0  0  0  0  0  0  0  0  0  0
    6.3501   61.7642   71.5593 H   0  0  0  0  0  0  0  0  0  0  0  0
    4.5668   60.5525   72.8591 H   0  0  0  0  0  0  0  0  0  0  0  0
  2  1  1  0
  3  2  1  0
  4  3  1  0
  5  4  1  0
  6  5  1  0
  6  1  1  0
  8  7  1  0
  9  8  2  0
 10  9  1  0
 11 10  2  0
 12 11  1  0
 13 12  2  0
 13  8  1  0
 14 12  1  0
 15 14  1  0
 16 15  2  0
 17 15  1  0
 17 11  1  0
 17  1  1  0
 18  4  1  0
 19 18  1  0
 20 19  1  0
 21 20  1  0
 22 21  1  0
 23 22  2  0
 24 22  1  0
 25 24  1  0
 26 25  2  0
 26 21  1  0
 27 26  1  0
 28 27  2  0
 29 28  1  0
 30 29  2  0
 30 25  1  0
  1 31  1  0
  2 32  1  0
  2 33  1  0
  3 34  1  0
  3 35  1  0
  4 36  1  0
  5 37  1  0
  5 38  1  0
  6 39  1  0
  6 40  1  0
  9 41  1  0
 10 42  1  0
 13 43  1  0
 14 44  1  0
 18 45  1  0
 18 46  1  0
 19 47  1  0
 19 48  1  0
 20 49  1  0
 20 50  1  0
 24 51  1  0
 27 52  1  0
 28 53  1  0
 29 54  1  0
 30 55  1  0
M  CHG  1   4   1
M  END
>  <score>  (1) 
-11.382

$$$$
=
     RDKit          3D

 55 59  0  0  0  0  0  0  0  0999 V2000
    2.3700   69.0910   66.1950 C   0  0  0  0  0  0  0  0  0  0  0  0
    1.8730   69.2870   67.6390 C   0  0  0  0  0  0  0  0  0  0  0  0
    1.8260   67.9930   68.4340 C   0  0  0  0  0  0  0  0  0  0  0  0
    0.9320   66.9570   67.7560 N   0  0  0  0  0  4  0  0  0  0  0  0
    0.8420   67.1020   66.2510 C   0  0  0  0  0  0  0  0  0  0  0  0
    2.1350   67.6600   65.6920 C   0  0  0  0  0  0  0  0  0  0  0  0
    8.0130   71.5410   69.4930 Cl  0  0  0  0  0  0  0  0  0  0  0  0
    6.7210   70.9330   68.5310 C   0  0  0  0  0  0  0  0  0  0  0  0
    5.4770   70.6620   69.1390 C   0  0  0  0  0  0  0  0  0  0  0  0
    4.4000   70.1680   68.3910 C   0  0  0  0  0  0  0  0  0  0  0  0
    4.6110   69.9610   67.0440 C   0  0  0  0  0  0  0  0  0  0  0  0
    5.8500   70.2360   66.4570 C   0  0  0  0  0  0  0  0  0  0  0  0
    6.9240   70.7210   67.1670 C   0  0  0  0  0  0  0  0  0  0  0  0
    5.7680   69.9370   65.1020 N   0  0  0  0  0  0  0  0  0  0  0  0
    4.4820   69.4730   64.8160 C   0  0  0  0  0  0  0  0  0  0  0  0
    4.0610   69.1250   63.7250 O   0  0  0  0  0  0  0  0  0  0  0  0
    3.7580   69.4850   66.0300 N   0  0  0  0  0  0  0  0  0  0  0  0
   -0.4240   66.8600   68.4330 C   0  0  0  0  0  0  0  0  0  0  0  0
   -0.4660   65.8230   69.5500 C   0  0  0  0  0  0  0  0  0  0  0  0
    0.7350   65.8980   70.4940 C   0  0  0  0  0  0  0  0  0  0  0  0
    1.0470   64.6140   71.0510 N   0  0  0  0  0  0  0  0  0  0  0  0
    0.4560   64.1020   72.2270 C   0  0  0  0  0  0  0  0  0  0  0  0
   -0.3600   64.6700   72.9320 O   0  0  0  0  0  0  0  0  0  0  0  0
    0.9690   62.8120   72.4040 N   0  0  0  0  0  0  0  0  0  0  0  0
    1.8350   62.5230   71.3540 C   0  0  0  0  0  0  0  0  0  0  0  0
    1.8850   63.6330   70.5050 C   0  0  0  0  0  0  0  0  0  0  0  0
    2.6600   63.6320   69.3670 C   0  0  0  0  0  0  0  0  0  0  0  0
    3.3980   62.4710   69.0990 C   0  0  0  0  0  0  0  0  0  0  0  0
    3.3410   61.3550   69.9610 C   0  0  0  0  0  0  0  0  0  0  0  0
    2.5480   61.3730   71.1130 C   0  0  0  0  0  0  0  0  0  0  0  0
    1.7652   69.7637   65.5691 H   0  0  0  0  0  0  0  0  0  0  0  0
    2.5498   69.9875   68.1501 H   0  0  0  0  0  0  0  0  0  0  0  0
    0.8451   69.6746   67.5823 H   0  0  0  0  0  0  0  0  0  0  0  0
    2.8448   67.5869   68.5180 H   0  0  0  0  0  0  0  0  0  0  0  0
    1.4108   68.2118   69.4289 H   0  0  0  0  0  0  0  0  0  0  0  0
    1.4008   66.0495   67.8887 H   0  0  0  0  0  0  0  0  0  0  0  0
    0.6503   66.1157   65.8034 H   0  0  0  0  0  0  0  0  0  0  0  0
    0.0224   67.7947   66.0093 H   0  0  0  0  0  0  0  0  0  0  0  0
    2.9720   67.0224   66.0127 H   0  0  0  0  0  0  0  0  0  0  0  0
    2.0676   67.6774   64.5942 H   0  0  0  0  0  0  0  0  0  0  0  0
    5.3506   70.8413   70.2169 H   0  0  0  0  0  0  0  0  0  0  0  0
    3.4274   69.9544   68.8584 H   0  0  0  0  0  0  0  0  0  0  0  0
    7.8905   70.9303   66.6853 H   0  0  0  0  0  0  0  0  0  0  0  0
    6.5321   70.0408   64.4192 H   0  0  0  0  0  0  0  0  0  0  0  0
   -0.6728   67.8430   68.8593 H   0  0  0  0  0  0  0  0  0  0  0  0
   -1.1490   66.5453   67.6680 H   0  0  0  0  0  0  0  0  0  0  0  0
   -1.3821   65.9809   70.1381 H   0  0  0  0  0  0  0  0  0  0  0  0
   -0.4433   64.8317   69.0738 H   0  0  0  0  0  0  0  0  0  0  0  0
    1.6073   66.2661   69.9340 H   0  0  0  0  0  0  0  0  0  0  0  0
    0.4830   66.5801   71.3194 H   0  0  0  0  0  0  0  0  0  0  0  0
    0.7423   62.1794   73.1846 H   0  0  0  0  0  0  0  0  0  0  0  0
    2.6983   64.5040   68.6976 H   0  0  0  0  0  0  0  0  0  0  0  0
    4.0325   62.4289   68.2014 H   0  0  0  0  0  0  0  0  0  0  0  0
    3.9296   60.4567   69.7231 H   0  0  0  0  0  0  0  0  0  0  0  0
    2.4975   60.5095   71.7925 H   0  0  0  0  0  0  0  0  0  0  0  0
  2  1  1  0
  3  2  1  0
  4  3  1  0
  5  4  1  0
  6  5  1  0
  6  1  1  0
  8  7  1  0
  9  8  2  0
 10  9  1  0
 11 10  2  0
 12 11  1  0
 13 12  2  0
 13  8  1  0
 14 12  1  0
 15 14  1  0
 16 15  2  0
 17 15  1  0
 17 11  1  0
 17  1  1  0
 18  4  1  0
 19 18  1  0
 20 19  1  0
 21 20  1  0
 22 21  1  0
 23 22  2  0
 24 22  1  0
 25 24  1  0
 26 25  2  0
 26 21  1  0
 27 26  1  0
 28 27  2  0
 29 28  1  0
 30 29  2  0
 30 25  1  0
  1 31  1  0
  2 32  1  0
  2 33  1  0
  3 34  1  0
  3 35  1  0
  4 36  1  0
  5 37  1  0
  5 38  1  0
  6 39  1  0
  6 40  1  0
  9 41  1  0
 10 42  1  0
 13 43  1  0
 14 44  1  0
 18 45  1  0
 18 46  1  0
 19 47  1  0
 19 48  1  0
 20 49  1  0
 20 50  1  0
 24 51  1  0
 27 52  1  0
 28 53  1  0
 29 54  1  0
 30 55  1  0
M  CHG  1   4   1
M  END
>  <score>  (2) 
-11.224

$$$$
=
     RDKit          3D

 55 59  0  0  0  0  0  0  0  0999 V2000
   -0.1000   68.5070   66.4400 C   0  0  0  0  0  0  0  0  0  0  0  0
    1.0460   68.4980   67.4670 C   0  0  0  0  0  0  0  0  0  0  0  0
    1.3650   67.1090   67.9920 C   0  0  0  0  0  0  0  0  0  0  0  0
    0.1400   66.4640   68.6370 N   0  0  0  0  0  4  0  0  0  0  0  0
   -1.1830   66.9400   68.0730 C   0  0  0  0  0  0  0  0  0  0  0  0
   -1.0380   67.3040   66.6090 C   0  0  0  0  0  0  0  0  0  0  0  0
    5.6010   69.0740   62.4550 Cl  0  0  0  0  0  0  0  0  0  0  0  0
    4.1000   68.9340   63.2860 C   0  0  0  0  0  0  0  0  0  0  0  0
    4.0980   68.8430   64.6940 C   0  0  0  0  0  0  0  0  0  0  0  0
    2.8970   68.7290   65.4070 C   0  0  0  0  0  0  0  0  0  0  0  0
    1.7290   68.7110   64.6760 C   0  0  0  0  0  0  0  0  0  0  0  0
    1.7490   68.8020   63.2810 C   0  0  0  0  0  0  0  0  0  0  0  0
    2.9120   68.9150   62.5540 C   0  0  0  0  0  0  0  0  0  0  0  0
    0.4380   68.7610   62.8210 N   0  0  0  0  0  0  0  0  0  0  0  0
   -0.4230   68.6440   63.9130 C   0  0  0  0  0  0  0  0  0  0  0  0
   -1.6420   68.5850   63.8750 O   0  0  0  0  0  0  0  0  0  0  0  0
    0.3820   68.6100   65.0740 N   0  0  0  0  0  0  0  0  0  0  0  0
    0.2060   66.5290   70.1520 C   0  0  0  0  0  0  0  0  0  0  0  0
    0.8860   65.3150   70.7770 C   0  0  0  0  0  0  0  0  0  0  0  0
    0.2450   63.9860   70.3740 C   0  0  0  0  0  0  0  0  0  0  0  0
    1.1220   62.8810   70.6300 N   0  0  0  0  0  0  0  0  0  0  0  0
    2.3780   62.7120   70.0060 C   0  0  0  0  0  0  0  0  0  0  0  0
    2.8720   63.4450   69.1660 O   0  0  0  0  0  0  0  0  0  0  0  0
    2.9490   61.5620   70.5600 N   0  0  0  0  0  0  0  0  0  0  0  0
    2.0830   61.0440   71.5180 C   0  0  0  0  0  0  0  0  0  0  0  0
    0.9490   61.8600   71.5730 C   0  0  0  0  0  0  0  0  0  0  0  0
   -0.0840   61.5960   72.4460 C   0  0  0  0  0  0  0  0  0  0  0  0
    0.0510   60.4730   73.2720 C   0  0  0  0  0  0  0  0  0  0  0  0
    1.2000   59.6550   73.2100 C   0  0  0  0  0  0  0  0  0  0  0  0
    2.2390   59.9380   72.3190 C   0  0  0  0  0  0  0  0  0  0  0  0
   -0.6874   69.4140   66.6459 H   0  0  0  0  0  0  0  0  0  0  0  0
    1.9481   68.9070   66.9885 H   0  0  0  0  0  0  0  0  0  0  0  0
    0.7226   69.1064   68.3245 H   0  0  0  0  0  0  0  0  0  0  0  0
    1.7032   66.4790   67.1561 H   0  0  0  0  0  0  0  0  0  0  0  0
    2.1521   67.1989   68.7552 H   0  0  0  0  0  0  0  0  0  0  0  0
    0.1755   65.4680   68.3769 H   0  0  0  0  0  0  0  0  0  0  0  0
   -1.9288   66.1378   68.1740 H   0  0  0  0  0  0  0  0  0  0  0  0
   -1.5060   67.8318   68.6301 H   0  0  0  0  0  0  0  0  0  0  0  0
   -0.6243   66.4438   66.0622 H   0  0  0  0  0  0  0  0  0  0  0  0
   -2.0285   67.5688   66.2104 H   0  0  0  0  0  0  0  0  0  0  0  0
    5.0528   68.8618   65.2398 H   0  0  0  0  0  0  0  0  0  0  0  0
    2.8870   68.6569   66.5046 H   0  0  0  0  0  0  0  0  0  0  0  0
    2.9055   68.9864   61.4563 H   0  0  0  0  0  0  0  0  0  0  0  0
    0.1487   68.8092   61.8336 H   0  0  0  0  0  0  0  0  0  0  0  0
    0.7674   67.4304   70.4390 H   0  0  0  0  0  0  0  0  0  0  0  0
   -0.8292   66.5508   70.5234 H   0  0  0  0  0  0  0  0  0  0  0  0
    1.9396   65.3041   70.4609 H   0  0  0  0  0  0  0  0  0  0  0  0
    0.7805   65.4091   71.8679 H   0  0  0  0  0  0  0  0  0  0  0  0
   -0.6822   63.8473   70.9494 H   0  0  0  0  0  0  0  0  0  0  0  0
    0.0349   64.0172   69.2947 H   0  0  0  0  0  0  0  0  0  0  0  0
    3.8626   61.1631   70.3009 H   0  0  0  0  0  0  0  0  0  0  0  0
   -0.9754   62.2389   72.4921 H   0  0  0  0  0  0  0  0  0  0  0  0
   -0.7521   60.2241   73.9813 H   0  0  0  0  0  0  0  0  0  0  0  0
    1.2788   58.7811   73.8734 H   0  0  0  0  0  0  0  0  0  0  0  0
    3.1378   59.3064   72.2616 H   0  0  0  0  0  0  0  0  0  0  0  0
  2  1  1  0
  3  2  1  0
  4  3  1  0
  5  4  1  0
  6  5  1  0
  6  1  1  0
  8  7  1  0
  9  8  2  0
 10  9  1  0
 11 10  2  0
 12 11  1  0
 13 12  2  0
 13  8  1  0
 14 12  1  0
 15 14  1  0
 16 15  2  0
 17 15  1  0
 17 11  1  0
 17  1  1  0
 18  4  1  0
 19 18  1  0
 20 19  1  0
 21 20  1  0
 22 21  1  0
 23 22  2  0
 24 22  1  0
 25 24  1  0
 26 25  2  0
 26 21  1  0
 27 26  1  0
 28 27  2  0
 29 28  1  0
 30 29  2  0
 30 25  1  0
  1 31  1  0
  2 32  1  0
  2 33  1  0
  3 34  1  0
  3 35  1  0
  4 36  1  0
  5 37  1  0
  5 38  1  0
  6 39  1  0
  6 40  1  0
  9 41  1  0
 10 42  1  0
 13 43  1  0
 14 44  1  0
 18 45  1  0
 18 46  1  0
 19 47  1  0
 19 48  1  0
 20 49  1  0
 20 50  1  0
 24 51  1  0
 27 52  1  0
 28 53  1  0
 29 54  1  0
 30 55  1  0
M  CHG  1   4   1
M  END
>  <score>  (3) 
-10.678

$$$$
=
     RDKit          3D

 55 59  0  0  0  0  0  0  0  0999 V2000
    1.9080   63.3700   72.3770 C   0  0  0  0  0  0  0  0  0  0  0  0
    0.4730   63.9050   72.2240 C   0  0  0  0  0  0  0  0  0  0  0  0
   -0.0110   63.9090   70.7840 C   0  0  0  0  0  0  0  0  0  0  0  0
    0.9090   64.7410   69.8910 N   0  0  0  0  0  4  0  0  0  0  0  0
    2.3460   64.8050   70.3670 C   0  0  0  0  0  0  0  0  0  0  0  0
    2.7250   63.5280   71.0880 C   0  0  0  0  0  0  0  0  0  0  0  0
    3.4990   56.7930   70.6660 Cl  0  0  0  0  0  0  0  0  0  0  0  0
    3.0590   58.3520   71.2490 C   0  0  0  0  0  0  0  0  0  0  0  0
    3.2170   59.4720   70.4060 C   0  0  0  0  0  0  0  0  0  0  0  0
    2.8700   60.7580   70.8430 C   0  0  0  0  0  0  0  0  0  0  0  0
    2.3720   60.8760   72.1230 C   0  0  0  0  0  0  0  0  0  0  0  0
    2.2220   59.7550   72.9450 C   0  0  0  0  0  0  0  0  0  0  0  0
    2.5540   58.4810   72.5430 C   0  0  0  0  0  0  0  0  0  0  0  0
    1.7020   60.1730   74.1640 N   0  0  0  0  0  0  0  0  0  0  0  0
    1.5160   61.5560   74.1280 C   0  0  0  0  0  0  0  0  0  0  0  0
    1.0720   62.2540   75.0260 O   0  0  0  0  0  0  0  0  0  0  0  0
    1.9380   61.9980   72.8540 N   0  0  0  0  0  0  0  0  0  0  0  0
    0.3130   66.1040   69.5900 C   0  0  0  0  0  0  0  0  0  0  0  0
    1.3650   67.1750   69.3220 C   0  0  0  0  0  0  0  0  0  0  0  0
    0.8850   68.2730   68.3720 C   0  0  0  0  0  0  0  0  0  0  0  0
    1.4130   68.0920   67.0510 N   0  0  0  0  0  0  0  0  0  0  0  0
    0.7510   67.3740   66.0300 C   0  0  0  0  0  0  0  0  0  0  0  0
   -0.3200   66.8000   66.1280 O   0  0  0  0  0  0  0  0  0  0  0  0
    1.5490   67.4770   64.8860 N   0  0  0  0  0  0  0  0  0  0  0  0
    2.6640   68.2570   65.1810 C   0  0  0  0  0  0  0  0  0  0  0  0
    2.5850   68.6480   66.5210 C   0  0  0  0  0  0  0  0  0  0  0  0
    3.5530   69.4420   67.0960 C   0  0  0  0  0  0  0  0  0  0  0  0
    4.6210   69.8360   66.2790 C   0  0  0  0  0  0  0  0  0  0  0  0
    4.6930   69.4360   64.9280 C   0  0  0  0  0  0  0  0  0  0  0  0
    3.7000   68.6310   64.3600 C   0  0  0  0  0  0  0  0  0  0  0  0
    2.3861   63.9925   73.1476 H   0  0  0  0  0  0  0  0  0  0  0  0
   -0.2020   63.2717   72.8185 H   0  0  0  0  0  0  0  0  0  0  0  0
    0.4728   64.9482   72.5730 H   0  0  0  0  0  0  0  0  0  0  0  0
   -0.0332   62.8746   70.4106 H   0  0  0  0  0  0  0  0  0  0  0  0
   -1.0165   64.3542   70.7570 H   0  0  0  0  0  0  0  0  0  0  0  0
    0.9680   64.2348   68.9959 H   0  0  0  0  0  0  0  0  0  0  0  0
    3.0086   64.9409   69.4996 H   0  0  0  0  0  0  0  0  0  0  0  0
    2.4523   65.6505   71.0626 H   0  0  0  0  0  0  0  0  0  0  0  0
    2.5291   62.6694   70.4288 H   0  0  0  0  0  0  0  0  0  0  0  0
    3.7926   63.5729   71.3492 H   0  0  0  0  0  0  0  0  0  0  0  0
    3.6183   59.3343   69.3911 H   0  0  0  0  0  0  0  0  0  0  0  0
    2.9901   61.6363   70.1917 H   0  0  0  0  0  0  0  0  0  0  0  0
    2.4280   57.6122   73.2058 H   0  0  0  0  0  0  0  0  0  0  0  0
    1.4884   59.5613   74.9646 H   0  0  0  0  0  0  0  0  0  0  0  0
   -0.3299   66.0158   68.7018 H   0  0  0  0  0  0  0  0  0  0  0  0
   -0.2520   66.4170   70.4804 H   0  0  0  0  0  0  0  0  0  0  0  0
    1.6420   67.6392   70.2800 H   0  0  0  0  0  0  0  0  0  0  0  0
    2.2190   66.6778   68.8388 H   0  0  0  0  0  0  0  0  0  0  0  0
   -0.2137   68.2494   68.3243 H   0  0  0  0  0  0  0  0  0  0  0  0
    1.2392   69.2411   68.7559 H   0  0  0  0  0  0  0  0  0  0  0  0
    1.3449   67.0457   63.9732 H   0  0  0  0  0  0  0  0  0  0  0  0
    3.4903   69.7527   68.1493 H   0  0  0  0  0  0  0  0  0  0  0  0
    5.4174   70.4684   66.6984 H   0  0  0  0  0  0  0  0  0  0  0  0
    5.5435   69.7623   64.3115 H   0  0  0  0  0  0  0  0  0  0  0  0
    3.7464   68.3131   63.3079 H   0  0  0  0  0  0  0  0  0  0  0  0
  2  1  1  0
  3  2  1  0
  4  3  1  0
  5  4  1  0
  6  5  1  0
  6  1  1  0
  8  7  1  0
  9  8  2  0
 10  9  1  0
 11 10  2  0
 12 11  1  0
 13 12  2  0
 13  8  1  0
 14 12  1  0
 15 14  1  0
 16 15  2  0
 17 15  1  0
 17 11  1  0
 17  1  1  0
 18  4  1  0
 19 18  1  0
 20 19  1  0
 21 20  1  0
 22 21  1  0
 23 22  2  0
 24 22  1  0
 25 24  1  0
 26 25  2  0
 26 21  1  0
 27 26  1  0
 28 27  2  0
 29 28  1  0
 30 29  2  0
 30 25  1  0
  1 31  1  0
  2 32  1  0
  2 33  1  0
  3 34  1  0
  3 35  1  0
  4 36  1  0
  5 37  1  0
  5 38  1  0
  6 39  1  0
  6 40  1  0
  9 41  1  0
 10 42  1  0
 13 43  1  0
 14 44  1  0
 18 45  1  0
 18 46  1  0
 19 47  1  0
 19 48  1  0
 20 49  1  0
 20 50  1  0
 24 51  1  0
 27 52  1  0
 28 53  1  0
 29 54  1  0
 30 55  1  0
M  CHG  1   4   1
M  END
>  <score>  (4) 
-10.672

$$$$
=
     RDKit          3D

 55 59  0  0  0  0  0  0  0  0999 V2000
    2.0920   62.4240   70.4840 C   0  0  0  0  0  0  0  0  0  0  0  0
    2.7270   63.7090   69.9250 C   0  0  0  0  0  0  0  0  0  0  0  0
    2.3220   64.9560   70.6920 C   0  0  0  0  0  0  0  0  0  0  0  0
    0.8050   65.1350   70.7000 N   0  0  0  0  0  4  0  0  0  0  0  0
    0.0260   63.8410   70.5940 C   0  0  0  0  0  0  0  0  0  0  0  0
    0.7890   62.7050   71.2440 C   0  0  0  0  0  0  0  0  0  0  0  0
    2.6420   57.2230   75.1060 Cl  0  0  0  0  0  0  0  0  0  0  0  0
    2.6850   58.5220   73.9770 C   0  0  0  0  0  0  0  0  0  0  0  0
    1.4810   58.9590   73.3850 C   0  0  0  0  0  0  0  0  0  0  0  0
    1.4730   60.0140   72.4620 C   0  0  0  0  0  0  0  0  0  0  0  0
    2.6850   60.5990   72.1630 C   0  0  0  0  0  0  0  0  0  0  0  0
    3.8690   60.1540   72.7600 C   0  0  0  0  0  0  0  0  0  0  0  0
    3.9060   59.1210   73.6690 C   0  0  0  0  0  0  0  0  0  0  0  0
    4.9190   60.9230   72.2760 N   0  0  0  0  0  0  0  0  0  0  0  0
    4.4170   61.8610   71.3720 C   0  0  0  0  0  0  0  0  0  0  0  0
    5.0600   62.7000   70.7620 O   0  0  0  0  0  0  0  0  0  0  0  0
    3.0200   61.6580   71.2980 N   0  0  0  0  0  0  0  0  0  0  0  0
    0.3620   66.1890   69.7010 C   0  0  0  0  0  0  0  0  0  0  0  0
    1.4860   67.1300   69.2800 C   0  0  0  0  0  0  0  0  0  0  0  0
    1.0150   68.2710   68.3770 C   0  0  0  0  0  0  0  0  0  0  0  0
    1.5120   68.1220   67.0400 N   0  0  0  0  0  0  0  0  0  0  0  0
    0.8240   67.4300   66.0180 C   0  0  0  0  0  0  0  0  0  0  0  0
   -0.2460   66.8560   66.1270 O   0  0  0  0  0  0  0  0  0  0  0  0
    1.5950   67.5610   64.8580 N   0  0  0  0  0  0  0  0  0  0  0  0
    2.7180   68.3300   65.1460 C   0  0  0  0  0  0  0  0  0  0  0  0
    2.6720   68.6890   66.4970 C   0  0  0  0  0  0  0  0  0  0  0  0
    3.6550   69.4660   67.0680 C   0  0  0  0  0  0  0  0  0  0  0  0
    4.7040   69.8780   66.2360 C   0  0  0  0  0  0  0  0  0  0  0  0
    4.7440   69.5120   64.8730 C   0  0  0  0  0  0  0  0  0  0  0  0
    3.7360   68.7230   64.3100 C   0  0  0  0  0  0  0  0  0  0  0  0
    1.8369   61.8049   69.6113 H   0  0  0  0  0  0  0  0  0  0  0  0
    3.8213   63.6083   69.9731 H   0  0  0  0  0  0  0  0  0  0  0  0
    2.3696   63.8289   68.8916 H   0  0  0  0  0  0  0  0  0  0  0  0
    2.6781   64.8700   71.7292 H   0  0  0  0  0  0  0  0  0  0  0  0
    2.7718   65.8293   70.1970 H   0  0  0  0  0  0  0  0  0  0  0  0
    0.5662   65.4898   71.6370 H   0  0  0  0  0  0  0  0  0  0  0  0
   -0.9440   63.9605   71.0988 H   0  0  0  0  0  0  0  0  0  0  0  0
   -0.1253   63.6040   69.5305 H   0  0  0  0  0  0  0  0  0  0  0  0
    1.0280   62.9778   72.2825 H   0  0  0  0  0  0  0  0  0  0  0  0
    0.1639   61.8001   71.2221 H   0  0  0  0  0  0  0  0  0  0  0  0
    0.5352   58.4647   73.6516 H   0  0  0  0  0  0  0  0  0  0  0  0
    0.5389   60.3606   71.9958 H   0  0  0  0  0  0  0  0  0  0  0  0
    4.8480   58.7861   74.1277 H   0  0  0  0  0  0  0  0  0  0  0  0
    5.9087   60.8183   72.5412 H   0  0  0  0  0  0  0  0  0  0  0  0
   -0.0224   65.6808   68.8044 H   0  0  0  0  0  0  0  0  0  0  0  0
   -0.4088   66.8008   70.1925 H   0  0  0  0  0  0  0  0  0  0  0  0
    1.9350   67.5642   70.1854 H   0  0  0  0  0  0  0  0  0  0  0  0
    2.2089   66.5353   68.7024 H   0  0  0  0  0  0  0  0  0  0  0  0
   -0.0847   68.2758   68.3512 H   0  0  0  0  0  0  0  0  0  0  0  0
    1.4010   69.2166   68.7855 H   0  0  0  0  0  0  0  0  0  0  0  0
    1.3680   67.1540   63.9395 H   0  0  0  0  0  0  0  0  0  0  0  0
    3.6182   69.7505   68.1299 H   0  0  0  0  0  0  0  0  0  0  0  0
    5.5115   70.4982   66.6523 H   0  0  0  0  0  0  0  0  0  0  0  0
    5.5803   69.8525   64.2447 H   0  0  0  0  0  0  0  0  0  0  0  0
    3.7567   68.4310   63.2497 H   0  0  0  0  0  0  0  0  0  0  0  0
  2  1  1  0
  3  2  1  0
  4  3  1  0
  5  4  1  0
  6  5  1  0
  6  1  1  0
  8  7  1  0
  9  8  2  0
 10  9  1  0
 11 10  2  0
 12 11  1  0
 13 12  2  0
 13  8  1  0
 14 12  1  0
 15 14  1  0
 16 15  2  0
 17 15  1  0
 17 11  1  0
 17  1  1  0
 18  4  1  0
 19 18  1  0
 20 19  1  0
 21 20  1  0
 22 21  1  0
 23 22  2  0
 24 22  1  0
 25 24  1  0
 26 25  2  0
 26 21  1  0
 27 26  1  0
 28 27  2  0
 29 28  1  0
 30 29  2  0
 30 25  1  0
  1 31  1  0
  2 32  1  0
  2 33  1  0
  3 34  1  0
  3 35  1  0
  4 36  1  0
  5 37  1  0
  5 38  1  0
  6 39  1  0
  6 40  1  0
  9 41  1  0
 10 42  1  0
 13 43  1  0
 14 44  1  0
 18 45  1  0
 18 46  1  0
 19 47  1  0
 19 48  1  0
 20 49  1  0
 20 50  1  0
 24 51  1  0
 27 52  1  0
 28 53  1  0
 29 54  1  0
 30 55  1  0
M  CHG  1   4   1
M  END
>  <score>  (5) 
-10.563

$$$$
=
     RDKit          3D

 55 59  0  0  0  0  0  0  0  0999 V2000
    2.6670   67.7170   65.9580 C   0  0  0  0  0  0  0  0  0  0  0  0
    1.5850   66.6410   66.1610 C   0  0  0  0  0  0  0  0  0  0  0  0
    0.2440   67.2170   66.5820 C   0  0  0  0  0  0  0  0  0  0  0  0
    0.3660   68.0220   67.8750 N   0  0  0  0  0  4  0  0  0  0  0  0
    1.7300   68.6430   68.0930 C   0  0  0  0  0  0  0  0  0  0  0  0
    2.3770   68.9890   66.7670 C   0  0  0  0  0  0  0  0  0  0  0  0
   -0.3530   70.0700   60.1220 Cl  0  0  0  0  0  0  0  0  0  0  0  0
    0.5430   69.4760   61.4670 C   0  0  0  0  0  0  0  0  0  0  0  0
   -0.0980   69.3410   62.7160 C   0  0  0  0  0  0  0  0  0  0  0  0
    0.5960   68.8590   63.8350 C   0  0  0  0  0  0  0  0  0  0  0  0
    1.9220   68.5270   63.6580 C   0  0  0  0  0  0  0  0  0  0  0  0
    2.5420   68.6660   62.4130 C   0  0  0  0  0  0  0  0  0  0  0  0
    1.8850   69.1360   61.2980 C   0  0  0  0  0  0  0  0  0  0  0  0
    3.8640   68.2570   62.5330 N   0  0  0  0  0  0  0  0  0  0  0  0
    4.0970   67.8540   63.8500 C   0  0  0  0  0  0  0  0  0  0  0  0
    5.1470   67.4320   64.3070 O   0  0  0  0  0  0  0  0  0  0  0  0
    2.8840   68.0250   64.5560 N   0  0  0  0  0  0  0  0  0  0  0  0
   -0.1360   67.2360   69.0730 C   0  0  0  0  0  0  0  0  0  0  0  0
    0.9100   66.2900   69.6530 C   0  0  0  0  0  0  0  0  0  0  0  0
    0.3840   64.8720   69.8820 C   0  0  0  0  0  0  0  0  0  0  0  0
    1.1880   64.1610   70.8340 N   0  0  0  0  0  0  0  0  0  0  0  0
    0.8200   63.9640   72.1830 C   0  0  0  0  0  0  0  0  0  0  0  0
   -0.1910   64.3790   72.7250 O   0  0  0  0  0  0  0  0  0  0  0  0
    1.8230   63.1790   72.7610 N   0  0  0  0  0  0  0  0  0  0  0  0
    2.7760   62.8780   71.7920 C   0  0  0  0  0  0  0  0  0  0  0  0
    2.3860   63.4780   70.5910 C   0  0  0  0  0  0  0  0  0  0  0  0
    3.1370   63.3420   69.4440 C   0  0  0  0  0  0  0  0  0  0  0  0
    4.3090   62.5800   69.5370 C   0  0  0  0  0  0  0  0  0  0  0  0
    4.6950   61.9780   70.7530 C   0  0  0  0  0  0  0  0  0  0  0  0
    3.9200   62.1250   71.9080 C   0  0  0  0  0  0  0  0  0  0  0  0
    3.6024   67.2863   66.3447 H   0  0  0  0  0  0  0  0  0  0  0  0
    1.4507   66.0966   65.2147 H   0  0  0  0  0  0  0  0  0  0  0  0
    1.9272   65.9802   66.9711 H   0  0  0  0  0  0  0  0  0  0  0  0
   -0.1294   67.8755   65.7839 H   0  0  0  0  0  0  0  0  0  0  0  0
   -0.4521   66.3834   66.7568 H   0  0  0  0  0  0  0  0  0  0  0  0
   -0.2600   68.8324   67.7641 H   0  0  0  0  0  0  0  0  0  0  0  0
    1.6185   69.5596   68.6908 H   0  0  0  0  0  0  0  0  0  0  0  0
    2.3686   67.9195   68.6209 H   0  0  0  0  0  0  0  0  0  0  0  0
    1.6985   69.6362   66.1919 H   0  0  0  0  0  0  0  0  0  0  0  0
    3.3264   69.5094   66.9612 H   0  0  0  0  0  0  0  0  0  0  0  0
   -1.1581   69.6179   62.8138 H   0  0  0  0  0  0  0  0  0  0  0  0
    0.1032   68.7505   64.8124 H   0  0  0  0  0  0  0  0  0  0  0  0
    2.3911   69.2378   60.3267 H   0  0  0  0  0  0  0  0  0  0  0  0
    4.5599   68.2517   61.7737 H   0  0  0  0  0  0  0  0  0  0  0  0
   -0.4367   67.9472   69.8565 H   0  0  0  0  0  0  0  0  0  0  0  0
   -0.9791   66.6190   68.7287 H   0  0  0  0  0  0  0  0  0  0  0  0
    1.7592   66.2388   68.9556 H   0  0  0  0  0  0  0  0  0  0  0  0
    1.2027   66.6910   70.6346 H   0  0  0  0  0  0  0  0  0  0  0  0
   -0.6481   64.9299   70.2580 H   0  0  0  0  0  0  0  0  0  0  0  0
    0.4220   64.3308   68.9251 H   0  0  0  0  0  0  0  0  0  0  0  0
    1.8518   62.8732   73.7441 H   0  0  0  0  0  0  0  0  0  0  0  0
    2.8301   63.8108   68.4974 H   0  0  0  0  0  0  0  0  0  0  0  0
    4.9398   62.4487   68.6454 H   0  0  0  0  0  0  0  0  0  0  0  0
    5.6198   61.3838   70.7934 H   0  0  0  0  0  0  0  0  0  0  0  0
    4.2115   61.6610   72.8618 H   0  0  0  0  0  0  0  0  0  0  0  0
  2  1  1  0
  3  2  1  0
  4  3  1  0
  5  4  1  0
  6  5  1  0
  6  1  1  0
  8  7  1  0
  9  8  2  0
 10  9  1  0
 11 10  2  0
 12 11  1  0
 13 12  2  0
 13  8  1  0
 14 12  1  0
 15 14  1  0
 16 15  2  0
 17 15  1  0
 17 11  1  0
 17  1  1  0
 18  4  1  0
 19 18  1  0
 20 19  1  0
 21 20  1  0
 22 21  1  0
 23 22  2  0
 24 22  1  0
 25 24  1  0
 26 25  2  0
 26 21  1  0
 27 26  1  0
 28 27  2  0
 29 28  1  0
 30 29  2  0
 30 25  1  0
  1 31  1  0
  2 32  1  0
  2 33  1  0
  3 34  1  0
  3 35  1  0
  4 36  1  0
  5 37  1  0
  5 38  1  0
  6 39  1  0
  6 40  1  0
  9 41  1  0
 10 42  1  0
 13 43  1  0
 14 44  1  0
 18 45  1  0
 18 46  1  0
 19 47  1  0
 19 48  1  0
 20 49  1  0
 20 50  1  0
 24 51  1  0
 27 52  1  0
 28 53  1  0
 29 54  1  0
 30 55  1  0
M  CHG  1   4   1
M  END
>  <score>  (6) 
-9.764

$$$$
=
     RDKit          3D

 55 59  0  0  0  0  0  0  0  0999 V2000
    1.5810   59.0950   73.8000 C   0  0  0  0  0  0  0  0  0  0  0  0
    1.6430   59.3230   72.2790 C   0  0  0  0  0  0  0  0  0  0  0  0
    2.8200   58.6240   71.6200 C   0  0  0  0  0  0  0  0  0  0  0  0
    4.1460   59.0780   72.2270 N   0  0  0  0  0  4  0  0  0  0  0  0
    4.0490   59.5260   73.6710 C   0  0  0  0  0  0  0  0  0  0  0  0
    2.9570   58.7620   74.3930 C   0  0  0  0  0  0  0  0  0  0  0  0
    0.3610   52.2440   74.3380 Cl  0  0  0  0  0  0  0  0  0  0  0  0
    0.4950   53.9580   74.2670 C   0  0  0  0  0  0  0  0  0  0  0  0
    1.7090   54.5370   73.8400 C   0  0  0  0  0  0  0  0  0  0  0  0
    1.8590   55.9290   73.7670 C   0  0  0  0  0  0  0  0  0  0  0  0
    0.7740   56.6990   74.1290 C   0  0  0  0  0  0  0  0  0  0  0  0
   -0.4220   56.1090   74.5500 C   0  0  0  0  0  0  0  0  0  0  0  0
   -0.5970   54.7460   74.6310 C   0  0  0  0  0  0  0  0  0  0  0  0
   -1.3290   57.1200   74.8440 N   0  0  0  0  0  0  0  0  0  0  0  0
   -0.7220   58.3560   74.6130 C   0  0  0  0  0  0  0  0  0  0  0  0
   -1.2300   59.4550   74.7650 O   0  0  0  0  0  0  0  0  0  0  0  0
    0.5940   58.0950   74.1690 N   0  0  0  0  0  0  0  0  0  0  0  0
    4.8570   60.0790   71.3340 C   0  0  0  0  0  0  0  0  0  0  0  0
    5.1610   61.4000   72.0320 C   0  0  0  0  0  0  0  0  0  0  0  0
    4.8560   62.6260   71.1700 C   0  0  0  0  0  0  0  0  0  0  0  0
    3.4510   62.7530   70.9140 N   0  0  0  0  0  0  0  0  0  0  0  0
    2.8850   62.7620   69.6200 C   0  0  0  0  0  0  0  0  0  0  0  0
    3.4910   62.6910   68.5650 O   0  0  0  0  0  0  0  0  0  0  0  0
    1.4980   62.8370   69.7910 N   0  0  0  0  0  0  0  0  0  0  0  0
    1.2100   62.8510   71.1520 C   0  0  0  0  0  0  0  0  0  0  0  0
    2.4160   62.7920   71.8570 C   0  0  0  0  0  0  0  0  0  0  0  0
    2.4430   62.7810   73.2350 C   0  0  0  0  0  0  0  0  0  0  0  0
    1.2090   62.8340   73.8960 C   0  0  0  0  0  0  0  0  0  0  0  0
   -0.0040   62.8940   73.1760 C   0  0  0  0  0  0  0  0  0  0  0  0
   -0.0120   62.9030   71.7780 C   0  0  0  0  0  0  0  0  0  0  0  0
    1.2564   60.0501   74.2387 H   0  0  0  0  0  0  0  0  0  0  0  0
    0.7136   58.9430   71.8297 H   0  0  0  0  0  0  0  0  0  0  0  0
    1.7681   60.4033   72.1137 H   0  0  0  0  0  0  0  0  0  0  0  0
    2.7154   57.5379   71.7593 H   0  0  0  0  0  0  0  0  0  0  0  0
    2.8218   58.8809   70.5504 H   0  0  0  0  0  0  0  0  0  0  0  0
    4.7391   58.2369   72.2685 H   0  0  0  0  0  0  0  0  0  0  0  0
    5.0109   59.3424   74.1721 H   0  0  0  0  0  0  0  0  0  0  0  0
    3.8070   60.5988   73.6946 H   0  0  0  0  0  0  0  0  0  0  0  0
    3.1430   57.6827   74.2908 H   0  0  0  0  0  0  0  0  0  0  0  0
    2.9648   59.0510   75.4543 H   0  0  0  0  0  0  0  0  0  0  0  0
    2.5505   53.8862   73.5601 H   0  0  0  0  0  0  0  0  0  0  0  0
    2.8022   56.3874   73.4350 H   0  0  0  0  0  0  0  0  0  0  0  0
   -1.5466   54.3022   74.9647 H   0  0  0  0  0  0  0  0  0  0  0  0
   -2.2932   56.9802   75.1783 H   0  0  0  0  0  0  0  0  0  0  0  0
    5.8058   59.6351   70.9981 H   0  0  0  0  0  0  0  0  0  0  0  0
    4.1834   60.3020   70.4935 H   0  0  0  0  0  0  0  0  0  0  0  0
    4.5547   61.4581   72.9480 H   0  0  0  0  0  0  0  0  0  0  0  0
    6.2398   61.4136   72.2463 H   0  0  0  0  0  0  0  0  0  0  0  0
    5.2066   63.5274   71.6940 H   0  0  0  0  0  0  0  0  0  0  0  0
    5.3727   62.5070   70.2062 H   0  0  0  0  0  0  0  0  0  0  0  0
    0.8028   62.8756   69.0319 H   0  0  0  0  0  0  0  0  0  0  0  0
    3.3910   62.7328   73.7908 H   0  0  0  0  0  0  0  0  0  0  0  0
    1.1847   62.8288   74.9957 H   0  0  0  0  0  0  0  0  0  0  0  0
   -0.9573   62.9343   73.7233 H   0  0  0  0  0  0  0  0  0  0  0  0
   -0.9510   62.9495   71.2069 H   0  0  0  0  0  0  0  0  0  0  0  0
  2  1  1  0
  3  2  1  0
  4  3  1  0
  5  4  1  0
  6  5  1  0
  6  1  1  0
  8  7  1  0
  9  8  2  0
 10  9  1  0
 11 10  2  0
 12 11  1  0
 13 12  2  0
 13  8  1  0
 14 12  1  0
 15 14  1  0
 16 15  2  0
 17 15  1  0
 17 11  1  0
 17  1  1  0
 18  4  1  0
 19 18  1  0
 20 19  1  0
 21 20  1  0
 22 21  1  0
 23 22  2  0
 24 22  1  0
 25 24  1  0
 26 25  2  0
 26 21  1  0
 27 26  1  0
 28 27  2  0
 29 28  1  0
 30 29  2  0
 30 25  1  0
  1 31  1  0
  2 32  1  0
  2 33  1  0
  3 34  1  0
  3 35  1  0
  4 36  1  0
  5 37  1  0
  5 38  1  0
  6 39  1  0
  6 40  1  0
  9 41  1  0
 10 42  1  0
 13 43  1  0
 14 44  1  0
 18 45  1  0
 18 46  1  0
 19 47  1  0
 19 48  1  0
 20 49  1  0
 20 50  1  0
 24 51  1  0
 27 52  1  0
 28 53  1  0
 29 54  1  0
 30 55  1  0
M  CHG  1   4   1
M  END
>  <score>  (7) 
-9.579

$$$$
=
     RDKit          3D

 55 59  0  0  0  0  0  0  0  0999 V2000
    4.0380   59.5620   72.5250 C   0  0  0  0  0  0  0  0  0  0  0  0
    3.3070   58.4900   71.6970 C   0  0  0  0  0  0  0  0  0  0  0  0
    1.8730   58.2670   72.1460 C   0  0  0  0  0  0  0  0  0  0  0  0
    1.8070   57.8640   73.6180 N   0  0  0  0  0  4  0  0  0  0  0  0
    2.9500   58.3940   74.4590 C   0  0  0  0  0  0  0  0  0  0  0  0
    3.4310   59.7270   73.9240 C   0  0  0  0  0  0  0  0  0  0  0  0
    0.4910   65.3230   70.8080 Cl  0  0  0  0  0  0  0  0  0  0  0  0
    1.5050   63.9740   71.1460 C   0  0  0  0  0  0  0  0  0  0  0  0
    0.9960   62.9020   71.9090 C   0  0  0  0  0  0  0  0  0  0  0  0
    1.7890   61.7850   72.2040 C   0  0  0  0  0  0  0  0  0  0  0  0
    3.0800   61.7830   71.7190 C   0  0  0  0  0  0  0  0  0  0  0  0
    3.5690   62.8540   70.9640 C   0  0  0  0  0  0  0  0  0  0  0  0
    2.8130   63.9620   70.6590 C   0  0  0  0  0  0  0  0  0  0  0  0
    4.8840   62.5770   70.6130 N   0  0  0  0  0  0  0  0  0  0  0  0
    5.2420   61.3330   71.1380 C   0  0  0  0  0  0  0  0  0  0  0  0
    6.3220   60.7770   71.0190 O   0  0  0  0  0  0  0  0  0  0  0  0
    4.1160   60.8370   71.8320 N   0  0  0  0  0  0  0  0  0  0  0  0
    1.5830   56.3710   73.7790 C   0  0  0  0  0  0  0  0  0  0  0  0
    0.1960   56.0250   74.3100 C   0  0  0  0  0  0  0  0  0  0  0  0
   -0.1730   56.7860   75.5840 C   0  0  0  0  0  0  0  0  0  0  0  0
   -1.4560   57.4170   75.4670 N   0  0  0  0  0  0  0  0  0  0  0  0
   -2.6440   56.8910   76.0210 C   0  0  0  0  0  0  0  0  0  0  0  0
   -2.7540   55.8450   76.6370 O   0  0  0  0  0  0  0  0  0  0  0  0
   -3.6560   57.8190   75.7480 N   0  0  0  0  0  0  0  0  0  0  0  0
   -3.1070   58.8990   75.0650 C   0  0  0  0  0  0  0  0  0  0  0  0
   -1.7400   58.6620   74.8920 C   0  0  0  0  0  0  0  0  0  0  0  0
   -0.9280   59.5730   74.2520 C   0  0  0  0  0  0  0  0  0  0  0  0
   -1.5340   60.7440   73.7800 C   0  0  0  0  0  0  0  0  0  0  0  0
   -2.9150   60.9760   73.9600 C   0  0  0  0  0  0  0  0  0  0  0  0
   -3.7240   60.0410   74.6130 C   0  0  0  0  0  0  0  0  0  0  0  0
    5.0680   59.1983   72.6546 H   0  0  0  0  0  0  0  0  0  0  0  0
    3.2990   58.8062   70.6435 H   0  0  0  0  0  0  0  0  0  0  0  0
    3.8465   57.5418   71.8377 H   0  0  0  0  0  0  0  0  0  0  0  0
    1.3044   59.1979   72.0038 H   0  0  0  0  0  0  0  0  0  0  0  0
    1.4441   57.4523   71.5441 H   0  0  0  0  0  0  0  0  0  0  0  0
    0.9769   58.3359   74.0040 H   0  0  0  0  0  0  0  0  0  0  0  0
    2.6064   58.5232   75.4960 H   0  0  0  0  0  0  0  0  0  0  0  0
    3.7818   57.6752   74.4209 H   0  0  0  0  0  0  0  0  0  0  0  0
    2.5804   60.4223   73.8689 H   0  0  0  0  0  0  0  0  0  0  0  0
    4.2033   60.1220   74.6005 H   0  0  0  0  0  0  0  0  0  0  0  0
   -0.0394   62.9437   72.2780 H   0  0  0  0  0  0  0  0  0  0  0  0
    1.3983   60.9452   72.7974 H   0  0  0  0  0  0  0  0  0  0  0  0
    3.2175   64.7937   70.0634 H   0  0  0  0  0  0  0  0  0  0  0  0
    5.4962   63.1898   70.0557 H   0  0  0  0  0  0  0  0  0  0  0  0
    1.7115   55.8905   72.7979 H   0  0  0  0  0  0  0  0  0  0  0  0
    2.3147   56.0085   74.5160 H   0  0  0  0  0  0  0  0  0  0  0  0
   -0.5448   56.2653   73.5332 H   0  0  0  0  0  0  0  0  0  0  0  0
    0.2020   54.9541   74.5613 H   0  0  0  0  0  0  0  0  0  0  0  0
   -0.1974   56.0803   76.4274 H   0  0  0  0  0  0  0  0  0  0  0  0
    0.5824   57.5683   75.7495 H   0  0  0  0  0  0  0  0  0  0  0  0
   -4.6469   57.7182   76.0105 H   0  0  0  0  0  0  0  0  0  0  0  0
    0.1481   59.3887   74.1178 H   0  0  0  0  0  0  0  0  0  0  0  0
   -0.9231   61.4965   73.2597 H   0  0  0  0  0  0  0  0  0  0  0  0
   -3.3615   61.9069   73.5806 H   0  0  0  0  0  0  0  0  0  0  0  0
   -4.8011   60.2110   74.7578 H   0  0  0  0  0  0  0  0  0  0  0  0
  2  1  1  0
  3  2  1  0
  4  3  1  0
  5  4  1  0
  6  5  1  0
  6  1  1  0
  8  7  1  0
  9  8  2  0
 10  9  1  0
 11 10  2  0
 12 11  1  0
 13 12  2  0
 13  8  1  0
 14 12  1  0
 15 14  1  0
 16 15  2  0
 17 15  1  0
 17 11  1  0
 17  1  1  0
 18  4  1  0
 19 18  1  0
 20 19  1  0
 21 20  1  0
 22 21  1  0
 23 22  2  0
 24 22  1  0
 25 24  1  0
 26 25  2  0
 26 21  1  0
 27 26  1  0
 28 27  2  0
 29 28  1  0
 30 29  2  0
 30 25  1  0
  1 31  1  0
  2 32  1  0
  2 33  1  0
  3 34  1  0
  3 35  1  0
  4 36  1  0
  5 37  1  0
  5 38  1  0
  6 39  1  0
  6 40  1  0
  9 41  1  0
 10 42  1  0
 13 43  1  0
 14 44  1  0
 18 45  1  0
 18 46  1  0
 19 47  1  0
 19 48  1  0
 20 49  1  0
 20 50  1  0
 24 51  1  0
 27 52  1  0
 28 53  1  0
 29 54  1  0
 30 55  1  0
M  CHG  1   4   1
M  END
>  <score>  (8) 
-9.235

$$$$
=
     RDKit          3D

 55 59  0  0  0  0  0  0  0  0999 V2000
    2.0740   60.1130   72.8410 C   0  0  0  0  0  0  0  0  0  0  0  0
    2.5780   60.2450   74.2890 C   0  0  0  0  0  0  0  0  0  0  0  0
    3.6790   59.2560   74.6290 C   0  0  0  0  0  0  0  0  0  0  0  0
    3.2190   57.8160   74.4120 N   0  0  0  0  0  4  0  0  0  0  0  0
    2.1530   57.6570   73.3480 C   0  0  0  0  0  0  0  0  0  0  0  0
    2.3160   58.7090   72.2700 C   0  0  0  0  0  0  0  0  0  0  0  0
    0.8740   66.3480   69.9440 Cl  0  0  0  0  0  0  0  0  0  0  0  0
    1.3280   64.8130   70.5750 C   0  0  0  0  0  0  0  0  0  0  0  0
    0.4470   64.1380   71.4460 C   0  0  0  0  0  0  0  0  0  0  0  0
    0.7800   62.8850   71.9810 C   0  0  0  0  0  0  0  0  0  0  0  0
    1.9970   62.3490   71.6190 C   0  0  0  0  0  0  0  0  0  0  0  0
    2.8580   63.0310   70.7540 C   0  0  0  0  0  0  0  0  0  0  0  0
    2.5580   64.2610   70.2140 C   0  0  0  0  0  0  0  0  0  0  0  0
    3.9960   62.2560   70.5680 N   0  0  0  0  0  0  0  0  0  0  0  0
    3.8700   61.0790   71.3090 C   0  0  0  0  0  0  0  0  0  0  0  0
    4.6820   60.1700   71.3740 O   0  0  0  0  0  0  0  0  0  0  0  0
    2.6220   61.1370   71.9690 N   0  0  0  0  0  0  0  0  0  0  0  0
    2.8660   57.1380   75.7240 C   0  0  0  0  0  0  0  0  0  0  0  0
    1.4170   56.6650   75.7860 C   0  0  0  0  0  0  0  0  0  0  0  0
    1.2510   55.3090   76.4740 C   0  0  0  0  0  0  0  0  0  0  0  0
    0.7460   54.3190   75.5680 N   0  0  0  0  0  0  0  0  0  0  0  0
    1.4820   53.8010   74.4790 C   0  0  0  0  0  0  0  0  0  0  0  0
    2.6080   54.1290   74.1460 O   0  0  0  0  0  0  0  0  0  0  0  0
    0.6790   52.8230   73.8820 N   0  0  0  0  0  0  0  0  0  0  0  0
   -0.5120   52.7200   74.5940 C   0  0  0  0  0  0  0  0  0  0  0  0
   -0.4770   53.6400   75.6470 C   0  0  0  0  0  0  0  0  0  0  0  0
   -1.5240   53.7580   76.5340 C   0  0  0  0  0  0  0  0  0  0  0  0
   -2.6270   52.9170   76.3320 C   0  0  0  0  0  0  0  0  0  0  0  0
   -2.6540   51.9910   75.2670 C   0  0  0  0  0  0  0  0  0  0  0  0
   -1.5810   51.8850   74.3760 C   0  0  0  0  0  0  0  0  0  0  0  0
    0.9859   60.2693   72.8807 H   0  0  0  0  0  0  0  0  0  0  0  0
    2.9661   61.2641   74.4331 H   0  0  0  0  0  0  0  0  0  0  0  0
    1.7278   60.0304   74.9531 H   0  0  0  0  0  0  0  0  0  0  0  0
    4.5497   59.4545   73.9867 H   0  0  0  0  0  0  0  0  0  0  0  0
    3.9412   59.3802   75.6900 H   0  0  0  0  0  0  0  0  0  0  0  0
    4.0312   57.3155   74.0238 H   0  0  0  0  0  0  0  0  0  0  0  0
    2.2402   56.6584   72.8950 H   0  0  0  0  0  0  0  0  0  0  0  0
    1.1644   57.7774   73.8151 H   0  0  0  0  0  0  0  0  0  0  0  0
    3.3371   58.6552   71.8644 H   0  0  0  0  0  0  0  0  0  0  0  0
    1.5793   58.5185   71.4757 H   0  0  0  0  0  0  0  0  0  0  0  0
   -0.5153   64.6013   71.7094 H   0  0  0  0  0  0  0  0  0  0  0  0
    0.0986   62.3526   72.6608 H   0  0  0  0  0  0  0  0  0  0  0  0
    3.2500   64.7806   69.5349 H   0  0  0  0  0  0  0  0  0  0  0  0
    4.8022   62.5087   69.9789 H   0  0  0  0  0  0  0  0  0  0  0  0
    3.5241   56.2664   75.8551 H   0  0  0  0  0  0  0  0  0  0  0  0
    3.0011   57.8821   76.5228 H   0  0  0  0  0  0  0  0  0  0  0  0
    0.8296   57.4118   76.3403 H   0  0  0  0  0  0  0  0  0  0  0  0
    1.0681   56.5487   74.7493 H   0  0  0  0  0  0  0  0  0  0  0  0
    2.2288   54.9793   76.8551 H   0  0  0  0  0  0  0  0  0  0  0  0
    0.5295   55.4249   77.2962 H   0  0  0  0  0  0  0  0  0  0  0  0
    0.9290   52.2691   73.0503 H   0  0  0  0  0  0  0  0  0  0  0  0
   -1.4959   54.4798   77.3636 H   0  0  0  0  0  0  0  0  0  0  0  0
   -3.4867   52.9797   77.0154 H   0  0  0  0  0  0  0  0  0  0  0  0
   -3.5328   51.3425   75.1357 H   0  0  0  0  0  0  0  0  0  0  0  0
   -1.5925   51.1682   73.5417 H   0  0  0  0  0  0  0  0  0  0  0  0
  2  1  1  0
  3  2  1  0
  4  3  1  0
  5  4  1  0
  6  5  1  0
  6  1  1  0
  8  7  1  0
  9  8  2  0
 10  9  1  0
 11 10  2  0
 12 11  1  0
 13 12  2  0
 13  8  1  0
 14 12  1  0
 15 14  1  0
 16 15  2  0
 17 15  1  0
 17 11  1  0
 17  1  1  0
 18  4  1  0
 19 18  1  0
 20 19  1  0
 21 20  1  0
 22 21  1  0
 23 22  2  0
 24 22  1  0
 25 24  1  0
 26 25  2  0
 26 21  1  0
 27 26  1  0
 28 27  2  0
 29 28  1  0
 30 29  2  0
 30 25  1  0
  1 31  1  0
  2 32  1  0
  2 33  1  0
  3 34  1  0
  3 35  1  0
  4 36  1  0
  5 37  1  0
  5 38  1  0
  6 39  1  0
  6 40  1  0
  9 41  1  0
 10 42  1  0
 13 43  1  0
 14 44  1  0
 18 45  1  0
 18 46  1  0
 19 47  1  0
 19 48  1  0
 20 49  1  0
 20 50  1  0
 24 51  1  0
 27 52  1  0
 28 53  1  0
 29 54  1  0
 30 55  1  0
M  CHG  1   4   1
M  END
>  <score>  (9) 
-9.172

$$$$
