=
     RDKit          3D

 69 73  0  0  0  0  0  0  0  0999 V2000
    0.2940   55.2950   74.4670 C   0  0  1  0  0  0  0  0  0  0  0  0
   -0.0080   56.2940   75.5860 C   0  0  0  0  0  0  0  0  0  0  0  0
   -0.3260   57.6970   75.0580 C   0  0  1  0  0  0  0  0  0  0  0  0
    0.5930   58.1620   73.9450 C   0  0  0  0  0  0  0  0  0  0  0  0
    1.4130   57.2570   73.2460 C   0  0  0  0  0  0  0  0  0  0  0  0
    1.4940   55.7940   73.6430 C   0  0  0  0  0  0  0  0  0  0  0  0
    2.2370   57.7340   72.2100 C   0  0  0  0  0  0  0  0  0  0  0  0
    2.2460   59.0910   71.8470 C   0  0  0  0  0  0  0  0  0  0  0  0
    1.4340   59.9900   72.5250 C   0  0  0  0  0  0  0  0  0  0  0  0
    0.6130   59.5210   73.5720 C   0  0  0  0  0  0  0  0  0  0  0  0
    1.4280   61.4220   72.1460 C   0  0  0  0  0  0  0  0  0  0  0  0
    0.6410   62.1500   72.7460 O   0  0  0  0  0  0  0  0  0  0  0  0
    2.3400   61.9230   71.0820 C   0  0  0  0  0  0  0  0  0  0  0  0
    3.1520   61.0010   70.4130 C   0  0  0  0  0  0  0  0  0  0  0  0
    3.1140   59.5680   70.7570 C   0  0  0  0  0  0  0  0  0  0  0  0
    3.8080   58.7610   70.1450 O   0  0  0  0  0  0  0  0  0  0  0  0
    4.0220   61.4190   69.3980 C   0  0  0  0  0  0  0  0  0  0  0  0
    4.0870   62.7620   69.0490 C   0  0  0  0  0  0  0  0  0  0  0  0
    3.2840   63.6910   69.7100 C   0  0  0  0  0  0  0  0  0  0  0  0
    2.4080   63.2890   70.7290 C   0  0  0  0  0  0  0  0  0  0  0  0
    0.6200   53.9320   75.1060 C   0  0  0  0  0  0  0  0  0  0  0  0
    1.7480   53.6320   75.5060 O   0  0  0  0  0  0  0  0  0  0  0  0
   -0.5290   52.9360   75.2470 C   0  0  0  0  0  0  0  0  0  0  0  0
   -0.9520   52.4400   73.9850 O   0  0  0  0  0  0  0  0  0  0  0  0
   -0.8490   55.1190   73.6230 O   0  0  0  0  0  0  0  0  0  0  0  0
    3.0290   56.8090   71.5770 O   0  0  0  0  0  0  0  0  0  0  0  0
   -0.2010   60.3780   74.2820 O   0  0  0  0  0  0  0  0  0  0  0  0
    1.6010   64.1620   71.4080 O   0  0  0  0  0  0  0  0  0  0  0  0
    0.7370   65.0090   70.6620 C   0  0  0  0  0  0  0  0  0  0  0  0
   -1.6610   57.7110   74.5400 O   0  0  0  0  0  0  0  0  0  0  0  0
   -2.6380   57.9900   75.5260 C   0  0  1  0  0  0  0  0  0  0  0  0
   -3.4070   59.2300   75.0510 C   0  0  0  0  0  0  0  0  0  0  0  0
   -4.8370   59.1760   75.5470 C   0  0  1  0  0  0  0  0  0  0  0  0
   -4.9260   58.5190   76.9280 C   0  0  2  0  0  0  0  0  0  0  0  0
   -4.4730   57.0550   76.7700 C   0  0  1  0  0  0  0  0  0  0  0  0
   -3.5470   56.9030   75.6850 O   0  0  0  0  0  0  0  0  0  0  0  0
   -3.8740   56.4950   78.0550 C   0  0  0  0  0  0  0  0  0  0  0  0
   -5.4410   60.5400   75.6230 N   0  0  0  0  0  4  0  0  0  0  0  0
   -6.2710   58.6580   77.3950 O   0  0  0  0  0  0  0  0  0  0  0  0
   -0.8733   55.9293   76.1589 H   0  0  0  0  0  0  0  0  0  0  0  0
    0.8924   56.3718   76.2131 H   0  0  0  0  0  0  0  0  0  0  0  0
   -0.1911   58.3777   75.9115 H   0  0  0  0  0  0  0  0  0  0  0  0
    1.5566   55.1908   72.7253 H   0  0  0  0  0  0  0  0  0  0  0  0
    2.3819   55.6898   74.2839 H   0  0  0  0  0  0  0  0  0  0  0  0
    4.6536   60.6841   68.8774 H   0  0  0  0  0  0  0  0  0  0  0  0
    4.7705   63.0920   68.2528 H   0  0  0  0  0  0  0  0  0  0  0  0
    3.3383   64.7530   69.4285 H   0  0  0  0  0  0  0  0  0  0  0  0
   -0.1948   52.0918   75.8680 H   0  0  0  0  0  0  0  0  0  0  0  0
   -1.3786   53.4563   75.7133 H   0  0  0  0  0  0  0  0  0  0  0  0
   -1.5884   51.6938   74.1202 H   0  0  0  0  0  0  0  0  0  0  0  0
   -1.6563   54.9947   74.1824 H   0  0  0  0  0  0  0  0  0  0  0  0
    3.6279   57.0911   70.8409 H   0  0  0  0  0  0  0  0  0  0  0  0
   -0.2212   61.3418   74.0568 H   0  0  0  0  0  0  0  0  0  0  0  0
    0.1254   65.6085   71.3523 H   0  0  0  0  0  0  0  0  0  0  0  0
    1.3372   65.6783   70.0282 H   0  0  0  0  0  0  0  0  0  0  0  0
    0.0797   64.3956   70.0282 H   0  0  0  0  0  0  0  0  0  0  0  0
   -2.1504   58.1544   76.4982 H   0  0  0  0  0  0  0  0  0  0  0  0
   -2.9191   60.1338   75.4447 H   0  0  0  0  0  0  0  0  0  0  0  0
   -3.4076   59.2544   73.9513 H   0  0  0  0  0  0  0  0  0  0  0  0
   -5.3978   58.5707   74.8196 H   0  0  0  0  0  0  0  0  0  0  0  0
   -4.2742   58.9892   77.6790 H   0  0  0  0  0  0  0  0  0  0  0  0
   -5.3787   56.4747   76.5398 H   0  0  0  0  0  0  0  0  0  0  0  0
   -4.3685   56.9573   78.9220 H   0  0  0  0  0  0  0  0  0  0  0  0
   -4.0240   55.4057   78.0852 H   0  0  0  0  0  0  0  0  0  0  0  0
   -2.7972   56.7179   78.0852 H   0  0  0  0  0  0  0  0  0  0  0  0
   -5.5598   60.8083   76.6103 H   0  0  0  0  0  0  0  0  0  0  0  0
   -4.8209   61.2166   75.1556 H   0  0  0  0  0  0  0  0  0  0  0  0
   -6.3588   60.5356   75.1556 H   0  0  0  0  0  0  0  0  0  0  0  0
   -6.2782   58.6587   78.3850 H   0  0  0  0  0  0  0  0  0  0  0  0
  2  1  1  0
  3  2  1  0
  4  3  1  0
  5  4  2  0
  6  5  1  0
  6  1  1  0
  7  5  1  0
  8  7  2  0
  9  8  1  0
 10  4  1  0
 10  9  2  0
 11  9  1  0
 12 11  2  0
 13 11  1  0
 14 13  2  0
 15  8  1  0
 15 14  1  0
 16 15  2  0
 17 14  1  0
 18 17  2  0
 19 18  1  0
 20 19  2  0
 20 13  1  0
 21  1  1  0
 22 21  2  0
 23 21  1  0
 24 23  1  0
  1 25  1  6
 26  7  1  0
 27 10  1  0
 28 20  1  0
 29 28  1  0
 30  3  1  0
 31 30  1  0
 32 31  1  0
 33 32  1  0
 34 33  1  0
 35 34  1  0
 36 31  1  0
 36 35  1  0
 37 35  1  0
 38 33  1  0
 39 34  1  0
  2 40  1  0
  2 41  1  0
  3 42  1  1
  6 43  1  0
  6 44  1  0
 17 45  1  0
 18 46  1  0
 19 47  1  0
 23 48  1  0
 23 49  1  0
 24 50  1  0
 25 51  1  0
 26 52  1  0
 27 53  1  0
 29 54  1  0
 29 55  1  0
 29 56  1  0
 31 57  1  1
 32 58  1  0
 32 59  1  0
 33 60  1  6
 34 61  1  1
 35 62  1  6
 37 63  1  0
 37 64  1  0
 37 65  1  0
 38 66  1  0
 38 67  1  0
 38 68  1  0
 39 69  1  0
M  CHG  1  38   1
M  END
>  <score>  (1) 
-9.024

$$$$
=
     RDKit          3D

 69 73  0  0  0  0  0  0  0  0999 V2000
    3.5290   60.6720   70.9780 C   0  0  1  0  0  0  0  0  0  0  0  0
    2.2390   61.4060   71.3560 C   0  0  0  0  0  0  0  0  0  0  0  0
    1.6580   60.9320   72.6930 C   0  0  1  0  0  0  0  0  0  0  0  0
    1.6790   59.4280   72.8780 C   0  0  0  0  0  0  0  0  0  0  0  0
    2.4680   58.5990   72.0590 C   0  0  0  0  0  0  0  0  0  0  0  0
    3.2520   59.1610   70.8880 C   0  0  0  0  0  0  0  0  0  0  0  0
    2.4660   57.2100   72.2810 C   0  0  0  0  0  0  0  0  0  0  0  0
    1.7050   56.6330   73.3120 C   0  0  0  0  0  0  0  0  0  0  0  0
    0.9310   57.4440   74.1310 C   0  0  0  0  0  0  0  0  0  0  0  0
    0.9190   58.8370   73.9080 C   0  0  0  0  0  0  0  0  0  0  0  0
    0.1310   56.8490   75.2270 C   0  0  0  0  0  0  0  0  0  0  0  0
   -0.4820   57.6300   75.9510 O   0  0  0  0  0  0  0  0  0  0  0  0
    0.0980   55.3740   75.4210 C   0  0  0  0  0  0  0  0  0  0  0  0
    0.8840   54.5750   74.5830 C   0  0  0  0  0  0  0  0  0  0  0  0
    1.7200   55.1760   73.5280 C   0  0  0  0  0  0  0  0  0  0  0  0
    2.4300   54.4710   72.8170 O   0  0  0  0  0  0  0  0  0  0  0  0
    0.8950   53.1820   74.7280 C   0  0  0  0  0  0  0  0  0  0  0  0
    0.1180   52.5800   75.7090 C   0  0  0  0  0  0  0  0  0  0  0  0
   -0.6720   53.3660   76.5480 C   0  0  0  0  0  0  0  0  0  0  0  0
   -0.6950   54.7620   76.4160 C   0  0  0  0  0  0  0  0  0  0  0  0
    4.0100   61.2060   69.6150 C   0  0  0  0  0  0  0  0  0  0  0  0
    4.5250   60.4840   68.7570 O   0  0  0  0  0  0  0  0  0  0  0  0
    3.8170   62.6960   69.3430 C   0  0  0  0  0  0  0  0  0  0  0  0
    3.4640   62.9410   67.9890 O   0  0  0  0  0  0  0  0  0  0  0  0
    4.5590   60.9320   71.9380 O   0  0  0  0  0  0  0  0  0  0  0  0
    3.2390   56.4500   71.4390 O   0  0  0  0  0  0  0  0  0  0  0  0
    0.1560   59.6800   74.6880 O   0  0  0  0  0  0  0  0  0  0  0  0
   -1.4540   55.5760   77.2140 O   0  0  0  0  0  0  0  0  0  0  0  0
   -2.8510   55.3280   77.3020 C   0  0  0  0  0  0  0  0  0  0  0  0
    2.4220   61.5020   73.7620 O   0  0  0  0  0  0  0  0  0  0  0  0
    1.8050   62.6350   74.3450 C   0  0  1  0  0  0  0  0  0  0  0  0
    1.2050   63.4550   73.1940 C   0  0  0  0  0  0  0  0  0  0  0  0
   -0.0320   64.1890   73.6690 C   0  0  1  0  0  0  0  0  0  0  0  0
    0.1030   64.6270   75.1310 C   0  0  2  0  0  0  0  0  0  0  0  0
    0.1970   63.3500   75.9870 C   0  0  1  0  0  0  0  0  0  0  0  0
    0.7670   62.2600   75.2480 O   0  0  0  0  0  0  0  0  0  0  0  0
    0.9790   63.5760   77.2760 C   0  0  0  0  0  0  0  0  0  0  0  0
   -0.3110   65.3920   72.8300 N   0  0  0  0  0  4  0  0  0  0  0  0
   -1.0220   65.4510   75.4490 O   0  0  0  0  0  0  0  0  0  0  0  0
    2.4548   62.4822   71.4280 H   0  0  0  0  0  0  0  0  0  0  0  0
    1.4941   61.1914   70.5756 H   0  0  0  0  0  0  0  0  0  0  0  0
    0.6067   61.2557   72.6973 H   0  0  0  0  0  0  0  0  0  0  0  0
    4.2174   58.6363   70.8362 H   0  0  0  0  0  0  0  0  0  0  0  0
    2.6331   59.0071   69.9917 H   0  0  0  0  0  0  0  0  0  0  0  0
    1.5190   52.5649   74.0649 H   0  0  0  0  0  0  0  0  0  0  0  0
    0.1255   51.4861   75.8242 H   0  0  0  0  0  0  0  0  0  0  0  0
   -1.2853   52.8843   77.3237 H   0  0  0  0  0  0  0  0  0  0  0  0
    3.0167   63.0767   69.9946 H   0  0  0  0  0  0  0  0  0  0  0  0
    4.7687   63.2082   69.5476 H   0  0  0  0  0  0  0  0  0  0  0  0
    2.6511   63.5052   67.9568 H   0  0  0  0  0  0  0  0  0  0  0  0
    4.1896   60.8388   72.8518 H   0  0  0  0  0  0  0  0  0  0  0  0
    3.2737   55.4670   71.5512 H   0  0  0  0  0  0  0  0  0  0  0  0
   -0.3944   59.3109   75.4235 H   0  0  0  0  0  0  0  0  0  0  0  0
   -3.1481   55.2753   78.3598 H   0  0  0  0  0  0  0  0  0  0  0  0
   -3.3999   56.1427   76.8071 H   0  0  0  0  0  0  0  0  0  0  0  0
   -3.0860   54.3741   76.8071 H   0  0  0  0  0  0  0  0  0  0  0  0
    2.5468   63.2098   74.9188 H   0  0  0  0  0  0  0  0  0  0  0  0
    1.9483   64.1849   72.8409 H   0  0  0  0  0  0  0  0  0  0  0  0
    0.9288   62.7763   72.3736 H   0  0  0  0  0  0  0  0  0  0  0  0
   -0.8690   63.4812   73.5773 H   0  0  0  0  0  0  0  0  0  0  0  0
    1.0055   65.2247   75.3264 H   0  0  0  0  0  0  0  0  0  0  0  0
   -0.8350   63.0854   76.2607 H   0  0  0  0  0  0  0  0  0  0  0  0
    0.3247   63.3869   78.1398 H   0  0  0  0  0  0  0  0  0  0  0  0
    1.8376   62.8893   77.3092 H   0  0  0  0  0  0  0  0  0  0  0  0
    1.3389   64.6149   77.3092 H   0  0  0  0  0  0  0  0  0  0  0  0
   -0.4985   66.2003   73.4403 H   0  0  0  0  0  0  0  0  0  0  0  0
    0.5057   65.5928   72.2354 H   0  0  0  0  0  0  0  0  0  0  0  0
   -1.1328   65.2128   72.2354 H   0  0  0  0  0  0  0  0  0  0  0  0
   -1.1141   65.5185   76.4324 H   0  0  0  0  0  0  0  0  0  0  0  0
  2  1  1  0
  3  2  1  0
  4  3  1  0
  5  4  2  0
  6  5  1  0
  6  1  1  0
  7  5  1  0
  8  7  2  0
  9  8  1  0
 10  4  1  0
 10  9  2  0
 11  9  1  0
 12 11  2  0
 13 11  1  0
 14 13  2  0
 15  8  1  0
 15 14  1  0
 16 15  2  0
 17 14  1  0
 18 17  2  0
 19 18  1  0
 20 19  2  0
 20 13  1  0
 21  1  1  0
 22 21  2  0
 23 21  1  0
 24 23  1  0
  1 25  1  1
 26  7  1  0
 27 10  1  0
 28 20  1  0
 29 28  1  0
 30  3  1  0
 31 30  1  0
 32 31  1  0
 33 32  1  0
 34 33  1  0
 35 34  1  0
 36 31  1  0
 36 35  1  0
 37 35  1  0
 38 33  1  0
 39 34  1  0
  2 40  1  0
  2 41  1  0
  3 42  1  1
  6 43  1  0
  6 44  1  0
 17 45  1  0
 18 46  1  0
 19 47  1  0
 23 48  1  0
 23 49  1  0
 24 50  1  0
 25 51  1  0
 26 52  1  0
 27 53  1  0
 29 54  1  0
 29 55  1  0
 29 56  1  0
 31 57  1  1
 32 58  1  0
 32 59  1  0
 33 60  1  1
 34 61  1  6
 35 62  1  1
 37 63  1  0
 37 64  1  0
 37 65  1  0
 38 66  1  0
 38 67  1  0
 38 68  1  0
 39 69  1  0
M  CHG  1  38   1
M  END
>  <score>  (2) 
-8.232

$$$$
=
     RDKit          3D

 69 73  0  0  0  0  0  0  0  0999 V2000
    2.4790   61.3460   72.5110 C   0  0  1  0  0  0  0  0  0  0  0  0
    1.0030   61.7420   72.4100 C   0  0  0  0  0  0  0  0  0  0  0  0
    0.1090   60.9440   73.3660 C   0  0  1  0  0  0  0  0  0  0  0  0
    0.4260   59.4630   73.4180 C   0  0  0  0  0  0  0  0  0  0  0  0
    1.6370   58.9530   72.9100 C   0  0  0  0  0  0  0  0  0  0  0  0
    2.6310   59.8480   72.1940 C   0  0  0  0  0  0  0  0  0  0  0  0
    1.8920   57.5730   72.9970 C   0  0  0  0  0  0  0  0  0  0  0  0
    0.9740   56.6930   73.5940 C   0  0  0  0  0  0  0  0  0  0  0  0
   -0.2190   57.1870   74.1060 C   0  0  0  0  0  0  0  0  0  0  0  0
   -0.4870   58.5690   74.0130 C   0  0  0  0  0  0  0  0  0  0  0  0
   -1.1910   56.2710   74.7450 C   0  0  0  0  0  0  0  0  0  0  0  0
   -2.1970   56.7830   75.2310 O   0  0  0  0  0  0  0  0  0  0  0  0
   -0.9320   54.8060   74.7860 C   0  0  0  0  0  0  0  0  0  0  0  0
    0.2740   54.3290   74.2630 C   0  0  0  0  0  0  0  0  0  0  0  0
    1.2630   55.2510   73.6760 C   0  0  0  0  0  0  0  0  0  0  0  0
    2.3330   54.8280   73.2460 O   0  0  0  0  0  0  0  0  0  0  0  0
    0.5710   52.9600   74.2830 C   0  0  0  0  0  0  0  0  0  0  0  0
   -0.3380   52.0610   74.8250 C   0  0  0  0  0  0  0  0  0  0  0  0
   -1.5460   52.5240   75.3480 C   0  0  0  0  0  0  0  0  0  0  0  0
   -1.8580   53.8920   75.3340 C   0  0  0  0  0  0  0  0  0  0  0  0
    3.2780   62.1870   71.4980 C   0  0  0  0  0  0  0  0  0  0  0  0
    2.7870   63.1350   70.8790 O   0  0  0  0  0  0  0  0  0  0  0  0
    4.7420   61.8120   71.2820 C   0  0  0  0  0  0  0  0  0  0  0  0
    5.4880   61.8910   72.4880 O   0  0  0  0  0  0  0  0  0  0  0  0
    2.9910   61.6320   73.8170 O   0  0  0  0  0  0  0  0  0  0  0  0
    3.0790   57.1320   72.4680 O   0  0  0  0  0  0  0  0  0  0  0  0
   -1.6630   59.1030   74.4960 O   0  0  0  0  0  0  0  0  0  0  0  0
   -3.0290   54.3950   75.8340 O   0  0  0  0  0  0  0  0  0  0  0  0
   -3.3890   54.0770   77.1720 C   0  0  0  0  0  0  0  0  0  0  0  0
    0.2670   61.4590   74.6930 O   0  0  0  0  0  0  0  0  0  0  0  0
   -0.5190   62.6110   74.9400 C   0  0  1  0  0  0  0  0  0  0  0  0
   -1.5360   62.2290   76.0240 C   0  0  0  0  0  0  0  0  0  0  0  0
   -1.8760   63.4410   76.8660 C   0  0  1  0  0  0  0  0  0  0  0  0
   -1.8700   64.7240   76.0290 C   0  0  2  0  0  0  0  0  0  0  0  0
   -0.4280   64.9420   75.5320 C   0  0  1  0  0  0  0  0  0  0  0  0
    0.2780   63.6990   75.4020 O   0  0  0  0  0  0  0  0  0  0  0  0
   -0.3810   65.7110   74.2170 C   0  0  0  0  0  0  0  0  0  0  0  0
   -3.2130   63.2980   77.5170 N   0  0  0  0  0  4  0  0  0  0  0  0
   -2.3610   65.7880   76.8500 O   0  0  0  0  0  0  0  0  0  0  0  0
    0.9084   62.8113   72.6500 H   0  0  0  0  0  0  0  0  0  0  0  0
    0.6702   61.5240   71.3845 H   0  0  0  0  0  0  0  0  0  0  0  0
   -0.9162   61.0543   72.9830 H   0  0  0  0  0  0  0  0  0  0  0  0
    3.6455   59.5362   72.4831 H   0  0  0  0  0  0  0  0  0  0  0  0
    2.4384   59.7334   71.1171 H   0  0  0  0  0  0  0  0  0  0  0  0
    1.5237   52.5975   73.8696 H   0  0  0  0  0  0  0  0  0  0  0  0
   -0.1062   50.9858   74.8420 H   0  0  0  0  0  0  0  0  0  0  0  0
   -2.2625   51.8078   75.7765 H   0  0  0  0  0  0  0  0  0  0  0  0
    4.7933   60.7825   70.8979 H   0  0  0  0  0  0  0  0  0  0  0  0
    5.1756   62.5230   70.5634 H   0  0  0  0  0  0  0  0  0  0  0  0
    4.8732   61.8259   73.2612 H   0  0  0  0  0  0  0  0  0  0  0  0
    2.3657   61.2827   74.5004 H   0  0  0  0  0  0  0  0  0  0  0  0
    3.3091   56.1697   72.5023 H   0  0  0  0  0  0  0  0  0  0  0  0
   -2.3354   58.5147   74.9224 H   0  0  0  0  0  0  0  0  0  0  0  0
   -2.7503   54.6412   77.8675 H   0  0  0  0  0  0  0  0  0  0  0  0
   -4.4422   54.3450   77.3419 H   0  0  0  0  0  0  0  0  0  0  0  0
   -3.2530   52.9987   77.3419 H   0  0  0  0  0  0  0  0  0  0  0  0
   -1.0092   62.9358   74.0104 H   0  0  0  0  0  0  0  0  0  0  0  0
   -2.4513   61.8486   75.5469 H   0  0  0  0  0  0  0  0  0  0  0  0
   -1.1008   61.4518   76.6694 H   0  0  0  0  0  0  0  0  0  0  0  0
   -1.0997   63.5091   77.6424 H   0  0  0  0  0  0  0  0  0  0  0  0
   -2.5226   64.6712   75.1450 H   0  0  0  0  0  0  0  0  0  0  0  0
    0.0735   65.5523   76.2975 H   0  0  0  0  0  0  0  0  0  0  0  0
   -0.3151   66.7892   74.4249 H   0  0  0  0  0  0  0  0  0  0  0  0
    0.4995   65.3946   73.6385 H   0  0  0  0  0  0  0  0  0  0  0  0
   -1.2935   65.5042   73.6385 H   0  0  0  0  0  0  0  0  0  0  0  0
   -3.0995   63.3101   78.5407 H   0  0  0  0  0  0  0  0  0  0  0  0
   -3.8201   64.0789   77.2296 H   0  0  0  0  0  0  0  0  0  0  0  0
   -3.6412   62.4064   77.2296 H   0  0  0  0  0  0  0  0  0  0  0  0
   -2.2498   65.5471   77.8038 H   0  0  0  0  0  0  0  0  0  0  0  0
  2  1  1  0
  3  2  1  0
  4  3  1  0
  5  4  2  0
  6  5  1  0
  6  1  1  0
  7  5  1  0
  8  7  2  0
  9  8  1  0
 10  4  1  0
 10  9  2  0
 11  9  1  0
 12 11  2  0
 13 11  1  0
 14 13  2  0
 15  8  1  0
 15 14  1  0
 16 15  2  0
 17 14  1  0
 18 17  2  0
 19 18  1  0
 20 19  2  0
 20 13  1  0
 21  1  1  0
 22 21  2  0
 23 21  1  0
 24 23  1  0
  1 25  1  1
 26  7  1  0
 27 10  1  0
 28 20  1  0
 29 28  1  0
 30  3  1  0
 31 30  1  0
 32 31  1  0
 33 32  1  0
 34 33  1  0
 35 34  1  0
 36 31  1  0
 36 35  1  0
 37 35  1  0
 38 33  1  0
 39 34  1  0
  2 40  1  0
  2 41  1  0
  3 42  1  6
  6 43  1  0
  6 44  1  0
 17 45  1  0
 18 46  1  0
 19 47  1  0
 23 48  1  0
 23 49  1  0
 24 50  1  0
 25 51  1  0
 26 52  1  0
 27 53  1  0
 29 54  1  0
 29 55  1  0
 29 56  1  0
 31 57  1  6
 32 58  1  0
 32 59  1  0
 33 60  1  1
 34 61  1  6
 35 62  1  1
 37 63  1  0
 37 64  1  0
 37 65  1  0
 38 66  1  0
 38 67  1  0
 38 68  1  0
 39 69  1  0
M  CHG  1  38   1
M  END
>  <score>  (3) 
-8.003

$$$$
=
     RDKit          3D

 69 73  0  0  0  0  0  0  0  0999 V2000
    2.2020   61.4020   72.8410 C   0  0  1  0  0  0  0  0  0  0  0  0
    0.7070   61.7250   72.7700 C   0  0  0  0  0  0  0  0  0  0  0  0
   -0.1370   60.8260   73.6800 C   0  0  1  0  0  0  0  0  0  0  0  0
    0.2570   59.3630   73.6430 C   0  0  0  0  0  0  0  0  0  0  0  0
    1.4890   58.9490   73.1000 C   0  0  0  0  0  0  0  0  0  0  0  0
    2.4300   59.9350   72.4340 C   0  0  0  0  0  0  0  0  0  0  0  0
    1.8170   57.5810   73.1030 C   0  0  0  0  0  0  0  0  0  0  0  0
    0.9500   56.6200   73.6500 C   0  0  0  0  0  0  0  0  0  0  0  0
   -0.2630   57.0200   74.1960 C   0  0  0  0  0  0  0  0  0  0  0  0
   -0.6040   58.3890   74.1870 C   0  0  0  0  0  0  0  0  0  0  0  0
   -1.1820   56.0170   74.7830 C   0  0  0  0  0  0  0  0  0  0  0  0
   -2.2100   56.4470   75.3030 O   0  0  0  0  0  0  0  0  0  0  0  0
   -0.8460   54.5690   74.7360 C   0  0  0  0  0  0  0  0  0  0  0  0
    0.3790   54.1880   74.1800 C   0  0  0  0  0  0  0  0  0  0  0  0
    1.3150   55.1930   73.6450 C   0  0  0  0  0  0  0  0  0  0  0  0
    2.4020   54.8540   73.1860 O   0  0  0  0  0  0  0  0  0  0  0  0
    0.7470   52.8370   74.1180 C   0  0  0  0  0  0  0  0  0  0  0  0
   -0.1100   51.8610   74.6090 C   0  0  0  0  0  0  0  0  0  0  0  0
   -1.3360   52.2280   75.1630 C   0  0  0  0  0  0  0  0  0  0  0  0
   -1.7200   53.5760   75.2320 C   0  0  0  0  0  0  0  0  0  0  0  0
    2.9490   62.3420   71.8760 C   0  0  0  0  0  0  0  0  0  0  0  0
    2.4670   63.4010   71.4650 O   0  0  0  0  0  0  0  0  0  0  0  0
    4.3500   61.9230   71.4390 C   0  0  0  0  0  0  0  0  0  0  0  0
    5.2710   61.9590   72.5200 O   0  0  0  0  0  0  0  0  0  0  0  0
    2.7080   61.6360   74.1600 O   0  0  0  0  0  0  0  0  0  0  0  0
    3.0210   57.2350   72.5440 O   0  0  0  0  0  0  0  0  0  0  0  0
   -1.8030   58.8310   74.7060 O   0  0  0  0  0  0  0  0  0  0  0  0
   -2.9120   53.9870   75.7650 O   0  0  0  0  0  0  0  0  0  0  0  0
   -3.3440   53.4080   76.9900 C   0  0  0  0  0  0  0  0  0  0  0  0
    0.0030   61.2690   75.0340 O   0  0  0  0  0  0  0  0  0  0  0  0
   -1.2220   61.6720   75.6180 C   0  0  1  0  0  0  0  0  0  0  0  0
   -0.9680   63.0280   76.2920 C   0  0  0  0  0  0  0  0  0  0  0  0
   -2.2300   63.8640   76.2700 C   0  0  1  0  0  0  0  0  0  0  0  0
   -3.4820   62.9920   76.4130 C   0  0  2  0  0  0  0  0  0  0  0  0
   -3.5520   62.0800   75.1740 C   0  0  1  0  0  0  0  0  0  0  0  0
   -2.2470   61.8180   74.6380 O   0  0  0  0  0  0  0  0  0  0  0  0
   -4.2750   60.7690   75.4610 C   0  0  0  0  0  0  0  0  0  0  0  0
   -2.2290   64.8860   77.3590 N   0  0  0  0  0  4  0  0  0  0  0  0
   -4.6100   63.8610   76.5530 O   0  0  0  0  0  0  0  0  0  0  0  0
    0.5584   62.7717   73.0739 H   0  0  0  0  0  0  0  0  0  0  0  0
    0.3787   61.5510   71.7347 H   0  0  0  0  0  0  0  0  0  0  0  0
   -1.1691   60.9046   73.3078 H   0  0  0  0  0  0  0  0  0  0  0  0
    3.4614   59.6601   72.6996 H   0  0  0  0  0  0  0  0  0  0  0  0
    2.2363   59.8743   71.3529 H   0  0  0  0  0  0  0  0  0  0  0  0
    1.7145   52.5499   73.6805 H   0  0  0  0  0  0  0  0  0  0  0  0
    0.1776   50.8004   74.5611 H   0  0  0  0  0  0  0  0  0  0  0  0
   -2.0108   51.4508   75.5509 H   0  0  0  0  0  0  0  0  0  0  0  0
    4.3076   60.8984   71.0409 H   0  0  0  0  0  0  0  0  0  0  0  0
    4.6953   62.6307   70.6710 H   0  0  0  0  0  0  0  0  0  0  0  0
    4.7752   61.9396   73.3767 H   0  0  0  0  0  0  0  0  0  0  0  0
    2.0443   61.3291   74.8273 H   0  0  0  0  0  0  0  0  0  0  0  0
    3.3010   56.2857   72.5199 H   0  0  0  0  0  0  0  0  0  0  0  0
   -2.4408   58.1839   75.0991 H   0  0  0  0  0  0  0  0  0  0  0  0
   -2.9212   53.9747   77.8326 H   0  0  0  0  0  0  0  0  0  0  0  0
   -4.4423   53.4378   77.0424 H   0  0  0  0  0  0  0  0  0  0  0  0
   -3.0026   52.3636   77.0424 H   0  0  0  0  0  0  0  0  0  0  0  0
   -1.5607   60.9106   76.3361 H   0  0  0  0  0  0  0  0  0  0  0  0
   -0.6584   62.8638   77.3347 H   0  0  0  0  0  0  0  0  0  0  0  0
   -0.1747   63.5589   75.7454 H   0  0  0  0  0  0  0  0  0  0  0  0
   -2.2501   64.3729   75.2950 H   0  0  0  0  0  0  0  0  0  0  0  0
   -3.4633   62.3434   77.3012 H   0  0  0  0  0  0  0  0  0  0  0  0
   -4.1368   62.6280   74.4206 H   0  0  0  0  0  0  0  0  0  0  0  0
   -4.3546   60.6246   76.5486 H   0  0  0  0  0  0  0  0  0  0  0  0
   -5.2825   60.8019   75.0208 H   0  0  0  0  0  0  0  0  0  0  0  0
   -3.7096   59.9344   75.0208 H   0  0  0  0  0  0  0  0  0  0  0  0
   -2.2295   64.4128   78.2739 H   0  0  0  0  0  0  0  0  0  0  0  0
   -1.3874   65.4742   77.2771 H   0  0  0  0  0  0  0  0  0  0  0  0
   -3.0694   65.4758   77.2771 H   0  0  0  0  0  0  0  0  0  0  0  0
   -4.7978   64.0057   77.5142 H   0  0  0  0  0  0  0  0  0  0  0  0
  2  1  1  0
  3  2  1  0
  4  3  1  0
  5  4  2  0
  6  5  1  0
  6  1  1  0
  7  5  1  0
  8  7  2  0
  9  8  1  0
 10  4  1  0
 10  9  2  0
 11  9  1  0
 12 11  2  0
 13 11  1  0
 14 13  2  0
 15  8  1  0
 15 14  1  0
 16 15  2  0
 17 14  1  0
 18 17  2  0
 19 18  1  0
 20 19  2  0
 20 13  1  0
 21  1  1  0
 22 21  2  0
 23 21  1  0
 24 23  1  0
  1 25  1  1
 26  7  1  0
 27 10  1  0
 28 20  1  0
 29 28  1  0
 30  3  1  0
 31 30  1  0
 32 31  1  0
 33 32  1  0
 34 33  1  0
 35 34  1  0
 36 31  1  0
 36 35  1  0
 37 35  1  0
 38 33  1  0
 39 34  1  0
  2 40  1  0
  2 41  1  0
  3 42  1  6
  6 43  1  0
  6 44  1  0
 17 45  1  0
 18 46  1  0
 19 47  1  0
 23 48  1  0
 23 49  1  0
 24 50  1  0
 25 51  1  0
 26 52  1  0
 27 53  1  0
 29 54  1  0
 29 55  1  0
 29 56  1  0
 31 57  1  1
 32 58  1  0
 32 59  1  0
 33 60  1  6
 34 61  1  1
 35 62  1  6
 37 63  1  0
 37 64  1  0
 37 65  1  0
 38 66  1  0
 38 67  1  0
 38 68  1  0
 39 69  1  0
M  CHG  1  38   1
M  END
>  <score>  (4) 
-7.755

$$$$
=
     RDKit          3D

 69 73  0  0  0  0  0  0  0  0999 V2000
    1.2390   55.9860   74.3940 C   0  0  1  0  0  0  0  0  0  0  0  0
    1.3430   56.9240   73.1880 C   0  0  0  0  0  0  0  0  0  0  0  0
    0.7180   58.2980   73.4510 C   0  0  1  0  0  0  0  0  0  0  0  0
   -0.6130   58.2450   74.1740 C   0  0  0  0  0  0  0  0  0  0  0  0
   -1.0420   57.0790   74.8360 C   0  0  0  0  0  0  0  0  0  0  0  0
   -0.2410   55.7920   74.7680 C   0  0  0  0  0  0  0  0  0  0  0  0
   -2.2780   57.0840   75.5060 C   0  0  0  0  0  0  0  0  0  0  0  0
   -3.0880   58.2320   75.5440 C   0  0  0  0  0  0  0  0  0  0  0  0
   -2.6690   59.3900   74.9020 C   0  0  0  0  0  0  0  0  0  0  0  0
   -1.4350   59.3890   74.2180 C   0  0  0  0  0  0  0  0  0  0  0  0
   -3.5090   60.6090   74.9410 C   0  0  0  0  0  0  0  0  0  0  0  0
   -3.0500   61.6150   74.4040 O   0  0  0  0  0  0  0  0  0  0  0  0
   -4.8370   60.5870   75.6110 C   0  0  0  0  0  0  0  0  0  0  0  0
   -5.2410   59.4100   76.2500 C   0  0  0  0  0  0  0  0  0  0  0  0
   -4.3780   58.2150   76.2540 C   0  0  0  0  0  0  0  0  0  0  0  0
   -4.7260   57.1950   76.8430 O   0  0  0  0  0  0  0  0  0  0  0  0
   -6.4790   59.3380   76.9020 C   0  0  0  0  0  0  0  0  0  0  0  0
   -7.3200   60.4430   76.9160 C   0  0  0  0  0  0  0  0  0  0  0  0
   -6.9300   61.6220   76.2800 C   0  0  0  0  0  0  0  0  0  0  0  0
   -5.6940   61.7090   75.6220 C   0  0  0  0  0  0  0  0  0  0  0  0
    1.8730   54.6350   74.0150 C   0  0  0  0  0  0  0  0  0  0  0  0
    2.6280   54.4960   73.0490 O   0  0  0  0  0  0  0  0  0  0  0  0
    1.5420   53.4360   74.9020 C   0  0  0  0  0  0  0  0  0  0  0  0
    1.9690   53.6400   76.2410 O   0  0  0  0  0  0  0  0  0  0  0  0
    1.9680   56.5140   75.5090 O   0  0  0  0  0  0  0  0  0  0  0  0
   -2.6530   55.9130   76.1160 O   0  0  0  0  0  0  0  0  0  0  0  0
   -0.9840   60.5110   73.5550 O   0  0  0  0  0  0  0  0  0  0  0  0
   -5.2670   62.8430   74.9840 O   0  0  0  0  0  0  0  0  0  0  0  0
   -5.6020   64.1060   75.5450 C   0  0  0  0  0  0  0  0  0  0  0  0
    1.6110   59.0700   74.2630 O   0  0  0  0  0  0  0  0  0  0  0  0
    2.1300   60.2060   73.5950 C   0  0  1  0  0  0  0  0  0  0  0  0
    3.6550   60.0420   73.5590 C   0  0  0  0  0  0  0  0  0  0  0  0
    4.2190   60.7030   72.3180 C   0  0  1  0  0  0  0  0  0  0  0  0
    3.4260   61.9580   71.9430 C   0  0  2  0  0  0  0  0  0  0  0  0
    1.9990   61.5080   71.5760 C   0  0  1  0  0  0  0  0  0  0  0  0
    1.6330   60.3030   72.2620 O   0  0  0  0  0  0  0  0  0  0  0  0
    0.9650   62.5970   71.8390 C   0  0  0  0  0  0  0  0  0  0  0  0
    5.6530   61.0770   72.5020 N   0  0  0  0  0  4  0  0  0  0  0  0
    4.1160   62.6120   70.8740 O   0  0  0  0  0  0  0  0  0  0  0  0
    2.4059   57.0625   72.9407 H   0  0  0  0  0  0  0  0  0  0  0  0
    0.7890   56.4606   72.3583 H   0  0  0  0  0  0  0  0  0  0  0  0
    0.5443   58.7441   72.4607 H   0  0  0  0  0  0  0  0  0  0  0  0
   -0.2863   55.3056   75.7536 H   0  0  0  0  0  0  0  0  0  0  0  0
   -0.6904   55.1832   73.9696 H   0  0  0  0  0  0  0  0  0  0  0  0
   -6.7845   58.4072   77.4023 H   0  0  0  0  0  0  0  0  0  0  0  0
   -8.2922   60.3888   77.4278 H   0  0  0  0  0  0  0  0  0  0  0  0
   -7.6000   62.4943   76.2947 H   0  0  0  0  0  0  0  0  0  0  0  0
    0.4536   53.2771   74.8951 H   0  0  0  0  0  0  0  0  0  0  0  0
    2.0709   52.5578   74.5032 H   0  0  0  0  0  0  0  0  0  0  0  0
    1.2741   53.3080   76.8632 H   0  0  0  0  0  0  0  0  0  0  0  0
    1.5477   56.2096   76.3521 H   0  0  0  0  0  0  0  0  0  0  0  0
   -3.5141   55.8616   76.6018 H   0  0  0  0  0  0  0  0  0  0  0  0
   -1.5267   61.3390   73.5575 H   0  0  0  0  0  0  0  0  0  0  0  0
   -5.5835   64.0362   76.6426 H   0  0  0  0  0  0  0  0  0  0  0  0
   -4.8727   64.8597   75.2132 H   0  0  0  0  0  0  0  0  0  0  0  0
   -6.6090   64.3991   75.2132 H   0  0  0  0  0  0  0  0  0  0  0  0
    1.8264   61.1211   74.1246 H   0  0  0  0  0  0  0  0  0  0  0  0
    4.0928   60.5112   74.4524 H   0  0  0  0  0  0  0  0  0  0  0  0
    3.9022   58.9703   73.5408 H   0  0  0  0  0  0  0  0  0  0  0  0
    4.1374   59.9653   71.5061 H   0  0  0  0  0  0  0  0  0  0  0  0
    3.3439   62.6845   72.7649 H   0  0  0  0  0  0  0  0  0  0  0  0
    2.0078   61.3060   70.4948 H   0  0  0  0  0  0  0  0  0  0  0  0
    0.8395   62.7292   72.9238 H   0  0  0  0  0  0  0  0  0  0  0  0
    1.3060   63.5422   71.3915 H   0  0  0  0  0  0  0  0  0  0  0  0
    0.0034   62.3054   71.3915 H   0  0  0  0  0  0  0  0  0  0  0  0
    5.8669   61.1328   73.5080 H   0  0  0  0  0  0  0  0  0  0  0  0
    6.2528   60.3643   72.0625 H   0  0  0  0  0  0  0  0  0  0  0  0
    5.8283   61.9919   72.0625 H   0  0  0  0  0  0  0  0  0  0  0  0
    4.7814   63.2427   71.2477 H   0  0  0  0  0  0  0  0  0  0  0  0
  2  1  1  0
  3  2  1  0
  4  3  1  0
  5  4  2  0
  6  5  1  0
  6  1  1  0
  7  5  1  0
  8  7  2  0
  9  8  1  0
 10  4  1  0
 10  9  2  0
 11  9  1  0
 12 11  2  0
 13 11  1  0
 14 13  2  0
 15  8  1  0
 15 14  1  0
 16 15  2  0
 17 14  1  0
 18 17  2  0
 19 18  1  0
 20 19  2  0
 20 13  1  0
 21  1  1  0
 22 21  2  0
 23 21  1  0
 24 23  1  0
  1 25  1  1
 26  7  1  0
 27 10  1  0
 28 20  1  0
 29 28  1  0
 30  3  1  0
 31 30  1  0
 32 31  1  0
 33 32  1  0
 34 33  1  0
 35 34  1  0
 36 31  1  0
 36 35  1  0
 37 35  1  0
 38 33  1  0
 39 34  1  0
  2 40  1  0
  2 41  1  0
  3 42  1  6
  6 43  1  0
  6 44  1  0
 17 45  1  0
 18 46  1  0
 19 47  1  0
 23 48  1  0
 23 49  1  0
 24 50  1  0
 25 51  1  0
 26 52  1  0
 27 53  1  0
 29 54  1  0
 29 55  1  0
 29 56  1  0
 31 57  1  1
 32 58  1  0
 32 59  1  0
 33 60  1  6
 34 61  1  1
 35 62  1  6
 37 63  1  0
 37 64  1  0
 37 65  1  0
 38 66  1  0
 38 67  1  0
 38 68  1  0
 39 69  1  0
M  CHG  1  38   1
M  END
>  <score>  (5) 
-7.72

$$$$
=
     RDKit          3D

 69 73  0  0  0  0  0  0  0  0999 V2000
   -0.5820   62.3050   74.5780 C   0  0  1  0  0  0  0  0  0  0  0  0
    0.8870   61.9070   74.7470 C   0  0  0  0  0  0  0  0  0  0  0  0
    1.1780   60.4890   74.2450 C   0  0  1  0  0  0  0  0  0  0  0  0
    0.1340   59.4650   74.6410 C   0  0  0  0  0  0  0  0  0  0  0  0
   -1.1330   59.8560   75.1140 C   0  0  0  0  0  0  0  0  0  0  0  0
   -1.4740   61.3160   75.3480 C   0  0  0  0  0  0  0  0  0  0  0  0
   -2.0750   58.8680   75.4540 C   0  0  0  0  0  0  0  0  0  0  0  0
   -1.7850   57.5000   75.3170 C   0  0  0  0  0  0  0  0  0  0  0  0
   -0.5420   57.1050   74.8420 C   0  0  0  0  0  0  0  0  0  0  0  0
    0.4120   58.0890   74.5090 C   0  0  0  0  0  0  0  0  0  0  0  0
   -0.2270   55.6660   74.6850 C   0  0  0  0  0  0  0  0  0  0  0  0
    0.8690   55.3890   74.2030 O   0  0  0  0  0  0  0  0  0  0  0  0
   -1.2130   54.6300   75.0950 C   0  0  0  0  0  0  0  0  0  0  0  0
   -2.4590   55.0490   75.5720 C   0  0  0  0  0  0  0  0  0  0  0  0
   -2.7880   56.4820   75.6760 C   0  0  0  0  0  0  0  0  0  0  0  0
   -3.8950   56.8420   76.0680 O   0  0  0  0  0  0  0  0  0  0  0  0
   -3.4260   54.1150   75.9640 C   0  0  0  0  0  0  0  0  0  0  0  0
   -3.1510   52.7560   75.8830 C   0  0  0  0  0  0  0  0  0  0  0  0
   -1.9110   52.3250   75.4110 C   0  0  0  0  0  0  0  0  0  0  0  0
   -0.9320   53.2480   75.0150 C   0  0  0  0  0  0  0  0  0  0  0  0
   -0.7660   63.7300   75.1330 C   0  0  0  0  0  0  0  0  0  0  0  0
   -1.5820   64.0040   76.0170 O   0  0  0  0  0  0  0  0  0  0  0  0
    0.1230   64.8260   74.5500 C   0  0  0  0  0  0  0  0  0  0  0  0
   -0.3660   65.2880   73.2980 O   0  0  0  0  0  0  0  0  0  0  0  0
   -0.9430   62.3250   73.1920 O   0  0  0  0  0  0  0  0  0  0  0  0
   -3.2860   59.3080   75.9280 O   0  0  0  0  0  0  0  0  0  0  0  0
    1.6650   57.7450   74.0470 O   0  0  0  0  0  0  0  0  0  0  0  0
    0.3000   52.8760   74.5470 O   0  0  0  0  0  0  0  0  0  0  0  0
    1.1020   52.0200   75.3500 C   0  0  0  0  0  0  0  0  0  0  0  0
    1.2370   60.5030   72.8140 O   0  0  0  0  0  0  0  0  0  0  0  0
    2.1590   61.4490   72.3030 C   0  0  1  0  0  0  0  0  0  0  0  0
    3.5420   60.7850   72.3380 C   0  0  0  0  0  0  0  0  0  0  0  0
    4.4020   61.3170   71.2110 C   0  0  1  0  0  0  0  0  0  0  0  0
    4.1040   62.7930   70.9270 C   0  0  2  0  0  0  0  0  0  0  0  0
    2.6480   62.8800   70.4310 C   0  0  1  0  0  0  0  0  0  0  0  0
    1.8450   61.8160   70.9620 O   0  0  0  0  0  0  0  0  0  0  0  0
    2.0100   64.2280   70.7500 C   0  0  0  0  0  0  0  0  0  0  0  0
    5.8570   61.1700   71.5160 N   0  0  0  0  0  4  0  0  0  0  0  0
    5.0640   63.2610   69.9770 O   0  0  0  0  0  0  0  0  0  0  0  0
    1.5105   62.6152   74.1816 H   0  0  0  0  0  0  0  0  0  0  0  0
    1.1158   61.9317   75.8227 H   0  0  0  0  0  0  0  0  0  0  0  0
    2.1299   60.1943   74.7109 H   0  0  0  0  0  0  0  0  0  0  0  0
   -2.5169   61.4801   75.0392 H   0  0  0  0  0  0  0  0  0  0  0  0
   -1.3098   61.5106   76.4181 H   0  0  0  0  0  0  0  0  0  0  0  0
   -4.4029   54.4575   76.3359 H   0  0  0  0  0  0  0  0  0  0  0  0
   -3.9095   52.0210   76.1904 H   0  0  0  0  0  0  0  0  0  0  0  0
   -1.6984   51.2476   75.3486 H   0  0  0  0  0  0  0  0  0  0  0  0
    0.1556   65.6707   75.2538 H   0  0  0  0  0  0  0  0  0  0  0  0
    1.1273   64.4057   74.3923 H   0  0  0  0  0  0  0  0  0  0  0  0
   -1.0772   65.9599   73.4491 H   0  0  0  0  0  0  0  0  0  0  0  0
   -1.9279   62.3796   73.1083 H   0  0  0  0  0  0  0  0  0  0  0  0
   -3.9851   58.6547   76.1821 H   0  0  0  0  0  0  0  0  0  0  0  0
    1.9076   56.7915   73.9374 H   0  0  0  0  0  0  0  0  0  0  0  0
    0.9083   52.2267   76.4129 H   0  0  0  0  0  0  0  0  0  0  0  0
    0.8537   50.9714   75.1292 H   0  0  0  0  0  0  0  0  0  0  0  0
    2.1646   52.1995   75.1292 H   0  0  0  0  0  0  0  0  0  0  0  0
    2.1264   62.3663   72.9093 H   0  0  0  0  0  0  0  0  0  0  0  0
    4.0269   61.0044   73.3007 H   0  0  0  0  0  0  0  0  0  0  0  0
    3.4232   59.6980   72.2186 H   0  0  0  0  0  0  0  0  0  0  0  0
    4.1555   60.7185   70.3216 H   0  0  0  0  0  0  0  0  0  0  0  0
    4.1916   63.4355   71.8156 H   0  0  0  0  0  0  0  0  0  0  0  0
    2.6879   62.7757   69.3367 H   0  0  0  0  0  0  0  0  0  0  0  0
    1.9494   64.3560   71.8408 H   0  0  0  0  0  0  0  0  0  0  0  0
    2.6220   65.0344   70.3196 H   0  0  0  0  0  0  0  0  0  0  0  0
    0.9984   64.2659   70.3196 H   0  0  0  0  0  0  0  0  0  0  0  0
    5.9941   61.1561   72.5367 H   0  0  0  0  0  0  0  0  0  0  0  0
    6.2055   60.2895   71.1108 H   0  0  0  0  0  0  0  0  0  0  0  0
    6.3746   61.9630   71.1108 H   0  0  0  0  0  0  0  0  0  0  0  0
    5.8432   63.6409   70.4551 H   0  0  0  0  0  0  0  0  0  0  0  0
  2  1  1  0
  3  2  1  0
  4  3  1  0
  5  4  2  0
  6  5  1  0
  6  1  1  0
  7  5  1  0
  8  7  2  0
  9  8  1  0
 10  4  1  0
 10  9  2  0
 11  9  1  0
 12 11  2  0
 13 11  1  0
 14 13  2  0
 15  8  1  0
 15 14  1  0
 16 15  2  0
 17 14  1  0
 18 17  2  0
 19 18  1  0
 20 19  2  0
 20 13  1  0
 21  1  1  0
 22 21  2  0
 23 21  1  0
 24 23  1  0
  1 25  1  6
 26  7  1  0
 27 10  1  0
 28 20  1  0
 29 28  1  0
 30  3  1  0
 31 30  1  0
 32 31  1  0
 33 32  1  0
 34 33  1  0
 35 34  1  0
 36 31  1  0
 36 35  1  0
 37 35  1  0
 38 33  1  0
 39 34  1  0
  2 40  1  0
  2 41  1  0
  3 42  1  1
  6 43  1  0
  6 44  1  0
 17 45  1  0
 18 46  1  0
 19 47  1  0
 23 48  1  0
 23 49  1  0
 24 50  1  0
 25 51  1  0
 26 52  1  0
 27 53  1  0
 29 54  1  0
 29 55  1  0
 29 56  1  0
 31 57  1  1
 32 58  1  0
 32 59  1  0
 33 60  1  6
 34 61  1  1
 35 62  1  6
 37 63  1  0
 37 64  1  0
 37 65  1  0
 38 66  1  0
 38 67  1  0
 38 68  1  0
 39 69  1  0
M  CHG  1  38   1
M  END
>  <score>  (6) 
-7.395

$$$$
=
     RDKit          3D

 69 73  0  0  0  0  0  0  0  0999 V2000
    0.3050   56.6530   76.0210 C   0  0  1  0  0  0  0  0  0  0  0  0
    0.3440   57.8690   76.9510 C   0  0  0  0  0  0  0  0  0  0  0  0
    0.1130   59.1900   76.2090 C   0  0  1  0  0  0  0  0  0  0  0  0
    0.8590   59.2990   74.8940 C   0  0  0  0  0  0  0  0  0  0  0  0
    1.4140   58.1670   74.2690 C   0  0  0  0  0  0  0  0  0  0  0  0
    1.3830   56.8030   74.9340 C   0  0  0  0  0  0  0  0  0  0  0  0
    2.0830   58.3170   73.0410 C   0  0  0  0  0  0  0  0  0  0  0  0
    2.1950   59.5710   72.4160 C   0  0  0  0  0  0  0  0  0  0  0  0
    1.6430   60.6920   73.0200 C   0  0  0  0  0  0  0  0  0  0  0  0
    0.9790   60.5510   74.2570 C   0  0  0  0  0  0  0  0  0  0  0  0
    1.7470   62.0180   72.3670 C   0  0  0  0  0  0  0  0  0  0  0  0
    1.1830   62.9560   72.9260 O   0  0  0  0  0  0  0  0  0  0  0  0
    2.4990   62.1730   71.0930 C   0  0  0  0  0  0  0  0  0  0  0  0
    3.0500   61.0300   70.5020 C   0  0  0  0  0  0  0  0  0  0  0  0
    2.8980   59.7050   71.1280 C   0  0  0  0  0  0  0  0  0  0  0  0
    3.3580   58.7030   70.5890 O   0  0  0  0  0  0  0  0  0  0  0  0
    3.7620   61.1200   69.2990 C   0  0  0  0  0  0  0  0  0  0  0  0
    3.9290   62.3530   68.6810 C   0  0  0  0  0  0  0  0  0  0  0  0
    3.3860   63.5000   69.2620 C   0  0  0  0  0  0  0  0  0  0  0  0
    2.6720   63.4270   70.4670 C   0  0  0  0  0  0  0  0  0  0  0  0
    0.5700   55.3900   76.8610 C   0  0  0  0  0  0  0  0  0  0  0  0
    1.5860   55.2420   77.5470 O   0  0  0  0  0  0  0  0  0  0  0  0
   -0.4960   54.2960   76.8320 C   0  0  0  0  0  0  0  0  0  0  0  0
   -0.5150   53.6150   75.5850 O   0  0  0  0  0  0  0  0  0  0  0  0
   -0.9890   56.5160   75.4220 O   0  0  0  0  0  0  0  0  0  0  0  0
    2.6210   57.1820   72.4890 O   0  0  0  0  0  0  0  0  0  0  0  0
    0.4260   61.6380   74.9000 O   0  0  0  0  0  0  0  0  0  0  0  0
    2.1220   64.5230   71.0760 O   0  0  0  0  0  0  0  0  0  0  0  0
    1.2830   65.3770   70.3090 C   0  0  0  0  0  0  0  0  0  0  0  0
   -1.2830   59.3240   75.9180 O   0  0  0  0  0  0  0  0  0  0  0  0
   -1.9040   60.3720   76.6400 C   0  0  1  0  0  0  0  0  0  0  0  0
   -2.7530   61.1610   75.6340 C   0  0  0  0  0  0  0  0  0  0  0  0
   -3.9630   61.7520   76.3270 C   0  0  1  0  0  0  0  0  0  0  0  0
   -3.6400   62.1580   77.7690 C   0  0  2  0  0  0  0  0  0  0  0  0
   -3.2910   60.8720   78.5420 C   0  0  1  0  0  0  0  0  0  0  0  0
   -2.7450   59.8670   77.6750 O   0  0  0  0  0  0  0  0  0  0  0  0
   -2.3390   61.1380   79.7030 C   0  0  0  0  0  0  0  0  0  0  0  0
   -4.4840   62.9450   75.5960 N   0  0  0  0  0  4  0  0  0  0  0  0
   -4.7730   62.8560   78.2940 O   0  0  0  0  0  0  0  0  0  0  0  0
   -0.4391   57.7530   77.7147 H   0  0  0  0  0  0  0  0  0  0  0  0
    1.3474   57.9115   77.3997 H   0  0  0  0  0  0  0  0  0  0  0  0
    0.4896   59.9805   76.8748 H   0  0  0  0  0  0  0  0  0  0  0  0
    1.1976   56.0456   74.1581 H   0  0  0  0  0  0  0  0  0  0  0  0
    2.3544   56.6741   75.4338 H   0  0  0  0  0  0  0  0  0  0  0  0
    4.1889   60.2143   68.8436 H   0  0  0  0  0  0  0  0  0  0  0  0
    4.4877   62.4251   67.7362 H   0  0  0  0  0  0  0  0  0  0  0  0
    3.5198   64.4739   68.7684 H   0  0  0  0  0  0  0  0  0  0  0  0
   -0.2844   53.5706   77.6314 H   0  0  0  0  0  0  0  0  0  0  0  0
   -1.4779   54.7694   76.9797 H   0  0  0  0  0  0  0  0  0  0  0  0
   -0.5423   52.6381   75.7429 H   0  0  0  0  0  0  0  0  0  0  0  0
   -1.6752   56.4433   76.1319 H   0  0  0  0  0  0  0  0  0  0  0  0
    3.1025   57.2319   71.6254 H   0  0  0  0  0  0  0  0  0  0  0  0
    0.4853   62.5378   74.4913 H   0  0  0  0  0  0  0  0  0  0  0  0
    0.6746   65.9963   70.9844 H   0  0  0  0  0  0  0  0  0  0  0  0
    1.9034   66.0271   69.6746 H   0  0  0  0  0  0  0  0  0  0  0  0
    0.6220   64.7683   69.6746 H   0  0  0  0  0  0  0  0  0  0  0  0
   -1.1390   61.0020   77.1174 H   0  0  0  0  0  0  0  0  0  0  0  0
   -2.1474   61.9723   75.2038 H   0  0  0  0  0  0  0  0  0  0  0  0
   -3.0898   60.4828   74.8361 H   0  0  0  0  0  0  0  0  0  0  0  0
   -4.7332   60.9667   76.3343 H   0  0  0  0  0  0  0  0  0  0  0  0
   -2.7784   62.8371   77.8491 H   0  0  0  0  0  0  0  0  0  0  0  0
   -4.2365   60.4966   78.9605 H   0  0  0  0  0  0  0  0  0  0  0  0
   -2.8706   60.9895   80.6545 H   0  0  0  0  0  0  0  0  0  0  0  0
   -1.4881   60.4432   79.6460 H   0  0  0  0  0  0  0  0  0  0  0  0
   -1.9715   62.1732   79.6460 H   0  0  0  0  0  0  0  0  0  0  0  0
   -4.7941   63.6551   76.2746 H   0  0  0  0  0  0  0  0  0  0  0  0
   -3.7380   63.3381   75.0045 H   0  0  0  0  0  0  0  0  0  0  0  0
   -5.2794   62.6649   75.0045 H   0  0  0  0  0  0  0  0  0  0  0  0
   -4.7427   62.8373   79.2834 H   0  0  0  0  0  0  0  0  0  0  0  0
  2  1  1  0
  3  2  1  0
  4  3  1  0
  5  4  2  0
  6  5  1  0
  6  1  1  0
  7  5  1  0
  8  7  2  0
  9  8  1  0
 10  4  1  0
 10  9  2  0
 11  9  1  0
 12 11  2  0
 13 11  1  0
 14 13  2  0
 15  8  1  0
 15 14  1  0
 16 15  2  0
 17 14  1  0
 18 17  2  0
 19 18  1  0
 20 19  2  0
 20 13  1  0
 21  1  1  0
 22 21  2  0
 23 21  1  0
 24 23  1  0
  1 25  1  6
 26  7  1  0
 27 10  1  0
 28 20  1  0
 29 28  1  0
 30  3  1  0
 31 30  1  0
 32 31  1  0
 33 32  1  0
 34 33  1  0
 35 34  1  0
 36 31  1  0
 36 35  1  0
 37 35  1  0
 38 33  1  0
 39 34  1  0
  2 40  1  0
  2 41  1  0
  3 42  1  1
  6 43  1  0
  6 44  1  0
 17 45  1  0
 18 46  1  0
 19 47  1  0
 23 48  1  0
 23 49  1  0
 24 50  1  0
 25 51  1  0
 26 52  1  0
 27 53  1  0
 29 54  1  0
 29 55  1  0
 29 56  1  0
 31 57  1  1
 32 58  1  0
 32 59  1  0
 33 60  1  1
 34 61  1  6
 35 62  1  1
 37 63  1  0
 37 64  1  0
 37 65  1  0
 38 66  1  0
 38 67  1  0
 38 68  1  0
 39 69  1  0
M  CHG  1  38   1
M  END
>  <score>  (7) 
-6.916

$$$$
=
     RDKit          3D

 69 73  0  0  0  0  0  0  0  0999 V2000
    2.2020   62.4980   71.2930 C   0  0  1  0  0  0  0  0  0  0  0  0
    0.8020   63.0190   70.9550 C   0  0  0  0  0  0  0  0  0  0  0  0
   -0.2250   62.7070   72.0490 C   0  0  1  0  0  0  0  0  0  0  0  0
   -0.1260   61.3020   72.6090 C   0  0  0  0  0  0  0  0  0  0  0  0
    1.0130   60.5040   72.3900 C   0  0  0  0  0  0  0  0  0  0  0  0
    2.1470   60.9740   71.4980 C   0  0  0  0  0  0  0  0  0  0  0  0
    1.0650   59.2130   72.9450 C   0  0  0  0  0  0  0  0  0  0  0  0
    0.0110   58.7070   73.7250 C   0  0  0  0  0  0  0  0  0  0  0  0
   -1.1120   59.4890   73.9540 C   0  0  0  0  0  0  0  0  0  0  0  0
   -1.1760   60.7820   73.3920 C   0  0  0  0  0  0  0  0  0  0  0  0
   -2.2260   58.9710   74.7820 C   0  0  0  0  0  0  0  0  0  0  0  0
   -3.1620   59.7390   74.9940 O   0  0  0  0  0  0  0  0  0  0  0  0
   -2.1810   57.5850   75.3220 C   0  0  0  0  0  0  0  0  0  0  0  0
   -1.0400   56.8130   75.0780 C   0  0  0  0  0  0  0  0  0  0  0  0
    0.0880   57.3520   74.2980 C   0  0  0  0  0  0  0  0  0  0  0  0
    1.0980   56.6790   74.1140 O   0  0  0  0  0  0  0  0  0  0  0  0
   -0.9440   55.5040   75.5690 C   0  0  0  0  0  0  0  0  0  0  0  0
   -1.9900   54.9610   76.3050 C   0  0  0  0  0  0  0  0  0  0  0  0
   -3.1330   55.7210   76.5530 C   0  0  0  0  0  0  0  0  0  0  0  0
   -3.2450   57.0320   76.0670 C   0  0  0  0  0  0  0  0  0  0  0  0
    3.1440   62.8430   70.1240 C   0  0  0  0  0  0  0  0  0  0  0  0
    2.8020   62.7640   68.9420 O   0  0  0  0  0  0  0  0  0  0  0  0
    4.5540   63.3110   70.4800 C   0  0  0  0  0  0  0  0  0  0  0  0
    5.2640   62.3250   71.2160 O   0  0  0  0  0  0  0  0  0  0  0  0
    2.7100   63.1400   72.4680 O   0  0  0  0  0  0  0  0  0  0  0  0
    2.1910   58.4750   72.6820 O   0  0  0  0  0  0  0  0  0  0  0  0
   -2.2770   61.5910   73.5810 O   0  0  0  0  0  0  0  0  0  0  0  0
   -4.3470   57.8160   76.2820 O   0  0  0  0  0  0  0  0  0  0  0  0
   -5.3750   57.3250   77.1320 C   0  0  0  0  0  0  0  0  0  0  0  0
   -0.0360   63.6140   73.1410 O   0  0  0  0  0  0  0  0  0  0  0  0
   -0.3210   63.0360   74.4010 C   0  0  1  0  0  0  0  0  0  0  0  0
    1.0280   62.7270   75.0640 C   0  0  0  0  0  0  0  0  0  0  0  0
    0.9040   62.8350   76.5690 C   0  0  1  0  0  0  0  0  0  0  0  0
   -0.4770   62.3780   77.0510 C   0  0  2  0  0  0  0  0  0  0  0  0
   -1.5140   63.3560   76.4670 C   0  0  1  0  0  0  0  0  0  0  0  0
   -1.0620   63.9280   75.2310 O   0  0  0  0  0  0  0  0  0  0  0  0
   -2.8780   62.7030   76.2740 C   0  0  0  0  0  0  0  0  0  0  0  0
    1.9480   62.0240   77.2640 N   0  0  0  0  0  4  0  0  0  0  0  0
   -0.4560   62.3490   78.4810 O   0  0  0  0  0  0  0  0  0  0  0  0
    0.8548   64.1097   70.8226 H   0  0  0  0  0  0  0  0  0  0  0  0
    0.4722   62.5132   70.0355 H   0  0  0  0  0  0  0  0  0  0  0  0
   -1.2116   62.8094   71.5734 H   0  0  0  0  0  0  0  0  0  0  0  0
    3.0968   60.6528   71.9504 H   0  0  0  0  0  0  0  0  0  0  0  0
    1.9732   60.5291   70.5071 H   0  0  0  0  0  0  0  0  0  0  0  0
   -0.0414   54.9069   75.3719 H   0  0  0  0  0  0  0  0  0  0  0  0
   -1.9168   53.9337   76.6914 H   0  0  0  0  0  0  0  0  0  0  0  0
   -3.9574   55.2865   77.1374 H   0  0  0  0  0  0  0  0  0  0  0  0
    5.1030   63.5272   69.5516 H   0  0  0  0  0  0  0  0  0  0  0  0
    4.4689   64.2115   71.1060 H   0  0  0  0  0  0  0  0  0  0  0  0
    5.1463   62.4884   72.1853 H   0  0  0  0  0  0  0  0  0  0  0  0
    2.3519   62.6874   73.2723 H   0  0  0  0  0  0  0  0  0  0  0  0
    2.2795   57.5595   73.0482 H   0  0  0  0  0  0  0  0  0  0  0  0
   -3.0401   61.2696   74.1237 H   0  0  0  0  0  0  0  0  0  0  0  0
   -5.0806   57.4656   78.1825 H   0  0  0  0  0  0  0  0  0  0  0  0
   -6.3071   57.8751   76.9357 H   0  0  0  0  0  0  0  0  0  0  0  0
   -5.5329   56.2542   76.9357 H   0  0  0  0  0  0  0  0  0  0  0  0
   -0.9310   62.1306   74.2664 H   0  0  0  0  0  0  0  0  0  0  0  0
    1.3396   61.7065   74.7968 H   0  0  0  0  0  0  0  0  0  0  0  0
    1.7772   63.4511   74.7113 H   0  0  0  0  0  0  0  0  0  0  0  0
    1.0440   63.8972   76.8183 H   0  0  0  0  0  0  0  0  0  0  0  0
   -0.7459   61.3667   76.7119 H   0  0  0  0  0  0  0  0  0  0  0  0
   -1.6275   64.1628   77.2061 H   0  0  0  0  0  0  0  0  0  0  0  0
   -3.3245   62.4893   77.2563 H   0  0  0  0  0  0  0  0  0  0  0  0
   -3.5347   63.3844   75.7132 H   0  0  0  0  0  0  0  0  0  0  0  0
   -2.7590   61.7642   75.7132 H   0  0  0  0  0  0  0  0  0  0  0  0
    1.8311   62.1148   78.2833 H   0  0  0  0  0  0  0  0  0  0  0  0
    1.8505   61.0348   76.9940 H   0  0  0  0  0  0  0  0  0  0  0  0
    2.8823   62.3631   76.9940 H   0  0  0  0  0  0  0  0  0  0  0  0
   -0.9984   63.0981   78.8343 H   0  0  0  0  0  0  0  0  0  0  0  0
  2  1  1  0
  3  2  1  0
  4  3  1  0
  5  4  2  0
  6  5  1  0
  6  1  1  0
  7  5  1  0
  8  7  2  0
  9  8  1  0
 10  4  1  0
 10  9  2  0
 11  9  1  0
 12 11  2  0
 13 11  1  0
 14 13  2  0
 15  8  1  0
 15 14  1  0
 16 15  2  0
 17 14  1  0
 18 17  2  0
 19 18  1  0
 20 19  2  0
 20 13  1  0
 21  1  1  0
 22 21  2  0
 23 21  1  0
 24 23  1  0
  1 25  1  1
 26  7  1  0
 27 10  1  0
 28 20  1  0
 29 28  1  0
 30  3  1  0
 31 30  1  0
 32 31  1  0
 33 32  1  0
 34 33  1  0
 35 34  1  0
 36 31  1  0
 36 35  1  0
 37 35  1  0
 38 33  1  0
 39 34  1  0
  2 40  1  0
  2 41  1  0
  3 42  1  6
  6 43  1  0
  6 44  1  0
 17 45  1  0
 18 46  1  0
 19 47  1  0
 23 48  1  0
 23 49  1  0
 24 50  1  0
 25 51  1  0
 26 52  1  0
 27 53  1  0
 29 54  1  0
 29 55  1  0
 29 56  1  0
 31 57  1  6
 32 58  1  0
 32 59  1  0
 33 60  1  6
 34 61  1  6
 35 62  1  1
 37 63  1  0
 37 64  1  0
 37 65  1  0
 38 66  1  0
 38 67  1  0
 38 68  1  0
 39 69  1  0
M  CHG  1  38   1
M  END
>  <score>  (8) 
-6.723

$$$$
=
     RDKit          3D

 69 73  0  0  0  0  0  0  0  0999 V2000
    2.8480   61.6000   72.1760 C   0  0  1  0  0  0  0  0  0  0  0  0
    3.3620   60.5810   73.1970 C   0  0  0  0  0  0  0  0  0  0  0  0
    2.2570   60.0610   74.1220 C   0  0  1  0  0  0  0  0  0  0  0  0
    1.3180   61.1360   74.6300 C   0  0  0  0  0  0  0  0  0  0  0  0
    1.2660   62.4080   74.0290 C   0  0  0  0  0  0  0  0  0  0  0  0
    2.2190   62.7950   72.9140 C   0  0  0  0  0  0  0  0  0  0  0  0
    0.3650   63.3680   74.5270 C   0  0  0  0  0  0  0  0  0  0  0  0
   -0.4940   63.0800   75.6000 C   0  0  0  0  0  0  0  0  0  0  0  0
   -0.4560   61.8260   76.1940 C   0  0  0  0  0  0  0  0  0  0  0  0
    0.4510   60.8610   75.7080 C   0  0  0  0  0  0  0  0  0  0  0  0
   -1.3640   61.5070   77.3210 C   0  0  0  0  0  0  0  0  0  0  0  0
   -1.3200   60.3600   77.7590 O   0  0  0  0  0  0  0  0  0  0  0  0
   -2.2760   62.5460   77.8700 C   0  0  0  0  0  0  0  0  0  0  0  0
   -2.2970   63.8040   77.2590 C   0  0  0  0  0  0  0  0  0  0  0  0
   -1.4310   64.0990   76.1030 C   0  0  0  0  0  0  0  0  0  0  0  0
   -1.4770   65.1960   75.5530 O   0  0  0  0  0  0  0  0  0  0  0  0
   -3.1430   64.8150   77.7320 C   0  0  0  0  0  0  0  0  0  0  0  0
   -3.9700   64.5740   78.8210 C   0  0  0  0  0  0  0  0  0  0  0  0
   -3.9570   63.3250   79.4410 C   0  0  0  0  0  0  0  0  0  0  0  0
   -3.1150   62.3020   78.9800 C   0  0  0  0  0  0  0  0  0  0  0  0
    4.0370   62.0710   71.3180 C   0  0  0  0  0  0  0  0  0  0  0  0
    4.1570   63.2330   70.9200 O   0  0  0  0  0  0  0  0  0  0  0  0
    5.1020   61.0330   70.9710 C   0  0  0  0  0  0  0  0  0  0  0  0
    4.6280   60.0930   70.0170 O   0  0  0  0  0  0  0  0  0  0  0  0
    1.8880   60.9970   71.3000 O   0  0  0  0  0  0  0  0  0  0  0  0
    0.3730   64.5950   73.9130 O   0  0  0  0  0  0  0  0  0  0  0  0
    0.5330   59.6060   76.2740 O   0  0  0  0  0  0  0  0  0  0  0  0
   -3.0640   61.0600   79.5540 O   0  0  0  0  0  0  0  0  0  0  0  0
   -4.2840   60.3610   79.7680 C   0  0  0  0  0  0  0  0  0  0  0  0
    1.4630   59.1050   73.4110 O   0  0  0  0  0  0  0  0  0  0  0  0
    1.6800   57.7720   73.8360 C   0  0  1  0  0  0  0  0  0  0  0  0
    2.9900   57.7710   74.6370 C   0  0  0  0  0  0  0  0  0  0  0  0
    2.9420   56.7000   75.7070 C   0  0  1  0  0  0  0  0  0  0  0  0
    2.1560   55.4720   75.2370 C   0  0  2  0  0  0  0  0  0  0  0  0
    0.6980   55.9170   75.0130 C   0  0  1  0  0  0  0  0  0  0  0  0
    0.6190   57.3070   74.6660 O   0  0  0  0  0  0  0  0  0  0  0  0
   -0.0070   55.0720   73.9590 C   0  0  0  0  0  0  0  0  0  0  0  0
    4.3140   56.2680   76.1110 N   0  0  0  0  0  4  0  0  0  0  0  0
    2.3000   54.4510   76.2280 O   0  0  0  0  0  0  0  0  0  0  0  0
    3.7970   59.7285   72.6548 H   0  0  0  0  0  0  0  0  0  0  0  0
    4.1092   61.0882   73.8250 H   0  0  0  0  0  0  0  0  0  0  0  0
    2.7721   59.6275   74.9919 H   0  0  0  0  0  0  0  0  0  0  0  0
    1.6646   63.3996   72.1811 H   0  0  0  0  0  0  0  0  0  0  0  0
    3.0467   63.3464   73.3839 H   0  0  0  0  0  0  0  0  0  0  0  0
   -3.1523   65.7993   77.2411 H   0  0  0  0  0  0  0  0  0  0  0  0
   -4.6345   65.3672   79.1941 H   0  0  0  0  0  0  0  0  0  0  0  0
   -4.6153   63.1395   80.3025 H   0  0  0  0  0  0  0  0  0  0  0  0
    5.9810   61.5487   70.5571 H   0  0  0  0  0  0  0  0  0  0  0  0
    5.3618   60.4876   71.8902 H   0  0  0  0  0  0  0  0  0  0  0  0
    4.2357   59.3150   70.4870 H   0  0  0  0  0  0  0  0  0  0  0  0
    1.1836   60.5545   71.8368 H   0  0  0  0  0  0  0  0  0  0  0  0
   -0.2404   65.3076   74.2229 H   0  0  0  0  0  0  0  0  0  0  0  0
   -0.0552   59.3660   77.0333 H   0  0  0  0  0  0  0  0  0  0  0  0
   -4.4631   60.2584   80.8485 H   0  0  0  0  0  0  0  0  0  0  0  0
   -5.1127   60.9213   79.3105 H   0  0  0  0  0  0  0  0  0  0  0  0
   -4.2197   59.3627   79.3105 H   0  0  0  0  0  0  0  0  0  0  0  0
    1.7285   57.1046   72.9629 H   0  0  0  0  0  0  0  0  0  0  0  0
    3.8319   57.5702   73.9581 H   0  0  0  0  0  0  0  0  0  0  0  0
    3.1220   58.7530   75.1147 H   0  0  0  0  0  0  0  0  0  0  0  0
    2.4325   57.1474   76.5732 H   0  0  0  0  0  0  0  0  0  0  0  0
    2.5250   55.0541   74.2887 H   0  0  0  0  0  0  0  0  0  0  0  0
    0.1776   55.7647   75.9701 H   0  0  0  0  0  0  0  0  0  0  0  0
   -0.6362   54.3179   74.4544 H   0  0  0  0  0  0  0  0  0  0  0  0
   -0.6365   55.7195   73.3309 H   0  0  0  0  0  0  0  0  0  0  0  0
    0.7428   54.5687   73.3309 H   0  0  0  0  0  0  0  0  0  0  0  0
    4.3788   56.2476   77.1388 H   0  0  0  0  0  0  0  0  0  0  0  0
    4.5019   55.3271   75.7364 H   0  0  0  0  0  0  0  0  0  0  0  0
    5.0071   56.9315   75.7364 H   0  0  0  0  0  0  0  0  0  0  0  0
    2.2429   54.8559   77.1296 H   0  0  0  0  0  0  0  0  0  0  0  0
  2  1  1  0
  3  2  1  0
  4  3  1  0
  5  4  2  0
  6  5  1  0
  6  1  1  0
  7  5  1  0
  8  7  2  0
  9  8  1  0
 10  4  1  0
 10  9  2  0
 11  9  1  0
 12 11  2  0
 13 11  1  0
 14 13  2  0
 15  8  1  0
 15 14  1  0
 16 15  2  0
 17 14  1  0
 18 17  2  0
 19 18  1  0
 20 19  2  0
 20 13  1  0
 21  1  1  0
 22 21  2  0
 23 21  1  0
 24 23  1  0
  1 25  1  6
 26  7  1  0
 27 10  1  0
 28 20  1  0
 29 28  1  0
 30  3  1  0
 31 30  1  0
 32 31  1  0
 33 32  1  0
 34 33  1  0
 35 34  1  0
 36 31  1  0
 36 35  1  0
 37 35  1  0
 38 33  1  0
 39 34  1  0
  2 40  1  0
  2 41  1  0
  3 42  1  1
  6 43  1  0
  6 44  1  0
 17 45  1  0
 18 46  1  0
 19 47  1  0
 23 48  1  0
 23 49  1  0
 24 50  1  0
 25 51  1  0
 26 52  1  0
 27 53  1  0
 29 54  1  0
 29 55  1  0
 29 56  1  0
 31 57  1  6
 32 58  1  0
 32 59  1  0
 33 60  1  1
 34 61  1  6
 35 62  1  1
 37 63  1  0
 37 64  1  0
 37 65  1  0
 38 66  1  0
 38 67  1  0
 38 68  1  0
 39 69  1  0
M  CHG  1  38   1
M  END
>  <score>  (9) 
-6.684

$$$$
