=
     RDKit          3D

 51 52  0  0  0  0  0  0  0  0999 V2000
    5.5840   69.1510   65.1180 C   0  0  0  0  0  0  0  0  0  0  0  0
    4.4360   69.7030   65.9670 C   0  0  0  0  0  0  0  0  0  0  0  0
    4.8340   69.9860   67.4190 C   0  0  0  0  0  0  0  0  0  0  0  0
    3.6460   69.9800   68.3850 C   0  0  0  0  0  0  0  0  0  0  0  0
    2.3120   69.6690   67.6990 C   0  0  0  0  0  0  0  0  0  0  0  0
    1.6320   68.4090   68.2400 C   0  0  0  0  0  0  0  0  0  0  0  0
   -2.4330   68.0980   66.8670 C   0  0  0  0  0  0  0  0  0  0  0  0
   -1.8560   67.0300   67.5470 C   0  0  0  0  0  0  0  0  0  0  0  0
   -0.5380   67.1350   67.9950 C   0  0  0  0  0  0  0  0  0  0  0  0
    0.2020   68.3050   67.7690 C   0  0  0  0  0  0  0  0  0  0  0  0
   -0.3970   69.3670   67.0760 C   0  0  0  0  0  0  0  0  0  0  0  0
   -1.7140   69.2630   66.6280 C   0  0  0  0  0  0  0  0  0  0  0  0
   -3.7170   68.0390   66.4110 O   0  0  0  0  0  0  0  0  0  0  0  0
    5.4070   69.5160   63.6440 C   0  0  0  0  0  0  0  0  0  0  0  0
    5.6710   68.3150   62.7400 C   0  0  0  0  0  0  0  0  0  0  0  0
    4.4410   67.4380   62.6390 C   0  0  0  0  0  0  0  0  0  0  0  0
    4.5440   66.2090   62.5670 O   0  0  0  0  0  0  0  0  0  0  0  0
    3.0700   68.0230   62.7010 C   0  0  0  0  0  0  0  0  0  0  0  0
    2.2940   67.7750   63.8490 C   0  0  0  0  0  0  0  0  0  0  0  0
    1.0210   68.3230   63.9900 C   0  0  0  0  0  0  0  0  0  0  0  0
    0.4880   69.1100   62.9740 C   0  0  0  0  0  0  0  0  0  0  0  0
    1.2260   69.3400   61.8130 C   0  0  0  0  0  0  0  0  0  0  0  0
    2.5070   68.7930   61.6750 C   0  0  0  0  0  0  0  0  0  0  0  0
    2.7250   66.9940   64.8910 O   0  0  0  0  0  0  0  0  0  0  0  0
    3.1790   69.0010   60.5010 O   0  0  0  0  0  0  0  0  0  0  0  0
    6.5332   69.5725   65.4805 H   0  0  0  0  0  0  0  0  0  0  0  0
    5.5872   68.0546   65.2073 H   0  0  0  0  0  0  0  0  0  0  0  0
    4.0861   70.6415   65.5122 H   0  0  0  0  0  0  0  0  0  0  0  0
    3.6503   68.9335   65.9900 H   0  0  0  0  0  0  0  0  0  0  0  0
    5.5499   69.2155   67.7413 H   0  0  0  0  0  0  0  0  0  0  0  0
    5.2708   70.9952   67.4462 H   0  0  0  0  0  0  0  0  0  0  0  0
    3.8276   69.2185   69.1578 H   0  0  0  0  0  0  0  0  0  0  0  0
    3.5664   70.9908   68.8116 H   0  0  0  0  0  0  0  0  0  0  0  0
    1.6349   70.5229   67.8490 H   0  0  0  0  0  0  0  0  0  0  0  0
    2.5265   69.4919   66.6348 H   0  0  0  0  0  0  0  0  0  0  0  0
    2.1878   67.5258   67.8921 H   0  0  0  0  0  0  0  0  0  0  0  0
    1.6298   68.4634   69.3387 H   0  0  0  0  0  0  0  0  0  0  0  0
   -2.4330   66.1115   67.7299 H   0  0  0  0  0  0  0  0  0  0  0  0
   -0.0756   66.2925   68.5301 H   0  0  0  0  0  0  0  0  0  0  0  0
    0.1748   70.2870   66.8847 H   0  0  0  0  0  0  0  0  0  0  0  0
   -2.1814   70.0995   66.0879 H   0  0  0  0  0  0  0  0  0  0  0  0
   -4.1073   68.8110   65.9295 H   0  0  0  0  0  0  0  0  0  0  0  0
    4.3768   69.8663   63.4828 H   0  0  0  0  0  0  0  0  0  0  0  0
    6.1303   70.3057   63.3925 H   0  0  0  0  0  0  0  0  0  0  0  0
    5.9427   68.6723   61.7357 H   0  0  0  0  0  0  0  0  0  0  0  0
    6.4920   67.7230   63.1707 H   0  0  0  0  0  0  0  0  0  0  0  0
    0.4380   68.1337   64.9034 H   0  0  0  0  0  0  0  0  0  0  0  0
   -0.5138   69.5501   63.0862 H   0  0  0  0  0  0  0  0  0  0  0  0
    0.8005   69.9524   61.0043 H   0  0  0  0  0  0  0  0  0  0  0  0
    2.1403   66.8504   65.6769 H   0  0  0  0  0  0  0  0  0  0  0  0
    4.0865   68.6253   60.3768 H   0  0  0  0  0  0  0  0  0  0  0  0
  2  1  1  0
  3  2  1  0
  4  3  1  0
  5  4  1  0
  6  5  1  0
  8  7  2  0
  9  8  1  0
 10  9  2  0
 10  6  1  0
 11 10  1  0
 12 11  2  0
 12  7  1  0
 13  7  1  0
 14  1  1  0
 15 14  1  0
 16 15  1  0
 17 16  2  0
 18 16  1  0
 19 18  2  0
 20 19  1  0
 21 20  2  0
 22 21  1  0
 23 22  2  0
 23 18  1  0
 24 19  1  0
 25 23  1  0
  1 26  1  0
  1 27  1  0
  2 28  1  0
  2 29  1  0
  3 30  1  0
  3 31  1  0
  4 32  1  0
  4 33  1  0
  5 34  1  0
  5 35  1  0
  6 36  1  0
  6 37  1  0
  8 38  1  0
  9 39  1  0
 11 40  1  0
 12 41  1  0
 13 42  1  0
 14 43  1  0
 14 44  1  0
 15 45  1  0
 15 46  1  0
 20 47  1  0
 21 48  1  0
 22 49  1  0
 24 50  1  0
 25 51  1  0
M  END
>  <score>  (1) 
-9.266

$$$$
=
     RDKit          3D

 51 52  0  0  0  0  0  0  0  0999 V2000
    1.0030   66.8340   69.5450 C   0  0  0  0  0  0  0  0  0  0  0  0
    0.1230   65.8590   70.3300 C   0  0  0  0  0  0  0  0  0  0  0  0
    0.8390   64.5560   70.7010 C   0  0  0  0  0  0  0  0  0  0  0  0
    2.3110   64.5340   70.2780 C   0  0  0  0  0  0  0  0  0  0  0  0
    3.1580   63.5510   71.0930 C   0  0  0  0  0  0  0  0  0  0  0  0
    2.3270   62.4800   71.8030 C   0  0  0  0  0  0  0  0  0  0  0  0
    3.4610   58.5110   70.5930 C   0  0  0  0  0  0  0  0  0  0  0  0
    3.5070   59.5480   69.6670 C   0  0  0  0  0  0  0  0  0  0  0  0
    3.1420   60.8370   70.0630 C   0  0  0  0  0  0  0  0  0  0  0  0
    2.7370   61.0900   71.3820 C   0  0  0  0  0  0  0  0  0  0  0  0
    2.6920   60.0280   72.2970 C   0  0  0  0  0  0  0  0  0  0  0  0
    3.0570   58.7400   71.9020 C   0  0  0  0  0  0  0  0  0  0  0  0
    3.8080   57.2370   70.2500 O   0  0  0  0  0  0  0  0  0  0  0  0
    0.3040   67.3100   68.2710 C   0  0  0  0  0  0  0  0  0  0  0  0
    1.3130   67.7370   67.2100 C   0  0  0  0  0  0  0  0  0  0  0  0
    1.7300   69.1780   67.4150 C   0  0  0  0  0  0  0  0  0  0  0  0
    0.9050   70.0330   67.7510 O   0  0  0  0  0  0  0  0  0  0  0  0
    3.1570   69.5930   67.2920 C   0  0  0  0  0  0  0  0  0  0  0  0
    3.7850   70.1530   68.4200 C   0  0  0  0  0  0  0  0  0  0  0  0
    5.1270   70.5260   68.3880 C   0  0  0  0  0  0  0  0  0  0  0  0
    5.8620   70.3690   67.2170 C   0  0  0  0  0  0  0  0  0  0  0  0
    5.2510   69.8480   66.0760 C   0  0  0  0  0  0  0  0  0  0  0  0
    3.9040   69.4680   66.1130 C   0  0  0  0  0  0  0  0  0  0  0  0
    3.1360   70.3680   69.6100 O   0  0  0  0  0  0  0  0  0  0  0  0
    3.3280   69.0080   64.9600 O   0  0  0  0  0  0  0  0  0  0  0  0
    1.2260   67.7052   70.1784 H   0  0  0  0  0  0  0  0  0  0  0  0
    1.9291   66.3136   69.2595 H   0  0  0  0  0  0  0  0  0  0  0  0
   -0.2040   66.3532   71.2567 H   0  0  0  0  0  0  0  0  0  0  0  0
   -0.7234   65.5908   69.6807 H   0  0  0  0  0  0  0  0  0  0  0  0
    0.7870   64.4271   71.7922 H   0  0  0  0  0  0  0  0  0  0  0  0
    0.3326   63.7407   70.1637 H   0  0  0  0  0  0  0  0  0  0  0  0
    2.3659   64.2471   69.2175 H   0  0  0  0  0  0  0  0  0  0  0  0
    2.7173   65.5408   70.4550 H   0  0  0  0  0  0  0  0  0  0  0  0
    3.8639   63.0514   70.4132 H   0  0  0  0  0  0  0  0  0  0  0  0
    3.6734   64.1327   71.8715 H   0  0  0  0  0  0  0  0  0  0  0  0
    2.4682   62.5803   72.8893 H   0  0  0  0  0  0  0  0  0  0  0  0
    1.2716   62.6254   71.5293 H   0  0  0  0  0  0  0  0  0  0  0  0
    3.8278   59.3549   68.6327 H   0  0  0  0  0  0  0  0  0  0  0  0
    3.1724   61.6605   69.3344 H   0  0  0  0  0  0  0  0  0  0  0  0
    2.3672   60.2112   73.3319 H   0  0  0  0  0  0  0  0  0  0  0  0
    3.0249   57.9105   72.6237 H   0  0  0  0  0  0  0  0  0  0  0  0
    3.7678   56.5142   70.9253 H   0  0  0  0  0  0  0  0  0  0  0  0
   -0.3100   66.4894   67.8715 H   0  0  0  0  0  0  0  0  0  0  0  0
   -0.3222   68.1785   68.5231 H   0  0  0  0  0  0  0  0  0  0  0  0
    2.2012   67.0915   67.2762 H   0  0  0  0  0  0  0  0  0  0  0  0
    0.8446   67.6426   66.2192 H   0  0  0  0  0  0  0  0  0  0  0  0
    5.6045   70.9437   69.2866 H   0  0  0  0  0  0  0  0  0  0  0  0
    6.9237   70.6554   67.1909 H   0  0  0  0  0  0  0  0  0  0  0  0
    5.8282   69.7357   65.1464 H   0  0  0  0  0  0  0  0  0  0  0  0
    3.6232   70.7653   70.3748 H   0  0  0  0  0  0  0  0  0  0  0  0
    2.3771   68.7325   64.9574 H   0  0  0  0  0  0  0  0  0  0  0  0
  2  1  1  0
  3  2  1  0
  4  3  1  0
  5  4  1  0
  6  5  1  0
  8  7  2  0
  9  8  1  0
 10  9  2  0
 10  6  1  0
 11 10  1  0
 12 11  2  0
 12  7  1  0
 13  7  1  0
 14  1  1  0
 15 14  1  0
 16 15  1  0
 17 16  2  0
 18 16  1  0
 19 18  2  0
 20 19  1  0
 21 20  2  0
 22 21  1  0
 23 22  2  0
 23 18  1  0
 24 19  1  0
 25 23  1  0
  1 26  1  0
  1 27  1  0
  2 28  1  0
  2 29  1  0
  3 30  1  0
  3 31  1  0
  4 32  1  0
  4 33  1  0
  5 34  1  0
  5 35  1  0
  6 36  1  0
  6 37  1  0
  8 38  1  0
  9 39  1  0
 11 40  1  0
 12 41  1  0
 13 42  1  0
 14 43  1  0
 14 44  1  0
 15 45  1  0
 15 46  1  0
 20 47  1  0
 21 48  1  0
 22 49  1  0
 24 50  1  0
 25 51  1  0
M  END
>  <score>  (2) 
-8.913

$$$$
=
     RDKit          3D

 51 52  0  0  0  0  0  0  0  0999 V2000
    1.1590   66.6100   69.6620 C   0  0  0  0  0  0  0  0  0  0  0  0
    0.3690   65.6320   70.5340 C   0  0  0  0  0  0  0  0  0  0  0  0
    1.0480   64.2660   70.6840 C   0  0  0  0  0  0  0  0  0  0  0  0
    2.5750   64.3350   70.5840 C   0  0  0  0  0  0  0  0  0  0  0  0
    3.1440   63.4810   69.4470 C   0  0  0  0  0  0  0  0  0  0  0  0
    4.4950   62.8450   69.7850 C   0  0  0  0  0  0  0  0  0  0  0  0
    3.9950   59.3700   72.2720 C   0  0  0  0  0  0  0  0  0  0  0  0
    3.4840   59.3650   70.9780 C   0  0  0  0  0  0  0  0  0  0  0  0
    3.6510   60.4930   70.1710 C   0  0  0  0  0  0  0  0  0  0  0  0
    4.3300   61.6210   70.6530 C   0  0  0  0  0  0  0  0  0  0  0  0
    4.8310   61.6070   71.9630 C   0  0  0  0  0  0  0  0  0  0  0  0
    4.6640   60.4800   72.7700 C   0  0  0  0  0  0  0  0  0  0  0  0
    3.8540   58.2910   73.0940 O   0  0  0  0  0  0  0  0  0  0  0  0
    0.2840   67.1940   68.5520 C   0  0  0  0  0  0  0  0  0  0  0  0
    1.1250   67.6430   67.3620 C   0  0  0  0  0  0  0  0  0  0  0  0
    1.5240   69.0960   67.5030 C   0  0  0  0  0  0  0  0  0  0  0  0
    0.6820   69.9590   67.7740 O   0  0  0  0  0  0  0  0  0  0  0  0
    2.9500   69.5180   67.3970 C   0  0  0  0  0  0  0  0  0  0  0  0
    3.6270   69.2710   66.1880 C   0  0  0  0  0  0  0  0  0  0  0  0
    4.9480   69.6750   66.0060 C   0  0  0  0  0  0  0  0  0  0  0  0
    5.6270   70.3120   67.0410 C   0  0  0  0  0  0  0  0  0  0  0  0
    4.9860   70.5350   68.2590 C   0  0  0  0  0  0  0  0  0  0  0  0
    3.6570   70.1350   68.4380 C   0  0  0  0  0  0  0  0  0  0  0  0
    3.0490   68.6300   65.1220 O   0  0  0  0  0  0  0  0  0  0  0  0
    3.0800   70.3280   69.6630 O   0  0  0  0  0  0  0  0  0  0  0  0
    1.5338   67.4301   70.2921 H   0  0  0  0  0  0  0  0  0  0  0  0
    1.9936   66.0651   69.1967 H   0  0  0  0  0  0  0  0  0  0  0  0
    0.2501   66.0741   71.5342 H   0  0  0  0  0  0  0  0  0  0  0  0
   -0.5977   65.4617   70.0375 H   0  0  0  0  0  0  0  0  0  0  0  0
    0.7808   63.8491   71.6662 H   0  0  0  0  0  0  0  0  0  0  0  0
    0.6952   63.6337   69.8559 H   0  0  0  0  0  0  0  0  0  0  0  0
    2.8674   65.3819   70.4151 H   0  0  0  0  0  0  0  0  0  0  0  0
    2.9827   63.9392   71.5259 H   0  0  0  0  0  0  0  0  0  0  0  0
    2.4269   62.6781   69.2209 H   0  0  0  0  0  0  0  0  0  0  0  0
    3.3040   64.1481   68.5871 H   0  0  0  0  0  0  0  0  0  0  0  0
    4.9971   62.5550   68.8502 H   0  0  0  0  0  0  0  0  0  0  0  0
    5.0939   63.5825   70.3395 H   0  0  0  0  0  0  0  0  0  0  0  0
    2.9535   58.4812   70.5940 H   0  0  0  0  0  0  0  0  0  0  0  0
    3.2461   60.4962   69.1482 H   0  0  0  0  0  0  0  0  0  0  0  0
    5.3582   62.4885   72.3566 H   0  0  0  0  0  0  0  0  0  0  0  0
    5.0607   60.4715   73.7959 H   0  0  0  0  0  0  0  0  0  0  0  0
    4.2254   58.3157   74.0114 H   0  0  0  0  0  0  0  0  0  0  0  0
   -0.4297   66.4268   68.2173 H   0  0  0  0  0  0  0  0  0  0  0  0
   -0.2463   68.0704   68.9528 H   0  0  0  0  0  0  0  0  0  0  0  0
    2.0324   67.0236   67.3076 H   0  0  0  0  0  0  0  0  0  0  0  0
    0.5277   67.5290   66.4453 H   0  0  0  0  0  0  0  0  0  0  0  0
    5.4534   69.4910   65.0464 H   0  0  0  0  0  0  0  0  0  0  0  0
    6.6675   70.6389   66.8981 H   0  0  0  0  0  0  0  0  0  0  0  0
    5.5264   71.0266   69.0814 H   0  0  0  0  0  0  0  0  0  0  0  0
    3.5690   68.4807   64.2929 H   0  0  0  0  0  0  0  0  0  0  0  0
    2.1411   70.0541   69.8166 H   0  0  0  0  0  0  0  0  0  0  0  0
  2  1  1  0
  3  2  1  0
  4  3  1  0
  5  4  1  0
  6  5  1  0
  8  7  2  0
  9  8  1  0
 10  9  2  0
 10  6  1  0
 11 10  1  0
 12 11  2  0
 12  7  1  0
 13  7  1  0
 14  1  1  0
 15 14  1  0
 16 15  1  0
 17 16  2  0
 18 16  1  0
 19 18  2  0
 20 19  1  0
 21 20  2  0
 22 21  1  0
 23 22  2  0
 23 18  1  0
 24 19  1  0
 25 23  1  0
  1 26  1  0
  1 27  1  0
  2 28  1  0
  2 29  1  0
  3 30  1  0
  3 31  1  0
  4 32  1  0
  4 33  1  0
  5 34  1  0
  5 35  1  0
  6 36  1  0
  6 37  1  0
  8 38  1  0
  9 39  1  0
 11 40  1  0
 12 41  1  0
 13 42  1  0
 14 43  1  0
 14 44  1  0
 15 45  1  0
 15 46  1  0
 20 47  1  0
 21 48  1  0
 22 49  1  0
 24 50  1  0
 25 51  1  0
M  END
>  <score>  (3) 
-8.67

$$$$
=
     RDKit          3D

 51 52  0  0  0  0  0  0  0  0999 V2000
    3.0650   68.3310   61.4760 C   0  0  0  0  0  0  0  0  0  0  0  0
    4.1050   69.4510   61.5560 C   0  0  0  0  0  0  0  0  0  0  0  0
    5.4160   69.0170   62.2220 C   0  0  0  0  0  0  0  0  0  0  0  0
    5.2810   67.7320   63.0440 C   0  0  0  0  0  0  0  0  0  0  0  0
    5.2140   67.9850   64.5530 C   0  0  0  0  0  0  0  0  0  0  0  0
    5.6570   69.3950   64.9510 C   0  0  0  0  0  0  0  0  0  0  0  0
    4.1200   70.5320   68.8050 C   0  0  0  0  0  0  0  0  0  0  0  0
    3.3080   69.8240   67.9250 C   0  0  0  0  0  0  0  0  0  0  0  0
    3.8100   69.4520   66.6760 C   0  0  0  0  0  0  0  0  0  0  0  0
    5.1220   69.7830   66.3080 C   0  0  0  0  0  0  0  0  0  0  0  0
    5.9220   70.5030   67.2070 C   0  0  0  0  0  0  0  0  0  0  0  0
    5.4200   70.8750   68.4550 C   0  0  0  0  0  0  0  0  0  0  0  0
    3.6700   70.9150   70.0340 O   0  0  0  0  0  0  0  0  0  0  0  0
    1.7340   68.7670   62.0890 C   0  0  0  0  0  0  0  0  0  0  0  0
    1.8610   68.9830   63.5940 C   0  0  0  0  0  0  0  0  0  0  0  0
    1.2660   67.8180   64.3560 C   0  0  0  0  0  0  0  0  0  0  0  0
    1.7300   66.6790   64.2330 O   0  0  0  0  0  0  0  0  0  0  0  0
    0.1580   68.0200   65.3330 C   0  0  0  0  0  0  0  0  0  0  0  0
    0.3370   67.5490   66.6470 C   0  0  0  0  0  0  0  0  0  0  0  0
   -0.6420   67.7390   67.6200 C   0  0  0  0  0  0  0  0  0  0  0  0
   -1.8310   68.3830   67.2920 C   0  0  0  0  0  0  0  0  0  0  0  0
   -2.0430   68.8280   65.9870 C   0  0  0  0  0  0  0  0  0  0  0  0
   -1.0560   68.6410   65.0110 C   0  0  0  0  0  0  0  0  0  0  0  0
    1.4640   66.8820   67.0580 O   0  0  0  0  0  0  0  0  0  0  0  0
   -1.3230   69.0470   63.7330 O   0  0  0  0  0  0  0  0  0  0  0  0
    2.9041   68.0656   60.4207 H   0  0  0  0  0  0  0  0  0  0  0  0
    3.4414   67.4654   62.0408 H   0  0  0  0  0  0  0  0  0  0  0  0
    4.3290   69.7926   60.5347 H   0  0  0  0  0  0  0  0  0  0  0  0
    3.6744   70.2508   62.1764 H   0  0  0  0  0  0  0  0  0  0  0  0
    6.1686   68.8519   61.4369 H   0  0  0  0  0  0  0  0  0  0  0  0
    5.7100   69.8184   62.9158 H   0  0  0  0  0  0  0  0  0  0  0  0
    4.3608   67.2145   62.7351 H   0  0  0  0  0  0  0  0  0  0  0  0
    6.1794   67.1265   62.8538 H   0  0  0  0  0  0  0  0  0  0  0  0
    4.1759   67.8383   64.8858 H   0  0  0  0  0  0  0  0  0  0  0  0
    5.9071   67.2783   65.0328 H   0  0  0  0  0  0  0  0  0  0  0  0
    6.7561   69.4298   64.9773 H   0  0  0  0  0  0  0  0  0  0  0  0
    5.2593   70.1030   64.2090 H   0  0  0  0  0  0  0  0  0  0  0  0
    2.2792   69.5594   68.2105 H   0  0  0  0  0  0  0  0  0  0  0  0
    3.1710   68.8948   65.9752 H   0  0  0  0  0  0  0  0  0  0  0  0
    6.9502   70.7759   66.9272 H   0  0  0  0  0  0  0  0  0  0  0  0
    6.0511   71.4375   69.1587 H   0  0  0  0  0  0  0  0  0  0  0  0
    4.2652   71.4183   70.6443 H   0  0  0  0  0  0  0  0  0  0  0  0
    1.4136   69.7079   61.6178 H   0  0  0  0  0  0  0  0  0  0  0  0
    0.9941   67.9722   61.9136 H   0  0  0  0  0  0  0  0  0  0  0  0
    2.9250   69.0797   63.8560 H   0  0  0  0  0  0  0  0  0  0  0  0
    1.3151   69.8983   63.8663 H   0  0  0  0  0  0  0  0  0  0  0  0
   -0.4751   67.3803   68.6464 H   0  0  0  0  0  0  0  0  0  0  0  0
   -2.6023   68.5409   68.0602 H   0  0  0  0  0  0  0  0  0  0  0  0
   -2.9874   69.3269   65.7239 H   0  0  0  0  0  0  0  0  0  0  0  0
    1.5411   66.5708   67.9946 H   0  0  0  0  0  0  0  0  0  0  0  0
   -0.6433   68.9269   63.0233 H   0  0  0  0  0  0  0  0  0  0  0  0
  2  1  1  0
  3  2  1  0
  4  3  1  0
  5  4  1  0
  6  5  1  0
  8  7  2  0
  9  8  1  0
 10  9  2  0
 10  6  1  0
 11 10  1  0
 12 11  2  0
 12  7  1  0
 13  7  1  0
 14  1  1  0
 15 14  1  0
 16 15  1  0
 17 16  2  0
 18 16  1  0
 19 18  2  0
 20 19  1  0
 21 20  2  0
 22 21  1  0
 23 22  2  0
 23 18  1  0
 24 19  1  0
 25 23  1  0
  1 26  1  0
  1 27  1  0
  2 28  1  0
  2 29  1  0
  3 30  1  0
  3 31  1  0
  4 32  1  0
  4 33  1  0
  5 34  1  0
  5 35  1  0
  6 36  1  0
  6 37  1  0
  8 38  1  0
  9 39  1  0
 11 40  1  0
 12 41  1  0
 13 42  1  0
 14 43  1  0
 14 44  1  0
 15 45  1  0
 15 46  1  0
 20 47  1  0
 21 48  1  0
 22 49  1  0
 24 50  1  0
 25 51  1  0
M  END
>  <score>  (4) 
-8.487

$$$$
=
     RDKit          3D

 51 52  0  0  0  0  0  0  0  0999 V2000
    2.6500   68.3120   61.9680 C   0  0  0  0  0  0  0  0  0  0  0  0
    3.7540   69.1450   61.3120 C   0  0  0  0  0  0  0  0  0  0  0  0
    5.0950   69.0660   62.0510 C   0  0  0  0  0  0  0  0  0  0  0  0
    5.2550   67.7880   62.8790 C   0  0  0  0  0  0  0  0  0  0  0  0
    5.1440   68.0290   64.3880 C   0  0  0  0  0  0  0  0  0  0  0  0
    5.4890   69.4630   64.7990 C   0  0  0  0  0  0  0  0  0  0  0  0
    3.9160   70.3850   68.6950 C   0  0  0  0  0  0  0  0  0  0  0  0
    5.2480   70.6680   68.4100 C   0  0  0  0  0  0  0  0  0  0  0  0
    5.7560   70.3710   67.1430 C   0  0  0  0  0  0  0  0  0  0  0  0
    4.9340   69.7980   66.1620 C   0  0  0  0  0  0  0  0  0  0  0  0
    3.5960   69.5150   66.4730 C   0  0  0  0  0  0  0  0  0  0  0  0
    3.0890   69.8120   67.7390 C   0  0  0  0  0  0  0  0  0  0  0  0
    3.3790   70.6580   69.9190 O   0  0  0  0  0  0  0  0  0  0  0  0
    1.3350   69.0900   62.0330 C   0  0  0  0  0  0  0  0  0  0  0  0
    1.0120   69.5130   63.4630 C   0  0  0  0  0  0  0  0  0  0  0  0
   -0.2090   68.7810   63.9770 C   0  0  0  0  0  0  0  0  0  0  0  0
   -1.1480   68.5080   63.2210 O   0  0  0  0  0  0  0  0  0  0  0  0
   -0.2830   68.2990   65.3870 C   0  0  0  0  0  0  0  0  0  0  0  0
   -1.3580   68.7390   66.1820 C   0  0  0  0  0  0  0  0  0  0  0  0
   -1.5110   68.2970   67.4950 C   0  0  0  0  0  0  0  0  0  0  0  0
   -0.5760   67.4270   68.0470 C   0  0  0  0  0  0  0  0  0  0  0  0
    0.5160   67.0060   67.2870 C   0  0  0  0  0  0  0  0  0  0  0  0
    0.6640   67.4450   65.9660 C   0  0  0  0  0  0  0  0  0  0  0  0
   -2.3150   69.6140   65.7340 O   0  0  0  0  0  0  0  0  0  0  0  0
    1.7740   67.0490   65.2720 O   0  0  0  0  0  0  0  0  0  0  0  0
    2.4956   67.3948   61.3807 H   0  0  0  0  0  0  0  0  0  0  0  0
    2.9613   68.0676   62.9943 H   0  0  0  0  0  0  0  0  0  0  0  0
    3.9003   68.7826   60.2838 H   0  0  0  0  0  0  0  0  0  0  0  0
    3.4288   70.1955   61.3394 H   0  0  0  0  0  0  0  0  0  0  0  0
    5.9058   69.1050   61.3086 H   0  0  0  0  0  0  0  0  0  0  0  0
    5.1326   69.9144   62.7501 H   0  0  0  0  0  0  0  0  0  0  0  0
    4.4707   67.0771   62.5798 H   0  0  0  0  0  0  0  0  0  0  0  0
    6.2641   67.3961   62.6838 H   0  0  0  0  0  0  0  0  0  0  0  0
    4.1114   67.8150   64.7008 H   0  0  0  0  0  0  0  0  0  0  0  0
    5.8715   67.3654   64.8784 H   0  0  0  0  0  0  0  0  0  0  0  0
    6.5831   69.5747   64.8215 H   0  0  0  0  0  0  0  0  0  0  0  0
    5.0396   70.1491   64.0659 H   0  0  0  0  0  0  0  0  0  0  0  0
    5.8952   71.1214   69.1752 H   0  0  0  0  0  0  0  0  0  0  0  0
    6.8095   70.5884   66.9130 H   0  0  0  0  0  0  0  0  0  0  0  0
    2.9431   69.0568   65.7155 H   0  0  0  0  0  0  0  0  0  0  0  0
    2.0379   69.5928   67.9782 H   0  0  0  0  0  0  0  0  0  0  0  0
    2.4286   70.4484   70.1005 H   0  0  0  0  0  0  0  0  0  0  0  0
    1.4185   69.9883   61.4037 H   0  0  0  0  0  0  0  0  0  0  0  0
    0.5266   68.4367   61.6729 H   0  0  0  0  0  0  0  0  0  0  0  0
    1.8706   69.2812   64.1104 H   0  0  0  0  0  0  0  0  0  0  0  0
    0.8057   70.5934   63.4731 H   0  0  0  0  0  0  0  0  0  0  0  0
   -2.3695   68.6354   68.0938 H   0  0  0  0  0  0  0  0  0  0  0  0
   -0.6974   67.0716   69.0809 H   0  0  0  0  0  0  0  0  0  0  0  0
    1.2620   66.3278   67.7268 H   0  0  0  0  0  0  0  0  0  0  0  0
   -3.0514   69.8921   66.3344 H   0  0  0  0  0  0  0  0  0  0  0  0
    1.9043   67.3446   64.3362 H   0  0  0  0  0  0  0  0  0  0  0  0
  2  1  1  0
  3  2  1  0
  4  3  1  0
  5  4  1  0
  6  5  1  0
  8  7  2  0
  9  8  1  0
 10  9  2  0
 10  6  1  0
 11 10  1  0
 12 11  2  0
 12  7  1  0
 13  7  1  0
 14  1  1  0
 15 14  1  0
 16 15  1  0
 17 16  2  0
 18 16  1  0
 19 18  2  0
 20 19  1  0
 21 20  2  0
 22 21  1  0
 23 22  2  0
 23 18  1  0
 24 19  1  0
 25 23  1  0
  1 26  1  0
  1 27  1  0
  2 28  1  0
  2 29  1  0
  3 30  1  0
  3 31  1  0
  4 32  1  0
  4 33  1  0
  5 34  1  0
  5 35  1  0
  6 36  1  0
  6 37  1  0
  8 38  1  0
  9 39  1  0
 11 40  1  0
 12 41  1  0
 13 42  1  0
 14 43  1  0
 14 44  1  0
 15 45  1  0
 15 46  1  0
 20 47  1  0
 21 48  1  0
 22 49  1  0
 24 50  1  0
 25 51  1  0
M  END
>  <score>  (5) 
-8.398

$$$$
=
     RDKit          3D

 51 52  0  0  0  0  0  0  0  0999 V2000
    2.3960   64.4710   70.6460 C   0  0  0  0  0  0  0  0  0  0  0  0
    0.8910   64.5710   70.3890 C   0  0  0  0  0  0  0  0  0  0  0  0
    0.3830   66.0150   70.3060 C   0  0  0  0  0  0  0  0  0  0  0  0
    1.3480   66.9550   69.5780 C   0  0  0  0  0  0  0  0  0  0  0  0
    0.8430   67.3880   68.1980 C   0  0  0  0  0  0  0  0  0  0  0  0
    0.9880   68.8910   67.9450 C   0  0  0  0  0  0  0  0  0  0  0  0
    4.9420   69.9250   66.6020 C   0  0  0  0  0  0  0  0  0  0  0  0
    4.5570   70.2380   67.9010 C   0  0  0  0  0  0  0  0  0  0  0  0
    3.2740   69.8980   68.3370 C   0  0  0  0  0  0  0  0  0  0  0  0
    2.3800   69.2430   67.4780 C   0  0  0  0  0  0  0  0  0  0  0  0
    2.7870   68.9420   66.1700 C   0  0  0  0  0  0  0  0  0  0  0  0
    4.0690   69.2820   65.7350 C   0  0  0  0  0  0  0  0  0  0  0  0
    6.1850   70.2390   66.1350 O   0  0  0  0  0  0  0  0  0  0  0  0
    3.0920   63.6590   69.5530 C   0  0  0  0  0  0  0  0  0  0  0  0
    2.5960   62.2170   69.5330 C   0  0  0  0  0  0  0  0  0  0  0  0
    3.5170   61.3210   70.3350 C   0  0  0  0  0  0  0  0  0  0  0  0
    4.7250   61.5660   70.4160 O   0  0  0  0  0  0  0  0  0  0  0  0
    2.9840   60.1650   71.1110 C   0  0  0  0  0  0  0  0  0  0  0  0
    3.2520   58.8670   70.6370 C   0  0  0  0  0  0  0  0  0  0  0  0
    2.8190   57.7410   71.3340 C   0  0  0  0  0  0  0  0  0  0  0  0
    2.0850   57.8910   72.5070 C   0  0  0  0  0  0  0  0  0  0  0  0
    1.7790   59.1680   72.9770 C   0  0  0  0  0  0  0  0  0  0  0  0
    2.2200   60.2980   72.2780 C   0  0  0  0  0  0  0  0  0  0  0  0
    3.9460   58.6200   69.4790 O   0  0  0  0  0  0  0  0  0  0  0  0
    1.8570   61.5320   72.7450 O   0  0  0  0  0  0  0  0  0  0  0  0
    2.8242   65.4840   70.6678 H   0  0  0  0  0  0  0  0  0  0  0  0
    2.5514   63.9629   71.6091 H   0  0  0  0  0  0  0  0  0  0  0  0
    0.6653   64.0666   69.4379 H   0  0  0  0  0  0  0  0  0  0  0  0
    0.3834   64.0963   71.2416 H   0  0  0  0  0  0  0  0  0  0  0  0
   -0.5776   66.0170   69.7700 H   0  0  0  0  0  0  0  0  0  0  0  0
    0.2828   66.3852   71.3370 H   0  0  0  0  0  0  0  0  0  0  0  0
    1.4927   67.8540   70.1952 H   0  0  0  0  0  0  0  0  0  0  0  0
    2.2874   66.4038   69.4241 H   0  0  0  0  0  0  0  0  0  0  0  0
    1.4169   66.8477   67.4307 H   0  0  0  0  0  0  0  0  0  0  0  0
   -0.2305   67.1521   68.1548 H   0  0  0  0  0  0  0  0  0  0  0  0
    0.2650   69.1948   67.1737 H   0  0  0  0  0  0  0  0  0  0  0  0
    0.7979   69.4196   68.8908 H   0  0  0  0  0  0  0  0  0  0  0  0
    5.2564   70.7487   68.5792 H   0  0  0  0  0  0  0  0  0  0  0  0
    2.9626   70.1461   69.3624 H   0  0  0  0  0  0  0  0  0  0  0  0
    2.0925   68.4355   65.4836 H   0  0  0  0  0  0  0  0  0  0  0  0
    4.3862   69.0415   64.7096 H   0  0  0  0  0  0  0  0  0  0  0  0
    6.4382   70.0068   65.2065 H   0  0  0  0  0  0  0  0  0  0  0  0
    2.8864   64.1222   68.5767 H   0  0  0  0  0  0  0  0  0  0  0  0
    4.1722   63.6517   69.7606 H   0  0  0  0  0  0  0  0  0  0  0  0
    1.5859   62.1769   69.9668 H   0  0  0  0  0  0  0  0  0  0  0  0
    2.5793   61.8640   68.4913 H   0  0  0  0  0  0  0  0  0  0  0  0
    3.0569   56.7351   70.9578 H   0  0  0  0  0  0  0  0  0  0  0  0
    1.7468   57.0038   73.0625 H   0  0  0  0  0  0  0  0  0  0  0  0
    1.1902   59.2875   73.8984 H   0  0  0  0  0  0  0  0  0  0  0  0
    4.1084   57.6876   69.1885 H   0  0  0  0  0  0  0  0  0  0  0  0
    2.1548   62.3482   72.2703 H   0  0  0  0  0  0  0  0  0  0  0  0
  2  1  1  0
  3  2  1  0
  4  3  1  0
  5  4  1  0
  6  5  1  0
  8  7  2  0
  9  8  1  0
 10  9  2  0
 10  6  1  0
 11 10  1  0
 12 11  2  0
 12  7  1  0
 13  7  1  0
 14  1  1  0
 15 14  1  0
 16 15  1  0
 17 16  2  0
 18 16  1  0
 19 18  2  0
 20 19  1  0
 21 20  2  0
 22 21  1  0
 23 22  2  0
 23 18  1  0
 24 19  1  0
 25 23  1  0
  1 26  1  0
  1 27  1  0
  2 28  1  0
  2 29  1  0
  3 30  1  0
  3 31  1  0
  4 32  1  0
  4 33  1  0
  5 34  1  0
  5 35  1  0
  6 36  1  0
  6 37  1  0
  8 38  1  0
  9 39  1  0
 11 40  1  0
 12 41  1  0
 13 42  1  0
 14 43  1  0
 14 44  1  0
 15 45  1  0
 15 46  1  0
 20 47  1  0
 21 48  1  0
 22 49  1  0
 24 50  1  0
 25 51  1  0
M  END
>  <score>  (6) 
-8.392

$$$$
=
     RDKit          3D

 51 52  0  0  0  0  0  0  0  0999 V2000
   -0.1760   66.8190   68.8840 C   0  0  0  0  0  0  0  0  0  0  0  0
   -0.7470   67.0030   67.4760 C   0  0  0  0  0  0  0  0  0  0  0  0
   -1.9580   67.9410   67.4280 C   0  0  0  0  0  0  0  0  0  0  0  0
   -1.8750   68.9790   66.3050 C   0  0  0  0  0  0  0  0  0  0  0  0
   -0.7400   68.7070   65.3140 C   0  0  0  0  0  0  0  0  0  0  0  0
   -1.1250   68.9900   63.8600 C   0  0  0  0  0  0  0  0  0  0  0  0
    2.3130   68.9980   61.2730 C   0  0  0  0  0  0  0  0  0  0  0  0
    1.1580   69.6660   60.8790 C   0  0  0  0  0  0  0  0  0  0  0  0
    0.0440   69.6650   61.7220 C   0  0  0  0  0  0  0  0  0  0  0  0
    0.0860   69.0030   62.9580 C   0  0  0  0  0  0  0  0  0  0  0  0
    1.2580   68.3310   63.3330 C   0  0  0  0  0  0  0  0  0  0  0  0
    2.3710   68.3310   62.4900 C   0  0  0  0  0  0  0  0  0  0  0  0
    3.4230   68.9720   60.4810 O   0  0  0  0  0  0  0  0  0  0  0  0
    1.2360   67.3970   68.9890 C   0  0  0  0  0  0  0  0  0  0  0  0
    1.7110   67.9480   67.6480 C   0  0  0  0  0  0  0  0  0  0  0  0
    2.0980   69.4060   67.7730 C   0  0  0  0  0  0  0  0  0  0  0  0
    1.2430   70.2700   67.9940 O   0  0  0  0  0  0  0  0  0  0  0  0
    3.5250   69.8330   67.7090 C   0  0  0  0  0  0  0  0  0  0  0  0
    4.0720   70.4860   68.8300 C   0  0  0  0  0  0  0  0  0  0  0  0
    5.4100   70.8770   68.8540 C   0  0  0  0  0  0  0  0  0  0  0  0
    6.2200   70.6440   67.7470 C   0  0  0  0  0  0  0  0  0  0  0  0
    5.6900   70.0290   66.6130 C   0  0  0  0  0  0  0  0  0  0  0  0
    4.3470   69.6320   66.5930 C   0  0  0  0  0  0  0  0  0  0  0  0
    3.3460   70.7800   69.9560 O   0  0  0  0  0  0  0  0  0  0  0  0
    3.8520   69.0770   65.4450 O   0  0  0  0  0  0  0  0  0  0  0  0
   -0.8284   67.3326   69.6055 H   0  0  0  0  0  0  0  0  0  0  0  0
   -0.1282   65.7419   69.1021 H   0  0  0  0  0  0  0  0  0  0  0  0
    0.0416   67.4185   66.8315 H   0  0  0  0  0  0  0  0  0  0  0  0
   -1.0876   66.0152   67.1321 H   0  0  0  0  0  0  0  0  0  0  0  0
   -2.8635   67.3349   67.2772 H   0  0  0  0  0  0  0  0  0  0  0  0
   -1.9820   68.4916   68.3800 H   0  0  0  0  0  0  0  0  0  0  0  0
   -2.8276   68.9756   65.7549 H   0  0  0  0  0  0  0  0  0  0  0  0
   -1.6721   69.9528   66.7747 H   0  0  0  0  0  0  0  0  0  0  0  0
    0.1156   69.3455   65.5792 H   0  0  0  0  0  0  0  0  0  0  0  0
   -0.4959   67.6367   65.3840 H   0  0  0  0  0  0  0  0  0  0  0  0
   -1.8186   68.2087   63.5156 H   0  0  0  0  0  0  0  0  0  0  0  0
   -1.5983   69.9820   63.8157 H   0  0  0  0  0  0  0  0  0  0  0  0
    1.1223   70.1901   59.9126 H   0  0  0  0  0  0  0  0  0  0  0  0
   -0.8736   70.1876   61.4140 H   0  0  0  0  0  0  0  0  0  0  0  0
    1.3008   67.8012   64.2961 H   0  0  0  0  0  0  0  0  0  0  0  0
    3.2899   67.8050   62.7884 H   0  0  0  0  0  0  0  0  0  0  0  0
    4.2342   68.4904   60.7813 H   0  0  0  0  0  0  0  0  0  0  0  0
    1.2363   68.2095   69.7305 H   0  0  0  0  0  0  0  0  0  0  0  0
    1.9192   66.5908   69.2945 H   0  0  0  0  0  0  0  0  0  0  0  0
    2.5842   67.3708   67.3098 H   0  0  0  0  0  0  0  0  0  0  0  0
    0.8903   67.8620   66.9207 H   0  0  0  0  0  0  0  0  0  0  0  0
    5.8245   71.3688   69.7464 H   0  0  0  0  0  0  0  0  0  0  0  0
    7.2779   70.9447   67.7662 H   0  0  0  0  0  0  0  0  0  0  0  0
    6.3274   69.8556   65.7334 H   0  0  0  0  0  0  0  0  0  0  0  0
    3.7789   71.2411   70.7177 H   0  0  0  0  0  0  0  0  0  0  0  0
    2.9062   68.7874   65.4030 H   0  0  0  0  0  0  0  0  0  0  0  0
  2  1  1  0
  3  2  1  0
  4  3  1  0
  5  4  1  0
  6  5  1  0
  8  7  2  0
  9  8  1  0
 10  9  2  0
 10  6  1  0
 11 10  1  0
 12 11  2  0
 12  7  1  0
 13  7  1  0
 14  1  1  0
 15 14  1  0
 16 15  1  0
 17 16  2  0
 18 16  1  0
 19 18  2  0
 20 19  1  0
 21 20  2  0
 22 21  1  0
 23 22  2  0
 23 18  1  0
 24 19  1  0
 25 23  1  0
  1 26  1  0
  1 27  1  0
  2 28  1  0
  2 29  1  0
  3 30  1  0
  3 31  1  0
  4 32  1  0
  4 33  1  0
  5 34  1  0
  5 35  1  0
  6 36  1  0
  6 37  1  0
  8 38  1  0
  9 39  1  0
 11 40  1  0
 12 41  1  0
 13 42  1  0
 14 43  1  0
 14 44  1  0
 15 45  1  0
 15 46  1  0
 20 47  1  0
 21 48  1  0
 22 49  1  0
 24 50  1  0
 25 51  1  0
M  END
>  <score>  (7) 
-8.388

$$$$
=
     RDKit          3D

 51 52  0  0  0  0  0  0  0  0999 V2000
    3.3490   63.9500   70.6440 C   0  0  0  0  0  0  0  0  0  0  0  0
    2.1620   63.0240   70.9170 C   0  0  0  0  0  0  0  0  0  0  0  0
    0.8080   63.6540   70.5750 C   0  0  0  0  0  0  0  0  0  0  0  0
    0.3800   64.7430   71.5640 C   0  0  0  0  0  0  0  0  0  0  0  0
   -0.0010   66.0610   70.8830 C   0  0  0  0  0  0  0  0  0  0  0  0
    0.9370   66.4430   69.7350 C   0  0  0  0  0  0  0  0  0  0  0  0
   -1.1890   68.4610   66.5860 C   0  0  0  0  0  0  0  0  0  0  0  0
    0.0960   68.8750   66.9190 C   0  0  0  0  0  0  0  0  0  0  0  0
    0.7870   68.2160   67.9390 C   0  0  0  0  0  0  0  0  0  0  0  0
    0.1960   67.1430   68.6220 C   0  0  0  0  0  0  0  0  0  0  0  0
   -1.1030   66.7450   68.2740 C   0  0  0  0  0  0  0  0  0  0  0  0
   -1.7930   67.4040   67.2550 C   0  0  0  0  0  0  0  0  0  0  0  0
   -1.8990   69.0760   65.5980 O   0  0  0  0  0  0  0  0  0  0  0  0
    4.6010   63.1520   70.2760 C   0  0  0  0  0  0  0  0  0  0  0  0
    4.2460   61.7360   69.8360 C   0  0  0  0  0  0  0  0  0  0  0  0
    4.8340   60.7140   70.7850 C   0  0  0  0  0  0  0  0  0  0  0  0
    6.0490   60.6810   71.0060 O   0  0  0  0  0  0  0  0  0  0  0  0
    3.9600   59.7700   71.5400 C   0  0  0  0  0  0  0  0  0  0  0  0
    3.6350   60.0880   72.8720 C   0  0  0  0  0  0  0  0  0  0  0  0
    2.7920   59.2720   73.6230 C   0  0  0  0  0  0  0  0  0  0  0  0
    2.2770   58.1060   73.0630 C   0  0  0  0  0  0  0  0  0  0  0  0
    2.6140   57.7540   71.7560 C   0  0  0  0  0  0  0  0  0  0  0  0
    3.4570   58.5790   71.0020 C   0  0  0  0  0  0  0  0  0  0  0  0
    4.1130   61.2020   73.5160 O   0  0  0  0  0  0  0  0  0  0  0  0
    3.8030   58.1740   69.7420 O   0  0  0  0  0  0  0  0  0  0  0  0
    3.0950   64.6228   69.8116 H   0  0  0  0  0  0  0  0  0  0  0  0
    3.5591   64.5251   71.5579 H   0  0  0  0  0  0  0  0  0  0  0  0
    2.2848   62.1124   70.3137 H   0  0  0  0  0  0  0  0  0  0  0  0
    2.1578   62.8108   71.9961 H   0  0  0  0  0  0  0  0  0  0  0  0
    0.8737   64.0998   69.5715 H   0  0  0  0  0  0  0  0  0  0  0  0
    0.0544   62.8542   70.6244 H   0  0  0  0  0  0  0  0  0  0  0  0
   -0.4893   64.3783   72.1308 H   0  0  0  0  0  0  0  0  0  0  0  0
    1.2416   64.9492   72.2160 H   0  0  0  0  0  0  0  0  0  0  0  0
   -1.0212   65.9651   70.4830 H   0  0  0  0  0  0  0  0  0  0  0  0
    0.0739   66.8534   71.6422 H   0  0  0  0  0  0  0  0  0  0  0  0
    1.7186   67.1140   70.1208 H   0  0  0  0  0  0  0  0  0  0  0  0
    1.3770   65.5204   69.3285 H   0  0  0  0  0  0  0  0  0  0  0  0
    0.5645   69.7142   66.3840 H   0  0  0  0  0  0  0  0  0  0  0  0
    1.8026   68.5413   68.2085 H   0  0  0  0  0  0  0  0  0  0  0  0
   -1.5805   65.9094   68.8067 H   0  0  0  0  0  0  0  0  0  0  0  0
   -2.8108   67.0876   66.9829 H   0  0  0  0  0  0  0  0  0  0  0  0
   -2.8125   68.7645   65.3776 H   0  0  0  0  0  0  0  0  0  0  0  0
    5.1225   63.6628   69.4531 H   0  0  0  0  0  0  0  0  0  0  0  0
    5.2457   63.0880   71.1650 H   0  0  0  0  0  0  0  0  0  0  0  0
    3.1515   61.6267   69.8216 H   0  0  0  0  0  0  0  0  0  0  0  0
    4.6616   61.5645   68.8321 H   0  0  0  0  0  0  0  0  0  0  0  0
    2.5338   59.5482   74.6560 H   0  0  0  0  0  0  0  0  0  0  0  0
    1.6051   57.4631   73.6506 H   0  0  0  0  0  0  0  0  0  0  0  0
    2.2168   56.8268   71.3171 H   0  0  0  0  0  0  0  0  0  0  0  0
    3.8538   61.3805   74.4546 H   0  0  0  0  0  0  0  0  0  0  0  0
    4.3978   58.7379   69.1867 H   0  0  0  0  0  0  0  0  0  0  0  0
  2  1  1  0
  3  2  1  0
  4  3  1  0
  5  4  1  0
  6  5  1  0
  8  7  2  0
  9  8  1  0
 10  9  2  0
 10  6  1  0
 11 10  1  0
 12 11  2  0
 12  7  1  0
 13  7  1  0
 14  1  1  0
 15 14  1  0
 16 15  1  0
 17 16  2  0
 18 16  1  0
 19 18  2  0
 20 19  1  0
 21 20  2  0
 22 21  1  0
 23 22  2  0
 23 18  1  0
 24 19  1  0
 25 23  1  0
  1 26  1  0
  1 27  1  0
  2 28  1  0
  2 29  1  0
  3 30  1  0
  3 31  1  0
  4 32  1  0
  4 33  1  0
  5 34  1  0
  5 35  1  0
  6 36  1  0
  6 37  1  0
  8 38  1  0
  9 39  1  0
 11 40  1  0
 12 41  1  0
 13 42  1  0
 14 43  1  0
 14 44  1  0
 15 45  1  0
 15 46  1  0
 20 47  1  0
 21 48  1  0
 22 49  1  0
 24 50  1  0
 25 51  1  0
M  END
>  <score>  (8) 
-8.335

$$$$
=
     RDKit          3D

 51 52  0  0  0  0  0  0  0  0999 V2000
    0.3450   65.5070   71.1140 C   0  0  0  0  0  0  0  0  0  0  0  0
    1.2750   65.7490   69.9230 C   0  0  0  0  0  0  0  0  0  0  0  0
    1.3260   67.2150   69.4790 C   0  0  0  0  0  0  0  0  0  0  0  0
    0.5760   67.4780   68.1700 C   0  0  0  0  0  0  0  0  0  0  0  0
    0.8790   68.8530   67.5670 C   0  0  0  0  0  0  0  0  0  0  0  0
    2.2360   69.4170   67.9960 C   0  0  0  0  0  0  0  0  0  0  0  0
    5.0500   69.4200   64.7420 C   0  0  0  0  0  0  0  0  0  0  0  0
    3.7440   68.9950   64.5180 C   0  0  0  0  0  0  0  0  0  0  0  0
    2.8310   68.9990   65.5750 C   0  0  0  0  0  0  0  0  0  0  0  0
    3.2200   69.4290   66.8520 C   0  0  0  0  0  0  0  0  0  0  0  0
    4.5430   69.8470   67.0570 C   0  0  0  0  0  0  0  0  0  0  0  0
    5.4550   69.8440   66.0010 C   0  0  0  0  0  0  0  0  0  0  0  0
    5.9740   69.4320   63.7390 O   0  0  0  0  0  0  0  0  0  0  0  0
    0.0620   64.0160   71.3020 C   0  0  0  0  0  0  0  0  0  0  0  0
    0.8120   63.4570   72.5070 C   0  0  0  0  0  0  0  0  0  0  0  0
    1.3070   62.0540   72.2280 C   0  0  0  0  0  0  0  0  0  0  0  0
    0.5340   61.0900   72.2690 O   0  0  0  0  0  0  0  0  0  0  0  0
    2.7190   61.8010   71.8210 C   0  0  0  0  0  0  0  0  0  0  0  0
    3.6420   61.4340   72.8180 C   0  0  0  0  0  0  0  0  0  0  0  0
    4.9680   61.1450   72.5020 C   0  0  0  0  0  0  0  0  0  0  0  0
    5.4030   61.2420   71.1840 C   0  0  0  0  0  0  0  0  0  0  0  0
    4.5140   61.6370   70.1850 C   0  0  0  0  0  0  0  0  0  0  0  0
    3.1810   61.9210   70.5040 C   0  0  0  0  0  0  0  0  0  0  0  0
    3.3110   61.3350   74.1460 O   0  0  0  0  0  0  0  0  0  0  0  0
    2.3530   62.3530   69.5040 O   0  0  0  0  0  0  0  0  0  0  0  0
    0.8198   65.8996   72.0253 H   0  0  0  0  0  0  0  0  0  0  0  0
   -0.6085   66.0204   70.9208 H   0  0  0  0  0  0  0  0  0  0  0  0
    2.2908   65.4342   70.2041 H   0  0  0  0  0  0  0  0  0  0  0  0
    0.8786   65.1672   69.0778 H   0  0  0  0  0  0  0  0  0  0  0  0
    0.8772   67.8349   70.2691 H   0  0  0  0  0  0  0  0  0  0  0  0
    2.3827   67.4661   69.3051 H   0  0  0  0  0  0  0  0  0  0  0  0
    0.8631   66.7057   67.4413 H   0  0  0  0  0  0  0  0  0  0  0  0
   -0.4997   67.4510   68.3984 H   0  0  0  0  0  0  0  0  0  0  0  0
    0.8691   68.7633   66.4707 H   0  0  0  0  0  0  0  0  0  0  0  0
    0.1076   69.5464   67.9333 H   0  0  0  0  0  0  0  0  0  0  0  0
    2.0964   70.4465   68.3575 H   0  0  0  0  0  0  0  0  0  0  0  0
    2.6404   68.7727   68.7906 H   0  0  0  0  0  0  0  0  0  0  0  0
    3.4335   68.6590   63.5177 H   0  0  0  0  0  0  0  0  0  0  0  0
    1.7979   68.6620   65.4044 H   0  0  0  0  0  0  0  0  0  0  0  0
    4.8633   70.1790   68.0556 H   0  0  0  0  0  0  0  0  0  0  0  0
    6.4907   70.1762   66.1650 H   0  0  0  0  0  0  0  0  0  0  0  0
    6.8977   69.7384   63.9206 H   0  0  0  0  0  0  0  0  0  0  0  0
   -1.0180   63.8727   71.4541 H   0  0  0  0  0  0  0  0  0  0  0  0
    0.4027   63.4819   70.4027 H   0  0  0  0  0  0  0  0  0  0  0  0
    1.6723   64.1055   72.7290 H   0  0  0  0  0  0  0  0  0  0  0  0
    0.1255   63.4246   73.3658 H   0  0  0  0  0  0  0  0  0  0  0  0
    5.6694   60.8408   73.2929 H   0  0  0  0  0  0  0  0  0  0  0  0
    6.4473   61.0073   70.9303 H   0  0  0  0  0  0  0  0  0  0  0  0
    4.8607   61.7255   69.1448 H   0  0  0  0  0  0  0  0  0  0  0  0
    3.9977   61.0727   74.8091 H   0  0  0  0  0  0  0  0  0  0  0  0
    1.4054   62.5612   69.7012 H   0  0  0  0  0  0  0  0  0  0  0  0
  2  1  1  0
  3  2  1  0
  4  3  1  0
  5  4  1  0
  6  5  1  0
  8  7  2  0
  9  8  1  0
 10  9  2  0
 10  6  1  0
 11 10  1  0
 12 11  2  0
 12  7  1  0
 13  7  1  0
 14  1  1  0
 15 14  1  0
 16 15  1  0
 17 16  2  0
 18 16  1  0
 19 18  2  0
 20 19  1  0
 21 20  2  0
 22 21  1  0
 23 22  2  0
 23 18  1  0
 24 19  1  0
 25 23  1  0
  1 26  1  0
  1 27  1  0
  2 28  1  0
  2 29  1  0
  3 30  1  0
  3 31  1  0
  4 32  1  0
  4 33  1  0
  5 34  1  0
  5 35  1  0
  6 36  1  0
  6 37  1  0
  8 38  1  0
  9 39  1  0
 11 40  1  0
 12 41  1  0
 13 42  1  0
 14 43  1  0
 14 44  1  0
 15 45  1  0
 15 46  1  0
 20 47  1  0
 21 48  1  0
 22 49  1  0
 24 50  1  0
 25 51  1  0
M  END
>  <score>  (9) 
-8.222

$$$$
