=
     RDKit          3D

 55 56  0  0  0  0  0  0  0  0999 V2000
    1.9460   67.5850   64.0950 N   0  0  0  0  0  4  0  0  0  0  0  0
    1.1840   68.7990   63.6870 C   0  0  1  0  0  0  0  0  0  0  0  0
    1.3880   69.1300   62.2140 C   0  0  0  0  0  0  0  0  0  0  0  0
   -0.3260   68.8040   64.0310 C   0  0  0  0  0  0  0  0  0  0  0  0
   -1.1160   68.8520   63.0770 O   0  0  0  0  0  0  0  0  0  0  0  0
   -0.8050   68.6670   65.3140 N   0  0  0  0  0  0  0  0  0  0  0  0
   -2.2210   68.3810   65.5010 C   0  0  0  0  0  0  0  0  0  0  0  0
   -2.3570   68.0130   66.9660 C   0  0  0  0  0  0  0  0  0  0  0  0
   -1.3400   68.9270   67.6320 C   0  0  0  0  0  0  0  0  0  0  0  0
   -0.1790   68.9710   66.6330 C   0  0  1  0  0  0  0  0  0  0  0  0
    1.0060   68.0630   67.0490 C   0  0  0  0  0  0  0  0  0  0  0  0
    0.8740   66.8780   66.5850 O   0  0  0  0  0  0  0  0  0  0  0  0
    1.8730   68.5210   67.8240 O   0  0  0  0  0  1  0  0  0  0  0  0
    3.4400   67.4660   63.9060 C   0  0  2  0  0  0  0  0  0  0  0  0
    3.7670   65.9910   63.6330 C   0  0  0  0  0  0  0  0  0  0  0  0
    4.4450   65.6390   62.6720 O   0  0  0  0  0  0  0  0  0  0  0  0
    3.1980   65.1780   64.5580 O   0  0  0  0  0  0  0  0  0  0  0  0
    3.8940   63.5200   66.1800 C   0  0  0  0  0  0  0  0  0  0  0  0
    3.8010   63.8840   64.7100 C   0  0  0  0  0  0  0  0  0  0  0  0
    4.1670   67.9500   65.1620 C   0  0  0  0  0  0  0  0  0  0  0  0
    4.2640   69.4780   65.2350 C   0  0  0  0  0  0  0  0  0  0  0  0
    4.9640   69.9160   66.4970 C   0  0  0  0  0  0  0  0  0  0  0  0
    4.2290   70.1810   67.6600 C   0  0  0  0  0  0  0  0  0  0  0  0
    4.8760   70.6100   68.8210 C   0  0  0  0  0  0  0  0  0  0  0  0
    6.2590   70.7790   68.8280 C   0  0  0  0  0  0  0  0  0  0  0  0
    6.9980   70.5200   67.6760 C   0  0  0  0  0  0  0  0  0  0  0  0
    6.3540   70.0920   66.5130 C   0  0  0  0  0  0  0  0  0  0  0  0
    1.7742   67.4643   65.1034 H   0  0  0  0  0  0  0  0  0  0  0  0
    1.5915   66.8796   63.4335 H   0  0  0  0  0  0  0  0  0  0  0  0
    1.6228   69.5895   64.3136 H   0  0  0  0  0  0  0  0  0  0  0  0
    1.9632   70.0633   62.1242 H   0  0  0  0  0  0  0  0  0  0  0  0
    1.9386   68.3116   61.7271 H   0  0  0  0  0  0  0  0  0  0  0  0
    0.4094   69.2541   61.7271 H   0  0  0  0  0  0  0  0  0  0  0  0
   -2.8287   69.2676   65.2670 H   0  0  0  0  0  0  0  0  0  0  0  0
   -2.5709   67.5756   64.8385 H   0  0  0  0  0  0  0  0  0  0  0  0
   -3.3738   68.2153   67.3337 H   0  0  0  0  0  0  0  0  0  0  0  0
   -2.1845   66.9454   67.1673 H   0  0  0  0  0  0  0  0  0  0  0  0
   -1.7598   69.9315   67.7895 H   0  0  0  0  0  0  0  0  0  0  0  0
   -1.0329   68.5691   68.6258 H   0  0  0  0  0  0  0  0  0  0  0  0
    0.3160   69.9524   66.5899 H   0  0  0  0  0  0  0  0  0  0  0  0
    3.7708   68.0879   63.0611 H   0  0  0  0  0  0  0  0  0  0  0  0
    3.6677   64.4056   66.7920 H   0  0  0  0  0  0  0  0  0  0  0  0
    3.1706   62.7229   66.4069 H   0  0  0  0  0  0  0  0  0  0  0  0
    4.9110   63.1676   66.4069 H   0  0  0  0  0  0  0  0  0  0  0  0
    3.1888   63.1340   64.1878 H   0  0  0  0  0  0  0  0  0  0  0  0
    4.8135   63.9066   64.2805 H   0  0  0  0  0  0  0  0  0  0  0  0
    3.6212   67.5890   66.0462 H   0  0  0  0  0  0  0  0  0  0  0  0
    5.1920   67.5524   65.1277 H   0  0  0  0  0  0  0  0  0  0  0  0
    4.8285   69.8445   64.3649 H   0  0  0  0  0  0  0  0  0  0  0  0
    3.2456   69.8939   65.2370 H   0  0  0  0  0  0  0  0  0  0  0  0
    3.1368   70.0505   67.6587 H   0  0  0  0  0  0  0  0  0  0  0  0
    4.2930   70.8147   69.7310 H   0  0  0  0  0  0  0  0  0  0  0  0
    6.7672   71.1169   69.7432 H   0  0  0  0  0  0  0  0  0  0  0  0
    8.0899   70.6527   67.6823 H   0  0  0  0  0  0  0  0  0  0  0  0
    6.9412   69.8920   65.6046 H   0  0  0  0  0  0  0  0  0  0  0  0
  2  1  1  0
  3  2  1  0
  4  2  1  0
  5  4  2  0
  6  4  1  0
  7  6  1  0
  8  7  1  0
  9  8  1  0
 10  6  1  0
 10  9  1  0
 11 10  1  0
 12 11  2  0
 13 11  1  0
 14  1  1  0
 15 14  1  0
 16 15  2  0
 17 15  1  0
 19 17  1  0
 19 18  1  0
 20 14  1  0
 21 20  1  0
 22 21  1  0
 23 22  2  0
 24 23  1  0
 25 24  2  0
 26 25  1  0
 27 22  1  0
 27 26  2  0
  1 28  1  0
  1 29  1  0
  2 30  1  1
  3 31  1  0
  3 32  1  0
  3 33  1  0
  7 34  1  0
  7 35  1  0
  8 36  1  0
  8 37  1  0
  9 38  1  0
  9 39  1  0
 10 40  1  6
 14 41  1  6
 18 42  1  0
 18 43  1  0
 18 44  1  0
 19 45  1  0
 19 46  1  0
 20 47  1  0
 20 48  1  0
 21 49  1  0
 21 50  1  0
 23 51  1  0
 24 52  1  0
 25 53  1  0
 26 54  1  0
 27 55  1  0
M  CHG  2   1   1  13  -1
M  END
>  <score>  (1) 
-9.267

$$$$
=
     RDKit          3D

 55 56  0  0  0  0  0  0  0  0999 V2000
    1.3440   66.9510   66.5470 N   0  0  0  0  0  4  0  0  0  0  0  0
    2.2450   66.9930   65.3610 C   0  0  1  0  0  0  0  0  0  0  0  0
    2.9210   65.6500   65.1120 C   0  0  0  0  0  0  0  0  0  0  0  0
    1.6210   67.5270   64.0490 C   0  0  0  0  0  0  0  0  0  0  0  0
    0.3840   67.5940   64.0050 O   0  0  0  0  0  0  0  0  0  0  0  0
    2.3720   68.0030   62.9980 N   0  0  0  0  0  0  0  0  0  0  0  0
    1.7000   68.7550   61.9460 C   0  0  0  0  0  0  0  0  0  0  0  0
    2.8200   69.3620   61.1230 C   0  0  0  0  0  0  0  0  0  0  0  0
    3.8870   68.2800   61.1660 C   0  0  0  0  0  0  0  0  0  0  0  0
    3.7760   67.7140   62.5850 C   0  0  1  0  0  0  0  0  0  0  0  0
    4.8850   68.2430   63.5310 C   0  0  0  0  0  0  0  0  0  0  0  0
    5.0620   69.5010   63.3870 O   0  0  0  0  0  0  0  0  0  0  0  0
    5.5210   67.4250   64.2300 O   0  0  0  0  0  1  0  0  0  0  0  0
    1.1560   68.1370   67.4630 C   0  0  2  0  0  0  0  0  0  0  0  0
   -0.2880   68.6340   67.3050 C   0  0  0  0  0  0  0  0  0  0  0  0
   -0.6230   69.7760   67.6040 O   0  0  0  0  0  0  0  0  0  0  0  0
   -1.0990   67.6550   66.8300 O   0  0  0  0  0  0  0  0  0  0  0  0
   -2.9660   68.6750   65.6740 C   0  0  0  0  0  0  0  0  0  0  0  0
   -2.5080   67.9190   66.9070 C   0  0  0  0  0  0  0  0  0  0  0  0
    2.1450   69.2450   67.0960 C   0  0  0  0  0  0  0  0  0  0  0  0
    2.7690   69.9100   68.3290 C   0  0  0  0  0  0  0  0  0  0  0  0
    4.2360   70.1830   68.1110 C   0  0  0  0  0  0  0  0  0  0  0  0
    4.8370   69.8870   66.8790 C   0  0  0  0  0  0  0  0  0  0  0  0
    6.2000   70.1180   66.6860 C   0  0  0  0  0  0  0  0  0  0  0  0
    6.9730   70.6430   67.7200 C   0  0  0  0  0  0  0  0  0  0  0  0
    6.3850   70.9380   68.9470 C   0  0  0  0  0  0  0  0  0  0  0  0
    5.0220   70.7080   69.1440 C   0  0  0  0  0  0  0  0  0  0  0  0
    0.4080   66.7155   66.1875 H   0  0  0  0  0  0  0  0  0  0  0  0
    1.8327   66.2840   67.1612 H   0  0  0  0  0  0  0  0  0  0  0  0
    2.9959   67.7441   65.6472 H   0  0  0  0  0  0  0  0  0  0  0  0
    3.1598   65.1755   66.0752 H   0  0  0  0  0  0  0  0  0  0  0  0
    2.2433   64.9987   64.5405 H   0  0  0  0  0  0  0  0  0  0  0  0
    3.8478   65.8064   64.5405 H   0  0  0  0  0  0  0  0  0  0  0  0
    1.0830   68.0872   61.3268 H   0  0  0  0  0  0  0  0  0  0  0  0
    1.0232   69.5210   62.3526 H   0  0  0  0  0  0  0  0  0  0  0  0
    2.4936   69.5570   60.0908 H   0  0  0  0  0  0  0  0  0  0  0  0
    3.1665   70.3336   61.5049 H   0  0  0  0  0  0  0  0  0  0  0  0
    3.6853   67.5007   60.4163 H   0  0  0  0  0  0  0  0  0  0  0  0
    4.8922   68.6644   60.9387 H   0  0  0  0  0  0  0  0  0  0  0  0
    3.9600   66.6305   62.6323 H   0  0  0  0  0  0  0  0  0  0  0  0
    1.3427   67.8479   68.5078 H   0  0  0  0  0  0  0  0  0  0  0  0
   -3.5134   69.5786   65.9802 H   0  0  0  0  0  0  0  0  0  0  0  0
   -2.0902   68.9626   65.0739 H   0  0  0  0  0  0  0  0  0  0  0  0
   -3.6265   68.0319   65.0739 H   0  0  0  0  0  0  0  0  0  0  0  0
   -3.0535   66.9660   66.9727 H   0  0  0  0  0  0  0  0  0  0  0  0
   -2.7112   68.5295   67.7992 H   0  0  0  0  0  0  0  0  0  0  0  0
    2.9498   68.8107   66.4846 H   0  0  0  0  0  0  0  0  0  0  0  0
    1.5897   70.0185   66.5452 H   0  0  0  0  0  0  0  0  0  0  0  0
    2.2515   70.8605   68.5258 H   0  0  0  0  0  0  0  0  0  0  0  0
    2.6627   69.2289   69.1862 H   0  0  0  0  0  0  0  0  0  0  0  0
    4.2313   69.4707   66.0606 H   0  0  0  0  0  0  0  0  0  0  0  0
    6.6646   69.8854   65.7165 H   0  0  0  0  0  0  0  0  0  0  0  0
    8.0471   70.8242   67.5668 H   0  0  0  0  0  0  0  0  0  0  0  0
    6.9953   71.3530   69.7627 H   0  0  0  0  0  0  0  0  0  0  0  0
    4.5631   70.9406   70.1163 H   0  0  0  0  0  0  0  0  0  0  0  0
  2  1  1  0
  3  2  1  0
  4  2  1  0
  5  4  2  0
  6  4  1  0
  7  6  1  0
  8  7  1  0
  9  8  1  0
 10  6  1  0
 10  9  1  0
 11 10  1  0
 12 11  2  0
 13 11  1  0
 14  1  1  0
 15 14  1  0
 16 15  2  0
 17 15  1  0
 19 17  1  0
 19 18  1  0
 20 14  1  0
 21 20  1  0
 22 21  1  0
 23 22  2  0
 24 23  1  0
 25 24  2  0
 26 25  1  0
 27 22  1  0
 27 26  2  0
  1 28  1  0
  1 29  1  0
  2 30  1  1
  3 31  1  0
  3 32  1  0
  3 33  1  0
  7 34  1  0
  7 35  1  0
  8 36  1  0
  8 37  1  0
  9 38  1  0
  9 39  1  0
 10 40  1  6
 14 41  1  1
 18 42  1  0
 18 43  1  0
 18 44  1  0
 19 45  1  0
 19 46  1  0
 20 47  1  0
 20 48  1  0
 21 49  1  0
 21 50  1  0
 23 51  1  0
 24 52  1  0
 25 53  1  0
 26 54  1  0
 27 55  1  0
M  CHG  2   1   1  13  -1
M  END
>  <score>  (2) 
-9.164

$$$$
=
     RDKit          3D

 55 56  0  0  0  0  0  0  0  0999 V2000
    3.1960   69.0840   64.6770 N   0  0  0  0  0  4  0  0  0  0  0  0
    2.0150   68.2360   64.3490 C   0  0  1  0  0  0  0  0  0  0  0  0
    1.6220   68.3500   62.8810 C   0  0  0  0  0  0  0  0  0  0  0  0
    2.1090   66.7470   64.7620 C   0  0  0  0  0  0  0  0  0  0  0  0
    1.1460   66.2780   65.3850 O   0  0  0  0  0  0  0  0  0  0  0  0
    3.1520   65.9280   64.3920 N   0  0  0  0  0  0  0  0  0  0  0  0
    3.0040   64.4900   64.5670 C   0  0  0  0  0  0  0  0  0  0  0  0
    4.1730   63.8810   63.8160 C   0  0  0  0  0  0  0  0  0  0  0  0
    5.2830   64.8920   64.0560 C   0  0  0  0  0  0  0  0  0  0  0  0
    4.5620   66.2430   64.0180 C   0  0  1  0  0  0  0  0  0  0  0  0
    4.7580   66.9910   62.6740 C   0  0  0  0  0  0  0  0  0  0  0  0
    5.4260   68.0700   62.8330 O   0  0  0  0  0  0  0  0  0  0  0  0
    4.2010   66.5430   61.6490 O   0  0  0  0  0  1  0  0  0  0  0  0
    3.3970   69.6980   66.0420 C   0  0  2  0  0  0  0  0  0  0  0  0
    4.9070   69.8430   66.2780 C   0  0  0  0  0  0  0  0  0  0  0  0
    5.7090   69.9310   65.3530 O   0  0  0  0  0  0  0  0  0  0  0  0
    5.2040   69.8320   67.6020 O   0  0  0  0  0  0  0  0  0  0  0  0
    6.8590   70.9580   68.9660 C   0  0  0  0  0  0  0  0  0  0  0  0
    5.5750   71.0980   68.1700 C   0  0  0  0  0  0  0  0  0  0  0  0
    2.7730   68.8060   67.1160 C   0  0  0  0  0  0  0  0  0  0  0  0
    1.5940   69.4800   67.8290 C   0  0  0  0  0  0  0  0  0  0  0  0
    0.3350   68.6640   67.6810 C   0  0  0  0  0  0  0  0  0  0  0  0
    0.1490   67.5020   68.4410 C   0  0  0  0  0  0  0  0  0  0  0  0
   -1.0070   66.7340   68.2860 C   0  0  0  0  0  0  0  0  0  0  0  0
   -1.9830   67.1190   67.3690 C   0  0  0  0  0  0  0  0  0  0  0  0
   -1.8060   68.2710   66.6070 C   0  0  0  0  0  0  0  0  0  0  0  0
   -0.6510   69.0410   66.7600 C   0  0  0  0  0  0  0  0  0  0  0  0
    4.0259   68.5001   64.5005 H   0  0  0  0  0  0  0  0  0  0  0  0
    3.0290   69.9156   64.0927 H   0  0  0  0  0  0  0  0  0  0  0  0
    1.2224   68.6595   64.9834 H   0  0  0  0  0  0  0  0  0  0  0  0
    0.5680   68.6557   62.8063 H   0  0  0  0  0  0  0  0  0  0  0  0
    2.2574   69.1009   62.3886 H   0  0  0  0  0  0  0  0  0  0  0  0
    1.7570   67.3757   62.3886 H   0  0  0  0  0  0  0  0  0  0  0  0
    3.0485   64.2236   65.6333 H   0  0  0  0  0  0  0  0  0  0  0  0
    2.0365   64.1254   64.1915 H   0  0  0  0  0  0  0  0  0  0  0  0
    4.4382   62.8952   64.2257 H   0  0  0  0  0  0  0  0  0  0  0  0
    3.9646   63.7042   62.7505 H   0  0  0  0  0  0  0  0  0  0  0  0
    5.7571   64.7283   65.0350 H   0  0  0  0  0  0  0  0  0  0  0  0
    6.0912   64.8204   63.3133 H   0  0  0  0  0  0  0  0  0  0  0  0
    4.9785   66.9744   64.7263 H   0  0  0  0  0  0  0  0  0  0  0  0
    2.9103   70.6831   66.0946 H   0  0  0  0  0  0  0  0  0  0  0  0
    6.6284   70.9831   70.0413 H   0  0  0  0  0  0  0  0  0  0  0  0
    7.3424   70.0018   68.7169 H   0  0  0  0  0  0  0  0  0  0  0  0
    7.5371   71.7875   68.7169 H   0  0  0  0  0  0  0  0  0  0  0  0
    5.7262   71.8287   67.3618 H   0  0  0  0  0  0  0  0  0  0  0  0
    4.7725   71.4403   68.8399 H   0  0  0  0  0  0  0  0  0  0  0  0
    2.4154   67.8803   66.6414 H   0  0  0  0  0  0  0  0  0  0  0  0
    3.5466   68.6015   67.8708 H   0  0  0  0  0  0  0  0  0  0  0  0
    1.8318   69.5838   68.8980 H   0  0  0  0  0  0  0  0  0  0  0  0
    1.4272   70.4673   67.3737 H   0  0  0  0  0  0  0  0  0  0  0  0
    0.9180   67.1927   69.1641 H   0  0  0  0  0  0  0  0  0  0  0  0
   -1.1472   65.8243   68.8883 H   0  0  0  0  0  0  0  0  0  0  0  0
   -2.8930   66.5131   67.2471 H   0  0  0  0  0  0  0  0  0  0  0  0
   -2.5769   68.5749   65.8836 H   0  0  0  0  0  0  0  0  0  0  0  0
   -0.5147   69.9487   66.1539 H   0  0  0  0  0  0  0  0  0  0  0  0
  2  1  1  0
  3  2  1  0
  4  2  1  0
  5  4  2  0
  6  4  1  0
  7  6  1  0
  8  7  1  0
  9  8  1  0
 10  6  1  0
 10  9  1  0
 11 10  1  0
 12 11  2  0
 13 11  1  0
 14  1  1  0
 15 14  1  0
 16 15  2  0
 17 15  1  0
 19 17  1  0
 19 18  1  0
 20 14  1  0
 21 20  1  0
 22 21  1  0
 23 22  2  0
 24 23  1  0
 25 24  2  0
 26 25  1  0
 27 22  1  0
 27 26  2  0
  1 28  1  0
  1 29  1  0
  2 30  1  1
  3 31  1  0
  3 32  1  0
  3 33  1  0
  7 34  1  0
  7 35  1  0
  8 36  1  0
  8 37  1  0
  9 38  1  0
  9 39  1  0
 10 40  1  1
 14 41  1  6
 18 42  1  0
 18 43  1  0
 18 44  1  0
 19 45  1  0
 19 46  1  0
 20 47  1  0
 20 48  1  0
 21 49  1  0
 21 50  1  0
 23 51  1  0
 24 52  1  0
 25 53  1  0
 26 54  1  0
 27 55  1  0
M  CHG  2   1   1  13  -1
M  END
>  <score>  (3) 
-9.138

$$$$
=
     RDKit          3D

 55 56  0  0  0  0  0  0  0  0999 V2000
    1.6110   68.0720   69.0320 N   0  0  0  0  0  4  0  0  0  0  0  0
    1.5580   68.9460   67.8260 C   0  0  1  0  0  0  0  0  0  0  0  0
    0.6080   70.1220   68.0180 C   0  0  0  0  0  0  0  0  0  0  0  0
    2.9200   69.4430   67.2840 C   0  0  0  0  0  0  0  0  0  0  0  0
    3.6310   70.0890   68.0670 O   0  0  0  0  0  0  0  0  0  0  0  0
    3.3930   69.1230   66.0310 N   0  0  0  0  0  0  0  0  0  0  0  0
    4.7950   69.3790   65.7300 C   0  0  0  0  0  0  0  0  0  0  0  0
    5.0500   68.6660   64.4160 C   0  0  0  0  0  0  0  0  0  0  0  0
    3.7340   68.8510   63.6780 C   0  0  0  0  0  0  0  0  0  0  0  0
    2.6770   68.7350   64.7820 C   0  0  1  0  0  0  0  0  0  0  0  0
    1.9770   67.3520   64.8000 C   0  0  0  0  0  0  0  0  0  0  0  0
    0.8650   67.3820   64.1680 O   0  0  0  0  0  0  0  0  0  0  0  0
    2.4900   66.4270   65.4650 O   0  0  0  0  0  1  0  0  0  0  0  0
    1.1650   66.6290   69.0060 C   0  0  2  0  0  0  0  0  0  0  0  0
   -0.3620   66.6080   68.8470 C   0  0  0  0  0  0  0  0  0  0  0  0
   -1.1190   66.5320   69.8100 O   0  0  0  0  0  0  0  0  0  0  0  0
   -0.7240   66.6580   67.5400 O   0  0  0  0  0  0  0  0  0  0  0  0
   -1.9990   68.3150   66.3180 C   0  0  0  0  0  0  0  0  0  0  0  0
   -2.0510   67.1400   67.2760 C   0  0  0  0  0  0  0  0  0  0  0  0
    1.5760   65.9290   70.3020 C   0  0  0  0  0  0  0  0  0  0  0  0
    1.1390   64.4600   70.3420 C   0  0  0  0  0  0  0  0  0  0  0  0
    2.3260   63.5390   70.2080 C   0  0  0  0  0  0  0  0  0  0  0  0
    3.5690   63.9040   70.7410 C   0  0  0  0  0  0  0  0  0  0  0  0
    4.6740   63.0620   70.5960 C   0  0  0  0  0  0  0  0  0  0  0  0
    4.5450   61.8530   69.9160 C   0  0  0  0  0  0  0  0  0  0  0  0
    3.3140   61.4830   69.3800 C   0  0  0  0  0  0  0  0  0  0  0  0
    2.2080   62.3230   69.5230 C   0  0  0  0  0  0  0  0  0  0  0  0
    2.5951   68.0623   69.3357 H   0  0  0  0  0  0  0  0  0  0  0  0
    0.8987   68.5034   69.6381 H   0  0  0  0  0  0  0  0  0  0  0  0
    1.1695   68.2725   67.0479 H   0  0  0  0  0  0  0  0  0  0  0  0
    0.4615   70.3033   69.0930 H   0  0  0  0  0  0  0  0  0  0  0  0
    1.0370   71.0202   67.5498 H   0  0  0  0  0  0  0  0  0  0  0  0
   -0.3603   69.8914   67.5498 H   0  0  0  0  0  0  0  0  0  0  0  0
    4.9773   70.4588   65.6259 H   0  0  0  0  0  0  0  0  0  0  0  0
    5.4613   69.0232   66.5297 H   0  0  0  0  0  0  0  0  0  0  0  0
    5.8821   69.1309   63.8668 H   0  0  0  0  0  0  0  0  0  0  0  0
    5.3384   67.6116   64.5390 H   0  0  0  0  0  0  0  0  0  0  0  0
    3.6905   69.8387   63.1959 H   0  0  0  0  0  0  0  0  0  0  0  0
    3.5907   68.1157   62.8725 H   0  0  0  0  0  0  0  0  0  0  0  0
    1.8160   69.4019   64.6273 H   0  0  0  0  0  0  0  0  0  0  0  0
    1.6389   66.0965   68.1682 H   0  0  0  0  0  0  0  0  0  0  0  0
   -1.9575   69.2533   66.8905 H   0  0  0  0  0  0  0  0  0  0  0  0
   -1.1036   68.2321   65.6844 H   0  0  0  0  0  0  0  0  0  0  0  0
   -2.8982   68.3116   65.6844 H   0  0  0  0  0  0  0  0  0  0  0  0
   -2.6490   66.3323   66.8287 H   0  0  0  0  0  0  0  0  0  0  0  0
   -2.5096   67.4666   68.2210 H   0  0  0  0  0  0  0  0  0  0  0  0
    2.6712   65.9735   70.3946 H   0  0  0  0  0  0  0  0  0  0  0  0
    1.0774   66.4480   71.1339 H   0  0  0  0  0  0  0  0  0  0  0  0
    0.6352   64.2605   71.2993 H   0  0  0  0  0  0  0  0  0  0  0  0
    0.4551   64.2748   69.5006 H   0  0  0  0  0  0  0  0  0  0  0  0
    3.6754   64.8589   71.2766 H   0  0  0  0  0  0  0  0  0  0  0  0
    5.6466   63.3537   71.0190 H   0  0  0  0  0  0  0  0  0  0  0  0
    5.4157   61.1904   69.8024 H   0  0  0  0  0  0  0  0  0  0  0  0
    3.2130   60.5280   68.8435 H   0  0  0  0  0  0  0  0  0  0  0  0
    1.2384   62.0281   69.0953 H   0  0  0  0  0  0  0  0  0  0  0  0
  2  1  1  0
  3  2  1  0
  4  2  1  0
  5  4  2  0
  6  4  1  0
  7  6  1  0
  8  7  1  0
  9  8  1  0
 10  6  1  0
 10  9  1  0
 11 10  1  0
 12 11  2  0
 13 11  1  0
 14  1  1  0
 15 14  1  0
 16 15  2  0
 17 15  1  0
 19 17  1  0
 19 18  1  0
 20 14  1  0
 21 20  1  0
 22 21  1  0
 23 22  2  0
 24 23  1  0
 25 24  2  0
 26 25  1  0
 27 22  1  0
 27 26  2  0
  1 28  1  0
  1 29  1  0
  2 30  1  6
  3 31  1  0
  3 32  1  0
  3 33  1  0
  7 34  1  0
  7 35  1  0
  8 36  1  0
  8 37  1  0
  9 38  1  0
  9 39  1  0
 10 40  1  6
 14 41  1  6
 18 42  1  0
 18 43  1  0
 18 44  1  0
 19 45  1  0
 19 46  1  0
 20 47  1  0
 20 48  1  0
 21 49  1  0
 21 50  1  0
 23 51  1  0
 24 52  1  0
 25 53  1  0
 26 54  1  0
 27 55  1  0
M  CHG  2   1   1  13  -1
M  END
>  <score>  (4) 
-8.471

$$$$
=
     RDKit          3D

 55 56  0  0  0  0  0  0  0  0999 V2000
    0.8900   66.7620   69.9000 N   0  0  0  0  0  4  0  0  0  0  0  0
    0.9460   67.2440   68.4910 C   0  0  1  0  0  0  0  0  0  0  0  0
   -0.4380   67.5700   67.9450 C   0  0  0  0  0  0  0  0  0  0  0  0
    1.9190   68.4160   68.2100 C   0  0  0  0  0  0  0  0  0  0  0  0
    2.2400   69.1200   69.1780 O   0  0  0  0  0  0  0  0  0  0  0  0
    2.4940   68.6370   66.9780 N   0  0  0  0  0  0  0  0  0  0  0  0
    3.6140   69.5640   66.8890 C   0  0  0  0  0  0  0  0  0  0  0  0
    4.1800   69.3620   65.4970 C   0  0  0  0  0  0  0  0  0  0  0  0
    2.9340   69.0880   64.6700 C   0  0  0  0  0  0  0  0  0  0  0  0
    2.0500   68.2580   65.6060 C   0  0  1  0  0  0  0  0  0  0  0  0
    2.0800   66.7430   65.2750 C   0  0  0  0  0  0  0  0  0  0  0  0
    0.9030   66.2830   65.0790 O   0  0  0  0  0  0  0  0  0  0  0  0
    3.1730   66.1400   65.3200 O   0  0  0  0  0  1  0  0  0  0  0  0
    0.9110   65.2930   70.2540 C   0  0  2  0  0  0  0  0  0  0  0  0
    0.1420   65.1120   71.5700 C   0  0  0  0  0  0  0  0  0  0  0  0
   -0.4460   66.0400   72.1170 O   0  0  0  0  0  0  0  0  0  0  0  0
    0.2300   63.8360   72.0230 O   0  0  0  0  0  0  0  0  0  0  0  0
    1.7900   62.8490   73.5900 C   0  0  0  0  0  0  0  0  0  0  0  0
    0.5380   63.6880   73.4180 C   0  0  0  0  0  0  0  0  0  0  0  0
    2.3540   64.8120   70.4090 C   0  0  0  0  0  0  0  0  0  0  0  0
    2.6930   63.6530   69.4640 C   0  0  0  0  0  0  0  0  0  0  0  0
    3.4290   62.5570   70.1940 C   0  0  0  0  0  0  0  0  0  0  0  0
    4.6870   62.8040   70.7610 C   0  0  0  0  0  0  0  0  0  0  0  0
    5.3780   61.7820   71.4160 C   0  0  0  0  0  0  0  0  0  0  0  0
    4.8190   60.5090   71.5070 C   0  0  0  0  0  0  0  0  0  0  0  0
    3.5710   60.2540   70.9450 C   0  0  0  0  0  0  0  0  0  0  0  0
    2.8780   61.2730   70.2890 C   0  0  0  0  0  0  0  0  0  0  0  0
    1.6980   67.1840   70.3796 H   0  0  0  0  0  0  0  0  0  0  0  0
   -0.0630   67.0344   70.1800 H   0  0  0  0  0  0  0  0  0  0  0  0
    1.3689   66.3835   67.9518 H   0  0  0  0  0  0  0  0  0  0  0  0
   -1.1330   67.7337   68.7817 H   0  0  0  0  0  0  0  0  0  0  0  0
   -0.3843   68.4801   67.3295 H   0  0  0  0  0  0  0  0  0  0  0  0
   -0.7962   66.7316   67.3295 H   0  0  0  0  0  0  0  0  0  0  0  0
    3.2695   70.6004   67.0198 H   0  0  0  0  0  0  0  0  0  0  0  0
    4.3653   69.3811   67.6714 H   0  0  0  0  0  0  0  0  0  0  0  0
    4.7000   70.2650   65.1447 H   0  0  0  0  0  0  0  0  0  0  0  0
    4.9283   68.5577   65.4410 H   0  0  0  0  0  0  0  0  0  0  0  0
    2.4349   70.0275   64.3902 H   0  0  0  0  0  0  0  0  0  0  0  0
    3.1558   68.5711   63.7247 H   0  0  0  0  0  0  0  0  0  0  0  0
    0.9777   68.4747   65.4912 H   0  0  0  0  0  0  0  0  0  0  0  0
    0.4392   64.6995   69.4570 H   0  0  0  0  0  0  0  0  0  0  0  0
    1.9949   62.7117   74.6620 H   0  0  0  0  0  0  0  0  0  0  0  0
    1.6415   61.8674   73.1164 H   0  0  0  0  0  0  0  0  0  0  0  0
    2.6415   63.3596   73.1164 H   0  0  0  0  0  0  0  0  0  0  0  0
    0.7020   64.6811   73.8616 H   0  0  0  0  0  0  0  0  0  0  0  0
   -0.3025   63.1872   73.9208 H   0  0  0  0  0  0  0  0  0  0  0  0
    3.0306   65.6520   70.1934 H   0  0  0  0  0  0  0  0  0  0  0  0
    2.4754   64.4482   71.4400 H   0  0  0  0  0  0  0  0  0  0  0  0
    1.7606   63.2443   69.0473 H   0  0  0  0  0  0  0  0  0  0  0  0
    3.3401   64.0343   68.6603 H   0  0  0  0  0  0  0  0  0  0  0  0
    5.1321   63.8074   70.6898 H   0  0  0  0  0  0  0  0  0  0  0  0
    6.3642   61.9823   71.8603 H   0  0  0  0  0  0  0  0  0  0  0  0
    5.3640   59.7050   72.0232 H   0  0  0  0  0  0  0  0  0  0  0  0
    3.1306   59.2487   71.0179 H   0  0  0  0  0  0  0  0  0  0  0  0
    1.8935   61.0662   69.8441 H   0  0  0  0  0  0  0  0  0  0  0  0
  2  1  1  0
  3  2  1  0
  4  2  1  0
  5  4  2  0
  6  4  1  0
  7  6  1  0
  8  7  1  0
  9  8  1  0
 10  6  1  0
 10  9  1  0
 11 10  1  0
 12 11  2  0
 13 11  1  0
 14  1  1  0
 15 14  1  0
 16 15  2  0
 17 15  1  0
 19 17  1  0
 19 18  1  0
 20 14  1  0
 21 20  1  0
 22 21  1  0
 23 22  2  0
 24 23  1  0
 25 24  2  0
 26 25  1  0
 27 22  1  0
 27 26  2  0
  1 28  1  0
  1 29  1  0
  2 30  1  6
  3 31  1  0
  3 32  1  0
  3 33  1  0
  7 34  1  0
  7 35  1  0
  8 36  1  0
  8 37  1  0
  9 38  1  0
  9 39  1  0
 10 40  1  1
 14 41  1  6
 18 42  1  0
 18 43  1  0
 18 44  1  0
 19 45  1  0
 19 46  1  0
 20 47  1  0
 20 48  1  0
 21 49  1  0
 21 50  1  0
 23 51  1  0
 24 52  1  0
 25 53  1  0
 26 54  1  0
 27 55  1  0
M  CHG  2   1   1  13  -1
M  END
>  <score>  (5) 
-8.465

$$$$
=
     RDKit          3D

 55 56  0  0  0  0  0  0  0  0999 V2000
    2.9750   68.3140   64.8080 N   0  0  0  0  0  4  0  0  0  0  0  0
    1.8870   67.4770   64.2270 C   0  0  1  0  0  0  0  0  0  0  0  0
    1.7560   66.1390   64.9430 C   0  0  0  0  0  0  0  0  0  0  0  0
    0.5000   68.1530   64.1000 C   0  0  0  0  0  0  0  0  0  0  0  0
    0.0340   68.2620   62.9580 O   0  0  0  0  0  0  0  0  0  0  0  0
   -0.2490   68.5420   65.1880 N   0  0  0  0  0  0  0  0  0  0  0  0
   -1.6490   68.8850   64.9820 C   0  0  0  0  0  0  0  0  0  0  0  0
   -2.2380   68.9810   66.3760 C   0  0  0  0  0  0  0  0  0  0  0  0
   -1.0890   69.5650   67.1820 C   0  0  0  0  0  0  0  0  0  0  0  0
    0.1540   68.9020   66.5790 C   0  0  1  0  0  0  0  0  0  0  0  0
    0.6990   67.7420   67.4510 C   0  0  0  0  0  0  0  0  0  0  0  0
   -0.1950   66.8500   67.6550 O   0  0  0  0  0  0  0  0  0  0  0  0
    1.8550   67.8320   67.9170 O   0  0  0  0  0  1  0  0  0  0  0  0
    4.3130   68.4880   64.1280 C   0  0  2  0  0  0  0  0  0  0  0  0
    4.5810   67.2340   63.2840 C   0  0  0  0  0  0  0  0  0  0  0  0
    5.0920   66.2240   63.7580 O   0  0  0  0  0  0  0  0  0  0  0  0
    4.2080   67.4180   61.9920 O   0  0  0  0  0  0  0  0  0  0  0  0
    2.7340   69.0120   60.9210 C   0  0  0  0  0  0  0  0  0  0  0  0
    4.0890   68.7830   61.5630 C   0  0  0  0  0  0  0  0  0  0  0  0
    5.4130   68.6720   65.1740 C   0  0  0  0  0  0  0  0  0  0  0  0
    5.6390   70.1440   65.5390 C   0  0  0  0  0  0  0  0  0  0  0  0
    5.6130   70.3400   67.0340 C   0  0  0  0  0  0  0  0  0  0  0  0
    6.7940   70.6320   67.7310 C   0  0  0  0  0  0  0  0  0  0  0  0
    6.7740   70.7900   69.1180 C   0  0  0  0  0  0  0  0  0  0  0  0
    5.5770   70.6550   69.8190 C   0  0  0  0  0  0  0  0  0  0  0  0
    4.3990   70.3620   69.1360 C   0  0  0  0  0  0  0  0  0  0  0  0
    4.4170   70.2040   67.7490 C   0  0  0  0  0  0  0  0  0  0  0  0
    2.5826   69.2603   64.9147 H   0  0  0  0  0  0  0  0  0  0  0  0
    3.2320   67.7753   65.6475 H   0  0  0  0  0  0  0  0  0  0  0  0
    2.2224   67.3176   63.1916 H   0  0  0  0  0  0  0  0  0  0  0  0
    1.7720   66.3021   66.0307 H   0  0  0  0  0  0  0  0  0  0  0  0
    0.8068   65.6618   64.6577 H   0  0  0  0  0  0  0  0  0  0  0  0
    2.5946   65.4868   64.6577 H   0  0  0  0  0  0  0  0  0  0  0  0
   -1.7382   69.8477   64.4573 H   0  0  0  0  0  0  0  0  0  0  0  0
   -2.1705   68.1399   64.3632 H   0  0  0  0  0  0  0  0  0  0  0  0
   -3.1133   69.6471   66.3922 H   0  0  0  0  0  0  0  0  0  0  0  0
   -2.6003   68.0180   66.7651 H   0  0  0  0  0  0  0  0  0  0  0  0
   -1.0451   70.6581   67.0667 H   0  0  0  0  0  0  0  0  0  0  0  0
   -1.1889   69.3794   68.2616 H   0  0  0  0  0  0  0  0  0  0  0  0
    1.0281   69.5692   66.5504 H   0  0  0  0  0  0  0  0  0  0  0  0
    4.3037   69.3807   63.4853 H   0  0  0  0  0  0  0  0  0  0  0  0
    1.9736   69.1405   61.7054 H   0  0  0  0  0  0  0  0  0  0  0  0
    2.7725   69.9164   60.2960 H   0  0  0  0  0  0  0  0  0  0  0  0
    2.4732   68.1452   60.2960 H   0  0  0  0  0  0  0  0  0  0  0  0
    4.1966   69.4482   62.4324 H   0  0  0  0  0  0  0  0  0  0  0  0
    4.8771   68.9987   60.8265 H   0  0  0  0  0  0  0  0  0  0  0  0
    5.1293   68.1229   66.0840 H   0  0  0  0  0  0  0  0  0  0  0  0
    6.3496   68.2877   64.7438 H   0  0  0  0  0  0  0  0  0  0  0  0
    6.6171   70.4648   65.1511 H   0  0  0  0  0  0  0  0  0  0  0  0
    4.8320   70.7437   65.0927 H   0  0  0  0  0  0  0  0  0  0  0  0
    7.7414   70.7372   67.1821 H   0  0  0  0  0  0  0  0  0  0  0  0
    7.7039   71.0213   69.6581 H   0  0  0  0  0  0  0  0  0  0  0  0
    5.5626   70.7799   70.9118 H   0  0  0  0  0  0  0  0  0  0  0  0
    3.4544   70.2551   69.6895 H   0  0  0  0  0  0  0  0  0  0  0  0
    3.4846   69.9709   67.2140 H   0  0  0  0  0  0  0  0  0  0  0  0
  2  1  1  0
  3  2  1  0
  4  2  1  0
  5  4  2  0
  6  4  1  0
  7  6  1  0
  8  7  1  0
  9  8  1  0
 10  6  1  0
 10  9  1  0
 11 10  1  0
 12 11  2  0
 13 11  1  0
 14  1  1  0
 15 14  1  0
 16 15  2  0
 17 15  1  0
 19 17  1  0
 19 18  1  0
 20 14  1  0
 21 20  1  0
 22 21  1  0
 23 22  2  0
 24 23  1  0
 25 24  2  0
 26 25  1  0
 27 22  1  0
 27 26  2  0
  1 28  1  0
  1 29  1  0
  2 30  1  6
  3 31  1  0
  3 32  1  0
  3 33  1  0
  7 34  1  0
  7 35  1  0
  8 36  1  0
  8 37  1  0
  9 38  1  0
  9 39  1  0
 10 40  1  6
 14 41  1  6
 18 42  1  0
 18 43  1  0
 18 44  1  0
 19 45  1  0
 19 46  1  0
 20 47  1  0
 20 48  1  0
 21 49  1  0
 21 50  1  0
 23 51  1  0
 24 52  1  0
 25 53  1  0
 26 54  1  0
 27 55  1  0
M  CHG  2   1   1  13  -1
M  END
>  <score>  (6) 
-8.36

$$$$
=
     RDKit          3D

 55 56  0  0  0  0  0  0  0  0999 V2000
    2.5500   63.4420   71.6930 N   0  0  0  0  0  4  0  0  0  0  0  0
    3.3090   63.2750   70.4210 C   0  0  1  0  0  0  0  0  0  0  0  0
    4.7930   63.5730   70.6010 C   0  0  0  0  0  0  0  0  0  0  0  0
    3.1220   61.9240   69.6880 C   0  0  0  0  0  0  0  0  0  0  0  0
    3.0110   61.9690   68.4540 O   0  0  0  0  0  0  0  0  0  0  0  0
    3.1660   60.7070   70.3300 N   0  0  0  0  0  0  0  0  0  0  0  0
    3.2820   59.4990   69.5250 C   0  0  0  0  0  0  0  0  0  0  0  0
    3.5890   58.3950   70.5180 C   0  0  0  0  0  0  0  0  0  0  0  0
    2.7790   58.8090   71.7350 C   0  0  0  0  0  0  0  0  0  0  0  0
    2.8970   60.3370   71.7500 C   0  0  1  0  0  0  0  0  0  0  0  0
    3.9230   60.8500   72.7930 C   0  0  0  0  0  0  0  0  0  0  0  0
    5.1240   60.6050   72.4280 O   0  0  0  0  0  0  0  0  0  0  0  0
    3.5000   61.3390   73.8620 O   0  0  0  0  0  1  0  0  0  0  0  0
    1.2910   64.2720   71.7800 C   0  0  2  0  0  0  0  0  0  0  0  0
    0.1780   63.3850   72.3560 C   0  0  0  0  0  0  0  0  0  0  0  0
   -0.1750   62.3420   71.8140 O   0  0  0  0  0  0  0  0  0  0  0  0
   -0.3460   63.9210   73.4880 O   0  0  0  0  0  0  0  0  0  0  0  0
   -0.4060   64.0390   75.9060 C   0  0  0  0  0  0  0  0  0  0  0  0
    0.4410   63.7600   74.6780 C   0  0  0  0  0  0  0  0  0  0  0  0
    0.9010   64.7810   70.3910 C   0  0  0  0  0  0  0  0  0  0  0  0
    0.0690   66.0680   70.4480 C   0  0  0  0  0  0  0  0  0  0  0  0
    0.0430   66.7550   69.1050 C   0  0  0  0  0  0  0  0  0  0  0  0
   -1.1090   66.7090   68.3080 C   0  0  0  0  0  0  0  0  0  0  0  0
   -1.1240   67.3240   67.0540 C   0  0  0  0  0  0  0  0  0  0  0  0
    0.0100   67.9860   66.5880 C   0  0  0  0  0  0  0  0  0  0  0  0
    1.1600   68.0340   67.3720 C   0  0  0  0  0  0  0  0  0  0  0  0
    1.1780   67.4200   68.6250 C   0  0  0  0  0  0  0  0  0  0  0  0
    2.2896   62.4933   71.9982 H   0  0  0  0  0  0  0  0  0  0  0  0
    3.2079   63.9933   72.2624 H   0  0  0  0  0  0  0  0  0  0  0  0
    2.8524   64.0257   69.7592 H   0  0  0  0  0  0  0  0  0  0  0  0
    5.0299   63.6206   71.6741 H   0  0  0  0  0  0  0  0  0  0  0  0
    5.3868   62.7762   70.1294 H   0  0  0  0  0  0  0  0  0  0  0  0
    5.0332   64.5373   70.1294 H   0  0  0  0  0  0  0  0  0  0  0  0
    2.3388   59.2936   68.9976 H   0  0  0  0  0  0  0  0  0  0  0  0
    4.0606   59.5894   68.7532 H   0  0  0  0  0  0  0  0  0  0  0  0
    3.2617   57.4163   70.1374 H   0  0  0  0  0  0  0  0  0  0  0  0
    4.6630   58.2798   70.7259 H   0  0  0  0  0  0  0  0  0  0  0  0
    1.7290   58.4980   71.6312 H   0  0  0  0  0  0  0  0  0  0  0  0
    3.1406   58.3452   72.6646 H   0  0  0  0  0  0  0  0  0  0  0  0
    1.9807   60.8377   72.0960 H   0  0  0  0  0  0  0  0  0  0  0  0
    1.4519   65.1454   72.4290 H   0  0  0  0  0  0  0  0  0  0  0  0
    0.1864   63.8439   76.8121 H   0  0  0  0  0  0  0  0  0  0  0  0
   -0.7282   65.0907   75.8980 H   0  0  0  0  0  0  0  0  0  0  0  0
   -1.2902   63.3846   75.8980 H   0  0  0  0  0  0  0  0  0  0  0  0
    0.8219   62.7291   74.7254 H   0  0  0  0  0  0  0  0  0  0  0  0
    1.2815   64.4691   74.6521 H   0  0  0  0  0  0  0  0  0  0  0  0
    1.8186   64.9795   69.8178 H   0  0  0  0  0  0  0  0  0  0  0  0
    0.2843   64.0059   69.9126 H   0  0  0  0  0  0  0  0  0  0  0  0
   -0.9605   65.8180   70.7441 H   0  0  0  0  0  0  0  0  0  0  0  0
    0.5264   66.7488   71.1811 H   0  0  0  0  0  0  0  0  0  0  0  0
   -2.0057   66.1860   68.6718 H   0  0  0  0  0  0  0  0  0  0  0  0
   -2.0317   67.2857   66.4339 H   0  0  0  0  0  0  0  0  0  0  0  0
   -0.0031   68.4708   65.6007 H   0  0  0  0  0  0  0  0  0  0  0  0
    2.0550   68.5564   67.0032 H   0  0  0  0  0  0  0  0  0  0  0  0
    2.0895   67.4586   69.2395 H   0  0  0  0  0  0  0  0  0  0  0  0
  2  1  1  0
  3  2  1  0
  4  2  1  0
  5  4  2  0
  6  4  1  0
  7  6  1  0
  8  7  1  0
  9  8  1  0
 10  6  1  0
 10  9  1  0
 11 10  1  0
 12 11  2  0
 13 11  1  0
 14  1  1  0
 15 14  1  0
 16 15  2  0
 17 15  1  0
 19 17  1  0
 19 18  1  0
 20 14  1  0
 21 20  1  0
 22 21  1  0
 23 22  2  0
 24 23  1  0
 25 24  2  0
 26 25  1  0
 27 22  1  0
 27 26  2  0
  1 28  1  0
  1 29  1  0
  2 30  1  6
  3 31  1  0
  3 32  1  0
  3 33  1  0
  7 34  1  0
  7 35  1  0
  8 36  1  0
  8 37  1  0
  9 38  1  0
  9 39  1  0
 10 40  1  1
 14 41  1  1
 18 42  1  0
 18 43  1  0
 18 44  1  0
 19 45  1  0
 19 46  1  0
 20 47  1  0
 20 48  1  0
 21 49  1  0
 21 50  1  0
 23 51  1  0
 24 52  1  0
 25 53  1  0
 26 54  1  0
 27 55  1  0
M  CHG  2   1   1  13  -1
M  END
>  <score>  (7) 
-7.886

$$$$
=
     RDKit          3D

 55 56  0  0  0  0  0  0  0  0999 V2000
    2.3600   57.1650   72.5410 N   0  0  0  0  0  4  0  0  0  0  0  0
    2.8590   58.5670   72.4700 C   0  0  1  0  0  0  0  0  0  0  0  0
    3.7610   58.9110   73.6490 C   0  0  0  0  0  0  0  0  0  0  0  0
    3.5370   58.9830   71.1410 C   0  0  0  0  0  0  0  0  0  0  0  0
    3.9000   58.0670   70.3890 O   0  0  0  0  0  0  0  0  0  0  0  0
    3.6630   60.2930   70.7380 N   0  0  0  0  0  0  0  0  0  0  0  0
    4.0340   60.5640   69.3560 C   0  0  0  0  0  0  0  0  0  0  0  0
    3.8070   62.0520   69.1740 C   0  0  0  0  0  0  0  0  0  0  0  0
    4.2000   62.6160   70.5300 C   0  0  0  0  0  0  0  0  0  0  0  0
    3.7000   61.5620   71.5230 C   0  0  1  0  0  0  0  0  0  0  0  0
    2.3760   61.9710   72.2170 C   0  0  0  0  0  0  0  0  0  0  0  0
    1.4160   62.0620   71.3780 O   0  0  0  0  0  0  0  0  0  0  0  0
    2.3960   62.2440   73.4370 O   0  0  0  0  0  1  0  0  0  0  0  0
    1.6580   56.6180   73.7620 C   0  0  2  0  0  0  0  0  0  0  0  0
    2.1090   55.1630   73.9560 C   0  0  0  0  0  0  0  0  0  0  0  0
    2.6420   54.5190   73.0580 O   0  0  0  0  0  0  0  0  0  0  0  0
    1.8160   54.7160   75.2030 O   0  0  0  0  0  0  0  0  0  0  0  0
   -0.2520   53.6330   75.8440 C   0  0  0  0  0  0  0  0  0  0  0  0
    1.1410   53.4500   75.2720 C   0  0  0  0  0  0  0  0  0  0  0  0
    0.1420   56.6850   73.5690 C   0  0  0  0  0  0  0  0  0  0  0  0
   -0.5780   57.3040   74.7730 C   0  0  0  0  0  0  0  0  0  0  0  0
   -1.2020   58.6280   74.4080 C   0  0  0  0  0  0  0  0  0  0  0  0
   -0.4910   59.5570   73.6350 C   0  0  0  0  0  0  0  0  0  0  0  0
   -1.0590   60.7920   73.3180 C   0  0  0  0  0  0  0  0  0  0  0  0
   -2.3380   61.1090   73.7710 C   0  0  0  0  0  0  0  0  0  0  0  0
   -3.0510   60.1930   74.5410 C   0  0  0  0  0  0  0  0  0  0  0  0
   -2.4850   58.9580   74.8600 C   0  0  0  0  0  0  0  0  0  0  0  0
    1.7002   57.0554   71.7577 H   0  0  0  0  0  0  0  0  0  0  0  0
    3.2379   56.6263   72.5410 H   0  0  0  0  0  0  0  0  0  0  0  0
    1.9347   59.1613   72.5188 H   0  0  0  0  0  0  0  0  0  0  0  0
    3.2283   58.7078   74.5897 H   0  0  0  0  0  0  0  0  0  0  0  0
    4.6730   58.2976   73.6042 H   0  0  0  0  0  0  0  0  0  0  0  0
    4.0329   59.9759   73.6042 H   0  0  0  0  0  0  0  0  0  0  0  0
    5.0900   60.3098   69.1821 H   0  0  0  0  0  0  0  0  0  0  0  0
    3.4451   59.9659   68.6450 H   0  0  0  0  0  0  0  0  0  0  0  0
    4.4463   62.4564   68.3754 H   0  0  0  0  0  0  0  0  0  0  0  0
    2.7784   62.3044   68.8767 H   0  0  0  0  0  0  0  0  0  0  0  0
    5.2909   62.7368   70.6029 H   0  0  0  0  0  0  0  0  0  0  0  0
    3.7729   63.6124   70.7163 H   0  0  0  0  0  0  0  0  0  0  0  0
    4.3620   61.4401   72.3930 H   0  0  0  0  0  0  0  0  0  0  0  0
    1.9139   57.2137   74.6506 H   0  0  0  0  0  0  0  0  0  0  0  0
   -0.2010   53.6263   76.9428 H   0  0  0  0  0  0  0  0  0  0  0  0
   -0.6656   54.5932   75.5020 H   0  0  0  0  0  0  0  0  0  0  0  0
   -0.8996   52.8122   75.5020 H   0  0  0  0  0  0  0  0  0  0  0  0
    1.0661   53.0220   74.2615 H   0  0  0  0  0  0  0  0  0  0  0  0
    1.7119   52.7724   75.9239 H   0  0  0  0  0  0  0  0  0  0  0  0
   -0.0734   57.2936   72.6784 H   0  0  0  0  0  0  0  0  0  0  0  0
   -0.2255   55.6546   73.4542 H   0  0  0  0  0  0  0  0  0  0  0  0
   -1.3664   56.6164   75.1131 H   0  0  0  0  0  0  0  0  0  0  0  0
    0.1581   57.4723   75.5728 H   0  0  0  0  0  0  0  0  0  0  0  0
    0.5195   59.3113   73.2766 H   0  0  0  0  0  0  0  0  0  0  0  0
   -0.4964   61.5157   72.7100 H   0  0  0  0  0  0  0  0  0  0  0  0
   -2.7846   62.0826   73.5206 H   0  0  0  0  0  0  0  0  0  0  0  0
   -4.0609   60.4433   74.8979 H   0  0  0  0  0  0  0  0  0  0  0  0
   -3.0508   58.2391   75.4707 H   0  0  0  0  0  0  0  0  0  0  0  0
  2  1  1  0
  3  2  1  0
  4  2  1  0
  5  4  2  0
  6  4  1  0
  7  6  1  0
  8  7  1  0
  9  8  1  0
 10  6  1  0
 10  9  1  0
 11 10  1  0
 12 11  2  0
 13 11  1  0
 14  1  1  0
 15 14  1  0
 16 15  2  0
 17 15  1  0
 19 17  1  0
 19 18  1  0
 20 14  1  0
 21 20  1  0
 22 21  1  0
 23 22  2  0
 24 23  1  0
 25 24  2  0
 26 25  1  0
 27 22  1  0
 27 26  2  0
  1 28  1  0
  1 29  1  0
  2 30  1  1
  3 31  1  0
  3 32  1  0
  3 33  1  0
  7 34  1  0
  7 35  1  0
  8 36  1  0
  8 37  1  0
  9 38  1  0
  9 39  1  0
 10 40  1  1
 14 41  1  1
 18 42  1  0
 18 43  1  0
 18 44  1  0
 19 45  1  0
 19 46  1  0
 20 47  1  0
 20 48  1  0
 21 49  1  0
 21 50  1  0
 23 51  1  0
 24 52  1  0
 25 53  1  0
 26 54  1  0
 27 55  1  0
M  CHG  2   1   1  13  -1
M  END
>  <score>  (8) 
-7.472

$$$$
=
     RDKit          3D

 55 56  0  0  0  0  0  0  0  0999 V2000
    2.3000   59.7040   73.3780 N   0  0  0  0  0  4  0  0  0  0  0  0
    1.3140   60.4000   72.5040 C   0  0  1  0  0  0  0  0  0  0  0  0
   -0.0810   60.4120   73.1180 C   0  0  0  0  0  0  0  0  0  0  0  0
    1.7030   61.8240   72.0370 C   0  0  0  0  0  0  0  0  0  0  0  0
    1.2090   62.7720   72.6640 O   0  0  0  0  0  0  0  0  0  0  0  0
    2.6220   62.0640   71.0410 N   0  0  0  0  0  0  0  0  0  0  0  0
    3.1410   63.4160   70.8830 C   0  0  0  0  0  0  0  0  0  0  0  0
    4.3070   63.2780   69.9230 C   0  0  0  0  0  0  0  0  0  0  0  0
    3.8320   62.1850   68.9800 C   0  0  0  0  0  0  0  0  0  0  0  0
    3.0660   61.2220   69.8920 C   0  0  1  0  0  0  0  0  0  0  0  0
    3.8860   59.9570   70.2540 C   0  0  0  0  0  0  0  0  0  0  0  0
    4.5760   60.1340   71.3170 O   0  0  0  0  0  0  0  0  0  0  0  0
    3.8670   58.9830   69.4710 O   0  0  0  0  0  1  0  0  0  0  0  0
    1.9550   58.4500   74.1470 C   0  0  2  0  0  0  0  0  0  0  0  0
    3.1300   58.1310   75.0830 C   0  0  0  0  0  0  0  0  0  0  0  0
    4.2420   58.6250   74.9290 O   0  0  0  0  0  0  0  0  0  0  0  0
    2.7700   57.2430   76.0440 O   0  0  0  0  0  0  0  0  0  0  0  0
    0.9900   56.4560   77.4860 C   0  0  0  0  0  0  0  0  0  0  0  0
    1.7150   57.6640   76.9230 C   0  0  0  0  0  0  0  0  0  0  0  0
    1.7140   57.2900   73.1800 C   0  0  0  0  0  0  0  0  0  0  0  0
    0.2960   56.7170   73.2890 C   0  0  0  0  0  0  0  0  0  0  0  0
    0.3020   55.3960   74.0170 C   0  0  0  0  0  0  0  0  0  0  0  0
   -0.8720   54.9070   74.6070 C   0  0  0  0  0  0  0  0  0  0  0  0
   -0.8600   53.6960   75.3020 C   0  0  0  0  0  0  0  0  0  0  0  0
    0.3220   52.9670   75.4150 C   0  0  0  0  0  0  0  0  0  0  0  0
    1.4940   53.4470   74.8350 C   0  0  0  0  0  0  0  0  0  0  0  0
    1.4850   54.6570   74.1400 C   0  0  0  0  0  0  0  0  0  0  0  0
    3.0968   59.4592   72.7730 H   0  0  0  0  0  0  0  0  0  0  0  0
    2.4327   60.3886   74.1360 H   0  0  0  0  0  0  0  0  0  0  0  0
    1.3171   59.7880   71.5900 H   0  0  0  0  0  0  0  0  0  0  0  0
    0.0012   60.4113   74.2149 H   0  0  0  0  0  0  0  0  0  0  0  0
   -0.6177   61.3148   72.7911 H   0  0  0  0  0  0  0  0  0  0  0  0
   -0.6332   59.5186   72.7911 H   0  0  0  0  0  0  0  0  0  0  0  0
    2.3706   64.0794   70.4630 H   0  0  0  0  0  0  0  0  0  0  0  0
    3.4460   63.8568   71.8435 H   0  0  0  0  0  0  0  0  0  0  0  0
    4.4891   64.2181   69.3817 H   0  0  0  0  0  0  0  0  0  0  0  0
    5.2589   63.0427   70.4216 H   0  0  0  0  0  0  0  0  0  0  0  0
    3.1716   62.5976   68.2031 H   0  0  0  0  0  0  0  0  0  0  0  0
    4.6594   61.6961   68.4448 H   0  0  0  0  0  0  0  0  0  0  0  0
    2.1901   60.7704   69.4033 H   0  0  0  0  0  0  0  0  0  0  0  0
    1.0356   58.5999   74.7320 H   0  0  0  0  0  0  0  0  0  0  0  0
    1.0128   56.4940   78.5851 H   0  0  0  0  0  0  0  0  0  0  0  0
   -0.0543   56.4613   77.1405 H   0  0  0  0  0  0  0  0  0  0  0  0
    1.4859   55.5369   77.1405 H   0  0  0  0  0  0  0  0  0  0  0  0
    2.1429   58.2493   77.7502 H   0  0  0  0  0  0  0  0  0  0  0  0
    1.0007   58.2805   76.3576 H   0  0  0  0  0  0  0  0  0  0  0  0
    1.8707   57.6496   72.1523 H   0  0  0  0  0  0  0  0  0  0  0  0
    2.4190   56.4868   73.4405 H   0  0  0  0  0  0  0  0  0  0  0  0
   -0.3381   57.4280   73.8388 H   0  0  0  0  0  0  0  0  0  0  0  0
   -0.0963   56.5563   72.2740 H   0  0  0  0  0  0  0  0  0  0  0  0
   -1.8071   55.4801   74.5220 H   0  0  0  0  0  0  0  0  0  0  0  0
   -1.7850   53.3170   75.7610 H   0  0  0  0  0  0  0  0  0  0  0  0
    0.3297   52.0127   75.9621 H   0  0  0  0  0  0  0  0  0  0  0  0
    2.4273   52.8718   74.9249 H   0  0  0  0  0  0  0  0  0  0  0  0
    2.4136   55.0329   73.6856 H   0  0  0  0  0  0  0  0  0  0  0  0
  2  1  1  0
  3  2  1  0
  4  2  1  0
  5  4  2  0
  6  4  1  0
  7  6  1  0
  8  7  1  0
  9  8  1  0
 10  6  1  0
 10  9  1  0
 11 10  1  0
 12 11  2  0
 13 11  1  0
 14  1  1  0
 15 14  1  0
 16 15  2  0
 17 15  1  0
 19 17  1  0
 19 18  1  0
 20 14  1  0
 21 20  1  0
 22 21  1  0
 23 22  2  0
 24 23  1  0
 25 24  2  0
 26 25  1  0
 27 22  1  0
 27 26  2  0
  1 28  1  0
  1 29  1  0
  2 30  1  6
  3 31  1  0
  3 32  1  0
  3 33  1  0
  7 34  1  0
  7 35  1  0
  8 36  1  0
  8 37  1  0
  9 38  1  0
  9 39  1  0
 10 40  1  6
 14 41  1  1
 18 42  1  0
 18 43  1  0
 18 44  1  0
 19 45  1  0
 19 46  1  0
 20 47  1  0
 20 48  1  0
 21 49  1  0
 21 50  1  0
 23 51  1  0
 24 52  1  0
 25 53  1  0
 26 54  1  0
 27 55  1  0
M  CHG  2   1   1  13  -1
M  END
>  <score>  (9) 
-7.237

$$$$
