=
     RDKit          3D

 50 53  0  0  0  0  0  0  0  0999 V2000
    3.8410   59.0400   74.3800 O   0  0  0  0  0  0  0  0  0  0  0  0
    2.8100   59.4570   73.8470 C   0  0  0  0  0  0  0  0  0  0  0  0
    2.7960   60.7650   73.1180 C   0  0  0  0  0  0  0  0  0  0  0  0
    4.3640   61.4810   72.8950 Cl  0  0  0  0  0  0  0  0  0  0  0  0
    1.6680   61.3130   72.6260 C   0  0  0  0  0  0  0  0  0  0  0  0
    0.4630   60.4710   72.8950 C   0  0  0  0  0  0  0  0  0  0  0  0
    0.4110   59.3110   73.4590 N   0  0  0  0  0  0  0  0  0  0  0  0
    1.5920   58.7860   73.8950 N   0  0  0  0  0  0  0  0  0  0  0  0
    1.4810   57.5020   74.4980 C   0  0  0  0  0  0  0  0  0  0  0  0
    1.0430   57.3690   75.8300 C   0  0  0  0  0  0  0  0  0  0  0  0
    0.7510   58.7360   76.8540 Cl  0  0  0  0  0  0  0  0  0  0  0  0
    0.9210   56.1050   76.4240 C   0  0  0  0  0  0  0  0  0  0  0  0
    1.2460   54.9440   75.7120 C   0  0  0  0  0  0  0  0  0  0  0  0
    1.6850   55.0700   74.3880 C   0  0  0  0  0  0  0  0  0  0  0  0
    1.8050   56.3310   73.7870 C   0  0  0  0  0  0  0  0  0  0  0  0
    2.2670   56.3470   72.1150 Cl  0  0  0  0  0  0  0  0  0  0  0  0
    1.0940   53.5820   76.3450 C   0  0  0  0  0  0  0  0  0  0  0  0
    1.7930   53.4550   77.5060 F   0  0  0  0  0  0  0  0  0  0  0  0
    1.5220   52.5720   75.5390 F   0  0  0  0  0  0  0  0  0  0  0  0
   -0.2000   53.2990   76.6500 F   0  0  0  0  0  0  0  0  0  0  0  0
    1.4590   62.5220   71.9340 N   0  0  0  0  0  0  0  0  0  0  0  0
    1.9200   62.7610   70.5450 C   0  0  0  0  0  0  0  0  0  0  0  0
    2.2480   64.2490   70.2700 C   0  0  0  0  0  0  0  0  0  0  0  0
    1.1320   65.1500   70.6100 N   0  0  0  0  0  0  0  0  0  0  0  0
    0.0630   64.5610   71.4340 C   0  0  0  0  0  0  0  0  0  0  0  0
    0.6660   63.6380   72.5130 C   0  0  0  0  0  0  0  0  0  0  0  0
    0.7180   66.0810   69.6640 C   0  0  0  0  0  0  0  0  0  0  0  0
    1.5210   67.1740   69.3330 C   0  0  0  0  0  0  0  0  0  0  0  0
    1.0810   68.1120   68.3970 C   0  0  0  0  0  0  0  0  0  0  0  0
   -0.1700   67.9600   67.8060 C   0  0  0  0  0  0  0  0  0  0  0  0
   -0.9130   66.8590   68.1900 C   0  0  0  0  0  0  0  0  0  0  0  0
   -0.5010   65.9420   69.0980 N   0  0  0  0  0  0  0  0  0  0  0  0
   -0.7030   68.9090   66.7810 C   0  0  0  0  0  0  0  0  0  0  0  0
   -0.9360   70.1550   67.2800 F   0  0  0  0  0  0  0  0  0  0  0  0
    0.1350   69.0840   65.7220 F   0  0  0  0  0  0  0  0  0  0  0  0
   -1.8870   68.4910   66.2540 F   0  0  0  0  0  0  0  0  0  0  0  0
   -0.5003   60.8925   72.5719 H   0  0  0  0  0  0  0  0  0  0  0  0
    0.5657   56.0244   77.4619 H   0  0  0  0  0  0  0  0  0  0  0  0
    1.9390   54.1678   73.8121 H   0  0  0  0  0  0  0  0  0  0  0  0
    2.8258   62.1627   70.3673 H   0  0  0  0  0  0  0  0  0  0  0  0
    1.1013   62.4718   69.8697 H   0  0  0  0  0  0  0  0  0  0  0  0
    3.1249   64.5328   70.8705 H   0  0  0  0  0  0  0  0  0  0  0  0
    2.4421   64.3527   69.1922 H   0  0  0  0  0  0  0  0  0  0  0  0
   -0.5049   65.3669   71.9219 H   0  0  0  0  0  0  0  0  0  0  0  0
   -0.6021   63.9693   70.7878 H   0  0  0  0  0  0  0  0  0  0  0  0
    1.3223   64.2367   73.1618 H   0  0  0  0  0  0  0  0  0  0  0  0
   -0.1686   63.1956   73.0766 H   0  0  0  0  0  0  0  0  0  0  0  0
    2.5039   67.2967   69.8113 H   0  0  0  0  0  0  0  0  0  0  0  0
    1.7195   68.9664   68.1281 H   0  0  0  0  0  0  0  0  0  0  0  0
   -1.9017   66.7187   67.7288 H   0  0  0  0  0  0  0  0  0  0  0  0
  2  1  2  0
  3  2  1  0
  4  3  1  0
  5  3  2  0
  6  5  1  0
  7  6  2  0
  8  7  1  0
  8  2  1  0
  9  8  1  0
 10  9  2  0
 11 10  1  0
 12 10  1  0
 13 12  2  0
 14 13  1  0
 15 14  2  0
 15  9  1  0
 16 15  1  0
 17 13  1  0
 18 17  1  0
 19 17  1  0
 20 17  1  0
 21  5  1  0
 22 21  1  0
 23 22  1  0
 24 23  1  0
 25 24  1  0
 26 25  1  0
 26 21  1  0
 27 24  1  0
 28 27  2  0
 29 28  1  0
 30 29  2  0
 31 30  1  0
 32 31  2  0
 32 27  1  0
 33 30  1  0
 34 33  1  0
 35 33  1  0
 36 33  1  0
  6 37  1  0
 12 38  1  0
 14 39  1  0
 22 40  1  0
 22 41  1  0
 23 42  1  0
 23 43  1  0
 25 44  1  0
 25 45  1  0
 26 46  1  0
 26 47  1  0
 28 48  1  0
 29 49  1  0
 31 50  1  0
M  END
>  <score>  (1) 
-9.138

$$$$
=
     RDKit          3D

 50 53  0  0  0  0  0  0  0  0999 V2000
    3.7940   59.0550   74.3870 O   0  0  0  0  0  0  0  0  0  0  0  0
    2.7670   59.4720   73.8460 C   0  0  0  0  0  0  0  0  0  0  0  0
    2.7610   60.7760   73.1090 C   0  0  0  0  0  0  0  0  0  0  0  0
    4.3330   61.4840   72.8870 Cl  0  0  0  0  0  0  0  0  0  0  0  0
    1.6370   61.3240   72.6080 C   0  0  0  0  0  0  0  0  0  0  0  0
    0.4280   60.4880   72.8770 C   0  0  0  0  0  0  0  0  0  0  0  0
    0.3690   59.3330   73.4490 N   0  0  0  0  0  0  0  0  0  0  0  0
    1.5460   58.8060   73.8940 N   0  0  0  0  0  0  0  0  0  0  0  0
    1.4280   57.5270   74.5050 C   0  0  0  0  0  0  0  0  0  0  0  0
    1.7390   56.3550   73.7880 C   0  0  0  0  0  0  0  0  0  0  0  0
    2.1420   56.3760   72.1020 Cl  0  0  0  0  0  0  0  0  0  0  0  0
    1.6360   55.0940   74.3910 C   0  0  0  0  0  0  0  0  0  0  0  0
    1.2060   54.9670   75.7170 C   0  0  0  0  0  0  0  0  0  0  0  0
    0.8920   56.1280   76.4350 C   0  0  0  0  0  0  0  0  0  0  0  0
    0.9970   57.3930   75.8390 C   0  0  0  0  0  0  0  0  0  0  0  0
    0.6710   58.7560   76.8600 Cl  0  0  0  0  0  0  0  0  0  0  0  0
    1.1160   53.6100   76.3730 C   0  0  0  0  0  0  0  0  0  0  0  0
    1.8730   52.6670   75.7480 F   0  0  0  0  0  0  0  0  0  0  0  0
   -0.1520   53.1150   76.3940 F   0  0  0  0  0  0  0  0  0  0  0  0
    1.5340   53.6350   77.6660 F   0  0  0  0  0  0  0  0  0  0  0  0
    1.4360   62.5290   71.9070 N   0  0  0  0  0  0  0  0  0  0  0  0
    1.9150   62.7620   70.5230 C   0  0  0  0  0  0  0  0  0  0  0  0
    2.2450   64.2490   70.2440 C   0  0  0  0  0  0  0  0  0  0  0  0
    1.1230   65.1500   70.5650 N   0  0  0  0  0  0  0  0  0  0  0  0
    0.0440   64.5640   71.3770 C   0  0  0  0  0  0  0  0  0  0  0  0
    0.6340   63.6470   72.4700 C   0  0  0  0  0  0  0  0  0  0  0  0
    0.7200   66.0760   69.6080 C   0  0  0  0  0  0  0  0  0  0  0  0
    1.5330   67.1600   69.2720 C   0  0  0  0  0  0  0  0  0  0  0  0
    1.1040   68.0930   68.3250 C   0  0  0  0  0  0  0  0  0  0  0  0
   -0.1450   67.9440   67.7300 C   0  0  0  0  0  0  0  0  0  0  0  0
   -0.8980   66.8520   68.1190 C   0  0  0  0  0  0  0  0  0  0  0  0
   -0.4960   65.9400   69.0370 N   0  0  0  0  0  0  0  0  0  0  0  0
   -0.6660   68.8870   66.6940 C   0  0  0  0  0  0  0  0  0  0  0  0
    0.1910   69.0560   65.6480 F   0  0  0  0  0  0  0  0  0  0  0  0
   -1.8460   68.4860   66.1450 F   0  0  0  0  0  0  0  0  0  0  0  0
   -0.8940   70.1330   67.1940 F   0  0  0  0  0  0  0  0  0  0  0  0
   -0.5322   60.9103   72.5458 H   0  0  0  0  0  0  0  0  0  0  0  0
    1.8962   54.1934   73.8154 H   0  0  0  0  0  0  0  0  0  0  0  0
    0.5587   56.0464   77.4801 H   0  0  0  0  0  0  0  0  0  0  0  0
    2.8238   62.1639   70.3604 H   0  0  0  0  0  0  0  0  0  0  0  0
    1.1052   62.4687   69.8387 H   0  0  0  0  0  0  0  0  0  0  0  0
    3.1137   64.5373   70.8541 H   0  0  0  0  0  0  0  0  0  0  0  0
    2.4532   64.3473   69.1684 H   0  0  0  0  0  0  0  0  0  0  0  0
   -0.5318   65.3716   71.8527 H   0  0  0  0  0  0  0  0  0  0  0  0
   -0.6113   63.9678   70.7249 H   0  0  0  0  0  0  0  0  0  0  0  0
    1.2808   64.2499   73.1243 H   0  0  0  0  0  0  0  0  0  0  0  0
   -0.2074   63.2067   73.0252 H   0  0  0  0  0  0  0  0  0  0  0  0
    2.5143   67.2798   69.7544 H   0  0  0  0  0  0  0  0  0  0  0  0
    1.7497   68.9404   68.0513 H   0  0  0  0  0  0  0  0  0  0  0  0
   -1.8855   66.7148   67.6542 H   0  0  0  0  0  0  0  0  0  0  0  0
  2  1  2  0
  3  2  1  0
  4  3  1  0
  5  3  2  0
  6  5  1  0
  7  6  2  0
  8  7  1  0
  8  2  1  0
  9  8  1  0
 10  9  2  0
 11 10  1  0
 12 10  1  0
 13 12  2  0
 14 13  1  0
 15 14  2  0
 15  9  1  0
 16 15  1  0
 17 13  1  0
 18 17  1  0
 19 17  1  0
 20 17  1  0
 21  5  1  0
 22 21  1  0
 23 22  1  0
 24 23  1  0
 25 24  1  0
 26 25  1  0
 26 21  1  0
 27 24  1  0
 28 27  2  0
 29 28  1  0
 30 29  2  0
 31 30  1  0
 32 31  2  0
 32 27  1  0
 33 30  1  0
 34 33  1  0
 35 33  1  0
 36 33  1  0
  6 37  1  0
 12 38  1  0
 14 39  1  0
 22 40  1  0
 22 41  1  0
 23 42  1  0
 23 43  1  0
 25 44  1  0
 25 45  1  0
 26 46  1  0
 26 47  1  0
 28 48  1  0
 29 49  1  0
 31 50  1  0
M  END
>  <score>  (2) 
-9.082

$$$$
=
     RDKit          3D

 50 53  0  0  0  0  0  0  0  0999 V2000
    0.8990   60.4230   76.6430 O   0  0  0  0  0  0  0  0  0  0  0  0
    0.9340   60.4460   75.4100 C   0  0  0  0  0  0  0  0  0  0  0  0
    0.9400   61.7450   74.6650 C   0  0  0  0  0  0  0  0  0  0  0  0
    1.1390   63.1500   75.6690 Cl  0  0  0  0  0  0  0  0  0  0  0  0
    0.8570   61.8150   73.3230 C   0  0  0  0  0  0  0  0  0  0  0  0
    0.7590   60.4650   72.6880 C   0  0  0  0  0  0  0  0  0  0  0  0
    0.8090   59.3100   73.2610 N   0  0  0  0  0  0  0  0  0  0  0  0
    0.9410   59.3010   74.6180 N   0  0  0  0  0  0  0  0  0  0  0  0
    1.0030   58.0040   75.1980 C   0  0  0  0  0  0  0  0  0  0  0  0
   -0.1710   57.2580   75.4190 C   0  0  0  0  0  0  0  0  0  0  0  0
   -1.7530   57.9090   75.1390 Cl  0  0  0  0  0  0  0  0  0  0  0  0
   -0.1130   55.9740   75.9800 C   0  0  0  0  0  0  0  0  0  0  0  0
    1.1140   55.4080   76.3480 C   0  0  0  0  0  0  0  0  0  0  0  0
    2.2850   56.1460   76.1330 C   0  0  0  0  0  0  0  0  0  0  0  0
    2.2330   57.4290   75.5690 C   0  0  0  0  0  0  0  0  0  0  0  0
    3.7580   58.2000   75.2680 Cl  0  0  0  0  0  0  0  0  0  0  0  0
    1.1770   54.0170   76.9310 C   0  0  0  0  0  0  0  0  0  0  0  0
   -0.0510   53.4550   77.1000 F   0  0  0  0  0  0  0  0  0  0  0  0
    1.7750   53.9820   78.1530 F   0  0  0  0  0  0  0  0  0  0  0  0
    1.8790   53.1610   76.1420 F   0  0  0  0  0  0  0  0  0  0  0  0
    0.8370   62.9280   72.4600 N   0  0  0  0  0  0  0  0  0  0  0  0
    1.1420   62.8480   71.0110 C   0  0  0  0  0  0  0  0  0  0  0  0
    1.7600   64.1530   70.4540 C   0  0  0  0  0  0  0  0  0  0  0  0
    0.9390   65.3420   70.7480 N   0  0  0  0  0  0  0  0  0  0  0  0
   -0.1100   65.1590   71.7640 C   0  0  0  0  0  0  0  0  0  0  0  0
    0.4090   64.2760   72.9180 C   0  0  0  0  0  0  0  0  0  0  0  0
    0.6220   66.2040   69.7040 C   0  0  0  0  0  0  0  0  0  0  0  0
    1.4910   67.2320   69.3320 C   0  0  0  0  0  0  0  0  0  0  0  0
    1.1480   68.1020   68.2960 C   0  0  0  0  0  0  0  0  0  0  0  0
   -0.0730   67.9510   67.6460 C   0  0  0  0  0  0  0  0  0  0  0  0
   -0.8860   66.9180   68.0750 C   0  0  0  0  0  0  0  0  0  0  0  0
   -0.5680   66.0670   69.0790 N   0  0  0  0  0  0  0  0  0  0  0  0
   -0.5040   68.8290   66.5150 C   0  0  0  0  0  0  0  0  0  0  0  0
   -0.9780   70.0370   66.9300 F   0  0  0  0  0  0  0  0  0  0  0  0
    0.4990   69.1060   65.6370 F   0  0  0  0  0  0  0  0  0  0  0  0
   -1.5020   68.2700   65.7760 F   0  0  0  0  0  0  0  0  0  0  0  0
    0.6279   60.4552   71.5959 H   0  0  0  0  0  0  0  0  0  0  0  0
   -1.0419   55.4049   76.1327 H   0  0  0  0  0  0  0  0  0  0  0  0
    3.2578   55.7137   76.4101 H   0  0  0  0  0  0  0  0  0  0  0  0
    1.8528   62.0247   70.8466 H   0  0  0  0  0  0  0  0  0  0  0  0
    0.1923   62.6798   70.4820 H   0  0  0  0  0  0  0  0  0  0  0  0
    2.7541   64.2917   70.9041 H   0  0  0  0  0  0  0  0  0  0  0  0
    1.8192   64.0522   69.3602 H   0  0  0  0  0  0  0  0  0  0  0  0
   -0.4040   66.1411   72.1628 H   0  0  0  0  0  0  0  0  0  0  0  0
   -0.9762   64.6661   71.2986 H   0  0  0  0  0  0  0  0  0  0  0  0
    1.2684   64.7780   73.3864 H   0  0  0  0  0  0  0  0  0  0  0  0
   -0.4185   64.1384   73.6296 H   0  0  0  0  0  0  0  0  0  0  0  0
    2.4493   67.3565   69.8575 H   0  0  0  0  0  0  0  0  0  0  0  0
    1.8393   68.9029   67.9949 H   0  0  0  0  0  0  0  0  0  0  0  0
   -1.8524   66.7788   67.5685 H   0  0  0  0  0  0  0  0  0  0  0  0
  2  1  2  0
  3  2  1  0
  4  3  1  0
  5  3  2  0
  6  5  1  0
  7  6  2  0
  8  7  1  0
  8  2  1  0
  9  8  1  0
 10  9  2  0
 11 10  1  0
 12 10  1  0
 13 12  2  0
 14 13  1  0
 15 14  2  0
 15  9  1  0
 16 15  1  0
 17 13  1  0
 18 17  1  0
 19 17  1  0
 20 17  1  0
 21  5  1  0
 22 21  1  0
 23 22  1  0
 24 23  1  0
 25 24  1  0
 26 25  1  0
 26 21  1  0
 27 24  1  0
 28 27  2  0
 29 28  1  0
 30 29  2  0
 31 30  1  0
 32 31  2  0
 32 27  1  0
 33 30  1  0
 34 33  1  0
 35 33  1  0
 36 33  1  0
  6 37  1  0
 12 38  1  0
 14 39  1  0
 22 40  1  0
 22 41  1  0
 23 42  1  0
 23 43  1  0
 25 44  1  0
 25 45  1  0
 26 46  1  0
 26 47  1  0
 28 48  1  0
 29 49  1  0
 31 50  1  0
M  END
>  <score>  (3) 
-8.142

$$$$
=
     RDKit          3D

 50 53  0  0  0  0  0  0  0  0999 V2000
   -0.4530   59.1720   75.0060 O   0  0  0  0  0  0  0  0  0  0  0  0
    0.4010   60.0160   74.7290 C   0  0  0  0  0  0  0  0  0  0  0  0
    0.1040   61.1240   73.7660 C   0  0  0  0  0  0  0  0  0  0  0  0
   -1.5650   61.2380   73.2930 Cl  0  0  0  0  0  0  0  0  0  0  0  0
    1.0410   61.9950   73.3450 C   0  0  0  0  0  0  0  0  0  0  0  0
    2.3820   61.7210   73.9460 C   0  0  0  0  0  0  0  0  0  0  0  0
    2.6940   60.8280   74.8240 N   0  0  0  0  0  0  0  0  0  0  0  0
    1.6930   60.0050   75.2480 N   0  0  0  0  0  0  0  0  0  0  0  0
    2.0870   59.0480   76.2230 C   0  0  0  0  0  0  0  0  0  0  0  0
    2.1590   59.3970   77.5860 C   0  0  0  0  0  0  0  0  0  0  0  0
    1.9180   61.0200   78.1440 Cl  0  0  0  0  0  0  0  0  0  0  0  0
    2.5340   58.4520   78.5510 C   0  0  0  0  0  0  0  0  0  0  0  0
    2.8620   57.1420   78.1820 C   0  0  0  0  0  0  0  0  0  0  0  0
    2.7940   56.7890   76.8290 C   0  0  0  0  0  0  0  0  0  0  0  0
    2.4160   57.7280   75.8590 C   0  0  0  0  0  0  0  0  0  0  0  0
    2.2790   57.1430   74.2310 Cl  0  0  0  0  0  0  0  0  0  0  0  0
    3.2450   56.1200   79.2250 C   0  0  0  0  0  0  0  0  0  0  0  0
    2.6390   54.9150   79.0370 F   0  0  0  0  0  0  0  0  0  0  0  0
    2.9220   56.5060   80.4900 F   0  0  0  0  0  0  0  0  0  0  0  0
    4.5820   55.8730   79.2350 F   0  0  0  0  0  0  0  0  0  0  0  0
    0.9540   63.0770   72.4480 N   0  0  0  0  0  0  0  0  0  0  0  0
    1.2150   62.9580   70.9930 C   0  0  0  0  0  0  0  0  0  0  0  0
    1.7690   64.2640   70.3730 C   0  0  0  0  0  0  0  0  0  0  0  0
    0.9180   65.4340   70.6550 N   0  0  0  0  0  0  0  0  0  0  0  0
   -0.0910   65.2500   71.7120 C   0  0  0  0  0  0  0  0  0  0  0  0
    0.4960   64.4250   72.8760 C   0  0  0  0  0  0  0  0  0  0  0  0
    0.5370   66.2490   69.5950 C   0  0  0  0  0  0  0  0  0  0  0  0
    1.3770   67.2650   69.1330 C   0  0  0  0  0  0  0  0  0  0  0  0
    0.9710   68.0890   68.0820 C   0  0  0  0  0  0  0  0  0  0  0  0
   -0.2830   67.9030   67.5070 C   0  0  0  0  0  0  0  0  0  0  0  0
   -1.0630   66.8840   68.0230 C   0  0  0  0  0  0  0  0  0  0  0  0
   -0.6840   66.0780   69.0430 N   0  0  0  0  0  0  0  0  0  0  0  0
   -0.7820   68.7300   66.3660 C   0  0  0  0  0  0  0  0  0  0  0  0
    0.1460   68.8940   65.3820 F   0  0  0  0  0  0  0  0  0  0  0  0
   -1.8790   68.2000   65.7560 F   0  0  0  0  0  0  0  0  0  0  0  0
   -1.1410   69.9850   66.7520 F   0  0  0  0  0  0  0  0  0  0  0  0
    3.2059   62.3604   73.5962 H   0  0  0  0  0  0  0  0  0  0  0  0
    2.5710   58.7433   79.6111 H   0  0  0  0  0  0  0  0  0  0  0  0
    3.0404   55.7615   76.5230 H   0  0  0  0  0  0  0  0  0  0  0  0
    1.9485   62.1542   70.8323 H   0  0  0  0  0  0  0  0  0  0  0  0
    0.2554   62.7397   70.5016 H   0  0  0  0  0  0  0  0  0  0  0  0
    2.7718   64.4510   70.7846 H   0  0  0  0  0  0  0  0  0  0  0  0
    1.7956   64.1282   69.2817 H   0  0  0  0  0  0  0  0  0  0  0  0
   -0.4061   66.2345   72.0880 H   0  0  0  0  0  0  0  0  0  0  0  0
   -0.9542   64.7124   71.2925 H   0  0  0  0  0  0  0  0  0  0  0  0
    1.3530   64.9708   73.2975 H   0  0  0  0  0  0  0  0  0  0  0  0
   -0.3018   64.2848   73.6202 H   0  0  0  0  0  0  0  0  0  0  0  0
    2.3618   67.4162   69.5991 H   0  0  0  0  0  0  0  0  0  0  0  0
    1.6381   68.8807   67.7103 H   0  0  0  0  0  0  0  0  0  0  0  0
   -2.0544   66.7177   67.5763 H   0  0  0  0  0  0  0  0  0  0  0  0
  2  1  2  0
  3  2  1  0
  4  3  1  0
  5  3  2  0
  6  5  1  0
  7  6  2  0
  8  7  1  0
  8  2  1  0
  9  8  1  0
 10  9  2  0
 11 10  1  0
 12 10  1  0
 13 12  2  0
 14 13  1  0
 15 14  2  0
 15  9  1  0
 16 15  1  0
 17 13  1  0
 18 17  1  0
 19 17  1  0
 20 17  1  0
 21  5  1  0
 22 21  1  0
 23 22  1  0
 24 23  1  0
 25 24  1  0
 26 25  1  0
 26 21  1  0
 27 24  1  0
 28 27  2  0
 29 28  1  0
 30 29  2  0
 31 30  1  0
 32 31  2  0
 32 27  1  0
 33 30  1  0
 34 33  1  0
 35 33  1  0
 36 33  1  0
  6 37  1  0
 12 38  1  0
 14 39  1  0
 22 40  1  0
 22 41  1  0
 23 42  1  0
 23 43  1  0
 25 44  1  0
 25 45  1  0
 26 46  1  0
 26 47  1  0
 28 48  1  0
 29 49  1  0
 31 50  1  0
M  END
>  <score>  (4) 
-8.071

$$$$
=
     RDKit          3D

 50 53  0  0  0  0  0  0  0  0999 V2000
   -0.3480   62.7710   75.9560 O   0  0  0  0  0  0  0  0  0  0  0  0
   -0.0330   62.5730   74.7810 C   0  0  0  0  0  0  0  0  0  0  0  0
    0.1040   63.7120   73.8190 C   0  0  0  0  0  0  0  0  0  0  0  0
    0.0260   65.2860   74.5520 Cl  0  0  0  0  0  0  0  0  0  0  0  0
    0.3280   63.5320   72.5030 C   0  0  0  0  0  0  0  0  0  0  0  0
    0.4170   62.0860   72.1350 C   0  0  0  0  0  0  0  0  0  0  0  0
    0.3690   61.0600   72.9160 N   0  0  0  0  0  0  0  0  0  0  0  0
    0.1890   61.3070   74.2450 N   0  0  0  0  0  0  0  0  0  0  0  0
    0.1550   60.1450   75.0640 C   0  0  0  0  0  0  0  0  0  0  0  0
    1.3170   59.6920   75.7180 C   0  0  0  0  0  0  0  0  0  0  0  0
    2.8700   60.4200   75.4650 Cl  0  0  0  0  0  0  0  0  0  0  0  0
    1.2850   58.5540   76.5360 C   0  0  0  0  0  0  0  0  0  0  0  0
    0.1000   57.8300   76.7100 C   0  0  0  0  0  0  0  0  0  0  0  0
   -1.0590   58.2730   76.0600 C   0  0  0  0  0  0  0  0  0  0  0  0
   -1.0340   59.4130   75.2440 C   0  0  0  0  0  0  0  0  0  0  0  0
   -2.5530   59.9120   74.5720 Cl  0  0  0  0  0  0  0  0  0  0  0  0
    0.0610   56.6170   77.6080 C   0  0  0  0  0  0  0  0  0  0  0  0
   -0.8640   55.6970   77.2190 F   0  0  0  0  0  0  0  0  0  0  0  0
   -0.2380   56.9230   78.9000 F   0  0  0  0  0  0  0  0  0  0  0  0
    1.2530   55.9640   77.6410 F   0  0  0  0  0  0  0  0  0  0  0  0
    0.4720   64.4650   71.4580 N   0  0  0  0  0  0  0  0  0  0  0  0
    1.4120   64.2900   70.3250 C   0  0  0  0  0  0  0  0  0  0  0  0
    1.9300   65.6360   69.7610 C   0  0  0  0  0  0  0  0  0  0  0  0
    0.8380   66.5550   69.3930 N   0  0  0  0  0  0  0  0  0  0  0  0
   -0.4950   66.2040   69.9090 C   0  0  0  0  0  0  0  0  0  0  0  0
   -0.3880   65.6750   71.3550 C   0  0  0  0  0  0  0  0  0  0  0  0
    0.8590   67.1410   68.1320 C   0  0  0  0  0  0  0  0  0  0  0  0
   -0.1230   68.0560   67.7480 C   0  0  0  0  0  0  0  0  0  0  0  0
   -0.0990   68.6180   66.4700 C   0  0  0  0  0  0  0  0  0  0  0  0
    0.9010   68.2490   65.5750 C   0  0  0  0  0  0  0  0  0  0  0  0
    1.8330   67.3320   66.0210 C   0  0  0  0  0  0  0  0  0  0  0  0
    1.8220   66.7760   67.2570 N   0  0  0  0  0  0  0  0  0  0  0  0
    1.0070   68.8210   64.1970 C   0  0  0  0  0  0  0  0  0  0  0  0
    0.8360   67.8890   63.2190 F   0  0  0  0  0  0  0  0  0  0  0  0
    0.0870   69.7940   63.9470 F   0  0  0  0  0  0  0  0  0  0  0  0
    2.2220   69.3890   63.9630 F   0  0  0  0  0  0  0  0  0  0  0  0
    0.5387   61.8692   71.0635 H   0  0  0  0  0  0  0  0  0  0  0  0
    2.2022   58.2262   77.0472 H   0  0  0  0  0  0  0  0  0  0  0  0
   -2.0006   57.7196   76.1913 H   0  0  0  0  0  0  0  0  0  0  0  0
    2.2731   63.6993   70.6709 H   0  0  0  0  0  0  0  0  0  0  0  0
    0.8657   63.7810   69.5173 H   0  0  0  0  0  0  0  0  0  0  0  0
    2.5556   66.1206   70.5251 H   0  0  0  0  0  0  0  0  0  0  0  0
    2.5020   65.4160   68.8475 H   0  0  0  0  0  0  0  0  0  0  0  0
   -1.1359   67.0979   69.8962 H   0  0  0  0  0  0  0  0  0  0  0  0
   -0.9296   65.4193   69.2724 H   0  0  0  0  0  0  0  0  0  0  0  0
    0.0389   66.4660   71.9891 H   0  0  0  0  0  0  0  0  0  0  0  0
   -1.3996   65.3945   71.6835 H   0  0  0  0  0  0  0  0  0  0  0  0
   -0.9184   68.3352   68.4547 H   0  0  0  0  0  0  0  0  0  0  0  0
   -0.8660   69.3481   66.1723 H   0  0  0  0  0  0  0  0  0  0  0  0
    2.6348   67.0342   65.3292 H   0  0  0  0  0  0  0  0  0  0  0  0
  2  1  2  0
  3  2  1  0
  4  3  1  0
  5  3  2  0
  6  5  1  0
  7  6  2  0
  8  7  1  0
  8  2  1  0
  9  8  1  0
 10  9  2  0
 11 10  1  0
 12 10  1  0
 13 12  2  0
 14 13  1  0
 15 14  2  0
 15  9  1  0
 16 15  1  0
 17 13  1  0
 18 17  1  0
 19 17  1  0
 20 17  1  0
 21  5  1  0
 22 21  1  0
 23 22  1  0
 24 23  1  0
 25 24  1  0
 26 25  1  0
 26 21  1  0
 27 24  1  0
 28 27  2  0
 29 28  1  0
 30 29  2  0
 31 30  1  0
 32 31  2  0
 32 27  1  0
 33 30  1  0
 34 33  1  0
 35 33  1  0
 36 33  1  0
  6 37  1  0
 12 38  1  0
 14 39  1  0
 22 40  1  0
 22 41  1  0
 23 42  1  0
 23 43  1  0
 25 44  1  0
 25 45  1  0
 26 46  1  0
 26 47  1  0
 28 48  1  0
 29 49  1  0
 31 50  1  0
M  END
>  <score>  (5) 
-6.812

$$$$
