=
     RDKit          3D

 48 51  0  0  0  0  0  0  0  0999 V2000
    0.6910   65.8180   69.5720 N   0  0  0  0  0  4  0  0  0  0  0  0
   -0.7430   66.0950   69.2090 C   0  0  0  0  0  0  0  0  0  0  0  0
   -0.7880   66.8370   67.8800 C   0  0  0  0  0  0  0  0  0  0  0  0
    0.0340   68.1360   67.9120 C   0  0  0  0  0  0  0  0  0  0  0  0
    1.4650   67.8430   68.3980 C   0  0  0  0  0  0  0  0  0  0  0  0
    1.4790   67.0940   69.7220 C   0  0  0  0  0  0  0  0  0  0  0  0
    0.8500   64.8700   70.7450 C   0  0  0  0  0  0  0  0  0  0  0  0
    3.9410   61.8840   70.3840 C   0  0  0  0  0  0  0  0  0  0  0  0
    2.6010   61.5050   70.3760 C   0  0  0  0  0  0  0  0  0  0  0  0
    1.5990   62.4700   70.4850 C   0  0  0  0  0  0  0  0  0  0  0  0
    1.9290   63.8300   70.6070 C   0  0  0  0  0  0  0  0  0  0  0  0
    3.2830   64.1990   70.6020 C   0  0  0  0  0  0  0  0  0  0  0  0
    4.2820   63.2300   70.4920 C   0  0  0  0  0  0  0  0  0  0  0  0
    0.0100   68.8040   66.5250 C   0  0  0  0  0  0  0  0  0  0  0  0
    1.2860   68.6400   65.8490 N   0  0  0  0  0  0  0  0  0  0  0  0
    1.3520   68.5890   64.4910 C   0  0  0  0  0  0  0  0  0  0  0  0
    0.3290   68.3410   63.6620 N   0  0  0  0  0  0  0  0  0  0  0  0
    0.8560   68.3770   62.3830 O   0  0  0  0  0  0  0  0  0  0  0  0
    2.1870   68.6350   62.4450 C   0  0  0  0  0  0  0  0  0  0  0  0
    2.5640   68.7750   63.7700 C   0  0  0  0  0  0  0  0  0  0  0  0
    3.9150   69.0420   64.0600 C   0  0  0  0  0  0  0  0  0  0  0  0
    4.8190   69.1570   62.9920 C   0  0  0  0  0  0  0  0  0  0  0  0
    4.3940   69.0100   61.6680 C   0  0  0  0  0  0  0  0  0  0  0  0
    3.0570   68.7430   61.3620 C   0  0  0  0  0  0  0  0  0  0  0  0
    1.1004   65.3074   68.7766 H   0  0  0  0  0  0  0  0  0  0  0  0
   -1.2899   65.1449   69.1187 H   0  0  0  0  0  0  0  0  0  0  0  0
   -1.2106   66.7101   69.9920 H   0  0  0  0  0  0  0  0  0  0  0  0
   -0.3841   66.1815   67.0944 H   0  0  0  0  0  0  0  0  0  0  0  0
   -1.8356   67.1051   67.6782 H   0  0  0  0  0  0  0  0  0  0  0  0
   -0.4127   68.8441   68.6255 H   0  0  0  0  0  0  0  0  0  0  0  0
    1.9788   67.2331   67.6403 H   0  0  0  0  0  0  0  0  0  0  0  0
    1.9747   68.8060   68.5489 H   0  0  0  0  0  0  0  0  0  0  0  0
    2.5163   66.8563   70.0004 H   0  0  0  0  0  0  0  0  0  0  0  0
    1.0287   67.7189   70.5074 H   0  0  0  0  0  0  0  0  0  0  0  0
    1.0746   65.4725   71.6375 H   0  0  0  0  0  0  0  0  0  0  0  0
   -0.0958   64.3118   70.8074 H   0  0  0  0  0  0  0  0  0  0  0  0
    4.7294   61.1210   70.3051 H   0  0  0  0  0  0  0  0  0  0  0  0
    2.3318   60.4425   70.2835 H   0  0  0  0  0  0  0  0  0  0  0  0
    0.5426   62.1634   70.4753 H   0  0  0  0  0  0  0  0  0  0  0  0
    3.5594   65.2604   70.6854 H   0  0  0  0  0  0  0  0  0  0  0  0
    5.3403   63.5301   70.4906 H   0  0  0  0  0  0  0  0  0  0  0  0
   -0.7819   68.3427   65.9166 H   0  0  0  0  0  0  0  0  0  0  0  0
   -0.1833   69.8790   66.6556 H   0  0  0  0  0  0  0  0  0  0  0  0
    2.1500   68.5615   66.4042 H   0  0  0  0  0  0  0  0  0  0  0  0
    4.2549   69.1579   65.0997 H   0  0  0  0  0  0  0  0  0  0  0  0
    5.8787   69.3661   63.2001 H   0  0  0  0  0  0  0  0  0  0  0  0
    5.1257   69.1063   60.8523 H   0  0  0  0  0  0  0  0  0  0  0  0
    2.7108   68.6247   60.3246 H   0  0  0  0  0  0  0  0  0  0  0  0
  2  1  1  0
  3  2  1  0
  4  3  1  0
  5  4  1  0
  6  5  1  0
  6  1  1  0
  7  1  1  0
  9  8  2  0
 10  9  1  0
 11 10  2  0
 11  7  1  0
 12 11  1  0
 13 12  2  0
 13  8  1  0
 14  4  1  0
 15 14  1  0
 16 15  1  0
 17 16  2  0
 18 17  1  0
 19 18  1  0
 20 19  2  0
 20 16  1  0
 21 20  1  0
 22 21  2  0
 23 22  1  0
 24 23  2  0
 24 19  1  0
  1 25  1  0
  2 26  1  0
  2 27  1  0
  3 28  1  0
  3 29  1  0
  4 30  1  0
  5 31  1  0
  5 32  1  0
  6 33  1  0
  6 34  1  0
  7 35  1  0
  7 36  1  0
  8 37  1  0
  9 38  1  0
 10 39  1  0
 12 40  1  0
 13 41  1  0
 14 42  1  0
 14 43  1  0
 15 44  1  0
 21 45  1  0
 22 46  1  0
 23 47  1  0
 24 48  1  0
M  CHG  1   1   1
M  END
>  <score>  (1) 
-10.022

$$$$
=
     RDKit          3D

 48 51  0  0  0  0  0  0  0  0999 V2000
    1.2130   68.1470   68.0880 N   0  0  0  0  0  4  0  0  0  0  0  0
    1.7780   67.9470   69.4690 C   0  0  0  0  0  0  0  0  0  0  0  0
    1.5280   66.5100   69.9090 C   0  0  0  0  0  0  0  0  0  0  0  0
    0.0360   66.1410   69.8620 C   0  0  0  0  0  0  0  0  0  0  0  0
   -0.5450   66.4640   68.4740 C   0  0  0  0  0  0  0  0  0  0  0  0
   -0.2730   67.9010   68.0570 C   0  0  0  0  0  0  0  0  0  0  0  0
    1.6200   69.4600   67.4480 C   0  0  0  0  0  0  0  0  0  0  0  0
    5.4040   69.4890   65.3800 C   0  0  0  0  0  0  0  0  0  0  0  0
    5.3400   69.8600   66.7210 C   0  0  0  0  0  0  0  0  0  0  0  0
    4.1180   69.8450   67.3940 C   0  0  0  0  0  0  0  0  0  0  0  0
    2.9420   69.4590   66.7290 C   0  0  0  0  0  0  0  0  0  0  0  0
    3.0240   69.0750   65.3810 C   0  0  0  0  0  0  0  0  0  0  0  0
    4.2480   69.0930   64.7120 C   0  0  0  0  0  0  0  0  0  0  0  0
   -0.1490   64.6610   70.2470 C   0  0  0  0  0  0  0  0  0  0  0  0
    1.0890   63.9210   70.0650 N   0  0  0  0  0  0  0  0  0  0  0  0
    1.3420   62.8010   70.7940 C   0  0  0  0  0  0  0  0  0  0  0  0
    0.7270   62.4430   71.9290 N   0  0  0  0  0  0  0  0  0  0  0  0
    1.3080   61.2500   72.3210 O   0  0  0  0  0  0  0  0  0  0  0  0
    2.2720   60.8990   71.4320 C   0  0  0  0  0  0  0  0  0  0  0  0
    2.3440   61.8560   70.4350 C   0  0  0  0  0  0  0  0  0  0  0  0
    3.2910   61.6870   69.4080 C   0  0  0  0  0  0  0  0  0  0  0  0
    4.1170   60.5530   69.4390 C   0  0  0  0  0  0  0  0  0  0  0  0
    4.0090   59.6100   70.4660 C   0  0  0  0  0  0  0  0  0  0  0  0
    3.0750   59.7630   71.4940 C   0  0  0  0  0  0  0  0  0  0  0  0
    1.6450   67.4286   67.4895 H   0  0  0  0  0  0  0  0  0  0  0  0
    2.8600   68.1449   69.4561 H   0  0  0  0  0  0  0  0  0  0  0  0
    1.2905   68.6389   70.1716 H   0  0  0  0  0  0  0  0  0  0  0  0
    2.0817   65.8334   69.2415 H   0  0  0  0  0  0  0  0  0  0  0  0
    1.8684   66.4109   70.9503 H   0  0  0  0  0  0  0  0  0  0  0  0
   -0.5212   66.7433   70.5946 H   0  0  0  0  0  0  0  0  0  0  0  0
   -0.0909   65.7885   67.7341 H   0  0  0  0  0  0  0  0  0  0  0  0
   -1.6354   66.3279   68.5246 H   0  0  0  0  0  0  0  0  0  0  0  0
   -0.6534   68.0679   67.0385 H   0  0  0  0  0  0  0  0  0  0  0  0
   -0.7788   68.5910   68.7484 H   0  0  0  0  0  0  0  0  0  0  0  0
    0.8416   69.7364   66.7216 H   0  0  0  0  0  0  0  0  0  0  0  0
    1.7331   70.1731   68.2779 H   0  0  0  0  0  0  0  0  0  0  0  0
    6.3671   69.5088   64.8489 H   0  0  0  0  0  0  0  0  0  0  0  0
    6.2546   70.1654   67.2504 H   0  0  0  0  0  0  0  0  0  0  0  0
    4.0749   70.1376   68.4535 H   0  0  0  0  0  0  0  0  0  0  0  0
    2.1157   68.7574   64.8481 H   0  0  0  0  0  0  0  0  0  0  0  0
    4.3002   68.7938   63.6548 H   0  0  0  0  0  0  0  0  0  0  0  0
   -0.4547   64.5984   71.3018 H   0  0  0  0  0  0  0  0  0  0  0  0
   -0.9207   64.2218   69.5977 H   0  0  0  0  0  0  0  0  0  0  0  0
    1.7818   64.2483   69.3767 H   0  0  0  0  0  0  0  0  0  0  0  0
    3.3817   62.4270   68.5992 H   0  0  0  0  0  0  0  0  0  0  0  0
    4.8612   60.4035   68.6429 H   0  0  0  0  0  0  0  0  0  0  0  0
    4.6714   58.7318   70.4645 H   0  0  0  0  0  0  0  0  0  0  0  0
    2.9794   59.0276   72.3064 H   0  0  0  0  0  0  0  0  0  0  0  0
  2  1  1  0
  3  2  1  0
  4  3  1  0
  5  4  1  0
  6  5  1  0
  6  1  1  0
  7  1  1  0
  9  8  2  0
 10  9  1  0
 11 10  2  0
 11  7  1  0
 12 11  1  0
 13 12  2  0
 13  8  1  0
 14  4  1  0
 15 14  1  0
 16 15  1  0
 17 16  2  0
 18 17  1  0
 19 18  1  0
 20 19  2  0
 20 16  1  0
 21 20  1  0
 22 21  2  0
 23 22  1  0
 24 23  2  0
 24 19  1  0
  1 25  1  0
  2 26  1  0
  2 27  1  0
  3 28  1  0
  3 29  1  0
  4 30  1  0
  5 31  1  0
  5 32  1  0
  6 33  1  0
  6 34  1  0
  7 35  1  0
  7 36  1  0
  8 37  1  0
  9 38  1  0
 10 39  1  0
 12 40  1  0
 13 41  1  0
 14 42  1  0
 14 43  1  0
 15 44  1  0
 21 45  1  0
 22 46  1  0
 23 47  1  0
 24 48  1  0
M  CHG  1   1   1
M  END
>  <score>  (2) 
-9.908

$$$$
=
     RDKit          3D

 48 51  0  0  0  0  0  0  0  0999 V2000
    0.5260   67.8370   66.8310 N   0  0  0  0  0  4  0  0  0  0  0  0
    1.3840   68.3230   67.9690 C   0  0  0  0  0  0  0  0  0  0  0  0
    1.4900   67.2260   69.0190 C   0  0  0  0  0  0  0  0  0  0  0  0
    0.1100   66.7690   69.5220 C   0  0  0  0  0  0  0  0  0  0  0  0
   -0.7860   66.3880   68.3310 C   0  0  0  0  0  0  0  0  0  0  0  0
   -0.8670   67.4970   67.2940 C   0  0  0  0  0  0  0  0  0  0  0  0
    0.5530   68.7450   65.6170 C   0  0  0  0  0  0  0  0  0  0  0  0
    4.2460   68.8500   63.3920 C   0  0  0  0  0  0  0  0  0  0  0  0
    4.2370   69.1810   64.7440 C   0  0  0  0  0  0  0  0  0  0  0  0
    3.0450   69.1410   65.4680 C   0  0  0  0  0  0  0  0  0  0  0  0
    1.8430   68.7700   64.8430 C   0  0  0  0  0  0  0  0  0  0  0  0
    1.8680   68.4280   63.4820 C   0  0  0  0  0  0  0  0  0  0  0  0
    3.0630   68.4700   62.7620 C   0  0  0  0  0  0  0  0  0  0  0  0
    0.2770   65.6130   70.5270 C   0  0  0  0  0  0  0  0  0  0  0  0
    1.3720   64.7420   70.1350 N   0  0  0  0  0  0  0  0  0  0  0  0
    1.5950   63.5700   70.7900 C   0  0  0  0  0  0  0  0  0  0  0  0
    1.1220   63.2400   71.9990 N   0  0  0  0  0  0  0  0  0  0  0  0
    1.6060   61.9720   72.2670 O   0  0  0  0  0  0  0  0  0  0  0  0
    2.3720   61.5480   71.2300 C   0  0  0  0  0  0  0  0  0  0  0  0
    2.4080   62.5310   70.2560 C   0  0  0  0  0  0  0  0  0  0  0  0
    3.1580   62.2940   69.0890 C   0  0  0  0  0  0  0  0  0  0  0  0
    3.8340   61.0710   68.9640 C   0  0  0  0  0  0  0  0  0  0  0  0
    3.7700   60.1050   69.9740 C   0  0  0  0  0  0  0  0  0  0  0  0
    3.0310   60.3240   71.1400 C   0  0  0  0  0  0  0  0  0  0  0  0
    0.9510   66.9591   66.5000 H   0  0  0  0  0  0  0  0  0  0  0  0
    2.3877   68.5711   67.5933 H   0  0  0  0  0  0  0  0  0  0  0  0
    0.9316   69.2205   68.4161 H   0  0  0  0  0  0  0  0  0  0  0  0
    2.0103   66.3628   68.5784 H   0  0  0  0  0  0  0  0  0  0  0  0
    2.0452   67.6321   69.8774 H   0  0  0  0  0  0  0  0  0  0  0  0
   -0.3884   67.5947   70.0510 H   0  0  0  0  0  0  0  0  0  0  0  0
   -0.3756   65.4860   67.8535 H   0  0  0  0  0  0  0  0  0  0  0  0
   -1.8013   66.2112   68.7157 H   0  0  0  0  0  0  0  0  0  0  0  0
   -1.4681   67.1580   66.4374 H   0  0  0  0  0  0  0  0  0  0  0  0
   -1.3394   68.3864   67.7365 H   0  0  0  0  0  0  0  0  0  0  0  0
   -0.2439   68.4171   64.9333 H   0  0  0  0  0  0  0  0  0  0  0  0
    0.4195   69.7653   66.0057 H   0  0  0  0  0  0  0  0  0  0  0  0
    5.1859   68.8884   62.8218 H   0  0  0  0  0  0  0  0  0  0  0  0
    5.1722   69.4749   65.2430 H   0  0  0  0  0  0  0  0  0  0  0  0
    3.0465   69.4020   66.5366 H   0  0  0  0  0  0  0  0  0  0  0  0
    0.9382   68.1244   62.9787 H   0  0  0  0  0  0  0  0  0  0  0  0
    3.0707   68.2025   61.6950 H   0  0  0  0  0  0  0  0  0  0  0  0
    0.4863   66.0290   71.5236 H   0  0  0  0  0  0  0  0  0  0  0  0
   -0.6522   65.0246   70.5449 H   0  0  0  0  0  0  0  0  0  0  0  0
    1.9855   65.0142   69.3537 H   0  0  0  0  0  0  0  0  0  0  0  0
    3.2130   63.0508   68.2926 H   0  0  0  0  0  0  0  0  0  0  0  0
    4.4236   60.8684   68.0577 H   0  0  0  0  0  0  0  0  0  0  0  0
    4.3112   59.1557   69.8482 H   0  0  0  0  0  0  0  0  0  0  0  0
    2.9731   59.5725   71.9411 H   0  0  0  0  0  0  0  0  0  0  0  0
  2  1  1  0
  3  2  1  0
  4  3  1  0
  5  4  1  0
  6  5  1  0
  6  1  1  0
  7  1  1  0
  9  8  2  0
 10  9  1  0
 11 10  2  0
 11  7  1  0
 12 11  1  0
 13 12  2  0
 13  8  1  0
 14  4  1  0
 15 14  1  0
 16 15  1  0
 17 16  2  0
 18 17  1  0
 19 18  1  0
 20 19  2  0
 20 16  1  0
 21 20  1  0
 22 21  2  0
 23 22  1  0
 24 23  2  0
 24 19  1  0
  1 25  1  0
  2 26  1  0
  2 27  1  0
  3 28  1  0
  3 29  1  0
  4 30  1  0
  5 31  1  0
  5 32  1  0
  6 33  1  0
  6 34  1  0
  7 35  1  0
  7 36  1  0
  8 37  1  0
  9 38  1  0
 10 39  1  0
 12 40  1  0
 13 41  1  0
 14 42  1  0
 14 43  1  0
 15 44  1  0
 21 45  1  0
 22 46  1  0
 23 47  1  0
 24 48  1  0
M  CHG  1   1   1
M  END
>  <score>  (3) 
-9.601

$$$$
=
     RDKit          3D

 48 51  0  0  0  0  0  0  0  0999 V2000
    2.4500   69.8160   68.6690 N   0  0  0  0  0  4  0  0  0  0  0  0
    2.2190   68.4490   69.2570 C   0  0  0  0  0  0  0  0  0  0  0  0
    1.4360   67.6030   68.2620 C   0  0  0  0  0  0  0  0  0  0  0  0
    0.1070   68.2630   67.8570 C   0  0  0  0  0  0  0  0  0  0  0  0
    0.3590   69.7000   67.3690 C   0  0  0  0  0  0  0  0  0  0  0  0
    1.1500   70.5190   68.3770 C   0  0  0  0  0  0  0  0  0  0  0  0
    3.4280   70.6610   69.4600 C   0  0  0  0  0  0  0  0  0  0  0  0
    7.5190   70.6140   68.0940 C   0  0  0  0  0  0  0  0  0  0  0  0
    7.2380   70.7720   69.4480 C   0  0  0  0  0  0  0  0  0  0  0  0
    5.9160   70.7810   69.8940 C   0  0  0  0  0  0  0  0  0  0  0  0
    4.8560   70.6330   68.9840 C   0  0  0  0  0  0  0  0  0  0  0  0
    5.1530   70.4620   67.6230 C   0  0  0  0  0  0  0  0  0  0  0  0
    6.4780   70.4550   67.1830 C   0  0  0  0  0  0  0  0  0  0  0  0
   -0.6050   67.3990   66.8000 C   0  0  0  0  0  0  0  0  0  0  0  0
    0.3590   66.6580   66.0030 N   0  0  0  0  0  0  0  0  0  0  0  0
    1.0200   67.2580   64.9770 C   0  0  0  0  0  0  0  0  0  0  0  0
    0.6630   68.3970   64.3690 N   0  0  0  0  0  0  0  0  0  0  0  0
    1.6110   68.6210   63.3870 O   0  0  0  0  0  0  0  0  0  0  0  0
    2.5260   67.6180   63.3990 C   0  0  0  0  0  0  0  0  0  0  0  0
    2.1970   66.7120   64.3930 C   0  0  0  0  0  0  0  0  0  0  0  0
    3.0190   65.5840   64.5730 C   0  0  0  0  0  0  0  0  0  0  0  0
    4.1370   65.4310   63.7390 C   0  0  0  0  0  0  0  0  0  0  0  0
    4.4330   66.3720   62.7480 C   0  0  0  0  0  0  0  0  0  0  0  0
    3.6270   67.4970   62.5540 C   0  0  0  0  0  0  0  0  0  0  0  0
    2.9176   69.6691   67.7631 H   0  0  0  0  0  0  0  0  0  0  0  0
    3.1868   67.9699   69.4661 H   0  0  0  0  0  0  0  0  0  0  0  0
    1.6495   68.5405   70.1937 H   0  0  0  0  0  0  0  0  0  0  0  0
    2.0491   67.4587   67.3602 H   0  0  0  0  0  0  0  0  0  0  0  0
    1.2026   66.6429   68.7454 H   0  0  0  0  0  0  0  0  0  0  0  0
   -0.5594   68.3292   68.7297 H   0  0  0  0  0  0  0  0  0  0  0  0
    0.9225   69.6598   66.4252 H   0  0  0  0  0  0  0  0  0  0  0  0
   -0.6182   70.1861   67.2317 H   0  0  0  0  0  0  0  0  0  0  0  0
    1.3555   71.5165   67.9614 H   0  0  0  0  0  0  0  0  0  0  0  0
    0.5695   70.6268   69.3051 H   0  0  0  0  0  0  0  0  0  0  0  0
    3.0803   71.7039   69.4215 H   0  0  0  0  0  0  0  0  0  0  0  0
    3.4431   70.2301   70.4720 H   0  0  0  0  0  0  0  0  0  0  0  0
    8.5619   70.6147   67.7441 H   0  0  0  0  0  0  0  0  0  0  0  0
    8.0606   70.8901   70.1686 H   0  0  0  0  0  0  0  0  0  0  0  0
    5.7022   70.9049   70.9659 H   0  0  0  0  0  0  0  0  0  0  0  0
    4.3361   70.3326   66.8978 H   0  0  0  0  0  0  0  0  0  0  0  0
    6.7002   70.3235   66.1137 H   0  0  0  0  0  0  0  0  0  0  0  0
   -1.2753   66.6891   67.3067 H   0  0  0  0  0  0  0  0  0  0  0  0
   -1.1791   68.0596   66.1337 H   0  0  0  0  0  0  0  0  0  0  0  0
    0.5434   65.6677   66.2178 H   0  0  0  0  0  0  0  0  0  0  0  0
    2.7903   64.8394   65.3497 H   0  0  0  0  0  0  0  0  0  0  0  0
    4.7915   64.5562   63.8669 H   0  0  0  0  0  0  0  0  0  0  0  0
    5.3164   66.2240   62.1095 H   0  0  0  0  0  0  0  0  0  0  0  0
    3.8493   68.2445   61.7782 H   0  0  0  0  0  0  0  0  0  0  0  0
  2  1  1  0
  3  2  1  0
  4  3  1  0
  5  4  1  0
  6  5  1  0
  6  1  1  0
  7  1  1  0
  9  8  2  0
 10  9  1  0
 11 10  2  0
 11  7  1  0
 12 11  1  0
 13 12  2  0
 13  8  1  0
 14  4  1  0
 15 14  1  0
 16 15  1  0
 17 16  2  0
 18 17  1  0
 19 18  1  0
 20 19  2  0
 20 16  1  0
 21 20  1  0
 22 21  2  0
 23 22  1  0
 24 23  2  0
 24 19  1  0
  1 25  1  0
  2 26  1  0
  2 27  1  0
  3 28  1  0
  3 29  1  0
  4 30  1  0
  5 31  1  0
  5 32  1  0
  6 33  1  0
  6 34  1  0
  7 35  1  0
  7 36  1  0
  8 37  1  0
  9 38  1  0
 10 39  1  0
 12 40  1  0
 13 41  1  0
 14 42  1  0
 14 43  1  0
 15 44  1  0
 21 45  1  0
 22 46  1  0
 23 47  1  0
 24 48  1  0
M  CHG  1   1   1
M  END
>  <score>  (4) 
-9.438

$$$$
=
     RDKit          3D

 48 51  0  0  0  0  0  0  0  0999 V2000
    2.2880   68.4580   66.7390 N   0  0  0  0  0  4  0  0  0  0  0  0
    2.0500   68.9710   68.1350 C   0  0  0  0  0  0  0  0  0  0  0  0
    1.2690   67.9290   68.9240 C   0  0  0  0  0  0  0  0  0  0  0  0
   -0.0560   67.5560   68.2380 C   0  0  0  0  0  0  0  0  0  0  0  0
    0.2020   67.1460   66.7780 C   0  0  0  0  0  0  0  0  0  0  0  0
    0.9920   68.2000   66.0170 C   0  0  0  0  0  0  0  0  0  0  0  0
    3.2670   69.2970   65.9410 C   0  0  0  0  0  0  0  0  0  0  0  0
    6.6670   70.8310   68.1050 C   0  0  0  0  0  0  0  0  0  0  0  0
    5.4070   70.8260   68.6990 C   0  0  0  0  0  0  0  0  0  0  0  0
    4.3070   70.3230   68.0030 C   0  0  0  0  0  0  0  0  0  0  0  0
    4.4560   69.8210   66.7000 C   0  0  0  0  0  0  0  0  0  0  0  0
    5.7330   69.8220   66.1180 C   0  0  0  0  0  0  0  0  0  0  0  0
    6.8310   70.3260   66.8180 C   0  0  0  0  0  0  0  0  0  0  0  0
   -0.7670   66.4510   69.0420 C   0  0  0  0  0  0  0  0  0  0  0  0
    0.1840   65.4560   69.5070 N   0  0  0  0  0  0  0  0  0  0  0  0
    0.1930   65.0580   70.8080 C   0  0  0  0  0  0  0  0  0  0  0  0
   -0.3660   65.7100   71.8360 N   0  0  0  0  0  0  0  0  0  0  0  0
   -0.1030   64.9490   72.9610 O   0  0  0  0  0  0  0  0  0  0  0  0
    0.6180   63.8530   72.6120 C   0  0  0  0  0  0  0  0  0  0  0  0
    0.8440   63.8700   71.2470 C   0  0  0  0  0  0  0  0  0  0  0  0
    1.5830   62.8180   70.6740 C   0  0  0  0  0  0  0  0  0  0  0  0
    2.0560   61.7980   71.5140 C   0  0  0  0  0  0  0  0  0  0  0  0
    1.8030   61.8200   72.8890 C   0  0  0  0  0  0  0  0  0  0  0  0
    1.0720   62.8580   73.4740 C   0  0  0  0  0  0  0  0  0  0  0  0
    2.7583   67.5470   66.8385 H   0  0  0  0  0  0  0  0  0  0  0  0
    3.0154   69.1584   68.6278 H   0  0  0  0  0  0  0  0  0  0  0  0
    1.4765   69.9087   68.0918 H   0  0  0  0  0  0  0  0  0  0  0  0
    1.8851   67.0230   69.0214 H   0  0  0  0  0  0  0  0  0  0  0  0
    1.0312   68.3583   69.9085 H   0  0  0  0  0  0  0  0  0  0  0  0
   -0.7246   68.4292   68.2158 H   0  0  0  0  0  0  0  0  0  0  0  0
    0.7690   66.2034   66.7695 H   0  0  0  0  0  0  0  0  0  0  0  0
   -0.7730   67.0307   66.2819 H   0  0  0  0  0  0  0  0  0  0  0  0
    1.2023   67.8397   64.9992 H   0  0  0  0  0  0  0  0  0  0  0  0
    0.4084   69.1305   65.9573 H   0  0  0  0  0  0  0  0  0  0  0  0
    3.6423   68.6792   65.1118 H   0  0  0  0  0  0  0  0  0  0  0  0
    2.7040   70.1858   65.6200 H   0  0  0  0  0  0  0  0  0  0  0  0
    7.5319   71.2337   68.6525 H   0  0  0  0  0  0  0  0  0  0  0  0
    5.2789   71.2192   69.7183 H   0  0  0  0  0  0  0  0  0  0  0  0
    3.3153   70.3197   68.4789 H   0  0  0  0  0  0  0  0  0  0  0  0
    5.8700   69.4226   65.1023 H   0  0  0  0  0  0  0  0  0  0  0  0
    7.8273   70.3240   66.3518 H   0  0  0  0  0  0  0  0  0  0  0  0
   -1.2688   66.9032   69.9102 H   0  0  0  0  0  0  0  0  0  0  0  0
   -1.5013   65.9575   68.3884 H   0  0  0  0  0  0  0  0  0  0  0  0
    0.8587   65.0475   68.8446 H   0  0  0  0  0  0  0  0  0  0  0  0
    1.7851   62.7958   69.5930 H   0  0  0  0  0  0  0  0  0  0  0  0
    2.6352   60.9677   71.0837 H   0  0  0  0  0  0  0  0  0  0  0  0
    2.1861   61.0058   73.5218 H   0  0  0  0  0  0  0  0  0  0  0  0
    0.8670   62.8872   74.5543 H   0  0  0  0  0  0  0  0  0  0  0  0
  2  1  1  0
  3  2  1  0
  4  3  1  0
  5  4  1  0
  6  5  1  0
  6  1  1  0
  7  1  1  0
  9  8  2  0
 10  9  1  0
 11 10  2  0
 11  7  1  0
 12 11  1  0
 13 12  2  0
 13  8  1  0
 14  4  1  0
 15 14  1  0
 16 15  1  0
 17 16  2  0
 18 17  1  0
 19 18  1  0
 20 19  2  0
 20 16  1  0
 21 20  1  0
 22 21  2  0
 23 22  1  0
 24 23  2  0
 24 19  1  0
  1 25  1  0
  2 26  1  0
  2 27  1  0
  3 28  1  0
  3 29  1  0
  4 30  1  0
  5 31  1  0
  5 32  1  0
  6 33  1  0
  6 34  1  0
  7 35  1  0
  7 36  1  0
  8 37  1  0
  9 38  1  0
 10 39  1  0
 12 40  1  0
 13 41  1  0
 14 42  1  0
 14 43  1  0
 15 44  1  0
 21 45  1  0
 22 46  1  0
 23 47  1  0
 24 48  1  0
M  CHG  1   1   1
M  END
>  <score>  (5) 
-9.407

$$$$
=
     RDKit          3D

 48 51  0  0  0  0  0  0  0  0999 V2000
    1.2370   63.5790   70.7840 N   0  0  0  0  0  4  0  0  0  0  0  0
   -0.0080   64.3200   71.1950 C   0  0  0  0  0  0  0  0  0  0  0  0
   -0.3380   65.3660   70.1400 C   0  0  0  0  0  0  0  0  0  0  0  0
    0.8290   66.3380   69.9000 C   0  0  0  0  0  0  0  0  0  0  0  0
    2.1170   65.5510   69.5960 C   0  0  0  0  0  0  0  0  0  0  0  0
    2.4170   64.5070   70.6600 C   0  0  0  0  0  0  0  0  0  0  0  0
    1.5220   62.3510   71.6270 C   0  0  0  0  0  0  0  0  0  0  0  0
    5.5080   60.7430   71.2810 C   0  0  0  0  0  0  0  0  0  0  0  0
    5.0420   61.1920   72.5140 C   0  0  0  0  0  0  0  0  0  0  0  0
    3.7500   61.7060   72.6300 C   0  0  0  0  0  0  0  0  0  0  0  0
    2.9090   61.7790   71.5080 C   0  0  0  0  0  0  0  0  0  0  0  0
    3.3870   61.3120   70.2740 C   0  0  0  0  0  0  0  0  0  0  0  0
    4.6800   60.7990   70.1630 C   0  0  0  0  0  0  0  0  0  0  0  0
    0.4650   67.3260   68.7770 C   0  0  0  0  0  0  0  0  0  0  0  0
    1.6380   67.6770   67.9950 N   0  0  0  0  0  0  0  0  0  0  0  0
    1.6320   67.5570   66.6400 C   0  0  0  0  0  0  0  0  0  0  0  0
    0.7680   66.8320   65.9170 N   0  0  0  0  0  0  0  0  0  0  0  0
    1.1420   66.9950   64.5950 O   0  0  0  0  0  0  0  0  0  0  0  0
    2.2300   67.8040   64.5260 C   0  0  0  0  0  0  0  0  0  0  0  0
    2.5930   68.1920   65.8050 C   0  0  0  0  0  0  0  0  0  0  0  0
    3.7090   69.0350   65.9600 C   0  0  0  0  0  0  0  0  0  0  0  0
    4.4020   69.4480   64.8110 C   0  0  0  0  0  0  0  0  0  0  0  0
    3.9990   69.0330   63.5380 C   0  0  0  0  0  0  0  0  0  0  0  0
    2.8940   68.1940   63.3650 C   0  0  0  0  0  0  0  0  0  0  0  0
    1.0546   63.2028   69.8427 H   0  0  0  0  0  0  0  0  0  0  0  0
   -0.8448   63.6118   71.2855 H   0  0  0  0  0  0  0  0  0  0  0  0
    0.1576   64.8121   72.1647 H   0  0  0  0  0  0  0  0  0  0  0  0
   -0.5726   64.8541   69.1950 H   0  0  0  0  0  0  0  0  0  0  0  0
   -1.1959   65.9516   70.5022 H   0  0  0  0  0  0  0  0  0  0  0  0
    1.0163   66.9291   70.8086 H   0  0  0  0  0  0  0  0  0  0  0  0
    2.0025   65.0453   68.6259 H   0  0  0  0  0  0  0  0  0  0  0  0
    2.9532   66.2655   69.5788 H   0  0  0  0  0  0  0  0  0  0  0  0
    3.3093   63.9322   70.3713 H   0  0  0  0  0  0  0  0  0  0  0  0
    2.6027   65.0024   71.6244 H   0  0  0  0  0  0  0  0  0  0  0  0
    1.3578   62.6202   72.6808 H   0  0  0  0  0  0  0  0  0  0  0  0
    0.8447   61.5693   71.2525 H   0  0  0  0  0  0  0  0  0  0  0  0
    6.5292   60.3445   71.1903 H   0  0  0  0  0  0  0  0  0  0  0  0
    5.6939   61.1414   73.3986 H   0  0  0  0  0  0  0  0  0  0  0  0
    3.3876   62.0566   73.6076 H   0  0  0  0  0  0  0  0  0  0  0  0
    2.7373   61.3506   69.3872 H   0  0  0  0  0  0  0  0  0  0  0  0
    5.0458   60.4382   69.1904 H   0  0  0  0  0  0  0  0  0  0  0  0
   -0.2822   66.8614   68.1168 H   0  0  0  0  0  0  0  0  0  0  0  0
    0.0592   68.2415   69.2322 H   0  0  0  0  0  0  0  0  0  0  0  0
    2.4838   68.0206   68.4720 H   0  0  0  0  0  0  0  0  0  0  0  0
    4.0313   69.3631   66.9592 H   0  0  0  0  0  0  0  0  0  0  0  0
    5.2757   70.1084   64.9138 H   0  0  0  0  0  0  0  0  0  0  0  0
    4.5618   69.3730   62.6562 H   0  0  0  0  0  0  0  0  0  0  0  0
    2.5675   67.8608   62.3688 H   0  0  0  0  0  0  0  0  0  0  0  0
  2  1  1  0
  3  2  1  0
  4  3  1  0
  5  4  1  0
  6  5  1  0
  6  1  1  0
  7  1  1  0
  9  8  2  0
 10  9  1  0
 11 10  2  0
 11  7  1  0
 12 11  1  0
 13 12  2  0
 13  8  1  0
 14  4  1  0
 15 14  1  0
 16 15  1  0
 17 16  2  0
 18 17  1  0
 19 18  1  0
 20 19  2  0
 20 16  1  0
 21 20  1  0
 22 21  2  0
 23 22  1  0
 24 23  2  0
 24 19  1  0
  1 25  1  0
  2 26  1  0
  2 27  1  0
  3 28  1  0
  3 29  1  0
  4 30  1  0
  5 31  1  0
  5 32  1  0
  6 33  1  0
  6 34  1  0
  7 35  1  0
  7 36  1  0
  8 37  1  0
  9 38  1  0
 10 39  1  0
 12 40  1  0
 13 41  1  0
 14 42  1  0
 14 43  1  0
 15 44  1  0
 21 45  1  0
 22 46  1  0
 23 47  1  0
 24 48  1  0
M  CHG  1   1   1
M  END
>  <score>  (6) 
-9.204

$$$$
=
     RDKit          3D

 48 51  0  0  0  0  0  0  0  0999 V2000
    0.6930   68.1290   68.4650 N   0  0  0  0  0  4  0  0  0  0  0  0
   -0.2620   67.0540   68.0170 C   0  0  0  0  0  0  0  0  0  0  0  0
   -0.6880   66.2280   69.2230 C   0  0  0  0  0  0  0  0  0  0  0  0
    0.5150   65.6250   69.9680 C   0  0  0  0  0  0  0  0  0  0  0  0
    1.5300   66.7280   70.3130 C   0  0  0  0  0  0  0  0  0  0  0  0
    1.9310   67.5420   69.0920 C   0  0  0  0  0  0  0  0  0  0  0  0
    0.9890   69.1640   67.3980 C   0  0  0  0  0  0  0  0  0  0  0  0
    5.1690   69.8460   66.5840 C   0  0  0  0  0  0  0  0  0  0  0  0
    4.3550   69.2690   65.6130 C   0  0  0  0  0  0  0  0  0  0  0  0
    3.0010   69.0540   65.8710 C   0  0  0  0  0  0  0  0  0  0  0  0
    2.4450   69.4130   67.1100 C   0  0  0  0  0  0  0  0  0  0  0  0
    3.2750   70.0050   68.0760 C   0  0  0  0  0  0  0  0  0  0  0  0
    4.6290   70.2170   67.8120 C   0  0  0  0  0  0  0  0  0  0  0  0
    0.0290   64.8630   71.2150 C   0  0  0  0  0  0  0  0  0  0  0  0
    1.0490   63.9440   71.6900 N   0  0  0  0  0  0  0  0  0  0  0  0
    1.7070   63.1280   70.8220 C   0  0  0  0  0  0  0  0  0  0  0  0
    1.3110   62.8130   69.5820 N   0  0  0  0  0  0  0  0  0  0  0  0
    2.2740   61.9570   69.0780 O   0  0  0  0  0  0  0  0  0  0  0  0
    3.2370   61.7520   70.0130 C   0  0  0  0  0  0  0  0  0  0  0  0
    2.9260   62.4720   71.1540 C   0  0  0  0  0  0  0  0  0  0  0  0
    3.7970   62.3940   72.2560 C   0  0  0  0  0  0  0  0  0  0  0  0
    4.9440   61.5930   72.1470 C   0  0  0  0  0  0  0  0  0  0  0  0
    5.2210   60.8830   70.9740 C   0  0  0  0  0  0  0  0  0  0  0  0
    4.3650   60.9480   69.8710 C   0  0  0  0  0  0  0  0  0  0  0  0
    0.2098   68.6597   69.2038 H   0  0  0  0  0  0  0  0  0  0  0  0
   -1.1474   67.5170   67.5569 H   0  0  0  0  0  0  0  0  0  0  0  0
    0.2326   66.4041   67.2802 H   0  0  0  0  0  0  0  0  0  0  0  0
   -1.2461   66.8747   69.9161 H   0  0  0  0  0  0  0  0  0  0  0  0
   -1.3117   65.3976   68.8605 H   0  0  0  0  0  0  0  0  0  0  0  0
    1.0309   64.9010   69.3202 H   0  0  0  0  0  0  0  0  0  0  0  0
    1.0809   67.4027   71.0567 H   0  0  0  0  0  0  0  0  0  0  0  0
    2.4349   66.2428   70.7076 H   0  0  0  0  0  0  0  0  0  0  0  0
    2.6101   68.3523   69.3958 H   0  0  0  0  0  0  0  0  0  0  0  0
    2.4437   66.8942   68.3657 H   0  0  0  0  0  0  0  0  0  0  0  0
    0.5128   68.8309   66.4640 H   0  0  0  0  0  0  0  0  0  0  0  0
    0.5958   70.1145   67.7879 H   0  0  0  0  0  0  0  0  0  0  0  0
    6.2378   70.0085   66.3809 H   0  0  0  0  0  0  0  0  0  0  0  0
    4.7805   68.9820   64.6401 H   0  0  0  0  0  0  0  0  0  0  0  0
    2.3637   68.5997   65.0980 H   0  0  0  0  0  0  0  0  0  0  0  0
    2.8549   70.3038   69.0477 H   0  0  0  0  0  0  0  0  0  0  0  0
    5.2712   70.6786   68.5766 H   0  0  0  0  0  0  0  0  0  0  0  0
   -0.2037   65.5857   72.0109 H   0  0  0  0  0  0  0  0  0  0  0  0
   -0.8679   64.2853   70.9470 H   0  0  0  0  0  0  0  0  0  0  0  0
    1.2765   63.9097   72.6940 H   0  0  0  0  0  0  0  0  0  0  0  0
    3.5838   62.9482   73.1819 H   0  0  0  0  0  0  0  0  0  0  0  0
    5.6370   61.5222   72.9983 H   0  0  0  0  0  0  0  0  0  0  0  0
    6.1279   60.2630   70.9187 H   0  0  0  0  0  0  0  0  0  0  0  0
    4.5709   60.3950   68.9427 H   0  0  0  0  0  0  0  0  0  0  0  0
  2  1  1  0
  3  2  1  0
  4  3  1  0
  5  4  1  0
  6  5  1  0
  6  1  1  0
  7  1  1  0
  9  8  2  0
 10  9  1  0
 11 10  2  0
 11  7  1  0
 12 11  1  0
 13 12  2  0
 13  8  1  0
 14  4  1  0
 15 14  1  0
 16 15  1  0
 17 16  2  0
 18 17  1  0
 19 18  1  0
 20 19  2  0
 20 16  1  0
 21 20  1  0
 22 21  2  0
 23 22  1  0
 24 23  2  0
 24 19  1  0
  1 25  1  0
  2 26  1  0
  2 27  1  0
  3 28  1  0
  3 29  1  0
  4 30  1  0
  5 31  1  0
  5 32  1  0
  6 33  1  0
  6 34  1  0
  7 35  1  0
  7 36  1  0
  8 37  1  0
  9 38  1  0
 10 39  1  0
 12 40  1  0
 13 41  1  0
 14 42  1  0
 14 43  1  0
 15 44  1  0
 21 45  1  0
 22 46  1  0
 23 47  1  0
 24 48  1  0
M  CHG  1   1   1
M  END
>  <score>  (7) 
-9.041

$$$$
=
     RDKit          3D

 48 51  0  0  0  0  0  0  0  0999 V2000
    3.2570   61.3060   70.7860 N   0  0  0  0  0  4  0  0  0  0  0  0
    3.3100   61.8740   69.3930 C   0  0  0  0  0  0  0  0  0  0  0  0
    3.1840   63.3900   69.4650 C   0  0  0  0  0  0  0  0  0  0  0  0
    1.9030   63.8300   70.1930 C   0  0  0  0  0  0  0  0  0  0  0  0
    1.8150   63.1450   71.5680 C   0  0  0  0  0  0  0  0  0  0  0  0
    1.9540   61.6340   71.4670 C   0  0  0  0  0  0  0  0  0  0  0  0
    3.6210   59.8360   70.8590 C   0  0  0  0  0  0  0  0  0  0  0  0
    2.7060   57.8790   74.5920 C   0  0  0  0  0  0  0  0  0  0  0  0
    2.0070   57.5390   73.4360 C   0  0  0  0  0  0  0  0  0  0  0  0
    2.3060   58.1650   72.2260 C   0  0  0  0  0  0  0  0  0  0  0  0
    3.3100   59.1450   72.1590 C   0  0  0  0  0  0  0  0  0  0  0  0
    4.0150   59.4700   73.3290 C   0  0  0  0  0  0  0  0  0  0  0  0
    3.7110   58.8410   74.5370 C   0  0  0  0  0  0  0  0  0  0  0  0
    1.8650   65.3670   70.2980 C   0  0  0  0  0  0  0  0  0  0  0  0
    0.6090   65.8890   69.7870 N   0  0  0  0  0  0  0  0  0  0  0  0
    0.5930   66.9440   68.9280 C   0  0  0  0  0  0  0  0  0  0  0  0
    1.5960   67.8070   68.7220 N   0  0  0  0  0  0  0  0  0  0  0  0
    1.1360   68.7110   67.7810 O   0  0  0  0  0  0  0  0  0  0  0  0
   -0.1370   68.3970   67.4310 C   0  0  0  0  0  0  0  0  0  0  0  0
   -0.5420   67.2770   68.1360 C   0  0  0  0  0  0  0  0  0  0  0  0
   -1.8430   66.7840   67.9250 C   0  0  0  0  0  0  0  0  0  0  0  0
   -2.6700   67.4470   67.0060 C   0  0  0  0  0  0  0  0  0  0  0  0
   -2.2190   68.5760   66.3140 C   0  0  0  0  0  0  0  0  0  0  0  0
   -0.9310   69.0800   66.5120 C   0  0  0  0  0  0  0  0  0  0  0  0
    3.9997   61.7777   71.3215 H   0  0  0  0  0  0  0  0  0  0  0  0
    4.2678   61.6064   68.9228 H   0  0  0  0  0  0  0  0  0  0  0  0
    2.4838   61.4626   68.7946 H   0  0  0  0  0  0  0  0  0  0  0  0
    4.0543   63.7931   70.0036 H   0  0  0  0  0  0  0  0  0  0  0  0
    3.1381   63.7754   68.4357 H   0  0  0  0  0  0  0  0  0  0  0  0
    1.0189   63.5169   69.6183 H   0  0  0  0  0  0  0  0  0  0  0  0
    2.6204   63.5328   72.2091 H   0  0  0  0  0  0  0  0  0  0  0  0
    0.8243   63.3654   71.9923 H   0  0  0  0  0  0  0  0  0  0  0  0
    1.9439   61.1945   72.4753 H   0  0  0  0  0  0  0  0  0  0  0  0
    1.1164   61.2217   70.8852 H   0  0  0  0  0  0  0  0  0  0  0  0
    3.0740   59.3134   70.0604 H   0  0  0  0  0  0  0  0  0  0  0  0
    4.7153   59.7951   70.7549 H   0  0  0  0  0  0  0  0  0  0  0  0
    2.4644   57.3884   75.5464 H   0  0  0  0  0  0  0  0  0  0  0  0
    1.2170   56.7747   73.4776 H   0  0  0  0  0  0  0  0  0  0  0  0
    1.7512   57.8891   71.3171 H   0  0  0  0  0  0  0  0  0  0  0  0
    4.8130   60.2262   73.2931 H   0  0  0  0  0  0  0  0  0  0  0  0
    4.2670   59.1060   75.4484 H   0  0  0  0  0  0  0  0  0  0  0  0
    1.9742   65.6591   71.3529 H   0  0  0  0  0  0  0  0  0  0  0  0
    2.6887   65.7815   69.6982 H   0  0  0  0  0  0  0  0  0  0  0  0
   -0.2789   65.4557   70.0782 H   0  0  0  0  0  0  0  0  0  0  0  0
   -2.2036   65.8983   68.4686 H   0  0  0  0  0  0  0  0  0  0  0  0
   -3.6889   67.0733   66.8268 H   0  0  0  0  0  0  0  0  0  0  0  0
   -2.8907   69.0762   65.6009 H   0  0  0  0  0  0  0  0  0  0  0  0
   -0.5645   69.9660   65.9728 H   0  0  0  0  0  0  0  0  0  0  0  0
  2  1  1  0
  3  2  1  0
  4  3  1  0
  5  4  1  0
  6  5  1  0
  6  1  1  0
  7  1  1  0
  9  8  2  0
 10  9  1  0
 11 10  2  0
 11  7  1  0
 12 11  1  0
 13 12  2  0
 13  8  1  0
 14  4  1  0
 15 14  1  0
 16 15  1  0
 17 16  2  0
 18 17  1  0
 19 18  1  0
 20 19  2  0
 20 16  1  0
 21 20  1  0
 22 21  2  0
 23 22  1  0
 24 23  2  0
 24 19  1  0
  1 25  1  0
  2 26  1  0
  2 27  1  0
  3 28  1  0
  3 29  1  0
  4 30  1  0
  5 31  1  0
  5 32  1  0
  6 33  1  0
  6 34  1  0
  7 35  1  0
  7 36  1  0
  8 37  1  0
  9 38  1  0
 10 39  1  0
 12 40  1  0
 13 41  1  0
 14 42  1  0
 14 43  1  0
 15 44  1  0
 21 45  1  0
 22 46  1  0
 23 47  1  0
 24 48  1  0
M  CHG  1   1   1
M  END
>  <score>  (8) 
-8.952

$$$$
=
     RDKit          3D

 48 51  0  0  0  0  0  0  0  0999 V2000
    1.6790   63.7870   72.3600 N   0  0  0  0  0  4  0  0  0  0  0  0
    2.3140   63.7420   70.9960 C   0  0  0  0  0  0  0  0  0  0  0  0
    2.0900   65.0760   70.2950 C   0  0  0  0  0  0  0  0  0  0  0  0
    0.5980   65.4360   70.1990 C   0  0  0  0  0  0  0  0  0  0  0  0
   -0.0540   65.3610   71.5910 C   0  0  0  0  0  0  0  0  0  0  0  0
    0.1940   64.0240   72.2710 C   0  0  0  0  0  0  0  0  0  0  0  0
    2.0500   62.6120   73.2430 C   0  0  0  0  0  0  0  0  0  0  0  0
    4.2620   59.4590   71.3030 C   0  0  0  0  0  0  0  0  0  0  0  0
    4.9390   60.5200   71.8990 C   0  0  0  0  0  0  0  0  0  0  0  0
    4.2250   61.5380   72.5340 C   0  0  0  0  0  0  0  0  0  0  0  0
    2.8220   61.5060   72.5760 C   0  0  0  0  0  0  0  0  0  0  0  0
    2.1530   60.4240   71.9820 C   0  0  0  0  0  0  0  0  0  0  0  0
    2.8720   59.4090   71.3480 C   0  0  0  0  0  0  0  0  0  0  0  0
    0.4360   66.8230   69.5480 C   0  0  0  0  0  0  0  0  0  0  0  0
    1.1430   66.8840   68.2800 N   0  0  0  0  0  0  0  0  0  0  0  0
    0.5670   67.4610   67.1910 C   0  0  0  0  0  0  0  0  0  0  0  0
   -0.7390   67.7120   67.0300 N   0  0  0  0  0  0  0  0  0  0  0  0
   -0.8670   68.2910   65.7800 O   0  0  0  0  0  0  0  0  0  0  0  0
    0.3530   68.3790   65.1910 C   0  0  0  0  0  0  0  0  0  0  0  0
    1.3110   67.8580   66.0440 C   0  0  0  0  0  0  0  0  0  0  0  0
    2.6530   67.8470   65.6220 C   0  0  0  0  0  0  0  0  0  0  0  0
    2.9610   68.3670   64.3550 C   0  0  0  0  0  0  0  0  0  0  0  0
    1.9610   68.8850   63.5250 C   0  0  0  0  0  0  0  0  0  0  0  0
    0.6220   68.9020   63.9290 C   0  0  0  0  0  0  0  0  0  0  0  0
    2.0813   64.6033   72.8424 H   0  0  0  0  0  0  0  0  0  0  0  0
    3.3935   63.5570   71.0986 H   0  0  0  0  0  0  0  0  0  0  0  0
    1.8614   62.9328   70.4041 H   0  0  0  0  0  0  0  0  0  0  0  0
    2.6095   65.8646   70.8590 H   0  0  0  0  0  0  0  0  0  0  0  0
    2.4844   64.9912   69.2716 H   0  0  0  0  0  0  0  0  0  0  0  0
    0.0782   64.7089   69.5579 H   0  0  0  0  0  0  0  0  0  0  0  0
    0.3624   66.1611   72.2206 H   0  0  0  0  0  0  0  0  0  0  0  0
   -1.1401   65.4772   71.4615 H   0  0  0  0  0  0  0  0  0  0  0  0
   -0.2384   64.0388   73.2824 H   0  0  0  0  0  0  0  0  0  0  0  0
   -0.2767   63.2180   71.6889 H   0  0  0  0  0  0  0  0  0  0  0  0
    2.6600   62.9948   74.0745 H   0  0  0  0  0  0  0  0  0  0  0  0
    1.0962   62.1622   73.5558 H   0  0  0  0  0  0  0  0  0  0  0  0
    4.8255   58.6611   70.7971 H   0  0  0  0  0  0  0  0  0  0  0  0
    6.0380   60.5561   71.8694 H   0  0  0  0  0  0  0  0  0  0  0  0
    4.7660   62.3718   73.0052 H   0  0  0  0  0  0  0  0  0  0  0  0
    1.0546   60.3756   72.0164 H   0  0  0  0  0  0  0  0  0  0  0  0
    2.3382   58.5673   70.8827 H   0  0  0  0  0  0  0  0  0  0  0  0
   -0.6327   67.0173   69.3746 H   0  0  0  0  0  0  0  0  0  0  0  0
    0.8585   67.5811   70.2239 H   0  0  0  0  0  0  0  0  0  0  0  0
    2.0901   66.4862   68.2049 H   0  0  0  0  0  0  0  0  0  0  0  0
    3.4431   67.4401   66.2702 H   0  0  0  0  0  0  0  0  0  0  0  0
    4.0053   68.3672   64.0093 H   0  0  0  0  0  0  0  0  0  0  0  0
    2.2325   69.2860   62.5373 H   0  0  0  0  0  0  0  0  0  0  0  0
   -0.1738   69.3059   63.2858 H   0  0  0  0  0  0  0  0  0  0  0  0
  2  1  1  0
  3  2  1  0
  4  3  1  0
  5  4  1  0
  6  5  1  0
  6  1  1  0
  7  1  1  0
  9  8  2  0
 10  9  1  0
 11 10  2  0
 11  7  1  0
 12 11  1  0
 13 12  2  0
 13  8  1  0
 14  4  1  0
 15 14  1  0
 16 15  1  0
 17 16  2  0
 18 17  1  0
 19 18  1  0
 20 19  2  0
 20 16  1  0
 21 20  1  0
 22 21  2  0
 23 22  1  0
 24 23  2  0
 24 19  1  0
  1 25  1  0
  2 26  1  0
  2 27  1  0
  3 28  1  0
  3 29  1  0
  4 30  1  0
  5 31  1  0
  5 32  1  0
  6 33  1  0
  6 34  1  0
  7 35  1  0
  7 36  1  0
  8 37  1  0
  9 38  1  0
 10 39  1  0
 12 40  1  0
 13 41  1  0
 14 42  1  0
 14 43  1  0
 15 44  1  0
 21 45  1  0
 22 46  1  0
 23 47  1  0
 24 48  1  0
M  CHG  1   1   1
M  END
>  <score>  (9) 
-8.936

$$$$
