=
     RDKit          3D

122124  0  0  0  0  0  0  0  0999 V2000
   -5.5710   64.2020   76.2160 C   0  0  1  0  0  0  0  0  0  0  0  0
   -4.1200   64.0680   75.9890 O   0  0  0  0  0  0  0  0  0  0  0  0
   -3.2250   64.1040   77.0130 C   0  0  0  0  0  0  0  0  0  0  0  0
   -3.5000   63.9440   78.1940 O   0  0  0  0  0  0  0  0  0  0  0  0
   -1.8120   64.4620   76.5460 C   0  0  2  0  0  0  0  0  0  0  0  0
   -1.8770   65.7320   75.6870 C   0  0  0  0  0  0  0  0  0  0  0  0
   -1.0570   63.3110   75.8350 C   0  0  2  0  0  0  0  0  0  0  0  0
   -0.7400   62.1150   76.7920 C   0  0  2  0  0  0  0  0  0  0  0  0
    0.6380   62.2780   77.4610 C   0  0  0  0  0  0  0  0  0  0  0  0
   -0.9080   60.6900   76.1210 C   0  0  2  0  0  0  0  0  0  0  0  0
   -2.4300   60.2930   75.8100 C   0  0  2  0  0  0  0  0  0  0  0  0
   -2.7920   58.7790   75.7970 C   0  0  0  0  0  0  0  0  0  0  0  0
   -4.2930   58.3420   75.6050 C   0  0  2  0  0  0  0  0  0  0  0  0
   -5.3580   59.3540   75.1270 C   0  0  0  0  0  0  0  0  0  0  0  0
   -5.6040   59.4450   73.9140 O   0  0  0  0  0  0  0  0  0  0  0  0
   -6.1270   60.2540   76.1030 C   0  0  1  0  0  0  0  0  0  0  0  0
   -5.9450   61.7240   75.6380 C   0  0  2  0  0  0  0  0  0  0  0  0
   -6.3320   62.8760   76.6220 C   0  0  1  0  0  0  0  0  0  0  0  0
   -6.1760   62.5240   78.0980 C   0  0  0  0  0  0  0  0  0  0  0  0
   -7.5860   59.8030   76.1420 C   0  0  0  0  0  0  0  0  0  0  0  0
   -4.8120   57.4830   76.7600 C   0  0  0  0  0  0  0  0  0  0  0  0
   -2.7230   60.8470   74.3880 C   0  0  0  0  0  0  0  0  0  0  0  0
   -6.8050   66.4710   76.4080 C   0  0  0  0  0  0  0  0  0  0  0  0
   -5.8530   65.4750   77.0500 C   0  0  0  0  0  0  0  0  0  0  0  0
   -7.7520   63.0910   76.4390 O   0  0  0  0  0  0  0  0  0  0  0  0
   -6.6780   61.9610   74.4110 O   0  0  0  0  0  0  0  0  0  0  0  0
   -3.2850   60.9230   76.7820 O   0  0  0  0  0  0  0  0  0  0  0  0
   -3.1720   60.4370   78.1310 C   0  0  0  0  0  0  0  0  0  0  0  0
    0.1970   63.8450   75.3650 O   0  0  0  0  0  0  0  0  0  0  0  0
    0.6010   63.4300   74.0600 C   0  0  2  0  0  0  0  0  0  0  0  0
   -0.5060   62.8730   73.3570 O   0  0  0  0  0  0  0  0  0  0  0  0
   -0.1770   62.3440   72.0590 C   0  0  1  0  0  0  0  0  0  0  0  0
    0.0150   63.4540   71.0300 C   0  0  0  0  0  0  0  0  0  0  0  0
    0.9580   61.3080   72.1360 C   0  0  1  0  0  0  0  0  0  0  0  0
    2.1840   61.7430   72.9850 C   0  0  2  0  0  0  0  0  0  0  0  0
    1.6820   62.3750   74.2880 C   0  0  0  0  0  0  0  0  0  0  0  0
    3.1040   62.6880   72.2000 C   0  0  0  0  0  0  0  0  0  0  0  0
    2.8820   60.4950   73.2560 O   0  0  0  0  0  0  0  0  0  0  0  0
    4.2550   60.4260   72.8870 C   0  0  0  0  0  0  0  0  0  0  0  0
    0.3980   60.1220   72.7620 O   0  0  0  0  0  0  0  0  0  0  0  0
   -0.2790   59.7030   76.9620 O   0  0  0  0  0  0  0  0  0  0  0  0
    0.6690   58.8770   76.2790 C   0  0  2  0  0  0  0  0  0  0  0  0
    0.1850   57.5300   76.2180 O   0  0  0  0  0  0  0  0  0  0  0  0
    0.4260   56.7000   77.3550 C   0  0  2  0  0  0  0  0  0  0  0  0
   -0.3540   57.1580   78.5840 C   0  0  0  0  0  0  0  0  0  0  0  0
    1.9340   56.5430   77.6220 C   0  0  0  0  0  0  0  0  0  0  0  0
    2.7180   57.5820   76.8350 C   0  0  1  0  0  0  0  0  0  0  0  0
    2.0610   58.9610   76.9440 C   0  0  1  0  0  0  0  0  0  0  0  0
    4.1930   57.6950   77.2370 N   0  0  0  0  0  4  0  0  0  0  0  0
    4.5340   57.4040   78.6660 C   0  0  0  0  0  0  0  0  0  0  0  0
    5.1220   57.0120   76.2800 C   0  0  0  0  0  0  0  0  0  0  0  0
    2.9580   59.8920   76.3180 O   0  0  0  0  0  0  0  0  0  0  0  0
   -6.0574   64.3638   75.2427 H   0  0  0  0  0  0  0  0  0  0  0  0
   -1.2087   64.6503   77.4463 H   0  0  0  0  0  0  0  0  0  0  0  0
   -1.9222   66.6152   76.3412 H   0  0  0  0  0  0  0  0  0  0  0  0
   -0.9807   65.7915   75.0521 H   0  0  0  0  0  0  0  0  0  0  0  0
   -2.7747   65.6997   75.0521 H   0  0  0  0  0  0  0  0  0  0  0  0
   -1.6947   62.9309   75.0233 H   0  0  0  0  0  0  0  0  0  0  0  0
   -1.5073   62.1532   77.5793 H   0  0  0  0  0  0  0  0  0  0  0  0
    0.5187   62.2639   78.5544 H   0  0  0  0  0  0  0  0  0  0  0  0
    1.2951   61.4513   77.1531 H   0  0  0  0  0  0  0  0  0  0  0  0
    1.0841   63.2352   77.1531 H   0  0  0  0  0  0  0  0  0  0  0  0
   -0.4162   60.7297   75.1378 H   0  0  0  0  0  0  0  0  0  0  0  0
   -2.2179   58.3198   74.9787 H   0  0  0  0  0  0  0  0  0  0  0  0
   -2.5553   58.4481   76.8190 H   0  0  0  0  0  0  0  0  0  0  0  0
   -4.1712   57.7436   74.6901 H   0  0  0  0  0  0  0  0  0  0  0  0
   -5.7463   60.1805   77.1324 H   0  0  0  0  0  0  0  0  0  0  0  0
   -4.8514   61.7825   75.5351 H   0  0  0  0  0  0  0  0  0  0  0  0
   -6.5451   63.3568   78.7146 H   0  0  0  0  0  0  0  0  0  0  0  0
   -6.7563   61.6168   78.3219 H   0  0  0  0  0  0  0  0  0  0  0  0
   -5.1141   62.3446   78.3219 H   0  0  0  0  0  0  0  0  0  0  0  0
   -7.9109   59.7026   77.1881 H   0  0  0  0  0  0  0  0  0  0  0  0
   -8.2141   60.5489   75.6330 H   0  0  0  0  0  0  0  0  0  0  0  0
   -7.6836   58.8328   75.6330 H   0  0  0  0  0  0  0  0  0  0  0  0
   -4.5315   57.9472   77.7170 H   0  0  0  0  0  0  0  0  0  0  0  0
   -5.9075   57.4066   76.6967 H   0  0  0  0  0  0  0  0  0  0  0  0
   -4.3701   56.4777   76.6967 H   0  0  0  0  0  0  0  0  0  0  0  0
   -3.2358   61.8166   74.4707 H   0  0  0  0  0  0  0  0  0  0  0  0
   -1.7763   60.9782   73.8433 H   0  0  0  0  0  0  0  0  0  0  0  0
   -3.3642   60.1384   73.8433 H   0  0  0  0  0  0  0  0  0  0  0  0
   -7.3373   67.0279   77.1932 H   0  0  0  0  0  0  0  0  0  0  0  0
   -6.2341   67.1735   75.7831 H   0  0  0  0  0  0  0  0  0  0  0  0
   -7.5326   65.9324   75.7831 H   0  0  0  0  0  0  0  0  0  0  0  0
   -6.2850   65.1628   78.0122 H   0  0  0  0  0  0  0  0  0  0  0  0
   -4.8887   65.9948   77.1496 H   0  0  0  0  0  0  0  0  0  0  0  0
   -8.1923   63.1577   77.3232 H   0  0  0  0  0  0  0  0  0  0  0  0
   -7.5971   62.2582   74.6278 H   0  0  0  0  0  0  0  0  0  0  0  0
   -3.3635   61.2605   78.8347 H   0  0  0  0  0  0  0  0  0  0  0  0
   -3.9079   59.6360   78.2950 H   0  0  0  0  0  0  0  0  0  0  0  0
   -2.1582   60.0428   78.2950 H   0  0  0  0  0  0  0  0  0  0  0  0
    0.9749   64.2693   73.4552 H   0  0  0  0  0  0  0  0  0  0  0  0
   -1.0382   61.7721   71.6831 H   0  0  0  0  0  0  0  0  0  0  0  0
    0.1804   64.4100   71.5484 H   0  0  0  0  0  0  0  0  0  0  0  0
    0.8865   63.2231   70.3998 H   0  0  0  0  0  0  0  0  0  0  0  0
   -0.8835   63.5292   70.3998 H   0  0  0  0  0  0  0  0  0  0  0  0
    1.3270   61.1562   71.1109 H   0  0  0  0  0  0  0  0  0  0  0  0
    1.2679   61.5807   74.9264 H   0  0  0  0  0  0  0  0  0  0  0  0
    2.5381   62.8772   74.7621 H   0  0  0  0  0  0  0  0  0  0  0  0
    3.6938   63.2938   72.9036 H   0  0  0  0  0  0  0  0  0  0  0  0
    3.7823   62.0972   71.5669 H   0  0  0  0  0  0  0  0  0  0  0  0
    2.4952   63.3502   71.5669 H   0  0  0  0  0  0  0  0  0  0  0  0
    4.8772   60.3947   73.7936 H   0  0  0  0  0  0  0  0  0  0  0  0
    4.4293   59.5180   72.2911 H   0  0  0  0  0  0  0  0  0  0  0  0
    4.5195   61.3120   72.2911 H   0  0  0  0  0  0  0  0  0  0  0  0
    0.4425   60.2163   73.7465 H   0  0  0  0  0  0  0  0  0  0  0  0
    0.7873   59.2444   75.2490 H   0  0  0  0  0  0  0  0  0  0  0  0
    0.0403   55.6970   77.1198 H   0  0  0  0  0  0  0  0  0  0  0  0
    0.1789   56.8451   79.4940 H   0  0  0  0  0  0  0  0  0  0  0  0
   -0.4468   58.2540   78.5719 H   0  0  0  0  0  0  0  0  0  0  0  0
   -1.3563   56.7050   78.5719 H   0  0  0  0  0  0  0  0  0  0  0  0
    2.1287   56.6779   78.6962 H   0  0  0  0  0  0  0  0  0  0  0  0
    2.2517   55.5385   77.3058 H   0  0  0  0  0  0  0  0  0  0  0  0
    2.6963   57.2260   75.7944 H   0  0  0  0  0  0  0  0  0  0  0  0
    1.8929   59.2990   77.9772 H   0  0  0  0  0  0  0  0  0  0  0  0
    4.3535   58.7097   77.1623 H   0  0  0  0  0  0  0  0  0  0  0  0
    3.8648   57.9751   79.3263 H   0  0  0  0  0  0  0  0  0  0  0  0
    4.4108   56.3284   78.8606 H   0  0  0  0  0  0  0  0  0  0  0  0
    5.5769   57.6948   78.8606 H   0  0  0  0  0  0  0  0  0  0  0  0
    5.8830   56.4525   76.8439 H   0  0  0  0  0  0  0  0  0  0  0  0
    4.5505   56.3174   75.6468 H   0  0  0  0  0  0  0  0  0  0  0  0
    5.6145   57.7647   75.6468 H   0  0  0  0  0  0  0  0  0  0  0  0
    3.4463   60.3988   77.0143 H   0  0  0  0  0  0  0  0  0  0  0  0
  2  1  1  0
  3  2  1  0
  4  3  2  0
  5  3  1  0
  6  5  1  0
  7  5  1  0
  8  7  1  0
  9  8  1  0
 10  8  1  0
 11 10  1  0
 12 11  1  0
 13 12  1  0
 14 13  1  0
 15 14  2  0
 16 14  1  0
 17 16  1  0
 18 17  1  0
 18  1  1  0
 19 18  1  0
 20 16  1  0
 21 13  1  0
 22 11  1  0
 24  1  1  0
 24 23  1  0
 18 25  1  1
 26 17  1  0
 11 27  1  1
 28 27  1  0
 29  7  1  0
 30 29  1  0
 31 30  1  0
 32 31  1  0
 33 32  1  0
 34 32  1  0
 35 34  1  0
 36 35  1  0
 36 30  1  0
 37 35  1  0
 35 38  1  1
 39 38  1  0
 40 34  1  0
 41 10  1  0
 42 41  1  0
 43 42  1  0
 44 43  1  0
 45 44  1  0
 46 44  1  0
 47 46  1  0
 48 42  1  0
 48 47  1  0
 49 47  1  0
 50 49  1  0
 51 49  1  0
 52 48  1  0
  1 53  1  6
  5 54  1  1
  6 55  1  0
  6 56  1  0
  6 57  1  0
  7 58  1  6
  8 59  1  1
  9 60  1  0
  9 61  1  0
  9 62  1  0
 10 63  1  6
 12 64  1  0
 12 65  1  0
 13 66  1  6
 16 67  1  1
 17 68  1  6
 19 69  1  0
 19 70  1  0
 19 71  1  0
 20 72  1  0
 20 73  1  0
 20 74  1  0
 21 75  1  0
 21 76  1  0
 21 77  1  0
 22 78  1  0
 22 79  1  0
 22 80  1  0
 23 81  1  0
 23 82  1  0
 23 83  1  0
 24 84  1  0
 24 85  1  0
 25 86  1  0
 26 87  1  0
 28 88  1  0
 28 89  1  0
 28 90  1  0
 30 91  1  6
 32 92  1  6
 33 93  1  0
 33 94  1  0
 33 95  1  0
 34 96  1  6
 36 97  1  0
 36 98  1  0
 37 99  1  0
 37100  1  0
 37101  1  0
 39102  1  0
 39103  1  0
 39104  1  0
 40105  1  0
 42106  1  6
 44107  1  6
 45108  1  0
 45109  1  0
 45110  1  0
 46111  1  0
 46112  1  0
 47113  1  6
 48114  1  1
 49115  1  0
 50116  1  0
 50117  1  0
 50118  1  0
 51119  1  0
 51120  1  0
 51121  1  0
 52122  1  0
M  CHG  1  49   1
M  END
>  <score>  (1) 
-6.788

$$$$
=
     RDKit          3D

122124  0  0  0  0  0  0  0  0999 V2000
   -4.9840   64.0910   77.0830 C   0  0  1  0  0  0  0  0  0  0  0  0
   -3.7140   63.3680   76.8840 O   0  0  0  0  0  0  0  0  0  0  0  0
   -3.0560   62.7720   77.9150 C   0  0  0  0  0  0  0  0  0  0  0  0
   -3.5490   62.5000   79.0020 O   0  0  0  0  0  0  0  0  0  0  0  0
   -1.5740   62.5430   77.6120 C   0  0  2  0  0  0  0  0  0  0  0  0
   -0.9570   63.8580   77.1140 C   0  0  0  0  0  0  0  0  0  0  0  0
   -1.2850   61.3600   76.6530 C   0  0  2  0  0  0  0  0  0  0  0  0
   -1.6600   59.9750   77.2750 C   0  0  2  0  0  0  0  0  0  0  0  0
   -0.4630   59.3480   78.0150 C   0  0  0  0  0  0  0  0  0  0  0  0
   -2.3180   58.9640   76.2480 C   0  0  2  0  0  0  0  0  0  0  0  0
   -3.7970   59.3770   75.7860 C   0  0  2  0  0  0  0  0  0  0  0  0
   -4.7650   58.2340   75.3630 C   0  0  0  0  0  0  0  0  0  0  0  0
   -6.2600   58.5760   75.0070 C   0  0  2  0  0  0  0  0  0  0  0  0
   -6.7040   60.0370   74.7710 C   0  0  0  0  0  0  0  0  0  0  0  0
   -6.7000   60.4900   73.6150 O   0  0  0  0  0  0  0  0  0  0  0  0
   -7.1520   60.9520   75.9180 C   0  0  1  0  0  0  0  0  0  0  0  0
   -6.2900   62.2420   75.8620 C   0  0  2  0  0  0  0  0  0  0  0  0
   -6.2910   63.1990   77.0980 C   0  0  1  0  0  0  0  0  0  0  0  0
   -6.5260   62.5040   78.4350 C   0  0  0  0  0  0  0  0  0  0  0  0
   -8.6510   61.2130   75.7820 C   0  0  0  0  0  0  0  0  0  0  0  0
   -7.2660   57.8170   75.8760 C   0  0  0  0  0  0  0  0  0  0  0  0
   -3.6050   60.2970   74.5490 C   0  0  0  0  0  0  0  0  0  0  0  0
   -4.3320   66.5050   77.7560 C   0  0  0  0  0  0  0  0  0  0  0  0
   -4.8170   65.1380   78.2100 C   0  0  0  0  0  0  0  0  0  0  0  0
   -7.4360   64.0680   76.9240 O   0  0  0  0  0  0  0  0  0  0  0  0
   -6.6560   63.0440   74.7130 O   0  0  0  0  0  0  0  0  0  0  0  0
   -4.4350   60.0970   76.8570 O   0  0  0  0  0  0  0  0  0  0  0  0
   -4.7480   59.3330   78.0330 C   0  0  0  0  0  0  0  0  0  0  0  0
    0.1320   61.3580   76.3880 O   0  0  0  0  0  0  0  0  0  0  0  0
    0.5100   61.5410   75.0240 C   0  0  2  0  0  0  0  0  0  0  0  0
   -0.2930   60.7220   74.1770 O   0  0  0  0  0  0  0  0  0  0  0  0
    0.0740   60.7720   72.7850 C   0  0  1  0  0  0  0  0  0  0  0  0
   -0.4070   62.0590   72.1230 C   0  0  0  0  0  0  0  0  0  0  0  0
    1.5590   60.4310   72.5740 C   0  0  1  0  0  0  0  0  0  0  0  0
    2.5410   61.1680   73.5250 C   0  0  2  0  0  0  0  0  0  0  0  0
    1.9760   61.1190   74.9490 C   0  0  0  0  0  0  0  0  0  0  0  0
    2.8060   62.6050   73.0570 C   0  0  0  0  0  0  0  0  0  0  0  0
    3.7670   60.3890   73.4340 O   0  0  0  0  0  0  0  0  0  0  0  0
    4.7730   60.8660   72.5470 C   0  0  0  0  0  0  0  0  0  0  0  0
    1.6990   59.0070   72.8250 O   0  0  0  0  0  0  0  0  0  0  0  0
   -2.3070   57.6430   76.8240 O   0  0  0  0  0  0  0  0  0  0  0  0
   -1.8410   56.6250   75.9340 C   0  0  2  0  0  0  0  0  0  0  0  0
   -2.0350   55.3350   76.5260 O   0  0  0  0  0  0  0  0  0  0  0  0
   -1.0270   54.8740   77.4270 C   0  0  2  0  0  0  0  0  0  0  0  0
   -0.9720   55.7000   78.7090 C   0  0  0  0  0  0  0  0  0  0  0  0
    0.3390   54.7610   76.7250 C   0  0  0  0  0  0  0  0  0  0  0  0
    0.3080   55.4960   75.3930 C   0  0  1  0  0  0  0  0  0  0  0  0
   -0.3660   56.8630   75.5390 C   0  0  1  0  0  0  0  0  0  0  0  0
    1.6840   55.6810   74.7440 N   0  0  0  0  0  4  0  0  0  0  0  0
    2.7840   56.2050   75.6160 C   0  0  0  0  0  0  0  0  0  0  0  0
    2.1190   54.5020   73.9280 C   0  0  0  0  0  0  0  0  0  0  0  0
   -0.1940   57.5390   74.2840 O   0  0  0  0  0  0  0  0  0  0  0  0
   -5.2010   64.6630   76.1688 H   0  0  0  0  0  0  0  0  0  0  0  0
   -1.0935   62.2363   78.5528 H   0  0  0  0  0  0  0  0  0  0  0  0
   -0.6668   64.4765   77.9761 H   0  0  0  0  0  0  0  0  0  0  0  0
   -0.0680   63.6383   76.5046 H   0  0  0  0  0  0  0  0  0  0  0  0
   -1.6942   64.4013   76.5046 H   0  0  0  0  0  0  0  0  0  0  0  0
   -1.8918   61.4949   75.7455 H   0  0  0  0  0  0  0  0  0  0  0  0
   -2.4467   60.1837   78.0150 H   0  0  0  0  0  0  0  0  0  0  0  0
   -0.6194   59.4299   79.1007 H   0  0  0  0  0  0  0  0  0  0  0  0
   -0.3742   58.2876   77.7363 H   0  0  0  0  0  0  0  0  0  0  0  0
    0.4593   59.8788   77.7363 H   0  0  0  0  0  0  0  0  0  0  0  0
   -1.7140   58.9893   75.3290 H   0  0  0  0  0  0  0  0  0  0  0  0
   -4.3262   57.7553   74.4751 H   0  0  0  0  0  0  0  0  0  0  0  0
   -4.8500   57.6184   76.2707 H   0  0  0  0  0  0  0  0  0  0  0  0
   -6.2681   58.2009   73.9729 H   0  0  0  0  0  0  0  0  0  0  0  0
   -7.0003   60.4931   76.9061 H   0  0  0  0  0  0  0  0  0  0  0  0
   -5.2745   61.8212   75.8201 H   0  0  0  0  0  0  0  0  0  0  0  0
   -6.2913   63.1982   79.2554 H   0  0  0  0  0  0  0  0  0  0  0  0
   -7.5789   62.1939   78.5070 H   0  0  0  0  0  0  0  0  0  0  0  0
   -5.8773   61.6186   78.5070 H   0  0  0  0  0  0  0  0  0  0  0  0
   -9.1018   61.2915   76.7823 H   0  0  0  0  0  0  0  0  0  0  0  0
   -8.8113   62.1526   75.2329 H   0  0  0  0  0  0  0  0  0  0  0  0
   -9.1194   60.3829   75.2329 H   0  0  0  0  0  0  0  0  0  0  0  0
   -7.0370   57.9898   76.9379 H   0  0  0  0  0  0  0  0  0  0  0  0
   -8.2829   58.1749   75.6573 H   0  0  0  0  0  0  0  0  0  0  0  0
   -7.2010   56.7409   75.6573 H   0  0  0  0  0  0  0  0  0  0  0  0
   -3.3910   61.3225   74.8844 H   0  0  0  0  0  0  0  0  0  0  0  0
   -2.7648   59.9265   73.9433 H   0  0  0  0  0  0  0  0  0  0  0  0
   -4.5232   60.2934   73.9433 H   0  0  0  0  0  0  0  0  0  0  0  0
   -4.1114   67.1267   78.6362 H   0  0  0  0  0  0  0  0  0  0  0  0
   -3.4203   66.3885   77.1516 H   0  0  0  0  0  0  0  0  0  0  0  0
   -5.1132   66.9891   77.1516 H   0  0  0  0  0  0  0  0  0  0  0  0
   -5.7929   65.2687   78.7005 H   0  0  0  0  0  0  0  0  0  0  0  0
   -4.0381   64.7444   78.8796 H   0  0  0  0  0  0  0  0  0  0  0  0
   -7.7863   64.3339   77.8110 H   0  0  0  0  0  0  0  0  0  0  0  0
   -7.0468   63.9004   75.0194 H   0  0  0  0  0  0  0  0  0  0  0  0
   -4.5061   59.9235   78.9290 H   0  0  0  0  0  0  0  0  0  0  0  0
   -5.8199   59.0858   78.0351 H   0  0  0  0  0  0  0  0  0  0  0  0
   -4.1577   58.4048   78.0351 H   0  0  0  0  0  0  0  0  0  0  0  0
    0.3701   62.5804   74.6921 H   0  0  0  0  0  0  0  0  0  0  0  0
   -0.4622   59.9750   72.2490 H   0  0  0  0  0  0  0  0  0  0  0  0
   -0.6802   62.7901   72.8981 H   0  0  0  0  0  0  0  0  0  0  0  0
    0.3975   62.4720   71.4967 H   0  0  0  0  0  0  0  0  0  0  0  0
   -1.2852   61.8432   71.4967 H   0  0  0  0  0  0  0  0  0  0  0  0
    1.8211   60.7454   71.5530 H   0  0  0  0  0  0  0  0  0  0  0  0
    2.0641   60.0893   75.3259 H   0  0  0  0  0  0  0  0  0  0  0  0
    2.5546   61.8297   75.5573 H   0  0  0  0  0  0  0  0  0  0  0  0
    2.9267   63.2595   73.9328 H   0  0  0  0  0  0  0  0  0  0  0  0
    3.7239   62.6300   72.4513 H   0  0  0  0  0  0  0  0  0  0  0  0
    1.9574   62.9557   72.4513 H   0  0  0  0  0  0  0  0  0  0  0  0
    5.6160   61.2657   73.1297 H   0  0  0  0  0  0  0  0  0  0  0  0
    5.1250   60.0389   71.9130 H   0  0  0  0  0  0  0  0  0  0  0  0
    4.3554   61.6620   71.9130 H   0  0  0  0  0  0  0  0  0  0  0  0
    1.7150   58.8440   73.8014 H   0  0  0  0  0  0  0  0  0  0  0  0
   -2.4285   56.6664   75.0049 H   0  0  0  0  0  0  0  0  0  0  0  0
   -1.3063   53.8583   77.7437 H   0  0  0  0  0  0  0  0  0  0  0  0
   -1.0167   55.0291   79.5796 H   0  0  0  0  0  0  0  0  0  0  0  0
   -0.0337   56.2735   78.7357 H   0  0  0  0  0  0  0  0  0  0  0  0
   -1.8260   56.3928   78.7357 H   0  0  0  0  0  0  0  0  0  0  0  0
    1.1149   55.2042   77.3665 H   0  0  0  0  0  0  0  0  0  0  0  0
    0.5626   53.6993   76.5438 H   0  0  0  0  0  0  0  0  0  0  0  0
   -0.2764   54.8474   74.7239 H   0  0  0  0  0  0  0  0  0  0  0  0
    0.0686   57.4976   76.3254 H   0  0  0  0  0  0  0  0  0  0  0  0
    1.5064   56.4632   74.0978 H   0  0  0  0  0  0  0  0  0  0  0  0
    2.5083   56.0737   76.6728 H   0  0  0  0  0  0  0  0  0  0  0  0
    3.7119   55.6522   75.4077 H   0  0  0  0  0  0  0  0  0  0  0  0
    2.9394   57.2739   75.4077 H   0  0  0  0  0  0  0  0  0  0  0  0
    2.4209   53.6836   74.5981 H   0  0  0  0  0  0  0  0  0  0  0  0
    1.2851   54.1675   73.2934 H   0  0  0  0  0  0  0  0  0  0  0  0
    2.9703   54.7893   73.2934 H   0  0  0  0  0  0  0  0  0  0  0  0
    0.0467   58.4850   74.4490 H   0  0  0  0  0  0  0  0  0  0  0  0
  2  1  1  0
  3  2  1  0
  4  3  2  0
  5  3  1  0
  6  5  1  0
  7  5  1  0
  8  7  1  0
  9  8  1  0
 10  8  1  0
 11 10  1  0
 12 11  1  0
 13 12  1  0
 14 13  1  0
 15 14  2  0
 16 14  1  0
 17 16  1  0
 18 17  1  0
 18  1  1  0
 19 18  1  0
 20 16  1  0
 21 13  1  0
 22 11  1  0
 24  1  1  0
 24 23  1  0
 18 25  1  6
 26 17  1  0
 11 27  1  1
 28 27  1  0
 29  7  1  0
 30 29  1  0
 31 30  1  0
 32 31  1  0
 33 32  1  0
 34 32  1  0
 35 34  1  0
 36 35  1  0
 36 30  1  0
 37 35  1  0
 35 38  1  1
 39 38  1  0
 40 34  1  0
 41 10  1  0
 42 41  1  0
 43 42  1  0
 44 43  1  0
 45 44  1  0
 46 44  1  0
 47 46  1  0
 48 42  1  0
 48 47  1  0
 49 47  1  0
 50 49  1  0
 51 49  1  0
 52 48  1  0
  1 53  1  6
  5 54  1  1
  6 55  1  0
  6 56  1  0
  6 57  1  0
  7 58  1  6
  8 59  1  1
  9 60  1  0
  9 61  1  0
  9 62  1  0
 10 63  1  6
 12 64  1  0
 12 65  1  0
 13 66  1  6
 16 67  1  1
 17 68  1  6
 19 69  1  0
 19 70  1  0
 19 71  1  0
 20 72  1  0
 20 73  1  0
 20 74  1  0
 21 75  1  0
 21 76  1  0
 21 77  1  0
 22 78  1  0
 22 79  1  0
 22 80  1  0
 23 81  1  0
 23 82  1  0
 23 83  1  0
 24 84  1  0
 24 85  1  0
 25 86  1  0
 26 87  1  0
 28 88  1  0
 28 89  1  0
 28 90  1  0
 30 91  1  6
 32 92  1  6
 33 93  1  0
 33 94  1  0
 33 95  1  0
 34 96  1  6
 36 97  1  0
 36 98  1  0
 37 99  1  0
 37100  1  0
 37101  1  0
 39102  1  0
 39103  1  0
 39104  1  0
 40105  1  0
 42106  1  6
 44107  1  1
 45108  1  0
 45109  1  0
 45110  1  0
 46111  1  0
 46112  1  0
 47113  1  6
 48114  1  1
 49115  1  0
 50116  1  0
 50117  1  0
 50118  1  0
 51119  1  0
 51120  1  0
 51121  1  0
 52122  1  0
M  CHG  1  49   1
M  END
>  <score>  (2) 
-6.474

$$$$
=
     RDKit          3D

122124  0  0  0  0  0  0  0  0999 V2000
    1.7920   58.2870   78.8930 C   0  0  1  0  0  0  0  0  0  0  0  0
    1.1880   59.5790   78.5170 O   0  0  0  0  0  0  0  0  0  0  0  0
    1.9280   60.7150   78.4060 C   0  0  0  0  0  0  0  0  0  0  0  0
    3.1460   60.7530   78.2970 O   0  0  0  0  0  0  0  0  0  0  0  0
    1.0800   61.9830   78.5210 C   0  0  2  0  0  0  0  0  0  0  0  0
    0.2100   61.8890   79.7810 C   0  0  0  0  0  0  0  0  0  0  0  0
    0.2480   62.3200   77.2570 C   0  0  2  0  0  0  0  0  0  0  0  0
    1.1410   62.6910   76.0280 C   0  0  2  0  0  0  0  0  0  0  0  0
    1.4030   64.2080   75.9600 C   0  0  0  0  0  0  0  0  0  0  0  0
    0.6090   62.1190   74.6500 C   0  0  2  0  0  0  0  0  0  0  0  0
    0.7410   60.5270   74.5120 C   0  0  2  0  0  0  0  0  0  0  0  0
    0.9010   59.9380   73.0800 C   0  0  0  0  0  0  0  0  0  0  0  0
    1.1430   58.3930   72.9000 C   0  0  2  0  0  0  0  0  0  0  0  0
    0.9220   57.4130   74.0740 C   0  0  0  0  0  0  0  0  0  0  0  0
   -0.1820   56.8620   74.2010 O   0  0  0  0  0  0  0  0  0  0  0  0
    2.0250   57.0960   75.0930 C   0  0  1  0  0  0  0  0  0  0  0  0
    1.4570   57.3770   76.5100 C   0  0  2  0  0  0  0  0  0  0  0  0
    2.4520   57.4650   77.7140 C   0  0  1  0  0  0  0  0  0  0  0  0
    3.8460   57.9620   77.3440 C   0  0  0  0  0  0  0  0  0  0  0  0
    2.4790   55.6520   74.8920 C   0  0  0  0  0  0  0  0  0  0  0  0
    2.4360   58.0800   72.1420 C   0  0  0  0  0  0  0  0  0  0  0  0
   -0.5730   59.9480   75.1030 C   0  0  0  0  0  0  0  0  0  0  0  0
    3.1790   57.1650   80.7700 C   0  0  0  0  0  0  0  0  0  0  0  0
    2.6080   58.4520   80.1970 C   0  0  0  0  0  0  0  0  0  0  0  0
    2.6500   56.1030   78.1630 O   0  0  0  0  0  0  0  0  0  0  0  0
    0.4640   56.3830   76.8630 O   0  0  0  0  0  0  0  0  0  0  0  0
    1.8770   60.0850   75.2790 O   0  0  0  0  0  0  0  0  0  0  0  0
    3.1680   60.4520   74.7640 C   0  0  0  0  0  0  0  0  0  0  0  0
   -0.5690   63.4650   77.5730 O   0  0  0  0  0  0  0  0  0  0  0  0
   -1.9700   63.2160   77.6940 C   0  0  2  0  0  0  0  0  0  0  0  0
   -2.2700   61.8860   77.2790 O   0  0  0  0  0  0  0  0  0  0  0  0
   -3.6750   61.5690   77.2820 C   0  0  1  0  0  0  0  0  0  0  0  0
   -4.1950   61.3270   78.6960 C   0  0  0  0  0  0  0  0  0  0  0  0
   -4.4870   62.5670   76.4390 C   0  0  1  0  0  0  0  0  0  0  0  0
   -4.1640   64.0630   76.7050 C   0  0  2  0  0  0  0  0  0  0  0  0
   -2.6420   64.2340   76.7740 C   0  0  0  0  0  0  0  0  0  0  0  0
   -4.8600   64.5710   77.9740 C   0  0  0  0  0  0  0  0  0  0  0  0
   -4.7040   64.7500   75.5410 O   0  0  0  0  0  0  0  0  0  0  0  0
   -4.9010   66.1560   75.6520 C   0  0  0  0  0  0  0  0  0  0  0  0
   -4.1650   62.2960   75.0480 O   0  0  0  0  0  0  0  0  0  0  0  0
    1.2960   62.7890   73.5730 O   0  0  0  0  0  0  0  0  0  0  0  0
    0.4540   63.1230   72.4660 C   0  0  2  0  0  0  0  0  0  0  0  0
    0.7420   62.2610   71.3590 O   0  0  0  0  0  0  0  0  0  0  0  0
    1.8340   62.6290   70.5150 C   0  0  2  0  0  0  0  0  0  0  0  0
    3.1790   62.5280   71.2290 C   0  0  0  0  0  0  0  0  0  0  0  0
    1.5990   64.0050   69.8660 C   0  0  0  0  0  0  0  0  0  0  0  0
    0.4620   64.7300   70.5680 C   0  0  1  0  0  0  0  0  0  0  0  0
    0.5960   64.6150   72.0890 C   0  0  1  0  0  0  0  0  0  0  0  0
    0.3260   66.2090   70.1870 N   0  0  0  0  0  4  0  0  0  0  0  0
    1.5920   66.9580   69.9030 C   0  0  0  0  0  0  0  0  0  0  0  0
   -0.7270   66.4600   69.1510 C   0  0  0  0  0  0  0  0  0  0  0  0
   -0.4150   65.4640   72.6550 O   0  0  0  0  0  0  0  0  0  0  0  0
    0.9799   57.5847   79.1320 H   0  0  0  0  0  0  0  0  0  0  0  0
    1.7736   62.8323   78.6083 H   0  0  0  0  0  0  0  0  0  0  0  0
    0.8489   61.9580   80.6737 H   0  0  0  0  0  0  0  0  0  0  0  0
   -0.5179   62.7137   79.7864 H   0  0  0  0  0  0  0  0  0  0  0  0
   -0.3249   60.9278   79.7864 H   0  0  0  0  0  0  0  0  0  0  0  0
   -0.3420   61.4321   76.9859 H   0  0  0  0  0  0  0  0  0  0  0  0
    2.1040   62.1864   76.1955 H   0  0  0  0  0  0  0  0  0  0  0  0
    1.4731   64.6141   76.9799 H   0  0  0  0  0  0  0  0  0  0  0  0
    2.3465   64.3936   75.4258 H   0  0  0  0  0  0  0  0  0  0  0  0
    0.5764   64.6993   75.4258 H   0  0  0  0  0  0  0  0  0  0  0  0
   -0.4713   62.3211   74.6050 H   0  0  0  0  0  0  0  0  0  0  0  0
   -0.0181   60.1843   72.5282 H   0  0  0  0  0  0  0  0  0  0  0  0
    1.8362   60.3899   72.7178 H   0  0  0  0  0  0  0  0  0  0  0  0
    0.2586   58.1624   72.2879 H   0  0  0  0  0  0  0  0  0  0  0  0
    2.9158   57.7275   74.9603 H   0  0  0  0  0  0  0  0  0  0  0  0
    1.0597   58.3950   76.3839 H   0  0  0  0  0  0  0  0  0  0  0  0
    4.4180   58.1659   78.2612 H   0  0  0  0  0  0  0  0  0  0  0  0
    4.3642   57.1932   76.7520 H   0  0  0  0  0  0  0  0  0  0  0  0
    3.7610   58.8852   76.7520 H   0  0  0  0  0  0  0  0  0  0  0  0
    2.6290   55.1750   75.8718 H   0  0  0  0  0  0  0  0  0  0  0  0
    1.7107   55.1010   74.3297 H   0  0  0  0  0  0  0  0  0  0  0  0
    3.4243   55.6398   74.3297 H   0  0  0  0  0  0  0  0  0  0  0  0
    3.2446   57.8842   72.8616 H   0  0  0  0  0  0  0  0  0  0  0  0
    2.2848   57.1925   71.5099 H   0  0  0  0  0  0  0  0  0  0  0  0
    2.7075   58.9384   71.5099 H   0  0  0  0  0  0  0  0  0  0  0  0
   -0.5221   59.9704   76.2016 H   0  0  0  0  0  0  0  0  0  0  0  0
   -1.4260   60.5536   74.7630 H   0  0  0  0  0  0  0  0  0  0  0  0
   -0.7017   58.9098   74.7630 H   0  0  0  0  0  0  0  0  0  0  0  0
    3.1582   57.2119   81.8688 H   0  0  0  0  0  0  0  0  0  0  0  0
    2.5750   56.3117   80.4279 H   0  0  0  0  0  0  0  0  0  0  0  0
    4.2170   57.0401   80.4279 H   0  0  0  0  0  0  0  0  0  0  0  0
    3.4461   59.1337   79.9901 H   0  0  0  0  0  0  0  0  0  0  0  0
    1.9050   58.8363   80.9507 H   0  0  0  0  0  0  0  0  0  0  0  0
    2.6535   56.0790   79.1527 H   0  0  0  0  0  0  0  0  0  0  0  0
    0.3985   56.3175   77.8487 H   0  0  0  0  0  0  0  0  0  0  0  0
    3.8547   60.6472   75.6009 H   0  0  0  0  0  0  0  0  0  0  0  0
    3.5642   59.6309   74.1485 H   0  0  0  0  0  0  0  0  0  0  0  0
    3.0730   61.3587   74.1485 H   0  0  0  0  0  0  0  0  0  0  0  0
   -2.3209   63.3142   78.7319 H   0  0  0  0  0  0  0  0  0  0  0  0
   -3.8199   60.6056   76.7713 H   0  0  0  0  0  0  0  0  0  0  0  0
   -3.4486   61.6743   79.4256 H   0  0  0  0  0  0  0  0  0  0  0  0
   -5.1346   61.8804   78.8409 H   0  0  0  0  0  0  0  0  0  0  0  0
   -4.3767   60.2518   78.8409 H   0  0  0  0  0  0  0  0  0  0  0  0
   -5.5457   62.4257   76.7020 H   0  0  0  0  0  0  0  0  0  0  0  0
   -2.2295   64.1174   75.7610 H   0  0  0  0  0  0  0  0  0  0  0  0
   -2.4407   65.2340   77.1856 H   0  0  0  0  0  0  0  0  0  0  0  0
   -4.3333   64.1866   78.8599 H   0  0  0  0  0  0  0  0  0  0  0  0
   -4.8434   65.6708   77.9861 H   0  0  0  0  0  0  0  0  0  0  0  0
   -5.9024   64.2199   77.9861 H   0  0  0  0  0  0  0  0  0  0  0  0
   -4.9405   66.4380   76.7145 H   0  0  0  0  0  0  0  0  0  0  0  0
   -4.0679   66.6827   75.1636 H   0  0  0  0  0  0  0  0  0  0  0  0
   -5.8468   66.4334   75.1636 H   0  0  0  0  0  0  0  0  0  0  0  0
   -3.4084   61.6592   75.0024 H   0  0  0  0  0  0  0  0  0  0  0  0
   -0.5959   62.9681   72.7553 H   0  0  0  0  0  0  0  0  0  0  0  0
    1.8801   61.8962   69.6959 H   0  0  0  0  0  0  0  0  0  0  0  0
    3.0183   62.5401   72.3171 H   0  0  0  0  0  0  0  0  0  0  0  0
    3.6768   61.5899   70.9423 H   0  0  0  0  0  0  0  0  0  0  0  0
    3.8113   63.3812   70.9423 H   0  0  0  0  0  0  0  0  0  0  0  0
    2.5170   64.6058   69.9458 H   0  0  0  0  0  0  0  0  0  0  0  0
    1.3341   63.8620   68.8080 H   0  0  0  0  0  0  0  0  0  0  0  0
   -0.4518   64.2251   70.2216 H   0  0  0  0  0  0  0  0  0  0  0  0
    1.5695   64.9449   72.4807 H   0  0  0  0  0  0  0  0  0  0  0  0
    0.0027   66.6248   71.0722 H   0  0  0  0  0  0  0  0  0  0  0  0
    2.0711   67.2414   70.8518 H   0  0  0  0  0  0  0  0  0  0  0  0
    2.2746   66.3183   69.3243 H   0  0  0  0  0  0  0  0  0  0  0  0
    1.3599   67.8643   69.3243 H   0  0  0  0  0  0  0  0  0  0  0  0
   -1.6822   66.6877   69.6467 H   0  0  0  0  0  0  0  0  0  0  0  0
   -0.4277   67.3120   68.5229 H   0  0  0  0  0  0  0  0  0  0  0  0
   -0.8442   65.5646   68.5229 H   0  0  0  0  0  0  0  0  0  0  0  0
   -0.3656   65.4225   73.6429 H   0  0  0  0  0  0  0  0  0  0  0  0
  2  1  1  0
  3  2  1  0
  4  3  2  0
  5  3  1  0
  6  5  1  0
  7  5  1  0
  8  7  1  0
  9  8  1  0
 10  8  1  0
 11 10  1  0
 12 11  1  0
 13 12  1  0
 14 13  1  0
 15 14  2  0
 16 14  1  0
 17 16  1  0
 18 17  1  0
 18  1  1  0
 19 18  1  0
 20 16  1  0
 21 13  1  0
 22 11  1  0
 24  1  1  0
 24 23  1  0
 18 25  1  1
 26 17  1  0
 11 27  1  1
 28 27  1  0
 29  7  1  0
 30 29  1  0
 31 30  1  0
 32 31  1  0
 33 32  1  0
 34 32  1  0
 35 34  1  0
 36 35  1  0
 36 30  1  0
 37 35  1  0
 35 38  1  6
 39 38  1  0
 40 34  1  0
 41 10  1  0
 42 41  1  0
 43 42  1  0
 44 43  1  0
 45 44  1  0
 46 44  1  0
 47 46  1  0
 48 42  1  0
 48 47  1  0
 49 47  1  0
 50 49  1  0
 51 49  1  0
 52 48  1  0
  1 53  1  1
  5 54  1  1
  6 55  1  0
  6 56  1  0
  6 57  1  0
  7 58  1  6
  8 59  1  1
  9 60  1  0
  9 61  1  0
  9 62  1  0
 10 63  1  6
 12 64  1  0
 12 65  1  0
 13 66  1  6
 16 67  1  6
 17 68  1  6
 19 69  1  0
 19 70  1  0
 19 71  1  0
 20 72  1  0
 20 73  1  0
 20 74  1  0
 21 75  1  0
 21 76  1  0
 21 77  1  0
 22 78  1  0
 22 79  1  0
 22 80  1  0
 23 81  1  0
 23 82  1  0
 23 83  1  0
 24 84  1  0
 24 85  1  0
 25 86  1  0
 26 87  1  0
 28 88  1  0
 28 89  1  0
 28 90  1  0
 30 91  1  1
 32 92  1  6
 33 93  1  0
 33 94  1  0
 33 95  1  0
 34 96  1  6
 36 97  1  0
 36 98  1  0
 37 99  1  0
 37100  1  0
 37101  1  0
 39102  1  0
 39103  1  0
 39104  1  0
 40105  1  0
 42106  1  1
 44107  1  6
 45108  1  0
 45109  1  0
 45110  1  0
 46111  1  0
 46112  1  0
 47113  1  6
 48114  1  1
 49115  1  0
 50116  1  0
 50117  1  0
 50118  1  0
 51119  1  0
 51120  1  0
 51121  1  0
 52122  1  0
M  CHG  1  49   1
M  END
>  <score>  (3) 
-6.343

$$$$
=
     RDKit          3D

122124  0  0  0  0  0  0  0  0999 V2000
    2.8850   60.6750   74.0350 C   0  0  1  0  0  0  0  0  0  0  0  0
    1.5390   61.1720   74.3750 O   0  0  0  0  0  0  0  0  0  0  0  0
    0.5120   61.1370   73.4840 C   0  0  0  0  0  0  0  0  0  0  0  0
    0.4820   60.4510   72.4710 O   0  0  0  0  0  0  0  0  0  0  0  0
   -0.6000   62.1290   73.8290 C   0  0  2  0  0  0  0  0  0  0  0  0
    0.0210   63.5140   74.0600 C   0  0  0  0  0  0  0  0  0  0  0  0
   -1.5130   61.6930   75.0030 C   0  0  2  0  0  0  0  0  0  0  0  0
   -2.3650   60.4250   74.6660 C   0  0  2  0  0  0  0  0  0  0  0  0
   -3.7310   60.8080   74.0670 C   0  0  0  0  0  0  0  0  0  0  0  0
   -2.5100   59.4080   75.8710 C   0  0  2  0  0  0  0  0  0  0  0  0
   -1.1520   58.6370   76.2390 C   0  0  2  0  0  0  0  0  0  0  0  0
   -1.2760   57.2230   76.8760 C   0  0  0  0  0  0  0  0  0  0  0  0
    0.0260   56.3820   77.1550 C   0  0  2  0  0  0  0  0  0  0  0  0
    1.4230   57.0390   77.0970 C   0  0  0  0  0  0  0  0  0  0  0  0
    1.9220   57.4890   78.1410 O   0  0  0  0  0  0  0  0  0  0  0  0
    2.2180   57.1560   75.7910 C   0  0  1  0  0  0  0  0  0  0  0  0
    2.5910   58.6500   75.5940 C   0  0  2  0  0  0  0  0  0  0  0  0
    3.1070   59.1170   74.1920 C   0  0  1  0  0  0  0  0  0  0  0  0
    2.5580   58.3120   73.0180 C   0  0  0  0  0  0  0  0  0  0  0  0
    3.4300   56.2300   75.8690 C   0  0  0  0  0  0  0  0  0  0  0  0
    0.0150   55.0220   76.4500 C   0  0  0  0  0  0  0  0  0  0  0  0
   -0.4260   59.5440   77.2700 C   0  0  0  0  0  0  0  0  0  0  0  0
    4.8780   61.4670   72.5830 C   0  0  0  0  0  0  0  0  0  0  0  0
    3.3700   61.3390   72.7230 C   0  0  0  0  0  0  0  0  0  0  0  0
    4.5310   58.8560   74.1890 O   0  0  0  0  0  0  0  0  0  0  0  0
    3.5920   59.0530   76.5610 O   0  0  0  0  0  0  0  0  0  0  0  0
   -0.3590   58.4950   75.0460 O   0  0  0  0  0  0  0  0  0  0  0  0
   -0.8560   57.5700   74.0640 C   0  0  0  0  0  0  0  0  0  0  0  0
   -2.4220   62.7800   75.2670 O   0  0  0  0  0  0  0  0  0  0  0  0
   -2.3800   63.3200   76.5880 C   0  0  2  0  0  0  0  0  0  0  0  0
   -2.2190   62.2740   77.5430 O   0  0  0  0  0  0  0  0  0  0  0  0
   -2.2530   62.7130   78.9130 C   0  0  1  0  0  0  0  0  0  0  0  0
   -0.9460   63.3880   79.3210 C   0  0  0  0  0  0  0  0  0  0  0  0
   -3.5340   63.5040   79.2280 C   0  0  1  0  0  0  0  0  0  0  0  0
   -3.8960   64.6020   78.1900 C   0  0  2  0  0  0  0  0  0  0  0  0
   -3.7210   64.0250   76.7810 C   0  0  0  0  0  0  0  0  0  0  0  0
   -3.0620   65.8730   78.4030 C   0  0  0  0  0  0  0  0  0  0  0  0
   -5.2980   64.8870   78.4560 O   0  0  0  0  0  0  0  0  0  0  0  0
   -6.1400   65.1100   77.3300 C   0  0  0  0  0  0  0  0  0  0  0  0
   -4.6250   62.5440   79.2390 O   0  0  0  0  0  0  0  0  0  0  0  0
   -3.5660   58.4740   75.5670 O   0  0  0  0  0  0  0  0  0  0  0  0
   -4.4440   58.2120   76.6650 C   0  0  2  0  0  0  0  0  0  0  0  0
   -5.4930   57.3300   76.2500 O   0  0  0  0  0  0  0  0  0  0  0  0
   -6.6250   57.9200   75.6110 C   0  0  2  0  0  0  0  0  0  0  0  0
   -6.2800   58.5110   74.2470 C   0  0  0  0  0  0  0  0  0  0  0  0
   -7.3290   58.9250   76.5410 C   0  0  0  0  0  0  0  0  0  0  0  0
   -6.4330   59.2650   77.7220 C   0  0  1  0  0  0  0  0  0  0  0  0
   -4.9970   59.5260   77.2620 C   0  0  1  0  0  0  0  0  0  0  0  0
   -6.9170   60.4550   78.5580 N   0  0  0  0  0  4  0  0  0  0  0  0
   -7.7100   61.5100   77.8470 C   0  0  0  0  0  0  0  0  0  0  0  0
   -7.5450   60.0520   79.8570 C   0  0  0  0  0  0  0  0  0  0  0  0
   -4.2780   59.9990   78.4120 O   0  0  0  0  0  0  0  0  0  0  0  0
    3.5810   61.0073   74.8193 H   0  0  0  0  0  0  0  0  0  0  0  0
   -1.2841   62.1640   72.9683 H   0  0  0  0  0  0  0  0  0  0  0  0
    0.1055   63.7024   75.1405 H   0  0  0  0  0  0  0  0  0  0  0  0
    1.0208   63.5485   73.6025 H   0  0  0  0  0  0  0  0  0  0  0  0
   -0.6183   64.2834   73.6025 H   0  0  0  0  0  0  0  0  0  0  0  0
   -0.8739   61.4478   75.8641 H   0  0  0  0  0  0  0  0  0  0  0  0
   -1.7974   59.8796   73.8977 H   0  0  0  0  0  0  0  0  0  0  0  0
   -4.4447   61.0081   74.8798 H   0  0  0  0  0  0  0  0  0  0  0  0
   -3.6196   61.7095   73.4467 H   0  0  0  0  0  0  0  0  0  0  0  0
   -4.1045   59.9799   73.4467 H   0  0  0  0  0  0  0  0  0  0  0  0
   -2.7585   59.9948   76.7676 H   0  0  0  0  0  0  0  0  0  0  0  0
   -1.7876   57.3506   77.8414 H   0  0  0  0  0  0  0  0  0  0  0  0
   -1.8019   56.6381   76.1070 H   0  0  0  0  0  0  0  0  0  0  0  0
   -0.0875   56.2667   78.2430 H   0  0  0  0  0  0  0  0  0  0  0  0
    1.6351   56.8396   74.9135 H   0  0  0  0  0  0  0  0  0  0  0  0
    1.6116   59.1344   75.7213 H   0  0  0  0  0  0  0  0  0  0  0  0
    1.9764   57.4592   73.3982 H   0  0  0  0  0  0  0  0  0  0  0  0
    1.9089   58.9542   72.4047 H   0  0  0  0  0  0  0  0  0  0  0  0
    3.3929   57.9421   72.4047 H   0  0  0  0  0  0  0  0  0  0  0  0
    3.6789   56.0398   76.9235 H   0  0  0  0  0  0  0  0  0  0  0  0
    3.1968   55.2779   75.3699 H   0  0  0  0  0  0  0  0  0  0  0  0
    4.2873   56.7053   75.3699 H   0  0  0  0  0  0  0  0  0  0  0  0
    0.0085   54.2192   77.2020 H   0  0  0  0  0  0  0  0  0  0  0  0
   -0.8838   54.9424   75.8209 H   0  0  0  0  0  0  0  0  0  0  0  0
    0.9124   54.9278   75.8209 H   0  0  0  0  0  0  0  0  0  0  0  0
   -0.6848   59.2207   78.2891 H   0  0  0  0  0  0  0  0  0  0  0  0
    0.6616   59.4656   77.1255 H   0  0  0  0  0  0  0  0  0  0  0  0
   -0.7407   60.5881   77.1255 H   0  0  0  0  0  0  0  0  0  0  0  0
    5.3370   61.5060   73.5819 H   0  0  0  0  0  0  0  0  0  0  0  0
    5.2702   60.5989   72.0329 H   0  0  0  0  0  0  0  0  0  0  0  0
    5.1182   62.3888   72.0329 H   0  0  0  0  0  0  0  0  0  0  0  0
    2.9995   60.7376   71.8798 H   0  0  0  0  0  0  0  0  0  0  0  0
    2.9758   62.3659   72.7361 H   0  0  0  0  0  0  0  0  0  0  0  0
    4.8575   58.7962   75.1217 H   0  0  0  0  0  0  0  0  0  0  0  0
    3.2421   58.9121   77.4763 H   0  0  0  0  0  0  0  0  0  0  0  0
   -1.3180   56.7101   74.5710 H   0  0  0  0  0  0  0  0  0  0  0  0
   -1.6063   58.0712   73.4348 H   0  0  0  0  0  0  0  0  0  0  0  0
   -0.0239   57.2210   73.4348 H   0  0  0  0  0  0  0  0  0  0  0  0
   -1.5355   64.0113   76.7251 H   0  0  0  0  0  0  0  0  0  0  0  0
   -2.3168   61.8289   79.5644 H   0  0  0  0  0  0  0  0  0  0  0  0
   -0.8783   63.4229   80.4184 H   0  0  0  0  0  0  0  0  0  0  0  0
   -0.0968   62.8157   78.9193 H   0  0  0  0  0  0  0  0  0  0  0  0
   -0.9211   64.4117   78.9193 H   0  0  0  0  0  0  0  0  0  0  0  0
   -3.3673   64.0214   80.1843 H   0  0  0  0  0  0  0  0  0  0  0  0
   -4.5278   63.3006   76.5960 H   0  0  0  0  0  0  0  0  0  0  0  0
   -3.7554   64.8668   76.0737 H   0  0  0  0  0  0  0  0  0  0  0  0
   -2.9417   66.0563   79.4809 H   0  0  0  0  0  0  0  0  0  0  0  0
   -2.0724   65.7440   77.9403 H   0  0  0  0  0  0  0  0  0  0  0  0
   -3.5742   66.7295   77.9403 H   0  0  0  0  0  0  0  0  0  0  0  0
   -7.1498   65.3775   77.6745 H   0  0  0  0  0  0  0  0  0  0  0  0
   -5.7304   65.9306   76.7227 H   0  0  0  0  0  0  0  0  0  0  0  0
   -6.1903   64.1942   76.7227 H   0  0  0  0  0  0  0  0  0  0  0  0
   -4.8674   62.3307   80.1749 H   0  0  0  0  0  0  0  0  0  0  0  0
   -3.8762   57.7145   77.4651 H   0  0  0  0  0  0  0  0  0  0  0  0
   -7.3467   57.1150   75.4082 H   0  0  0  0  0  0  0  0  0  0  0  0
   -5.7298   59.4535   74.3843 H   0  0  0  0  0  0  0  0  0  0  0  0
   -5.6551   57.7999   73.6867 H   0  0  0  0  0  0  0  0  0  0  0  0
   -7.2064   58.7055   73.6867 H   0  0  0  0  0  0  0  0  0  0  0  0
   -7.5540   59.8437   75.9794 H   0  0  0  0  0  0  0  0  0  0  0  0
   -8.2607   58.4757   76.9152 H   0  0  0  0  0  0  0  0  0  0  0  0
   -6.4740   58.3793   78.3730 H   0  0  0  0  0  0  0  0  0  0  0  0
   -4.9088   60.2882   76.4738 H   0  0  0  0  0  0  0  0  0  0  0  0
   -6.0306   60.9339   78.7719 H   0  0  0  0  0  0  0  0  0  0  0  0
   -8.1995   62.1612   78.5861 H   0  0  0  0  0  0  0  0  0  0  0  0
   -7.0382   62.1111   77.2166 H   0  0  0  0  0  0  0  0  0  0  0  0
   -8.4741   61.0318   77.2166 H   0  0  0  0  0  0  0  0  0  0  0  0
   -6.9419   60.4390   80.6915 H   0  0  0  0  0  0  0  0  0  0  0  0
   -8.5622   60.4664   79.9167 H   0  0  0  0  0  0  0  0  0  0  0  0
   -7.5921   58.9546   79.9167 H   0  0  0  0  0  0  0  0  0  0  0  0
   -4.7371   59.6970   79.2355 H   0  0  0  0  0  0  0  0  0  0  0  0
  2  1  1  0
  3  2  1  0
  4  3  2  0
  5  3  1  0
  6  5  1  0
  7  5  1  0
  8  7  1  0
  9  8  1  0
 10  8  1  0
 11 10  1  0
 12 11  1  0
 13 12  1  0
 14 13  1  0
 15 14  2  0
 16 14  1  0
 17 16  1  0
 18 17  1  0
 18  1  1  0
 19 18  1  0
 20 16  1  0
 21 13  1  0
 22 11  1  0
 24  1  1  0
 24 23  1  0
 18 25  1  1
 26 17  1  0
 11 27  1  6
 28 27  1  0
 29  7  1  0
 30 29  1  0
 31 30  1  0
 32 31  1  0
 33 32  1  0
 34 32  1  0
 35 34  1  0
 36 35  1  0
 36 30  1  0
 37 35  1  0
 35 38  1  1
 39 38  1  0
 40 34  1  0
 41 10  1  0
 42 41  1  0
 43 42  1  0
 44 43  1  0
 45 44  1  0
 46 44  1  0
 47 46  1  0
 48 42  1  0
 48 47  1  0
 49 47  1  0
 50 49  1  0
 51 49  1  0
 52 48  1  0
  1 53  1  1
  5 54  1  6
  6 55  1  0
  6 56  1  0
  6 57  1  0
  7 58  1  1
  8 59  1  6
  9 60  1  0
  9 61  1  0
  9 62  1  0
 10 63  1  1
 12 64  1  0
 12 65  1  0
 13 66  1  1
 16 67  1  6
 17 68  1  1
 19 69  1  0
 19 70  1  0
 19 71  1  0
 20 72  1  0
 20 73  1  0
 20 74  1  0
 21 75  1  0
 21 76  1  0
 21 77  1  0
 22 78  1  0
 22 79  1  0
 22 80  1  0
 23 81  1  0
 23 82  1  0
 23 83  1  0
 24 84  1  0
 24 85  1  0
 25 86  1  0
 26 87  1  0
 28 88  1  0
 28 89  1  0
 28 90  1  0
 30 91  1  6
 32 92  1  1
 33 93  1  0
 33 94  1  0
 33 95  1  0
 34 96  1  1
 36 97  1  0
 36 98  1  0
 37 99  1  0
 37100  1  0
 37101  1  0
 39102  1  0
 39103  1  0
 39104  1  0
 40105  1  0
 42106  1  1
 44107  1  6
 45108  1  0
 45109  1  0
 45110  1  0
 46111  1  0
 46112  1  0
 47113  1  1
 48114  1  6
 49115  1  0
 50116  1  0
 50117  1  0
 50118  1  0
 51119  1  0
 51120  1  0
 51121  1  0
 52122  1  0
M  CHG  1  49   1
M  END
>  <score>  (4) 
-6.083

$$$$
=
     RDKit          3D

122124  0  0  0  0  0  0  0  0999 V2000
    0.6820   56.8540   75.6010 C   0  0  1  0  0  0  0  0  0  0  0  0
   -0.5690   57.4080   76.1510 O   0  0  0  0  0  0  0  0  0  0  0  0
   -0.6690   57.8120   77.4460 C   0  0  0  0  0  0  0  0  0  0  0  0
    0.2780   58.0500   78.1840 O   0  0  0  0  0  0  0  0  0  0  0  0
   -2.1170   57.8580   77.9380 C   0  0  2  0  0  0  0  0  0  0  0  0
   -2.7970   56.5210   77.6140 C   0  0  0  0  0  0  0  0  0  0  0  0
   -2.9350   59.0710   77.4250 C   0  0  2  0  0  0  0  0  0  0  0  0
   -2.4070   60.4330   77.9830 C   0  0  2  0  0  0  0  0  0  0  0  0
   -3.1190   60.8190   79.2930 C   0  0  0  0  0  0  0  0  0  0  0  0
   -2.4290   61.6130   76.9270 C   0  0  2  0  0  0  0  0  0  0  0  0
   -1.3500   61.4540   75.7510 C   0  0  2  0  0  0  0  0  0  0  0  0
   -0.8120   62.7540   75.0850 C   0  0  0  0  0  0  0  0  0  0  0  0
    0.3270   62.6570   74.0020 C   0  0  2  0  0  0  0  0  0  0  0  0
    0.7040   61.2990   73.3690 C   0  0  0  0  0  0  0  0  0  0  0  0
    0.1600   60.9550   72.3080 O   0  0  0  0  0  0  0  0  0  0  0  0
    1.7330   60.3560   74.0060 C   0  0  1  0  0  0  0  0  0  0  0  0
    1.0590   58.9690   74.1860 C   0  0  2  0  0  0  0  0  0  0  0  0
    1.7490   57.9130   75.1110 C   0  0  1  0  0  0  0  0  0  0  0  0
    2.5660   58.5120   76.2520 C   0  0  0  0  0  0  0  0  0  0  0  0
    2.9790   60.3190   73.1240 C   0  0  0  0  0  0  0  0  0  0  0  0
    1.5710   63.4670   74.3760 C   0  0  0  0  0  0  0  0  0  0  0  0
   -2.0620   60.6310   74.6420 C   0  0  0  0  0  0  0  0  0  0  0  0
    0.3920   54.4020   76.3810 C   0  0  0  0  0  0  0  0  0  0  0  0
    1.1800   55.6960   76.4990 C   0  0  0  0  0  0  0  0  0  0  0  0
    2.7180   57.2320   74.2770 O   0  0  0  0  0  0  0  0  0  0  0  0
    0.8640   58.3320   72.9000 O   0  0  0  0  0  0  0  0  0  0  0  0
   -0.2100   60.7360   76.2580 O   0  0  0  0  0  0  0  0  0  0  0  0
    0.5910   61.4300   77.2300 C   0  0  0  0  0  0  0  0  0  0  0  0
   -4.2900   58.9000   77.8840 O   0  0  0  0  0  0  0  0  0  0  0  0
   -5.2940   58.8860   76.8680 C   0  0  2  0  0  0  0  0  0  0  0  0
   -4.7000   58.6560   75.5930 O   0  0  0  0  0  0  0  0  0  0  0  0
   -5.6250   58.7130   74.4910 C   0  0  1  0  0  0  0  0  0  0  0  0
   -6.4770   57.4490   74.4060 C   0  0  0  0  0  0  0  0  0  0  0  0
   -6.4040   60.0390   74.4660 C   0  0  1  0  0  0  0  0  0  0  0  0
   -7.0020   60.4730   75.8320 C   0  0  2  0  0  0  0  0  0  0  0  0
   -5.9430   60.2680   76.9210 C   0  0  0  0  0  0  0  0  0  0  0  0
   -8.3020   59.7190   76.1400 C   0  0  0  0  0  0  0  0  0  0  0  0
   -7.2870   61.8890   75.6550 O   0  0  0  0  0  0  0  0  0  0  0  0
   -8.5560   62.2320   75.1080 C   0  0  0  0  0  0  0  0  0  0  0  0
   -5.4600   61.0680   74.0610 O   0  0  0  0  0  0  0  0  0  0  0  0
   -2.2510   62.8630   77.6230 O   0  0  0  0  0  0  0  0  0  0  0  0
   -2.8830   63.9780   76.9870 C   0  0  2  0  0  0  0  0  0  0  0  0
   -2.6160   65.1760   77.7250 O   0  0  0  0  0  0  0  0  0  0  0  0
   -3.4640   65.4550   78.8400 C   0  0  2  0  0  0  0  0  0  0  0  0
   -3.2810   64.4510   79.9750 C   0  0  0  0  0  0  0  0  0  0  0  0
   -4.9320   65.6070   78.4010 C   0  0  0  0  0  0  0  0  0  0  0  0
   -5.1150   65.0750   76.9880 C   0  0  1  0  0  0  0  0  0  0  0  0
   -4.4000   63.7330   76.8120 C   0  0  1  0  0  0  0  0  0  0  0  0
   -6.5790   64.9230   76.5580 N   0  0  0  0  0  4  0  0  0  0  0  0
   -7.5960   64.7600   77.6450 C   0  0  0  0  0  0  0  0  0  0  0  0
   -7.0020   65.9290   75.5310 C   0  0  0  0  0  0  0  0  0  0  0  0
   -4.7710   63.2380   75.5160 O   0  0  0  0  0  0  0  0  0  0  0  0
    0.4568   56.4024   74.6236 H   0  0  0  0  0  0  0  0  0  0  0  0
   -2.0863   58.0080   79.0273 H   0  0  0  0  0  0  0  0  0  0  0  0
   -3.0587   56.0064   78.5503 H   0  0  0  0  0  0  0  0  0  0  0  0
   -3.7104   56.7063   77.0297 H   0  0  0  0  0  0  0  0  0  0  0  0
   -2.1093   55.8920   77.0297 H   0  0  0  0  0  0  0  0  0  0  0  0
   -2.8531   59.1038   76.3285 H   0  0  0  0  0  0  0  0  0  0  0  0
   -1.3430   60.2699   78.2093 H   0  0  0  0  0  0  0  0  0  0  0  0
   -2.5130   60.4905   80.1502 H   0  0  0  0  0  0  0  0  0  0  0  0
   -3.2482   61.9107   79.3322 H   0  0  0  0  0  0  0  0  0  0  0  0
   -4.1043   60.3315   79.3322 H   0  0  0  0  0  0  0  0  0  0  0  0
   -3.4070   61.5855   76.4243 H   0  0  0  0  0  0  0  0  0  0  0  0
   -1.6702   63.2454   74.6034 H   0  0  0  0  0  0  0  0  0  0  0  0
   -0.3321   63.2905   75.9168 H   0  0  0  0  0  0  0  0  0  0  0  0
   -0.2095   63.1210   73.1612 H   0  0  0  0  0  0  0  0  0  0  0  0
    2.0600   60.6990   74.9987 H   0  0  0  0  0  0  0  0  0  0  0  0
    0.1293   59.2471   74.7039 H   0  0  0  0  0  0  0  0  0  0  0  0
    2.1369   58.1974   77.2148 H   0  0  0  0  0  0  0  0  0  0  0  0
    3.6061   58.1609   76.1819 H   0  0  0  0  0  0  0  0  0  0  0  0
    2.5440   59.6095   76.1819 H   0  0  0  0  0  0  0  0  0  0  0  0
    3.8769   60.2923   73.7588 H   0  0  0  0  0  0  0  0  0  0  0  0
    2.9522   59.4213   72.4889 H   0  0  0  0  0  0  0  0  0  0  0  0
    3.0055   61.2168   72.4889 H   0  0  0  0  0  0  0  0  0  0  0  0
    1.6566   63.5228   75.4712 H   0  0  0  0  0  0  0  0  0  0  0  0
    2.4652   62.9775   73.9627 H   0  0  0  0  0  0  0  0  0  0  0  0
    1.4851   64.4828   73.9627 H   0  0  0  0  0  0  0  0  0  0  0  0
   -2.7143   59.8770   75.1067 H   0  0  0  0  0  0  0  0  0  0  0  0
   -2.6671   61.3043   74.0171 H   0  0  0  0  0  0  0  0  0  0  0  0
   -1.3086   60.1291   74.0171 H   0  0  0  0  0  0  0  0  0  0  0  0
    0.1600   54.0210   77.3865 H   0  0  0  0  0  0  0  0  0  0  0  0
   -0.5443   54.5913   75.8355 H   0  0  0  0  0  0  0  0  0  0  0  0
    0.9899   53.6570   75.8355 H   0  0  0  0  0  0  0  0  0  0  0  0
    2.2257   55.4834   76.2318 H   0  0  0  0  0  0  0  0  0  0  0  0
    1.0529   56.0377   77.5368 H   0  0  0  0  0  0  0  0  0  0  0  0
    3.3784   56.7679   74.8502 H   0  0  0  0  0  0  0  0  0  0  0  0
    0.5770   57.3944   73.0363 H   0  0  0  0  0  0  0  0  0  0  0  0
    0.2654   61.1479   78.2422 H   0  0  0  0  0  0  0  0  0  0  0  0
    1.6483   61.1577   77.0957 H   0  0  0  0  0  0  0  0  0  0  0  0
    0.4720   62.5153   77.0957 H   0  0  0  0  0  0  0  0  0  0  0  0
   -6.0322   58.0859   77.0259 H   0  0  0  0  0  0  0  0  0  0  0  0
   -5.0530   58.7203   73.5514 H   0  0  0  0  0  0  0  0  0  0  0  0
   -6.7139   57.0976   75.4211 H   0  0  0  0  0  0  0  0  0  0  0  0
   -7.4102   57.6714   73.8678 H   0  0  0  0  0  0  0  0  0  0  0  0
   -5.9207   56.6674   73.8678 H   0  0  0  0  0  0  0  0  0  0  0  0
   -7.2558   59.9008   73.7838 H   0  0  0  0  0  0  0  0  0  0  0  0
   -5.1587   61.0289   76.7952 H   0  0  0  0  0  0  0  0  0  0  0  0
   -6.4488   60.3575   77.8937 H   0  0  0  0  0  0  0  0  0  0  0  0
   -8.4326   59.6433   77.2296 H   0  0  0  0  0  0  0  0  0  0  0  0
   -9.1534   60.2635   75.7056 H   0  0  0  0  0  0  0  0  0  0  0  0
   -8.2522   58.7096   75.7056 H   0  0  0  0  0  0  0  0  0  0  0  0
   -9.2674   62.4243   75.9246 H   0  0  0  0  0  0  0  0  0  0  0  0
   -8.4561   63.1354   74.4884 H   0  0  0  0  0  0  0  0  0  0  0  0
   -8.9248   61.4013   74.4884 H   0  0  0  0  0  0  0  0  0  0  0  0
   -5.0700   61.4931   74.8655 H   0  0  0  0  0  0  0  0  0  0  0  0
   -2.4625   64.0987   75.9777 H   0  0  0  0  0  0  0  0  0  0  0  0
   -3.1553   66.4260   79.2546 H   0  0  0  0  0  0  0  0  0  0  0  0
   -3.3753   64.9685   80.9411 H   0  0  0  0  0  0  0  0  0  0  0  0
   -4.0515   63.6694   79.9009 H   0  0  0  0  0  0  0  0  0  0  0  0
   -2.2843   63.9915   79.9009 H   0  0  0  0  0  0  0  0  0  0  0  0
   -5.5775   65.0411   79.0888 H   0  0  0  0  0  0  0  0  0  0  0  0
   -5.2045   66.6725   78.4216 H   0  0  0  0  0  0  0  0  0  0  0  0
   -4.6665   65.8394   76.3364 H   0  0  0  0  0  0  0  0  0  0  0  0
   -4.6814   62.9723   77.5550 H   0  0  0  0  0  0  0  0  0  0  0  0
   -6.5697   63.9964   76.1084 H   0  0  0  0  0  0  0  0  0  0  0  0
   -7.1017   64.8392   78.6245 H   0  0  0  0  0  0  0  0  0  0  0  0
   -8.3588   65.5473   77.5545 H   0  0  0  0  0  0  0  0  0  0  0  0
   -8.0745   63.7737   77.5545 H   0  0  0  0  0  0  0  0  0  0  0  0
   -7.3810   66.8303   76.0350 H   0  0  0  0  0  0  0  0  0  0  0  0
   -6.1398   66.1957   74.9021 H   0  0  0  0  0  0  0  0  0  0  0  0
   -7.7957   65.4994   74.9021 H   0  0  0  0  0  0  0  0  0  0  0  0
   -5.3614   62.4502   75.6203 H   0  0  0  0  0  0  0  0  0  0  0  0
  2  1  1  0
  3  2  1  0
  4  3  2  0
  5  3  1  0
  6  5  1  0
  7  5  1  0
  8  7  1  0
  9  8  1  0
 10  8  1  0
 11 10  1  0
 12 11  1  0
 13 12  1  0
 14 13  1  0
 15 14  2  0
 16 14  1  0
 17 16  1  0
 18 17  1  0
 18  1  1  0
 19 18  1  0
 20 16  1  0
 21 13  1  0
 22 11  1  0
 24  1  1  0
 24 23  1  0
 18 25  1  6
 26 17  1  0
 11 27  1  1
 28 27  1  0
 29  7  1  0
 30 29  1  0
 31 30  1  0
 32 31  1  0
 33 32  1  0
 34 32  1  0
 35 34  1  0
 36 35  1  0
 36 30  1  0
 37 35  1  0
 35 38  1  6
 39 38  1  0
 40 34  1  0
 41 10  1  0
 42 41  1  0
 43 42  1  0
 44 43  1  0
 45 44  1  0
 46 44  1  0
 47 46  1  0
 48 42  1  0
 48 47  1  0
 49 47  1  0
 50 49  1  0
 51 49  1  0
 52 48  1  0
  1 53  1  6
  5 54  1  1
  6 55  1  0
  6 56  1  0
  6 57  1  0
  7 58  1  6
  8 59  1  1
  9 60  1  0
  9 61  1  0
  9 62  1  0
 10 63  1  6
 12 64  1  0
 12 65  1  0
 13 66  1  6
 16 67  1  1
 17 68  1  1
 19 69  1  0
 19 70  1  0
 19 71  1  0
 20 72  1  0
 20 73  1  0
 20 74  1  0
 21 75  1  0
 21 76  1  0
 21 77  1  0
 22 78  1  0
 22 79  1  0
 22 80  1  0
 23 81  1  0
 23 82  1  0
 23 83  1  0
 24 84  1  0
 24 85  1  0
 25 86  1  0
 26 87  1  0
 28 88  1  0
 28 89  1  0
 28 90  1  0
 30 91  1  1
 32 92  1  6
 33 93  1  0
 33 94  1  0
 33 95  1  0
 34 96  1  6
 36 97  1  0
 36 98  1  0
 37 99  1  0
 37100  1  0
 37101  1  0
 39102  1  0
 39103  1  0
 39104  1  0
 40105  1  0
 42106  1  6
 44107  1  1
 45108  1  0
 45109  1  0
 45110  1  0
 46111  1  0
 46112  1  0
 47113  1  6
 48114  1  1
 49115  1  0
 50116  1  0
 50117  1  0
 50118  1  0
 51119  1  0
 51120  1  0
 51121  1  0
 52122  1  0
M  CHG  1  49   1
M  END
>  <score>  (5) 
-6.027

$$$$
=
     RDKit          3D

122124  0  0  0  0  0  0  0  0999 V2000
    2.9170   60.7250   74.0280 C   0  0  1  0  0  0  0  0  0  0  0  0
    1.5880   61.2280   74.4250 O   0  0  0  0  0  0  0  0  0  0  0  0
    0.5430   61.2630   73.5550 C   0  0  0  0  0  0  0  0  0  0  0  0
    0.4780   60.6360   72.5070 O   0  0  0  0  0  0  0  0  0  0  0  0
   -0.5410   62.2560   73.9790 C   0  0  2  0  0  0  0  0  0  0  0  0
    0.1130   63.6140   74.2730 C   0  0  0  0  0  0  0  0  0  0  0  0
   -1.4390   61.7730   75.1470 C   0  0  2  0  0  0  0  0  0  0  0  0
   -2.3230   60.5430   74.7580 C   0  0  2  0  0  0  0  0  0  0  0  0
   -3.6940   60.9860   74.2100 C   0  0  0  0  0  0  0  0  0  0  0  0
   -2.4650   59.4620   75.9070 C   0  0  2  0  0  0  0  0  0  0  0  0
   -1.1160   58.6460   76.2020 C   0  0  2  0  0  0  0  0  0  0  0  0
   -1.2560   57.2010   76.7620 C   0  0  0  0  0  0  0  0  0  0  0  0
    0.0320   56.3200   76.9650 C   0  0  2  0  0  0  0  0  0  0  0  0
    1.4410   56.9530   76.9140 C   0  0  0  0  0  0  0  0  0  0  0  0
    1.9710   57.3330   77.9700 O   0  0  0  0  0  0  0  0  0  0  0  0
    2.2130   57.1270   75.5990 C   0  0  1  0  0  0  0  0  0  0  0  0
    2.6120   58.6220   75.4780 C   0  0  2  0  0  0  0  0  0  0  0  0
    3.1090   59.1560   74.0940 C   0  0  1  0  0  0  0  0  0  0  0  0
    2.5200   58.4290   72.8890 C   0  0  0  0  0  0  0  0  0  0  0  0
    3.4070   56.1740   75.6000 C   0  0  0  0  0  0  0  0  0  0  0  0
   -0.0200   55.0030   76.1860 C   0  0  0  0  0  0  0  0  0  0  0  0
   -0.3510   59.4790   77.2660 C   0  0  0  0  0  0  0  0  0  0  0  0
    4.8940   61.4900   72.5410 C   0  0  0  0  0  0  0  0  0  0  0  0
    3.3890   61.4520   72.7460 C   0  0  0  0  0  0  0  0  0  0  0  0
    4.5270   58.8680   74.0460 O   0  0  0  0  0  0  0  0  0  0  0  0
    3.6400   58.9500   76.4440 O   0  0  0  0  0  0  0  0  0  0  0  0
   -0.3510   58.5560   74.9860 O   0  0  0  0  0  0  0  0  0  0  0  0
   -0.8670   57.6670   73.9800 C   0  0  0  0  0  0  0  0  0  0  0  0
   -2.3200   62.8610   75.4900 O   0  0  0  0  0  0  0  0  0  0  0  0
   -2.7200   62.9300   76.8590 C   0  0  2  0  0  0  0  0  0  0  0  0
   -3.6490   63.9940   77.0470 O   0  0  0  0  0  0  0  0  0  0  0  0
   -4.0450   64.1990   78.4160 C   0  0  1  0  0  0  0  0  0  0  0  0
   -5.0460   63.1440   78.8770 C   0  0  0  0  0  0  0  0  0  0  0  0
   -2.8300   64.4080   79.3360 C   0  0  1  0  0  0  0  0  0  0  0  0
   -1.6800   63.3810   79.1450 C   0  0  2  0  0  0  0  0  0  0  0  0
   -1.4350   63.1900   77.6440 C   0  0  0  0  0  0  0  0  0  0  0  0
   -1.9870   62.0560   79.8540 C   0  0  0  0  0  0  0  0  0  0  0  0
   -0.5340   64.0190   79.7730 O   0  0  0  0  0  0  0  0  0  0  0  0
    0.7540   63.6860   79.2640 C   0  0  0  0  0  0  0  0  0  0  0  0
   -2.2930   65.7220   79.0250 O   0  0  0  0  0  0  0  0  0  0  0  0
   -3.5460   58.5690   75.5740 O   0  0  0  0  0  0  0  0  0  0  0  0
   -4.3840   58.2320   76.6830 C   0  0  2  0  0  0  0  0  0  0  0  0
   -5.3390   57.2400   76.2880 O   0  0  0  0  0  0  0  0  0  0  0  0
   -6.5310   57.7000   75.6510 C   0  0  2  0  0  0  0  0  0  0  0  0
   -6.2590   58.3050   74.2760 C   0  0  0  0  0  0  0  0  0  0  0  0
   -7.3290   58.6400   76.5750 C   0  0  0  0  0  0  0  0  0  0  0  0
   -6.4650   59.0860   77.7440 C   0  0  1  0  0  0  0  0  0  0  0  0
   -5.0660   59.4890   77.2680 C   0  0  1  0  0  0  0  0  0  0  0  0
   -7.0640   60.2310   78.5680 N   0  0  0  0  0  4  0  0  0  0  0  0
   -8.0450   61.1280   77.8770 C   0  0  0  0  0  0  0  0  0  0  0  0
   -7.5420   59.8010   79.9210 C   0  0  0  0  0  0  0  0  0  0  0  0
   -4.3920   60.0500   78.4050 O   0  0  0  0  0  0  0  0  0  0  0  0
    3.6367   60.9996   74.8133 H   0  0  0  0  0  0  0  0  0  0  0  0
   -1.2416   62.3522   73.1365 H   0  0  0  0  0  0  0  0  0  0  0  0
    0.1830   63.7594   75.3611 H   0  0  0  0  0  0  0  0  0  0  0  0
    1.1214   63.6380   73.8342 H   0  0  0  0  0  0  0  0  0  0  0  0
   -0.4970   64.4174   73.8342 H   0  0  0  0  0  0  0  0  0  0  0  0
   -0.7881   61.4680   75.9797 H   0  0  0  0  0  0  0  0  0  0  0  0
   -1.7817   60.0310   73.9488 H   0  0  0  0  0  0  0  0  0  0  0  0
   -4.3709   61.2047   75.0490 H   0  0  0  0  0  0  0  0  0  0  0  0
   -3.5685   61.8893   73.5950 H   0  0  0  0  0  0  0  0  0  0  0  0
   -4.1209   60.1801   73.5950 H   0  0  0  0  0  0  0  0  0  0  0  0
   -2.6833   60.0010   76.8407 H   0  0  0  0  0  0  0  0  0  0  0  0
   -1.7445   57.2845   77.7441 H   0  0  0  0  0  0  0  0  0  0  0  0
   -1.8096   56.6709   75.9730 H   0  0  0  0  0  0  0  0  0  0  0  0
   -0.0635   56.1439   78.0466 H   0  0  0  0  0  0  0  0  0  0  0  0
    1.6071   56.8713   74.7172 H   0  0  0  0  0  0  0  0  0  0  0  0
    1.6459   59.1179   75.6532 H   0  0  0  0  0  0  0  0  0  0  0  0
    1.8628   57.6178   73.2354 H   0  0  0  0  0  0  0  0  0  0  0  0
    1.9384   59.1379   72.2814 H   0  0  0  0  0  0  0  0  0  0  0  0
    3.3341   58.0071   72.2814 H   0  0  0  0  0  0  0  0  0  0  0  0
    3.6930   55.9457   76.6373 H   0  0  0  0  0  0  0  0  0  0  0  0
    3.1336   55.2431   75.0817 H   0  0  0  0  0  0  0  0  0  0  0  0
    4.2541   56.6470   75.0817 H   0  0  0  0  0  0  0  0  0  0  0  0
   -0.0533   54.1603   76.8922 H   0  0  0  0  0  0  0  0  0  0  0  0
   -0.9195   54.9867   75.5530 H   0  0  0  0  0  0  0  0  0  0  0  0
    0.8754   54.9158   75.5530 H   0  0  0  0  0  0  0  0  0  0  0  0
   -0.6510   59.1523   78.2726 H   0  0  0  0  0  0  0  0  0  0  0  0
    0.7315   59.3299   77.1396 H   0  0  0  0  0  0  0  0  0  0  0  0
   -0.5915   60.5449   77.1396 H   0  0  0  0  0  0  0  0  0  0  0  0
    5.3971   61.5027   73.5191 H   0  0  0  0  0  0  0  0  0  0  0  0
    5.2099   60.5995   71.9777 H   0  0  0  0  0  0  0  0  0  0  0  0
    5.1646   62.3953   71.9777 H   0  0  0  0  0  0  0  0  0  0  0  0
    2.9404   60.9419   71.8808 H   0  0  0  0  0  0  0  0  0  0  0  0
    3.0689   62.4989   72.8533 H   0  0  0  0  0  0  0  0  0  0  0  0
    4.8805   58.7962   74.9679 H   0  0  0  0  0  0  0  0  0  0  0  0
    3.2811   58.8355   77.3595 H   0  0  0  0  0  0  0  0  0  0  0  0
   -1.3627   56.8130   74.4647 H   0  0  0  0  0  0  0  0  0  0  0  0
   -1.5933   58.2049   73.3529 H   0  0  0  0  0  0  0  0  0  0  0  0
   -0.0397   57.3032   73.3529 H   0  0  0  0  0  0  0  0  0  0  0  0
   -3.2183   62.0074   77.1916 H   0  0  0  0  0  0  0  0  0  0  0  0
   -4.5998   65.1464   78.4847 H   0  0  0  0  0  0  0  0  0  0  0  0
   -5.0709   63.1178   79.9764 H   0  0  0  0  0  0  0  0  0  0  0  0
   -6.0460   63.3950   78.4935 H   0  0  0  0  0  0  0  0  0  0  0  0
   -4.7429   62.1586   78.4935 H   0  0  0  0  0  0  0  0  0  0  0  0
   -3.1840   64.2892   80.3707 H   0  0  0  0  0  0  0  0  0  0  0  0
   -0.9597   64.0994   77.2476 H   0  0  0  0  0  0  0  0  0  0  0  0
   -0.7914   62.3059   77.5249 H   0  0  0  0  0  0  0  0  0  0  0  0
   -1.9522   62.2063   80.9431 H   0  0  0  0  0  0  0  0  0  0  0  0
   -2.9895   61.7085   79.5637 H   0  0  0  0  0  0  0  0  0  0  0  0
   -1.2395   61.3030   79.5637 H   0  0  0  0  0  0  0  0  0  0  0  0
    1.4444   63.5075   80.1016 H   0  0  0  0  0  0  0  0  0  0  0  0
    0.6813   62.7771   78.6487 H   0  0  0  0  0  0  0  0  0  0  0  0
    1.1310   64.5162   78.6487 H   0  0  0  0  0  0  0  0  0  0  0  0
   -2.0955   66.2053   79.8661 H   0  0  0  0  0  0  0  0  0  0  0  0
   -3.7618   57.8070   77.4844 H   0  0  0  0  0  0  0  0  0  0  0  0
   -7.1666   56.8218   75.4646 H   0  0  0  0  0  0  0  0  0  0  0  0
   -5.8107   59.3022   74.3964 H   0  0  0  0  0  0  0  0  0  0  0  0
   -5.5660   57.6561   73.7204 H   0  0  0  0  0  0  0  0  0  0  0  0
   -7.2043   58.3926   73.7204 H   0  0  0  0  0  0  0  0  0  0  0  0
   -7.6514   59.5231   76.0039 H   0  0  0  0  0  0  0  0  0  0  0  0
   -8.2067   58.1020   76.9624 H   0  0  0  0  0  0  0  0  0  0  0  0
   -6.4091   58.2096   78.4065 H   0  0  0  0  0  0  0  0  0  0  0  0
   -5.0632   60.2455   76.4695 H   0  0  0  0  0  0  0  0  0  0  0  0
   -6.2458   60.8420   78.7023 H   0  0  0  0  0  0  0  0  0  0  0  0
   -8.6381   61.6703   78.6281 H   0  0  0  0  0  0  0  0  0  0  0  0
   -7.5025   61.8490   77.2478 H   0  0  0  0  0  0  0  0  0  0  0  0
   -8.7147   60.5233   77.2478 H   0  0  0  0  0  0  0  0  0  0  0  0
   -6.9626   60.3222   80.6973 H   0  0  0  0  0  0  0  0  0  0  0  0
   -8.6079   60.0502   80.0296 H   0  0  0  0  0  0  0  0  0  0  0  0
   -7.4065   58.7148   80.0296 H   0  0  0  0  0  0  0  0  0  0  0  0
   -4.8052   59.7061   79.2363 H   0  0  0  0  0  0  0  0  0  0  0  0
  2  1  1  0
  3  2  1  0
  4  3  2  0
  5  3  1  0
  6  5  1  0
  7  5  1  0
  8  7  1  0
  9  8  1  0
 10  8  1  0
 11 10  1  0
 12 11  1  0
 13 12  1  0
 14 13  1  0
 15 14  2  0
 16 14  1  0
 17 16  1  0
 18 17  1  0
 18  1  1  0
 19 18  1  0
 20 16  1  0
 21 13  1  0
 22 11  1  0
 24  1  1  0
 24 23  1  0
 18 25  1  1
 26 17  1  0
 11 27  1  6
 28 27  1  0
 29  7  1  0
 30 29  1  0
 31 30  1  0
 32 31  1  0
 33 32  1  0
 34 32  1  0
 35 34  1  0
 36 35  1  0
 36 30  1  0
 37 35  1  0
 35 38  1  1
 39 38  1  0
 40 34  1  0
 41 10  1  0
 42 41  1  0
 43 42  1  0
 44 43  1  0
 45 44  1  0
 46 44  1  0
 47 46  1  0
 48 42  1  0
 48 47  1  0
 49 47  1  0
 50 49  1  0
 51 49  1  0
 52 48  1  0
  1 53  1  1
  5 54  1  6
  6 55  1  0
  6 56  1  0
  6 57  1  0
  7 58  1  1
  8 59  1  6
  9 60  1  0
  9 61  1  0
  9 62  1  0
 10 63  1  1
 12 64  1  0
 12 65  1  0
 13 66  1  1
 16 67  1  6
 17 68  1  1
 19 69  1  0
 19 70  1  0
 19 71  1  0
 20 72  1  0
 20 73  1  0
 20 74  1  0
 21 75  1  0
 21 76  1  0
 21 77  1  0
 22 78  1  0
 22 79  1  0
 22 80  1  0
 23 81  1  0
 23 82  1  0
 23 83  1  0
 24 84  1  0
 24 85  1  0
 25 86  1  0
 26 87  1  0
 28 88  1  0
 28 89  1  0
 28 90  1  0
 30 91  1  1
 32 92  1  6
 33 93  1  0
 33 94  1  0
 33 95  1  0
 34 96  1  1
 36 97  1  0
 36 98  1  0
 37 99  1  0
 37100  1  0
 37101  1  0
 39102  1  0
 39103  1  0
 39104  1  0
 40105  1  0
 42106  1  1
 44107  1  6
 45108  1  0
 45109  1  0
 45110  1  0
 46111  1  0
 46112  1  0
 47113  1  1
 48114  1  6
 49115  1  0
 50116  1  0
 50117  1  0
 50118  1  0
 51119  1  0
 51120  1  0
 51121  1  0
 52122  1  0
M  CHG  1  49   1
M  END
>  <score>  (6) 
-5.993

$$$$
=
     RDKit          3D

122124  0  0  0  0  0  0  0  0999 V2000
    1.1610   63.9720   72.9840 C   0  0  1  0  0  0  0  0  0  0  0  0
    0.9650   63.1250   74.1740 O   0  0  0  0  0  0  0  0  0  0  0  0
   -0.2050   62.4720   74.4080 C   0  0  0  0  0  0  0  0  0  0  0  0
   -1.0710   62.2570   73.5710 O   0  0  0  0  0  0  0  0  0  0  0  0
   -0.3830   62.0940   75.8800 C   0  0  2  0  0  0  0  0  0  0  0  0
   -0.1420   63.3380   76.7480 C   0  0  0  0  0  0  0  0  0  0  0  0
    0.4650   60.8830   76.3440 C   0  0  2  0  0  0  0  0  0  0  0  0
    0.0320   59.5450   75.6580 C   0  0  2  0  0  0  0  0  0  0  0  0
   -1.0340   58.8060   76.4890 C   0  0  0  0  0  0  0  0  0  0  0  0
    1.2410   58.6000   75.2680 C   0  0  2  0  0  0  0  0  0  0  0  0
    2.1380   59.1560   74.0610 C   0  0  2  0  0  0  0  0  0  0  0  0
    2.8770   58.1130   73.1720 C   0  0  0  0  0  0  0  0  0  0  0  0
    3.6810   58.6020   71.9100 C   0  0  2  0  0  0  0  0  0  0  0  0
    4.0080   60.0980   71.7080 C   0  0  0  0  0  0  0  0  0  0  0  0
    5.0900   60.5420   72.1240 O   0  0  0  0  0  0  0  0  0  0  0  0
    3.0380   61.0590   71.0080 C   0  0  1  0  0  0  0  0  0  0  0  0
    2.7830   62.2570   71.9630 C   0  0  2  0  0  0  0  0  0  0  0  0
    1.5860   63.2170   71.6610 C   0  0  1  0  0  0  0  0  0  0  0  0
    0.4130   62.5560   70.9450 C   0  0  0  0  0  0  0  0  0  0  0  0
    3.6370   61.4690   69.6640 C   0  0  0  0  0  0  0  0  0  0  0  0
    3.1980   57.9520   70.6110 C   0  0  0  0  0  0  0  0  0  0  0  0
    3.2250   60.0450   74.7250 C   0  0  0  0  0  0  0  0  0  0  0  0
   -0.3050   65.7470   74.1710 C   0  0  0  0  0  0  0  0  0  0  0  0
    0.0120   65.0040   72.8830 C   0  0  0  0  0  0  0  0  0  0  0  0
    2.0930   64.1940   70.7200 O   0  0  0  0  0  0  0  0  0  0  0  0
    3.9680   63.0850   72.0620 O   0  0  0  0  0  0  0  0  0  0  0  0
    1.3080   59.9430   73.1870 O   0  0  0  0  0  0  0  0  0  0  0  0
    0.1810   59.2640   72.6070 C   0  0  0  0  0  0  0  0  0  0  0  0
    0.2660   60.7370   77.7640 O   0  0  0  0  0  0  0  0  0  0  0  0
    1.4300   60.4190   78.5270 C   0  0  2  0  0  0  0  0  0  0  0  0
    2.5880   60.9820   77.9140 O   0  0  0  0  0  0  0  0  0  0  0  0
    3.8260   60.6410   78.5640 C   0  0  1  0  0  0  0  0  0  0  0  0
    4.0260   61.4400   79.8480 C   0  0  0  0  0  0  0  0  0  0  0  0
    4.0020   59.1180   78.6970 C   0  0  1  0  0  0  0  0  0  0  0  0
    2.7590   58.3610   79.2410 C   0  0  2  0  0  0  0  0  0  0  0  0
    1.5090   58.8940   78.5310 C   0  0  0  0  0  0  0  0  0  0  0  0
    2.6520   58.4800   80.7670 C   0  0  0  0  0  0  0  0  0  0  0  0
    3.0050   56.9760   78.8730 O   0  0  0  0  0  0  0  0  0  0  0  0
    3.7120   56.1710   79.8110 C   0  0  0  0  0  0  0  0  0  0  0  0
    4.2660   58.6110   77.3610 O   0  0  0  0  0  0  0  0  0  0  0  0
    0.7270   57.2880   74.9670 O   0  0  0  0  0  0  0  0  0  0  0  0
    1.0020   56.3100   75.9740 C   0  0  2  0  0  0  0  0  0  0  0  0
    2.2830   55.7130   75.7350 O   0  0  0  0  0  0  0  0  0  0  0  0
    2.3330   54.6300   74.8060 C   0  0  2  0  0  0  0  0  0  0  0  0
    2.0270   55.0740   73.3780 C   0  0  0  0  0  0  0  0  0  0  0  0
    1.4550   53.4540   75.2720 C   0  0  0  0  0  0  0  0  0  0  0  0
    0.5200   53.9050   76.3840 C   0  0  1  0  0  0  0  0  0  0  0  0
   -0.1230   55.2530   76.0460 C   0  0  1  0  0  0  0  0  0  0  0  0
   -0.5810   52.8960   76.7290 N   0  0  0  0  0  4  0  0  0  0  0  0
   -1.1600   52.1050   75.5970 C   0  0  0  0  0  0  0  0  0  0  0  0
   -0.2490   52.0360   77.9110 C   0  0  0  0  0  0  0  0  0  0  0  0
   -1.1030   55.5050   77.0640 O   0  0  0  0  0  0  0  0  0  0  0  0
    2.0816   64.5568   73.1272 H   0  0  0  0  0  0  0  0  0  0  0  0
   -1.4193   61.7461   76.0030 H   0  0  0  0  0  0  0  0  0  0  0  0
   -0.1959   63.0596   77.8108 H   0  0  0  0  0  0  0  0  0  0  0  0
    0.8530   63.7519   76.5274 H   0  0  0  0  0  0  0  0  0  0  0  0
   -0.9105   64.0935   76.5274 H   0  0  0  0  0  0  0  0  0  0  0  0
    1.5142   61.0737   76.0742 H   0  0  0  0  0  0  0  0  0  0  0  0
   -0.4242   59.8350   74.7000 H   0  0  0  0  0  0  0  0  0  0  0  0
   -0.8280   58.9488   77.5600 H   0  0  0  0  0  0  0  0  0  0  0  0
   -2.0293   59.2089   76.2502 H   0  0  0  0  0  0  0  0  0  0  0  0
   -1.0059   57.7326   76.2502 H   0  0  0  0  0  0  0  0  0  0  0  0
    1.9192   58.5600   76.1331 H   0  0  0  0  0  0  0  0  0  0  0  0
    3.5913   57.5869   73.8224 H   0  0  0  0  0  0  0  0  0  0  0  0
    2.0602   57.5145   72.7423 H   0  0  0  0  0  0  0  0  0  0  0  0
    4.6738   58.2251   72.1971 H   0  0  0  0  0  0  0  0  0  0  0  0
    2.0659   60.5917   70.7919 H   0  0  0  0  0  0  0  0  0  0  0  0
    2.5107   61.7365   72.8930 H   0  0  0  0  0  0  0  0  0  0  0  0
   -0.2933   62.1580   71.6885 H   0  0  0  0  0  0  0  0  0  0  0  0
   -0.0979   63.2991   70.3150 H   0  0  0  0  0  0  0  0  0  0  0  0
    0.7840   61.7341   70.3150 H   0  0  0  0  0  0  0  0  0  0  0  0
    4.5338   62.0828   69.8342 H   0  0  0  0  0  0  0  0  0  0  0  0
    3.9116   60.5686   69.0950 H   0  0  0  0  0  0  0  0  0  0  0  0
    2.8970   62.0509   69.0950 H   0  0  0  0  0  0  0  0  0  0  0  0
    2.5574   57.0899   70.8485 H   0  0  0  0  0  0  0  0  0  0  0  0
    2.6239   58.6852   70.0255 H   0  0  0  0  0  0  0  0  0  0  0  0
    4.0657   57.6138   70.0255 H   0  0  0  0  0  0  0  0  0  0  0  0
    3.1384   59.9742   75.8193 H   0  0  0  0  0  0  0  0  0  0  0  0
    4.2218   59.6999   74.4130 H   0  0  0  0  0  0  0  0  0  0  0  0
    3.0846   61.0904   74.4130 H   0  0  0  0  0  0  0  0  0  0  0  0
   -0.0367   65.1181   75.0327 H   0  0  0  0  0  0  0  0  0  0  0  0
    0.2723   66.6827   74.2061 H   0  0  0  0  0  0  0  0  0  0  0  0
   -1.3799   65.9778   74.2061 H   0  0  0  0  0  0  0  0  0  0  0  0
    0.2880   65.7472   72.1204 H   0  0  0  0  0  0  0  0  0  0  0  0
   -0.8922   64.4308   72.6305 H   0  0  0  0  0  0  0  0  0  0  0  0
    2.4879   64.9550   71.2150 H   0  0  0  0  0  0  0  0  0  0  0  0
    4.1856   63.2370   73.0157 H   0  0  0  0  0  0  0  0  0  0  0  0
   -0.4647   58.8750   73.4081 H   0  0  0  0  0  0  0  0  0  0  0  0
   -0.3907   59.9681   71.9846 H   0  0  0  0  0  0  0  0  0  0  0  0
    0.5363   58.4295   71.9846 H   0  0  0  0  0  0  0  0  0  0  0  0
    1.3786   60.8238   79.5485 H   0  0  0  0  0  0  0  0  0  0  0  0
    4.6600   60.9517   77.9175 H   0  0  0  0  0  0  0  0  0  0  0  0
    3.8621   60.7852   80.7166 H   0  0  0  0  0  0  0  0  0  0  0  0
    5.0513   61.8374   79.8766 H   0  0  0  0  0  0  0  0  0  0  0  0
    3.3088   62.2735   79.8766 H   0  0  0  0  0  0  0  0  0  0  0  0
    4.8119   58.9483   79.4217 H   0  0  0  0  0  0  0  0  0  0  0  0
    1.5201   58.5408   77.4893 H   0  0  0  0  0  0  0  0  0  0  0  0
    0.6332   58.5205   79.0818 H   0  0  0  0  0  0  0  0  0  0  0  0
    3.3161   57.7415   81.2398 H   0  0  0  0  0  0  0  0  0  0  0  0
    2.9495   59.4924   81.0776 H   0  0  0  0  0  0  0  0  0  0  0  0
    1.6137   58.2914   81.0776 H   0  0  0  0  0  0  0  0  0  0  0  0
    3.4432   56.4770   80.8328 H   0  0  0  0  0  0  0  0  0  0  0  0
    3.4446   55.1144   79.6624 H   0  0  0  0  0  0  0  0  0  0  0  0
    4.7943   56.2997   79.6624 H   0  0  0  0  0  0  0  0  0  0  0  0
    4.7223   57.7347   77.4248 H   0  0  0  0  0  0  0  0  0  0  0  0
    1.0336   56.8062   76.9552 H   0  0  0  0  0  0  0  0  0  0  0  0
    3.3695   54.2625   74.7831 H   0  0  0  0  0  0  0  0  0  0  0  0
    1.4029   55.9795   73.4013 H   0  0  0  0  0  0  0  0  0  0  0  0
    2.9683   55.2909   72.8518 H   0  0  0  0  0  0  0  0  0  0  0  0
    1.4893   54.2715   72.8518 H   0  0  0  0  0  0  0  0  0  0  0  0
    0.8595   53.0865   74.4233 H   0  0  0  0  0  0  0  0  0  0  0  0
    2.1032   52.6505   75.6518 H   0  0  0  0  0  0  0  0  0  0  0  0
    1.1609   53.9961   77.2734 H   0  0  0  0  0  0  0  0  0  0  0  0
   -0.6354   55.2759   75.0729 H   0  0  0  0  0  0  0  0  0  0  0  0
   -1.3564   53.5179   76.9989 H   0  0  0  0  0  0  0  0  0  0  0  0
   -1.7648   51.2787   75.9987 H   0  0  0  0  0  0  0  0  0  0  0  0
   -1.7950   52.7581   74.9804 H   0  0  0  0  0  0  0  0  0  0  0  0
   -0.3455   51.6971   74.9804 H   0  0  0  0  0  0  0  0  0  0  0  0
   -0.4623   52.5885   78.8379 H   0  0  0  0  0  0  0  0  0  0  0  0
   -0.8584   51.1207   77.8812 H   0  0  0  0  0  0  0  0  0  0  0  0
    0.8173   51.7676   77.8812 H   0  0  0  0  0  0  0  0  0  0  0  0
   -0.6872   55.3981   77.9561 H   0  0  0  0  0  0  0  0  0  0  0  0
  2  1  1  0
  3  2  1  0
  4  3  2  0
  5  3  1  0
  6  5  1  0
  7  5  1  0
  8  7  1  0
  9  8  1  0
 10  8  1  0
 11 10  1  0
 12 11  1  0
 13 12  1  0
 14 13  1  0
 15 14  2  0
 16 14  1  0
 17 16  1  0
 18 17  1  0
 18  1  1  0
 19 18  1  0
 20 16  1  0
 21 13  1  0
 22 11  1  0
 24  1  1  0
 24 23  1  0
 18 25  1  6
 26 17  1  0
 11 27  1  6
 28 27  1  0
 29  7  1  0
 30 29  1  0
 31 30  1  0
 32 31  1  0
 33 32  1  0
 34 32  1  0
 35 34  1  0
 36 35  1  0
 36 30  1  0
 37 35  1  0
 35 38  1  1
 39 38  1  0
 40 34  1  0
 41 10  1  0
 42 41  1  0
 43 42  1  0
 44 43  1  0
 45 44  1  0
 46 44  1  0
 47 46  1  0
 48 42  1  0
 48 47  1  0
 49 47  1  0
 50 49  1  0
 51 49  1  0
 52 48  1  0
  1 53  1  1
  5 54  1  6
  6 55  1  0
  6 56  1  0
  6 57  1  0
  7 58  1  1
  8 59  1  6
  9 60  1  0
  9 61  1  0
  9 62  1  0
 10 63  1  1
 12 64  1  0
 12 65  1  0
 13 66  1  1
 16 67  1  6
 17 68  1  1
 19 69  1  0
 19 70  1  0
 19 71  1  0
 20 72  1  0
 20 73  1  0
 20 74  1  0
 21 75  1  0
 21 76  1  0
 21 77  1  0
 22 78  1  0
 22 79  1  0
 22 80  1  0
 23 81  1  0
 23 82  1  0
 23 83  1  0
 24 84  1  0
 24 85  1  0
 25 86  1  0
 26 87  1  0
 28 88  1  0
 28 89  1  0
 28 90  1  0
 30 91  1  1
 32 92  1  6
 33 93  1  0
 33 94  1  0
 33 95  1  0
 34 96  1  1
 36 97  1  0
 36 98  1  0
 37 99  1  0
 37100  1  0
 37101  1  0
 39102  1  0
 39103  1  0
 39104  1  0
 40105  1  0
 42106  1  1
 44107  1  6
 45108  1  0
 45109  1  0
 45110  1  0
 46111  1  0
 46112  1  0
 47113  1  1
 48114  1  6
 49115  1  0
 50116  1  0
 50117  1  0
 50118  1  0
 51119  1  0
 51120  1  0
 51121  1  0
 52122  1  0
M  CHG  1  49   1
M  END
>  <score>  (7) 
-5.596

$$$$
=
     RDKit          3D

122124  0  0  0  0  0  0  0  0999 V2000
    1.8940   56.7320   74.3660 C   0  0  1  0  0  0  0  0  0  0  0  0
    0.8480   57.7510   74.5690 O   0  0  0  0  0  0  0  0  0  0  0  0
   -0.3080   57.7490   73.8530 C   0  0  0  0  0  0  0  0  0  0  0  0
   -0.7430   56.7950   73.2210 O   0  0  0  0  0  0  0  0  0  0  0  0
   -0.9930   59.1170   73.8370 C   0  0  2  0  0  0  0  0  0  0  0  0
    0.0310   60.1830   73.4250 C   0  0  0  0  0  0  0  0  0  0  0  0
   -1.7270   59.4870   75.1510 C   0  0  2  0  0  0  0  0  0  0  0  0
   -2.9560   58.5630   75.4360 C   0  0  2  0  0  0  0  0  0  0  0  0
   -4.2500   59.1460   74.8360 C   0  0  0  0  0  0  0  0  0  0  0  0
   -3.1320   58.1760   76.9610 C   0  0  2  0  0  0  0  0  0  0  0  0
   -2.0060   57.1770   77.5130 C   0  0  2  0  0  0  0  0  0  0  0  0
   -2.3930   56.2320   78.6880 C   0  0  0  0  0  0  0  0  0  0  0  0
   -1.3580   55.1580   79.1920 C   0  0  2  0  0  0  0  0  0  0  0  0
    0.1250   55.2220   78.7620 C   0  0  0  0  0  0  0  0  0  0  0  0
    0.9370   55.8210   79.4840 O   0  0  0  0  0  0  0  0  0  0  0  0
    0.6300   54.5680   77.4700 C   0  0  1  0  0  0  0  0  0  0  0  0
    1.3650   55.6580   76.6420 C   0  0  2  0  0  0  0  0  0  0  0  0
    1.6890   55.3680   75.1400 C   0  0  1  0  0  0  0  0  0  0  0  0
    0.7020   54.4310   74.4510 C   0  0  0  0  0  0  0  0  0  0  0  0
    1.5160   53.3780   77.8340 C   0  0  0  0  0  0  0  0  0  0  0  0
   -1.9030   53.7290   79.1190 C   0  0  0  0  0  0  0  0  0  0  0  0
   -0.8530   58.0870   78.0170 C   0  0  0  0  0  0  0  0  0  0  0  0
    2.7330   57.9650   72.2490 C   0  0  0  0  0  0  0  0  0  0  0  0
    2.2650   56.6570   72.8650 C   0  0  0  0  0  0  0  0  0  0  0  0
    2.9460   54.6500   75.1390 O   0  0  0  0  0  0  0  0  0  0  0  0
    2.6180   56.0150   77.2770 O   0  0  0  0  0  0  0  0  0  0  0  0
   -1.5530   56.3420   76.4310 O   0  0  0  0  0  0  0  0  0  0  0  0
   -2.5090   55.3980   75.9190 C   0  0  0  0  0  0  0  0  0  0  0  0
   -2.2120   60.8370   75.0070 O   0  0  0  0  0  0  0  0  0  0  0  0
   -2.0990   61.6660   76.1640 C   0  0  2  0  0  0  0  0  0  0  0  0
   -2.2410   63.0370   75.8020 O   0  0  0  0  0  0  0  0  0  0  0  0
   -2.0540   63.9590   76.8920 C   0  0  1  0  0  0  0  0  0  0  0  0
   -3.2720   63.9980   77.8110 C   0  0  0  0  0  0  0  0  0  0  0  0
   -0.7010   63.7480   77.5930 C   0  0  1  0  0  0  0  0  0  0  0  0
   -0.3640   62.2710   77.9340 C   0  0  2  0  0  0  0  0  0  0  0  0
   -0.7030   61.3960   76.7210 C   0  0  0  0  0  0  0  0  0  0  0  0
   -1.0910   61.8070   79.2030 C   0  0  0  0  0  0  0  0  0  0  0  0
    1.0720   62.2850   78.1690 O   0  0  0  0  0  0  0  0  0  0  0  0
    1.8130   61.1550   77.7220 C   0  0  0  0  0  0  0  0  0  0  0  0
    0.3210   64.2250   76.6760 O   0  0  0  0  0  0  0  0  0  0  0  0
   -4.4500   57.6230   77.1520 O   0  0  0  0  0  0  0  0  0  0  0  0
   -5.1660   58.1950   78.2510 C   0  0  2  0  0  0  0  0  0  0  0  0
   -6.3760   57.4620   78.4760 O   0  0  0  0  0  0  0  0  0  0  0  0
   -7.5080   57.8150   77.6800 C   0  0  2  0  0  0  0  0  0  0  0  0
   -7.3120   57.4700   76.2060 C   0  0  0  0  0  0  0  0  0  0  0  0
   -7.9130   59.2840   77.9050 C   0  0  0  0  0  0  0  0  0  0  0  0
   -6.8010   60.0300   78.6260 C   0  0  1  0  0  0  0  0  0  0  0  0
   -5.4360   59.6990   78.0180 C   0  0  1  0  0  0  0  0  0  0  0  0
   -6.9810   61.5520   78.6550 N   0  0  0  0  0  4  0  0  0  0  0  0
   -7.4940   62.2020   77.4070 C   0  0  0  0  0  0  0  0  0  0  0  0
   -7.6880   62.0430   79.8820 C   0  0  0  0  0  0  0  0  0  0  0  0
   -4.4850   60.5720   78.6460 O   0  0  0  0  0  0  0  0  0  0  0  0
    2.8041   57.0655   74.8861 H   0  0  0  0  0  0  0  0  0  0  0  0
   -1.8019   59.0674   73.0933 H   0  0  0  0  0  0  0  0  0  0  0  0
    0.4686   60.6385   74.3256 H   0  0  0  0  0  0  0  0  0  0  0  0
    0.8270   59.7151   72.8270 H   0  0  0  0  0  0  0  0  0  0  0  0
   -0.4685   60.9595   72.8270 H   0  0  0  0  0  0  0  0  0  0  0  0
   -1.0198   59.3706   75.9854 H   0  0  0  0  0  0  0  0  0  0  0  0
   -2.7399   57.6141   74.9233 H   0  0  0  0  0  0  0  0  0  0  0  0
   -4.9261   59.4506   75.6485 H   0  0  0  0  0  0  0  0  0  0  0  0
   -4.0049   60.0207   74.2156 H   0  0  0  0  0  0  0  0  0  0  0  0
   -4.7428   58.3829   74.2156 H   0  0  0  0  0  0  0  0  0  0  0  0
   -3.0105   59.0975   77.5493 H   0  0  0  0  0  0  0  0  0  0  0  0
   -2.6332   56.8735   79.5487 H   0  0  0  0  0  0  0  0  0  0  0  0
   -3.2125   55.6265   78.2735 H   0  0  0  0  0  0  0  0  0  0  0  0
   -1.2713   55.4966   80.2350 H   0  0  0  0  0  0  0  0  0  0  0  0
   -0.1887   54.1732   76.8504 H   0  0  0  0  0  0  0  0  0  0  0  0
    0.6141   56.4617   76.6288 H   0  0  0  0  0  0  0  0  0  0  0  0
    0.1250   53.8833   75.2107 H   0  0  0  0  0  0  0  0  0  0  0  0
    0.0162   55.0184   73.8227 H   0  0  0  0  0  0  0  0  0  0  0  0
    1.2530   53.7157   73.8227 H   0  0  0  0  0  0  0  0  0  0  0  0
    1.5811   53.2906   78.9286 H   0  0  0  0  0  0  0  0  0  0  0  0
    1.0821   52.4569   77.4178 H   0  0  0  0  0  0  0  0  0  0  0  0
    2.5229   53.5296   77.4178 H   0  0  0  0  0  0  0  0  0  0  0  0
   -2.0511   53.3406   80.1374 H   0  0  0  0  0  0  0  0  0  0  0  0
   -2.8639   53.7299   78.5836 H   0  0  0  0  0  0  0  0  0  0  0  0
   -1.1855   53.0898   78.5836 H   0  0  0  0  0  0  0  0  0  0  0  0
   -0.8450   58.0933   79.1170 H   0  0  0  0  0  0  0  0  0  0  0  0
    0.1078   57.7011   77.6455 H   0  0  0  0  0  0  0  0  0  0  0  0
   -1.0051   59.1111   77.6455 H   0  0  0  0  0  0  0  0  0  0  0  0
    2.9875   58.6764   73.0484 H   0  0  0  0  0  0  0  0  0  0  0  0
    3.6208   57.7801   71.6263 H   0  0  0  0  0  0  0  0  0  0  0  0
    1.9295   58.3853   71.6263 H   0  0  0  0  0  0  0  0  0  0  0  0
    3.0722   55.9186   72.7503 H   0  0  0  0  0  0  0  0  0  0  0  0
    1.3409   56.3829   72.3350 H   0  0  0  0  0  0  0  0  0  0  0  0
    3.2331   54.4860   76.0722 H   0  0  0  0  0  0  0  0  0  0  0  0
    2.5100   55.9842   78.2606 H   0  0  0  0  0  0  0  0  0  0  0  0
   -3.0156   54.8978   76.7575 H   0  0  0  0  0  0  0  0  0  0  0  0
   -3.2525   55.9261   75.3039 H   0  0  0  0  0  0  0  0  0  0  0  0
   -1.9903   54.6479   75.3039 H   0  0  0  0  0  0  0  0  0  0  0  0
   -2.8802   61.4486   76.9072 H   0  0  0  0  0  0  0  0  0  0  0  0
   -1.9884   64.9785   76.4842 H   0  0  0  0  0  0  0  0  0  0  0  0
   -2.9405   63.9874   78.8598 H   0  0  0  0  0  0  0  0  0  0  0  0
   -3.8479   64.9150   77.6178 H   0  0  0  0  0  0  0  0  0  0  0  0
   -3.9054   63.1197   77.6178 H   0  0  0  0  0  0  0  0  0  0  0  0
   -0.7459   64.2853   78.5518 H   0  0  0  0  0  0  0  0  0  0  0  0
    0.0348   61.5929   75.9292 H   0  0  0  0  0  0  0  0  0  0  0  0
   -0.6776   60.3477   77.0532 H   0  0  0  0  0  0  0  0  0  0  0  0
   -0.5417   62.1576   80.0892 H   0  0  0  0  0  0  0  0  0  0  0  0
   -2.1095   62.2225   79.2148 H   0  0  0  0  0  0  0  0  0  0  0  0
   -1.1430   60.7083   79.2148 H   0  0  0  0  0  0  0  0  0  0  0  0
    2.1825   60.5915   78.5915 H   0  0  0  0  0  0  0  0  0  0  0  0
    1.1635   60.5076   77.1145 H   0  0  0  0  0  0  0  0  0  0  0  0
    2.6657   61.4926   77.1145 H   0  0  0  0  0  0  0  0  0  0  0  0
    1.0866   64.5823   77.1920 H   0  0  0  0  0  0  0  0  0  0  0  0
   -4.5480   58.1217   79.1580 H   0  0  0  0  0  0  0  0  0  0  0  0
   -8.3537   57.1975   78.0169 H   0  0  0  0  0  0  0  0  0  0  0  0
   -6.7702   56.5164   76.1215 H   0  0  0  0  0  0  0  0  0  0  0  0
   -8.2932   57.3788   75.7171 H   0  0  0  0  0  0  0  0  0  0  0  0
   -6.7313   58.2661   75.7171 H   0  0  0  0  0  0  0  0  0  0  0  0
   -8.1005   59.7624   76.9324 H   0  0  0  0  0  0  0  0  0  0  0  0
   -8.8243   59.3152   78.5203 H   0  0  0  0  0  0  0  0  0  0  0  0
   -6.8539   59.6804   79.6676 H   0  0  0  0  0  0  0  0  0  0  0  0
   -5.3757   59.8628   76.9319 H   0  0  0  0  0  0  0  0  0  0  0  0
   -6.0045   61.8762   78.7020 H   0  0  0  0  0  0  0  0  0  0  0  0
   -8.1550   63.0395   77.6749 H   0  0  0  0  0  0  0  0  0  0  0  0
   -6.6469   62.5784   76.8148 H   0  0  0  0  0  0  0  0  0  0  0  0
   -8.0569   61.4655   76.8148 H   0  0  0  0  0  0  0  0  0  0  0  0
   -7.1636   61.6788   80.7778 H   0  0  0  0  0  0  0  0  0  0  0  0
   -7.6973   63.1430   79.8844 H   0  0  0  0  0  0  0  0  0  0  0  0
   -8.7219   61.6676   79.8844 H   0  0  0  0  0  0  0  0  0  0  0  0
   -4.5672   60.4966   79.6297 H   0  0  0  0  0  0  0  0  0  0  0  0
  2  1  1  0
  3  2  1  0
  4  3  2  0
  5  3  1  0
  6  5  1  0
  7  5  1  0
  8  7  1  0
  9  8  1  0
 10  8  1  0
 11 10  1  0
 12 11  1  0
 13 12  1  0
 14 13  1  0
 15 14  2  0
 16 14  1  0
 17 16  1  0
 18 17  1  0
 18  1  1  0
 19 18  1  0
 20 16  1  0
 21 13  1  0
 22 11  1  0
 24  1  1  0
 24 23  1  0
 18 25  1  1
 26 17  1  0
 11 27  1  6
 28 27  1  0
 29  7  1  0
 30 29  1  0
 31 30  1  0
 32 31  1  0
 33 32  1  0
 34 32  1  0
 35 34  1  0
 36 35  1  0
 36 30  1  0
 37 35  1  0
 35 38  1  1
 39 38  1  0
 40 34  1  0
 41 10  1  0
 42 41  1  0
 43 42  1  0
 44 43  1  0
 45 44  1  0
 46 44  1  0
 47 46  1  0
 48 42  1  0
 48 47  1  0
 49 47  1  0
 50 49  1  0
 51 49  1  0
 52 48  1  0
  1 53  1  1
  5 54  1  6
  6 55  1  0
  6 56  1  0
  6 57  1  0
  7 58  1  1
  8 59  1  6
  9 60  1  0
  9 61  1  0
  9 62  1  0
 10 63  1  1
 12 64  1  0
 12 65  1  0
 13 66  1  1
 16 67  1  6
 17 68  1  6
 19 69  1  0
 19 70  1  0
 19 71  1  0
 20 72  1  0
 20 73  1  0
 20 74  1  0
 21 75  1  0
 21 76  1  0
 21 77  1  0
 22 78  1  0
 22 79  1  0
 22 80  1  0
 23 81  1  0
 23 82  1  0
 23 83  1  0
 24 84  1  0
 24 85  1  0
 25 86  1  0
 26 87  1  0
 28 88  1  0
 28 89  1  0
 28 90  1  0
 30 91  1  1
 32 92  1  6
 33 93  1  0
 33 94  1  0
 33 95  1  0
 34 96  1  1
 36 97  1  0
 36 98  1  0
 37 99  1  0
 37100  1  0
 37101  1  0
 39102  1  0
 39103  1  0
 39104  1  0
 40105  1  0
 42106  1  1
 44107  1  1
 45108  1  0
 45109  1  0
 45110  1  0
 46111  1  0
 46112  1  0
 47113  1  1
 48114  1  6
 49115  1  0
 50116  1  0
 50117  1  0
 50118  1  0
 51119  1  0
 51120  1  0
 51121  1  0
 52122  1  0
M  CHG  1  49   1
M  END
>  <score>  (8) 
-5.477

$$$$
=
     RDKit          3D

122124  0  0  0  0  0  0  0  0999 V2000
   -3.5050   64.2700   76.6310 C   0  0  1  0  0  0  0  0  0  0  0  0
   -2.2550   63.5010   76.4870 O   0  0  0  0  0  0  0  0  0  0  0  0
   -1.4930   63.1580   77.5600 C   0  0  0  0  0  0  0  0  0  0  0  0
   -1.8730   63.1600   78.7230 O   0  0  0  0  0  0  0  0  0  0  0  0
   -0.0460   62.8410   77.1760 C   0  0  2  0  0  0  0  0  0  0  0  0
    0.5060   63.9900   76.3210 C   0  0  0  0  0  0  0  0  0  0  0  0
    0.1560   61.4600   76.5030 C   0  0  2  0  0  0  0  0  0  0  0  0
   -0.1430   60.2680   77.4700 C   0  0  2  0  0  0  0  0  0  0  0  0
    1.1270   59.8170   78.2180 C   0  0  0  0  0  0  0  0  0  0  0  0
   -0.8900   59.0520   76.7830 C   0  0  2  0  0  0  0  0  0  0  0  0
   -2.4120   59.3650   76.3840 C   0  0  2  0  0  0  0  0  0  0  0  0
   -3.4070   58.1690   76.3430 C   0  0  0  0  0  0  0  0  0  0  0  0
   -4.9320   58.4400   76.0640 C   0  0  2  0  0  0  0  0  0  0  0  0
   -5.4110   59.8090   75.5320 C   0  0  0  0  0  0  0  0  0  0  0  0
   -5.5260   59.9740   74.3070 O   0  0  0  0  0  0  0  0  0  0  0  0
   -5.7510   60.9770   76.4670 C   0  0  1  0  0  0  0  0  0  0  0  0
   -4.9100   62.2030   76.0200 C   0  0  2  0  0  0  0  0  0  0  0  0
   -4.7960   63.4280   76.9870 C   0  0  1  0  0  0  0  0  0  0  0  0
   -4.8920   63.0740   78.4680 C   0  0  0  0  0  0  0  0  0  0  0  0
   -7.2580   61.2210   76.4200 C   0  0  0  0  0  0  0  0  0  0  0  0
   -5.8410   57.9240   77.1840 C   0  0  0  0  0  0  0  0  0  0  0  0
   -2.3520   59.9620   74.9510 C   0  0  0  0  0  0  0  0  0  0  0  0
   -3.7110   66.8450   76.8100 C   0  0  0  0  0  0  0  0  0  0  0  0
   -3.2370   65.5530   77.4550 C   0  0  0  0  0  0  0  0  0  0  0  0
   -5.9610   64.2470   76.7240 O   0  0  0  0  0  0  0  0  0  0  0  0
   -5.3950   62.7150   74.7550 O   0  0  0  0  0  0  0  0  0  0  0  0
   -2.9470   60.3290   77.3100 O   0  0  0  0  0  0  0  0  0  0  0  0
   -3.1320   59.8720   78.6610 C   0  0  0  0  0  0  0  0  0  0  0  0
    1.5400   61.3730   76.1080 O   0  0  0  0  0  0  0  0  0  0  0  0
    1.7780   60.9730   74.7580 C   0  0  2  0  0  0  0  0  0  0  0  0
    2.9070   60.1050   74.6940 O   0  0  0  0  0  0  0  0  0  0  0  0
    3.2800   59.7170   73.3590 C   0  0  1  0  0  0  0  0  0  0  0  0
    2.3390   58.6560   72.7980 C   0  0  0  0  0  0  0  0  0  0  0  0
    3.5180   60.9380   72.4550 C   0  0  1  0  0  0  0  0  0  0  0  0
    2.4130   62.0280   72.5240 C   0  0  2  0  0  0  0  0  0  0  0  0
    2.0480   62.2670   73.9930 C   0  0  0  0  0  0  0  0  0  0  0  0
    1.1900   61.6430   71.6800 C   0  0  0  0  0  0  0  0  0  0  0  0
    3.0480   63.2070   71.9560 O   0  0  0  0  0  0  0  0  0  0  0  0
    2.5910   63.6390   70.6790 C   0  0  0  0  0  0  0  0  0  0  0  0
    4.7580   61.5520   72.9000 O   0  0  0  0  0  0  0  0  0  0  0  0
   -0.8110   57.9060   77.6540 O   0  0  0  0  0  0  0  0  0  0  0  0
   -0.6830   56.6600   76.9630 C   0  0  2  0  0  0  0  0  0  0  0  0
   -0.9150   55.5750   77.8700 O   0  0  0  0  0  0  0  0  0  0  0  0
    0.1910   55.1400   78.6610 C   0  0  2  0  0  0  0  0  0  0  0  0
    0.6250   56.1900   79.6800 C   0  0  0  0  0  0  0  0  0  0  0  0
    1.3500   54.6450   77.7760 C   0  0  0  0  0  0  0  0  0  0  0  0
    1.1350   55.0830   76.3350 C   0  0  1  0  0  0  0  0  0  0  0  0
    0.6930   56.5470   76.2680 C   0  0  1  0  0  0  0  0  0  0  0  0
    2.3540   54.8840   75.4280 N   0  0  0  0  0  4  0  0  0  0  0  0
    2.0900   54.4740   74.0120 C   0  0  0  0  0  0  0  0  0  0  0  0
    3.3500   56.0000   75.5200 C   0  0  0  0  0  0  0  0  0  0  0  0
    0.6820   56.9080   74.8790 O   0  0  0  0  0  0  0  0  0  0  0  0
   -3.8149   64.6108   75.6321 H   0  0  0  0  0  0  0  0  0  0  0  0
    0.5289   62.7597   78.1103 H   0  0  0  0  0  0  0  0  0  0  0  0
    0.8880   64.7852   76.9780 H   0  0  0  0  0  0  0  0  0  0  0  0
    1.3223   63.6152   75.6861 H   0  0  0  0  0  0  0  0  0  0  0  0
   -0.2968   64.3930   75.6861 H   0  0  0  0  0  0  0  0  0  0  0  0
   -0.5397   61.3852   75.6542 H   0  0  0  0  0  0  0  0  0  0  0  0
   -0.8548   60.6583   78.2123 H   0  0  0  0  0  0  0  0  0  0  0  0
    0.9548   59.8781   79.3027 H   0  0  0  0  0  0  0  0  0  0  0  0
    1.3657   58.7791   77.9425 H   0  0  0  0  0  0  0  0  0  0  0  0
    1.9668   60.4719   77.9425 H   0  0  0  0  0  0  0  0  0  0  0  0
   -0.3799   58.8492   75.8297 H   0  0  0  0  0  0  0  0  0  0  0  0
   -3.0541   57.4858   75.5564 H   0  0  0  0  0  0  0  0  0  0  0  0
   -3.3965   57.7882   77.3749 H   0  0  0  0  0  0  0  0  0  0  0  0
   -5.0378   57.8314   75.1538 H   0  0  0  0  0  0  0  0  0  0  0  0
   -5.4985   60.7642   77.5163 H   0  0  0  0  0  0  0  0  0  0  0  0
   -3.9006   61.7677   75.9792 H   0  0  0  0  0  0  0  0  0  0  0  0
   -4.6516   63.9605   79.0732 H   0  0  0  0  0  0  0  0  0  0  0  0
   -5.9136   62.7382   78.6993 H   0  0  0  0  0  0  0  0  0  0  0  0
   -4.1800   62.2681   78.6993 H   0  0  0  0  0  0  0  0  0  0  0  0
   -7.6513   61.2847   77.4453 H   0  0  0  0  0  0  0  0  0  0  0  0
   -7.4605   62.1636   75.8904 H   0  0  0  0  0  0  0  0  0  0  0  0
   -7.7476   60.3904   75.8904 H   0  0  0  0  0  0  0  0  0  0  0  0
   -5.3992   58.1748   78.1597 H   0  0  0  0  0  0  0  0  0  0  0  0
   -6.8316   58.3944   77.0983 H   0  0  0  0  0  0  0  0  0  0  0  0
   -5.9449   56.8323   77.0983 H   0  0  0  0  0  0  0  0  0  0  0  0
   -2.2422   61.0547   75.0133 H   0  0  0  0  0  0  0  0  0  0  0  0
   -1.4920   59.5372   74.4125 H   0  0  0  0  0  0  0  0  0  0  0  0
   -3.2793   59.7168   74.4125 H   0  0  0  0  0  0  0  0  0  0  0  0
   -3.9769   67.5699   77.5935 H   0  0  0  0  0  0  0  0  0  0  0  0
   -2.9064   67.2594   76.1849 H   0  0  0  0  0  0  0  0  0  0  0  0
   -4.5927   66.6408   76.1849 H   0  0  0  0  0  0  0  0  0  0  0  0
   -3.7476   65.4486   78.4237 H   0  0  0  0  0  0  0  0  0  0  0  0
   -2.1438   65.6377   77.5425 H   0  0  0  0  0  0  0  0  0  0  0  0
   -6.3651   64.5311   77.5819 H   0  0  0  0  0  0  0  0  0  0  0  0
   -6.0662   63.4235   74.9213 H   0  0  0  0  0  0  0  0  0  0  0  0
   -2.8136   60.6585   79.3610 H   0  0  0  0  0  0  0  0  0  0  0  0
   -4.1945   59.6410   78.8277 H   0  0  0  0  0  0  0  0  0  0  0  0
   -2.5294   58.9669   78.8277 H   0  0  0  0  0  0  0  0  0  0  0  0
    0.9258   60.4221   74.3334 H   0  0  0  0  0  0  0  0  0  0  0  0
    4.2593   59.2176   73.3974 H   0  0  0  0  0  0  0  0  0  0  0  0
    1.8596   58.1155   73.6275 H   0  0  0  0  0  0  0  0  0  0  0  0
    1.5674   59.1396   72.1809 H   0  0  0  0  0  0  0  0  0  0  0  0
    2.9113   57.9477   72.1809 H   0  0  0  0  0  0  0  0  0  0  0  0
    3.5322   60.5731   71.4174 H   0  0  0  0  0  0  0  0  0  0  0  0
    2.8811   62.7950   74.4800 H   0  0  0  0  0  0  0  0  0  0  0  0
    1.1212   62.8593   74.0100 H   0  0  0  0  0  0  0  0  0  0  0  0
    0.3540   61.3798   72.3447 H   0  0  0  0  0  0  0  0  0  0  0  0
    0.9001   62.4933   71.0453 H   0  0  0  0  0  0  0  0  0  0  0  0
    1.4395   60.7799   71.0453 H   0  0  0  0  0  0  0  0  0  0  0  0
    1.7972   64.3894   70.8082 H   0  0  0  0  0  0  0  0  0  0  0  0
    3.4283   64.0834   70.1210 H   0  0  0  0  0  0  0  0  0  0  0  0
    2.1944   62.7780   70.1210 H   0  0  0  0  0  0  0  0  0  0  0  0
    4.7834   61.5646   73.8896 H   0  0  0  0  0  0  0  0  0  0  0  0
   -1.4435   56.6114   76.1698 H   0  0  0  0  0  0  0  0  0  0  0  0
   -0.1462   54.2769   79.2538 H   0  0  0  0  0  0  0  0  0  0  0  0
    0.4648   55.8023   80.6969 H   0  0  0  0  0  0  0  0  0  0  0  0
    1.6916   56.4192   79.5388 H   0  0  0  0  0  0  0  0  0  0  0  0
    0.0315   57.1053   79.5388 H   0  0  0  0  0  0  0  0  0  0  0  0
    2.2959   55.0668   78.1467 H   0  0  0  0  0  0  0  0  0  0  0  0
    1.3876   53.5463   77.8153 H   0  0  0  0  0  0  0  0  0  0  0  0
    0.3415   54.4235   75.9536 H   0  0  0  0  0  0  0  0  0  0  0  0
    1.3646   57.2436   76.7911 H   0  0  0  0  0  0  0  0  0  0  0  0
    2.7843   54.0425   75.8373 H   0  0  0  0  0  0  0  0  0  0  0  0
    1.4945   53.5492   74.0030 H   0  0  0  0  0  0  0  0  0  0  0  0
    1.5357   55.2721   73.4965 H   0  0  0  0  0  0  0  0  0  0  0  0
    3.0459   54.2996   73.4965 H   0  0  0  0  0  0  0  0  0  0  0  0
    3.5513   56.2255   76.5776 H   0  0  0  0  0  0  0  0  0  0  0  0
    4.2850   55.6988   75.0249 H   0  0  0  0  0  0  0  0  0  0  0  0
    2.9448   56.8948   75.0249 H   0  0  0  0  0  0  0  0  0  0  0  0
    0.6520   57.8939   74.7945 H   0  0  0  0  0  0  0  0  0  0  0  0
  2  1  1  0
  3  2  1  0
  4  3  2  0
  5  3  1  0
  6  5  1  0
  7  5  1  0
  8  7  1  0
  9  8  1  0
 10  8  1  0
 11 10  1  0
 12 11  1  0
 13 12  1  0
 14 13  1  0
 15 14  2  0
 16 14  1  0
 17 16  1  0
 18 17  1  0
 18  1  1  0
 19 18  1  0
 20 16  1  0
 21 13  1  0
 22 11  1  0
 24  1  1  0
 24 23  1  0
 18 25  1  6
 26 17  1  0
 11 27  1  1
 28 27  1  0
 29  7  1  0
 30 29  1  0
 31 30  1  0
 32 31  1  0
 33 32  1  0
 34 32  1  0
 35 34  1  0
 36 35  1  0
 36 30  1  0
 37 35  1  0
 35 38  1  6
 39 38  1  0
 40 34  1  0
 41 10  1  0
 42 41  1  0
 43 42  1  0
 44 43  1  0
 45 44  1  0
 46 44  1  0
 47 46  1  0
 48 42  1  0
 48 47  1  0
 49 47  1  0
 50 49  1  0
 51 49  1  0
 52 48  1  0
  1 53  1  6
  5 54  1  1
  6 55  1  0
  6 56  1  0
  6 57  1  0
  7 58  1  6
  8 59  1  1
  9 60  1  0
  9 61  1  0
  9 62  1  0
 10 63  1  6
 12 64  1  0
 12 65  1  0
 13 66  1  6
 16 67  1  1
 17 68  1  6
 19 69  1  0
 19 70  1  0
 19 71  1  0
 20 72  1  0
 20 73  1  0
 20 74  1  0
 21 75  1  0
 21 76  1  0
 21 77  1  0
 22 78  1  0
 22 79  1  0
 22 80  1  0
 23 81  1  0
 23 82  1  0
 23 83  1  0
 24 84  1  0
 24 85  1  0
 25 86  1  0
 26 87  1  0
 28 88  1  0
 28 89  1  0
 28 90  1  0
 30 91  1  6
 32 92  1  1
 33 93  1  0
 33 94  1  0
 33 95  1  0
 34 96  1  6
 36 97  1  0
 36 98  1  0
 37 99  1  0
 37100  1  0
 37101  1  0
 39102  1  0
 39103  1  0
 39104  1  0
 40105  1  0
 42106  1  6
 44107  1  1
 45108  1  0
 45109  1  0
 45110  1  0
 46111  1  0
 46112  1  0
 47113  1  6
 48114  1  1
 49115  1  0
 50116  1  0
 50117  1  0
 50118  1  0
 51119  1  0
 51120  1  0
 51121  1  0
 52122  1  0
M  CHG  1  49   1
M  END
>  <score>  (9) 
-5.206

$$$$
