=
     RDKit          3D

 57 60  0  0  0  0  0  0  0  0999 V2000
   -0.4450   66.6180   69.3830 O   0  0  0  0  0  0  0  0  0  0  0  0
    0.9510   62.0620   72.4600 C   0  0  0  0  0  0  0  0  0  0  0  0
    0.3160   63.2970   72.6270 C   0  0  0  0  0  0  0  0  0  0  0  0
    0.5710   64.2830   71.6920 C   0  0  0  0  0  0  0  0  0  0  0  0
    1.4180   64.1000   70.6100 C   0  0  0  0  0  0  0  0  0  0  0  0
    2.0560   62.8820   70.4310 C   0  0  0  0  0  0  0  0  0  0  0  0
    1.8220   61.8520   71.3550 C   0  0  0  0  0  0  0  0  0  0  0  0
    1.5530   65.3290   69.7650 C   0  0  0  0  0  0  0  0  0  0  0  0
    0.5470   66.3390   70.3720 C   0  0  2  0  0  0  0  0  0  0  0  0
    0.0280   65.6330   71.6360 C   0  0  0  0  0  0  0  0  0  0  0  0
   -0.7360   66.0820   72.4790 O   0  0  0  0  0  0  0  0  0  0  0  0
   -0.4770   60.3490   73.3270 C   0  0  0  0  0  0  0  0  0  0  0  0
    0.7890   60.9920   73.3050 O   0  0  0  0  0  0  0  0  0  0  0  0
    2.3920   60.6050   71.2800 O   0  0  0  0  0  0  0  0  0  0  0  0
    3.2980   60.3500   70.2160 C   0  0  0  0  0  0  0  0  0  0  0  0
    0.0450   67.2220   68.2610 C   0  0  0  0  0  0  0  0  0  0  0  0
   -0.6240   67.2260   67.0410 C   0  0  0  0  0  0  0  0  0  0  0  0
   -0.0090   67.7720   65.9110 C   0  0  0  0  0  0  0  0  0  0  0  0
    1.2770   68.3320   65.9960 C   0  0  0  0  0  0  0  0  0  0  0  0
    1.8970   68.3990   67.2570 C   0  0  0  0  0  0  0  0  0  0  0  0
    1.2790   67.8550   68.3830 C   0  0  0  0  0  0  0  0  0  0  0  0
    2.0620   68.7610   64.7700 C   0  0  2  0  0  0  0  0  0  0  0  0
    1.2530   68.8680   63.4730 C   0  0  0  0  0  0  0  0  0  0  0  0
    3.2910   67.8700   64.5930 N   0  0  0  0  0  4  0  0  0  0  0  0
    4.3450   68.4010   63.6260 C   0  0  0  0  0  0  0  0  0  0  0  0
    4.4130   67.5260   62.3720 C   0  0  0  0  0  0  0  0  0  0  0  0
    4.7640   66.1680   62.6610 O   0  0  0  0  0  0  0  0  0  0  0  0
    4.2700   65.6710   63.9090 C   0  0  0  0  0  0  0  0  0  0  0  0
    2.9970   66.3790   64.3830 C   0  0  0  0  0  0  0  0  0  0  0  0
   -0.3631   63.4776   73.4733 H   0  0  0  0  0  0  0  0  0  0  0  0
    2.7341   62.7257   69.5791 H   0  0  0  0  0  0  0  0  0  0  0  0
    2.5782   65.7244   69.8171 H   0  0  0  0  0  0  0  0  0  0  0  0
    1.3492   65.1272   68.7030 H   0  0  0  0  0  0  0  0  0  0  0  0
    0.9571   67.3202   70.6532 H   0  0  0  0  0  0  0  0  0  0  0  0
   -0.7895   60.1903   74.3696 H   0  0  0  0  0  0  0  0  0  0  0  0
   -1.2178   60.9801   72.8142 H   0  0  0  0  0  0  0  0  0  0  0  0
   -0.4043   59.3786   72.8142 H   0  0  0  0  0  0  0  0  0  0  0  0
    4.2796   60.0737   70.6285 H   0  0  0  0  0  0  0  0  0  0  0  0
    2.9147   59.5249   69.5978 H   0  0  0  0  0  0  0  0  0  0  0  0
    3.4013   61.2540   69.5978 H   0  0  0  0  0  0  0  0  0  0  0  0
   -1.6354   66.8001   66.9660 H   0  0  0  0  0  0  0  0  0  0  0  0
   -0.5367   67.7633   64.9459 H   0  0  0  0  0  0  0  0  0  0  0  0
    2.8788   68.8851   67.3560 H   0  0  0  0  0  0  0  0  0  0  0  0
    1.7663   67.9261   69.3666 H   0  0  0  0  0  0  0  0  0  0  0  0
    2.3755   69.7961   64.9708 H   0  0  0  0  0  0  0  0  0  0  0  0
    0.1892   69.0087   63.7149 H   0  0  0  0  0  0  0  0  0  0  0  0
    1.6123   69.7264   62.8865 H   0  0  0  0  0  0  0  0  0  0  0  0
    1.3768   67.9457   62.8865 H   0  0  0  0  0  0  0  0  0  0  0  0
    3.7252   67.9281   65.5252 H   0  0  0  0  0  0  0  0  0  0  0  0
    4.0843   69.4295   63.3358 H   0  0  0  0  0  0  0  0  0  0  0  0
    5.3253   68.3840   64.1247 H   0  0  0  0  0  0  0  0  0  0  0  0
    3.4285   67.5377   61.8815 H   0  0  0  0  0  0  0  0  0  0  0  0
    5.1979   67.9397   61.7218 H   0  0  0  0  0  0  0  0  0  0  0  0
    4.0515   64.5989   63.7958 H   0  0  0  0  0  0  0  0  0  0  0  0
    5.0472   65.8586   64.6645 H   0  0  0  0  0  0  0  0  0  0  0  0
    2.2088   66.2637   63.6244 H   0  0  0  0  0  0  0  0  0  0  0  0
    2.6604   65.9339   65.3309 H   0  0  0  0  0  0  0  0  0  0  0  0
  3  2  2  0
  4  3  1  0
  5  4  2  0
  6  5  1  0
  7  6  2  0
  7  2  1  0
  8  5  1  0
  9  8  1  0
  9  1  1  0
 10  4  1  0
 10  9  1  0
 11 10  2  0
 13 12  1  0
 13  2  1  0
 14  7  1  0
 15 14  1  0
 16  1  1  0
 17 16  2  0
 18 17  1  0
 19 18  2  0
 20 19  1  0
 21 20  2  0
 21 16  1  0
 22 19  1  0
 23 22  1  0
 24 22  1  0
 25 24  1  0
 26 25  1  0
 27 26  1  0
 28 27  1  0
 29 28  1  0
 29 24  1  0
  3 30  1  0
  6 31  1  0
  8 32  1  0
  8 33  1  0
  9 34  1  1
 12 35  1  0
 12 36  1  0
 12 37  1  0
 15 38  1  0
 15 39  1  0
 15 40  1  0
 17 41  1  0
 18 42  1  0
 20 43  1  0
 21 44  1  0
 22 45  1  1
 23 46  1  0
 23 47  1  0
 23 48  1  0
 24 49  1  0
 25 50  1  0
 25 51  1  0
 26 52  1  0
 26 53  1  0
 28 54  1  0
 28 55  1  0
 29 56  1  0
 29 57  1  0
M  CHG  1  24   1
M  END
>  <score>  (1) 
-9.647

$$$$
=
     RDKit          3D

 57 60  0  0  0  0  0  0  0  0999 V2000
    1.3620   66.0220   70.2230 O   0  0  0  0  0  0  0  0  0  0  0  0
    3.1040   61.5050   73.1770 C   0  0  0  0  0  0  0  0  0  0  0  0
    3.1810   62.0110   71.8760 C   0  0  0  0  0  0  0  0  0  0  0  0
    2.2420   62.9540   71.4960 C   0  0  0  0  0  0  0  0  0  0  0  0
    1.2440   63.4110   72.3410 C   0  0  0  0  0  0  0  0  0  0  0  0
    1.1540   62.9190   73.6340 C   0  0  0  0  0  0  0  0  0  0  0  0
    2.0880   61.9630   74.0620 C   0  0  0  0  0  0  0  0  0  0  0  0
    0.3370   64.4030   71.6820 C   0  0  0  0  0  0  0  0  0  0  0  0
    0.9670   64.6510   70.2880 C   0  0  2  0  0  0  0  0  0  0  0  0
    2.1200   63.6350   70.2160 C   0  0  0  0  0  0  0  0  0  0  0  0
    2.8580   63.4140   69.2660 O   0  0  0  0  0  0  0  0  0  0  0  0
    4.1650   59.3730   72.9570 C   0  0  0  0  0  0  0  0  0  0  0  0
    3.9680   60.5700   73.6930 O   0  0  0  0  0  0  0  0  0  0  0  0
    2.1020   61.4070   75.3180 O   0  0  0  0  0  0  0  0  0  0  0  0
    0.9710   60.6490   75.7230 C   0  0  0  0  0  0  0  0  0  0  0  0
    0.7060   66.7430   69.2660 C   0  0  0  0  0  0  0  0  0  0  0  0
   -0.5420   66.3880   68.7640 C   0  0  0  0  0  0  0  0  0  0  0  0
   -1.1010   67.1150   67.7100 C   0  0  0  0  0  0  0  0  0  0  0  0
   -0.4210   68.2130   67.1580 C   0  0  0  0  0  0  0  0  0  0  0  0
    0.7970   68.6090   67.7400 C   0  0  0  0  0  0  0  0  0  0  0  0
    1.3510   67.8820   68.7940 C   0  0  0  0  0  0  0  0  0  0  0  0
   -0.8900   68.9120   65.8950 C   0  0  2  0  0  0  0  0  0  0  0  0
   -2.4080   68.9620   65.6950 C   0  0  0  0  0  0  0  0  0  0  0  0
   -0.1810   68.3280   64.6730 N   0  0  0  0  0  4  0  0  0  0  0  0
    1.2540   67.8730   64.9100 C   0  0  0  0  0  0  0  0  0  0  0  0
    2.2360   68.7760   64.1590 C   0  0  0  0  0  0  0  0  0  0  0  0
    2.0270   68.7650   62.7420 O   0  0  0  0  0  0  0  0  0  0  0  0
    0.6620   68.6200   62.3360 C   0  0  0  0  0  0  0  0  0  0  0  0
   -0.3380   69.1330   63.3760 C   0  0  0  0  0  0  0  0  0  0  0  0
    3.9609   61.6714   71.1786 H   0  0  0  0  0  0  0  0  0  0  0  0
    0.3638   63.2720   74.3130 H   0  0  0  0  0  0  0  0  0  0  0  0
   -0.6783   63.9921   71.5807 H   0  0  0  0  0  0  0  0  0  0  0  0
    0.2424   65.3306   72.2657 H   0  0  0  0  0  0  0  0  0  0  0  0
    0.3035   64.5016   69.4234 H   0  0  0  0  0  0  0  0  0  0  0  0
    4.3033   58.5329   73.6535 H   0  0  0  0  0  0  0  0  0  0  0  0
    3.2860   59.1832   72.3235 H   0  0  0  0  0  0  0  0  0  0  0  0
    5.0585   59.4749   72.3235 H   0  0  0  0  0  0  0  0  0  0  0  0
    0.9247   60.6180   76.8216 H   0  0  0  0  0  0  0  0  0  0  0  0
    0.0562   61.1171   75.3305 H   0  0  0  0  0  0  0  0  0  0  0  0
    1.0563   59.6249   75.3305 H   0  0  0  0  0  0  0  0  0  0  0  0
   -1.0877   65.5363   69.1962 H   0  0  0  0  0  0  0  0  0  0  0  0
   -2.0831   66.8247   67.3086 H   0  0  0  0  0  0  0  0  0  0  0  0
    1.3176   69.5005   67.3603 H   0  0  0  0  0  0  0  0  0  0  0  0
    2.2965   68.2088   69.2513 H   0  0  0  0  0  0  0  0  0  0  0  0
   -0.6059   69.9670   66.0224 H   0  0  0  0  0  0  0  0  0  0  0  0
   -2.9067   68.9784   66.6753 H   0  0  0  0  0  0  0  0  0  0  0  0
   -2.6741   69.8694   65.1330 H   0  0  0  0  0  0  0  0  0  0  0  0
   -2.7332   68.0741   65.1330 H   0  0  0  0  0  0  0  0  0  0  0  0
   -0.7160   67.4618   64.5168 H   0  0  0  0  0  0  0  0  0  0  0  0
    1.4739   67.9164   65.9869 H   0  0  0  0  0  0  0  0  0  0  0  0
    1.3653   66.8430   64.5404 H   0  0  0  0  0  0  0  0  0  0  0  0
    2.1156   69.8066   64.5241 H   0  0  0  0  0  0  0  0  0  0  0  0
    3.2496   68.3924   64.3475 H   0  0  0  0  0  0  0  0  0  0  0  0
    0.5140   69.1825   61.4024 H   0  0  0  0  0  0  0  0  0  0  0  0
    0.4736   67.5440   62.2065 H   0  0  0  0  0  0  0  0  0  0  0  0
   -0.1442   70.1967   63.5783 H   0  0  0  0  0  0  0  0  0  0  0  0
   -1.3618   69.0149   62.9914 H   0  0  0  0  0  0  0  0  0  0  0  0
  3  2  2  0
  4  3  1  0
  5  4  2  0
  6  5  1  0
  7  6  2  0
  7  2  1  0
  8  5  1  0
  9  8  1  0
  9  1  1  0
 10  4  1  0
 10  9  1  0
 11 10  2  0
 13 12  1  0
 13  2  1  0
 14  7  1  0
 15 14  1  0
 16  1  1  0
 17 16  2  0
 18 17  1  0
 19 18  2  0
 20 19  1  0
 21 20  2  0
 21 16  1  0
 22 19  1  0
 23 22  1  0
 24 22  1  0
 25 24  1  0
 26 25  1  0
 27 26  1  0
 28 27  1  0
 29 28  1  0
 29 24  1  0
  3 30  1  0
  6 31  1  0
  8 32  1  0
  8 33  1  0
  9 34  1  6
 12 35  1  0
 12 36  1  0
 12 37  1  0
 15 38  1  0
 15 39  1  0
 15 40  1  0
 17 41  1  0
 18 42  1  0
 20 43  1  0
 21 44  1  0
 22 45  1  1
 23 46  1  0
 23 47  1  0
 23 48  1  0
 24 49  1  0
 25 50  1  0
 25 51  1  0
 26 52  1  0
 26 53  1  0
 28 54  1  0
 28 55  1  0
 29 56  1  0
 29 57  1  0
M  CHG  1  24   1
M  END
>  <score>  (2) 
-9.57

$$$$
=
     RDKit          3D

 57 60  0  0  0  0  0  0  0  0999 V2000
    1.9370   62.5150   72.4280 O   0  0  0  0  0  0  0  0  0  0  0  0
    1.5500   57.1310   74.1670 C   0  0  0  0  0  0  0  0  0  0  0  0
    2.3140   57.9050   73.2890 C   0  0  0  0  0  0  0  0  0  0  0  0
    1.7810   59.1090   72.8650 C   0  0  0  0  0  0  0  0  0  0  0  0
    0.5400   59.5730   73.2690 C   0  0  0  0  0  0  0  0  0  0  0  0
   -0.2300   58.8160   74.1390 C   0  0  0  0  0  0  0  0  0  0  0  0
    0.2740   57.5890   74.5980 C   0  0  0  0  0  0  0  0  0  0  0  0
    0.1780   60.8840   72.6430 C   0  0  0  0  0  0  0  0  0  0  0  0
    1.4410   61.3060   71.8510 C   0  0  2  0  0  0  0  0  0  0  0  0
    2.3790   60.0920   71.9720 C   0  0  0  0  0  0  0  0  0  0  0  0
    3.4700   59.9390   71.4420 O   0  0  0  0  0  0  0  0  0  0  0  0
    1.9430   54.7990   73.8010 C   0  0  0  0  0  0  0  0  0  0  0  0
    1.9520   55.9190   74.6740 O   0  0  0  0  0  0  0  0  0  0  0  0
   -0.3940   56.7560   75.4620 O   0  0  0  0  0  0  0  0  0  0  0  0
   -1.5460   56.0810   74.9790 C   0  0  0  0  0  0  0  0  0  0  0  0
    1.5330   63.6460   71.7780 C   0  0  0  0  0  0  0  0  0  0  0  0
    0.4050   64.3740   72.1430 C   0  0  0  0  0  0  0  0  0  0  0  0
   -0.0050   65.4590   71.3630 C   0  0  0  0  0  0  0  0  0  0  0  0
    0.7190   65.8320   70.2180 C   0  0  0  0  0  0  0  0  0  0  0  0
    1.9060   65.1390   69.9200 C   0  0  0  0  0  0  0  0  0  0  0  0
    2.3140   64.0580   70.7020 C   0  0  0  0  0  0  0  0  0  0  0  0
    0.2130   66.8730   69.2360 C   0  0  2  0  0  0  0  0  0  0  0  0
   -1.0770   66.5070   68.4950 C   0  0  0  0  0  0  0  0  0  0  0  0
    1.3250   67.2680   68.2650 N   0  0  0  0  0  4  0  0  0  0  0  0
    2.0850   68.5390   68.6300 C   0  0  0  0  0  0  0  0  0  0  0  0
    1.7870   69.6520   67.6220 C   0  0  0  0  0  0  0  0  0  0  0  0
    2.1720   69.3090   66.2870 O   0  0  0  0  0  0  0  0  0  0  0  0
    2.0280   67.9230   65.9550 C   0  0  0  0  0  0  0  0  0  0  0  0
    0.9500   67.2120   66.7790 C   0  0  0  0  0  0  0  0  0  0  0  0
    3.3040   57.5686   72.9473 H   0  0  0  0  0  0  0  0  0  0  0  0
   -1.2191   59.1711   74.4640 H   0  0  0  0  0  0  0  0  0  0  0  0
   -0.6820   60.7665   71.9672 H   0  0  0  0  0  0  0  0  0  0  0  0
   -0.1132   61.6355   73.3916 H   0  0  0  0  0  0  0  0  0  0  0  0
    1.2893   61.5363   70.7861 H   0  0  0  0  0  0  0  0  0  0  0  0
    1.9356   53.8723   74.3936 H   0  0  0  0  0  0  0  0  0  0  0  0
    1.0451   54.8358   73.1666 H   0  0  0  0  0  0  0  0  0  0  0  0
    2.8414   54.8214   73.1666 H   0  0  0  0  0  0  0  0  0  0  0  0
   -2.1479   55.7283   75.8295 H   0  0  0  0  0  0  0  0  0  0  0  0
   -2.1454   56.7708   74.3666 H   0  0  0  0  0  0  0  0  0  0  0  0
   -1.2372   55.2209   74.3666 H   0  0  0  0  0  0  0  0  0  0  0  0
   -0.1628   64.0964   73.0433 H   0  0  0  0  0  0  0  0  0  0  0  0
   -0.9032   66.0264   71.6483 H   0  0  0  0  0  0  0  0  0  0  0  0
    2.5188   65.4524   69.0619 H   0  0  0  0  0  0  0  0  0  0  0  0
    3.2515   63.5321   70.4686 H   0  0  0  0  0  0  0  0  0  0  0  0
   -0.0719   67.7399   69.8503 H   0  0  0  0  0  0  0  0  0  0  0  0
   -1.8683   66.2825   69.2254 H   0  0  0  0  0  0  0  0  0  0  0  0
   -1.3896   67.3519   67.8638 H   0  0  0  0  0  0  0  0  0  0  0  0
   -0.8993   65.6238   67.8638 H   0  0  0  0  0  0  0  0  0  0  0  0
    1.9998   66.5015   68.3992 H   0  0  0  0  0  0  0  0  0  0  0  0
    1.7781   68.8683   69.6337 H   0  0  0  0  0  0  0  0  0  0  0  0
    3.1638   68.3247   68.6137 H   0  0  0  0  0  0  0  0  0  0  0  0
    0.7064   69.8572   67.6344 H   0  0  0  0  0  0  0  0  0  0  0  0
    2.3734   70.5339   67.9195 H   0  0  0  0  0  0  0  0  0  0  0  0
    1.7623   67.8446   64.8905 H   0  0  0  0  0  0  0  0  0  0  0  0
    2.9866   67.4326   66.1798 H   0  0  0  0  0  0  0  0  0  0  0  0
   -0.0180   67.7114   66.6257 H   0  0  0  0  0  0  0  0  0  0  0  0
    0.8750   66.1625   66.4583 H   0  0  0  0  0  0  0  0  0  0  0  0
  3  2  2  0
  4  3  1  0
  5  4  2  0
  6  5  1  0
  7  6  2  0
  7  2  1  0
  8  5  1  0
  9  8  1  0
  9  1  1  0
 10  4  1  0
 10  9  1  0
 11 10  2  0
 13 12  1  0
 13  2  1  0
 14  7  1  0
 15 14  1  0
 16  1  1  0
 17 16  2  0
 18 17  1  0
 19 18  2  0
 20 19  1  0
 21 20  2  0
 21 16  1  0
 22 19  1  0
 23 22  1  0
 24 22  1  0
 25 24  1  0
 26 25  1  0
 27 26  1  0
 28 27  1  0
 29 28  1  0
 29 24  1  0
  3 30  1  0
  6 31  1  0
  8 32  1  0
  8 33  1  0
  9 34  1  6
 12 35  1  0
 12 36  1  0
 12 37  1  0
 15 38  1  0
 15 39  1  0
 15 40  1  0
 17 41  1  0
 18 42  1  0
 20 43  1  0
 21 44  1  0
 22 45  1  1
 23 46  1  0
 23 47  1  0
 23 48  1  0
 24 49  1  0
 25 50  1  0
 25 51  1  0
 26 52  1  0
 26 53  1  0
 28 54  1  0
 28 55  1  0
 29 56  1  0
 29 57  1  0
M  CHG  1  24   1
M  END
>  <score>  (3) 
-8.42

$$$$
=
     RDKit          3D

 57 60  0  0  0  0  0  0  0  0999 V2000
   -0.3230   64.7140   69.6020 O   0  0  0  0  0  0  0  0  0  0  0  0
    1.8950   68.7120   66.2470 C   0  0  0  0  0  0  0  0  0  0  0  0
    2.1270   68.1360   67.4990 C   0  0  0  0  0  0  0  0  0  0  0  0
    1.0740   67.4750   68.1080 C   0  0  0  0  0  0  0  0  0  0  0  0
   -0.1830   67.3630   67.5350 C   0  0  0  0  0  0  0  0  0  0  0  0
   -0.4280   67.9300   66.2930 C   0  0  0  0  0  0  0  0  0  0  0  0
    0.6130   68.6060   65.6390 C   0  0  0  0  0  0  0  0  0  0  0  0
   -1.1550   66.6320   68.4070 C   0  0  0  0  0  0  0  0  0  0  0  0
   -0.3140   66.1420   69.6130 C   0  0  2  0  0  0  0  0  0  0  0  0
    1.0650   66.7870   69.3910 C   0  0  0  0  0  0  0  0  0  0  0  0
    2.0360   66.7410   70.1320 O   0  0  0  0  0  0  0  0  0  0  0  0
    4.1600   69.4590   66.0550 C   0  0  0  0  0  0  0  0  0  0  0  0
    2.8450   69.3930   65.5250 O   0  0  0  0  0  0  0  0  0  0  0  0
    0.4910   69.2040   64.4080 O   0  0  0  0  0  0  0  0  0  0  0  0
    0.3620   68.3630   63.2700 C   0  0  0  0  0  0  0  0  0  0  0  0
    0.6250   64.1480   70.4060 C   0  0  0  0  0  0  0  0  0  0  0  0
    1.8130   63.6070   69.9210 C   0  0  0  0  0  0  0  0  0  0  0  0
    2.6840   62.9490   70.7930 C   0  0  0  0  0  0  0  0  0  0  0  0
    2.3810   62.8380   72.1600 C   0  0  0  0  0  0  0  0  0  0  0  0
    1.2210   63.4700   72.6430 C   0  0  0  0  0  0  0  0  0  0  0  0
    0.3540   64.1280   71.7700 C   0  0  0  0  0  0  0  0  0  0  0  0
    3.1930   61.9740   73.1080 C   0  0  2  0  0  0  0  0  0  0  0  0
    4.5810   61.5660   72.6030 C   0  0  0  0  0  0  0  0  0  0  0  0
    2.3750   60.7580   73.5450 N   0  0  0  0  0  4  0  0  0  0  0  0
    2.6760   60.2430   74.9470 C   0  0  0  0  0  0  0  0  0  0  0  0
    3.3520   58.8710   74.8830 C   0  0  0  0  0  0  0  0  0  0  0  0
    2.5390   57.8810   74.2440 O   0  0  0  0  0  0  0  0  0  0  0  0
    1.7120   58.3730   73.1830 C   0  0  0  0  0  0  0  0  0  0  0  0
    2.2740   59.6300   72.5110 C   0  0  0  0  0  0  0  0  0  0  0  0
    3.1120   68.2054   67.9837 H   0  0  0  0  0  0  0  0  0  0  0  0
   -1.4220   67.8509   65.8285 H   0  0  0  0  0  0  0  0  0  0  0  0
   -1.9574   67.3056   68.7423 H   0  0  0  0  0  0  0  0  0  0  0  0
   -1.6448   65.8015   67.8775 H   0  0  0  0  0  0  0  0  0  0  0  0
   -0.6859   66.4252   70.6088 H   0  0  0  0  0  0  0  0  0  0  0  0
    4.1129   69.4566   67.1540 H   0  0  0  0  0  0  0  0  0  0  0  0
    4.7381   68.5887   65.7109 H   0  0  0  0  0  0  0  0  0  0  0  0
    4.6481   70.3828   65.7109 H   0  0  0  0  0  0  0  0  0  0  0  0
    0.2028   67.3250   63.5973 H   0  0  0  0  0  0  0  0  0  0  0  0
   -0.4961   68.6927   62.6658 H   0  0  0  0  0  0  0  0  0  0  0  0
    1.2794   68.4203   62.6658 H   0  0  0  0  0  0  0  0  0  0  0  0
    2.0650   63.6975   68.8541 H   0  0  0  0  0  0  0  0  0  0  0  0
    3.6166   62.5134   70.4050 H   0  0  0  0  0  0  0  0  0  0  0  0
    0.9952   63.4453   73.7193 H   0  0  0  0  0  0  0  0  0  0  0  0
   -0.5433   64.6306   72.1603 H   0  0  0  0  0  0  0  0  0  0  0  0
    3.4062   62.6140   73.9769 H   0  0  0  0  0  0  0  0  0  0  0  0
    5.2410   61.3720   73.4613 H   0  0  0  0  0  0  0  0  0  0  0  0
    4.4959   60.6549   71.9926 H   0  0  0  0  0  0  0  0  0  0  0  0
    5.0025   62.3783   71.9926 H   0  0  0  0  0  0  0  0  0  0  0  0
    1.4260   61.1544   73.6017 H   0  0  0  0  0  0  0  0  0  0  0  0
    3.3447   60.9521   75.4569 H   0  0  0  0  0  0  0  0  0  0  0  0
    1.7302   60.1470   75.5004 H   0  0  0  0  0  0  0  0  0  0  0  0
    4.2930   58.9687   74.3217 H   0  0  0  0  0  0  0  0  0  0  0  0
    3.5262   58.5392   75.9172 H   0  0  0  0  0  0  0  0  0  0  0  0
    1.6137   57.5845   72.4223 H   0  0  0  0  0  0  0  0  0  0  0  0
    0.7421   58.6452   73.6248 H   0  0  0  0  0  0  0  0  0  0  0  0
    3.2732   59.4136   72.1050 H   0  0  0  0  0  0  0  0  0  0  0  0
    1.6063   59.9395   71.6934 H   0  0  0  0  0  0  0  0  0  0  0  0
  3  2  2  0
  4  3  1  0
  5  4  2  0
  6  5  1  0
  7  6  2  0
  7  2  1  0
  8  5  1  0
  9  8  1  0
  9  1  1  0
 10  4  1  0
 10  9  1  0
 11 10  2  0
 13 12  1  0
 13  2  1  0
 14  7  1  0
 15 14  1  0
 16  1  1  0
 17 16  2  0
 18 17  1  0
 19 18  2  0
 20 19  1  0
 21 20  2  0
 21 16  1  0
 22 19  1  0
 23 22  1  0
 24 22  1  0
 25 24  1  0
 26 25  1  0
 27 26  1  0
 28 27  1  0
 29 28  1  0
 29 24  1  0
  3 30  1  0
  6 31  1  0
  8 32  1  0
  8 33  1  0
  9 34  1  1
 12 35  1  0
 12 36  1  0
 12 37  1  0
 15 38  1  0
 15 39  1  0
 15 40  1  0
 17 41  1  0
 18 42  1  0
 20 43  1  0
 21 44  1  0
 22 45  1  1
 23 46  1  0
 23 47  1  0
 23 48  1  0
 24 49  1  0
 25 50  1  0
 25 51  1  0
 26 52  1  0
 26 53  1  0
 28 54  1  0
 28 55  1  0
 29 56  1  0
 29 57  1  0
M  CHG  1  24   1
M  END
>  <score>  (4) 
-8.336

$$$$
=
     RDKit          3D

 57 60  0  0  0  0  0  0  0  0999 V2000
   -0.4310   65.8860   70.4480 O   0  0  0  0  0  0  0  0  0  0  0  0
    1.8520   61.0650   72.3770 C   0  0  0  0  0  0  0  0  0  0  0  0
    1.0960   62.1410   72.8530 C   0  0  0  0  0  0  0  0  0  0  0  0
    1.1210   63.3160   72.1230 C   0  0  0  0  0  0  0  0  0  0  0  0
    1.8520   63.4680   70.9560 C   0  0  0  0  0  0  0  0  0  0  0  0
    2.6070   62.4100   70.4720 C   0  0  0  0  0  0  0  0  0  0  0  0
    2.6080   61.1980   71.1790 C   0  0  0  0  0  0  0  0  0  0  0  0
    1.7390   64.8430   70.3750 C   0  0  0  0  0  0  0  0  0  0  0  0
    0.6950   65.5640   71.2650 C   0  0  2  0  0  0  0  0  0  0  0  0
    0.4160   64.5600   72.3970 C   0  0  0  0  0  0  0  0  0  0  0  0
   -0.2940   64.7250   73.3790 O   0  0  0  0  0  0  0  0  0  0  0  0
    0.7130   59.2800   73.4900 C   0  0  0  0  0  0  0  0  0  0  0  0
    1.9190   59.8400   72.9930 O   0  0  0  0  0  0  0  0  0  0  0  0
    3.3120   60.0830   70.7970 O   0  0  0  0  0  0  0  0  0  0  0  0
    3.3790   59.7810   69.4110 C   0  0  0  0  0  0  0  0  0  0  0  0
   -0.1050   66.4890   69.2680 C   0  0  0  0  0  0  0  0  0  0  0  0
    1.0980   67.1580   69.0590 C   0  0  0  0  0  0  0  0  0  0  0  0
    1.3140   67.8420   67.8600 C   0  0  0  0  0  0  0  0  0  0  0  0
    0.3330   67.8530   66.8540 C   0  0  0  0  0  0  0  0  0  0  0  0
   -0.8360   67.0960   67.0500 C   0  0  0  0  0  0  0  0  0  0  0  0
   -1.0480   66.4110   68.2470 C   0  0  0  0  0  0  0  0  0  0  0  0
    0.4370   68.7330   65.6220 C   0  0  2  0  0  0  0  0  0  0  0  0
   -0.8830   69.0090   64.8960 C   0  0  0  0  0  0  0  0  0  0  0  0
    1.4980   68.1840   64.6680 N   0  0  0  0  0  4  0  0  0  0  0  0
    2.9220   68.1780   65.2130 C   0  0  0  0  0  0  0  0  0  0  0  0
    3.7910   69.1870   64.4590 C   0  0  0  0  0  0  0  0  0  0  0  0
    3.8830   68.9030   63.0590 O   0  0  0  0  0  0  0  0  0  0  0  0
    2.7040   68.3320   62.4810 C   0  0  0  0  0  0  0  0  0  0  0  0
    1.4200   68.7070   63.2280 C   0  0  0  0  0  0  0  0  0  0  0  0
    0.5025   62.0561   73.7752 H   0  0  0  0  0  0  0  0  0  0  0  0
    3.1954   62.5193   69.5490 H   0  0  0  0  0  0  0  0  0  0  0  0
    2.7080   65.3620   70.4163 H   0  0  0  0  0  0  0  0  0  0  0  0
    1.4398   64.8234   69.3167 H   0  0  0  0  0  0  0  0  0  0  0  0
    1.0126   66.5207   71.7053 H   0  0  0  0  0  0  0  0  0  0  0  0
    0.7308   59.2883   74.5898 H   0  0  0  0  0  0  0  0  0  0  0  0
   -0.1414   59.8735   73.1327 H   0  0  0  0  0  0  0  0  0  0  0  0
    0.6151   58.2443   73.1327 H   0  0  0  0  0  0  0  0  0  0  0  0
    3.6155   58.7149   69.2791 H   0  0  0  0  0  0  0  0  0  0  0  0
    2.4099   60.0026   68.9402 H   0  0  0  0  0  0  0  0  0  0  0  0
    4.1635   60.3916   68.9402 H   0  0  0  0  0  0  0  0  0  0  0  0
    1.8766   67.1481   69.8360 H   0  0  0  0  0  0  0  0  0  0  0  0
    2.2618   68.3774   67.7019 H   0  0  0  0  0  0  0  0  0  0  0  0
   -1.5908   67.0434   66.2516 H   0  0  0  0  0  0  0  0  0  0  0  0
   -1.9592   65.8101   68.3837 H   0  0  0  0  0  0  0  0  0  0  0  0
    0.7448   69.7211   65.9947 H   0  0  0  0  0  0  0  0  0  0  0  0
   -1.6802   69.1757   65.6354 H   0  0  0  0  0  0  0  0  0  0  0  0
   -0.7746   69.9039   64.2656 H   0  0  0  0  0  0  0  0  0  0  0  0
   -1.1422   68.1456   64.2656 H   0  0  0  0  0  0  0  0  0  0  0  0
    1.2285   67.1918   64.6071 H   0  0  0  0  0  0  0  0  0  0  0  0
    2.9019   68.4443   66.2801 H   0  0  0  0  0  0  0  0  0  0  0  0
    3.3487   67.1729   65.0799 H   0  0  0  0  0  0  0  0  0  0  0  0
    3.3565   70.1895   64.5864 H   0  0  0  0  0  0  0  0  0  0  0  0
    4.8068   69.1264   64.8766 H   0  0  0  0  0  0  0  0  0  0  0  0
    2.6189   68.6837   61.4422 H   0  0  0  0  0  0  0  0  0  0  0  0
    2.8084   67.2386   62.5413 H   0  0  0  0  0  0  0  0  0  0  0  0
    1.3087   69.8013   63.2404 H   0  0  0  0  0  0  0  0  0  0  0  0
    0.5542   68.2574   62.7198 H   0  0  0  0  0  0  0  0  0  0  0  0
  3  2  2  0
  4  3  1  0
  5  4  2  0
  6  5  1  0
  7  6  2  0
  7  2  1  0
  8  5  1  0
  9  8  1  0
  9  1  1  0
 10  4  1  0
 10  9  1  0
 11 10  2  0
 13 12  1  0
 13  2  1  0
 14  7  1  0
 15 14  1  0
 16  1  1  0
 17 16  2  0
 18 17  1  0
 19 18  2  0
 20 19  1  0
 21 20  2  0
 21 16  1  0
 22 19  1  0
 23 22  1  0
 24 22  1  0
 25 24  1  0
 26 25  1  0
 27 26  1  0
 28 27  1  0
 29 28  1  0
 29 24  1  0
  3 30  1  0
  6 31  1  0
  8 32  1  0
  8 33  1  0
  9 34  1  1
 12 35  1  0
 12 36  1  0
 12 37  1  0
 15 38  1  0
 15 39  1  0
 15 40  1  0
 17 41  1  0
 18 42  1  0
 20 43  1  0
 21 44  1  0
 22 45  1  1
 23 46  1  0
 23 47  1  0
 23 48  1  0
 24 49  1  0
 25 50  1  0
 25 51  1  0
 26 52  1  0
 26 53  1  0
 28 54  1  0
 28 55  1  0
 29 56  1  0
 29 57  1  0
M  CHG  1  24   1
M  END
>  <score>  (5) 
-8.33

$$$$
=
     RDKit          3D

 57 60  0  0  0  0  0  0  0  0999 V2000
   -0.0480   64.8310   70.5020 O   0  0  0  0  0  0  0  0  0  0  0  0
    1.2100   59.9640   73.1290 C   0  0  0  0  0  0  0  0  0  0  0  0
    0.6130   61.1950   73.4150 C   0  0  0  0  0  0  0  0  0  0  0  0
    0.8980   62.2580   72.5760 C   0  0  0  0  0  0  0  0  0  0  0  0
    1.7380   62.1530   71.4790 C   0  0  0  0  0  0  0  0  0  0  0  0
    2.3390   60.9380   71.1830 C   0  0  0  0  0  0  0  0  0  0  0  0
    2.0740   59.8330   72.0060 C   0  0  0  0  0  0  0  0  0  0  0  0
    1.9100   63.4510   70.7540 C   0  0  0  0  0  0  0  0  0  0  0  0
    0.9350   64.4300   71.4570 C   0  0  2  0  0  0  0  0  0  0  0  0
    0.3960   63.6220   72.6510 C   0  0  0  0  0  0  0  0  0  0  0  0
   -0.3540   64.0120   73.5350 O   0  0  0  0  0  0  0  0  0  0  0  0
    1.7410   58.6890   75.0830 C   0  0  0  0  0  0  0  0  0  0  0  0
    1.0160   58.8230   73.8690 O   0  0  0  0  0  0  0  0  0  0  0  0
    2.6060   58.5820   71.8110 O   0  0  0  0  0  0  0  0  0  0  0  0
    3.7720   58.4720   71.0070 C   0  0  0  0  0  0  0  0  0  0  0  0
    0.2800   65.9610   69.8100 C   0  0  0  0  0  0  0  0  0  0  0  0
   -0.4780   66.4560   68.7520 C   0  0  0  0  0  0  0  0  0  0  0  0
   -0.0200   67.5570   68.0240 C   0  0  0  0  0  0  0  0  0  0  0  0
    1.1940   68.1820   68.3580 C   0  0  0  0  0  0  0  0  0  0  0  0
    1.8960   67.7220   69.4870 C   0  0  0  0  0  0  0  0  0  0  0  0
    1.4350   66.6240   70.2130 C   0  0  0  0  0  0  0  0  0  0  0  0
    1.8260   69.2520   67.4870 C   0  0  2  0  0  0  0  0  0  0  0  0
    1.6450   69.0650   65.9770 C   0  0  0  0  0  0  0  0  0  0  0  0
    3.2990   69.4310   67.8570 N   0  0  0  0  0  4  0  0  0  0  0  0
    3.5570   70.2480   69.1190 C   0  0  0  0  0  0  0  0  0  0  0  0
    4.2190   71.5820   68.7700 C   0  0  0  0  0  0  0  0  0  0  0  0
    5.4830   71.4210   68.1170 O   0  0  0  0  0  0  0  0  0  0  0  0
    5.5760   70.2770   67.2590 C   0  0  0  0  0  0  0  0  0  0  0  0
    4.2230   69.8280   66.6990 C   0  0  0  0  0  0  0  0  0  0  0  0
   -0.0599   61.3147   74.2769 H   0  0  0  0  0  0  0  0  0  0  0  0
    3.0117   60.8427   70.3179 H   0  0  0  0  0  0  0  0  0  0  0  0
    2.9468   63.8083   70.8400 H   0  0  0  0  0  0  0  0  0  0  0  0
    1.6997   63.3567   69.6784 H   0  0  0  0  0  0  0  0  0  0  0  0
    1.3738   65.3679   71.8282 H   0  0  0  0  0  0  0  0  0  0  0  0
    1.0565   58.8155   75.9347 H   0  0  0  0  0  0  0  0  0  0  0  0
    2.2008   57.6907   75.1272 H   0  0  0  0  0  0  0  0  0  0  0  0
    2.5272   59.4570   75.1272 H   0  0  0  0  0  0  0  0  0  0  0  0
    4.6573   58.3885   71.6545 H   0  0  0  0  0  0  0  0  0  0  0  0
    3.6964   57.5770   70.3720 H   0  0  0  0  0  0  0  0  0  0  0  0
    3.8651   59.3653   70.3720 H   0  0  0  0  0  0  0  0  0  0  0  0
   -1.4351   65.9813   68.4900 H   0  0  0  0  0  0  0  0  0  0  0  0
   -0.6152   67.9385   67.1813 H   0  0  0  0  0  0  0  0  0  0  0  0
    2.8180   68.2336   69.8004 H   0  0  0  0  0  0  0  0  0  0  0  0
    1.9838   66.2826   71.1031 H   0  0  0  0  0  0  0  0  0  0  0  0
    1.2691   70.1746   67.7073 H   0  0  0  0  0  0  0  0  0  0  0  0
    0.8909   68.2859   65.7918 H   0  0  0  0  0  0  0  0  0  0  0  0
    1.3117   70.0121   65.5276 H   0  0  0  0  0  0  0  0  0  0  0  0
    2.6024   68.7628   65.5276 H   0  0  0  0  0  0  0  0  0  0  0  0
    3.5715   68.4675   68.0983 H   0  0  0  0  0  0  0  0  0  0  0  0
    2.6005   70.4409   69.6268 H   0  0  0  0  0  0  0  0  0  0  0  0
    4.2296   69.6798   69.7783 H   0  0  0  0  0  0  0  0  0  0  0  0
    3.5480   72.1433   68.1031 H   0  0  0  0  0  0  0  0  0  0  0  0
    4.3999   72.1183   69.7132 H   0  0  0  0  0  0  0  0  0  0  0  0
    6.2376   70.5256   66.4161 H   0  0  0  0  0  0  0  0  0  0  0  0
    5.9697   69.4471   67.8642 H   0  0  0  0  0  0  0  0  0  0  0  0
    3.7678   70.6539   66.1328 H   0  0  0  0  0  0  0  0  0  0  0  0
    4.3691   68.9649   66.0329 H   0  0  0  0  0  0  0  0  0  0  0  0
  3  2  2  0
  4  3  1  0
  5  4  2  0
  6  5  1  0
  7  6  2  0
  7  2  1  0
  8  5  1  0
  9  8  1  0
  9  1  1  0
 10  4  1  0
 10  9  1  0
 11 10  2  0
 13 12  1  0
 13  2  1  0
 14  7  1  0
 15 14  1  0
 16  1  1  0
 17 16  2  0
 18 17  1  0
 19 18  2  0
 20 19  1  0
 21 20  2  0
 21 16  1  0
 22 19  1  0
 23 22  1  0
 24 22  1  0
 25 24  1  0
 26 25  1  0
 27 26  1  0
 28 27  1  0
 29 28  1  0
 29 24  1  0
  3 30  1  0
  6 31  1  0
  8 32  1  0
  8 33  1  0
  9 34  1  1
 12 35  1  0
 12 36  1  0
 12 37  1  0
 15 38  1  0
 15 39  1  0
 15 40  1  0
 17 41  1  0
 18 42  1  0
 20 43  1  0
 21 44  1  0
 22 45  1  1
 23 46  1  0
 23 47  1  0
 23 48  1  0
 24 49  1  0
 25 50  1  0
 25 51  1  0
 26 52  1  0
 26 53  1  0
 28 54  1  0
 28 55  1  0
 29 56  1  0
 29 57  1  0
M  CHG  1  24   1
M  END
>  <score>  (6) 
-8.091

$$$$
=
     RDKit          3D

 57 60  0  0  0  0  0  0  0  0999 V2000
    4.1120   61.0890   69.7020 O   0  0  0  0  0  0  0  0  0  0  0  0
    1.7770   60.1490   74.7840 C   0  0  0  0  0  0  0  0  0  0  0  0
    2.8530   60.8470   74.2290 C   0  0  0  0  0  0  0  0  0  0  0  0
    3.3000   60.4520   72.9800 C   0  0  0  0  0  0  0  0  0  0  0  0
    2.7320   59.4080   72.2680 C   0  0  0  0  0  0  0  0  0  0  0  0
    1.6640   58.7050   72.8060 C   0  0  0  0  0  0  0  0  0  0  0  0
    1.1770   59.0760   74.0690 C   0  0  0  0  0  0  0  0  0  0  0  0
    3.4180   59.1570   70.9610 C   0  0  0  0  0  0  0  0  0  0  0  0
    4.4620   60.2950   70.8360 C   0  0  2  0  0  0  0  0  0  0  0  0
    4.3830   61.0210   72.1910 C   0  0  0  0  0  0  0  0  0  0  0  0
    5.0790   61.9480   72.5800 O   0  0  0  0  0  0  0  0  0  0  0  0
    0.9010   61.7840   76.2940 C   0  0  0  0  0  0  0  0  0  0  0  0
    1.2250   60.4320   76.0100 O   0  0  0  0  0  0  0  0  0  0  0  0
    0.1250   58.4580   74.7000 O   0  0  0  0  0  0  0  0  0  0  0  0
    0.1430   57.0410   74.7920 C   0  0  0  0  0  0  0  0  0  0  0  0
    3.3200   62.1600   69.9980 C   0  0  0  0  0  0  0  0  0  0  0  0
    1.9360   62.0760   70.1210 C   0  0  0  0  0  0  0  0  0  0  0  0
    1.1830   63.2370   70.3190 C   0  0  0  0  0  0  0  0  0  0  0  0
    1.8110   64.4900   70.4110 C   0  0  0  0  0  0  0  0  0  0  0  0
    3.2160   64.5410   70.3760 C   0  0  0  0  0  0  0  0  0  0  0  0
    3.9650   63.3800   70.1800 C   0  0  0  0  0  0  0  0  0  0  0  0
    1.0310   65.7920   70.4340 C   0  0  2  0  0  0  0  0  0  0  0  0
   -0.1700   65.8260   71.3840 C   0  0  0  0  0  0  0  0  0  0  0  0
    0.6350   66.1950   69.0130 N   0  0  0  0  0  4  0  0  0  0  0  0
    1.5420   67.2270   68.3530 C   0  0  0  0  0  0  0  0  0  0  0  0
    0.8020   68.5540   68.1700 C   0  0  0  0  0  0  0  0  0  0  0  0
   -0.3590   68.4340   67.3410 O   0  0  0  0  0  0  0  0  0  0  0  0
   -1.0520   67.1850   67.4530 C   0  0  0  0  0  0  0  0  0  0  0  0
   -0.8550   66.5020   68.8100 C   0  0  0  0  0  0  0  0  0  0  0  0
    3.3281   61.6812   74.7660 H   0  0  0  0  0  0  0  0  0  0  0  0
    1.2069   57.8715   72.2526 H   0  0  0  0  0  0  0  0  0  0  0  0
    3.9140   58.1752   70.9661 H   0  0  0  0  0  0  0  0  0  0  0  0
    2.7123   59.1469   70.1173 H   0  0  0  0  0  0  0  0  0  0  0  0
    5.5010   59.9810   70.6574 H   0  0  0  0  0  0  0  0  0  0  0  0
    0.8657   61.9315   77.3835 H   0  0  0  0  0  0  0  0  0  0  0  0
    1.6665   62.4436   75.8593 H   0  0  0  0  0  0  0  0  0  0  0  0
   -0.0803   62.0250   75.8593 H   0  0  0  0  0  0  0  0  0  0  0  0
    0.1468   56.7423   75.8507 H   0  0  0  0  0  0  0  0  0  0  0  0
   -0.7500   56.6301   74.2983 H   0  0  0  0  0  0  0  0  0  0  0  0
    1.0461   56.6529   74.2983 H   0  0  0  0  0  0  0  0  0  0  0  0
    1.4359   61.0980   70.0625 H   0  0  0  0  0  0  0  0  0  0  0  0
    0.0884   63.1687   70.4035 H   0  0  0  0  0  0  0  0  0  0  0  0
    3.7294   65.5053   70.5044 H   0  0  0  0  0  0  0  0  0  0  0  0
    5.0639   63.4289   70.1693 H   0  0  0  0  0  0  0  0  0  0  0  0
    1.7207   66.5375   70.8565 H   0  0  0  0  0  0  0  0  0  0  0  0
    0.1855   65.8159   72.4249 H   0  0  0  0  0  0  0  0  0  0  0  0
   -0.7536   66.7410   71.2047 H   0  0  0  0  0  0  0  0  0  0  0  0
   -0.8044   64.9455   71.2047 H   0  0  0  0  0  0  0  0  0  0  0  0
    0.8014   65.3208   68.4944 H   0  0  0  0  0  0  0  0  0  0  0  0
    2.4258   67.3901   68.9872 H   0  0  0  0  0  0  0  0  0  0  0  0
    1.8474   66.8515   67.3652 H   0  0  0  0  0  0  0  0  0  0  0  0
    0.4908   68.9218   69.1589 H   0  0  0  0  0  0  0  0  0  0  0  0
    1.4923   69.2514   67.6729 H   0  0  0  0  0  0  0  0  0  0  0  0
   -2.1268   67.3678   67.3070 H   0  0  0  0  0  0  0  0  0  0  0  0
   -0.6379   66.5129   66.6869 H   0  0  0  0  0  0  0  0  0  0  0  0
   -1.2050   67.1694   69.6113 H   0  0  0  0  0  0  0  0  0  0  0  0
   -1.4309   65.5652   68.8376 H   0  0  0  0  0  0  0  0  0  0  0  0
  3  2  2  0
  4  3  1  0
  5  4  2  0
  6  5  1  0
  7  6  2  0
  7  2  1  0
  8  5  1  0
  9  8  1  0
  9  1  1  0
 10  4  1  0
 10  9  1  0
 11 10  2  0
 13 12  1  0
 13  2  1  0
 14  7  1  0
 15 14  1  0
 16  1  1  0
 17 16  2  0
 18 17  1  0
 19 18  2  0
 20 19  1  0
 21 20  2  0
 21 16  1  0
 22 19  1  0
 23 22  1  0
 24 22  1  0
 25 24  1  0
 26 25  1  0
 27 26  1  0
 28 27  1  0
 29 28  1  0
 29 24  1  0
  3 30  1  0
  6 31  1  0
  8 32  1  0
  8 33  1  0
  9 34  1  6
 12 35  1  0
 12 36  1  0
 12 37  1  0
 15 38  1  0
 15 39  1  0
 15 40  1  0
 17 41  1  0
 18 42  1  0
 20 43  1  0
 21 44  1  0
 22 45  1  1
 23 46  1  0
 23 47  1  0
 23 48  1  0
 24 49  1  0
 25 50  1  0
 25 51  1  0
 26 52  1  0
 26 53  1  0
 28 54  1  0
 28 55  1  0
 29 56  1  0
 29 57  1  0
M  CHG  1  24   1
M  END
>  <score>  (7) 
-7.804

$$$$
=
     RDKit          3D

 57 60  0  0  0  0  0  0  0  0999 V2000
    4.5530   59.5230   71.6160 O   0  0  0  0  0  0  0  0  0  0  0  0
    0.9840   63.9070   71.1680 C   0  0  0  0  0  0  0  0  0  0  0  0
    1.9530   63.2520   70.4030 C   0  0  0  0  0  0  0  0  0  0  0  0
    2.8850   62.4780   71.0730 C   0  0  0  0  0  0  0  0  0  0  0  0
    2.8960   62.3290   72.4500 C   0  0  0  0  0  0  0  0  0  0  0  0
    1.9410   62.9730   73.2220 C   0  0  0  0  0  0  0  0  0  0  0  0
    0.9740   63.7650   72.5830 C   0  0  0  0  0  0  0  0  0  0  0  0
    4.0240   61.4700   72.9310 C   0  0  0  0  0  0  0  0  0  0  0  0
    4.6990   60.9430   71.6400 C   0  0  2  0  0  0  0  0  0  0  0  0
    3.9740   61.6930   70.5090 C   0  0  0  0  0  0  0  0  0  0  0  0
    4.2200   61.6530   69.3120 O   0  0  0  0  0  0  0  0  0  0  0  0
    0.3540   66.0080   70.2120 C   0  0  0  0  0  0  0  0  0  0  0  0
   -0.0040   64.7030   70.6410 O   0  0  0  0  0  0  0  0  0  0  0  0
   -0.0210   64.4470   73.2400 O   0  0  0  0  0  0  0  0  0  0  0  0
    0.0690   64.5570   74.6530 C   0  0  0  0  0  0  0  0  0  0  0  0
    3.6970   59.0380   72.5630 C   0  0  0  0  0  0  0  0  0  0  0  0
    4.0370   58.9140   73.9070 C   0  0  0  0  0  0  0  0  0  0  0  0
    3.1450   58.3090   74.7970 C   0  0  0  0  0  0  0  0  0  0  0  0
    1.9000   57.8350   74.3520 C   0  0  0  0  0  0  0  0  0  0  0  0
    1.5410   58.0530   73.0090 C   0  0  0  0  0  0  0  0  0  0  0  0
    2.4330   58.6590   72.1240 C   0  0  0  0  0  0  0  0  0  0  0  0
    0.9820   57.0040   75.2300 C   0  0  2  0  0  0  0  0  0  0  0  0
    1.5660   56.5840   76.5820 C   0  0  0  0  0  0  0  0  0  0  0  0
    0.4520   55.8010   74.4490 N   0  0  0  0  0  4  0  0  0  0  0  0
   -1.0490   55.5620   74.5650 C   0  0  0  0  0  0  0  0  0  0  0  0
   -1.3300   54.2760   75.3450 C   0  0  0  0  0  0  0  0  0  0  0  0
   -0.7730   53.1140   74.7210 O   0  0  0  0  0  0  0  0  0  0  0  0
    0.4650   53.3340   74.0360 C   0  0  0  0  0  0  0  0  0  0  0  0
    1.2680   54.5110   74.5980 C   0  0  0  0  0  0  0  0  0  0  0  0
    1.9744   63.3480   69.3074 H   0  0  0  0  0  0  0  0  0  0  0  0
    1.9411   62.8651   74.3167 H   0  0  0  0  0  0  0  0  0  0  0  0
    4.7351   62.0617   73.5261 H   0  0  0  0  0  0  0  0  0  0  0  0
    3.6760   60.6533   73.5805 H   0  0  0  0  0  0  0  0  0  0  0  0
    5.7808   61.1220   71.5527 H   0  0  0  0  0  0  0  0  0  0  0  0
    0.5294   66.6473   71.0898 H   0  0  0  0  0  0  0  0  0  0  0  0
    1.2712   65.9563   69.6069 H   0  0  0  0  0  0  0  0  0  0  0  0
   -0.4611   66.4316   69.6069 H   0  0  0  0  0  0  0  0  0  0  0  0
   -0.5612   63.7868   75.1216 H   0  0  0  0  0  0  0  0  0  0  0  0
    1.1141   64.4160   74.9659 H   0  0  0  0  0  0  0  0  0  0  0  0
   -0.2762   65.5535   74.9659 H   0  0  0  0  0  0  0  0  0  0  0  0
    5.0053   59.2912   74.2679 H   0  0  0  0  0  0  0  0  0  0  0  0
    3.4209   58.2030   75.8566 H   0  0  0  0  0  0  0  0  0  0  0  0
    0.5474   57.7426   72.6535 H   0  0  0  0  0  0  0  0  0  0  0  0
    2.1368   58.8369   71.0797 H   0  0  0  0  0  0  0  0  0  0  0  0
    0.1503   57.6719   75.4984 H   0  0  0  0  0  0  0  0  0  0  0  0
    0.9625   57.0180   77.3928 H   0  0  0  0  0  0  0  0  0  0  0  0
    1.5531   55.4870   76.6621 H   0  0  0  0  0  0  0  0  0  0  0  0
    2.6019   56.9453   76.6621 H   0  0  0  0  0  0  0  0  0  0  0  0
    0.6029   56.1015   73.4754 H   0  0  0  0  0  0  0  0  0  0  0  0
   -1.5110   56.4114   75.0895 H   0  0  0  0  0  0  0  0  0  0  0  0
   -1.4720   55.4638   73.5543 H   0  0  0  0  0  0  0  0  0  0  0  0
   -0.8986   54.3747   76.3520 H   0  0  0  0  0  0  0  0  0  0  0  0
   -2.4213   54.1419   75.3791 H   0  0  0  0  0  0  0  0  0  0  0  0
    1.0763   52.4232   74.1186 H   0  0  0  0  0  0  0  0  0  0  0  0
    0.2205   53.5760   72.9912 H   0  0  0  0  0  0  0  0  0  0  0  0
    1.4834   54.3337   75.6620 H   0  0  0  0  0  0  0  0  0  0  0  0
    2.2138   54.6083   74.0449 H   0  0  0  0  0  0  0  0  0  0  0  0
  3  2  2  0
  4  3  1  0
  5  4  2  0
  6  5  1  0
  7  6  2  0
  7  2  1  0
  8  5  1  0
  9  8  1  0
  9  1  1  0
 10  4  1  0
 10  9  1  0
 11 10  2  0
 13 12  1  0
 13  2  1  0
 14  7  1  0
 15 14  1  0
 16  1  1  0
 17 16  2  0
 18 17  1  0
 19 18  2  0
 20 19  1  0
 21 20  2  0
 21 16  1  0
 22 19  1  0
 23 22  1  0
 24 22  1  0
 25 24  1  0
 26 25  1  0
 27 26  1  0
 28 27  1  0
 29 28  1  0
 29 24  1  0
  3 30  1  0
  6 31  1  0
  8 32  1  0
  8 33  1  0
  9 34  1  1
 12 35  1  0
 12 36  1  0
 12 37  1  0
 15 38  1  0
 15 39  1  0
 15 40  1  0
 17 41  1  0
 18 42  1  0
 20 43  1  0
 21 44  1  0
 22 45  1  1
 23 46  1  0
 23 47  1  0
 23 48  1  0
 24 49  1  0
 25 50  1  0
 25 51  1  0
 26 52  1  0
 26 53  1  0
 28 54  1  0
 28 55  1  0
 29 56  1  0
 29 57  1  0
M  CHG  1  24   1
M  END
>  <score>  (8) 
-7.76

$$$$
=
     RDKit          3D

 57 60  0  0  0  0  0  0  0  0999 V2000
    1.3090   56.6260   74.5570 O   0  0  0  0  0  0  0  0  0  0  0  0
   -0.3770   61.8890   75.8320 C   0  0  0  0  0  0  0  0  0  0  0  0
   -0.2010   60.6540   76.4630 C   0  0  0  0  0  0  0  0  0  0  0  0
   -0.1710   59.5230   75.6660 C   0  0  0  0  0  0  0  0  0  0  0  0
   -0.3050   59.5650   74.2870 C   0  0  0  0  0  0  0  0  0  0  0  0
   -0.4810   60.7830   73.6470 C   0  0  0  0  0  0  0  0  0  0  0  0
   -0.5140   61.9550   74.4180 C   0  0  0  0  0  0  0  0  0  0  0  0
   -0.2720   58.2060   73.6600 C   0  0  0  0  0  0  0  0  0  0  0  0
    0.0480   57.2390   74.8280 C   0  0  2  0  0  0  0  0  0  0  0  0
    0.0130   58.1380   76.0750 C   0  0  0  0  0  0  0  0  0  0  0  0
    0.1370   57.7960   77.2430 O   0  0  0  0  0  0  0  0  0  0  0  0
    0.7230   63.4850   77.2350 C   0  0  0  0  0  0  0  0  0  0  0  0
   -0.4220   63.0920   76.4940 O   0  0  0  0  0  0  0  0  0  0  0  0
   -0.6790   63.2160   73.8970 O   0  0  0  0  0  0  0  0  0  0  0  0
    0.4800   63.9140   73.4660 C   0  0  0  0  0  0  0  0  0  0  0  0
    2.1580   57.4060   73.8250 C   0  0  0  0  0  0  0  0  0  0  0  0
    3.0370   58.3220   74.3960 C   0  0  0  0  0  0  0  0  0  0  0  0
    3.7970   59.1610   73.5770 C   0  0  0  0  0  0  0  0  0  0  0  0
    3.6940   59.0810   72.1780 C   0  0  0  0  0  0  0  0  0  0  0  0
    2.8680   58.0860   71.6230 C   0  0  0  0  0  0  0  0  0  0  0  0
    2.1130   57.2490   72.4430 C   0  0  0  0  0  0  0  0  0  0  0  0
    4.3480   60.0910   71.2530 C   0  0  2  0  0  0  0  0  0  0  0  0
    5.3210   61.0660   71.9240 C   0  0  0  0  0  0  0  0  0  0  0  0
    3.2830   60.8300   70.4420 N   0  0  0  0  0  4  0  0  0  0  0  0
    3.7700   61.4340   69.1300 C   0  0  0  0  0  0  0  0  0  0  0  0
    3.7540   62.9630   69.2030 C   0  0  0  0  0  0  0  0  0  0  0  0
    2.4460   63.4940   69.4430 O   0  0  0  0  0  0  0  0  0  0  0  0
    1.6100   62.6830   70.2770 C   0  0  0  0  0  0  0  0  0  0  0  0
    2.3990   61.7930   71.2430 C   0  0  0  0  0  0  0  0  0  0  0  0
   -0.0902   60.5836   77.5551 H   0  0  0  0  0  0  0  0  0  0  0  0
   -0.5928   60.8294   72.5537 H   0  0  0  0  0  0  0  0  0  0  0  0
   -1.2463   57.9625   73.2112 H   0  0  0  0  0  0  0  0  0  0  0  0
    0.4703   58.1399   72.8509 H   0  0  0  0  0  0  0  0  0  0  0  0
   -0.6530   56.4033   74.9700 H   0  0  0  0  0  0  0  0  0  0  0  0
    0.5067   63.4108   78.3110 H   0  0  0  0  0  0  0  0  0  0  0  0
    1.5664   62.8249   76.9842 H   0  0  0  0  0  0  0  0  0  0  0  0
    0.9833   64.5239   76.9842 H   0  0  0  0  0  0  0  0  0  0  0  0
    1.0489   64.2566   74.3429 H   0  0  0  0  0  0  0  0  0  0  0  0
    1.1078   63.2437   72.8606 H   0  0  0  0  0  0  0  0  0  0  0  0
    0.1811   64.7824   72.8606 H   0  0  0  0  0  0  0  0  0  0  0  0
    3.1331   58.3852   75.4900 H   0  0  0  0  0  0  0  0  0  0  0  0
    4.4825   59.8912   74.0319 H   0  0  0  0  0  0  0  0  0  0  0  0
    2.8176   57.9675   70.5306 H   0  0  0  0  0  0  0  0  0  0  0  0
    1.4823   56.4652   71.9982 H   0  0  0  0  0  0  0  0  0  0  0  0
    4.9881   59.5006   70.5809 H   0  0  0  0  0  0  0  0  0  0  0  0
    5.2330   60.9778   73.0169 H   0  0  0  0  0  0  0  0  0  0  0  0
    6.3500   60.8256   71.6184 H   0  0  0  0  0  0  0  0  0  0  0  0
    5.0785   62.0945   71.6184 H   0  0  0  0  0  0  0  0  0  0  0  0
    2.6570   60.0592   70.1683 H   0  0  0  0  0  0  0  0  0  0  0  0
    4.7969   61.0920   68.9336 H   0  0  0  0  0  0  0  0  0  0  0  0
    3.1000   61.1103   68.3199 H   0  0  0  0  0  0  0  0  0  0  0  0
    4.4182   63.2827   70.0194 H   0  0  0  0  0  0  0  0  0  0  0  0
    4.0922   63.3444   68.2282 H   0  0  0  0  0  0  0  0  0  0  0  0
    0.9572   63.3444   70.8656 H   0  0  0  0  0  0  0  0  0  0  0  0
    1.0368   62.0173   69.6149 H   0  0  0  0  0  0  0  0  0  0  0  0
    3.0312   62.4214   71.8876 H   0  0  0  0  0  0  0  0  0  0  0  0
    1.6993   61.2169   71.8663 H   0  0  0  0  0  0  0  0  0  0  0  0
  3  2  2  0
  4  3  1  0
  5  4  2  0
  6  5  1  0
  7  6  2  0
  7  2  1  0
  8  5  1  0
  9  8  1  0
  9  1  1  0
 10  4  1  0
 10  9  1  0
 11 10  2  0
 13 12  1  0
 13  2  1  0
 14  7  1  0
 15 14  1  0
 16  1  1  0
 17 16  2  0
 18 17  1  0
 19 18  2  0
 20 19  1  0
 21 20  2  0
 21 16  1  0
 22 19  1  0
 23 22  1  0
 24 22  1  0
 25 24  1  0
 26 25  1  0
 27 26  1  0
 28 27  1  0
 29 28  1  0
 29 24  1  0
  3 30  1  0
  6 31  1  0
  8 32  1  0
  8 33  1  0
  9 34  1  1
 12 35  1  0
 12 36  1  0
 12 37  1  0
 15 38  1  0
 15 39  1  0
 15 40  1  0
 17 41  1  0
 18 42  1  0
 20 43  1  0
 21 44  1  0
 22 45  1  6
 23 46  1  0
 23 47  1  0
 23 48  1  0
 24 49  1  0
 25 50  1  0
 25 51  1  0
 26 52  1  0
 26 53  1  0
 28 54  1  0
 28 55  1  0
 29 56  1  0
 29 57  1  0
M  CHG  1  24   1
M  END
>  <score>  (9) 
-7.613

$$$$
