=
     RDKit          3D

 49 51  0  0  0  0  0  0  0  0999 V2000
    3.8240   67.8020   62.2630 C   0  0  2  0  0  0  0  0  0  0  0  0
    2.3970   68.3630   62.1650 C   0  0  0  0  0  0  0  0  0  0  0  0
    1.7330   68.1020   63.4930 C   0  0  0  0  0  0  0  0  0  0  0  0
    2.2970   67.0470   64.2100 C   0  0  0  0  0  0  0  0  0  0  0  0
    3.7120   66.3680   63.4040 S   0  0  0  0  0  0  0  0  0  0  0  0
    1.8010   66.6720   65.4420 C   0  0  0  0  0  0  0  0  0  0  0  0
    0.7320   67.3900   65.9820 C   0  0  0  0  0  0  0  0  0  0  0  0
    0.1530   68.4710   65.2790 C   0  0  0  0  0  0  0  0  0  0  0  0
    0.6480   68.8070   64.0110 C   0  0  0  0  0  0  0  0  0  0  0  0
    4.9030   68.7450   62.8110 C   0  0  0  0  0  0  0  0  0  0  0  0
    5.4210   69.5920   62.0720 O   0  0  0  0  0  0  0  0  0  0  0  0
    5.3620   68.6370   64.2580 C   0  0  0  0  0  0  0  0  0  0  0  0
    4.5420   69.5290   65.1900 C   0  0  0  0  0  0  0  0  0  0  0  0
    6.7060   70.6660   68.7160 N   0  0  0  0  0  4  0  0  0  0  0  0
    7.3770   70.3630   67.5800 C   0  0  0  0  0  0  0  0  0  0  0  0
    6.6930   69.9920   66.4290 C   0  0  0  0  0  0  0  0  0  0  0  0
    5.2990   69.9280   66.4390 C   0  0  0  0  0  0  0  0  0  0  0  0
    4.6310   70.2180   67.6290 C   0  0  0  0  0  0  0  0  0  0  0  0
    5.3570   70.5830   68.7600 C   0  0  0  0  0  0  0  0  0  0  0  0
    7.1700   70.2180   71.0840 C   0  0  0  0  0  0  0  0  0  0  0  0
    7.4550   71.1260   69.9070 C   0  0  0  0  0  0  0  0  0  0  0  0
   -0.8300   69.1710   65.9240 O   0  0  0  0  0  0  0  0  0  0  0  0
   -2.1790   68.8050   65.6530 C   0  0  0  0  0  0  0  0  0  0  0  0
    0.3750   67.0120   67.2550 O   0  0  0  0  0  0  0  0  0  0  0  0
    1.1410   67.6650   68.2700 C   0  0  0  0  0  0  0  0  0  0  0  0
    4.1459   67.5787   61.2351 H   0  0  0  0  0  0  0  0  0  0  0  0
    2.4283   69.4439   61.9634 H   0  0  0  0  0  0  0  0  0  0  0  0
    1.8408   67.8847   61.3454 H   0  0  0  0  0  0  0  0  0  0  0  0
    2.2394   65.8237   65.9882 H   0  0  0  0  0  0  0  0  0  0  0  0
    0.1848   69.6187   63.4309 H   0  0  0  0  0  0  0  0  0  0  0  0
    5.2588   67.5920   64.5857 H   0  0  0  0  0  0  0  0  0  0  0  0
    6.4095   68.9691   64.3065 H   0  0  0  0  0  0  0  0  0  0  0  0
    4.2594   70.4413   64.6442 H   0  0  0  0  0  0  0  0  0  0  0  0
    3.6604   68.9530   65.5077 H   0  0  0  0  0  0  0  0  0  0  0  0
    8.4759   70.4111   67.5681 H   0  0  0  0  0  0  0  0  0  0  0  0
    7.2492   69.7492   65.5116 H   0  0  0  0  0  0  0  0  0  0  0  0
    3.5335   70.1585   67.6738 H   0  0  0  0  0  0  0  0  0  0  0  0
    4.8279   70.8060   69.6983 H   0  0  0  0  0  0  0  0  0  0  0  0
    7.3425   70.7675   72.0212 H   0  0  0  0  0  0  0  0  0  0  0  0
    6.1233   69.8823   71.0431 H   0  0  0  0  0  0  0  0  0  0  0  0
    7.8371   69.3443   71.0431 H   0  0  0  0  0  0  0  0  0  0  0  0
    8.5328   71.1096   69.6876 H   0  0  0  0  0  0  0  0  0  0  0  0
    7.1393   72.1495   70.1574 H   0  0  0  0  0  0  0  0  0  0  0  0
   -2.7169   68.6591   66.6013 H   0  0  0  0  0  0  0  0  0  0  0  0
   -2.6663   69.6034   65.0741 H   0  0  0  0  0  0  0  0  0  0  0  0
   -2.1960   67.8698   65.0741 H   0  0  0  0  0  0  0  0  0  0  0  0
    0.7771   67.3548   69.2606 H   0  0  0  0  0  0  0  0  0  0  0  0
    2.2003   67.3879   68.1652 H   0  0  0  0  0  0  0  0  0  0  0  0
    1.0350   68.7549   68.1652 H   0  0  0  0  0  0  0  0  0  0  0  0
  2  1  1  0
  3  2  1  0
  4  3  2  0
  5  4  1  0
  5  1  1  0
  6  4  1  0
  7  6  2  0
  8  7  1  0
  9  8  2  0
  9  3  1  0
 10  1  1  0
 11 10  2  0
 12 10  1  0
 13 12  1  0
 15 14  2  0
 16 15  1  0
 17 13  1  0
 17 16  2  0
 18 17  1  0
 19 18  2  0
 19 14  1  0
 21 14  1  0
 21 20  1  0
 22  8  1  0
 23 22  1  0
 24  7  1  0
 25 24  1  0
  1 26  1  6
  2 27  1  0
  2 28  1  0
  6 29  1  0
  9 30  1  0
 12 31  1  0
 12 32  1  0
 13 33  1  0
 13 34  1  0
 15 35  1  0
 16 36  1  0
 18 37  1  0
 19 38  1  0
 20 39  1  0
 20 40  1  0
 20 41  1  0
 21 42  1  0
 21 43  1  0
 23 44  1  0
 23 45  1  0
 23 46  1  0
 25 47  1  0
 25 48  1  0
 25 49  1  0
M  CHG  1  14   1
M  END
>  <score>  (1) 
-9.032

$$$$
=
     RDKit          3D

 49 51  0  0  0  0  0  0  0  0999 V2000
    0.1070   68.7080   67.6540 C   0  0  2  0  0  0  0  0  0  0  0  0
   -0.1550   68.8460   66.1460 C   0  0  0  0  0  0  0  0  0  0  0  0
    1.1760   68.6930   65.4560 C   0  0  0  0  0  0  0  0  0  0  0  0
    2.2710   68.9910   66.2670 C   0  0  0  0  0  0  0  0  0  0  0  0
    1.7980   69.3700   67.9230 S   0  0  0  0  0  0  0  0  0  0  0  0
    3.5630   68.9090   65.7850 C   0  0  0  0  0  0  0  0  0  0  0  0
    3.7620   68.4890   64.4680 C   0  0  0  0  0  0  0  0  0  0  0  0
    2.6680   68.1690   63.6330 C   0  0  0  0  0  0  0  0  0  0  0  0
    1.3640   68.3000   64.1330 C   0  0  0  0  0  0  0  0  0  0  0  0
    0.0680   67.2890   68.2370 C   0  0  0  0  0  0  0  0  0  0  0  0
   -0.7750   66.4760   67.8380 O   0  0  0  0  0  0  0  0  0  0  0  0
    1.0490   66.8740   69.3240 C   0  0  0  0  0  0  0  0  0  0  0  0
    0.3750   66.0520   70.4230 C   0  0  0  0  0  0  0  0  0  0  0  0
    2.2770   62.2660   71.0950 N   0  0  0  0  0  4  0  0  0  0  0  0
    0.9820   62.4410   71.4450 C   0  0  0  0  0  0  0  0  0  0  0  0
    0.3500   63.6610   71.2350 C   0  0  0  0  0  0  0  0  0  0  0  0
    1.0540   64.7190   70.6600 C   0  0  0  0  0  0  0  0  0  0  0  0
    2.3960   64.5230   70.3340 C   0  0  0  0  0  0  0  0  0  0  0  0
    2.9900   63.2850   70.5630 C   0  0  0  0  0  0  0  0  0  0  0  0
    3.2650   60.3550   69.9130 C   0  0  0  0  0  0  0  0  0  0  0  0
    2.9060   60.9360   71.2630 C   0  0  0  0  0  0  0  0  0  0  0  0
    2.9620   67.6830   62.3880 O   0  0  0  0  0  0  0  0  0  0  0  0
    2.9730   68.6120   61.3090 C   0  0  0  0  0  0  0  0  0  0  0  0
    5.0810   68.3370   64.1110 O   0  0  0  0  0  0  0  0  0  0  0  0
    5.6340   69.5030   63.4970 C   0  0  0  0  0  0  0  0  0  0  0  0
   -0.7082   69.2411   68.1652 H   0  0  0  0  0  0  0  0  0  0  0  0
   -0.8485   68.0615   65.8090 H   0  0  0  0  0  0  0  0  0  0  0  0
   -0.6106   69.8196   65.9124 H   0  0  0  0  0  0  0  0  0  0  0  0
    4.4182   69.1694   66.4259 H   0  0  0  0  0  0  0  0  0  0  0  0
    0.4981   68.0943   63.4865 H   0  0  0  0  0  0  0  0  0  0  0  0
    1.8482   66.2704   68.8690 H   0  0  0  0  0  0  0  0  0  0  0  0
    1.4523   67.7884   69.7837 H   0  0  0  0  0  0  0  0  0  0  0  0
    0.3991   66.6298   71.3587 H   0  0  0  0  0  0  0  0  0  0  0  0
   -0.6550   65.8453   70.0970 H   0  0  0  0  0  0  0  0  0  0  0  0
    0.4237   61.6097   71.9002 H   0  0  0  0  0  0  0  0  0  0  0  0
   -0.7038   63.7920   71.5218 H   0  0  0  0  0  0  0  0  0  0  0  0
    2.9832   65.3442   69.8973 H   0  0  0  0  0  0  0  0  0  0  0  0
    4.0495   63.1339   70.3088 H   0  0  0  0  0  0  0  0  0  0  0  0
    3.8384   59.4269   70.0540 H   0  0  0  0  0  0  0  0  0  0  0  0
    2.3447   60.1357   69.3517 H   0  0  0  0  0  0  0  0  0  0  0  0
    3.8728   61.0799   69.3517 H   0  0  0  0  0  0  0  0  0  0  0  0
    3.8184   61.0392   71.8687 H   0  0  0  0  0  0  0  0  0  0  0  0
    2.1959   60.2635   71.7665 H   0  0  0  0  0  0  0  0  0  0  0  0
    2.9851   69.6371   61.7078 H   0  0  0  0  0  0  0  0  0  0  0  0
    3.8693   68.4477   60.6928 H   0  0  0  0  0  0  0  0  0  0  0  0
    2.0731   68.4689   60.6928 H   0  0  0  0  0  0  0  0  0  0  0  0
    5.9668   70.2047   64.2760 H   0  0  0  0  0  0  0  0  0  0  0  0
    6.4919   69.2160   62.8712 H   0  0  0  0  0  0  0  0  0  0  0  0
    4.8689   69.9857   62.8712 H   0  0  0  0  0  0  0  0  0  0  0  0
  2  1  1  0
  3  2  1  0
  4  3  2  0
  5  4  1  0
  5  1  1  0
  6  4  1  0
  7  6  2  0
  8  7  1  0
  9  8  2  0
  9  3  1  0
 10  1  1  0
 11 10  2  0
 12 10  1  0
 13 12  1  0
 15 14  2  0
 16 15  1  0
 17 13  1  0
 17 16  2  0
 18 17  1  0
 19 18  2  0
 19 14  1  0
 21 14  1  0
 21 20  1  0
 22  8  1  0
 23 22  1  0
 24  7  1  0
 25 24  1  0
  1 26  1  1
  2 27  1  0
  2 28  1  0
  6 29  1  0
  9 30  1  0
 12 31  1  0
 12 32  1  0
 13 33  1  0
 13 34  1  0
 15 35  1  0
 16 36  1  0
 18 37  1  0
 19 38  1  0
 20 39  1  0
 20 40  1  0
 20 41  1  0
 21 42  1  0
 21 43  1  0
 23 44  1  0
 23 45  1  0
 23 46  1  0
 25 47  1  0
 25 48  1  0
 25 49  1  0
M  CHG  1  14   1
M  END
>  <score>  (2) 
-8.792

$$$$
=
     RDKit          3D

 49 51  0  0  0  0  0  0  0  0999 V2000
    0.3500   68.7800   67.3880 C   0  0  2  0  0  0  0  0  0  0  0  0
    0.8170   68.8710   65.9270 C   0  0  0  0  0  0  0  0  0  0  0  0
    2.3130   69.0510   65.9580 C   0  0  0  0  0  0  0  0  0  0  0  0
    2.7940   69.5920   67.1490 C   0  0  0  0  0  0  0  0  0  0  0  0
    1.5180   69.8250   68.3450 S   0  0  0  0  0  0  0  0  0  0  0  0
    4.1410   69.8290   67.3370 C   0  0  0  0  0  0  0  0  0  0  0  0
    5.0310   69.4870   66.3160 C   0  0  0  0  0  0  0  0  0  0  0  0
    4.5670   68.9250   65.1060 C   0  0  0  0  0  0  0  0  0  0  0  0
    3.1910   68.7320   64.9230 C   0  0  0  0  0  0  0  0  0  0  0  0
    0.3470   67.3860   68.0290 C   0  0  0  0  0  0  0  0  0  0  0  0
   -0.3480   66.4820   67.5470 O   0  0  0  0  0  0  0  0  0  0  0  0
    1.1790   67.1050   69.2720 C   0  0  0  0  0  0  0  0  0  0  0  0
    0.4130   66.2720   70.3000 C   0  0  0  0  0  0  0  0  0  0  0  0
    2.5840   62.7860   71.5410 N   0  0  0  0  0  4  0  0  0  0  0  0
    3.1360   63.6430   70.6510 C   0  0  0  0  0  0  0  0  0  0  0  0
    2.4470   64.7770   70.2380 C   0  0  0  0  0  0  0  0  0  0  0  0
    1.1730   65.0390   70.7410 C   0  0  0  0  0  0  0  0  0  0  0  0
    0.6130   64.1260   71.6360 C   0  0  0  0  0  0  0  0  0  0  0  0
    1.3380   63.0010   72.0210 C   0  0  0  0  0  0  0  0  0  0  0  0
    4.8390   61.8350   71.7330 C   0  0  0  0  0  0  0  0  0  0  0  0
    3.3680   61.6240   72.0190 C   0  0  0  0  0  0  0  0  0  0  0  0
    5.5180   68.5400   64.1990 O   0  0  0  0  0  0  0  0  0  0  0  0
    5.5730   69.2510   62.9670 C   0  0  0  0  0  0  0  0  0  0  0  0
    6.3570   69.6610   66.6330 O   0  0  0  0  0  0  0  0  0  0  0  0
    6.5620   70.5800   67.7090 C   0  0  0  0  0  0  0  0  0  0  0  0
   -0.7039   69.0949   67.4014 H   0  0  0  0  0  0  0  0  0  0  0  0
    0.5579   67.9475   65.3885 H   0  0  0  0  0  0  0  0  0  0  0  0
    0.3294   69.7097   65.4085 H   0  0  0  0  0  0  0  0  0  0  0  0
    4.5062   70.2783   68.2723 H   0  0  0  0  0  0  0  0  0  0  0  0
    2.8076   68.3329   63.9724 H   0  0  0  0  0  0  0  0  0  0  0  0
    2.0855   66.5569   68.9757 H   0  0  0  0  0  0  0  0  0  0  0  0
    1.4303   68.0697   69.7369 H   0  0  0  0  0  0  0  0  0  0  0  0
    0.2162   66.8979   71.1829 H   0  0  0  0  0  0  0  0  0  0  0  0
   -0.5188   65.9334   69.8234 H   0  0  0  0  0  0  0  0  0  0  0  0
    4.1402   63.4400   70.2504 H   0  0  0  0  0  0  0  0  0  0  0  0
    2.9061   65.4673   69.5150 H   0  0  0  0  0  0  0  0  0  0  0  0
   -0.3978   64.2945   72.0360 H   0  0  0  0  0  0  0  0  0  0  0  0
    0.8928   62.2801   72.7225 H   0  0  0  0  0  0  0  0  0  0  0  0
    5.3894   61.9140   72.6821 H   0  0  0  0  0  0  0  0  0  0  0  0
    5.2259   60.9832   71.1545 H   0  0  0  0  0  0  0  0  0  0  0  0
    4.9709   62.7613   71.1545 H   0  0  0  0  0  0  0  0  0  0  0  0
    3.2213   61.5074   73.1029 H   0  0  0  0  0  0  0  0  0  0  0  0
    3.0259   60.7193   71.4952 H   0  0  0  0  0  0  0  0  0  0  0  0
    5.6564   70.3290   63.1692 H   0  0  0  0  0  0  0  0  0  0  0  0
    6.4480   68.9174   62.3899 H   0  0  0  0  0  0  0  0  0  0  0  0
    4.6571   69.0560   62.3899 H   0  0  0  0  0  0  0  0  0  0  0  0
    6.4447   70.0539   68.6679 H   0  0  0  0  0  0  0  0  0  0  0  0
    7.5761   71.0010   67.6435 H   0  0  0  0  0  0  0  0  0  0  0  0
    5.8229   71.3921   67.6435 H   0  0  0  0  0  0  0  0  0  0  0  0
  2  1  1  0
  3  2  1  0
  4  3  2  0
  5  4  1  0
  5  1  1  0
  6  4  1  0
  7  6  2  0
  8  7  1  0
  9  8  2  0
  9  3  1  0
 10  1  1  0
 11 10  2  0
 12 10  1  0
 13 12  1  0
 15 14  2  0
 16 15  1  0
 17 13  1  0
 17 16  2  0
 18 17  1  0
 19 18  2  0
 19 14  1  0
 21 14  1  0
 21 20  1  0
 22  8  1  0
 23 22  1  0
 24  7  1  0
 25 24  1  0
  1 26  1  6
  2 27  1  0
  2 28  1  0
  6 29  1  0
  9 30  1  0
 12 31  1  0
 12 32  1  0
 13 33  1  0
 13 34  1  0
 15 35  1  0
 16 36  1  0
 18 37  1  0
 19 38  1  0
 20 39  1  0
 20 40  1  0
 20 41  1  0
 21 42  1  0
 21 43  1  0
 23 44  1  0
 23 45  1  0
 23 46  1  0
 25 47  1  0
 25 48  1  0
 25 49  1  0
M  CHG  1  14   1
M  END
>  <score>  (3) 
-8.725

$$$$
=
     RDKit          3D

 49 51  0  0  0  0  0  0  0  0999 V2000
    0.2990   68.0690   67.8960 C   0  0  2  0  0  0  0  0  0  0  0  0
    0.1780   67.3910   66.5230 C   0  0  0  0  0  0  0  0  0  0  0  0
    1.5150   67.5420   65.8430 C   0  0  0  0  0  0  0  0  0  0  0  0
    2.2730   68.6120   66.3150 C   0  0  0  0  0  0  0  0  0  0  0  0
    1.4960   69.4420   67.6640 S   0  0  0  0  0  0  0  0  0  0  0  0
    3.5190   68.8950   65.7920 C   0  0  0  0  0  0  0  0  0  0  0  0
    4.0300   68.0660   64.7910 C   0  0  0  0  0  0  0  0  0  0  0  0
    3.2850   66.9670   64.3060 C   0  0  0  0  0  0  0  0  0  0  0  0
    2.0050   66.7260   64.8250 C   0  0  0  0  0  0  0  0  0  0  0  0
    0.8100   67.2030   69.0550 C   0  0  0  0  0  0  0  0  0  0  0  0
    1.8130   67.5470   69.6930 O   0  0  0  0  0  0  0  0  0  0  0  0
    0.1050   65.9030   69.4180 C   0  0  0  0  0  0  0  0  0  0  0  0
    0.3390   65.5100   70.8760 C   0  0  0  0  0  0  0  0  0  0  0  0
    2.8790   62.0760   71.2800 N   0  0  0  0  0  4  0  0  0  0  0  0
    3.2710   63.1190   70.5120 C   0  0  0  0  0  0  0  0  0  0  0  0
    2.4610   64.2390   70.3700 C   0  0  0  0  0  0  0  0  0  0  0  0
    1.2290   64.2940   71.0210 C   0  0  0  0  0  0  0  0  0  0  0  0
    0.8340   63.1950   71.7840 C   0  0  0  0  0  0  0  0  0  0  0  0
    1.6760   62.0910   71.8980 C   0  0  0  0  0  0  0  0  0  0  0  0
    4.8860   61.2880   72.4520 C   0  0  0  0  0  0  0  0  0  0  0  0
    3.7910   60.9250   71.4720 C   0  0  0  0  0  0  0  0  0  0  0  0
    3.9010   66.1600   63.3890 O   0  0  0  0  0  0  0  0  0  0  0  0
    4.4030   64.9100   63.8500 C   0  0  0  0  0  0  0  0  0  0  0  0
    5.3160   68.3610   64.4070 O   0  0  0  0  0  0  0  0  0  0  0  0
    5.3850   69.3920   63.4190 C   0  0  0  0  0  0  0  0  0  0  0  0
   -0.7195   68.3590   68.1937 H   0  0  0  0  0  0  0  0  0  0  0  0
   -0.0655   66.3255   66.6470 H   0  0  0  0  0  0  0  0  0  0  0  0
   -0.6229   67.8506   65.9252 H   0  0  0  0  0  0  0  0  0  0  0  0
    4.0978   69.7564   66.1565 H   0  0  0  0  0  0  0  0  0  0  0  0
    1.3932   65.9005   64.4323 H   0  0  0  0  0  0  0  0  0  0  0  0
   -0.9754   66.0274   69.2532 H   0  0  0  0  0  0  0  0  0  0  0  0
    0.5165   65.1054   68.7819 H   0  0  0  0  0  0  0  0  0  0  0  0
    0.8123   66.3558   71.3962 H   0  0  0  0  0  0  0  0  0  0  0  0
   -0.6390   65.2580   71.3118 H   0  0  0  0  0  0  0  0  0  0  0  0
    4.2410   63.0797   69.9948 H   0  0  0  0  0  0  0  0  0  0  0  0
    2.7913   65.0815   69.7446 H   0  0  0  0  0  0  0  0  0  0  0  0
   -0.1403   63.2001   72.2946 H   0  0  0  0  0  0  0  0  0  0  0  0
    1.3596   61.2237   72.4960 H   0  0  0  0  0  0  0  0  0  0  0  0
    4.5139   61.1646   73.4798 H   0  0  0  0  0  0  0  0  0  0  0  0
    5.7525   60.6291   72.2942 H   0  0  0  0  0  0  0  0  0  0  0  0
    5.1873   62.3341   72.2942 H   0  0  0  0  0  0  0  0  0  0  0  0
    3.2205   60.0700   71.8639 H   0  0  0  0  0  0  0  0  0  0  0  0
    4.2453   60.6600   70.5059 H   0  0  0  0  0  0  0  0  0  0  0  0
    4.4071   64.8997   64.9499 H   0  0  0  0  0  0  0  0  0  0  0  0
    3.7614   64.0976   63.4781 H   0  0  0  0  0  0  0  0  0  0  0  0
    5.4283   64.7670   63.4781 H   0  0  0  0  0  0  0  0  0  0  0  0
    5.4506   70.3715   63.9152 H   0  0  0  0  0  0  0  0  0  0  0  0
    6.2749   69.2389   62.7908 H   0  0  0  0  0  0  0  0  0  0  0  0
    4.4826   69.3588   62.7908 H   0  0  0  0  0  0  0  0  0  0  0  0
  2  1  1  0
  3  2  1  0
  4  3  2  0
  5  4  1  0
  5  1  1  0
  6  4  1  0
  7  6  2  0
  8  7  1  0
  9  8  2  0
  9  3  1  0
 10  1  1  0
 11 10  2  0
 12 10  1  0
 13 12  1  0
 15 14  2  0
 16 15  1  0
 17 13  1  0
 17 16  2  0
 18 17  1  0
 19 18  2  0
 19 14  1  0
 21 14  1  0
 21 20  1  0
 22  8  1  0
 23 22  1  0
 24  7  1  0
 25 24  1  0
  1 26  1  1
  2 27  1  0
  2 28  1  0
  6 29  1  0
  9 30  1  0
 12 31  1  0
 12 32  1  0
 13 33  1  0
 13 34  1  0
 15 35  1  0
 16 36  1  0
 18 37  1  0
 19 38  1  0
 20 39  1  0
 20 40  1  0
 20 41  1  0
 21 42  1  0
 21 43  1  0
 23 44  1  0
 23 45  1  0
 23 46  1  0
 25 47  1  0
 25 48  1  0
 25 49  1  0
M  CHG  1  14   1
M  END
>  <score>  (4) 
-8.304

$$$$
=
     RDKit          3D

 49 51  0  0  0  0  0  0  0  0999 V2000
    4.3390   60.9920   69.7100 C   0  0  2  0  0  0  0  0  0  0  0  0
    3.6980   59.5960   69.7610 C   0  0  0  0  0  0  0  0  0  0  0  0
    3.4770   59.2710   71.2160 C   0  0  0  0  0  0  0  0  0  0  0  0
    4.3120   59.9700   72.0860 C   0  0  0  0  0  0  0  0  0  0  0  0
    5.3390   61.1310   71.2430 S   0  0  0  0  0  0  0  0  0  0  0  0
    4.2440   59.7820   73.4520 C   0  0  0  0  0  0  0  0  0  0  0  0
    3.2950   58.8930   73.9610 C   0  0  0  0  0  0  0  0  0  0  0  0
    2.4280   58.1840   73.0980 C   0  0  0  0  0  0  0  0  0  0  0  0
    2.5450   58.3610   71.7130 C   0  0  0  0  0  0  0  0  0  0  0  0
    3.3840   62.1920   69.6710 C   0  0  0  0  0  0  0  0  0  0  0  0
    2.4940   62.2510   68.8130 O   0  0  0  0  0  0  0  0  0  0  0  0
    3.5310   63.3300   70.6710 C   0  0  0  0  0  0  0  0  0  0  0  0
    2.1800   63.8040   71.2070 C   0  0  0  0  0  0  0  0  0  0  0  0
    0.4770   61.0960   74.0650 N   0  0  0  0  0  4  0  0  0  0  0  0
    1.4060   61.9970   74.4600 C   0  0  0  0  0  0  0  0  0  0  0  0
    1.9690   62.8810   73.5480 C   0  0  0  0  0  0  0  0  0  0  0  0
    1.5770   62.8430   72.2100 C   0  0  0  0  0  0  0  0  0  0  0  0
    0.6380   61.8870   71.8210 C   0  0  0  0  0  0  0  0  0  0  0  0
    0.1020   61.0180   72.7680 C   0  0  0  0  0  0  0  0  0  0  0  0
   -1.2980   59.4430   74.4390 C   0  0  0  0  0  0  0  0  0  0  0  0
   -0.1590   60.2140   75.0700 C   0  0  0  0  0  0  0  0  0  0  0  0
    1.4730   57.4020   73.6900 O   0  0  0  0  0  0  0  0  0  0  0  0
    1.7160   56.0000   73.7460 C   0  0  0  0  0  0  0  0  0  0  0  0
    3.2310   58.8500   75.3330 O   0  0  0  0  0  0  0  0  0  0  0  0
    4.1740   57.9450   75.9120 C   0  0  0  0  0  0  0  0  0  0  0  0
    4.8951   61.0486   68.7626 H   0  0  0  0  0  0  0  0  0  0  0  0
    2.7380   59.6003   69.2239 H   0  0  0  0  0  0  0  0  0  0  0  0
    4.3461   58.8465   69.2833 H   0  0  0  0  0  0  0  0  0  0  0  0
    4.9244   60.3222   74.1266 H   0  0  0  0  0  0  0  0  0  0  0  0
    1.9074   57.7873   71.0242 H   0  0  0  0  0  0  0  0  0  0  0  0
    4.1453   62.9832   71.5150 H   0  0  0  0  0  0  0  0  0  0  0  0
    4.0053   64.1765   70.1529 H   0  0  0  0  0  0  0  0  0  0  0  0
    2.3183   64.7802   71.6948 H   0  0  0  0  0  0  0  0  0  0  0  0
    1.4892   63.8687   70.3534 H   0  0  0  0  0  0  0  0  0  0  0  0
    1.7187   62.0299   75.5141 H   0  0  0  0  0  0  0  0  0  0  0  0
    2.7228   63.6098   73.8807 H   0  0  0  0  0  0  0  0  0  0  0  0
    0.3221   61.8200   70.7695 H   0  0  0  0  0  0  0  0  0  0  0  0
   -0.6334   60.2609   72.4581 H   0  0  0  0  0  0  0  0  0  0  0  0
   -1.9321   59.0138   75.2287 H   0  0  0  0  0  0  0  0  0  0  0  0
   -1.8984   60.1212   73.8148 H   0  0  0  0  0  0  0  0  0  0  0  0
   -0.8915   58.6336   73.8148 H   0  0  0  0  0  0  0  0  0  0  0  0
    0.5885   59.5063   75.4579 H   0  0  0  0  0  0  0  0  0  0  0  0
   -0.5530   60.8301   75.8917 H   0  0  0  0  0  0  0  0  0  0  0  0
    1.7716   55.6792   74.7967 H   0  0  0  0  0  0  0  0  0  0  0  0
    0.8971   55.4655   73.2423 H   0  0  0  0  0  0  0  0  0  0  0  0
    2.6670   55.7723   73.2423 H   0  0  0  0  0  0  0  0  0  0  0  0
    4.1128   58.0037   77.0087 H   0  0  0  0  0  0  0  0  0  0  0  0
    3.9455   56.9194   75.5864 H   0  0  0  0  0  0  0  0  0  0  0  0
    5.1893   58.2154   75.5864 H   0  0  0  0  0  0  0  0  0  0  0  0
  2  1  1  0
  3  2  1  0
  4  3  2  0
  5  4  1  0
  5  1  1  0
  6  4  1  0
  7  6  2  0
  8  7  1  0
  9  8  2  0
  9  3  1  0
 10  1  1  0
 11 10  2  0
 12 10  1  0
 13 12  1  0
 15 14  2  0
 16 15  1  0
 17 13  1  0
 17 16  2  0
 18 17  1  0
 19 18  2  0
 19 14  1  0
 21 14  1  0
 21 20  1  0
 22  8  1  0
 23 22  1  0
 24  7  1  0
 25 24  1  0
  1 26  1  6
  2 27  1  0
  2 28  1  0
  6 29  1  0
  9 30  1  0
 12 31  1  0
 12 32  1  0
 13 33  1  0
 13 34  1  0
 15 35  1  0
 16 36  1  0
 18 37  1  0
 19 38  1  0
 20 39  1  0
 20 40  1  0
 20 41  1  0
 21 42  1  0
 21 43  1  0
 23 44  1  0
 23 45  1  0
 23 46  1  0
 25 47  1  0
 25 48  1  0
 25 49  1  0
M  CHG  1  14   1
M  END
>  <score>  (5) 
-8.253

$$$$
=
     RDKit          3D

 49 51  0  0  0  0  0  0  0  0999 V2000
    3.2580   58.6050   73.0840 C   0  0  2  0  0  0  0  0  0  0  0  0
    1.7630   58.3020   73.2730 C   0  0  0  0  0  0  0  0  0  0  0  0
    1.0800   59.6200   73.5330 C   0  0  0  0  0  0  0  0  0  0  0  0
    1.9260   60.6060   74.0410 C   0  0  0  0  0  0  0  0  0  0  0  0
    3.6020   60.0650   74.1430 S   0  0  0  0  0  0  0  0  0  0  0  0
    1.4560   61.8690   74.3410 C   0  0  0  0  0  0  0  0  0  0  0  0
    0.1110   62.1590   74.1000 C   0  0  0  0  0  0  0  0  0  0  0  0
   -0.7610   61.1800   73.5740 C   0  0  0  0  0  0  0  0  0  0  0  0
   -0.2690   59.8930   73.3150 C   0  0  0  0  0  0  0  0  0  0  0  0
    3.7210   58.9470   71.6620 C   0  0  0  0  0  0  0  0  0  0  0  0
    3.6640   58.0930   70.7680 O   0  0  0  0  0  0  0  0  0  0  0  0
    4.2730   60.3280   71.3400 C   0  0  0  0  0  0  0  0  0  0  0  0
    3.7190   60.8760   70.0240 C   0  0  0  0  0  0  0  0  0  0  0  0
    1.3270   64.3980   70.5530 N   0  0  0  0  0  4  0  0  0  0  0  0
    2.6290   64.5130   70.2050 C   0  0  0  0  0  0  0  0  0  0  0  0
    3.4190   63.3830   70.0300 C   0  0  0  0  0  0  0  0  0  0  0  0
    2.8690   62.1150   70.2150 C   0  0  0  0  0  0  0  0  0  0  0  0
    1.5320   62.0220   70.6020 C   0  0  0  0  0  0  0  0  0  0  0  0
    0.7770   63.1810   70.7680 C   0  0  0  0  0  0  0  0  0  0  0  0
    1.0750   66.7280   69.8240 C   0  0  0  0  0  0  0  0  0  0  0  0
    0.4890   65.6140   70.6640 C   0  0  0  0  0  0  0  0  0  0  0  0
   -2.0380   61.5800   73.2880 O   0  0  0  0  0  0  0  0  0  0  0  0
   -3.0890   61.0300   74.0770 C   0  0  0  0  0  0  0  0  0  0  0  0
   -0.2400   63.4680   74.3310 O   0  0  0  0  0  0  0  0  0  0  0  0
   -0.1860   63.8290   75.7130 C   0  0  0  0  0  0  0  0  0  0  0  0
    3.8010   57.6830   73.3392 H   0  0  0  0  0  0  0  0  0  0  0  0
    1.3534   57.8362   72.3646 H   0  0  0  0  0  0  0  0  0  0  0  0
    1.6047   57.6043   74.1086 H   0  0  0  0  0  0  0  0  0  0  0  0
    2.1275   62.6320   74.7616 H   0  0  0  0  0  0  0  0  0  0  0  0
   -0.9416   59.1060   72.9432 H   0  0  0  0  0  0  0  0  0  0  0  0
    4.0017   61.0170   72.1534 H   0  0  0  0  0  0  0  0  0  0  0  0
    5.3648   60.2413   71.2382 H   0  0  0  0  0  0  0  0  0  0  0  0
    4.5631   61.1272   69.3649 H   0  0  0  0  0  0  0  0  0  0  0  0
    3.0764   60.0981   69.5860 H   0  0  0  0  0  0  0  0  0  0  0  0
    3.0672   65.5113   70.0590 H   0  0  0  0  0  0  0  0  0  0  0  0
    4.4764   63.4887   69.7460 H   0  0  0  0  0  0  0  0  0  0  0  0
    1.0752   61.0365   70.7756 H   0  0  0  0  0  0  0  0  0  0  0  0
   -0.2761   63.1058   71.0768 H   0  0  0  0  0  0  0  0  0  0  0  0
    1.4850   67.5074   70.4831 H   0  0  0  0  0  0  0  0  0  0  0  0
    1.8779   66.3250   69.1891 H   0  0  0  0  0  0  0  0  0  0  0  0
    0.2881   67.1613   69.1891 H   0  0  0  0  0  0  0  0  0  0  0  0
   -0.5280   65.3884   70.3108 H   0  0  0  0  0  0  0  0  0  0  0  0
    0.4575   65.9347   71.7158 H   0  0  0  0  0  0  0  0  0  0  0  0
   -2.8506   61.1548   75.1436 H   0  0  0  0  0  0  0  0  0  0  0  0
   -4.0304   61.5511   73.8483 H   0  0  0  0  0  0  0  0  0  0  0  0
   -3.1975   59.9595   73.8483 H   0  0  0  0  0  0  0  0  0  0  0  0
   -0.3205   62.9299   76.3323 H   0  0  0  0  0  0  0  0  0  0  0  0
    0.7903   64.2846   75.9351 H   0  0  0  0  0  0  0  0  0  0  0  0
   -0.9862   64.5503   75.9351 H   0  0  0  0  0  0  0  0  0  0  0  0
  2  1  1  0
  3  2  1  0
  4  3  2  0
  5  4  1  0
  5  1  1  0
  6  4  1  0
  7  6  2  0
  8  7  1  0
  9  8  2  0
  9  3  1  0
 10  1  1  0
 11 10  2  0
 12 10  1  0
 13 12  1  0
 15 14  2  0
 16 15  1  0
 17 13  1  0
 17 16  2  0
 18 17  1  0
 19 18  2  0
 19 14  1  0
 21 14  1  0
 21 20  1  0
 22  8  1  0
 23 22  1  0
 24  7  1  0
 25 24  1  0
  1 26  1  1
  2 27  1  0
  2 28  1  0
  6 29  1  0
  9 30  1  0
 12 31  1  0
 12 32  1  0
 13 33  1  0
 13 34  1  0
 15 35  1  0
 16 36  1  0
 18 37  1  0
 19 38  1  0
 20 39  1  0
 20 40  1  0
 20 41  1  0
 21 42  1  0
 21 43  1  0
 23 44  1  0
 23 45  1  0
 23 46  1  0
 25 47  1  0
 25 48  1  0
 25 49  1  0
M  CHG  1  14   1
M  END
>  <score>  (6) 
-7.364

$$$$
=
     RDKit          3D

 49 51  0  0  0  0  0  0  0  0999 V2000
    4.5810   60.4520   71.7540 C   0  0  2  0  0  0  0  0  0  0  0  0
    4.1110   61.3670   72.8960 C   0  0  0  0  0  0  0  0  0  0  0  0
    2.9930   62.2140   72.3440 C   0  0  0  0  0  0  0  0  0  0  0  0
    3.0220   62.3560   70.9570 C   0  0  0  0  0  0  0  0  0  0  0  0
    4.3120   61.4110   70.2120 S   0  0  0  0  0  0  0  0  0  0  0  0
    2.0730   63.1080   70.2940 C   0  0  0  0  0  0  0  0  0  0  0  0
    1.0540   63.7090   71.0350 C   0  0  0  0  0  0  0  0  0  0  0  0
    0.9980   63.5670   72.4400 C   0  0  0  0  0  0  0  0  0  0  0  0
    1.9960   62.8320   73.0960 C   0  0  0  0  0  0  0  0  0  0  0  0
    3.8530   59.1100   71.5970 C   0  0  0  0  0  0  0  0  0  0  0  0
    3.8200   58.5470   70.4960 O   0  0  0  0  0  0  0  0  0  0  0  0
    3.1480   58.4690   72.7840 C   0  0  0  0  0  0  0  0  0  0  0  0
    1.6280   58.4830   72.6260 C   0  0  0  0  0  0  0  0  0  0  0  0
   -0.3410   61.0110   75.4790 N   0  0  0  0  0  4  0  0  0  0  0  0
   -0.9000   60.8020   74.2640 C   0  0  0  0  0  0  0  0  0  0  0  0
   -0.2750   59.9870   73.3280 C   0  0  0  0  0  0  0  0  0  0  0  0
    0.9400   59.3760   73.6370 C   0  0  0  0  0  0  0  0  0  0  0  0
    1.5100   59.6290   74.8850 C   0  0  0  0  0  0  0  0  0  0  0  0
    0.8510   60.4550   75.7930 C   0  0  0  0  0  0  0  0  0  0  0  0
   -0.1420   62.1550   77.6410 C   0  0  0  0  0  0  0  0  0  0  0  0
   -1.0600   61.8260   76.4840 C   0  0  0  0  0  0  0  0  0  0  0  0
   -0.0850   64.1160   73.0730 O   0  0  0  0  0  0  0  0  0  0  0  0
    0.1280   64.6790   74.3640 C   0  0  0  0  0  0  0  0  0  0  0  0
    0.1000   64.3480   70.2810 O   0  0  0  0  0  0  0  0  0  0  0  0
    0.3810   65.7340   70.0750 C   0  0  0  0  0  0  0  0  0  0  0  0
    5.6226   60.1785   71.9780 H   0  0  0  0  0  0  0  0  0  0  0  0
    3.7469   60.7627   73.7399 H   0  0  0  0  0  0  0  0  0  0  0  0
    4.9363   61.9942   73.2641 H   0  0  0  0  0  0  0  0  0  0  0  0
    2.1189   63.2314   69.2019 H   0  0  0  0  0  0  0  0  0  0  0  0
    1.9918   62.7443   74.1925 H   0  0  0  0  0  0  0  0  0  0  0  0
    3.4854   57.4261   72.8761 H   0  0  0  0  0  0  0  0  0  0  0  0
    3.4005   59.0510   73.6826 H   0  0  0  0  0  0  0  0  0  0  0  0
    1.3832   58.8426   71.6157 H   0  0  0  0  0  0  0  0  0  0  0  0
    1.2687   57.4568   72.7927 H   0  0  0  0  0  0  0  0  0  0  0  0
   -1.8581   61.2819   74.0153 H   0  0  0  0  0  0  0  0  0  0  0  0
   -0.7384   59.8238   72.3438 H   0  0  0  0  0  0  0  0  0  0  0  0
    2.4771   59.1775   75.1514 H   0  0  0  0  0  0  0  0  0  0  0  0
    1.3046   60.6568   76.7746 H   0  0  0  0  0  0  0  0  0  0  0  0
   -0.6661   61.9672   78.5897 H   0  0  0  0  0  0  0  0  0  0  0  0
    0.7567   61.5230   77.5872 H   0  0  0  0  0  0  0  0  0  0  0  0
    0.1507   63.2140   77.5872 H   0  0  0  0  0  0  0  0  0  0  0  0
   -1.4043   62.7600   76.0159 H   0  0  0  0  0  0  0  0  0  0  0  0
   -1.9220   61.2554   76.8598 H   0  0  0  0  0  0  0  0  0  0  0  0
   -0.1498   63.9448   75.1346 H   0  0  0  0  0  0  0  0  0  0  0  0
    1.1892   64.9457   74.4772 H   0  0  0  0  0  0  0  0  0  0  0  0
   -0.4909   65.5813   74.4772 H   0  0  0  0  0  0  0  0  0  0  0  0
    0.4828   66.2361   71.0484 H   0  0  0  0  0  0  0  0  0  0  0  0
    1.3185   65.8379   69.5090 H   0  0  0  0  0  0  0  0  0  0  0  0
   -0.4420   66.1948   69.5090 H   0  0  0  0  0  0  0  0  0  0  0  0
  2  1  1  0
  3  2  1  0
  4  3  2  0
  5  4  1  0
  5  1  1  0
  6  4  1  0
  7  6  2  0
  8  7  1  0
  9  8  2  0
  9  3  1  0
 10  1  1  0
 11 10  2  0
 12 10  1  0
 13 12  1  0
 15 14  2  0
 16 15  1  0
 17 13  1  0
 17 16  2  0
 18 17  1  0
 19 18  2  0
 19 14  1  0
 21 14  1  0
 21 20  1  0
 22  8  1  0
 23 22  1  0
 24  7  1  0
 25 24  1  0
  1 26  1  1
  2 27  1  0
  2 28  1  0
  6 29  1  0
  9 30  1  0
 12 31  1  0
 12 32  1  0
 13 33  1  0
 13 34  1  0
 15 35  1  0
 16 36  1  0
 18 37  1  0
 19 38  1  0
 20 39  1  0
 20 40  1  0
 20 41  1  0
 21 42  1  0
 21 43  1  0
 23 44  1  0
 23 45  1  0
 23 46  1  0
 25 47  1  0
 25 48  1  0
 25 49  1  0
M  CHG  1  14   1
M  END
>  <score>  (7) 
-7.156

$$$$
=
     RDKit          3D

 49 51  0  0  0  0  0  0  0  0999 V2000
    4.5780   60.4490   71.7160 C   0  0  2  0  0  0  0  0  0  0  0  0
    4.0650   61.3060   72.8830 C   0  0  0  0  0  0  0  0  0  0  0  0
    2.9900   62.2030   72.3250 C   0  0  0  0  0  0  0  0  0  0  0  0
    3.0920   62.4220   70.9510 C   0  0  0  0  0  0  0  0  0  0  0  0
    4.4030   61.4980   70.2190 S   0  0  0  0  0  0  0  0  0  0  0  0
    2.1900   63.2280   70.2850 C   0  0  0  0  0  0  0  0  0  0  0  0
    1.1430   63.8040   71.0080 C   0  0  0  0  0  0  0  0  0  0  0  0
    1.0130   63.5850   72.3980 C   0  0  0  0  0  0  0  0  0  0  0  0
    1.9650   62.7960   73.0590 C   0  0  0  0  0  0  0  0  0  0  0  0
    3.8390   59.1320   71.4460 C   0  0  0  0  0  0  0  0  0  0  0  0
    3.7980   58.6660   70.3000 O   0  0  0  0  0  0  0  0  0  0  0  0
    3.1330   58.3960   72.5760 C   0  0  0  0  0  0  0  0  0  0  0  0
    1.6710   58.8210   72.7130 C   0  0  0  0  0  0  0  0  0  0  0  0
   -0.7560   55.8930   74.6990 N   0  0  0  0  0  4  0  0  0  0  0  0
   -1.1320   57.1930   74.6990 C   0  0  0  0  0  0  0  0  0  0  0  0
   -0.3570   58.1550   74.0620 C   0  0  0  0  0  0  0  0  0  0  0  0
    0.8200   57.7830   73.4140 C   0  0  0  0  0  0  0  0  0  0  0  0
    1.2010   56.4410   73.4510 C   0  0  0  0  0  0  0  0  0  0  0  0
    0.3960   55.5100   74.1040 C   0  0  0  0  0  0  0  0  0  0  0  0
   -0.8880   54.1480   76.4190 C   0  0  0  0  0  0  0  0  0  0  0  0
   -1.6350   54.8780   75.3240 C   0  0  0  0  0  0  0  0  0  0  0  0
   -0.0920   64.1170   73.0060 O   0  0  0  0  0  0  0  0  0  0  0  0
    0.0500   64.5570   74.3530 C   0  0  0  0  0  0  0  0  0  0  0  0
    0.2380   64.5020   70.2440 O   0  0  0  0  0  0  0  0  0  0  0  0
    0.5350   65.8970   70.1560 C   0  0  0  0  0  0  0  0  0  0  0  0
    5.6025   60.1446   71.9763 H   0  0  0  0  0  0  0  0  0  0  0  0
    3.6490   60.6618   73.6716 H   0  0  0  0  0  0  0  0  0  0  0  0
    4.8800   61.8961   73.3274 H   0  0  0  0  0  0  0  0  0  0  0  0
    2.2941   63.4129   69.2057 H   0  0  0  0  0  0  0  0  0  0  0  0
    1.9032   62.6466   74.1470 H   0  0  0  0  0  0  0  0  0  0  0  0
    3.1709   57.3154   72.3739 H   0  0  0  0  0  0  0  0  0  0  0  0
    3.6477   58.6441   73.5159 H   0  0  0  0  0  0  0  0  0  0  0  0
    1.6298   59.7567   73.2899 H   0  0  0  0  0  0  0  0  0  0  0  0
    1.2673   58.9486   71.6978 H   0  0  0  0  0  0  0  0  0  0  0  0
   -2.0603   57.4913   75.2082 H   0  0  0  0  0  0  0  0  0  0  0  0
   -0.6720   59.2089   74.0691 H   0  0  0  0  0  0  0  0  0  0  0  0
    2.1343   56.1191   72.9659 H   0  0  0  0  0  0  0  0  0  0  0  0
    0.7006   54.4535   74.1357 H   0  0  0  0  0  0  0  0  0  0  0  0
   -1.2437   54.4956   77.4001 H   0  0  0  0  0  0  0  0  0  0  0  0
   -1.0664   53.0665   76.3264 H   0  0  0  0  0  0  0  0  0  0  0  0
    0.1891   54.3512   76.3264 H   0  0  0  0  0  0  0  0  0  0  0  0
   -2.5168   55.3754   75.7541 H   0  0  0  0  0  0  0  0  0  0  0  0
   -1.9506   54.1539   74.5584 H   0  0  0  0  0  0  0  0  0  0  0  0
   -0.2147   63.7368   75.0365 H   0  0  0  0  0  0  0  0  0  0  0  0
    1.0919   64.8612   74.5315 H   0  0  0  0  0  0  0  0  0  0  0  0
   -0.6175   65.4129   74.5315 H   0  0  0  0  0  0  0  0  0  0  0  0
    0.6245   66.3174   71.1685 H   0  0  0  0  0  0  0  0  0  0  0  0
    1.4830   66.0367   69.6159 H   0  0  0  0  0  0  0  0  0  0  0  0
   -0.2739   66.4107   69.6159 H   0  0  0  0  0  0  0  0  0  0  0  0
  2  1  1  0
  3  2  1  0
  4  3  2  0
  5  4  1  0
  5  1  1  0
  6  4  1  0
  7  6  2  0
  8  7  1  0
  9  8  2  0
  9  3  1  0
 10  1  1  0
 11 10  2  0
 12 10  1  0
 13 12  1  0
 15 14  2  0
 16 15  1  0
 17 13  1  0
 17 16  2  0
 18 17  1  0
 19 18  2  0
 19 14  1  0
 21 14  1  0
 21 20  1  0
 22  8  1  0
 23 22  1  0
 24  7  1  0
 25 24  1  0
  1 26  1  1
  2 27  1  0
  2 28  1  0
  6 29  1  0
  9 30  1  0
 12 31  1  0
 12 32  1  0
 13 33  1  0
 13 34  1  0
 15 35  1  0
 16 36  1  0
 18 37  1  0
 19 38  1  0
 20 39  1  0
 20 40  1  0
 20 41  1  0
 21 42  1  0
 21 43  1  0
 23 44  1  0
 23 45  1  0
 23 46  1  0
 25 47  1  0
 25 48  1  0
 25 49  1  0
M  CHG  1  14   1
M  END
>  <score>  (8) 
-7.007

$$$$
=
     RDKit          3D

 49 51  0  0  0  0  0  0  0  0999 V2000
    4.8470   61.2580   69.9820 C   0  0  2  0  0  0  0  0  0  0  0  0
    3.8850   60.0710   69.8180 C   0  0  0  0  0  0  0  0  0  0  0  0
    3.4930   59.6320   71.2050 C   0  0  0  0  0  0  0  0  0  0  0  0
    4.4130   59.9860   72.1920 C   0  0  0  0  0  0  0  0  0  0  0  0
    5.7450   60.9500   71.5540 S   0  0  0  0  0  0  0  0  0  0  0  0
    4.2080   59.6500   73.5160 C   0  0  0  0  0  0  0  0  0  0  0  0
    3.0400   58.9700   73.8630 C   0  0  0  0  0  0  0  0  0  0  0  0
    2.0880   58.6130   72.8810 C   0  0  0  0  0  0  0  0  0  0  0  0
    2.3370   58.9280   71.5380 C   0  0  0  0  0  0  0  0  0  0  0  0
    4.2170   62.6530   70.0760 C   0  0  0  0  0  0  0  0  0  0  0  0
    4.7500   63.5310   70.7670 O   0  0  0  0  0  0  0  0  0  0  0  0
    2.9220   62.9680   69.3410 C   0  0  0  0  0  0  0  0  0  0  0  0
    1.7160   62.2800   69.9800 C   0  0  0  0  0  0  0  0  0  0  0  0
    0.4570   64.1750   73.6170 N   0  0  0  0  0  4  0  0  0  0  0  0
    1.1940   63.0410   73.6670 C   0  0  0  0  0  0  0  0  0  0  0  0
    1.6090   62.4140   72.4990 C   0  0  0  0  0  0  0  0  0  0  0  0
    1.2660   62.9520   71.2600 C   0  0  0  0  0  0  0  0  0  0  0  0
    0.4820   64.1060   71.2330 C   0  0  0  0  0  0  0  0  0  0  0  0
    0.0850   64.7010   72.4280 C   0  0  0  0  0  0  0  0  0  0  0  0
    0.9210   64.3340   76.0220 C   0  0  0  0  0  0  0  0  0  0  0  0
    0.0870   64.8630   74.8750 C   0  0  0  0  0  0  0  0  0  0  0  0
    0.9330   58.0270   73.3250 O   0  0  0  0  0  0  0  0  0  0  0  0
    0.8680   56.6050   73.2980 C   0  0  0  0  0  0  0  0  0  0  0  0
    2.8740   58.7720   75.2130 O   0  0  0  0  0  0  0  0  0  0  0  0
    3.9620   58.0690   75.8160 C   0  0  0  0  0  0  0  0  0  0  0  0
    5.4627   61.2923   69.0711 H   0  0  0  0  0  0  0  0  0  0  0  0
    2.9936   60.3815   69.2532 H   0  0  0  0  0  0  0  0  0  0  0  0
    4.3635   59.2493   69.2649 H   0  0  0  0  0  0  0  0  0  0  0  0
    4.9516   59.9136   74.2825 H   0  0  0  0  0  0  0  0  0  0  0  0
    1.6274   58.6227   70.7549 H   0  0  0  0  0  0  0  0  0  0  0  0
    2.7600   64.0559   69.3583 H   0  0  0  0  0  0  0  0  0  0  0  0
    3.0181   62.5950   68.3106 H   0  0  0  0  0  0  0  0  0  0  0  0
    0.8819   62.2957   69.2630 H   0  0  0  0  0  0  0  0  0  0  0  0
    2.0172   61.2530   70.2339 H   0  0  0  0  0  0  0  0  0  0  0  0
    1.4671   62.6116   74.6422 H   0  0  0  0  0  0  0  0  0  0  0  0
    2.2082   61.4931   72.5520 H   0  0  0  0  0  0  0  0  0  0  0  0
    0.1785   64.5444   70.2709 H   0  0  0  0  0  0  0  0  0  0  0  0
   -0.5373   65.6078   72.4045 H   0  0  0  0  0  0  0  0  0  0  0  0
    0.4594   64.6268   76.9766 H   0  0  0  0  0  0  0  0  0  0  0  0
    0.9738   63.2369   75.9615 H   0  0  0  0  0  0  0  0  0  0  0  0
    1.9359   64.7538   75.9615 H   0  0  0  0  0  0  0  0  0  0  0  0
    0.2638   65.9431   74.7645 H   0  0  0  0  0  0  0  0  0  0  0  0
   -0.9762   64.6775   75.0875 H   0  0  0  0  0  0  0  0  0  0  0  0
    0.8504   56.2191   74.3280 H   0  0  0  0  0  0  0  0  0  0  0  0
   -0.0455   56.2896   72.7726 H   0  0  0  0  0  0  0  0  0  0  0  0
    1.7489   56.2076   72.7726 H   0  0  0  0  0  0  0  0  0  0  0  0
    3.8736   58.1261   76.9110 H   0  0  0  0  0  0  0  0  0  0  0  0
    3.9376   57.0155   75.5006 H   0  0  0  0  0  0  0  0  0  0  0  0
    4.9124   58.5242   75.5006 H   0  0  0  0  0  0  0  0  0  0  0  0
  2  1  1  0
  3  2  1  0
  4  3  2  0
  5  4  1  0
  5  1  1  0
  6  4  1  0
  7  6  2  0
  8  7  1  0
  9  8  2  0
  9  3  1  0
 10  1  1  0
 11 10  2  0
 12 10  1  0
 13 12  1  0
 15 14  2  0
 16 15  1  0
 17 13  1  0
 17 16  2  0
 18 17  1  0
 19 18  2  0
 19 14  1  0
 21 14  1  0
 21 20  1  0
 22  8  1  0
 23 22  1  0
 24  7  1  0
 25 24  1  0
  1 26  1  6
  2 27  1  0
  2 28  1  0
  6 29  1  0
  9 30  1  0
 12 31  1  0
 12 32  1  0
 13 33  1  0
 13 34  1  0
 15 35  1  0
 16 36  1  0
 18 37  1  0
 19 38  1  0
 20 39  1  0
 20 40  1  0
 20 41  1  0
 21 42  1  0
 21 43  1  0
 23 44  1  0
 23 45  1  0
 23 46  1  0
 25 47  1  0
 25 48  1  0
 25 49  1  0
M  CHG  1  14   1
M  END
>  <score>  (9) 
-6.865

$$$$
