=
     RDKit          3D

 56 58  0  0  0  0  0  0  0  0999 V2000
    0.3650   67.3560   68.1270 C   0  0  0  0  0  0  0  0  0  0  0  0
   -0.3570   66.4790   67.6450 O   0  0  0  0  0  0  0  0  0  0  0  0
    0.4330   68.7400   67.4810 C   0  0  1  0  0  0  0  0  0  0  0  0
    1.5860   69.5870   68.0380 C   0  0  0  0  0  0  0  0  0  0  0  0
    2.7450   69.4360   67.0930 C   0  0  0  0  0  0  0  0  0  0  0  0
    2.4060   68.9900   65.8160 C   0  0  0  0  0  0  0  0  0  0  0  0
    0.6840   68.6010   65.6780 S   0  0  0  0  0  0  0  0  0  0  0  0
    3.3630   68.8280   64.8240 C   0  0  0  0  0  0  0  0  0  0  0  0
    4.7030   69.1190   65.1130 C   0  0  0  0  0  0  0  0  0  0  0  0
    5.0450   69.5810   66.4040 C   0  0  0  0  0  0  0  0  0  0  0  0
    4.0670   69.7340   67.3930 C   0  0  0  0  0  0  0  0  0  0  0  0
    6.3220   69.8550   66.8250 O   0  0  0  0  0  0  0  0  0  0  0  0
    6.4030   70.9250   67.7680 C   0  0  0  0  0  0  0  0  0  0  0  0
    5.7280   68.9160   64.2260 O   0  0  0  0  0  0  0  0  0  0  0  0
    5.4040   68.9800   62.8410 C   0  0  0  0  0  0  0  0  0  0  0  0
    1.1690   67.0850   69.3940 C   0  0  0  0  0  0  0  0  0  0  0  0
    0.3770   66.2540   70.4040 C   0  0  0  0  0  0  0  0  0  0  0  0
    2.1540   62.4020   71.0030 N   0  0  0  0  0  4  0  0  0  0  0  0
    2.8420   63.3610   70.3400 C   0  0  0  0  0  0  0  0  0  0  0  0
    2.2800   64.6150   70.1290 C   0  0  0  0  0  0  0  0  0  0  0  0
    0.9980   64.8900   70.6020 C   0  0  0  0  0  0  0  0  0  0  0  0
    0.3130   63.8890   71.2910 C   0  0  0  0  0  0  0  0  0  0  0  0
    0.9120   62.6490   71.4820 C   0  0  0  0  0  0  0  0  0  0  0  0
    2.7730   61.0770   71.2220 C   0  0  0  0  0  0  0  0  0  0  0  0
    3.7150   60.7420   70.0710 C   0  0  0  0  0  0  0  0  0  0  0  0
    4.0790   59.3700   70.1860 O   0  0  0  0  0  0  0  0  0  0  0  0
    3.0010   57.3700   71.0670 C   0  0  0  0  0  0  0  0  0  0  0  0
    3.5840   58.7390   71.3690 C   0  0  0  0  0  0  0  0  0  0  0  0
   -0.5257   69.2281   67.7107 H   0  0  0  0  0  0  0  0  0  0  0  0
    1.2834   70.6429   68.0976 H   0  0  0  0  0  0  0  0  0  0  0  0
    1.8613   69.2548   69.0499 H   0  0  0  0  0  0  0  0  0  0  0  0
    3.0732   68.4755   63.8231 H   0  0  0  0  0  0  0  0  0  0  0  0
    4.3430   70.0867   68.3977 H   0  0  0  0  0  0  0  0  0  0  0  0
    6.3721   70.5170   68.7891 H   0  0  0  0  0  0  0  0  0  0  0  0
    7.3452   71.4732   67.6205 H   0  0  0  0  0  0  0  0  0  0  0  0
    5.5540   71.6088   67.6205 H   0  0  0  0  0  0  0  0  0  0  0  0
    4.3309   69.1920   62.7249 H   0  0  0  0  0  0  0  0  0  0  0  0
    5.9895   69.7799   62.3641 H   0  0  0  0  0  0  0  0  0  0  0  0
    5.6414   68.0176   62.3641 H   0  0  0  0  0  0  0  0  0  0  0  0
    2.0849   66.5388   69.1242 H   0  0  0  0  0  0  0  0  0  0  0  0
    1.4075   68.0523   69.8603 H   0  0  0  0  0  0  0  0  0  0  0  0
    0.3601   66.7831   71.3682 H   0  0  0  0  0  0  0  0  0  0  0  0
   -0.6433   66.1174   70.0164 H   0  0  0  0  0  0  0  0  0  0  0  0
    3.8537   63.1464   69.9653 H   0  0  0  0  0  0  0  0  0  0  0  0
    2.8461   65.3888   69.5897 H   0  0  0  0  0  0  0  0  0  0  0  0
   -0.6974   64.0801   71.6817 H   0  0  0  0  0  0  0  0  0  0  0  0
    0.3718   61.8612   72.0274 H   0  0  0  0  0  0  0  0  0  0  0  0
    3.3406   61.0919   72.1641 H   0  0  0  0  0  0  0  0  0  0  0  0
    1.9821   60.3143   71.2735 H   0  0  0  0  0  0  0  0  0  0  0  0
    3.2071   60.9143   69.1106 H   0  0  0  0  0  0  0  0  0  0  0  0
    4.6103   61.3798   70.1116 H   0  0  0  0  0  0  0  0  0  0  0  0
    2.7794   56.8496   72.0104 H   0  0  0  0  0  0  0  0  0  0  0  0
    2.0743   57.4862   70.4859 H   0  0  0  0  0  0  0  0  0  0  0  0
    3.7270   56.7824   70.4859 H   0  0  0  0  0  0  0  0  0  0  0  0
    4.4104   58.6253   72.0860 H   0  0  0  0  0  0  0  0  0  0  0  0
    2.7858   59.3692   71.7882 H   0  0  0  0  0  0  0  0  0  0  0  0
  2  1  2  0
  3  1  1  0
  4  3  1  0
  5  4  1  0
  6  5  2  0
  7  6  1  0
  7  3  1  0
  8  6  1  0
  9  8  2  0
 10  9  1  0
 11 10  2  0
 11  5  1  0
 12 10  1  0
 13 12  1  0
 14  9  1  0
 15 14  1  0
 16  1  1  0
 17 16  1  0
 19 18  2  0
 20 19  1  0
 21 20  2  0
 21 17  1  0
 22 21  1  0
 23 22  2  0
 23 18  1  0
 24 18  1  0
 25 24  1  0
 26 25  1  0
 28 26  1  0
 28 27  1  0
  3 29  1  6
  4 30  1  0
  4 31  1  0
  8 32  1  0
 11 33  1  0
 13 34  1  0
 13 35  1  0
 13 36  1  0
 15 37  1  0
 15 38  1  0
 15 39  1  0
 16 40  1  0
 16 41  1  0
 17 42  1  0
 17 43  1  0
 19 44  1  0
 20 45  1  0
 22 46  1  0
 23 47  1  0
 24 48  1  0
 24 49  1  0
 25 50  1  0
 25 51  1  0
 27 52  1  0
 27 53  1  0
 27 54  1  0
 28 55  1  0
 28 56  1  0
M  CHG  1  18   1
M  END
>  <score>  (1) 
-9.24

$$$$
=
     RDKit          3D

 56 58  0  0  0  0  0  0  0  0999 V2000
    0.0330   67.2730   68.1900 C   0  0  0  0  0  0  0  0  0  0  0  0
   -0.8920   66.4800   67.9970 O   0  0  0  0  0  0  0  0  0  0  0  0
    0.0330   68.6390   67.5040 C   0  0  1  0  0  0  0  0  0  0  0  0
    1.3250   69.4260   67.7690 C   0  0  0  0  0  0  0  0  0  0  0  0
    2.2370   69.1890   66.5980 C   0  0  0  0  0  0  0  0  0  0  0  0
    1.6000   68.7430   65.4410 C   0  0  0  0  0  0  0  0  0  0  0  0
   -0.1280   68.4550   65.6950 S   0  0  0  0  0  0  0  0  0  0  0  0
    2.3060   68.5070   64.2680 C   0  0  0  0  0  0  0  0  0  0  0  0
    3.6900   68.7220   64.2480 C   0  0  0  0  0  0  0  0  0  0  0  0
    4.3330   69.1850   65.4180 C   0  0  0  0  0  0  0  0  0  0  0  0
    3.6060   69.4130   66.5930 C   0  0  0  0  0  0  0  0  0  0  0  0
    5.6840   69.3890   65.5410 O   0  0  0  0  0  0  0  0  0  0  0  0
    6.0560   70.1050   66.7200 C   0  0  0  0  0  0  0  0  0  0  0  0
    4.4810   68.4430   63.1650 O   0  0  0  0  0  0  0  0  0  0  0  0
    4.4760   67.1000   62.6910 C   0  0  0  0  0  0  0  0  0  0  0  0
    1.1690   66.9200   69.1440 C   0  0  0  0  0  0  0  0  0  0  0  0
    0.6480   66.3350   70.4570 C   0  0  0  0  0  0  0  0  0  0  0  0
    1.9380   62.2880   71.0140 N   0  0  0  0  0  4  0  0  0  0  0  0
    2.7830   63.1900   70.4610 C   0  0  0  0  0  0  0  0  0  0  0  0
    2.3810   64.5060   70.2650 C   0  0  0  0  0  0  0  0  0  0  0  0
    1.0980   64.9030   70.6400 C   0  0  0  0  0  0  0  0  0  0  0  0
    0.2490   63.9570   71.2160 C   0  0  0  0  0  0  0  0  0  0  0  0
    0.6920   62.6510   71.3960 C   0  0  0  0  0  0  0  0  0  0  0  0
    2.3890   60.8940   71.2190 C   0  0  0  0  0  0  0  0  0  0  0  0
    3.1720   60.4120   70.0020 C   0  0  0  0  0  0  0  0  0  0  0  0
    4.3020   59.6810   70.4680 O   0  0  0  0  0  0  0  0  0  0  0  0
    5.7790   61.1320   71.7550 C   0  0  0  0  0  0  0  0  0  0  0  0
    4.7200   60.0440   71.7860 C   0  0  0  0  0  0  0  0  0  0  0  0
   -0.8232   69.1870   67.9243 H   0  0  0  0  0  0  0  0  0  0  0  0
    1.1007   70.4989   67.8611 H   0  0  0  0  0  0  0  0  0  0  0  0
    1.7981   69.0965   68.7058 H   0  0  0  0  0  0  0  0  0  0  0  0
    1.7843   68.1555   63.3656 H   0  0  0  0  0  0  0  0  0  0  0  0
    4.1150   69.7659   67.5021 H   0  0  0  0  0  0  0  0  0  0  0  0
    5.7569   69.5293   67.6083 H   0  0  0  0  0  0  0  0  0  0  0  0
    7.1458   70.2544   66.7297 H   0  0  0  0  0  0  0  0  0  0  0  0
    5.5518   71.0826   66.7297 H   0  0  0  0  0  0  0  0  0  0  0  0
    4.4734   66.4091   63.5469 H   0  0  0  0  0  0  0  0  0  0  0  0
    3.5772   66.9302   62.0800 H   0  0  0  0  0  0  0  0  0  0  0  0
    5.3735   66.9235   62.0800 H   0  0  0  0  0  0  0  0  0  0  0  0
    1.8235   66.1803   68.6598 H   0  0  0  0  0  0  0  0  0  0  0  0
    1.7194   67.8437   69.3763 H   0  0  0  0  0  0  0  0  0  0  0  0
    1.0281   66.9393   71.2938 H   0  0  0  0  0  0  0  0  0  0  0  0
   -0.4516   66.3518   70.4313 H   0  0  0  0  0  0  0  0  0  0  0  0
    3.7956   62.8788   70.1645 H   0  0  0  0  0  0  0  0  0  0  0  0
    3.0734   65.2327   69.8151 H   0  0  0  0  0  0  0  0  0  0  0  0
   -0.7667   64.2432   71.5265 H   0  0  0  0  0  0  0  0  0  0  0  0
    0.0234   61.9066   71.8530 H   0  0  0  0  0  0  0  0  0  0  0  0
    3.0343   60.8475   72.1086 H   0  0  0  0  0  0  0  0  0  0  0  0
    1.5098   60.2483   71.3602 H   0  0  0  0  0  0  0  0  0  0  0  0
    2.5365   59.7622   69.3824 H   0  0  0  0  0  0  0  0  0  0  0  0
    3.4954   61.2681   69.3916 H   0  0  0  0  0  0  0  0  0  0  0  0
    6.0495   61.4099   72.7844 H   0  0  0  0  0  0  0  0  0  0  0  0
    6.6709   60.7607   71.2291 H   0  0  0  0  0  0  0  0  0  0  0  0
    5.3837   62.0136   71.2291 H   0  0  0  0  0  0  0  0  0  0  0  0
    3.8487   60.4095   72.3492 H   0  0  0  0  0  0  0  0  0  0  0  0
    5.1532   59.1549   72.2675 H   0  0  0  0  0  0  0  0  0  0  0  0
  2  1  2  0
  3  1  1  0
  4  3  1  0
  5  4  1  0
  6  5  2  0
  7  6  1  0
  7  3  1  0
  8  6  1  0
  9  8  2  0
 10  9  1  0
 11 10  2  0
 11  5  1  0
 12 10  1  0
 13 12  1  0
 14  9  1  0
 15 14  1  0
 16  1  1  0
 17 16  1  0
 19 18  2  0
 20 19  1  0
 21 20  2  0
 21 17  1  0
 22 21  1  0
 23 22  2  0
 23 18  1  0
 24 18  1  0
 25 24  1  0
 26 25  1  0
 28 26  1  0
 28 27  1  0
  3 29  1  1
  4 30  1  0
  4 31  1  0
  8 32  1  0
 11 33  1  0
 13 34  1  0
 13 35  1  0
 13 36  1  0
 15 37  1  0
 15 38  1  0
 15 39  1  0
 16 40  1  0
 16 41  1  0
 17 42  1  0
 17 43  1  0
 19 44  1  0
 20 45  1  0
 22 46  1  0
 23 47  1  0
 24 48  1  0
 24 49  1  0
 25 50  1  0
 25 51  1  0
 27 52  1  0
 27 53  1  0
 27 54  1  0
 28 55  1  0
 28 56  1  0
M  CHG  1  18   1
M  END
>  <score>  (2) 
-9.139

$$$$
=
     RDKit          3D

 56 58  0  0  0  0  0  0  0  0999 V2000
   -0.5030   67.0110   68.1280 C   0  0  0  0  0  0  0  0  0  0  0  0
   -1.0880   66.3820   67.2430 O   0  0  0  0  0  0  0  0  0  0  0  0
    0.0160   68.4240   67.8560 C   0  0  1  0  0  0  0  0  0  0  0  0
    1.4690   68.4260   67.3600 C   0  0  0  0  0  0  0  0  0  0  0  0
    1.4250   68.4920   65.8590 C   0  0  0  0  0  0  0  0  0  0  0  0
    0.2240   68.9620   65.3280 C   0  0  0  0  0  0  0  0  0  0  0  0
   -0.9940   69.2490   66.5800 S   0  0  0  0  0  0  0  0  0  0  0  0
    0.0420   69.1060   63.9590 C   0  0  0  0  0  0  0  0  0  0  0  0
    1.0880   68.7720   63.0910 C   0  0  0  0  0  0  0  0  0  0  0  0
    2.3090   68.3060   63.6290 C   0  0  0  0  0  0  0  0  0  0  0  0
    2.4740   68.1630   65.0120 C   0  0  0  0  0  0  0  0  0  0  0  0
    3.3900   67.9040   62.8870 O   0  0  0  0  0  0  0  0  0  0  0  0
    4.0650   66.7620   63.4180 C   0  0  0  0  0  0  0  0  0  0  0  0
    0.9770   68.8060   61.7260 O   0  0  0  0  0  0  0  0  0  0  0  0
    0.1700   69.8400   61.1700 C   0  0  0  0  0  0  0  0  0  0  0  0
   -0.3230   66.4070   69.5160 C   0  0  0  0  0  0  0  0  0  0  0  0
    1.1520   66.3130   69.9100 C   0  0  0  0  0  0  0  0  0  0  0  0
    2.0760   62.4500   71.5140 N   0  0  0  0  0  4  0  0  0  0  0  0
    0.8270   62.9510   71.6540 C   0  0  0  0  0  0  0  0  0  0  0  0
    0.5080   64.2060   71.1470 C   0  0  0  0  0  0  0  0  0  0  0  0
    1.4820   64.9560   70.4890 C   0  0  0  0  0  0  0  0  0  0  0  0
    2.7600   64.4130   70.3490 C   0  0  0  0  0  0  0  0  0  0  0  0
    3.0350   63.1540   70.8690 C   0  0  0  0  0  0  0  0  0  0  0  0
    2.3910   61.1100   72.0560 C   0  0  0  0  0  0  0  0  0  0  0  0
    3.8970   60.8720   72.0250 C   0  0  0  0  0  0  0  0  0  0  0  0
    4.1240   59.4740   72.1650 O   0  0  0  0  0  0  0  0  0  0  0  0
    3.7710   58.8180   74.4860 C   0  0  0  0  0  0  0  0  0  0  0  0
    3.2230   58.8310   73.0700 C   0  0  0  0  0  0  0  0  0  0  0  0
   -0.0448   68.9583   68.8156 H   0  0  0  0  0  0  0  0  0  0  0  0
    2.0029   69.3004   67.7604 H   0  0  0  0  0  0  0  0  0  0  0  0
    1.9981   67.5221   67.6962 H   0  0  0  0  0  0  0  0  0  0  0  0
   -0.9135   69.4784   63.5611 H   0  0  0  0  0  0  0  0  0  0  0  0
    3.4252   67.7937   65.4229 H   0  0  0  0  0  0  0  0  0  0  0  0
    4.0421   66.8007   64.5171 H   0  0  0  0  0  0  0  0  0  0  0  0
    3.5631   65.8461   63.0728 H   0  0  0  0  0  0  0  0  0  0  0  0
    5.1094   66.7601   63.0728 H   0  0  0  0  0  0  0  0  0  0  0  0
   -0.2867   70.4252   61.9817 H   0  0  0  0  0  0  0  0  0  0  0  0
    0.7948   70.4992   60.5495 H   0  0  0  0  0  0  0  0  0  0  0  0
   -0.6212   69.3940   60.5495 H   0  0  0  0  0  0  0  0  0  0  0  0
   -0.8474   67.0376   70.2490 H   0  0  0  0  0  0  0  0  0  0  0  0
   -0.7375   65.3882   69.5009 H   0  0  0  0  0  0  0  0  0  0  0  0
    1.7725   66.4820   69.0176 H   0  0  0  0  0  0  0  0  0  0  0  0
    1.3553   67.0755   70.6763 H   0  0  0  0  0  0  0  0  0  0  0  0
    0.0575   62.3607   72.1731 H   0  0  0  0  0  0  0  0  0  0  0  0
   -0.5099   64.6059   71.2647 H   0  0  0  0  0  0  0  0  0  0  0  0
    3.5466   64.9794   69.8290 H   0  0  0  0  0  0  0  0  0  0  0  0
    4.0417   62.7256   70.7553 H   0  0  0  0  0  0  0  0  0  0  0  0
    2.0338   61.0445   73.0943 H   0  0  0  0  0  0  0  0  0  0  0  0
    1.8935   60.3467   71.4397 H   0  0  0  0  0  0  0  0  0  0  0  0
    4.3109   61.2235   71.0684 H   0  0  0  0  0  0  0  0  0  0  0  0
    4.3879   61.4226   72.8410 H   0  0  0  0  0  0  0  0  0  0  0  0
    2.9365   58.8378   75.2023 H   0  0  0  0  0  0  0  0  0  0  0  0
    4.3655   57.9055   74.6407 H   0  0  0  0  0  0  0  0  0  0  0  0
    4.4081   59.7013   74.6407 H   0  0  0  0  0  0  0  0  0  0  0  0
    2.2641   59.3699   73.0628 H   0  0  0  0  0  0  0  0  0  0  0  0
    3.0895   57.7895   72.7422 H   0  0  0  0  0  0  0  0  0  0  0  0
  2  1  2  0
  3  1  1  0
  4  3  1  0
  5  4  1  0
  6  5  2  0
  7  6  1  0
  7  3  1  0
  8  6  1  0
  9  8  2  0
 10  9  1  0
 11 10  2  0
 11  5  1  0
 12 10  1  0
 13 12  1  0
 14  9  1  0
 15 14  1  0
 16  1  1  0
 17 16  1  0
 19 18  2  0
 20 19  1  0
 21 20  2  0
 21 17  1  0
 22 21  1  0
 23 22  2  0
 23 18  1  0
 24 18  1  0
 25 24  1  0
 26 25  1  0
 28 26  1  0
 28 27  1  0
  3 29  1  1
  4 30  1  0
  4 31  1  0
  8 32  1  0
 11 33  1  0
 13 34  1  0
 13 35  1  0
 13 36  1  0
 15 37  1  0
 15 38  1  0
 15 39  1  0
 16 40  1  0
 16 41  1  0
 17 42  1  0
 17 43  1  0
 19 44  1  0
 20 45  1  0
 22 46  1  0
 23 47  1  0
 24 48  1  0
 24 49  1  0
 25 50  1  0
 25 51  1  0
 27 52  1  0
 27 53  1  0
 27 54  1  0
 28 55  1  0
 28 56  1  0
M  CHG  1  18   1
M  END
>  <score>  (3) 
-7.55

$$$$
=
     RDKit          3D

 56 58  0  0  0  0  0  0  0  0999 V2000
    1.5370   63.5230   70.6040 C   0  0  0  0  0  0  0  0  0  0  0  0
    1.9700   63.2700   69.4780 O   0  0  0  0  0  0  0  0  0  0  0  0
    2.3580   63.1660   71.8440 C   0  0  1  0  0  0  0  0  0  0  0  0
    1.4730   62.8400   73.0560 C   0  0  0  0  0  0  0  0  0  0  0  0
    1.3270   61.3450   73.1080 C   0  0  0  0  0  0  0  0  0  0  0  0
    2.3020   60.6360   72.4070 C   0  0  0  0  0  0  0  0  0  0  0  0
    3.4050   61.7050   71.5280 S   0  0  0  0  0  0  0  0  0  0  0  0
    2.3170   59.2480   72.3870 C   0  0  0  0  0  0  0  0  0  0  0  0
    1.3290   58.5430   73.0850 C   0  0  0  0  0  0  0  0  0  0  0  0
    0.3480   59.2600   73.8040 C   0  0  0  0  0  0  0  0  0  0  0  0
    0.3450   60.6610   73.8110 C   0  0  0  0  0  0  0  0  0  0  0  0
   -0.6960   58.6910   74.4890 O   0  0  0  0  0  0  0  0  0  0  0  0
   -1.9370   59.3810   74.3310 C   0  0  0  0  0  0  0  0  0  0  0  0
    1.2150   57.1770   73.0590 O   0  0  0  0  0  0  0  0  0  0  0  0
    1.9130   56.4530   74.0680 C   0  0  0  0  0  0  0  0  0  0  0  0
    0.1970   64.2290   70.7770 C   0  0  0  0  0  0  0  0  0  0  0  0
    0.3650   65.7420   70.9230 C   0  0  0  0  0  0  0  0  0  0  0  0
    0.1450   67.7450   67.1430 N   0  0  0  0  0  4  0  0  0  0  0  0
   -0.9340   67.0750   67.6080 C   0  0  0  0  0  0  0  0  0  0  0  0
   -0.8810   66.4110   68.8290 C   0  0  0  0  0  0  0  0  0  0  0  0
    0.2930   66.4360   69.5820 C   0  0  0  0  0  0  0  0  0  0  0  0
    1.3880   67.1430   69.0850 C   0  0  0  0  0  0  0  0  0  0  0  0
    1.2920   67.7930   67.8600 C   0  0  0  0  0  0  0  0  0  0  0  0
    0.0650   68.4490   65.8440 C   0  0  0  0  0  0  0  0  0  0  0  0
    1.2020   67.9980   64.9320 C   0  0  0  0  0  0  0  0  0  0  0  0
    2.0700   69.1080   64.7310 O   0  0  0  0  0  0  0  0  0  0  0  0
    4.2510   69.5000   65.7480 C   0  0  0  0  0  0  0  0  0  0  0  0
    3.4560   68.7570   64.6890 C   0  0  0  0  0  0  0  0  0  0  0  0
    2.9712   64.0520   72.0654 H   0  0  0  0  0  0  0  0  0  0  0  0
    1.9477   63.2050   73.9788 H   0  0  0  0  0  0  0  0  0  0  0  0
    0.4905   63.3262   72.9651 H   0  0  0  0  0  0  0  0  0  0  0  0
    3.0963   58.7082   71.8291 H   0  0  0  0  0  0  0  0  0  0  0  0
   -0.4270   61.2127   74.3674 H   0  0  0  0  0  0  0  0  0  0  0  0
   -2.3557   59.6138   75.3212 H   0  0  0  0  0  0  0  0  0  0  0  0
   -1.7689   60.3152   73.7751 H   0  0  0  0  0  0  0  0  0  0  0  0
   -2.6418   58.7452   73.7751 H   0  0  0  0  0  0  0  0  0  0  0  0
    1.5828   56.7955   75.0598 H   0  0  0  0  0  0  0  0  0  0  0  0
    1.7010   55.3789   73.9616 H   0  0  0  0  0  0  0  0  0  0  0  0
    2.9942   56.6256   73.9616 H   0  0  0  0  0  0  0  0  0  0  0  0
   -0.4294   64.0240   69.8964 H   0  0  0  0  0  0  0  0  0  0  0  0
   -0.2735   63.8478   71.6953 H   0  0  0  0  0  0  0  0  0  0  0  0
   -0.4350   66.1303   71.5705 H   0  0  0  0  0  0  0  0  0  0  0  0
    1.3535   65.9401   71.3631 H   0  0  0  0  0  0  0  0  0  0  0  0
   -1.8608   67.0551   67.0158 H   0  0  0  0  0  0  0  0  0  0  0  0
   -1.7625   65.8676   69.1999 H   0  0  0  0  0  0  0  0  0  0  0  0
    2.3244   67.1860   69.6606 H   0  0  0  0  0  0  0  0  0  0  0  0
    2.1558   68.3513   67.4699 H   0  0  0  0  0  0  0  0  0  0  0  0
   -0.8983   68.2200   65.3649 H   0  0  0  0  0  0  0  0  0  0  0  0
    0.1496   69.5322   66.0159 H   0  0  0  0  0  0  0  0  0  0  0  0
    1.7546   67.1725   65.4044 H   0  0  0  0  0  0  0  0  0  0  0  0
    0.8033   67.6449   63.9695 H   0  0  0  0  0  0  0  0  0  0  0  0
    3.9145   69.1855   66.7469 H   0  0  0  0  0  0  0  0  0  0  0  0
    5.3205   69.2702   65.6321 H   0  0  0  0  0  0  0  0  0  0  0  0
    4.0939   70.5825   65.6321 H   0  0  0  0  0  0  0  0  0  0  0  0
    3.5560   67.6751   64.8606 H   0  0  0  0  0  0  0  0  0  0  0  0
    3.8525   69.0354   63.7014 H   0  0  0  0  0  0  0  0  0  0  0  0
  2  1  2  0
  3  1  1  0
  4  3  1  0
  5  4  1  0
  6  5  2  0
  7  6  1  0
  7  3  1  0
  8  6  1  0
  9  8  2  0
 10  9  1  0
 11 10  2  0
 11  5  1  0
 12 10  1  0
 13 12  1  0
 14  9  1  0
 15 14  1  0
 16  1  1  0
 17 16  1  0
 19 18  2  0
 20 19  1  0
 21 20  2  0
 21 17  1  0
 22 21  1  0
 23 22  2  0
 23 18  1  0
 24 18  1  0
 25 24  1  0
 26 25  1  0
 28 26  1  0
 28 27  1  0
  3 29  1  1
  4 30  1  0
  4 31  1  0
  8 32  1  0
 11 33  1  0
 13 34  1  0
 13 35  1  0
 13 36  1  0
 15 37  1  0
 15 38  1  0
 15 39  1  0
 16 40  1  0
 16 41  1  0
 17 42  1  0
 17 43  1  0
 19 44  1  0
 20 45  1  0
 22 46  1  0
 23 47  1  0
 24 48  1  0
 24 49  1  0
 25 50  1  0
 25 51  1  0
 27 52  1  0
 27 53  1  0
 27 54  1  0
 28 55  1  0
 28 56  1  0
M  CHG  1  18   1
M  END
>  <score>  (4) 
-7.515

$$$$
=
     RDKit          3D

 56 58  0  0  0  0  0  0  0  0999 V2000
    3.5640   62.1580   69.7310 C   0  0  0  0  0  0  0  0  0  0  0  0
    2.8450   62.2890   68.7370 O   0  0  0  0  0  0  0  0  0  0  0  0
    4.4590   60.9260   69.8760 C   0  0  1  0  0  0  0  0  0  0  0  0
    5.0920   60.8270   71.2710 C   0  0  0  0  0  0  0  0  0  0  0  0
    4.2280   59.9060   72.0860 C   0  0  0  0  0  0  0  0  0  0  0  0
    3.4010   59.0670   71.3400 C   0  0  0  0  0  0  0  0  0  0  0  0
    3.5030   59.3960   69.6040 S   0  0  0  0  0  0  0  0  0  0  0  0
    2.5660   58.1400   71.9500 C   0  0  0  0  0  0  0  0  0  0  0  0
    2.5530   58.0470   73.3480 C   0  0  0  0  0  0  0  0  0  0  0  0
    3.4000   58.8900   74.1030 C   0  0  0  0  0  0  0  0  0  0  0  0
    4.2330   59.8210   73.4710 C   0  0  0  0  0  0  0  0  0  0  0  0
    3.4480   58.9290   75.4740 O   0  0  0  0  0  0  0  0  0  0  0  0
    4.2890   57.9300   76.0520 C   0  0  0  0  0  0  0  0  0  0  0  0
    1.7090   57.2210   74.0420 O   0  0  0  0  0  0  0  0  0  0  0  0
    0.5440   56.7690   73.3590 C   0  0  0  0  0  0  0  0  0  0  0  0
    3.6020   63.2360   70.8070 C   0  0  0  0  0  0  0  0  0  0  0  0
    2.1980   63.6580   71.2410 C   0  0  0  0  0  0  0  0  0  0  0  0
    0.5770   61.0210   74.2020 N   0  0  0  0  0  4  0  0  0  0  0  0
    1.4300   62.0030   74.5760 C   0  0  0  0  0  0  0  0  0  0  0  0
    1.9730   62.8650   73.6290 C   0  0  0  0  0  0  0  0  0  0  0  0
    1.6380   62.7170   72.2840 C   0  0  0  0  0  0  0  0  0  0  0  0
    0.7490   61.7030   71.9250 C   0  0  0  0  0  0  0  0  0  0  0  0
    0.2280   60.8640   72.9040 C   0  0  0  0  0  0  0  0  0  0  0  0
    0.0070   60.1190   75.2270 C   0  0  0  0  0  0  0  0  0  0  0  0
    0.4080   60.5890   76.6210 C   0  0  0  0  0  0  0  0  0  0  0  0
   -0.7820   60.8880   77.3430 O   0  0  0  0  0  0  0  0  0  0  0  0
   -1.6410   63.0910   76.7510 C   0  0  0  0  0  0  0  0  0  0  0  0
   -1.7640   61.5870   76.5750 C   0  0  0  0  0  0  0  0  0  0  0  0
    5.2507   61.0370   69.1205 H   0  0  0  0  0  0  0  0  0  0  0  0
    6.1107   60.4190   71.1947 H   0  0  0  0  0  0  0  0  0  0  0  0
    5.1580   61.8191   71.7415 H   0  0  0  0  0  0  0  0  0  0  0  0
    1.9224   57.4865   71.3428 H   0  0  0  0  0  0  0  0  0  0  0  0
    4.8844   60.4780   74.0660 H   0  0  0  0  0  0  0  0  0  0  0  0
    4.2346   57.9946   77.1488 H   0  0  0  0  0  0  0  0  0  0  0  0
    3.9530   56.9345   75.7262 H   0  0  0  0  0  0  0  0  0  0  0  0
    5.3272   58.0914   75.7262 H   0  0  0  0  0  0  0  0  0  0  0  0
   -0.2197   56.4727   74.0932 H   0  0  0  0  0  0  0  0  0  0  0  0
    0.1510   57.5799   72.7281 H   0  0  0  0  0  0  0  0  0  0  0  0
    0.8008   55.9052   72.7281 H   0  0  0  0  0  0  0  0  0  0  0  0
    4.1426   62.8461   71.6821 H   0  0  0  0  0  0  0  0  0  0  0  0
    4.1089   64.1179   70.3883 H   0  0  0  0  0  0  0  0  0  0  0  0
    2.2433   64.6732   71.6620 H   0  0  0  0  0  0  0  0  0  0  0  0
    1.5398   63.6304   70.3601 H   0  0  0  0  0  0  0  0  0  0  0  0
    1.6959   62.1203   75.6369 H   0  0  0  0  0  0  0  0  0  0  0  0
    2.6649   63.6613   73.9406 H   0  0  0  0  0  0  0  0  0  0  0  0
    0.4615   61.5679   70.8719 H   0  0  0  0  0  0  0  0  0  0  0  0
   -0.4739   60.0658   72.6208 H   0  0  0  0  0  0  0  0  0  0  0  0
   -1.0899   60.1212   75.1440 H   0  0  0  0  0  0  0  0  0  0  0  0
    0.3929   59.1016   75.0655 H   0  0  0  0  0  0  0  0  0  0  0  0
    0.9678   59.7945   77.1363 H   0  0  0  0  0  0  0  0  0  0  0  0
    1.0490   61.4804   76.5543 H   0  0  0  0  0  0  0  0  0  0  0  0
   -1.6211   63.3342   77.8236 H   0  0  0  0  0  0  0  0  0  0  0  0
   -0.7113   63.4407   76.2784 H   0  0  0  0  0  0  0  0  0  0  0  0
   -2.5016   63.5871   76.2784 H   0  0  0  0  0  0  0  0  0  0  0  0
   -1.6291   61.3393   75.5118 H   0  0  0  0  0  0  0  0  0  0  0  0
   -2.7601   61.2787   76.9255 H   0  0  0  0  0  0  0  0  0  0  0  0
  2  1  2  0
  3  1  1  0
  4  3  1  0
  5  4  1  0
  6  5  2  0
  7  6  1  0
  7  3  1  0
  8  6  1  0
  9  8  2  0
 10  9  1  0
 11 10  2  0
 11  5  1  0
 12 10  1  0
 13 12  1  0
 14  9  1  0
 15 14  1  0
 16  1  1  0
 17 16  1  0
 19 18  2  0
 20 19  1  0
 21 20  2  0
 21 17  1  0
 22 21  1  0
 23 22  2  0
 23 18  1  0
 24 18  1  0
 25 24  1  0
 26 25  1  0
 28 26  1  0
 28 27  1  0
  3 29  1  6
  4 30  1  0
  4 31  1  0
  8 32  1  0
 11 33  1  0
 13 34  1  0
 13 35  1  0
 13 36  1  0
 15 37  1  0
 15 38  1  0
 15 39  1  0
 16 40  1  0
 16 41  1  0
 17 42  1  0
 17 43  1  0
 19 44  1  0
 20 45  1  0
 22 46  1  0
 23 47  1  0
 24 48  1  0
 24 49  1  0
 25 50  1  0
 25 51  1  0
 27 52  1  0
 27 53  1  0
 27 54  1  0
 28 55  1  0
 28 56  1  0
M  CHG  1  18   1
M  END
>  <score>  (5) 
-7.466

$$$$
=
     RDKit          3D

 56 58  0  0  0  0  0  0  0  0999 V2000
    2.8690   62.8790   69.9670 C   0  0  0  0  0  0  0  0  0  0  0  0
    1.9460   62.5380   69.2220 O   0  0  0  0  0  0  0  0  0  0  0  0
    4.0900   61.9750   70.1430 C   0  0  1  0  0  0  0  0  0  0  0  0
    4.5650   61.9160   71.6020 C   0  0  0  0  0  0  0  0  0  0  0  0
    3.9580   60.6850   72.2160 C   0  0  0  0  0  0  0  0  0  0  0  0
    3.5300   59.7240   71.3010 C   0  0  0  0  0  0  0  0  0  0  0  0
    3.7110   60.2660   69.6260 S   0  0  0  0  0  0  0  0  0  0  0  0
    2.9750   58.5210   71.7170 C   0  0  0  0  0  0  0  0  0  0  0  0
    2.8410   58.2680   73.0880 C   0  0  0  0  0  0  0  0  0  0  0  0
    3.2840   59.2370   74.0150 C   0  0  0  0  0  0  0  0  0  0  0  0
    3.8380   60.4470   73.5780 C   0  0  0  0  0  0  0  0  0  0  0  0
    3.1670   59.1300   75.3780 O   0  0  0  0  0  0  0  0  0  0  0  0
    2.5330   60.2510   75.9940 C   0  0  0  0  0  0  0  0  0  0  0  0
    2.2350   57.1470   73.5930 O   0  0  0  0  0  0  0  0  0  0  0  0
    0.8620   56.9540   73.2670 C   0  0  0  0  0  0  0  0  0  0  0  0
    2.8240   64.2200   70.6900 C   0  0  0  0  0  0  0  0  0  0  0  0
    1.3930   64.6400   71.0240 C   0  0  0  0  0  0  0  0  0  0  0  0
   -0.0580   67.5230   68.2070 N   0  0  0  0  0  4  0  0  0  0  0  0
    1.1950   67.6450   68.7050 C   0  0  0  0  0  0  0  0  0  0  0  0
    1.6820   66.7240   69.6260 C   0  0  0  0  0  0  0  0  0  0  0  0
    0.8750   65.6660   70.0420 C   0  0  0  0  0  0  0  0  0  0  0  0
   -0.4090   65.5560   69.5070 C   0  0  0  0  0  0  0  0  0  0  0  0
   -0.8560   66.4980   68.5870 C   0  0  0  0  0  0  0  0  0  0  0  0
   -0.5540   68.5110   67.2240 C   0  0  0  0  0  0  0  0  0  0  0  0
    0.2720   68.4370   65.9440 C   0  0  0  0  0  0  0  0  0  0  0  0
    0.4500   67.0630   65.6150 O   0  0  0  0  0  0  0  0  0  0  0  0
    2.7220   67.8940   65.3130 C   0  0  0  0  0  0  0  0  0  0  0  0
    1.7390   66.7610   65.0760 C   0  0  0  0  0  0  0  0  0  0  0  0
    4.8816   62.4109   69.5159 H   0  0  0  0  0  0  0  0  0  0  0  0
    5.6626   61.8540   71.6391 H   0  0  0  0  0  0  0  0  0  0  0  0
    4.2577   62.8188   72.1502 H   0  0  0  0  0  0  0  0  0  0  0  0
    2.6445   57.7757   70.9786 H   0  0  0  0  0  0  0  0  0  0  0  0
    4.1741   61.2000   74.3060 H   0  0  0  0  0  0  0  0  0  0  0  0
    2.5905   60.1494   77.0878 H   0  0  0  0  0  0  0  0  0  0  0  0
    3.0418   61.1758   75.6844 H   0  0  0  0  0  0  0  0  0  0  0  0
    1.4782   60.2915   75.6844 H   0  0  0  0  0  0  0  0  0  0  0  0
    0.2735   56.8713   74.1926 H   0  0  0  0  0  0  0  0  0  0  0  0
    0.5010   57.8102   72.6783 H   0  0  0  0  0  0  0  0  0  0  0  0
    0.7511   56.0314   72.6783 H   0  0  0  0  0  0  0  0  0  0  0  0
    3.3983   64.1394   71.6247 H   0  0  0  0  0  0  0  0  0  0  0  0
    3.2558   64.9811   70.0235 H   0  0  0  0  0  0  0  0  0  0  0  0
    0.7430   63.7532   70.9911 H   0  0  0  0  0  0  0  0  0  0  0  0
    1.3899   65.0897   72.0279 H   0  0  0  0  0  0  0  0  0  0  0  0
    1.8330   68.4794   68.3784 H   0  0  0  0  0  0  0  0  0  0  0  0
    2.7015   66.8300   70.0253 H   0  0  0  0  0  0  0  0  0  0  0  0
   -1.0651   64.7273   69.8118 H   0  0  0  0  0  0  0  0  0  0  0  0
   -1.8676   66.4093   68.1641 H   0  0  0  0  0  0  0  0  0  0  0  0
   -1.6070   68.2948   66.9905 H   0  0  0  0  0  0  0  0  0  0  0  0
   -0.4651   69.5204   67.6520 H   0  0  0  0  0  0  0  0  0  0  0  0
   -0.2570   68.9509   65.1279 H   0  0  0  0  0  0  0  0  0  0  0  0
    1.2471   68.9250   66.0892 H   0  0  0  0  0  0  0  0  0  0  0  0
    2.8533   68.0453   66.3946 H   0  0  0  0  0  0  0  0  0  0  0  0
    3.6908   67.6401   64.8580 H   0  0  0  0  0  0  0  0  0  0  0  0
    2.3340   68.8173   64.8580 H   0  0  0  0  0  0  0  0  0  0  0  0
    2.1225   65.8489   65.5567 H   0  0  0  0  0  0  0  0  0  0  0  0
    1.6337   66.6175   63.9905 H   0  0  0  0  0  0  0  0  0  0  0  0
  2  1  2  0
  3  1  1  0
  4  3  1  0
  5  4  1  0
  6  5  2  0
  7  6  1  0
  7  3  1  0
  8  6  1  0
  9  8  2  0
 10  9  1  0
 11 10  2  0
 11  5  1  0
 12 10  1  0
 13 12  1  0
 14  9  1  0
 15 14  1  0
 16  1  1  0
 17 16  1  0
 19 18  2  0
 20 19  1  0
 21 20  2  0
 21 17  1  0
 22 21  1  0
 23 22  2  0
 23 18  1  0
 24 18  1  0
 25 24  1  0
 26 25  1  0
 28 26  1  0
 28 27  1  0
  3 29  1  6
  4 30  1  0
  4 31  1  0
  8 32  1  0
 11 33  1  0
 13 34  1  0
 13 35  1  0
 13 36  1  0
 15 37  1  0
 15 38  1  0
 15 39  1  0
 16 40  1  0
 16 41  1  0
 17 42  1  0
 17 43  1  0
 19 44  1  0
 20 45  1  0
 22 46  1  0
 23 47  1  0
 24 48  1  0
 24 49  1  0
 25 50  1  0
 25 51  1  0
 27 52  1  0
 27 53  1  0
 27 54  1  0
 28 55  1  0
 28 56  1  0
M  CHG  1  18   1
M  END
>  <score>  (6) 
-7.465

$$$$
=
     RDKit          3D

 56 58  0  0  0  0  0  0  0  0999 V2000
    4.4580   62.7820   70.3030 C   0  0  0  0  0  0  0  0  0  0  0  0
    5.1790   63.7510   70.5570 O   0  0  0  0  0  0  0  0  0  0  0  0
    3.0280   62.9960   69.8060 C   0  0  1  0  0  0  0  0  0  0  0  0
    2.1060   61.8210   70.1610 C   0  0  0  0  0  0  0  0  0  0  0  0
    1.3850   62.1900   71.4280 C   0  0  0  0  0  0  0  0  0  0  0  0
    1.3610   63.5550   71.7120 C   0  0  0  0  0  0  0  0  0  0  0  0
    2.3030   64.4980   70.5470 S   0  0  0  0  0  0  0  0  0  0  0  0
    0.7090   64.0530   72.8310 C   0  0  0  0  0  0  0  0  0  0  0  0
    0.0610   63.1630   73.6970 C   0  0  0  0  0  0  0  0  0  0  0  0
    0.0760   61.7810   73.4040 C   0  0  0  0  0  0  0  0  0  0  0  0
    0.7420   61.2960   72.2720 C   0  0  0  0  0  0  0  0  0  0  0  0
   -0.4800   60.8060   74.1930 O   0  0  0  0  0  0  0  0  0  0  0  0
   -1.7910   60.4090   73.7860 C   0  0  0  0  0  0  0  0  0  0  0  0
   -0.5410   63.5510   74.8660 O   0  0  0  0  0  0  0  0  0  0  0  0
   -0.2880   64.8790   75.3130 C   0  0  0  0  0  0  0  0  0  0  0  0
    4.9930   61.3620   70.4430 C   0  0  0  0  0  0  0  0  0  0  0  0
    5.1780   60.9650   71.9090 C   0  0  0  0  0  0  0  0  0  0  0  0
    2.5290   57.7770   72.9930 N   0  0  0  0  0  4  0  0  0  0  0  0
    3.0470   58.5740   73.9570 C   0  0  0  0  0  0  0  0  0  0  0  0
    3.9150   59.6090   73.6270 C   0  0  0  0  0  0  0  0  0  0  0  0
    4.2550   59.8300   72.2920 C   0  0  0  0  0  0  0  0  0  0  0  0
    3.7000   59.0020   71.3170 C   0  0  0  0  0  0  0  0  0  0  0  0
    2.8350   57.9790   71.6900 C   0  0  0  0  0  0  0  0  0  0  0  0
    1.6040   56.6850   73.3670 C   0  0  0  0  0  0  0  0  0  0  0  0
    2.0590   56.0340   74.6690 C   0  0  0  0  0  0  0  0  0  0  0  0
    2.2790   54.6500   74.4140 O   0  0  0  0  0  0  0  0  0  0  0  0
    0.3990   53.1510   74.0180 C   0  0  0  0  0  0  0  0  0  0  0  0
    1.3240   53.7890   75.0390 C   0  0  0  0  0  0  0  0  0  0  0  0
    3.0991   63.0896   68.7123 H   0  0  0  0  0  0  0  0  0  0  0  0
    1.3817   61.6518   69.3506 H   0  0  0  0  0  0  0  0  0  0  0  0
    2.6859   60.8961   70.2964 H   0  0  0  0  0  0  0  0  0  0  0  0
    0.7011   65.1338   73.0356 H   0  0  0  0  0  0  0  0  0  0  0  0
    0.7553   60.2179   72.0541 H   0  0  0  0  0  0  0  0  0  0  0  0
   -2.4101   60.2215   74.6757 H   0  0  0  0  0  0  0  0  0  0  0  0
   -2.2463   61.2095   73.1845 H   0  0  0  0  0  0  0  0  0  0  0  0
   -1.7257   59.4903   73.1845 H   0  0  0  0  0  0  0  0  0  0  0  0
   -0.2838   64.9011   76.4128 H   0  0  0  0  0  0  0  0  0  0  0  0
    0.6899   65.2128   74.9358 H   0  0  0  0  0  0  0  0  0  0  0  0
   -1.0747   65.5490   74.9358 H   0  0  0  0  0  0  0  0  0  0  0  0
    4.2825   60.6661   69.9729 H   0  0  0  0  0  0  0  0  0  0  0  0
    5.9757   61.3174   69.9507 H   0  0  0  0  0  0  0  0  0  0  0  0
    6.2196   60.6481   72.0656 H   0  0  0  0  0  0  0  0  0  0  0  0
    4.9371   61.8352   72.5372 H   0  0  0  0  0  0  0  0  0  0  0  0
    2.7791   58.4014   75.0098 H   0  0  0  0  0  0  0  0  0  0  0  0
    4.3324   60.2517   74.4162 H   0  0  0  0  0  0  0  0  0  0  0  0
    3.9456   59.1575   70.2561 H   0  0  0  0  0  0  0  0  0  0  0  0
    2.3957   57.3283   70.9195 H   0  0  0  0  0  0  0  0  0  0  0  0
    0.5920   57.0952   73.4998 H   0  0  0  0  0  0  0  0  0  0  0  0
    1.5999   55.9281   72.5688 H   0  0  0  0  0  0  0  0  0  0  0  0
    2.9919   56.5030   75.0151 H   0  0  0  0  0  0  0  0  0  0  0  0
    1.2941   56.1626   75.4490 H   0  0  0  0  0  0  0  0  0  0  0  0
   -0.3985   52.6009   74.5390 H   0  0  0  0  0  0  0  0  0  0  0  0
   -0.0473   53.9342   73.3876 H   0  0  0  0  0  0  0  0  0  0  0  0
    0.9726   52.4556   73.3876 H   0  0  0  0  0  0  0  0  0  0  0  0
    1.8590   52.9957   75.5817 H   0  0  0  0  0  0  0  0  0  0  0  0
    0.7144   54.3919   75.7282 H   0  0  0  0  0  0  0  0  0  0  0  0
  2  1  2  0
  3  1  1  0
  4  3  1  0
  5  4  1  0
  6  5  2  0
  7  6  1  0
  7  3  1  0
  8  6  1  0
  9  8  2  0
 10  9  1  0
 11 10  2  0
 11  5  1  0
 12 10  1  0
 13 12  1  0
 14  9  1  0
 15 14  1  0
 16  1  1  0
 17 16  1  0
 19 18  2  0
 20 19  1  0
 21 20  2  0
 21 17  1  0
 22 21  1  0
 23 22  2  0
 23 18  1  0
 24 18  1  0
 25 24  1  0
 26 25  1  0
 28 26  1  0
 28 27  1  0
  3 29  1  6
  4 30  1  0
  4 31  1  0
  8 32  1  0
 11 33  1  0
 13 34  1  0
 13 35  1  0
 13 36  1  0
 15 37  1  0
 15 38  1  0
 15 39  1  0
 16 40  1  0
 16 41  1  0
 17 42  1  0
 17 43  1  0
 19 44  1  0
 20 45  1  0
 22 46  1  0
 23 47  1  0
 24 48  1  0
 24 49  1  0
 25 50  1  0
 25 51  1  0
 27 52  1  0
 27 53  1  0
 27 54  1  0
 28 55  1  0
 28 56  1  0
M  CHG  1  18   1
M  END
>  <score>  (7) 
-7.408

$$$$
=
     RDKit          3D

 56 58  0  0  0  0  0  0  0  0999 V2000
    4.4310   62.7250   70.2210 C   0  0  0  0  0  0  0  0  0  0  0  0
    5.1920   63.6070   70.6280 O   0  0  0  0  0  0  0  0  0  0  0  0
    4.8750   61.2620   70.2260 C   0  0  1  0  0  0  0  0  0  0  0  0
    5.4220   60.8230   71.5920 C   0  0  0  0  0  0  0  0  0  0  0  0
    4.2940   60.1560   72.3280 C   0  0  0  0  0  0  0  0  0  0  0  0
    3.2500   59.7100   71.5190 C   0  0  0  0  0  0  0  0  0  0  0  0
    3.4770   60.1600   69.8220 S   0  0  0  0  0  0  0  0  0  0  0  0
    2.1510   59.0490   72.0500 C   0  0  0  0  0  0  0  0  0  0  0  0
    2.0890   58.8250   73.4320 C   0  0  0  0  0  0  0  0  0  0  0  0
    3.1530   59.2680   74.2500 C   0  0  0  0  0  0  0  0  0  0  0  0
    4.2520   59.9370   73.6970 C   0  0  0  0  0  0  0  0  0  0  0  0
    3.1920   59.1510   75.6160 O   0  0  0  0  0  0  0  0  0  0  0  0
    3.8960   57.9980   76.0800 C   0  0  0  0  0  0  0  0  0  0  0  0
    1.0120   58.2530   74.0570 O   0  0  0  0  0  0  0  0  0  0  0  0
    0.7360   56.8910   73.7470 C   0  0  0  0  0  0  0  0  0  0  0  0
    3.0260   63.0750   69.7440 C   0  0  0  0  0  0  0  0  0  0  0  0
    2.3310   64.0540   70.6910 C   0  0  0  0  0  0  0  0  0  0  0  0
   -0.0230   61.9560   73.5900 N   0  0  0  0  0  4  0  0  0  0  0  0
   -0.5490   62.2310   72.3740 C   0  0  0  0  0  0  0  0  0  0  0  0
    0.1960   62.9180   71.4210 C   0  0  0  0  0  0  0  0  0  0  0  0
    1.4950   63.3270   71.7200 C   0  0  0  0  0  0  0  0  0  0  0  0
    2.0180   63.0230   72.9770 C   0  0  0  0  0  0  0  0  0  0  0  0
    1.2390   62.3330   73.9000 C   0  0  0  0  0  0  0  0  0  0  0  0
   -0.8320   61.2190   74.5870 C   0  0  0  0  0  0  0  0  0  0  0  0
   -2.1130   60.7000   73.9420 C   0  0  0  0  0  0  0  0  0  0  0  0
   -2.3110   59.3590   74.3780 O   0  0  0  0  0  0  0  0  0  0  0  0
   -3.4350   58.2350   76.2250 C   0  0  0  0  0  0  0  0  0  0  0  0
   -3.5730   59.1390   75.0120 C   0  0  0  0  0  0  0  0  0  0  0  0
    5.6706   61.1855   69.4702 H   0  0  0  0  0  0  0  0  0  0  0  0
    6.2535   60.1159   71.4556 H   0  0  0  0  0  0  0  0  0  0  0  0
    5.8007   61.6872   72.1574 H   0  0  0  0  0  0  0  0  0  0  0  0
    1.3381   58.7050   71.3936 H   0  0  0  0  0  0  0  0  0  0  0  0
    5.0729   60.2850   74.3412 H   0  0  0  0  0  0  0  0  0  0  0  0
    3.9012   57.9896   77.1800 H   0  0  0  0  0  0  0  0  0  0  0  0
    3.3979   57.0902   75.7087 H   0  0  0  0  0  0  0  0  0  0  0  0
    4.9310   58.0263   75.7087 H   0  0  0  0  0  0  0  0  0  0  0  0
    0.6201   56.3190   74.6794 H   0  0  0  0  0  0  0  0  0  0  0  0
   -0.1929   56.8293   73.1611 H   0  0  0  0  0  0  0  0  0  0  0  0
    1.5676   56.4725   73.1611 H   0  0  0  0  0  0  0  0  0  0  0  0
    3.0927   63.5322   68.7457 H   0  0  0  0  0  0  0  0  0  0  0  0
    2.4341   62.1483   69.7163 H   0  0  0  0  0  0  0  0  0  0  0  0
    3.0940   64.6538   71.2088 H   0  0  0  0  0  0  0  0  0  0  0  0
    1.6658   64.6975   70.0965 H   0  0  0  0  0  0  0  0  0  0  0  0
   -1.5737   61.9088   72.1372 H   0  0  0  0  0  0  0  0  0  0  0  0
   -0.2384   63.1379   70.4346 H   0  0  0  0  0  0  0  0  0  0  0  0
    3.0424   63.3277   73.2373 H   0  0  0  0  0  0  0  0  0  0  0  0
    1.6524   62.0918   74.8904 H   0  0  0  0  0  0  0  0  0  0  0  0
   -0.2489   60.3697   74.9726 H   0  0  0  0  0  0  0  0  0  0  0  0
   -1.0937   61.8984   75.4116 H   0  0  0  0  0  0  0  0  0  0  0  0
   -2.9656   61.3229   74.2504 H   0  0  0  0  0  0  0  0  0  0  0  0
   -2.0324   60.7382   72.8456 H   0  0  0  0  0  0  0  0  0  0  0  0
   -3.5267   58.8354   77.1421 H   0  0  0  0  0  0  0  0  0  0  0  0
   -4.2271   57.4719   76.2056 H   0  0  0  0  0  0  0  0  0  0  0  0
   -2.4513   57.7430   76.2056 H   0  0  0  0  0  0  0  0  0  0  0  0
   -3.9859   60.1069   75.3324 H   0  0  0  0  0  0  0  0  0  0  0  0
   -4.2420   58.6485   74.2896 H   0  0  0  0  0  0  0  0  0  0  0  0
  2  1  2  0
  3  1  1  0
  4  3  1  0
  5  4  1  0
  6  5  2  0
  7  6  1  0
  7  3  1  0
  8  6  1  0
  9  8  2  0
 10  9  1  0
 11 10  2  0
 11  5  1  0
 12 10  1  0
 13 12  1  0
 14  9  1  0
 15 14  1  0
 16  1  1  0
 17 16  1  0
 19 18  2  0
 20 19  1  0
 21 20  2  0
 21 17  1  0
 22 21  1  0
 23 22  2  0
 23 18  1  0
 24 18  1  0
 25 24  1  0
 26 25  1  0
 28 26  1  0
 28 27  1  0
  3 29  1  6
  4 30  1  0
  4 31  1  0
  8 32  1  0
 11 33  1  0
 13 34  1  0
 13 35  1  0
 13 36  1  0
 15 37  1  0
 15 38  1  0
 15 39  1  0
 16 40  1  0
 16 41  1  0
 17 42  1  0
 17 43  1  0
 19 44  1  0
 20 45  1  0
 22 46  1  0
 23 47  1  0
 24 48  1  0
 24 49  1  0
 25 50  1  0
 25 51  1  0
 27 52  1  0
 27 53  1  0
 27 54  1  0
 28 55  1  0
 28 56  1  0
M  CHG  1  18   1
M  END
>  <score>  (8) 
-7.398

$$$$
=
     RDKit          3D

 56 58  0  0  0  0  0  0  0  0999 V2000
    1.5150   68.8120   67.9400 C   0  0  0  0  0  0  0  0  0  0  0  0
    1.8730   69.9410   68.2840 O   0  0  0  0  0  0  0  0  0  0  0  0
    0.7980   68.6040   66.6060 C   0  0  1  0  0  0  0  0  0  0  0  0
    1.5570   69.2380   65.4310 C   0  0  0  0  0  0  0  0  0  0  0  0
    2.3810   68.1510   64.7980 C   0  0  0  0  0  0  0  0  0  0  0  0
    1.9610   66.8530   65.0870 C   0  0  0  0  0  0  0  0  0  0  0  0
    0.6170   66.8250   66.2380 S   0  0  0  0  0  0  0  0  0  0  0  0
    2.6050   65.7450   64.5530 C   0  0  0  0  0  0  0  0  0  0  0  0
    3.7020   65.9360   63.7040 C   0  0  0  0  0  0  0  0  0  0  0  0
    4.1210   67.2510   63.4020 C   0  0  0  0  0  0  0  0  0  0  0  0
    3.4620   68.3570   63.9530 C   0  0  0  0  0  0  0  0  0  0  0  0
    5.2050   67.5700   62.6240 O   0  0  0  0  0  0  0  0  0  0  0  0
    5.7760   68.8450   62.9210 C   0  0  0  0  0  0  0  0  0  0  0  0
    4.4480   64.9060   63.1920 O   0  0  0  0  0  0  0  0  0  0  0  0
    4.7060   63.8050   64.0570 C   0  0  0  0  0  0  0  0  0  0  0  0
    1.8140   67.6040   68.8200 C   0  0  0  0  0  0  0  0  0  0  0  0
    0.5400   66.9950   69.4050 C   0  0  0  0  0  0  0  0  0  0  0  0
    1.4390   63.6090   71.8700 N   0  0  0  0  0  4  0  0  0  0  0  0
    2.2600   63.9240   70.8410 C   0  0  0  0  0  0  0  0  0  0  0  0
    1.9820   65.0150   70.0240 C   0  0  0  0  0  0  0  0  0  0  0  0
    0.8480   65.7910   70.2660 C   0  0  0  0  0  0  0  0  0  0  0  0
    0.0240   65.4510   71.3380 C   0  0  0  0  0  0  0  0  0  0  0  0
    0.3400   64.3530   72.1310 C   0  0  0  0  0  0  0  0  0  0  0  0
    1.7580   62.4470   72.7290 C   0  0  0  0  0  0  0  0  0  0  0  0
    3.0230   61.7570   72.2300 C   0  0  0  0  0  0  0  0  0  0  0  0
    2.6610   60.4620   71.7620 O   0  0  0  0  0  0  0  0  0  0  0  0
    3.5050   59.6890   69.6100 C   0  0  0  0  0  0  0  0  0  0  0  0
    3.7260   59.7650   71.1100 C   0  0  0  0  0  0  0  0  0  0  0  0
   -0.1841   69.0877   66.7129 H   0  0  0  0  0  0  0  0  0  0  0  0
    0.8452   69.6467   64.6987 H   0  0  0  0  0  0  0  0  0  0  0  0
    2.1972   70.0625   65.7780 H   0  0  0  0  0  0  0  0  0  0  0  0
    2.2577   64.7295   64.7939 H   0  0  0  0  0  0  0  0  0  0  0  0
    3.7977   69.3779   63.7184 H   0  0  0  0  0  0  0  0  0  0  0  0
    5.8344   68.9755   64.0117 H   0  0  0  0  0  0  0  0  0  0  0  0
    6.7864   68.9036   62.4900 H   0  0  0  0  0  0  0  0  0  0  0  0
    5.1470   69.6378   62.4900 H   0  0  0  0  0  0  0  0  0  0  0  0
    4.6287   64.1349   65.1035 H   0  0  0  0  0  0  0  0  0  0  0  0
    3.9699   63.0098   63.8679 H   0  0  0  0  0  0  0  0  0  0  0  0
    5.7188   63.4196   63.8679 H   0  0  0  0  0  0  0  0  0  0  0  0
    2.3271   66.8418   68.2152 H   0  0  0  0  0  0  0  0  0  0  0  0
    2.4461   67.9393   69.6555 H   0  0  0  0  0  0  0  0  0  0  0  0
    0.0304   67.7526   70.0185 H   0  0  0  0  0  0  0  0  0  0  0  0
   -0.1016   66.6699   68.5728 H   0  0  0  0  0  0  0  0  0  0  0  0
    3.1540   63.3125   70.6493 H   0  0  0  0  0  0  0  0  0  0  0  0
    2.6540   65.2651   69.1898 H   0  0  0  0  0  0  0  0  0  0  0  0
   -0.8731   66.0492   71.5559 H   0  0  0  0  0  0  0  0  0  0  0  0
   -0.3096   64.0873   72.9780 H   0  0  0  0  0  0  0  0  0  0  0  0
    1.9146   62.7906   73.7622 H   0  0  0  0  0  0  0  0  0  0  0  0
    0.9215   61.7335   72.6941 H   0  0  0  0  0  0  0  0  0  0  0  0
    3.4676   62.3398   71.4098 H   0  0  0  0  0  0  0  0  0  0  0  0
    3.7613   61.6780   73.0416 H   0  0  0  0  0  0  0  0  0  0  0  0
    2.4826   59.3374   69.4074 H   0  0  0  0  0  0  0  0  0  0  0  0
    3.6441   60.6866   69.1679 H   0  0  0  0  0  0  0  0  0  0  0  0
    4.2282   58.9879   69.1679 H   0  0  0  0  0  0  0  0  0  0  0  0
    4.6711   60.2926   71.3058 H   0  0  0  0  0  0  0  0  0  0  0  0
    3.7608   58.7394   71.5061 H   0  0  0  0  0  0  0  0  0  0  0  0
  2  1  2  0
  3  1  1  0
  4  3  1  0
  5  4  1  0
  6  5  2  0
  7  6  1  0
  7  3  1  0
  8  6  1  0
  9  8  2  0
 10  9  1  0
 11 10  2  0
 11  5  1  0
 12 10  1  0
 13 12  1  0
 14  9  1  0
 15 14  1  0
 16  1  1  0
 17 16  1  0
 19 18  2  0
 20 19  1  0
 21 20  2  0
 21 17  1  0
 22 21  1  0
 23 22  2  0
 23 18  1  0
 24 18  1  0
 25 24  1  0
 26 25  1  0
 28 26  1  0
 28 27  1  0
  3 29  1  1
  4 30  1  0
  4 31  1  0
  8 32  1  0
 11 33  1  0
 13 34  1  0
 13 35  1  0
 13 36  1  0
 15 37  1  0
 15 38  1  0
 15 39  1  0
 16 40  1  0
 16 41  1  0
 17 42  1  0
 17 43  1  0
 19 44  1  0
 20 45  1  0
 22 46  1  0
 23 47  1  0
 24 48  1  0
 24 49  1  0
 25 50  1  0
 25 51  1  0
 27 52  1  0
 27 53  1  0
 27 54  1  0
 28 55  1  0
 28 56  1  0
M  CHG  1  18   1
M  END
>  <score>  (9) 
-7.068

$$$$
