=
     RDKit          3D

 56 58  0  0  0  0  0  0  0  0999 V2000
    0.4730   66.0800   70.4210 C   0  0  0  0  0  0  0  0  0  0  0  0
    0.2030   66.7810   69.1070 C   0  0  0  0  0  0  0  0  0  0  0  0
    1.1180   67.7160   68.6060 C   0  0  0  0  0  0  0  0  0  0  0  0
    0.8820   68.3620   67.3900 C   0  0  0  0  0  0  0  0  0  0  0  0
   -0.2790   68.0880   66.6530 C   0  0  0  0  0  0  0  0  0  0  0  0
   -1.1960   67.1540   67.1560 C   0  0  0  0  0  0  0  0  0  0  0  0
   -0.9570   66.5080   68.3720 C   0  0  0  0  0  0  0  0  0  0  0  0
   -0.5400   68.7950   65.3520 C   0  0  0  0  0  0  0  0  0  0  0  0
    0.6650   68.7740   64.4200 N   0  0  2  0  0  4  0  0  0  0  0  0
    0.2720   69.1490   63.0110 C   0  0  0  0  0  0  0  0  0  0  0  0
    1.4040   67.4550   64.4510 C   0  0  0  0  0  0  0  0  0  0  0  0
    2.9170   67.6430   64.5660 C   0  0  0  0  0  0  0  0  0  0  0  0
    3.4080   69.0860   64.7290 C   0  0  0  0  0  0  0  0  0  0  0  0
    4.4830   69.2580   65.7890 C   0  0  0  0  0  0  0  0  0  0  0  0
    3.9140   69.6610   66.9480 F   0  0  0  0  0  0  0  0  0  0  0  0
    5.3480   70.2190   65.3980 F   0  0  0  0  0  0  0  0  0  0  0  0
    1.8170   65.6050   70.4050 O   0  0  0  0  0  0  0  0  0  0  0  0
    2.9310   60.1200   71.3100 C   0  0  0  0  0  0  0  0  0  0  0  0
    2.0910   59.4460   72.1100 C   0  0  0  0  0  0  0  0  0  0  0  0
    0.9230   60.0550   72.7650 C   0  0  0  0  0  0  0  0  0  0  0  0
    0.2000   59.3920   73.4970 O   0  0  0  0  0  0  0  0  0  0  0  0
    0.6930   61.3950   72.5100 O   0  0  0  0  0  0  0  0  0  0  0  0
    1.5480   62.1350   71.6700 C   0  0  0  0  0  0  0  0  0  0  0  0
    2.6600   61.5460   71.0640 C   0  0  0  0  0  0  0  0  0  0  0  0
    3.4530   62.3620   70.2520 C   0  0  0  0  0  0  0  0  0  0  0  0
    3.1310   63.7130   70.0630 C   0  0  0  0  0  0  0  0  0  0  0  0
    2.0100   64.2790   70.6770 C   0  0  0  0  0  0  0  0  0  0  0  0
    1.2120   63.4810   71.4890 C   0  0  0  0  0  0  0  0  0  0  0  0
    4.0950   59.4350   70.6520 C   0  0  0  0  0  0  0  0  0  0  0  0
    3.6530   58.7130   69.5120 O   0  0  0  0  0  0  0  0  0  0  0  0
    0.3374   66.7854   71.2540 H   0  0  0  0  0  0  0  0  0  0  0  0
   -0.2250   65.2403   70.5539 H   0  0  0  0  0  0  0  0  0  0  0  0
    2.0311   67.9437   69.1756 H   0  0  0  0  0  0  0  0  0  0  0  0
    1.6121   69.0907   67.0080 H   0  0  0  0  0  0  0  0  0  0  0  0
   -2.1110   66.9279   66.5888 H   0  0  0  0  0  0  0  0  0  0  0  0
   -1.6863   65.7790   68.7549 H   0  0  0  0  0  0  0  0  0  0  0  0
   -1.3842   68.3027   64.8470 H   0  0  0  0  0  0  0  0  0  0  0  0
   -0.7625   69.8470   65.5841 H   0  0  0  0  0  0  0  0  0  0  0  0
    1.3214   69.4859   64.7710 H   0  0  0  0  0  0  0  0  0  0  0  0
   -0.5235   69.9081   63.0419 H   0  0  0  0  0  0  0  0  0  0  0  0
    1.1466   69.5558   62.4823 H   0  0  0  0  0  0  0  0  0  0  0  0
   -0.0934   68.2563   62.4823 H   0  0  0  0  0  0  0  0  0  0  0  0
    1.0527   66.8724   65.3154 H   0  0  0  0  0  0  0  0  0  0  0  0
    1.1998   66.9313   63.5055 H   0  0  0  0  0  0  0  0  0  0  0  0
    3.2611   67.0704   65.4399 H   0  0  0  0  0  0  0  0  0  0  0  0
    3.3309   67.2971   63.6073 H   0  0  0  0  0  0  0  0  0  0  0  0
    3.8161   69.4233   63.7648 H   0  0  0  0  0  0  0  0  0  0  0  0
    2.5423   69.6814   65.0547 H   0  0  0  0  0  0  0  0  0  0  0  0
    5.0046   68.2996   65.9282 H   0  0  0  0  0  0  0  0  0  0  0  0
    2.2866   58.3779   72.2861 H   0  0  0  0  0  0  0  0  0  0  0  0
    4.3392   61.9393   69.7560 H   0  0  0  0  0  0  0  0  0  0  0  0
    3.7703   64.3375   69.4216 H   0  0  0  0  0  0  0  0  0  0  0  0
    0.3253   63.9037   71.9842 H   0  0  0  0  0  0  0  0  0  0  0  0
    4.8334   60.1890   70.3418 H   0  0  0  0  0  0  0  0  0  0  0  0
    4.5533   58.7356   71.3668 H   0  0  0  0  0  0  0  0  0  0  0  0
    3.1590   57.9061   69.8035 H   0  0  0  0  0  0  0  0  0  0  0  0
  2  1  1  0
  3  2  2  0
  4  3  1  0
  5  4  2  0
  6  5  1  0
  7  6  2  0
  7  2  1  0
  8  5  1  0
  9  8  1  0
 10  9  1  0
 11  9  1  0
 12 11  1  0
 13 12  1  0
 14 13  1  0
 15 14  1  0
 16 14  1  0
 17  1  1  0
 19 18  2  0
 20 19  1  0
 21 20  2  0
 22 20  1  0
 23 22  1  0
 24 23  2  0
 24 18  1  0
 25 24  1  0
 26 25  2  0
 27 26  1  0
 27 17  1  0
 28 27  2  0
 28 23  1  0
 29 18  1  0
 30 29  1  0
  1 31  1  0
  1 32  1  0
  3 33  1  0
  4 34  1  0
  6 35  1  0
  7 36  1  0
  8 37  1  0
  8 38  1  0
  9 39  1  1
 10 40  1  0
 10 41  1  0
 10 42  1  0
 11 43  1  0
 11 44  1  0
 12 45  1  0
 12 46  1  0
 13 47  1  0
 13 48  1  0
 14 49  1  0
 19 50  1  0
 25 51  1  0
 26 52  1  0
 28 53  1  0
 29 54  1  0
 29 55  1  0
 30 56  1  0
M  CHG  1   9   1
M  END
>  <score>  (1) 
-9.492

$$$$
=
     RDKit          3D

 56 58  0  0  0  0  0  0  0  0999 V2000
    1.0260   67.2410   68.9310 C   0  0  0  0  0  0  0  0  0  0  0  0
    1.0450   66.1140   69.9400 C   0  0  0  0  0  0  0  0  0  0  0  0
    2.0250   65.1150   69.8640 C   0  0  0  0  0  0  0  0  0  0  0  0
    2.0570   64.0760   70.7950 C   0  0  0  0  0  0  0  0  0  0  0  0
    1.1020   64.0110   71.8210 C   0  0  0  0  0  0  0  0  0  0  0  0
    0.1200   65.0090   71.8960 C   0  0  0  0  0  0  0  0  0  0  0  0
    0.0910   66.0490   70.9630 C   0  0  0  0  0  0  0  0  0  0  0  0
    1.1270   62.8830   72.8150 C   0  0  0  0  0  0  0  0  0  0  0  0
    1.9690   61.7030   72.3440 N   0  0  2  0  0  4  0  0  0  0  0  0
    1.1930   60.4110   72.4260 C   0  0  0  0  0  0  0  0  0  0  0  0
    3.2870   61.5990   73.0770 C   0  0  0  0  0  0  0  0  0  0  0  0
    4.4830   61.6760   72.1280 C   0  0  0  0  0  0  0  0  0  0  0  0
    4.6660   60.4920   71.1730 C   0  0  0  0  0  0  0  0  0  0  0  0
    4.3020   60.7990   69.7300 C   0  0  0  0  0  0  0  0  0  0  0  0
    4.3410   62.1350   69.5280 F   0  0  0  0  0  0  0  0  0  0  0  0
    3.0390   60.3820   69.4890 F   0  0  0  0  0  0  0  0  0  0  0  0
    0.1400   66.8790   67.8730 O   0  0  0  0  0  0  0  0  0  0  0  0
    1.0890   68.9490   62.6820 C   0  0  0  0  0  0  0  0  0  0  0  0
    2.2400   68.6060   62.0840 C   0  0  0  0  0  0  0  0  0  0  0  0
    3.2580   67.7450   62.7070 C   0  0  0  0  0  0  0  0  0  0  0  0
    4.2970   67.4780   62.1170 O   0  0  0  0  0  0  0  0  0  0  0  0
    2.9780   67.2630   63.9720 O   0  0  0  0  0  0  0  0  0  0  0  0
    1.7770   67.5950   64.6300 C   0  0  0  0  0  0  0  0  0  0  0  0
    0.8250   68.4230   64.0320 C   0  0  0  0  0  0  0  0  0  0  0  0
   -0.3320   68.7020   64.7640 C   0  0  0  0  0  0  0  0  0  0  0  0
   -0.5150   68.1620   66.0440 C   0  0  0  0  0  0  0  0  0  0  0  0
    0.4500   67.3320   66.6210 C   0  0  0  0  0  0  0  0  0  0  0  0
    1.6080   67.0470   65.9060 C   0  0  0  0  0  0  0  0  0  0  0  0
    0.0790   69.8150   61.9840 C   0  0  0  0  0  0  0  0  0  0  0  0
    0.3120   69.8010   60.5830 O   0  0  0  0  0  0  0  0  0  0  0  0
    0.6732   68.1652   69.4120 H   0  0  0  0  0  0  0  0  0  0  0  0
    2.0380   67.4137   68.5360 H   0  0  0  0  0  0  0  0  0  0  0  0
    2.7770   65.1503   69.0619 H   0  0  0  0  0  0  0  0  0  0  0  0
    2.8361   63.3027   70.7241 H   0  0  0  0  0  0  0  0  0  0  0  0
   -0.6340   64.9730   72.6961 H   0  0  0  0  0  0  0  0  0  0  0  0
   -0.6876   66.8229   71.0328 H   0  0  0  0  0  0  0  0  0  0  0  0
    1.5439   63.2572   73.7617 H   0  0  0  0  0  0  0  0  0  0  0  0
    0.0939   62.5259   72.9386 H   0  0  0  0  0  0  0  0  0  0  0  0
    2.1960   61.8786   71.3548 H   0  0  0  0  0  0  0  0  0  0  0  0
    1.0335   60.1454   73.4815 H   0  0  0  0  0  0  0  0  0  0  0  0
    0.2200   60.5354   71.9281 H   0  0  0  0  0  0  0  0  0  0  0  0
    1.7599   59.6105   71.9281 H   0  0  0  0  0  0  0  0  0  0  0  0
    3.3557   62.4241   73.8012 H   0  0  0  0  0  0  0  0  0  0  0  0
    3.3174   60.6213   73.5801 H   0  0  0  0  0  0  0  0  0  0  0  0
    4.3697   62.5845   71.5183 H   0  0  0  0  0  0  0  0  0  0  0  0
    5.3727   61.6728   72.7748 H   0  0  0  0  0  0  0  0  0  0  0  0
    5.7209   60.1818   71.2050 H   0  0  0  0  0  0  0  0  0  0  0  0
    3.9810   59.7010   71.5123 H   0  0  0  0  0  0  0  0  0  0  0  0
    5.0140   60.2882   69.0651 H   0  0  0  0  0  0  0  0  0  0  0  0
    2.4336   68.9898   61.0715 H   0  0  0  0  0  0  0  0  0  0  0  0
   -1.1068   69.3519   64.3312 H   0  0  0  0  0  0  0  0  0  0  0  0
   -1.4329   68.3951   66.6036 H   0  0  0  0  0  0  0  0  0  0  0  0
    2.3830   66.3975   66.3391 H   0  0  0  0  0  0  0  0  0  0  0  0
   -0.9320   69.4329   62.1889 H   0  0  0  0  0  0  0  0  0  0  0  0
    0.1704   70.8466   62.3548 H   0  0  0  0  0  0  0  0  0  0  0  0
    1.2852   69.7425   60.4109 H   0  0  0  0  0  0  0  0  0  0  0  0
  2  1  1  0
  3  2  2  0
  4  3  1  0
  5  4  2  0
  6  5  1  0
  7  6  2  0
  7  2  1  0
  8  5  1  0
  9  8  1  0
 10  9  1  0
 11  9  1  0
 12 11  1  0
 13 12  1  0
 14 13  1  0
 15 14  1  0
 16 14  1  0
 17  1  1  0
 19 18  2  0
 20 19  1  0
 21 20  2  0
 22 20  1  0
 23 22  1  0
 24 23  2  0
 24 18  1  0
 25 24  1  0
 26 25  2  0
 27 26  1  0
 27 17  1  0
 28 27  2  0
 28 23  1  0
 29 18  1  0
 30 29  1  0
  1 31  1  0
  1 32  1  0
  3 33  1  0
  4 34  1  0
  6 35  1  0
  7 36  1  0
  8 37  1  0
  8 38  1  0
  9 39  1  6
 10 40  1  0
 10 41  1  0
 10 42  1  0
 11 43  1  0
 11 44  1  0
 12 45  1  0
 12 46  1  0
 13 47  1  0
 13 48  1  0
 14 49  1  0
 19 50  1  0
 25 51  1  0
 26 52  1  0
 28 53  1  0
 29 54  1  0
 29 55  1  0
 30 56  1  0
M  CHG  1   9   1
M  END
>  <score>  (2) 
-9.454

$$$$
=
     RDKit          3D

 56 58  0  0  0  0  0  0  0  0999 V2000
    0.1000   66.8530   69.1670 C   0  0  0  0  0  0  0  0  0  0  0  0
    0.7420   67.4220   67.9190 C   0  0  0  0  0  0  0  0  0  0  0  0
    1.8700   68.2470   68.0200 C   0  0  0  0  0  0  0  0  0  0  0  0
    2.4740   68.7700   66.8750 C   0  0  0  0  0  0  0  0  0  0  0  0
    1.9570   68.4810   65.6040 C   0  0  0  0  0  0  0  0  0  0  0  0
    0.8280   67.6570   65.5030 C   0  0  0  0  0  0  0  0  0  0  0  0
    0.2250   67.1340   66.6500 C   0  0  0  0  0  0  0  0  0  0  0  0
    2.6000   69.0570   64.3720 C   0  0  0  0  0  0  0  0  0  0  0  0
    3.9390   68.4060   64.0480 N   0  0  2  0  0  4  0  0  0  0  0  0
    5.0030   69.4450   63.7890 C   0  0  0  0  0  0  0  0  0  0  0  0
    3.8470   67.4180   62.9080 C   0  0  0  0  0  0  0  0  0  0  0  0
    4.3020   66.0180   63.3180 C   0  0  0  0  0  0  0  0  0  0  0  0
    3.5050   65.3500   64.4430 C   0  0  0  0  0  0  0  0  0  0  0  0
    3.8020   63.8700   64.6170 C   0  0  0  0  0  0  0  0  0  0  0  0
    3.8420   63.5690   65.9350 F   0  0  0  0  0  0  0  0  0  0  0  0
    5.0160   63.5930   64.0940 F   0  0  0  0  0  0  0  0  0  0  0  0
    1.1270   66.6160   70.1280 O   0  0  0  0  0  0  0  0  0  0  0  0
    1.7310   61.2330   71.7990 C   0  0  0  0  0  0  0  0  0  0  0  0
    2.8460   60.5930   71.4180 C   0  0  0  0  0  0  0  0  0  0  0  0
    3.8950   61.2050   70.5890 C   0  0  0  0  0  0  0  0  0  0  0  0
    4.8860   60.5650   70.2590 O   0  0  0  0  0  0  0  0  0  0  0  0
    3.7030   62.5210   70.2100 O   0  0  0  0  0  0  0  0  0  0  0  0
    2.5480   63.2290   70.5960 C   0  0  0  0  0  0  0  0  0  0  0  0
    1.5550   62.6320   71.3740 C   0  0  0  0  0  0  0  0  0  0  0  0
    0.4420   63.4120   71.7010 C   0  0  0  0  0  0  0  0  0  0  0  0
    0.3450   64.7390   71.2620 C   0  0  0  0  0  0  0  0  0  0  0  0
    1.3540   65.3170   70.4870 C   0  0  0  0  0  0  0  0  0  0  0  0
    2.4660   64.5530   70.1510 C   0  0  0  0  0  0  0  0  0  0  0  0
    0.7060   60.5590   72.6660 C   0  0  0  0  0  0  0  0  0  0  0  0
    1.3440   59.8850   73.7400 O   0  0  0  0  0  0  0  0  0  0  0  0
   -0.6294   67.5706   69.5708 H   0  0  0  0  0  0  0  0  0  0  0  0
   -0.4235   65.9147   68.9310 H   0  0  0  0  0  0  0  0  0  0  0  0
    2.2837   68.4850   69.0111 H   0  0  0  0  0  0  0  0  0  0  0  0
    3.3613   69.4130   66.9706 H   0  0  0  0  0  0  0  0  0  0  0  0
    0.4129   67.4199   64.5123 H   0  0  0  0  0  0  0  0  0  0  0  0
   -0.6626   66.4912   66.5552 H   0  0  0  0  0  0  0  0  0  0  0  0
    1.9213   68.9091   63.5190 H   0  0  0  0  0  0  0  0  0  0  0  0
    2.7871   70.1240   64.5630 H   0  0  0  0  0  0  0  0  0  0  0  0
    4.2133   67.8664   64.8813 H   0  0  0  0  0  0  0  0  0  0  0  0
    5.3888   69.8217   64.7478 H   0  0  0  0  0  0  0  0  0  0  0  0
    5.8253   68.9926   63.2152 H   0  0  0  0  0  0  0  0  0  0  0  0
    4.5703   70.2778   63.2152 H   0  0  0  0  0  0  0  0  0  0  0  0
    2.8020   67.3654   62.5685 H   0  0  0  0  0  0  0  0  0  0  0  0
    4.5124   67.7671   62.1046 H   0  0  0  0  0  0  0  0  0  0  0  0
    4.2372   65.3709   62.4309 H   0  0  0  0  0  0  0  0  0  0  0  0
    5.3207   66.1437   63.7135 H   0  0  0  0  0  0  0  0  0  0  0  0
    3.7418   65.8635   65.3865 H   0  0  0  0  0  0  0  0  0  0  0  0
    2.4422   65.4313   64.1714 H   0  0  0  0  0  0  0  0  0  0  0  0
    3.0186   63.2861   64.1118 H   0  0  0  0  0  0  0  0  0  0  0  0
    2.9837   59.5515   71.7440 H   0  0  0  0  0  0  0  0  0  0  0  0
   -0.3660   62.9795   72.3093 H   0  0  0  0  0  0  0  0  0  0  0  0
   -0.5392   65.3352   71.5316 H   0  0  0  0  0  0  0  0  0  0  0  0
    3.2732   64.9851   69.5414 H   0  0  0  0  0  0  0  0  0  0  0  0
    0.0164   61.3152   73.0692 H   0  0  0  0  0  0  0  0  0  0  0  0
    0.1479   59.8280   72.0625 H   0  0  0  0  0  0  0  0  0  0  0  0
    1.0068   60.2412   74.6000 H   0  0  0  0  0  0  0  0  0  0  0  0
  2  1  1  0
  3  2  2  0
  4  3  1  0
  5  4  2  0
  6  5  1  0
  7  6  2  0
  7  2  1  0
  8  5  1  0
  9  8  1  0
 10  9  1  0
 11  9  1  0
 12 11  1  0
 13 12  1  0
 14 13  1  0
 15 14  1  0
 16 14  1  0
 17  1  1  0
 19 18  2  0
 20 19  1  0
 21 20  2  0
 22 20  1  0
 23 22  1  0
 24 23  2  0
 24 18  1  0
 25 24  1  0
 26 25  2  0
 27 26  1  0
 27 17  1  0
 28 27  2  0
 28 23  1  0
 29 18  1  0
 30 29  1  0
  1 31  1  0
  1 32  1  0
  3 33  1  0
  4 34  1  0
  6 35  1  0
  7 36  1  0
  8 37  1  0
  8 38  1  0
  9 39  1  1
 10 40  1  0
 10 41  1  0
 10 42  1  0
 11 43  1  0
 11 44  1  0
 12 45  1  0
 12 46  1  0
 13 47  1  0
 13 48  1  0
 14 49  1  0
 19 50  1  0
 25 51  1  0
 26 52  1  0
 28 53  1  0
 29 54  1  0
 29 55  1  0
 30 56  1  0
M  CHG  1   9   1
M  END
>  <score>  (3) 
-9.407

$$$$
=
     RDKit          3D

 56 58  0  0  0  0  0  0  0  0999 V2000
   -0.0200   66.9470   68.9960 C   0  0  0  0  0  0  0  0  0  0  0  0
    0.7030   67.4880   67.7810 C   0  0  0  0  0  0  0  0  0  0  0  0
    1.8370   68.2960   67.9380 C   0  0  0  0  0  0  0  0  0  0  0  0
    2.5170   68.7930   66.8230 C   0  0  0  0  0  0  0  0  0  0  0  0
    2.0700   68.4940   65.5280 C   0  0  0  0  0  0  0  0  0  0  0  0
    0.9350   67.6870   65.3710 C   0  0  0  0  0  0  0  0  0  0  0  0
    0.2570   67.1910   66.4880 C   0  0  0  0  0  0  0  0  0  0  0  0
    2.7940   69.0420   64.3280 C   0  0  0  0  0  0  0  0  0  0  0  0
    4.0920   68.3000   64.0350 N   0  0  2  0  0  4  0  0  0  0  0  0
    5.2440   69.2610   63.8670 C   0  0  0  0  0  0  0  0  0  0  0  0
    3.9760   67.3690   62.8500 C   0  0  0  0  0  0  0  0  0  0  0  0
    4.2910   65.9200   63.2210 C   0  0  0  0  0  0  0  0  0  0  0  0
    3.6700   65.4050   64.5240 C   0  0  0  0  0  0  0  0  0  0  0  0
    3.7410   63.8960   64.6900 C   0  0  0  0  0  0  0  0  0  0  0  0
    3.9280   63.5930   65.9940 F   0  0  0  0  0  0  0  0  0  0  0  0
    4.8000   63.4200   64.0000 F   0  0  0  0  0  0  0  0  0  0  0  0
    0.9430   66.7160   70.0220 O   0  0  0  0  0  0  0  0  0  0  0  0
    1.7710   61.4080   71.8330 C   0  0  0  0  0  0  0  0  0  0  0  0
    0.7510   60.8070   72.4620 C   0  0  0  0  0  0  0  0  0  0  0  0
   -0.5460   61.4530   72.7150 C   0  0  0  0  0  0  0  0  0  0  0  0
   -1.4370   60.8590   73.3090 O   0  0  0  0  0  0  0  0  0  0  0  0
   -0.7000   62.7470   72.2510 O   0  0  0  0  0  0  0  0  0  0  0  0
    0.3460   63.4100   71.5790 C   0  0  0  0  0  0  0  0  0  0  0  0
    1.5760   62.7880   71.3560 C   0  0  0  0  0  0  0  0  0  0  0  0
    2.5560   63.5270   70.6870 C   0  0  0  0  0  0  0  0  0  0  0  0
    2.2960   64.8370   70.2600 C   0  0  0  0  0  0  0  0  0  0  0  0
    1.0560   65.4370   70.4910 C   0  0  0  0  0  0  0  0  0  0  0  0
    0.0710   64.7150   71.1580 C   0  0  0  0  0  0  0  0  0  0  0  0
    3.0650   60.6860   71.5850 C   0  0  0  0  0  0  0  0  0  0  0  0
    3.0430   60.0740   70.3040 O   0  0  0  0  0  0  0  0  0  0  0  0
   -0.7648   67.6786   69.3424 H   0  0  0  0  0  0  0  0  0  0  0  0
   -0.5381   66.0101   68.7436 H   0  0  0  0  0  0  0  0  0  0  0  0
    2.1953   68.5414   68.9486 H   0  0  0  0  0  0  0  0  0  0  0  0
    3.4083   69.4225   66.9620 H   0  0  0  0  0  0  0  0  0  0  0  0
    0.5750   67.4421   64.3608 H   0  0  0  0  0  0  0  0  0  0  0  0
   -0.6347   66.5619   66.3498 H   0  0  0  0  0  0  0  0  0  0  0  0
    2.1352   68.9584   63.4511 H   0  0  0  0  0  0  0  0  0  0  0  0
    3.0516   70.0892   64.5450 H   0  0  0  0  0  0  0  0  0  0  0  0
    4.2852   67.7077   64.8552 H   0  0  0  0  0  0  0  0  0  0  0  0
    5.6124   69.5684   64.8568 H   0  0  0  0  0  0  0  0  0  0  0  0
    6.0548   68.7678   63.3109 H   0  0  0  0  0  0  0  0  0  0  0  0
    4.9042   70.1471   63.3109 H   0  0  0  0  0  0  0  0  0  0  0  0
    2.9490   67.4193   62.4592 H   0  0  0  0  0  0  0  0  0  0  0  0
    4.7081   67.6910   62.0947 H   0  0  0  0  0  0  0  0  0  0  0  0
    3.9332   65.2785   62.4022 H   0  0  0  0  0  0  0  0  0  0  0  0
    5.3789   65.8866   63.3800 H   0  0  0  0  0  0  0  0  0  0  0  0
    4.2005   65.8709   65.3675 H   0  0  0  0  0  0  0  0  0  0  0  0
    2.6032   65.6715   64.4945 H   0  0  0  0  0  0  0  0  0  0  0  0
    2.8049   63.4510   64.3217 H   0  0  0  0  0  0  0  0  0  0  0  0
    0.8920   59.7725   72.8084 H   0  0  0  0  0  0  0  0  0  0  0  0
    3.5407   63.0764   70.4937 H   0  0  0  0  0  0  0  0  0  0  0  0
    3.0809   65.4010   69.7348 H   0  0  0  0  0  0  0  0  0  0  0  0
   -0.9134   65.1659   71.3520 H   0  0  0  0  0  0  0  0  0  0  0  0
    3.8971   61.4039   71.6313 H   0  0  0  0  0  0  0  0  0  0  0  0
    3.1979   59.9100   72.3532 H   0  0  0  0  0  0  0  0  0  0  0  0
    3.0076   59.0902   70.4089 H   0  0  0  0  0  0  0  0  0  0  0  0
  2  1  1  0
  3  2  2  0
  4  3  1  0
  5  4  2  0
  6  5  1  0
  7  6  2  0
  7  2  1  0
  8  5  1  0
  9  8  1  0
 10  9  1  0
 11  9  1  0
 12 11  1  0
 13 12  1  0
 14 13  1  0
 15 14  1  0
 16 14  1  0
 17  1  1  0
 19 18  2  0
 20 19  1  0
 21 20  2  0
 22 20  1  0
 23 22  1  0
 24 23  2  0
 24 18  1  0
 25 24  1  0
 26 25  2  0
 27 26  1  0
 27 17  1  0
 28 27  2  0
 28 23  1  0
 29 18  1  0
 30 29  1  0
  1 31  1  0
  1 32  1  0
  3 33  1  0
  4 34  1  0
  6 35  1  0
  7 36  1  0
  8 37  1  0
  8 38  1  0
  9 39  1  1
 10 40  1  0
 10 41  1  0
 10 42  1  0
 11 43  1  0
 11 44  1  0
 12 45  1  0
 12 46  1  0
 13 47  1  0
 13 48  1  0
 14 49  1  0
 19 50  1  0
 25 51  1  0
 26 52  1  0
 28 53  1  0
 29 54  1  0
 29 55  1  0
 30 56  1  0
M  CHG  1   9   1
M  END
>  <score>  (4) 
-9.351

$$$$
=
     RDKit          3D

 56 58  0  0  0  0  0  0  0  0999 V2000
    0.4990   66.0600   70.3750 C   0  0  0  0  0  0  0  0  0  0  0  0
    0.2190   66.7790   69.0730 C   0  0  0  0  0  0  0  0  0  0  0  0
    1.1250   67.7280   68.5820 C   0  0  0  0  0  0  0  0  0  0  0  0
    0.8800   68.3910   67.3770 C   0  0  0  0  0  0  0  0  0  0  0  0
   -0.2830   68.1200   66.6410 C   0  0  0  0  0  0  0  0  0  0  0  0
   -1.1910   67.1720   67.1330 C   0  0  0  0  0  0  0  0  0  0  0  0
   -0.9430   66.5090   68.3390 C   0  0  0  0  0  0  0  0  0  0  0  0
   -0.5540   68.8440   65.3520 C   0  0  0  0  0  0  0  0  0  0  0  0
    0.6190   68.7790   64.3820 N   0  0  2  0  0  4  0  0  0  0  0  0
    0.2070   69.2090   62.9950 C   0  0  0  0  0  0  0  0  0  0  0  0
    1.2830   67.4200   64.3610 C   0  0  0  0  0  0  0  0  0  0  0  0
    2.8010   67.5170   64.5110 C   0  0  0  0  0  0  0  0  0  0  0  0
    3.4050   68.9200   64.3930 C   0  0  0  0  0  0  0  0  0  0  0  0
    4.4080   69.2560   65.4830 C   0  0  0  0  0  0  0  0  0  0  0  0
    3.7650   69.8130   66.5340 F   0  0  0  0  0  0  0  0  0  0  0  0
    5.2920   70.1640   65.0130 F   0  0  0  0  0  0  0  0  0  0  0  0
    1.7710   65.4240   70.2680 O   0  0  0  0  0  0  0  0  0  0  0  0
    1.8610   60.1160   72.2560 C   0  0  0  0  0  0  0  0  0  0  0  0
    2.6110   59.2240   71.5920 C   0  0  0  0  0  0  0  0  0  0  0  0
    3.3860   59.5470   70.3850 C   0  0  0  0  0  0  0  0  0  0  0  0
    4.0410   58.6850   69.8120 O   0  0  0  0  0  0  0  0  0  0  0  0
    3.3330   60.8560   69.9420 O   0  0  0  0  0  0  0  0  0  0  0  0
    2.5630   61.8240   70.6160 C   0  0  0  0  0  0  0  0  0  0  0  0
    1.8230   61.5000   71.7540 C   0  0  0  0  0  0  0  0  0  0  0  0
    1.0840   62.5250   72.3510 C   0  0  0  0  0  0  0  0  0  0  0  0
    1.0990   63.8210   71.8170 C   0  0  0  0  0  0  0  0  0  0  0  0
    1.8510   64.1230   70.6790 C   0  0  0  0  0  0  0  0  0  0  0  0
    2.5900   63.1130   70.0720 C   0  0  0  0  0  0  0  0  0  0  0  0
    1.1090   59.7290   73.4980 C   0  0  0  0  0  0  0  0  0  0  0  0
    2.0190   59.3310   74.5130 O   0  0  0  0  0  0  0  0  0  0  0  0
    0.5126   66.7828   71.2041 H   0  0  0  0  0  0  0  0  0  0  0  0
   -0.2839   65.3131   70.5727 H   0  0  0  0  0  0  0  0  0  0  0  0
    2.0389   67.9535   69.1512 H   0  0  0  0  0  0  0  0  0  0  0  0
    1.6036   69.1302   67.0030 H   0  0  0  0  0  0  0  0  0  0  0  0
   -2.1063   66.9478   66.5656 H   0  0  0  0  0  0  0  0  0  0  0  0
   -1.6660   65.7697   68.7141 H   0  0  0  0  0  0  0  0  0  0  0  0
   -1.4332   68.3898   64.8716 H   0  0  0  0  0  0  0  0  0  0  0  0
   -0.7246   69.9030   65.5958 H   0  0  0  0  0  0  0  0  0  0  0  0
    1.3241   69.4455   64.7277 H   0  0  0  0  0  0  0  0  0  0  0  0
   -0.5524   70.0015   63.0672 H   0  0  0  0  0  0  0  0  0  0  0  0
    1.0851   69.5908   62.4535 H   0  0  0  0  0  0  0  0  0  0  0  0
   -0.2119   68.3480   62.4535 H   0  0  0  0  0  0  0  0  0  0  0  0
    0.8829   66.8173   65.1897 H   0  0  0  0  0  0  0  0  0  0  0  0
    1.0688   66.9544   63.3877 H   0  0  0  0  0  0  0  0  0  0  0  0
    3.0662   67.1199   65.5020 H   0  0  0  0  0  0  0  0  0  0  0  0
    3.2168   66.9461   63.6677 H   0  0  0  0  0  0  0  0  0  0  0  0
    3.9129   68.9970   63.4203 H   0  0  0  0  0  0  0  0  0  0  0  0
    2.5739   69.6333   64.4953 H   0  0  0  0  0  0  0  0  0  0  0  0
    4.9230   68.3341   65.7909 H   0  0  0  0  0  0  0  0  0  0  0  0
    2.6484   58.1924   71.9720 H   0  0  0  0  0  0  0  0  0  0  0  0
    0.4847   62.3127   73.2487 H   0  0  0  0  0  0  0  0  0  0  0  0
    0.5092   64.6129   72.3018 H   0  0  0  0  0  0  0  0  0  0  0  0
    3.1891   63.3252   69.1742 H   0  0  0  0  0  0  0  0  0  0  0  0
    0.5225   60.5898   73.8517 H   0  0  0  0  0  0  0  0  0  0  0  0
    0.4371   58.8895   73.2662 H   0  0  0  0  0  0  0  0  0  0  0  0
    1.6192   59.5058   75.4017 H   0  0  0  0  0  0  0  0  0  0  0  0
  2  1  1  0
  3  2  2  0
  4  3  1  0
  5  4  2  0
  6  5  1  0
  7  6  2  0
  7  2  1  0
  8  5  1  0
  9  8  1  0
 10  9  1  0
 11  9  1  0
 12 11  1  0
 13 12  1  0
 14 13  1  0
 15 14  1  0
 16 14  1  0
 17  1  1  0
 19 18  2  0
 20 19  1  0
 21 20  2  0
 22 20  1  0
 23 22  1  0
 24 23  2  0
 24 18  1  0
 25 24  1  0
 26 25  2  0
 27 26  1  0
 27 17  1  0
 28 27  2  0
 28 23  1  0
 29 18  1  0
 30 29  1  0
  1 31  1  0
  1 32  1  0
  3 33  1  0
  4 34  1  0
  6 35  1  0
  7 36  1  0
  8 37  1  0
  8 38  1  0
  9 39  1  1
 10 40  1  0
 10 41  1  0
 10 42  1  0
 11 43  1  0
 11 44  1  0
 12 45  1  0
 12 46  1  0
 13 47  1  0
 13 48  1  0
 14 49  1  0
 19 50  1  0
 25 51  1  0
 26 52  1  0
 28 53  1  0
 29 54  1  0
 29 55  1  0
 30 56  1  0
M  CHG  1   9   1
M  END
>  <score>  (5) 
-9.269

$$$$
=
     RDKit          3D

 56 58  0  0  0  0  0  0  0  0999 V2000
   -0.1430   66.5790   69.0680 C   0  0  0  0  0  0  0  0  0  0  0  0
    0.8480   67.3900   68.2600 C   0  0  0  0  0  0  0  0  0  0  0  0
    1.0080   67.1450   66.8900 C   0  0  0  0  0  0  0  0  0  0  0  0
    1.9130   67.8930   66.1340 C   0  0  0  0  0  0  0  0  0  0  0  0
    2.6820   68.8990   66.7370 C   0  0  0  0  0  0  0  0  0  0  0  0
    2.5230   69.1430   68.1080 C   0  0  0  0  0  0  0  0  0  0  0  0
    1.6160   68.3930   68.8620 C   0  0  0  0  0  0  0  0  0  0  0  0
    3.6670   69.6940   65.9250 C   0  0  0  0  0  0  0  0  0  0  0  0
    5.0850   69.1470   66.0200 N   0  0  2  0  0  4  0  0  0  0  0  0
    6.0140   70.1450   66.6680 C   0  0  0  0  0  0  0  0  0  0  0  0
    5.6220   68.6830   64.6850 C   0  0  0  0  0  0  0  0  0  0  0  0
    4.9320   69.3790   63.5120 C   0  0  0  0  0  0  0  0  0  0  0  0
    4.5670   68.4900   62.3190 C   0  0  0  0  0  0  0  0  0  0  0  0
    3.0730   68.3710   62.0690 C   0  0  0  0  0  0  0  0  0  0  0  0
    2.7620   68.9700   60.8970 F   0  0  0  0  0  0  0  0  0  0  0  0
    2.4030   69.0140   63.0500 F   0  0  0  0  0  0  0  0  0  0  0  0
    0.4000   66.3820   70.3720 O   0  0  0  0  0  0  0  0  0  0  0  0
    2.8400   61.3620   71.3630 C   0  0  0  0  0  0  0  0  0  0  0  0
    2.1100   60.4400   72.0090 C   0  0  0  0  0  0  0  0  0  0  0  0
    0.7360   60.6710   72.4790 C   0  0  0  0  0  0  0  0  0  0  0  0
    0.1230   59.7960   73.0770 O   0  0  0  0  0  0  0  0  0  0  0  0
    0.1840   61.9110   72.2100 O   0  0  0  0  0  0  0  0  0  0  0  0
    0.9160   62.9020   71.5280 C   0  0  0  0  0  0  0  0  0  0  0  0
    2.2250   62.6730   71.0980 C   0  0  0  0  0  0  0  0  0  0  0  0
    2.8730   63.7190   70.4350 C   0  0  0  0  0  0  0  0  0  0  0  0
    2.2220   64.9400   70.2160 C   0  0  0  0  0  0  0  0  0  0  0  0
    0.9100   65.1440   70.6520 C   0  0  0  0  0  0  0  0  0  0  0  0
    0.2520   64.1140   71.3150 C   0  0  0  0  0  0  0  0  0  0  0  0
    4.2330   61.0570   70.8890 C   0  0  0  0  0  0  0  0  0  0  0  0
    4.3600   59.6700   70.6120 O   0  0  0  0  0  0  0  0  0  0  0  0
   -1.0971   67.1216   69.1401 H   0  0  0  0  0  0  0  0  0  0  0  0
   -0.3257   65.6092   68.5822 H   0  0  0  0  0  0  0  0  0  0  0  0
    0.4149   66.3557   66.4050 H   0  0  0  0  0  0  0  0  0  0  0  0
    2.0235   67.6918   65.0582 H   0  0  0  0  0  0  0  0  0  0  0  0
    3.1167   69.9310   68.5944 H   0  0  0  0  0  0  0  0  0  0  0  0
    1.5049   68.5929   69.9380 H   0  0  0  0  0  0  0  0  0  0  0  0
    3.3519   69.6736   64.8713 H   0  0  0  0  0  0  0  0  0  0  0  0
    3.6786   70.7180   66.3267 H   0  0  0  0  0  0  0  0  0  0  0  0
    5.0390   68.3133   66.6231 H   0  0  0  0  0  0  0  0  0  0  0  0
    5.9363   70.0616   67.7621 H   0  0  0  0  0  0  0  0  0  0  0  0
    7.0487   69.9384   66.3570 H   0  0  0  0  0  0  0  0  0  0  0  0
    5.7339   71.1623   66.3570 H   0  0  0  0  0  0  0  0  0  0  0  0
    6.6995   68.9001   64.6417 H   0  0  0  0  0  0  0  0  0  0  0  0
    5.4275   67.6037   64.5993 H   0  0  0  0  0  0  0  0  0  0  0  0
    4.0035   69.8322   63.8895 H   0  0  0  0  0  0  0  0  0  0  0  0
    5.6647   70.1033   63.1266 H   0  0  0  0  0  0  0  0  0  0  0  0
    5.0357   68.9117   61.4176 H   0  0  0  0  0  0  0  0  0  0  0  0
    4.9312   67.4789   62.5534 H   0  0  0  0  0  0  0  0  0  0  0  0
    2.7983   67.3062   62.0432 H   0  0  0  0  0  0  0  0  0  0  0  0
    2.5648   59.4563   72.1975 H   0  0  0  0  0  0  0  0  0  0  0  0
    3.9055   63.5820   70.0813 H   0  0  0  0  0  0  0  0  0  0  0  0
    2.7514   65.7502   69.6931 H   0  0  0  0  0  0  0  0  0  0  0  0
   -0.7806   64.2513   71.6684 H   0  0  0  0  0  0  0  0  0  0  0  0
    4.4402   61.6315   69.9741 H   0  0  0  0  0  0  0  0  0  0  0  0
    4.9504   61.3349   71.6752 H   0  0  0  0  0  0  0  0  0  0  0  0
    4.4061   59.1664   71.4631 H   0  0  0  0  0  0  0  0  0  0  0  0
  2  1  1  0
  3  2  2  0
  4  3  1  0
  5  4  2  0
  6  5  1  0
  7  6  2  0
  7  2  1  0
  8  5  1  0
  9  8  1  0
 10  9  1  0
 11  9  1  0
 12 11  1  0
 13 12  1  0
 14 13  1  0
 15 14  1  0
 16 14  1  0
 17  1  1  0
 19 18  2  0
 20 19  1  0
 21 20  2  0
 22 20  1  0
 23 22  1  0
 24 23  2  0
 24 18  1  0
 25 24  1  0
 26 25  2  0
 27 26  1  0
 27 17  1  0
 28 27  2  0
 28 23  1  0
 29 18  1  0
 30 29  1  0
  1 31  1  0
  1 32  1  0
  3 33  1  0
  4 34  1  0
  6 35  1  0
  7 36  1  0
  8 37  1  0
  8 38  1  0
  9 39  1  1
 10 40  1  0
 10 41  1  0
 10 42  1  0
 11 43  1  0
 11 44  1  0
 12 45  1  0
 12 46  1  0
 13 47  1  0
 13 48  1  0
 14 49  1  0
 19 50  1  0
 25 51  1  0
 26 52  1  0
 28 53  1  0
 29 54  1  0
 29 55  1  0
 30 56  1  0
M  CHG  1   9   1
M  END
>  <score>  (6) 
-8.995

$$$$
=
     RDKit          3D

 56 58  0  0  0  0  0  0  0  0999 V2000
    0.8540   67.2860   69.0600 C   0  0  0  0  0  0  0  0  0  0  0  0
    0.9950   66.1170   70.0100 C   0  0  0  0  0  0  0  0  0  0  0  0
    2.0830   65.2420   69.8960 C   0  0  0  0  0  0  0  0  0  0  0  0
    2.2270   64.1650   70.7730 C   0  0  0  0  0  0  0  0  0  0  0  0
    1.2780   63.9390   71.7820 C   0  0  0  0  0  0  0  0  0  0  0  0
    0.1880   64.8130   71.8950 C   0  0  0  0  0  0  0  0  0  0  0  0
    0.0470   65.8900   71.0160 C   0  0  0  0  0  0  0  0  0  0  0  0
    1.4250   62.7700   72.7170 C   0  0  0  0  0  0  0  0  0  0  0  0
    0.8700   61.4770   72.1340 N   0  0  2  0  0  4  0  0  0  0  0  0
   -0.3600   61.0240   72.8820 C   0  0  0  0  0  0  0  0  0  0  0  0
    1.9050   60.3770   72.0640 C   0  0  0  0  0  0  0  0  0  0  0  0
    3.3300   60.9150   72.2050 C   0  0  0  0  0  0  0  0  0  0  0  0
    4.2200   60.8030   70.9630 C   0  0  0  0  0  0  0  0  0  0  0  0
    3.4560   60.8220   69.6490 C   0  0  0  0  0  0  0  0  0  0  0  0
    3.4350   59.5780   69.1210 F   0  0  0  0  0  0  0  0  0  0  0  0
    4.0930   61.6310   68.7740 F   0  0  0  0  0  0  0  0  0  0  0  0
    0.1130   66.8490   67.9220 O   0  0  0  0  0  0  0  0  0  0  0  0
    2.2570   68.4320   62.9190 C   0  0  0  0  0  0  0  0  0  0  0  0
    1.4590   69.1370   62.1030 C   0  0  0  0  0  0  0  0  0  0  0  0
    0.0730   69.5000   62.4320 C   0  0  0  0  0  0  0  0  0  0  0  0
   -0.6140   70.1340   61.6400 O   0  0  0  0  0  0  0  0  0  0  0  0
   -0.4030   69.0940   63.6660 O   0  0  0  0  0  0  0  0  0  0  0  0
    0.4070   68.3570   64.5530 C   0  0  0  0  0  0  0  0  0  0  0  0
    1.7180   68.0100   64.2220 C   0  0  0  0  0  0  0  0  0  0  0  0
    2.4420   67.2730   65.1640 C   0  0  0  0  0  0  0  0  0  0  0  0
    1.8620   66.9090   66.3860 C   0  0  0  0  0  0  0  0  0  0  0  0
    0.5490   67.2720   66.6970 C   0  0  0  0  0  0  0  0  0  0  0  0
   -0.1850   68.0040   65.7700 C   0  0  0  0  0  0  0  0  0  0  0  0
    3.6740   68.1110   62.5330 C   0  0  0  0  0  0  0  0  0  0  0  0
    3.9580   68.6360   61.2450 O   0  0  0  0  0  0  0  0  0  0  0  0
    0.3202   68.1085   69.5585 H   0  0  0  0  0  0  0  0  0  0  0  0
    1.8464   67.6466   68.7515 H   0  0  0  0  0  0  0  0  0  0  0  0
    2.8320   65.4051   69.1071 H   0  0  0  0  0  0  0  0  0  0  0  0
    3.0894   63.4896   70.6724 H   0  0  0  0  0  0  0  0  0  0  0  0
   -0.5627   64.6497   72.6823 H   0  0  0  0  0  0  0  0  0  0  0  0
   -0.8157   66.5653   71.1148 H   0  0  0  0  0  0  0  0  0  0  0  0
    2.4934   62.6270   72.9362 H   0  0  0  0  0  0  0  0  0  0  0  0
    0.8498   62.9979   73.6265 H   0  0  0  0  0  0  0  0  0  0  0  0
    0.5970   61.6856   71.1630 H   0  0  0  0  0  0  0  0  0  0  0  0
   -0.1765   61.0916   73.9645 H   0  0  0  0  0  0  0  0  0  0  0  0
   -1.2104   61.6679   72.6134 H   0  0  0  0  0  0  0  0  0  0  0  0
   -0.5896   59.9823   72.6134 H   0  0  0  0  0  0  0  0  0  0  0  0
    1.7151   59.6597   72.8760 H   0  0  0  0  0  0  0  0  0  0  0  0
    1.8213   59.8966   71.0780 H   0  0  0  0  0  0  0  0  0  0  0  0
    3.2620   61.9793   72.4746 H   0  0  0  0  0  0  0  0  0  0  0  0
    3.8089   60.2848   72.9688 H   0  0  0  0  0  0  0  0  0  0  0  0
    4.9245   61.6478   70.9654 H   0  0  0  0  0  0  0  0  0  0  0  0
    4.7260   59.8281   71.0219 H   0  0  0  0  0  0  0  0  0  0  0  0
    2.4322   61.1790   69.8346 H   0  0  0  0  0  0  0  0  0  0  0  0
    1.8645   69.4616   61.1334 H   0  0  0  0  0  0  0  0  0  0  0  0
    3.4779   66.9759   64.9432 H   0  0  0  0  0  0  0  0  0  0  0  0
    2.4495   66.3282   67.1123 H   0  0  0  0  0  0  0  0  0  0  0  0
   -1.2203   68.3023   65.9916 H   0  0  0  0  0  0  0  0  0  0  0  0
    4.3612   68.5564   63.2674 H   0  0  0  0  0  0  0  0  0  0  0  0
    3.8041   67.0189   62.5141 H   0  0  0  0  0  0  0  0  0  0  0  0
    4.4270   69.5029   61.3381 H   0  0  0  0  0  0  0  0  0  0  0  0
  2  1  1  0
  3  2  2  0
  4  3  1  0
  5  4  2  0
  6  5  1  0
  7  6  2  0
  7  2  1  0
  8  5  1  0
  9  8  1  0
 10  9  1  0
 11  9  1  0
 12 11  1  0
 13 12  1  0
 14 13  1  0
 15 14  1  0
 16 14  1  0
 17  1  1  0
 19 18  2  0
 20 19  1  0
 21 20  2  0
 22 20  1  0
 23 22  1  0
 24 23  2  0
 24 18  1  0
 25 24  1  0
 26 25  2  0
 27 26  1  0
 27 17  1  0
 28 27  2  0
 28 23  1  0
 29 18  1  0
 30 29  1  0
  1 31  1  0
  1 32  1  0
  3 33  1  0
  4 34  1  0
  6 35  1  0
  7 36  1  0
  8 37  1  0
  8 38  1  0
  9 39  1  6
 10 40  1  0
 10 41  1  0
 10 42  1  0
 11 43  1  0
 11 44  1  0
 12 45  1  0
 12 46  1  0
 13 47  1  0
 13 48  1  0
 14 49  1  0
 19 50  1  0
 25 51  1  0
 26 52  1  0
 28 53  1  0
 29 54  1  0
 29 55  1  0
 30 56  1  0
M  CHG  1   9   1
M  END
>  <score>  (7) 
-8.894

$$$$
=
     RDKit          3D

 56 58  0  0  0  0  0  0  0  0999 V2000
   -0.0300   66.9970   68.4680 C   0  0  0  0  0  0  0  0  0  0  0  0
    0.4660   66.0480   69.5380 C   0  0  0  0  0  0  0  0  0  0  0  0
   -0.3520   65.7280   70.6300 C   0  0  0  0  0  0  0  0  0  0  0  0
    0.0930   64.8470   71.6180 C   0  0  0  0  0  0  0  0  0  0  0  0
    1.3700   64.2720   71.5350 C   0  0  0  0  0  0  0  0  0  0  0  0
    2.1880   64.5950   70.4440 C   0  0  0  0  0  0  0  0  0  0  0  0
    1.7410   65.4760   69.4560 C   0  0  0  0  0  0  0  0  0  0  0  0
    1.8530   63.3350   72.6070 C   0  0  0  0  0  0  0  0  0  0  0  0
    2.2930   61.9860   72.0540 N   0  0  2  0  0  4  0  0  0  0  0  0
    1.3550   60.8850   72.4900 C   0  0  0  0  0  0  0  0  0  0  0  0
    3.7270   61.6530   72.3990 C   0  0  0  0  0  0  0  0  0  0  0  0
    4.6130   61.5640   71.1570 C   0  0  0  0  0  0  0  0  0  0  0  0
    4.0300   60.8000   69.9630 C   0  0  0  0  0  0  0  0  0  0  0  0
    3.6770   61.6810   68.7760 C   0  0  0  0  0  0  0  0  0  0  0  0
    4.2620   62.8920   68.9220 F   0  0  0  0  0  0  0  0  0  0  0  0
    2.3400   61.8710   68.7430 F   0  0  0  0  0  0  0  0  0  0  0  0
    0.4710   68.3000   68.7600 O   0  0  0  0  0  0  0  0  0  0  0  0
    5.0220   69.7580   65.7120 C   0  0  0  0  0  0  0  0  0  0  0  0
    5.9770   70.4670   66.3330 C   0  0  0  0  0  0  0  0  0  0  0  0
    5.8940   70.8910   67.7380 C   0  0  0  0  0  0  0  0  0  0  0  0
    6.7910   71.5510   68.2480 O   0  0  0  0  0  0  0  0  0  0  0  0
    4.7650   70.5080   68.4400 O   0  0  0  0  0  0  0  0  0  0  0  0
    3.7440   69.7570   67.8250 C   0  0  0  0  0  0  0  0  0  0  0  0
    3.8310   69.3710   66.4860 C   0  0  0  0  0  0  0  0  0  0  0  0
    2.7660   68.6330   65.9610 C   0  0  0  0  0  0  0  0  0  0  0  0
    1.6650   68.3000   66.7620 C   0  0  0  0  0  0  0  0  0  0  0  0
    1.6020   68.6930   68.1010 C   0  0  0  0  0  0  0  0  0  0  0  0
    2.6530   69.4300   68.6370 C   0  0  0  0  0  0  0  0  0  0  0  0
    5.1770   69.3360   64.2780 C   0  0  0  0  0  0  0  0  0  0  0  0
    6.1780   70.1200   63.6450 O   0  0  0  0  0  0  0  0  0  0  0  0
    0.3342   66.6703   67.4828 H   0  0  0  0  0  0  0  0  0  0  0  0
   -1.1298   67.0082   68.4506 H   0  0  0  0  0  0  0  0  0  0  0  0
   -1.3539   66.1749   70.7097 H   0  0  0  0  0  0  0  0  0  0  0  0
   -0.5622   64.6023   72.4670 H   0  0  0  0  0  0  0  0  0  0  0  0
    3.1912   64.1509   70.3647 H   0  0  0  0  0  0  0  0  0  0  0  0
    2.3960   65.7220   68.6072 H   0  0  0  0  0  0  0  0  0  0  0  0
    2.7068   63.7996   73.1220 H   0  0  0  0  0  0  0  0  0  0  0  0
    1.0129   63.1545   73.2937 H   0  0  0  0  0  0  0  0  0  0  0  0
    2.2480   62.0598   71.0276 H   0  0  0  0  0  0  0  0  0  0  0  0
    1.3214   60.8456   73.5888 H   0  0  0  0  0  0  0  0  0  0  0  0
    0.3466   61.0863   72.0993 H   0  0  0  0  0  0  0  0  0  0  0  0
    1.7139   59.9214   72.0993 H   0  0  0  0  0  0  0  0  0  0  0  0
    4.1232   62.4366   73.0616 H   0  0  0  0  0  0  0  0  0  0  0  0
    3.7365   60.6698   72.8921 H   0  0  0  0  0  0  0  0  0  0  0  0
    4.8299   62.5901   70.8253 H   0  0  0  0  0  0  0  0  0  0  0  0
    5.4994   60.9917   71.4682 H   0  0  0  0  0  0  0  0  0  0  0  0
    4.7707   60.0566   69.6334 H   0  0  0  0  0  0  0  0  0  0  0  0
    3.0918   60.3405   70.3075 H   0  0  0  0  0  0  0  0  0  0  0  0
    4.0241   61.1939   67.8528 H   0  0  0  0  0  0  0  0  0  0  0  0
    6.8723   70.7467   65.7584 H   0  0  0  0  0  0  0  0  0  0  0  0
    2.7923   68.3107   64.9096 H   0  0  0  0  0  0  0  0  0  0  0  0
    0.8369   67.7196   66.3291 H   0  0  0  0  0  0  0  0  0  0  0  0
    2.6264   69.7523   69.6884 H   0  0  0  0  0  0  0  0  0  0  0  0
    5.4669   68.2756   64.2399 H   0  0  0  0  0  0  0  0  0  0  0  0
    4.2207   69.4810   63.7542 H   0  0  0  0  0  0  0  0  0  0  0  0
    6.7381   70.5586   64.3335 H   0  0  0  0  0  0  0  0  0  0  0  0
  2  1  1  0
  3  2  2  0
  4  3  1  0
  5  4  2  0
  6  5  1  0
  7  6  2  0
  7  2  1  0
  8  5  1  0
  9  8  1  0
 10  9  1  0
 11  9  1  0
 12 11  1  0
 13 12  1  0
 14 13  1  0
 15 14  1  0
 16 14  1  0
 17  1  1  0
 19 18  2  0
 20 19  1  0
 21 20  2  0
 22 20  1  0
 23 22  1  0
 24 23  2  0
 24 18  1  0
 25 24  1  0
 26 25  2  0
 27 26  1  0
 27 17  1  0
 28 27  2  0
 28 23  1  0
 29 18  1  0
 30 29  1  0
  1 31  1  0
  1 32  1  0
  3 33  1  0
  4 34  1  0
  6 35  1  0
  7 36  1  0
  8 37  1  0
  8 38  1  0
  9 39  1  6
 10 40  1  0
 10 41  1  0
 10 42  1  0
 11 43  1  0
 11 44  1  0
 12 45  1  0
 12 46  1  0
 13 47  1  0
 13 48  1  0
 14 49  1  0
 19 50  1  0
 25 51  1  0
 26 52  1  0
 28 53  1  0
 29 54  1  0
 29 55  1  0
 30 56  1  0
M  CHG  1   9   1
M  END
>  <score>  (8) 
-8.893

$$$$
=
     RDKit          3D

 56 58  0  0  0  0  0  0  0  0999 V2000
    3.8990   63.1640   66.3420 C   0  0  0  0  0  0  0  0  0  0  0  0
    3.8390   64.3040   65.3490 C   0  0  0  0  0  0  0  0  0  0  0  0
    2.8900   65.3240   65.5030 C   0  0  0  0  0  0  0  0  0  0  0  0
    2.8320   66.3850   64.5970 C   0  0  0  0  0  0  0  0  0  0  0  0
    3.7200   66.4440   63.5130 C   0  0  0  0  0  0  0  0  0  0  0  0
    4.6680   65.4220   63.3580 C   0  0  0  0  0  0  0  0  0  0  0  0
    4.7250   64.3620   64.2660 C   0  0  0  0  0  0  0  0  0  0  0  0
    3.6460   67.5790   62.5290 C   0  0  0  0  0  0  0  0  0  0  0  0
    4.2440   68.8700   63.0750 N   0  0  2  0  0  4  0  0  0  0  0  0
    5.7460   68.8840   62.9210 C   0  0  0  0  0  0  0  0  0  0  0  0
    3.8360   69.1420   64.5050 C   0  0  0  0  0  0  0  0  0  0  0  0
    5.0380   69.4390   65.4020 C   0  0  0  0  0  0  0  0  0  0  0  0
    4.7200   69.8730   66.8370 C   0  0  0  0  0  0  0  0  0  0  0  0
    5.8930   70.5050   67.5670 C   0  0  0  0  0  0  0  0  0  0  0  0
    7.0440   69.9200   67.1650 F   0  0  0  0  0  0  0  0  0  0  0  0
    5.7630   70.2880   68.8940 F   0  0  0  0  0  0  0  0  0  0  0  0
    3.5020   63.6620   67.6180 O   0  0  0  0  0  0  0  0  0  0  0  0
    3.5700   60.3090   72.1880 C   0  0  0  0  0  0  0  0  0  0  0  0
    3.6600   58.9870   71.9800 C   0  0  0  0  0  0  0  0  0  0  0  0
    3.7250   58.3750   70.6440 C   0  0  0  0  0  0  0  0  0  0  0  0
    3.7910   57.1590   70.5150 O   0  0  0  0  0  0  0  0  0  0  0  0
    3.7080   59.2350   69.5620 O   0  0  0  0  0  0  0  0  0  0  0  0
    3.6220   60.6300   69.7400 C   0  0  0  0  0  0  0  0  0  0  0  0
    3.5490   61.1970   71.0140 C   0  0  0  0  0  0  0  0  0  0  0  0
    3.4590   62.5900   71.0910 C   0  0  0  0  0  0  0  0  0  0  0  0
    3.4470   63.3710   69.9270 C   0  0  0  0  0  0  0  0  0  0  0  0
    3.5250   62.7810   68.6630 C   0  0  0  0  0  0  0  0  0  0  0  0
    3.6130   61.3960   68.5700 C   0  0  0  0  0  0  0  0  0  0  0  0
    3.5290   60.8750   73.5800 C   0  0  0  0  0  0  0  0  0  0  0  0
    2.2820   60.5770   74.1900 O   0  0  0  0  0  0  0  0  0  0  0  0
    3.2171   62.3602   66.0275 H   0  0  0  0  0  0  0  0  0  0  0  0
    4.9204   62.7590   66.3936 H   0  0  0  0  0  0  0  0  0  0  0  0
    2.1840   65.2883   66.3458 H   0  0  0  0  0  0  0  0  0  0  0  0
    2.0845   67.1802   64.7345 H   0  0  0  0  0  0  0  0  0  0  0  0
    5.3727   65.4555   62.5141 H   0  0  0  0  0  0  0  0  0  0  0  0
    5.4720   63.5662   64.1292 H   0  0  0  0  0  0  0  0  0  0  0  0
    4.1957   67.2933   61.6201 H   0  0  0  0  0  0  0  0  0  0  0  0
    2.5829   67.7679   62.3187 H   0  0  0  0  0  0  0  0  0  0  0  0
    3.8561   69.6377   62.5083 H   0  0  0  0  0  0  0  0  0  0  0  0
    6.2165   68.8884   63.9153 H   0  0  0  0  0  0  0  0  0  0  0  0
    6.0662   67.9888   62.3678 H   0  0  0  0  0  0  0  0  0  0  0  0
    6.0495   69.7850   62.3678 H   0  0  0  0  0  0  0  0  0  0  0  0
    3.1590   70.0088   64.5214 H   0  0  0  0  0  0  0  0  0  0  0  0
    3.3404   68.2395   64.8923 H   0  0  0  0  0  0  0  0  0  0  0  0
    5.6507   68.5270   65.4551 H   0  0  0  0  0  0  0  0  0  0  0  0
    5.5452   70.2987   64.9398 H   0  0  0  0  0  0  0  0  0  0  0  0
    3.8993   70.6046   66.8030 H   0  0  0  0  0  0  0  0  0  0  0  0
    4.4535   68.9619   67.3928 H   0  0  0  0  0  0  0  0  0  0  0  0
    5.9113   71.5829   67.3485 H   0  0  0  0  0  0  0  0  0  0  0  0
    3.6867   58.3237   72.8571 H   0  0  0  0  0  0  0  0  0  0  0  0
    3.3970   63.0781   72.0748 H   0  0  0  0  0  0  0  0  0  0  0  0
    3.3750   64.4655   70.0101 H   0  0  0  0  0  0  0  0  0  0  0  0
    3.6749   60.9081   67.5861 H   0  0  0  0  0  0  0  0  0  0  0  0
    4.3409   60.4335   74.1766 H   0  0  0  0  0  0  0  0  0  0  0  0
    3.6538   61.9667   73.5292 H   0  0  0  0  0  0  0  0  0  0  0  0
    2.3822   60.6009   75.1746 H   0  0  0  0  0  0  0  0  0  0  0  0
  2  1  1  0
  3  2  2  0
  4  3  1  0
  5  4  2  0
  6  5  1  0
  7  6  2  0
  7  2  1  0
  8  5  1  0
  9  8  1  0
 10  9  1  0
 11  9  1  0
 12 11  1  0
 13 12  1  0
 14 13  1  0
 15 14  1  0
 16 14  1  0
 17  1  1  0
 19 18  2  0
 20 19  1  0
 21 20  2  0
 22 20  1  0
 23 22  1  0
 24 23  2  0
 24 18  1  0
 25 24  1  0
 26 25  2  0
 27 26  1  0
 27 17  1  0
 28 27  2  0
 28 23  1  0
 29 18  1  0
 30 29  1  0
  1 31  1  0
  1 32  1  0
  3 33  1  0
  4 34  1  0
  6 35  1  0
  7 36  1  0
  8 37  1  0
  8 38  1  0
  9 39  1  6
 10 40  1  0
 10 41  1  0
 10 42  1  0
 11 43  1  0
 11 44  1  0
 12 45  1  0
 12 46  1  0
 13 47  1  0
 13 48  1  0
 14 49  1  0
 19 50  1  0
 25 51  1  0
 26 52  1  0
 28 53  1  0
 29 54  1  0
 29 55  1  0
 30 56  1  0
M  CHG  1   9   1
M  END
>  <score>  (9) 
-8.72

$$$$
