=
     RDKit          3D

 80 82  0  0  0  0  0  0  0  0999 V2000
   -2.5810   67.5330   68.0860 O   0  0  0  0  0  0  0  0  0  0  0  0
   -1.4480   67.1740   67.7860 C   0  0  0  0  0  0  0  0  0  0  0  0
   -0.7710   67.6330   66.6840 N   0  0  0  0  0  0  0  0  0  0  0  0
   -0.7590   66.1270   68.5760 C   0  0  0  0  0  0  0  0  0  0  0  0
    0.0870   66.3870   69.5860 C   0  0  0  0  0  0  0  0  0  0  0  0
    0.7390   65.3330   70.3780 C   0  0  0  0  0  0  0  0  0  0  0  0
    0.2760   65.0800   71.6740 C   0  0  0  0  0  0  0  0  0  0  0  0
    0.8410   64.0830   72.4950 C   0  0  0  0  0  0  0  0  0  0  0  0
    1.8690   63.3020   71.9120 C   0  0  0  0  0  0  0  0  0  0  0  0
    2.3760   63.5230   70.6060 C   0  0  0  0  0  0  0  0  0  0  0  0
    1.7740   64.5510   69.8590 C   0  0  0  0  0  0  0  0  0  0  0  0
    3.5250   62.6750   70.0020 C   0  0  0  0  0  0  0  0  0  0  0  0
    3.2730   61.1450   70.0700 C   0  0  0  0  0  0  0  0  0  0  0  0
    3.7160   63.0040   68.5040 C   0  0  0  0  0  0  0  0  0  0  0  0
    4.8420   62.9260   70.7710 C   0  0  0  0  0  0  0  0  0  0  0  0
    0.3300   63.9050   73.9490 C   0  0  0  0  0  0  0  0  0  0  0  0
   -0.6100   62.6860   74.1030 C   0  0  0  0  0  0  0  0  0  0  0  0
   -0.3980   65.1890   74.3960 C   0  0  0  0  0  0  0  0  0  0  0  0
    1.4750   63.6610   74.9730 C   0  0  0  0  0  0  0  0  0  0  0  0
    2.4170   62.2600   72.6090 O   0  0  0  0  0  0  0  0  0  0  0  0
   -1.3750   68.6070   65.8040 C   0  0  0  0  0  0  0  0  0  0  0  0
   -0.5740   68.7810   64.5100 C   0  0  0  0  0  0  0  0  0  0  0  0
    0.9460   68.7560   64.7410 C   0  0  0  0  0  0  0  0  0  0  0  0
    1.5990   67.5870   64.0000 C   0  0  0  0  0  0  0  0  0  0  0  0
    3.1240   67.6350   64.0780 C   0  0  0  0  0  0  0  0  0  0  0  0
    3.6160   68.1450   65.4150 N   0  0  0  0  0  4  0  0  0  0  0  0
    2.6110   67.9590   66.5210 C   0  0  0  0  0  0  0  0  0  0  0  0
    1.3200   68.7200   66.2330 C   0  0  0  0  0  0  0  0  0  0  0  0
    4.2250   69.5350   65.3370 C   0  0  0  0  0  0  0  0  0  0  0  0
    4.9140   69.9550   66.6070 C   0  0  0  0  0  0  0  0  0  0  0  0
    4.1700   70.2100   67.7710 C   0  0  0  0  0  0  0  0  0  0  0  0
    4.8100   70.6260   68.9400 C   0  0  0  0  0  0  0  0  0  0  0  0
    6.1920   70.7900   68.9590 C   0  0  0  0  0  0  0  0  0  0  0  0
    6.9410   70.5340   67.8120 C   0  0  0  0  0  0  0  0  0  0  0  0
    6.3070   70.1170   66.6420 C   0  0  0  0  0  0  0  0  0  0  0  0
    0.1755   67.2803   66.4825 H   0  0  0  0  0  0  0  0  0  0  0  0
   -0.9518   65.0747   68.3202 H   0  0  0  0  0  0  0  0  0  0  0  0
    0.3024   67.4372   69.8325 H   0  0  0  0  0  0  0  0  0  0  0  0
   -0.5583   65.6803   72.0660 H   0  0  0  0  0  0  0  0  0  0  0  0
    2.1283   64.7452   68.8359 H   0  0  0  0  0  0  0  0  0  0  0  0
    3.2209   60.8284   71.1222 H   0  0  0  0  0  0  0  0  0  0  0  0
    2.3236   60.9071   69.5680 H   0  0  0  0  0  0  0  0  0  0  0  0
    4.0960   60.6152   69.5680 H   0  0  0  0  0  0  0  0  0  0  0  0
    4.2660   63.9514   68.4039 H   0  0  0  0  0  0  0  0  0  0  0  0
    4.2857   62.1965   68.0210 H   0  0  0  0  0  0  0  0  0  0  0  0
    2.7322   63.0983   68.0210 H   0  0  0  0  0  0  0  0  0  0  0  0
    4.6476   62.8889   71.8530 H   0  0  0  0  0  0  0  0  0  0  0  0
    5.5760   62.1516   70.5036 H   0  0  0  0  0  0  0  0  0  0  0  0
    5.2397   63.9161   70.5036 H   0  0  0  0  0  0  0  0  0  0  0  0
   -0.7697   62.4788   75.1714 H   0  0  0  0  0  0  0  0  0  0  0  0
   -1.5756   62.9047   73.6235 H   0  0  0  0  0  0  0  0  0  0  0  0
   -0.1531   61.8077   73.6235 H   0  0  0  0  0  0  0  0  0  0  0  0
   -0.4228   65.2328   75.4948 H   0  0  0  0  0  0  0  0  0  0  0  0
    0.1361   66.0680   74.0060 H   0  0  0  0  0  0  0  0  0  0  0  0
   -1.4265   65.1820   74.0060 H   0  0  0  0  0  0  0  0  0  0  0  0
    1.0771   63.7458   75.9950 H   0  0  0  0  0  0  0  0  0  0  0  0
    1.8916   62.6539   74.8241 H   0  0  0  0  0  0  0  0  0  0  0  0
    2.2660   64.4107   74.8241 H   0  0  0  0  0  0  0  0  0  0  0  0
    3.1354   61.7148   72.2007 H   0  0  0  0  0  0  0  0  0  0  0  0
   -2.3925   68.2748   65.5506 H   0  0  0  0  0  0  0  0  0  0  0  0
   -1.3928   69.5746   66.3269 H   0  0  0  0  0  0  0  0  0  0  0  0
   -0.8381   67.9652   63.8210 H   0  0  0  0  0  0  0  0  0  0  0  0
   -0.8290   69.7665   64.0931 H   0  0  0  0  0  0  0  0  0  0  0  0
    1.3359   69.6992   64.3308 H   0  0  0  0  0  0  0  0  0  0  0  0
    1.2507   66.6446   64.4479 H   0  0  0  0  0  0  0  0  0  0  0  0
    1.3124   67.6561   62.9402 H   0  0  0  0  0  0  0  0  0  0  0  0
    3.5182   66.6203   63.9199 H   0  0  0  0  0  0  0  0  0  0  0  0
    3.4784   68.3297   63.3023 H   0  0  0  0  0  0  0  0  0  0  0  0
    4.4051   67.5393   65.6823 H   0  0  0  0  0  0  0  0  0  0  0  0
    2.3809   66.8878   66.6192 H   0  0  0  0  0  0  0  0  0  0  0  0
    3.0443   68.3518   67.4526 H   0  0  0  0  0  0  0  0  0  0  0  0
    1.4400   69.7547   66.5865 H   0  0  0  0  0  0  0  0  0  0  0  0
    0.5099   68.1905   66.7559 H   0  0  0  0  0  0  0  0  0  0  0  0
    4.9610   69.5484   64.5196 H   0  0  0  0  0  0  0  0  0  0  0  0
    3.4007   70.2426   65.1641 H   0  0  0  0  0  0  0  0  0  0  0  0
    3.0776   70.0813   67.7614 H   0  0  0  0  0  0  0  0  0  0  0  0
    4.2210   70.8245   69.8476 H   0  0  0  0  0  0  0  0  0  0  0  0
    6.6934   71.1219   69.8801 H   0  0  0  0  0  0  0  0  0  0  0  0
    8.0335   70.6610   67.8296 H   0  0  0  0  0  0  0  0  0  0  0  0
    6.9033   69.9137   65.7403 H   0  0  0  0  0  0  0  0  0  0  0  0
  2  1  2  0
  3  2  1  0
  4  2  1  0
  5  4  2  0
  6  5  1  0
  7  6  2  0
  8  7  1  0
  9  8  2  0
 10  9  1  0
 11 10  2  0
 11  6  1  0
 12 10  1  0
 13 12  1  0
 14 12  1  0
 15 12  1  0
 16  8  1  0
 17 16  1  0
 18 16  1  0
 19 16  1  0
 20  9  1  0
 21  3  1  0
 22 21  1  0
 23 22  1  0
 24 23  1  0
 25 24  1  0
 26 25  1  0
 27 26  1  0
 28 23  1  0
 28 27  1  0
 29 26  1  0
 30 29  1  0
 31 30  2  0
 32 31  1  0
 33 32  2  0
 34 33  1  0
 35 30  1  0
 35 34  2  0
  3 36  1  0
  4 37  1  0
  5 38  1  0
  7 39  1  0
 11 40  1  0
 13 41  1  0
 13 42  1  0
 13 43  1  0
 14 44  1  0
 14 45  1  0
 14 46  1  0
 15 47  1  0
 15 48  1  0
 15 49  1  0
 17 50  1  0
 17 51  1  0
 17 52  1  0
 18 53  1  0
 18 54  1  0
 18 55  1  0
 19 56  1  0
 19 57  1  0
 19 58  1  0
 20 59  1  0
 21 60  1  0
 21 61  1  0
 22 62  1  0
 22 63  1  0
 23 64  1  0
 24 65  1  0
 24 66  1  0
 25 67  1  0
 25 68  1  0
 26 69  1  0
 27 70  1  0
 27 71  1  0
 28 72  1  0
 28 73  1  0
 29 74  1  0
 29 75  1  0
 31 76  1  0
 32 77  1  0
 33 78  1  0
 34 79  1  0
 35 80  1  0
M  CHG  1  26   1
M  END
>  <score>  (1) 
-11.505

$$$$
=
     RDKit          3D

 80 82  0  0  0  0  0  0  0  0999 V2000
   -2.6820   67.4410   68.1510 O   0  0  0  0  0  0  0  0  0  0  0  0
   -1.5120   67.1490   67.9300 C   0  0  0  0  0  0  0  0  0  0  0  0
   -0.7700   67.6960   66.9130 N   0  0  0  0  0  0  0  0  0  0  0  0
   -0.8390   66.0950   68.7240 C   0  0  0  0  0  0  0  0  0  0  0  0
    0.1310   66.3360   69.6200 C   0  0  0  0  0  0  0  0  0  0  0  0
    0.7660   65.2770   70.4200 C   0  0  0  0  0  0  0  0  0  0  0  0
    1.8900   64.6230   69.9020 C   0  0  0  0  0  0  0  0  0  0  0  0
    2.5600   63.6030   70.6080 C   0  0  0  0  0  0  0  0  0  0  0  0
    2.0700   63.3160   71.9060 C   0  0  0  0  0  0  0  0  0  0  0  0
    0.9320   63.9470   72.4710 C   0  0  0  0  0  0  0  0  0  0  0  0
    0.3060   64.9370   71.6940 C   0  0  0  0  0  0  0  0  0  0  0  0
    0.3960   63.5900   73.8820 C   0  0  0  0  0  0  0  0  0  0  0  0
   -0.3270   64.7670   74.5900 C   0  0  0  0  0  0  0  0  0  0  0  0
   -0.6430   62.4480   73.7970 C   0  0  0  0  0  0  0  0  0  0  0  0
    1.5580   63.1800   74.8140 C   0  0  0  0  0  0  0  0  0  0  0  0
    3.7550   62.8680   69.9450 C   0  0  0  0  0  0  0  0  0  0  0  0
    5.1240   63.3790   70.4560 C   0  0  0  0  0  0  0  0  0  0  0  0
    3.6710   63.0340   68.4140 C   0  0  0  0  0  0  0  0  0  0  0  0
    3.7640   61.3400   70.2290 C   0  0  0  0  0  0  0  0  0  0  0  0
    2.7110   62.3990   72.6920 O   0  0  0  0  0  0  0  0  0  0  0  0
   -1.3480   68.6860   66.0340 C   0  0  0  0  0  0  0  0  0  0  0  0
   -0.6020   68.7680   64.6980 C   0  0  0  0  0  0  0  0  0  0  0  0
    0.9270   68.7340   64.8650 C   0  0  0  0  0  0  0  0  0  0  0  0
    1.5390   67.5520   64.1110 C   0  0  0  0  0  0  0  0  0  0  0  0
    3.0670   67.5910   64.1230 C   0  0  0  0  0  0  0  0  0  0  0  0
    3.6190   68.1110   65.4330 N   0  0  0  0  0  4  0  0  0  0  0  0
    2.6600   67.9440   66.5810 C   0  0  0  0  0  0  0  0  0  0  0  0
    1.3640   68.7110   66.3400 C   0  0  0  0  0  0  0  0  0  0  0  0
    4.2330   69.4960   65.3130 C   0  0  0  0  0  0  0  0  0  0  0  0
    4.9110   69.9560   66.5750 C   0  0  0  0  0  0  0  0  0  0  0  0
    6.3060   70.1140   66.6180 C   0  0  0  0  0  0  0  0  0  0  0  0
    6.9340   70.5150   67.7980 C   0  0  0  0  0  0  0  0  0  0  0  0
    6.1790   70.7620   68.9420 C   0  0  0  0  0  0  0  0  0  0  0  0
    4.7950   70.6150   68.9090 C   0  0  0  0  0  0  0  0  0  0  0  0
    4.1620   70.2150   67.7320 C   0  0  0  0  0  0  0  0  0  0  0  0
    0.2064   67.3983   66.7755 H   0  0  0  0  0  0  0  0  0  0  0  0
   -1.1530   65.0521   68.5701 H   0  0  0  0  0  0  0  0  0  0  0  0
    0.4668   67.3737   69.7628 H   0  0  0  0  0  0  0  0  0  0  0  0
    2.2636   64.9151   68.9095 H   0  0  0  0  0  0  0  0  0  0  0  0
   -0.5721   65.4594   72.1014 H   0  0  0  0  0  0  0  0  0  0  0  0
   -0.2502   64.6420   75.6802 H   0  0  0  0  0  0  0  0  0  0  0  0
    0.1437   65.7167   74.2958 H   0  0  0  0  0  0  0  0  0  0  0  0
   -1.3869   64.7765   74.2958 H   0  0  0  0  0  0  0  0  0  0  0  0
   -0.9277   62.1350   74.8124 H   0  0  0  0  0  0  0  0  0  0  0  0
   -1.5345   62.8027   73.2591 H   0  0  0  0  0  0  0  0  0  0  0  0
   -0.2059   61.5939   73.2591 H   0  0  0  0  0  0  0  0  0  0  0  0
    1.2438   63.2909   75.8623 H   0  0  0  0  0  0  0  0  0  0  0  0
    1.8299   62.1316   74.6216 H   0  0  0  0  0  0  0  0  0  0  0  0
    2.4276   63.8256   74.6216 H   0  0  0  0  0  0  0  0  0  0  0  0
    5.1275   63.3803   71.5560 H   0  0  0  0  0  0  0  0  0  0  0  0
    5.9227   62.7185   70.0876 H   0  0  0  0  0  0  0  0  0  0  0  0
    5.2945   64.4013   70.0876 H   0  0  0  0  0  0  0  0  0  0  0  0
    3.1862   63.9921   68.1751 H   0  0  0  0  0  0  0  0  0  0  0  0
    4.6848   63.0197   67.9875 H   0  0  0  0  0  0  0  0  0  0  0  0
    3.0821   62.2086   67.9875 H   0  0  0  0  0  0  0  0  0  0  0  0
    3.7650   61.1690   71.3156 H   0  0  0  0  0  0  0  0  0  0  0  0
    2.8686   60.8795   69.7862 H   0  0  0  0  0  0  0  0  0  0  0  0
    4.6648   60.8900   69.7862 H   0  0  0  0  0  0  0  0  0  0  0  0
    2.3683   62.1987   73.5989 H   0  0  0  0  0  0  0  0  0  0  0  0
   -2.3975   68.4199   65.8397 H   0  0  0  0  0  0  0  0  0  0  0  0
   -1.2727   69.6661   66.5276 H   0  0  0  0  0  0  0  0  0  0  0  0
   -0.9062   67.9155   64.0729 H   0  0  0  0  0  0  0  0  0  0  0  0
   -0.8626   69.7297   64.2320 H   0  0  0  0  0  0  0  0  0  0  0  0
    1.3057   69.6699   64.4282 H   0  0  0  0  0  0  0  0  0  0  0  0
    1.2044   66.6174   64.5849 H   0  0  0  0  0  0  0  0  0  0  0  0
    1.2070   67.6098   63.0639 H   0  0  0  0  0  0  0  0  0  0  0  0
    3.4480   66.5723   63.9583 H   0  0  0  0  0  0  0  0  0  0  0  0
    3.3920   68.2758   63.3258 H   0  0  0  0  0  0  0  0  0  0  0  0
    4.4145   67.5031   65.6748 H   0  0  0  0  0  0  0  0  0  0  0  0
    2.4267   66.8756   66.6998 H   0  0  0  0  0  0  0  0  0  0  0  0
    3.1347   68.3435   67.4893 H   0  0  0  0  0  0  0  0  0  0  0  0
    1.5062   69.7485   66.6768 H   0  0  0  0  0  0  0  0  0  0  0  0
    0.5733   68.1931   66.9026 H   0  0  0  0  0  0  0  0  0  0  0  0
    4.9768   69.4795   64.5028 H   0  0  0  0  0  0  0  0  0  0  0  0
    3.4131   70.2000   65.1075 H   0  0  0  0  0  0  0  0  0  0  0  0
    6.9066   69.9207   65.7169 H   0  0  0  0  0  0  0  0  0  0  0  0
    8.0270   70.6362   67.8246 H   0  0  0  0  0  0  0  0  0  0  0  0
    6.6766   71.0735   69.8723 H   0  0  0  0  0  0  0  0  0  0  0  0
    4.1998   70.8145   69.8123 H   0  0  0  0  0  0  0  0  0  0  0  0
    3.0680   70.1020   67.7113 H   0  0  0  0  0  0  0  0  0  0  0  0
  2  1  2  0
  3  2  1  0
  4  2  1  0
  5  4  2  0
  6  5  1  0
  7  6  2  0
  8  7  1  0
  9  8  2  0
 10  9  1  0
 11 10  2  0
 11  6  1  0
 12 10  1  0
 13 12  1  0
 14 12  1  0
 15 12  1  0
 16  8  1  0
 17 16  1  0
 18 16  1  0
 19 16  1  0
 20  9  1  0
 21  3  1  0
 22 21  1  0
 23 22  1  0
 24 23  1  0
 25 24  1  0
 26 25  1  0
 27 26  1  0
 28 23  1  0
 28 27  1  0
 29 26  1  0
 30 29  1  0
 31 30  2  0
 32 31  1  0
 33 32  2  0
 34 33  1  0
 35 30  1  0
 35 34  2  0
  3 36  1  0
  4 37  1  0
  5 38  1  0
  7 39  1  0
 11 40  1  0
 13 41  1  0
 13 42  1  0
 13 43  1  0
 14 44  1  0
 14 45  1  0
 14 46  1  0
 15 47  1  0
 15 48  1  0
 15 49  1  0
 17 50  1  0
 17 51  1  0
 17 52  1  0
 18 53  1  0
 18 54  1  0
 18 55  1  0
 19 56  1  0
 19 57  1  0
 19 58  1  0
 20 59  1  0
 21 60  1  0
 21 61  1  0
 22 62  1  0
 22 63  1  0
 23 64  1  0
 24 65  1  0
 24 66  1  0
 25 67  1  0
 25 68  1  0
 26 69  1  0
 27 70  1  0
 27 71  1  0
 28 72  1  0
 28 73  1  0
 29 74  1  0
 29 75  1  0
 31 76  1  0
 32 77  1  0
 33 78  1  0
 34 79  1  0
 35 80  1  0
M  CHG  1  26   1
M  END
>  <score>  (2) 
-11.38

$$$$
=
     RDKit          3D

 80 82  0  0  0  0  0  0  0  0999 V2000
   -0.3510   66.0780   71.7690 O   0  0  0  0  0  0  0  0  0  0  0  0
    0.2380   65.3200   71.0060 C   0  0  0  0  0  0  0  0  0  0  0  0
    0.4410   65.5860   69.6750 N   0  0  0  0  0  0  0  0  0  0  0  0
    0.7040   63.9950   71.4770 C   0  0  0  0  0  0  0  0  0  0  0  0
   -0.1140   62.9690   71.7580 C   0  0  0  0  0  0  0  0  0  0  0  0
    0.3720   61.6510   72.1960 C   0  0  0  0  0  0  0  0  0  0  0  0
    1.6300   61.2170   71.7610 C   0  0  0  0  0  0  0  0  0  0  0  0
    2.1700   59.9730   72.1410 C   0  0  0  0  0  0  0  0  0  0  0  0
    1.3950   59.2030   73.0440 C   0  0  0  0  0  0  0  0  0  0  0  0
    0.1130   59.5970   73.5070 C   0  0  0  0  0  0  0  0  0  0  0  0
   -0.3650   60.8430   73.0640 C   0  0  0  0  0  0  0  0  0  0  0  0
   -0.7310   58.7210   74.4690 C   0  0  0  0  0  0  0  0  0  0  0  0
   -0.1700   58.6640   75.9150 C   0  0  0  0  0  0  0  0  0  0  0  0
   -2.1670   59.2810   74.5970 C   0  0  0  0  0  0  0  0  0  0  0  0
   -0.7750   57.2600   73.9700 C   0  0  0  0  0  0  0  0  0  0  0  0
    3.5380   59.5210   71.5650 C   0  0  0  0  0  0  0  0  0  0  0  0
    3.4720   58.1230   70.9030 C   0  0  0  0  0  0  0  0  0  0  0  0
    4.5910   59.5190   72.6920 C   0  0  0  0  0  0  0  0  0  0  0  0
    4.0750   60.4660   70.4540 C   0  0  0  0  0  0  0  0  0  0  0  0
    1.8800   58.0200   73.5280 O   0  0  0  0  0  0  0  0  0  0  0  0
   -0.0330   66.8210   69.0930 C   0  0  0  0  0  0  0  0  0  0  0  0
    1.1220   67.7020   68.6060 C   0  0  0  0  0  0  0  0  0  0  0  0
    1.0400   68.0160   67.1030 C   0  0  0  0  0  0  0  0  0  0  0  0
   -0.3980   67.8990   66.5910 C   0  0  0  0  0  0  0  0  0  0  0  0
   -0.5330   68.3660   65.1420 C   0  0  0  0  0  0  0  0  0  0  0  0
    0.6740   68.0030   64.3050 N   0  0  0  0  0  4  0  0  0  0  0  0
    1.4460   66.8370   64.8630 C   0  0  0  0  0  0  0  0  0  0  0  0
    1.9810   67.1390   66.2590 C   0  0  0  0  0  0  0  0  0  0  0  0
    1.5230   69.2060   63.9300 C   0  0  0  0  0  0  0  0  0  0  0  0
    2.9020   68.8360   63.4560 C   0  0  0  0  0  0  0  0  0  0  0  0
    3.0760   68.0970   62.2750 C   0  0  0  0  0  0  0  0  0  0  0  0
    4.3550   67.7320   61.8530 C   0  0  0  0  0  0  0  0  0  0  0  0
    5.4700   68.1000   62.6020 C   0  0  0  0  0  0  0  0  0  0  0  0
    5.3100   68.8390   63.7720 C   0  0  0  0  0  0  0  0  0  0  0  0
    4.0340   69.2080   64.1980 C   0  0  0  0  0  0  0  0  0  0  0  0
    0.9350   64.9002   69.0863 H   0  0  0  0  0  0  0  0  0  0  0  0
    1.7860   63.8430   71.6041 H   0  0  0  0  0  0  0  0  0  0  0  0
   -1.1988   63.1204   71.6561 H   0  0  0  0  0  0  0  0  0  0  0  0
    2.2172   61.8706   71.0992 H   0  0  0  0  0  0  0  0  0  0  0  0
   -1.3487   61.1915   73.4116 H   0  0  0  0  0  0  0  0  0  0  0  0
   -0.9987   58.7482   76.6334 H   0  0  0  0  0  0  0  0  0  0  0  0
    0.3524   57.7082   76.0682 H   0  0  0  0  0  0  0  0  0  0  0  0
    0.5340   59.4952   76.0682 H   0  0  0  0  0  0  0  0  0  0  0  0
   -2.4275   59.3826   75.6609 H   0  0  0  0  0  0  0  0  0  0  0  0
   -2.2211   60.2661   74.1106 H   0  0  0  0  0  0  0  0  0  0  0  0
   -2.8737   58.5926   74.1106 H   0  0  0  0  0  0  0  0  0  0  0  0
   -0.7955   56.5782   74.8330 H   0  0  0  0  0  0  0  0  0  0  0  0
   -1.6781   57.1076   73.3608 H   0  0  0  0  0  0  0  0  0  0  0  0
    0.1173   57.0536   73.3608 H   0  0  0  0  0  0  0  0  0  0  0  0
    3.4355   57.3490   71.6837 H   0  0  0  0  0  0  0  0  0  0  0  0
    2.5697   58.0557   70.2775 H   0  0  0  0  0  0  0  0  0  0  0  0
    4.3640   57.9710   70.2775 H   0  0  0  0  0  0  0  0  0  0  0  0
    4.0835   59.5200   73.6680 H   0  0  0  0  0  0  0  0  0  0  0  0
    5.2185   58.6197   72.6059 H   0  0  0  0  0  0  0  0  0  0  0  0
    5.2219   60.4159   72.6059 H   0  0  0  0  0  0  0  0  0  0  0  0
    4.5679   61.3335   70.9172 H   0  0  0  0  0  0  0  0  0  0  0  0
    4.7994   59.9229   69.8293 H   0  0  0  0  0  0  0  0  0  0  0  0
    3.2377   60.8104   69.8293 H   0  0  0  0  0  0  0  0  0  0  0  0
    1.3373   57.4835   74.1586 H   0  0  0  0  0  0  0  0  0  0  0  0
   -0.6849   66.5848   68.2390 H   0  0  0  0  0  0  0  0  0  0  0  0
   -0.5817   67.3754   69.8686 H   0  0  0  0  0  0  0  0  0  0  0  0
    1.1009   68.6494   69.1645 H   0  0  0  0  0  0  0  0  0  0  0  0
    2.0563   67.1475   68.7777 H   0  0  0  0  0  0  0  0  0  0  0  0
    1.3758   69.0571   66.9874 H   0  0  0  0  0  0  0  0  0  0  0  0
   -0.7127   66.8469   66.6552 H   0  0  0  0  0  0  0  0  0  0  0  0
   -1.0330   68.5448   67.2152 H   0  0  0  0  0  0  0  0  0  0  0  0
   -1.4237   67.8952   64.7005 H   0  0  0  0  0  0  0  0  0  0  0  0
   -0.6190   69.4626   65.1493 H   0  0  0  0  0  0  0  0  0  0  0  0
    0.3098   67.6608   63.4044 H   0  0  0  0  0  0  0  0  0  0  0  0
    0.7825   65.9612   64.9160 H   0  0  0  0  0  0  0  0  0  0  0  0
    2.3015   66.6399   64.2002 H   0  0  0  0  0  0  0  0  0  0  0  0
    2.9441   67.6606   66.1570 H   0  0  0  0  0  0  0  0  0  0  0  0
    2.0798   66.1762   66.7818 H   0  0  0  0  0  0  0  0  0  0  0  0
    1.0131   69.7562   63.1255 H   0  0  0  0  0  0  0  0  0  0  0  0
    1.6429   69.8160   64.8375 H   0  0  0  0  0  0  0  0  0  0  0  0
    2.1991   67.8041   61.6790 H   0  0  0  0  0  0  0  0  0  0  0  0
    4.4828   67.1524   60.9269 H   0  0  0  0  0  0  0  0  0  0  0  0
    6.4769   67.8071   62.2697 H   0  0  0  0  0  0  0  0  0  0  0  0
    6.1915   69.1321   64.3610 H   0  0  0  0  0  0  0  0  0  0  0  0
    3.9141   69.7941   65.1211 H   0  0  0  0  0  0  0  0  0  0  0  0
  2  1  2  0
  3  2  1  0
  4  2  1  0
  5  4  2  0
  6  5  1  0
  7  6  2  0
  8  7  1  0
  9  8  2  0
 10  9  1  0
 11 10  2  0
 11  6  1  0
 12 10  1  0
 13 12  1  0
 14 12  1  0
 15 12  1  0
 16  8  1  0
 17 16  1  0
 18 16  1  0
 19 16  1  0
 20  9  1  0
 21  3  1  0
 22 21  1  0
 23 22  1  0
 24 23  1  0
 25 24  1  0
 26 25  1  0
 27 26  1  0
 28 23  1  0
 28 27  1  0
 29 26  1  0
 30 29  1  0
 31 30  2  0
 32 31  1  0
 33 32  2  0
 34 33  1  0
 35 30  1  0
 35 34  2  0
  3 36  1  0
  4 37  1  0
  5 38  1  0
  7 39  1  0
 11 40  1  0
 13 41  1  0
 13 42  1  0
 13 43  1  0
 14 44  1  0
 14 45  1  0
 14 46  1  0
 15 47  1  0
 15 48  1  0
 15 49  1  0
 17 50  1  0
 17 51  1  0
 17 52  1  0
 18 53  1  0
 18 54  1  0
 18 55  1  0
 19 56  1  0
 19 57  1  0
 19 58  1  0
 20 59  1  0
 21 60  1  0
 21 61  1  0
 22 62  1  0
 22 63  1  0
 23 64  1  0
 24 65  1  0
 24 66  1  0
 25 67  1  0
 25 68  1  0
 26 69  1  0
 27 70  1  0
 27 71  1  0
 28 72  1  0
 28 73  1  0
 29 74  1  0
 29 75  1  0
 31 76  1  0
 32 77  1  0
 33 78  1  0
 34 79  1  0
 35 80  1  0
M  CHG  1  26   1
M  END
>  <score>  (3) 
-11.126

$$$$
=
     RDKit          3D

 80 82  0  0  0  0  0  0  0  0999 V2000
    2.0060   63.8210   69.8730 O   0  0  0  0  0  0  0  0  0  0  0  0
    1.1010   63.8780   70.6980 C   0  0  0  0  0  0  0  0  0  0  0  0
    0.4030   65.0250   70.9850 N   0  0  0  0  0  0  0  0  0  0  0  0
    0.7550   62.6920   71.5150 C   0  0  0  0  0  0  0  0  0  0  0  0
   -0.4330   62.5150   72.1140 C   0  0  0  0  0  0  0  0  0  0  0  0
   -0.7670   61.3150   72.8960 C   0  0  0  0  0  0  0  0  0  0  0  0
    0.1730   60.2820   72.9820 C   0  0  0  0  0  0  0  0  0  0  0  0
   -0.0670   59.1040   73.7170 C   0  0  0  0  0  0  0  0  0  0  0  0
   -1.2950   59.0460   74.4220 C   0  0  0  0  0  0  0  0  0  0  0  0
   -2.2810   60.0630   74.3620 C   0  0  0  0  0  0  0  0  0  0  0  0
   -1.9750   61.1970   73.5890 C   0  0  0  0  0  0  0  0  0  0  0  0
   -3.6320   59.9610   75.1160 C   0  0  0  0  0  0  0  0  0  0  0  0
   -4.2690   58.5460   75.0640 C   0  0  0  0  0  0  0  0  0  0  0  0
   -3.4440   60.2820   76.6160 C   0  0  0  0  0  0  0  0  0  0  0  0
   -4.6720   60.9200   74.4950 C   0  0  0  0  0  0  0  0  0  0  0  0
    0.9880   57.9660   73.7110 C   0  0  0  0  0  0  0  0  0  0  0  0
    0.3720   56.5860   73.3780 C   0  0  0  0  0  0  0  0  0  0  0  0
    1.6880   57.9110   75.0850 C   0  0  0  0  0  0  0  0  0  0  0  0
    2.1040   58.1750   72.6500 C   0  0  0  0  0  0  0  0  0  0  0  0
   -1.5730   57.9750   75.2260 O   0  0  0  0  0  0  0  0  0  0  0  0
    0.7030   66.2590   70.2960 C   0  0  0  0  0  0  0  0  0  0  0  0
   -0.2640   66.5140   69.1360 C   0  0  0  0  0  0  0  0  0  0  0  0
    0.4230   67.1470   67.9140 C   0  0  0  0  0  0  0  0  0  0  0  0
    1.1840   68.4160   68.3030 C   0  0  0  0  0  0  0  0  0  0  0  0
    2.0090   68.9720   67.1430 C   0  0  0  0  0  0  0  0  0  0  0  0
    1.3150   68.8000   65.8090 N   0  0  0  0  0  4  0  0  0  0  0  0
   -0.1790   68.6660   65.9380 C   0  0  0  0  0  0  0  0  0  0  0  0
   -0.5590   67.4430   66.7670 C   0  0  0  0  0  0  0  0  0  0  0  0
    1.9730   67.7550   64.9240 C   0  0  0  0  0  0  0  0  0  0  0  0
    3.1020   68.3050   64.0950 C   0  0  0  0  0  0  0  0  0  0  0  0
    3.0840   68.1830   62.6960 C   0  0  0  0  0  0  0  0  0  0  0  0
    4.1460   68.6700   61.9320 C   0  0  0  0  0  0  0  0  0  0  0  0
    5.2320   69.2810   62.5540 C   0  0  0  0  0  0  0  0  0  0  0  0
    5.2580   69.4130   63.9400 C   0  0  0  0  0  0  0  0  0  0  0  0
    4.1990   68.9290   64.7090 C   0  0  0  0  0  0  0  0  0  0  0  0
   -0.3407   65.0056   71.6974 H   0  0  0  0  0  0  0  0  0  0  0  0
    1.5177   61.9090   71.6383 H   0  0  0  0  0  0  0  0  0  0  0  0
   -1.1925   63.3046   72.0154 H   0  0  0  0  0  0  0  0  0  0  0  0
    1.1333   60.3935   72.4572 H   0  0  0  0  0  0  0  0  0  0  0  0
   -2.7077   62.0151   73.5279 H   0  0  0  0  0  0  0  0  0  0  0  0
   -4.4337   58.1802   76.0882 H   0  0  0  0  0  0  0  0  0  0  0  0
   -5.2313   58.5964   74.5335 H   0  0  0  0  0  0  0  0  0  0  0  0
   -3.5933   57.8590   74.5335 H   0  0  0  0  0  0  0  0  0  0  0  0
   -3.9081   59.4896   77.2215 H   0  0  0  0  0  0  0  0  0  0  0  0
   -2.3700   60.3386   76.8471 H   0  0  0  0  0  0  0  0  0  0  0  0
   -3.9201   61.2464   76.8471 H   0  0  0  0  0  0  0  0  0  0  0  0
   -5.2253   61.4302   75.2972 H   0  0  0  0  0  0  0  0  0  0  0  0
   -4.1567   61.6666   73.8728 H   0  0  0  0  0  0  0  0  0  0  0  0
   -5.3744   60.3460   73.8728 H   0  0  0  0  0  0  0  0  0  0  0  0
    0.1351   56.0552   74.3119 H   0  0  0  0  0  0  0  0  0  0  0  0
   -0.5486   56.7270   72.7927 H   0  0  0  0  0  0  0  0  0  0  0  0
    1.0917   55.9948   72.7927 H   0  0  0  0  0  0  0  0  0  0  0  0
    0.9337   57.9703   75.8834 H   0  0  0  0  0  0  0  0  0  0  0  0
    2.2443   56.9664   75.1755 H   0  0  0  0  0  0  0  0  0  0  0  0
    2.3850   58.7571   75.1755 H   0  0  0  0  0  0  0  0  0  0  0  0
    3.0633   58.3547   73.1574 H   0  0  0  0  0  0  0  0  0  0  0  0
    2.1847   57.2763   72.0208 H   0  0  0  0  0  0  0  0  0  0  0  0
    1.8540   59.0419   72.0208 H   0  0  0  0  0  0  0  0  0  0  0  0
   -2.4310   57.9351   75.7182 H   0  0  0  0  0  0  0  0  0  0  0  0
    0.6294   67.0923   71.0103 H   0  0  0  0  0  0  0  0  0  0  0  0
    1.7192   66.1805   69.8823 H   0  0  0  0  0  0  0  0  0  0  0  0
   -0.7081   65.5548   68.8316 H   0  0  0  0  0  0  0  0  0  0  0  0
   -1.0265   67.2230   69.4909 H   0  0  0  0  0  0  0  0  0  0  0  0
    1.1412   66.4009   67.5432 H   0  0  0  0  0  0  0  0  0  0  0  0
    0.4595   69.1802   68.6209 H   0  0  0  0  0  0  0  0  0  0  0  0
    1.8769   68.1583   69.1175 H   0  0  0  0  0  0  0  0  0  0  0  0
    2.1833   70.0444   67.3152 H   0  0  0  0  0  0  0  0  0  0  0  0
    2.9549   68.4118   67.1045 H   0  0  0  0  0  0  0  0  0  0  0  0
    1.4492   69.6834   65.2967 H   0  0  0  0  0  0  0  0  0  0  0  0
   -0.5783   69.5673   66.4261 H   0  0  0  0  0  0  0  0  0  0  0  0
   -0.6040   68.5468   64.9305 H   0  0  0  0  0  0  0  0  0  0  0  0
   -0.5903   66.5678   66.1014 H   0  0  0  0  0  0  0  0  0  0  0  0
   -1.5361   67.6550   67.2255 H   0  0  0  0  0  0  0  0  0  0  0  0
    2.3684   66.9532   65.5649 H   0  0  0  0  0  0  0  0  0  0  0  0
    1.2054   67.3870   64.2273 H   0  0  0  0  0  0  0  0  0  0  0  0
    2.2287   67.7012   62.1997 H   0  0  0  0  0  0  0  0  0  0  0  0
    4.1250   68.5710   60.8367 H   0  0  0  0  0  0  0  0  0  0  0  0
    6.0698   69.6596   61.9500 H   0  0  0  0  0  0  0  0  0  0  0  0
    6.1146   69.8995   64.4294 H   0  0  0  0  0  0  0  0  0  0  0  0
    4.2241   69.0372   65.8034 H   0  0  0  0  0  0  0  0  0  0  0  0
  2  1  2  0
  3  2  1  0
  4  2  1  0
  5  4  2  0
  6  5  1  0
  7  6  2  0
  8  7  1  0
  9  8  2  0
 10  9  1  0
 11 10  2  0
 11  6  1  0
 12 10  1  0
 13 12  1  0
 14 12  1  0
 15 12  1  0
 16  8  1  0
 17 16  1  0
 18 16  1  0
 19 16  1  0
 20  9  1  0
 21  3  1  0
 22 21  1  0
 23 22  1  0
 24 23  1  0
 25 24  1  0
 26 25  1  0
 27 26  1  0
 28 23  1  0
 28 27  1  0
 29 26  1  0
 30 29  1  0
 31 30  2  0
 32 31  1  0
 33 32  2  0
 34 33  1  0
 35 30  1  0
 35 34  2  0
  3 36  1  0
  4 37  1  0
  5 38  1  0
  7 39  1  0
 11 40  1  0
 13 41  1  0
 13 42  1  0
 13 43  1  0
 14 44  1  0
 14 45  1  0
 14 46  1  0
 15 47  1  0
 15 48  1  0
 15 49  1  0
 17 50  1  0
 17 51  1  0
 17 52  1  0
 18 53  1  0
 18 54  1  0
 18 55  1  0
 19 56  1  0
 19 57  1  0
 19 58  1  0
 20 59  1  0
 21 60  1  0
 21 61  1  0
 22 62  1  0
 22 63  1  0
 23 64  1  0
 24 65  1  0
 24 66  1  0
 25 67  1  0
 25 68  1  0
 26 69  1  0
 27 70  1  0
 27 71  1  0
 28 72  1  0
 28 73  1  0
 29 74  1  0
 29 75  1  0
 31 76  1  0
 32 77  1  0
 33 78  1  0
 34 79  1  0
 35 80  1  0
M  CHG  1  26   1
M  END
>  <score>  (4) 
-11.078

$$$$
=
     RDKit          3D

 80 82  0  0  0  0  0  0  0  0999 V2000
    2.0700   63.7720   69.8930 O   0  0  0  0  0  0  0  0  0  0  0  0
    1.1710   63.8410   70.7230 C   0  0  0  0  0  0  0  0  0  0  0  0
    0.4610   64.9870   70.9820 N   0  0  0  0  0  0  0  0  0  0  0  0
    0.8470   62.6760   71.5780 C   0  0  0  0  0  0  0  0  0  0  0  0
   -0.3710   62.4360   72.0880 C   0  0  0  0  0  0  0  0  0  0  0  0
   -0.6790   61.2560   72.9110 C   0  0  0  0  0  0  0  0  0  0  0  0
   -1.8800   61.2290   73.6290 C   0  0  0  0  0  0  0  0  0  0  0  0
   -2.2520   60.1350   74.4340 C   0  0  0  0  0  0  0  0  0  0  0  0
   -1.3690   59.0260   74.4300 C   0  0  0  0  0  0  0  0  0  0  0  0
   -0.1390   59.0090   73.7240 C   0  0  0  0  0  0  0  0  0  0  0  0
    0.1710   60.1490   72.9620 C   0  0  0  0  0  0  0  0  0  0  0  0
    0.8270   57.7960   73.7630 C   0  0  0  0  0  0  0  0  0  0  0  0
    0.1330   56.4370   73.4770 C   0  0  0  0  0  0  0  0  0  0  0  0
    1.9270   57.9410   72.6870 C   0  0  0  0  0  0  0  0  0  0  0  0
    1.4690   57.6610   75.1620 C   0  0  0  0  0  0  0  0  0  0  0  0
   -3.5630   60.2000   75.2620 C   0  0  0  0  0  0  0  0  0  0  0  0
   -4.6230   59.1820   74.7780 C   0  0  0  0  0  0  0  0  0  0  0  0
   -4.1390   61.6300   75.1940 C   0  0  0  0  0  0  0  0  0  0  0  0
   -3.3510   59.8760   76.7670 C   0  0  0  0  0  0  0  0  0  0  0  0
   -1.6930   57.8900   75.1180 O   0  0  0  0  0  0  0  0  0  0  0  0
    0.7390   66.2040   70.2530 C   0  0  0  0  0  0  0  0  0  0  0  0
   -0.3050   66.4680   69.1640 C   0  0  0  0  0  0  0  0  0  0  0  0
    0.2980   67.1040   67.9000 C   0  0  0  0  0  0  0  0  0  0  0  0
    1.1220   68.3460   68.2450 C   0  0  0  0  0  0  0  0  0  0  0  0
    1.8660   68.8990   67.0310 C   0  0  0  0  0  0  0  0  0  0  0  0
    1.0620   68.7680   65.7550 N   0  0  0  0  0  4  0  0  0  0  0  0
   -0.4200   68.6710   66.0020 C   0  0  0  0  0  0  0  0  0  0  0  0
   -0.7640   67.4440   66.8410 C   0  0  0  0  0  0  0  0  0  0  0  0
    1.6190   67.7220   64.8040 C   0  0  0  0  0  0  0  0  0  0  0  0
    2.7500   68.2330   63.9530 C   0  0  0  0  0  0  0  0  0  0  0  0
    2.6230   68.2900   62.5560 C   0  0  0  0  0  0  0  0  0  0  0  0
    3.6840   68.7390   61.7690 C   0  0  0  0  0  0  0  0  0  0  0  0
    4.8780   69.1350   62.3660 C   0  0  0  0  0  0  0  0  0  0  0  0
    5.0130   69.0890   63.7510 C   0  0  0  0  0  0  0  0  0  0  0  0
    3.9560   68.6420   64.5430 C   0  0  0  0  0  0  0  0  0  0  0  0
   -0.2758   64.9797   71.7017 H   0  0  0  0  0  0  0  0  0  0  0  0
    1.6534   61.9644   71.8090 H   0  0  0  0  0  0  0  0  0  0  0  0
   -1.1770   63.1554   71.8809 H   0  0  0  0  0  0  0  0  0  0  0  0
   -2.5575   62.0930   73.5622 H   0  0  0  0  0  0  0  0  0  0  0  0
    1.1100   60.1697   72.3895 H   0  0  0  0  0  0  0  0  0  0  0  0
   -0.1178   55.9459   74.4288 H   0  0  0  0  0  0  0  0  0  0  0  0
   -0.7873   56.6096   72.8998 H   0  0  0  0  0  0  0  0  0  0  0  0
    0.8124   55.7926   72.8998 H   0  0  0  0  0  0  0  0  0  0  0  0
    2.9038   58.0698   73.1762 H   0  0  0  0  0  0  0  0  0  0  0  0
    1.9474   57.0378   72.0595 H   0  0  0  0  0  0  0  0  0  0  0  0
    1.7127   58.8187   72.0595 H   0  0  0  0  0  0  0  0  0  0  0  0
    0.7025   57.8222   75.9343 H   0  0  0  0  0  0  0  0  0  0  0  0
    1.8960   56.6534   75.2738 H   0  0  0  0  0  0  0  0  0  0  0  0
    2.2656   58.4113   75.2738 H   0  0  0  0  0  0  0  0  0  0  0  0
   -5.1082   58.7161   75.6484 H   0  0  0  0  0  0  0  0  0  0  0  0
   -5.3793   59.7009   74.1708 H   0  0  0  0  0  0  0  0  0  0  0  0
   -4.1351   58.4053   74.1708 H   0  0  0  0  0  0  0  0  0  0  0  0
   -4.2929   62.0122   76.2139 H   0  0  0  0  0  0  0  0  0  0  0  0
   -3.4342   62.2842   74.6598 H   0  0  0  0  0  0  0  0  0  0  0  0
   -5.1004   61.6130   74.6598 H   0  0  0  0  0  0  0  0  0  0  0  0
   -3.8509   60.6400   77.3805 H   0  0  0  0  0  0  0  0  0  0  0  0
   -3.7776   58.8876   76.9929 H   0  0  0  0  0  0  0  0  0  0  0  0
   -2.2745   59.8711   76.9929 H   0  0  0  0  0  0  0  0  0  0  0  0
   -1.0756   57.1161   75.1145 H   0  0  0  0  0  0  0  0  0  0  0  0
    0.7393   67.0486   70.9577 H   0  0  0  0  0  0  0  0  0  0  0  0
    1.7192   66.0937   69.7662 H   0  0  0  0  0  0  0  0  0  0  0  0
   -0.7730   65.5119   68.8870 H   0  0  0  0  0  0  0  0  0  0  0  0
   -1.0381   67.1783   69.5740 H   0  0  0  0  0  0  0  0  0  0  0  0
    0.9636   66.3461   67.4612 H   0  0  0  0  0  0  0  0  0  0  0  0
    0.4465   69.1235   68.6311 H   0  0  0  0  0  0  0  0  0  0  0  0
    1.8705   68.0570   68.9975 H   0  0  0  0  0  0  0  0  0  0  0  0
    2.0836   69.9633   67.2042 H   0  0  0  0  0  0  0  0  0  0  0  0
    2.7898   68.3146   66.9079 H   0  0  0  0  0  0  0  0  0  0  0  0
    1.1776   69.6565   65.2469 H   0  0  0  0  0  0  0  0  0  0  0  0
   -0.7543   69.5739   66.5341 H   0  0  0  0  0  0  0  0  0  0  0  0
   -0.9283   68.5805   65.0307 H   0  0  0  0  0  0  0  0  0  0  0  0
   -0.8717   66.5812   66.1672 H   0  0  0  0  0  0  0  0  0  0  0  0
   -1.6950   67.6730   67.3802 H   0  0  0  0  0  0  0  0  0  0  0  0
    1.9852   66.8709   65.3969 H   0  0  0  0  0  0  0  0  0  0  0  0
    0.8042   67.4335   64.1237 H   0  0  0  0  0  0  0  0  0  0  0  0
    1.6818   67.9789   62.0792 H   0  0  0  0  0  0  0  0  0  0  0  0
    3.5771   68.7802   60.6750 H   0  0  0  0  0  0  0  0  0  0  0  0
    5.7148   69.4843   61.7433 H   0  0  0  0  0  0  0  0  0  0  0  0
    5.9555   69.4059   64.2214 H   0  0  0  0  0  0  0  0  0  0  0  0
    4.0680   68.6097   65.6368 H   0  0  0  0  0  0  0  0  0  0  0  0
  2  1  2  0
  3  2  1  0
  4  2  1  0
  5  4  2  0
  6  5  1  0
  7  6  2  0
  8  7  1  0
  9  8  2  0
 10  9  1  0
 11 10  2  0
 11  6  1  0
 12 10  1  0
 13 12  1  0
 14 12  1  0
 15 12  1  0
 16  8  1  0
 17 16  1  0
 18 16  1  0
 19 16  1  0
 20  9  1  0
 21  3  1  0
 22 21  1  0
 23 22  1  0
 24 23  1  0
 25 24  1  0
 26 25  1  0
 27 26  1  0
 28 23  1  0
 28 27  1  0
 29 26  1  0
 30 29  1  0
 31 30  2  0
 32 31  1  0
 33 32  2  0
 34 33  1  0
 35 30  1  0
 35 34  2  0
  3 36  1  0
  4 37  1  0
  5 38  1  0
  7 39  1  0
 11 40  1  0
 13 41  1  0
 13 42  1  0
 13 43  1  0
 14 44  1  0
 14 45  1  0
 14 46  1  0
 15 47  1  0
 15 48  1  0
 15 49  1  0
 17 50  1  0
 17 51  1  0
 17 52  1  0
 18 53  1  0
 18 54  1  0
 18 55  1  0
 19 56  1  0
 19 57  1  0
 19 58  1  0
 20 59  1  0
 21 60  1  0
 21 61  1  0
 22 62  1  0
 22 63  1  0
 23 64  1  0
 24 65  1  0
 24 66  1  0
 25 67  1  0
 25 68  1  0
 26 69  1  0
 27 70  1  0
 27 71  1  0
 28 72  1  0
 28 73  1  0
 29 74  1  0
 29 75  1  0
 31 76  1  0
 32 77  1  0
 33 78  1  0
 34 79  1  0
 35 80  1  0
M  CHG  1  26   1
M  END
>  <score>  (5) 
-11.033

$$$$
=
     RDKit          3D

 80 82  0  0  0  0  0  0  0  0999 V2000
    1.4360   66.7440   70.0600 O   0  0  0  0  0  0  0  0  0  0  0  0
    0.7040   65.7620   70.0100 C   0  0  0  0  0  0  0  0  0  0  0  0
   -0.5160   65.7530   69.3820 N   0  0  0  0  0  0  0  0  0  0  0  0
    1.0730   64.5140   70.7180 C   0  0  0  0  0  0  0  0  0  0  0  0
    0.2340   63.4840   70.9070 C   0  0  0  0  0  0  0  0  0  0  0  0
    0.6300   62.2410   71.5870 C   0  0  0  0  0  0  0  0  0  0  0  0
   -0.2520   61.6680   72.5110 C   0  0  0  0  0  0  0  0  0  0  0  0
    0.0480   60.4760   73.2000 C   0  0  0  0  0  0  0  0  0  0  0  0
    1.2720   59.8480   72.8590 C   0  0  0  0  0  0  0  0  0  0  0  0
    2.2000   60.3930   71.9350 C   0  0  0  0  0  0  0  0  0  0  0  0
    1.8370   61.5970   71.3070 C   0  0  0  0  0  0  0  0  0  0  0  0
    3.5500   59.7030   71.6050 C   0  0  0  0  0  0  0  0  0  0  0  0
    3.3950   58.2510   71.0780 C   0  0  0  0  0  0  0  0  0  0  0  0
    4.2980   60.4750   70.4950 C   0  0  0  0  0  0  0  0  0  0  0  0
    4.4310   59.6070   72.8700 C   0  0  0  0  0  0  0  0  0  0  0  0
   -0.9410   59.9340   74.2650 C   0  0  0  0  0  0  0  0  0  0  0  0
   -2.3650   60.5200   74.1070 C   0  0  0  0  0  0  0  0  0  0  0  0
   -0.3970   60.2470   75.6740 C   0  0  0  0  0  0  0  0  0  0  0  0
   -1.1310   58.3920   74.1930 C   0  0  0  0  0  0  0  0  0  0  0  0
    1.6050   58.6450   73.4190 O   0  0  0  0  0  0  0  0  0  0  0  0
   -1.0070   66.9380   68.7150 C   0  0  0  0  0  0  0  0  0  0  0  0
   -0.6930   66.9190   67.2160 C   0  0  0  0  0  0  0  0  0  0  0  0
    0.6210   67.6410   66.8720 C   0  0  0  0  0  0  0  0  0  0  0  0
    0.7310   68.9740   67.6160 C   0  0  0  0  0  0  0  0  0  0  0  0
    2.0970   69.6300   67.4210 C   0  0  0  0  0  0  0  0  0  0  0  0
    2.6470   69.4140   66.0280 N   0  0  0  0  0  4  0  0  0  0  0  0
    1.5730   69.1270   65.0120 C   0  0  0  0  0  0  0  0  0  0  0  0
    0.8030   67.8570   65.3600 C   0  0  0  0  0  0  0  0  0  0  0  0
    3.8270   68.4570   65.9940 C   0  0  0  0  0  0  0  0  0  0  0  0
    4.3340   68.1890   64.6030 C   0  0  0  0  0  0  0  0  0  0  0  0
    5.0090   69.1890   63.8850 C   0  0  0  0  0  0  0  0  0  0  0  0
    5.4550   68.9450   62.5850 C   0  0  0  0  0  0  0  0  0  0  0  0
    5.2320   67.7060   61.9910 C   0  0  0  0  0  0  0  0  0  0  0  0
    4.5690   66.7040   62.6960 C   0  0  0  0  0  0  0  0  0  0  0  0
    4.1220   66.9420   63.9960 C   0  0  0  0  0  0  0  0  0  0  0  0
   -1.0864   64.8954   69.3858 H   0  0  0  0  0  0  0  0  0  0  0  0
    2.0961   64.4265   71.1124 H   0  0  0  0  0  0  0  0  0  0  0  0
   -0.7978   63.5732   70.5363 H   0  0  0  0  0  0  0  0  0  0  0  0
   -1.2132   62.1660   72.7060 H   0  0  0  0  0  0  0  0  0  0  0  0
    2.5237   62.0449   70.5737 H   0  0  0  0  0  0  0  0  0  0  0  0
    3.3210   57.5580   71.9290 H   0  0  0  0  0  0  0  0  0  0  0  0
    2.4840   58.1784   70.4658 H   0  0  0  0  0  0  0  0  0  0  0  0
    4.2701   57.9878   70.4658 H   0  0  0  0  0  0  0  0  0  0  0  0
    4.9939   61.1932   70.9531 H   0  0  0  0  0  0  0  0  0  0  0  0
    4.8613   59.7657   69.8709 H   0  0  0  0  0  0  0  0  0  0  0  0
    3.5713   61.0156   69.8709 H   0  0  0  0  0  0  0  0  0  0  0  0
    3.7957   59.6762   73.7654 H   0  0  0  0  0  0  0  0  0  0  0  0
    4.9651   58.6453   72.8728 H   0  0  0  0  0  0  0  0  0  0  0  0
    5.1596   60.4311   72.8728 H   0  0  0  0  0  0  0  0  0  0  0  0
   -2.8002   60.6991   75.1012 H   0  0  0  0  0  0  0  0  0  0  0  0
   -2.3116   61.4692   73.5537 H   0  0  0  0  0  0  0  0  0  0  0  0
   -2.9952   59.8081   73.5537 H   0  0  0  0  0  0  0  0  0  0  0  0
   -1.0888   59.8489   76.4309 H   0  0  0  0  0  0  0  0  0  0  0  0
    0.5908   59.7792   75.7979 H   0  0  0  0  0  0  0  0  0  0  0  0
   -0.3050   61.3361   75.7979 H   0  0  0  0  0  0  0  0  0  0  0  0
   -1.1817   57.9808   75.2120 H   0  0  0  0  0  0  0  0  0  0  0  0
   -2.0643   58.1621   73.6580 H   0  0  0  0  0  0  0  0  0  0  0  0
   -0.2815   57.9425   73.6580 H   0  0  0  0  0  0  0  0  0  0  0  0
    2.4603   58.2075   73.1799 H   0  0  0  0  0  0  0  0  0  0  0  0
   -2.0972   66.9963   68.8496 H   0  0  0  0  0  0  0  0  0  0  0  0
   -0.5064   67.8116   69.1579 H   0  0  0  0  0  0  0  0  0  0  0  0
   -0.6153   65.8724   66.8866 H   0  0  0  0  0  0  0  0  0  0  0  0
   -1.5069   67.4501   66.7008 H   0  0  0  0  0  0  0  0  0  0  0  0
    1.4329   66.9783   67.2061 H   0  0  0  0  0  0  0  0  0  0  0  0
   -0.0465   69.6552   67.2401 H   0  0  0  0  0  0  0  0  0  0  0  0
    0.6014   68.7742   68.6899 H   0  0  0  0  0  0  0  0  0  0  0  0
    1.9982   70.7111   67.5981 H   0  0  0  0  0  0  0  0  0  0  0  0
    2.7961   69.1672   68.1331 H   0  0  0  0  0  0  0  0  0  0  0  0
    3.0464   70.3156   65.7305 H   0  0  0  0  0  0  0  0  0  0  0  0
    0.8719   69.9741   64.9833 H   0  0  0  0  0  0  0  0  0  0  0  0
    2.0524   68.9838   64.0324 H   0  0  0  0  0  0  0  0  0  0  0  0
    1.3497   66.9954   64.9491 H   0  0  0  0  0  0  0  0  0  0  0  0
   -0.2024   67.9607   64.9260 H   0  0  0  0  0  0  0  0  0  0  0  0
    4.6458   68.8907   66.5869 H   0  0  0  0  0  0  0  0  0  0  0  0
    3.4812   67.4975   66.4060 H   0  0  0  0  0  0  0  0  0  0  0  0
    5.1874   70.1701   64.3494 H   0  0  0  0  0  0  0  0  0  0  0  0
    5.9836   69.7332   62.0289 H   0  0  0  0  0  0  0  0  0  0  0  0
    5.5795   67.5180   60.9644 H   0  0  0  0  0  0  0  0  0  0  0  0
    4.3977   65.7238   62.2271 H   0  0  0  0  0  0  0  0  0  0  0  0
    3.6000   66.1469   64.5486 H   0  0  0  0  0  0  0  0  0  0  0  0
  2  1  2  0
  3  2  1  0
  4  2  1  0
  5  4  2  0
  6  5  1  0
  7  6  2  0
  8  7  1  0
  9  8  2  0
 10  9  1  0
 11 10  2  0
 11  6  1  0
 12 10  1  0
 13 12  1  0
 14 12  1  0
 15 12  1  0
 16  8  1  0
 17 16  1  0
 18 16  1  0
 19 16  1  0
 20  9  1  0
 21  3  1  0
 22 21  1  0
 23 22  1  0
 24 23  1  0
 25 24  1  0
 26 25  1  0
 27 26  1  0
 28 23  1  0
 28 27  1  0
 29 26  1  0
 30 29  1  0
 31 30  2  0
 32 31  1  0
 33 32  2  0
 34 33  1  0
 35 30  1  0
 35 34  2  0
  3 36  1  0
  4 37  1  0
  5 38  1  0
  7 39  1  0
 11 40  1  0
 13 41  1  0
 13 42  1  0
 13 43  1  0
 14 44  1  0
 14 45  1  0
 14 46  1  0
 15 47  1  0
 15 48  1  0
 15 49  1  0
 17 50  1  0
 17 51  1  0
 17 52  1  0
 18 53  1  0
 18 54  1  0
 18 55  1  0
 19 56  1  0
 19 57  1  0
 19 58  1  0
 20 59  1  0
 21 60  1  0
 21 61  1  0
 22 62  1  0
 22 63  1  0
 23 64  1  0
 24 65  1  0
 24 66  1  0
 25 67  1  0
 25 68  1  0
 26 69  1  0
 27 70  1  0
 27 71  1  0
 28 72  1  0
 28 73  1  0
 29 74  1  0
 29 75  1  0
 31 76  1  0
 32 77  1  0
 33 78  1  0
 34 79  1  0
 35 80  1  0
M  CHG  1  26   1
M  END
>  <score>  (6) 
-10.75

$$$$
=
     RDKit          3D

 80 82  0  0  0  0  0  0  0  0999 V2000
    1.5190   67.1780   69.8800 O   0  0  0  0  0  0  0  0  0  0  0  0
    0.8460   66.1660   69.7220 C   0  0  0  0  0  0  0  0  0  0  0  0
   -0.2720   66.1110   68.9270 N   0  0  0  0  0  0  0  0  0  0  0  0
    1.1680   64.9270   70.4680 C   0  0  0  0  0  0  0  0  0  0  0  0
    0.3710   63.8480   70.5060 C   0  0  0  0  0  0  0  0  0  0  0  0
    0.7230   62.6160   71.2290 C   0  0  0  0  0  0  0  0  0  0  0  0
    1.9550   62.0070   70.9660 C   0  0  0  0  0  0  0  0  0  0  0  0
    2.3700   60.8300   71.6210 C   0  0  0  0  0  0  0  0  0  0  0  0
    1.4940   60.3260   72.6140 C   0  0  0  0  0  0  0  0  0  0  0  0
    0.2330   60.9030   72.9120 C   0  0  0  0  0  0  0  0  0  0  0  0
   -0.1170   62.0630   72.1990 C   0  0  0  0  0  0  0  0  0  0  0  0
   -0.7230   60.3120   73.9800 C   0  0  0  0  0  0  0  0  0  0  0  0
   -0.8120   58.7620   73.9480 C   0  0  0  0  0  0  0  0  0  0  0  0
   -0.2410   60.6750   75.4030 C   0  0  0  0  0  0  0  0  0  0  0  0
   -2.1630   60.8270   73.7610 C   0  0  0  0  0  0  0  0  0  0  0  0
    3.7160   60.1660   71.2280 C   0  0  0  0  0  0  0  0  0  0  0  0
    4.8180   60.3830   72.2920 C   0  0  0  0  0  0  0  0  0  0  0  0
    4.1820   60.7230   69.8670 C   0  0  0  0  0  0  0  0  0  0  0  0
    3.6110   58.6230   71.0670 C   0  0  0  0  0  0  0  0  0  0  0  0
    1.8540   59.2340   73.3550 O   0  0  0  0  0  0  0  0  0  0  0  0
   -0.7160   67.2810   68.2040 C   0  0  0  0  0  0  0  0  0  0  0  0
   -0.6280   67.0820   66.6880 C   0  0  0  0  0  0  0  0  0  0  0  0
    0.7120   67.5580   66.1010 C   0  0  0  0  0  0  0  0  0  0  0  0
    0.6210   69.0090   65.6220 C   0  0  0  0  0  0  0  0  0  0  0  0
    1.9790   69.5570   65.1870 C   0  0  0  0  0  0  0  0  0  0  0  0
    2.8300   68.5120   64.5000 N   0  0  0  0  0  4  0  0  0  0  0  0
    2.0170   67.3960   63.9000 C   0  0  0  0  0  0  0  0  0  0  0  0
    1.2200   66.6510   64.9670 C   0  0  0  0  0  0  0  0  0  0  0  0
    4.0110   68.0570   65.3410 C   0  0  0  0  0  0  0  0  0  0  0  0
    4.5570   69.1380   66.2340 C   0  0  0  0  0  0  0  0  0  0  0  0
    5.7760   69.7640   65.9320 C   0  0  0  0  0  0  0  0  0  0  0  0
    6.2930   70.7480   66.7770 C   0  0  0  0  0  0  0  0  0  0  0  0
    5.5990   71.1140   67.9280 C   0  0  0  0  0  0  0  0  0  0  0  0
    4.3850   70.5030   68.2340 C   0  0  0  0  0  0  0  0  0  0  0  0
    3.8640   69.5210   67.3920 C   0  0  0  0  0  0  0  0  0  0  0  0
   -0.7982   65.2294   68.8452 H   0  0  0  0  0  0  0  0  0  0  0  0
    2.1166   64.8894   71.0236 H   0  0  0  0  0  0  0  0  0  0  0  0
   -0.5899   63.8865   69.9719 H   0  0  0  0  0  0  0  0  0  0  0  0
    2.6237   62.4632   70.2212 H   0  0  0  0  0  0  0  0  0  0  0  0
   -1.0805   62.5496   72.4110 H   0  0  0  0  0  0  0  0  0  0  0  0
   -0.8342   58.3747   74.9773 H   0  0  0  0  0  0  0  0  0  0  0  0
   -1.7291   58.4582   73.4220 H   0  0  0  0  0  0  0  0  0  0  0  0
    0.0643   58.3552   73.4220 H   0  0  0  0  0  0  0  0  0  0  0  0
   -0.8894   60.1867   76.1454 H   0  0  0  0  0  0  0  0  0  0  0  0
    0.7950   60.3309   75.5381 H   0  0  0  0  0  0  0  0  0  0  0  0
   -0.2856   61.7658   75.5381 H   0  0  0  0  0  0  0  0  0  0  0  0
   -2.6432   60.9987   74.7356 H   0  0  0  0  0  0  0  0  0  0  0  0
   -2.1331   61.7702   73.1957 H   0  0  0  0  0  0  0  0  0  0  0  0
   -2.7380   60.0788   73.1957 H   0  0  0  0  0  0  0  0  0  0  0  0
    4.3794   60.2966   73.2971 H   0  0  0  0  0  0  0  0  0  0  0  0
    5.6026   59.6221   72.1677 H   0  0  0  0  0  0  0  0  0  0  0  0
    5.2555   61.3846   72.1677 H   0  0  0  0  0  0  0  0  0  0  0  0
    4.8799   61.5572   70.0317 H   0  0  0  0  0  0  0  0  0  0  0  0
    4.6881   59.9282   69.2994 H   0  0  0  0  0  0  0  0  0  0  0  0
    3.3103   61.0808   69.2994 H   0  0  0  0  0  0  0  0  0  0  0  0
    3.5789   58.1520   72.0606 H   0  0  0  0  0  0  0  0  0  0  0  0
    2.6938   58.3737   70.5133 H   0  0  0  0  0  0  0  0  0  0  0  0
    4.4860   58.2517   70.5133 H   0  0  0  0  0  0  0  0  0  0  0  0
    1.2412   58.8826   74.0486 H   0  0  0  0  0  0  0  0  0  0  0  0
   -1.7611   67.4914   68.4751 H   0  0  0  0  0  0  0  0  0  0  0  0
   -0.0593   68.1203   68.4767 H   0  0  0  0  0  0  0  0  0  0  0  0
   -0.7481   66.0112   66.4665 H   0  0  0  0  0  0  0  0  0  0  0  0
   -1.4242   67.6857   66.2280 H   0  0  0  0  0  0  0  0  0  0  0  0
    1.4458   67.4982   66.9183 H   0  0  0  0  0  0  0  0  0  0  0  0
   -0.0711   69.0580   64.7684 H   0  0  0  0  0  0  0  0  0  0  0  0
    0.2622   69.6212   66.4625 H   0  0  0  0  0  0  0  0  0  0  0  0
    1.8159   70.3930   64.4909 H   0  0  0  0  0  0  0  0  0  0  0  0
    2.5139   69.8833   66.0911 H   0  0  0  0  0  0  0  0  0  0  0  0
    3.2630   68.9775   63.6896 H   0  0  0  0  0  0  0  0  0  0  0  0
    1.3192   67.8185   63.1621 H   0  0  0  0  0  0  0  0  0  0  0  0
    2.7062   66.6838   63.4228 H   0  0  0  0  0  0  0  0  0  0  0  0
    1.8653   65.8751   65.4047 H   0  0  0  0  0  0  0  0  0  0  0  0
    0.3342   66.2273   64.4712 H   0  0  0  0  0  0  0  0  0  0  0  0
    3.6877   67.2145   65.9701 H   0  0  0  0  0  0  0  0  0  0  0  0
    4.8147   67.7711   64.6465 H   0  0  0  0  0  0  0  0  0  0  0  0
    6.3275   69.4779   65.0243 H   0  0  0  0  0  0  0  0  0  0  0  0
    7.2490   71.2346   66.5336 H   0  0  0  0  0  0  0  0  0  0  0  0
    6.0097   71.8858   68.5956 H   0  0  0  0  0  0  0  0  0  0  0  0
    3.8364   70.7957   69.1414 H   0  0  0  0  0  0  0  0  0  0  0  0
    2.9038   69.0438   67.6374 H   0  0  0  0  0  0  0  0  0  0  0  0
  2  1  2  0
  3  2  1  0
  4  2  1  0
  5  4  2  0
  6  5  1  0
  7  6  2  0
  8  7  1  0
  9  8  2  0
 10  9  1  0
 11 10  2  0
 11  6  1  0
 12 10  1  0
 13 12  1  0
 14 12  1  0
 15 12  1  0
 16  8  1  0
 17 16  1  0
 18 16  1  0
 19 16  1  0
 20  9  1  0
 21  3  1  0
 22 21  1  0
 23 22  1  0
 24 23  1  0
 25 24  1  0
 26 25  1  0
 27 26  1  0
 28 23  1  0
 28 27  1  0
 29 26  1  0
 30 29  1  0
 31 30  2  0
 32 31  1  0
 33 32  2  0
 34 33  1  0
 35 30  1  0
 35 34  2  0
  3 36  1  0
  4 37  1  0
  5 38  1  0
  7 39  1  0
 11 40  1  0
 13 41  1  0
 13 42  1  0
 13 43  1  0
 14 44  1  0
 14 45  1  0
 14 46  1  0
 15 47  1  0
 15 48  1  0
 15 49  1  0
 17 50  1  0
 17 51  1  0
 17 52  1  0
 18 53  1  0
 18 54  1  0
 18 55  1  0
 19 56  1  0
 19 57  1  0
 19 58  1  0
 20 59  1  0
 21 60  1  0
 21 61  1  0
 22 62  1  0
 22 63  1  0
 23 64  1  0
 24 65  1  0
 24 66  1  0
 25 67  1  0
 25 68  1  0
 26 69  1  0
 27 70  1  0
 27 71  1  0
 28 72  1  0
 28 73  1  0
 29 74  1  0
 29 75  1  0
 31 76  1  0
 32 77  1  0
 33 78  1  0
 34 79  1  0
 35 80  1  0
M  CHG  1  26   1
M  END
>  <score>  (7) 
-10.746

$$$$
=
     RDKit          3D

 80 82  0  0  0  0  0  0  0  0999 V2000
   -0.0400   65.1320   72.7280 O   0  0  0  0  0  0  0  0  0  0  0  0
    0.2580   63.9670   72.4900 C   0  0  0  0  0  0  0  0  0  0  0  0
    1.1110   63.5900   71.4820 N   0  0  0  0  0  0  0  0  0  0  0  0
   -0.3700   62.8620   73.2510 C   0  0  0  0  0  0  0  0  0  0  0  0
   -0.7930   61.7160   72.6950 C   0  0  0  0  0  0  0  0  0  0  0  0
   -1.3870   60.6180   73.4730 C   0  0  0  0  0  0  0  0  0  0  0  0
   -0.6380   59.4540   73.6780 C   0  0  0  0  0  0  0  0  0  0  0  0
   -1.1310   58.3600   74.4170 C   0  0  0  0  0  0  0  0  0  0  0  0
   -2.4120   58.5260   75.0000 C   0  0  0  0  0  0  0  0  0  0  0  0
   -3.2120   59.6830   74.8150 C   0  0  0  0  0  0  0  0  0  0  0  0
   -2.6570   60.7210   74.0460 C   0  0  0  0  0  0  0  0  0  0  0  0
   -4.6260   59.8260   75.4360 C   0  0  0  0  0  0  0  0  0  0  0  0
   -5.3000   61.1930   75.1430 C   0  0  0  0  0  0  0  0  0  0  0  0
   -5.5820   58.7550   74.8650 C   0  0  0  0  0  0  0  0  0  0  0  0
   -4.5550   59.7070   76.9750 C   0  0  0  0  0  0  0  0  0  0  0  0
   -0.2770   57.0710   74.5450 C   0  0  0  0  0  0  0  0  0  0  0  0
   -1.1340   55.7840   74.5090 C   0  0  0  0  0  0  0  0  0  0  0  0
    0.5360   57.1250   75.8550 C   0  0  0  0  0  0  0  0  0  0  0  0
    0.7500   56.9030   73.3900 C   0  0  0  0  0  0  0  0  0  0  0  0
   -2.9330   57.5470   75.8010 O   0  0  0  0  0  0  0  0  0  0  0  0
    1.7280   64.5830   70.6340 C   0  0  0  0  0  0  0  0  0  0  0  0
    3.1560   64.1900   70.2420 C   0  0  0  0  0  0  0  0  0  0  0  0
    3.4600   62.7050   70.5050 C   0  0  0  0  0  0  0  0  0  0  0  0
    4.8780   62.5190   71.0480 C   0  0  0  0  0  0  0  0  0  0  0  0
    5.1470   61.0760   71.4720 C   0  0  0  0  0  0  0  0  0  0  0  0
    4.4720   60.0730   70.5620 N   0  0  0  0  0  4  0  0  0  0  0  0
    4.1840   60.6250   69.1910 C   0  0  0  0  0  0  0  0  0  0  0  0
    3.2430   61.8250   69.2620 C   0  0  0  0  0  0  0  0  0  0  0  0
    3.3020   59.3620   71.2200 C   0  0  0  0  0  0  0  0  0  0  0  0
    3.2300   59.5870   72.7060 C   0  0  0  0  0  0  0  0  0  0  0  0
    3.8280   58.6810   73.5950 C   0  0  0  0  0  0  0  0  0  0  0  0
    3.7360   58.8780   74.9740 C   0  0  0  0  0  0  0  0  0  0  0  0
    3.0480   59.9800   75.4770 C   0  0  0  0  0  0  0  0  0  0  0  0
    2.4560   60.8900   74.6040 C   0  0  0  0  0  0  0  0  0  0  0  0
    2.5460   60.6970   73.2260 C   0  0  0  0  0  0  0  0  0  0  0  0
    1.3123   62.5914   71.3296 H   0  0  0  0  0  0  0  0  0  0  0  0
   -0.4972   62.9882   74.3363 H   0  0  0  0  0  0  0  0  0  0  0  0
   -0.6907   61.5921   71.6068 H   0  0  0  0  0  0  0  0  0  0  0  0
    0.3720   59.3906   73.2468 H   0  0  0  0  0  0  0  0  0  0  0  0
   -3.2397   61.6410   73.8910 H   0  0  0  0  0  0  0  0  0  0  0  0
   -5.5458   61.6916   76.0922 H   0  0  0  0  0  0  0  0  0  0  0  0
   -4.6104   61.8253   74.5646 H   0  0  0  0  0  0  0  0  0  0  0  0
   -6.2215   61.0310   74.5646 H   0  0  0  0  0  0  0  0  0  0  0  0
   -6.0641   58.2149   75.6932 H   0  0  0  0  0  0  0  0  0  0  0  0
   -6.3513   59.2419   74.2477 H   0  0  0  0  0  0  0  0  0  0  0  0
   -5.0112   58.0457   74.2477 H   0  0  0  0  0  0  0  0  0  0  0  0
   -5.0674   60.5658   77.4332 H   0  0  0  0  0  0  0  0  0  0  0  0
   -5.0448   58.7751   77.2937 H   0  0  0  0  0  0  0  0  0  0  0  0
   -3.5022   59.6954   77.2937 H   0  0  0  0  0  0  0  0  0  0  0  0
   -1.3505   55.4588   75.5373 H   0  0  0  0  0  0  0  0  0  0  0  0
   -2.0781   55.9867   73.9821 H   0  0  0  0  0  0  0  0  0  0  0  0
   -0.5829   54.9911   73.9821 H   0  0  0  0  0  0  0  0  0  0  0  0
   -0.1495   57.0795   76.7141 H   0  0  0  0  0  0  0  0  0  0  0  0
    1.2281   56.2708   75.8925 H   0  0  0  0  0  0  0  0  0  0  0  0
    1.1091   58.0632   75.8925 H   0  0  0  0  0  0  0  0  0  0  0  0
    1.7526   56.7390   73.8118 H   0  0  0  0  0  0  0  0  0  0  0  0
    0.4670   56.0392   72.7705 H   0  0  0  0  0  0  0  0  0  0  0  0
    0.7570   57.8119   72.7705 H   0  0  0  0  0  0  0  0  0  0  0  0
   -3.8280   57.6643   76.2076 H   0  0  0  0  0  0  0  0  0  0  0  0
    1.1259   64.6942   69.7201 H   0  0  0  0  0  0  0  0  0  0  0  0
    1.7756   65.5284   71.1942 H   0  0  0  0  0  0  0  0  0  0  0  0
    3.2942   64.3923   69.1696 H   0  0  0  0  0  0  0  0  0  0  0  0
    3.8444   64.7834   70.8617 H   0  0  0  0  0  0  0  0  0  0  0  0
    2.7407   62.3728   71.2680 H   0  0  0  0  0  0  0  0  0  0  0  0
    5.5974   62.7982   70.2641 H   0  0  0  0  0  0  0  0  0  0  0  0
    4.9870   63.1587   71.9362 H   0  0  0  0  0  0  0  0  0  0  0  0
    6.2323   60.8979   71.4510 H   0  0  0  0  0  0  0  0  0  0  0  0
    4.7364   60.9411   72.4836 H   0  0  0  0  0  0  0  0  0  0  0  0
    5.1596   59.3242   70.3965 H   0  0  0  0  0  0  0  0  0  0  0  0
    5.1299   60.9386   68.7251 H   0  0  0  0  0  0  0  0  0  0  0  0
    3.6984   59.8381   68.5951 H   0  0  0  0  0  0  0  0  0  0  0  0
    2.2073   61.4545   69.2747 H   0  0  0  0  0  0  0  0  0  0  0  0
    3.4524   62.4517   68.3825 H   0  0  0  0  0  0  0  0  0  0  0  0
    2.3699   59.7288   70.7655 H   0  0  0  0  0  0  0  0  0  0  0  0
    3.4438   58.2830   71.0598 H   0  0  0  0  0  0  0  0  0  0  0  0
    4.3729   57.8097   73.2027 H   0  0  0  0  0  0  0  0  0  0  0  0
    4.2071   58.1625   75.6640 H   0  0  0  0  0  0  0  0  0  0  0  0
    2.9722   60.1316   76.5639 H   0  0  0  0  0  0  0  0  0  0  0  0
    1.9168   61.7621   75.0023 H   0  0  0  0  0  0  0  0  0  0  0  0
    2.0777   61.4197   72.5416 H   0  0  0  0  0  0  0  0  0  0  0  0
  2  1  2  0
  3  2  1  0
  4  2  1  0
  5  4  2  0
  6  5  1  0
  7  6  2  0
  8  7  1  0
  9  8  2  0
 10  9  1  0
 11 10  2  0
 11  6  1  0
 12 10  1  0
 13 12  1  0
 14 12  1  0
 15 12  1  0
 16  8  1  0
 17 16  1  0
 18 16  1  0
 19 16  1  0
 20  9  1  0
 21  3  1  0
 22 21  1  0
 23 22  1  0
 24 23  1  0
 25 24  1  0
 26 25  1  0
 27 26  1  0
 28 23  1  0
 28 27  1  0
 29 26  1  0
 30 29  1  0
 31 30  2  0
 32 31  1  0
 33 32  2  0
 34 33  1  0
 35 30  1  0
 35 34  2  0
  3 36  1  0
  4 37  1  0
  5 38  1  0
  7 39  1  0
 11 40  1  0
 13 41  1  0
 13 42  1  0
 13 43  1  0
 14 44  1  0
 14 45  1  0
 14 46  1  0
 15 47  1  0
 15 48  1  0
 15 49  1  0
 17 50  1  0
 17 51  1  0
 17 52  1  0
 18 53  1  0
 18 54  1  0
 18 55  1  0
 19 56  1  0
 19 57  1  0
 19 58  1  0
 20 59  1  0
 21 60  1  0
 21 61  1  0
 22 62  1  0
 22 63  1  0
 23 64  1  0
 24 65  1  0
 24 66  1  0
 25 67  1  0
 25 68  1  0
 26 69  1  0
 27 70  1  0
 27 71  1  0
 28 72  1  0
 28 73  1  0
 29 74  1  0
 29 75  1  0
 31 76  1  0
 32 77  1  0
 33 78  1  0
 34 79  1  0
 35 80  1  0
M  CHG  1  26   1
M  END
>  <score>  (8) 
-10.589

$$$$
=
     RDKit          3D

 80 82  0  0  0  0  0  0  0  0999 V2000
   -0.0670   65.1260   72.7890 O   0  0  0  0  0  0  0  0  0  0  0  0
    0.1980   63.9670   72.4920 C   0  0  0  0  0  0  0  0  0  0  0  0
    0.9740   63.6160   71.4140 N   0  0  0  0  0  0  0  0  0  0  0  0
   -0.3900   62.8430   73.2560 C   0  0  0  0  0  0  0  0  0  0  0  0
   -0.6920   61.6500   72.7200 C   0  0  0  0  0  0  0  0  0  0  0  0
   -1.2490   60.5360   73.5030 C   0  0  0  0  0  0  0  0  0  0  0  0
   -2.5360   60.6640   74.0370 C   0  0  0  0  0  0  0  0  0  0  0  0
   -3.1440   59.6410   74.7920 C   0  0  0  0  0  0  0  0  0  0  0  0
   -2.4020   58.4420   74.9320 C   0  0  0  0  0  0  0  0  0  0  0  0
   -1.0930   58.2670   74.4150 C   0  0  0  0  0  0  0  0  0  0  0  0
   -0.5480   59.3430   73.6920 C   0  0  0  0  0  0  0  0  0  0  0  0
   -0.2880   56.9560   74.6100 C   0  0  0  0  0  0  0  0  0  0  0  0
   -1.1680   55.6770   74.5980 C   0  0  0  0  0  0  0  0  0  0  0  0
    0.7380   56.7710   73.4690 C   0  0  0  0  0  0  0  0  0  0  0  0
    0.4340   56.9630   75.9760 C   0  0  0  0  0  0  0  0  0  0  0  0
   -4.5450   59.8760   75.4170 C   0  0  0  0  0  0  0  0  0  0  0  0
   -5.6220   58.9290   74.8360 C   0  0  0  0  0  0  0  0  0  0  0  0
   -4.9620   61.3450   75.1960 C   0  0  0  0  0  0  0  0  0  0  0  0
   -4.5770   59.6290   76.9520 C   0  0  0  0  0  0  0  0  0  0  0  0
   -2.9500   57.3690   75.5790 O   0  0  0  0  0  0  0  0  0  0  0  0
    1.5450   64.6310   70.5590 C   0  0  0  0  0  0  0  0  0  0  0  0
    2.9260   64.2250   70.0360 C   0  0  0  0  0  0  0  0  0  0  0  0
    3.2940   62.7730   70.3860 C   0  0  0  0  0  0  0  0  0  0  0  0
    4.6960   62.6890   70.9940 C   0  0  0  0  0  0  0  0  0  0  0  0
    5.0200   61.2850   71.5010 C   0  0  0  0  0  0  0  0  0  0  0  0
    4.4360   60.2040   70.6180 N   0  0  0  0  0  4  0  0  0  0  0  0
    4.1780   60.6730   69.2110 C   0  0  0  0  0  0  0  0  0  0  0  0
    3.1750   61.8230   69.1820 C   0  0  0  0  0  0  0  0  0  0  0  0
    3.2770   59.4650   71.2650 C   0  0  0  0  0  0  0  0  0  0  0  0
    3.2240   59.6350   72.7590 C   0  0  0  0  0  0  0  0  0  0  0  0
    3.7750   58.6610   73.6070 C   0  0  0  0  0  0  0  0  0  0  0  0
    3.7010   58.8080   74.9930 C   0  0  0  0  0  0  0  0  0  0  0  0
    3.0780   59.9250   75.5440 C   0  0  0  0  0  0  0  0  0  0  0  0
    2.5340   60.9010   74.7130 C   0  0  0  0  0  0  0  0  0  0  0  0
    2.6070   60.7590   73.3270 C   0  0  0  0  0  0  0  0  0  0  0  0
    1.1501   62.6211   71.2137 H   0  0  0  0  0  0  0  0  0  0  0  0
   -0.5913   62.9948   74.3267 H   0  0  0  0  0  0  0  0  0  0  0  0
   -0.5147   61.4982   71.6450 H   0  0  0  0  0  0  0  0  0  0  0  0
   -3.0930   61.5962   73.8613 H   0  0  0  0  0  0  0  0  0  0  0  0
    0.4598   59.2421   73.2628 H   0  0  0  0  0  0  0  0  0  0  0  0
   -1.3804   55.3683   75.6322 H   0  0  0  0  0  0  0  0  0  0  0  0
   -2.1135   55.8873   74.0766 H   0  0  0  0  0  0  0  0  0  0  0  0
   -0.6336   54.8691   74.0766 H   0  0  0  0  0  0  0  0  0  0  0  0
    1.7349   56.5913   73.8979 H   0  0  0  0  0  0  0  0  0  0  0  0
    0.4453   55.9111   72.8485 H   0  0  0  0  0  0  0  0  0  0  0  0
    0.7640   57.6789   72.8485 H   0  0  0  0  0  0  0  0  0  0  0  0
   -0.3115   56.9558   76.7848 H   0  0  0  0  0  0  0  0  0  0  0  0
    1.0725   56.0710   76.0578 H   0  0  0  0  0  0  0  0  0  0  0  0
    1.0551   57.8672   76.0578 H   0  0  0  0  0  0  0  0  0  0  0  0
   -6.1696   58.4475   75.6595 H   0  0  0  0  0  0  0  0  0  0  0  0
   -6.3241   59.5076   74.2177 H   0  0  0  0  0  0  0  0  0  0  0  0
   -5.1379   58.1587   74.2177 H   0  0  0  0  0  0  0  0  0  0  0  0
   -5.1017   61.8370   76.1699 H   0  0  0  0  0  0  0  0  0  0  0  0
   -4.1768   61.8679   74.6303 H   0  0  0  0  0  0  0  0  0  0  0  0
   -5.9048   61.3774   74.6303 H   0  0  0  0  0  0  0  0  0  0  0  0
   -4.4530   60.5860   77.4800 H   0  0  0  0  0  0  0  0  0  0  0  0
   -5.5410   59.1785   77.2309 H   0  0  0  0  0  0  0  0  0  0  0  0
   -3.7596   58.9478   77.2309 H   0  0  0  0  0  0  0  0  0  0  0  0
   -2.4309   56.5317   75.6764 H   0  0  0  0  0  0  0  0  0  0  0  0
    0.8739   64.7937   69.7027 H   0  0  0  0  0  0  0  0  0  0  0  0
    1.6612   65.5505   71.1514 H   0  0  0  0  0  0  0  0  0  0  0  0
    2.9334   64.3352   68.9416 H   0  0  0  0  0  0  0  0  0  0  0  0
    3.6675   64.8794   70.5176 H   0  0  0  0  0  0  0  0  0  0  0  0
    2.5608   62.4410   71.1357 H   0  0  0  0  0  0  0  0  0  0  0  0
    5.4327   62.9675   70.2261 H   0  0  0  0  0  0  0  0  0  0  0  0
    4.7344   63.3760   71.8522 H   0  0  0  0  0  0  0  0  0  0  0  0
    6.1129   61.1639   71.5317 H   0  0  0  0  0  0  0  0  0  0  0  0
    4.5744   61.1784   72.5010 H   0  0  0  0  0  0  0  0  0  0  0  0
    5.1667   59.4849   70.5183 H   0  0  0  0  0  0  0  0  0  0  0  0
    5.1255   61.0134   68.7679 H   0  0  0  0  0  0  0  0  0  0  0  0
    3.7582   59.8332   68.6378 H   0  0  0  0  0  0  0  0  0  0  0  0
    2.1599   61.3992   69.1721 H   0  0  0  0  0  0  0  0  0  0  0  0
    3.3891   62.4157   68.2804 H   0  0  0  0  0  0  0  0  0  0  0  0
    2.3377   59.8448   70.8366 H   0  0  0  0  0  0  0  0  0  0  0  0
    3.4202   58.3931   71.0634 H   0  0  0  0  0  0  0  0  0  0  0  0
    4.2679   57.7769   73.1765 H   0  0  0  0  0  0  0  0  0  0  0  0
    4.1352   58.0407   75.6508 H   0  0  0  0  0  0  0  0  0  0  0  0
    3.0156   60.0364   76.6366 H   0  0  0  0  0  0  0  0  0  0  0  0
    2.0462   61.7849   75.1498 H   0  0  0  0  0  0  0  0  0  0  0  0
    2.1776   61.5341   72.6752 H   0  0  0  0  0  0  0  0  0  0  0  0
  2  1  2  0
  3  2  1  0
  4  2  1  0
  5  4  2  0
  6  5  1  0
  7  6  2  0
  8  7  1  0
  9  8  2  0
 10  9  1  0
 11 10  2  0
 11  6  1  0
 12 10  1  0
 13 12  1  0
 14 12  1  0
 15 12  1  0
 16  8  1  0
 17 16  1  0
 18 16  1  0
 19 16  1  0
 20  9  1  0
 21  3  1  0
 22 21  1  0
 23 22  1  0
 24 23  1  0
 25 24  1  0
 26 25  1  0
 27 26  1  0
 28 23  1  0
 28 27  1  0
 29 26  1  0
 30 29  1  0
 31 30  2  0
 32 31  1  0
 33 32  2  0
 34 33  1  0
 35 30  1  0
 35 34  2  0
  3 36  1  0
  4 37  1  0
  5 38  1  0
  7 39  1  0
 11 40  1  0
 13 41  1  0
 13 42  1  0
 13 43  1  0
 14 44  1  0
 14 45  1  0
 14 46  1  0
 15 47  1  0
 15 48  1  0
 15 49  1  0
 17 50  1  0
 17 51  1  0
 17 52  1  0
 18 53  1  0
 18 54  1  0
 18 55  1  0
 19 56  1  0
 19 57  1  0
 19 58  1  0
 20 59  1  0
 21 60  1  0
 21 61  1  0
 22 62  1  0
 22 63  1  0
 23 64  1  0
 24 65  1  0
 24 66  1  0
 25 67  1  0
 25 68  1  0
 26 69  1  0
 27 70  1  0
 27 71  1  0
 28 72  1  0
 28 73  1  0
 29 74  1  0
 29 75  1  0
 31 76  1  0
 32 77  1  0
 33 78  1  0
 34 79  1  0
 35 80  1  0
M  CHG  1  26   1
M  END
>  <score>  (9) 
-10.504

$$$$
