=
     RDKit          3D

 31 33  0  0  0  0  0  0  0  0999 V2000
    1.3380   68.3030   65.3540 N   0  0  0  0  0  0  0  0  0  0  0  0
    2.0890   68.4520   64.1740 C   0  0  0  0  0  0  0  0  0  0  0  0
    3.4600   68.3930   64.0070 C   0  0  0  0  0  0  0  0  0  0  0  0
    3.9710   68.5760   62.7150 C   0  0  0  0  0  0  0  0  0  0  0  0
    3.1160   68.8130   61.6210 C   0  0  0  0  0  0  0  0  0  0  0  0
    1.7330   68.8710   61.7970 C   0  0  0  0  0  0  0  0  0  0  0  0
    1.2580   68.6870   63.0810 C   0  0  0  0  0  0  0  0  0  0  0  0
   -0.1180   68.6990   63.5760 C   0  0  0  0  0  0  0  0  0  0  0  0
   -1.1260   68.8660   62.9280 O   0  0  0  0  0  0  0  0  0  0  0  0
   -0.0130   68.4590   65.1020 C   0  0  0  0  0  0  0  0  0  0  0  0
   -0.9480   68.4320   65.8730 O   0  0  0  0  0  0  0  0  0  0  0  0
    1.8840   68.1270   66.6680 C   0  0  0  0  0  0  0  0  0  0  0  0
    2.0360   69.4430   67.2560 N   0  0  0  0  0  0  0  0  0  0  0  0
    7.5180   71.0780   69.3800 Br  0  0  0  0  0  0  0  0  0  0  0  0
    5.8260   70.5840   68.7000 C   0  0  0  0  0  0  0  0  0  0  0  0
    5.7000   70.1870   67.3740 C   0  0  0  0  0  0  0  0  0  0  0  0
    4.4460   69.8170   66.8720 C   0  0  0  0  0  0  0  0  0  0  0  0
    3.3000   69.8690   67.6750 C   0  0  0  0  0  0  0  0  0  0  0  0
    3.4640   70.2360   69.0200 C   0  0  0  0  0  0  0  0  0  0  0  0
    4.7120   70.6050   69.5310 C   0  0  0  0  0  0  0  0  0  0  0  0
    4.1284   68.2083   64.8609 H   0  0  0  0  0  0  0  0  0  0  0  0
    5.0581   68.5339   62.5525 H   0  0  0  0  0  0  0  0  0  0  0  0
    3.5431   68.9539   60.6171 H   0  0  0  0  0  0  0  0  0  0  0  0
    1.0526   69.0547   60.9525 H   0  0  0  0  0  0  0  0  0  0  0  0
    1.2017   67.5187   67.2799 H   0  0  0  0  0  0  0  0  0  0  0  0
    2.8537   67.6101   66.6188 H   0  0  0  0  0  0  0  0  0  0  0  0
    1.2185   70.0601   67.3644 H   0  0  0  0  0  0  0  0  0  0  0  0
    6.5840   70.1634   66.7198 H   0  0  0  0  0  0  0  0  0  0  0  0
    4.3598   69.4796   65.8286 H   0  0  0  0  0  0  0  0  0  0  0  0
    2.5899   70.2332   69.6878 H   0  0  0  0  0  0  0  0  0  0  0  0
    4.8116   70.9098   70.5832 H   0  0  0  0  0  0  0  0  0  0  0  0
  2  1  1  0
  3  2  2  0
  4  3  1  0
  5  4  2  0
  6  5  1  0
  7  6  2  0
  7  2  1  0
  8  7  1  0
  9  8  2  0
 10  8  1  0
 10  1  1  0
 11 10  2  0
 12  1  1  0
 13 12  1  0
 15 14  1  0
 16 15  2  0
 17 16  1  0
 18 17  2  0
 18 13  1  0
 19 18  1  0
 20 19  2  0
 20 15  1  0
  3 21  1  0
  4 22  1  0
  5 23  1  0
  6 24  1  0
 12 25  1  0
 12 26  1  0
 13 27  1  0
 16 28  1  0
 17 29  1  0
 19 30  1  0
 20 31  1  0
M  END
>  <score>  (1) 
-10.176

$$$$
=
     RDKit          3D

 31 33  0  0  0  0  0  0  0  0999 V2000
    1.4590   68.1990   65.6870 N   0  0  0  0  0  0  0  0  0  0  0  0
    0.6520   67.7390   66.7420 C   0  0  0  0  0  0  0  0  0  0  0  0
    1.0370   67.1860   67.9500 C   0  0  0  0  0  0  0  0  0  0  0  0
    0.0300   66.8020   68.8450 C   0  0  0  0  0  0  0  0  0  0  0  0
   -1.3320   66.9740   68.5270 C   0  0  0  0  0  0  0  0  0  0  0  0
   -1.7120   67.5330   67.3070 C   0  0  0  0  0  0  0  0  0  0  0  0
   -0.6990   67.9010   66.4440 C   0  0  0  0  0  0  0  0  0  0  0  0
   -0.7810   68.4960   65.1110 C   0  0  0  0  0  0  0  0  0  0  0  0
   -1.7850   68.7960   64.5050 O   0  0  0  0  0  0  0  0  0  0  0  0
    0.6850   68.6580   64.6370 C   0  0  0  0  0  0  0  0  0  0  0  0
    1.0280   69.0920   63.5580 O   0  0  0  0  0  0  0  0  0  0  0  0
    2.8890   68.1090   65.6360 C   0  0  0  0  0  0  0  0  0  0  0  0
    3.4120   69.4600   65.7020 N   0  0  0  0  0  0  0  0  0  0  0  0
    7.7630   71.0910   69.6590 Br  0  0  0  0  0  0  0  0  0  0  0  0
    6.4030   70.5730   68.4530 C   0  0  0  0  0  0  0  0  0  0  0  0
    5.0730   70.6010   68.8540 C   0  0  0  0  0  0  0  0  0  0  0  0
    4.0650   70.2200   67.9580 C   0  0  0  0  0  0  0  0  0  0  0  0
    4.3740   69.7800   66.6660 C   0  0  0  0  0  0  0  0  0  0  0  0
    5.7220   69.8010   66.2750 C   0  0  0  0  0  0  0  0  0  0  0  0
    6.7350   70.1800   67.1610 C   0  0  0  0  0  0  0  0  0  0  0  0
    2.0998   67.0520   68.1999 H   0  0  0  0  0  0  0  0  0  0  0  0
    0.3073   66.3586   69.8127 H   0  0  0  0  0  0  0  0  0  0  0  0
   -2.1030   66.6644   69.2479 H   0  0  0  0  0  0  0  0  0  0  0  0
   -2.7708   67.6743   67.0443 H   0  0  0  0  0  0  0  0  0  0  0  0
    3.2592   67.5206   66.4885 H   0  0  0  0  0  0  0  0  0  0  0  0
    3.2137   67.6120   64.7100 H   0  0  0  0  0  0  0  0  0  0  0  0
    3.0777   70.1785   65.0441 H   0  0  0  0  0  0  0  0  0  0  0  0
    4.8116   70.9217   69.8732 H   0  0  0  0  0  0  0  0  0  0  0  0
    3.0130   70.2676   68.2757 H   0  0  0  0  0  0  0  0  0  0  0  0
    5.9876   69.5125   65.2473 H   0  0  0  0  0  0  0  0  0  0  0  0
    7.7866   70.1674   66.8386 H   0  0  0  0  0  0  0  0  0  0  0  0
  2  1  1  0
  3  2  2  0
  4  3  1  0
  5  4  2  0
  6  5  1  0
  7  6  2  0
  7  2  1  0
  8  7  1  0
  9  8  2  0
 10  8  1  0
 10  1  1  0
 11 10  2  0
 12  1  1  0
 13 12  1  0
 15 14  1  0
 16 15  2  0
 17 16  1  0
 18 17  2  0
 18 13  1  0
 19 18  1  0
 20 19  2  0
 20 15  1  0
  3 21  1  0
  4 22  1  0
  5 23  1  0
  6 24  1  0
 12 25  1  0
 12 26  1  0
 13 27  1  0
 16 28  1  0
 17 29  1  0
 19 30  1  0
 20 31  1  0
M  END
>  <score>  (2) 
-9.524

$$$$
=
     RDKit          3D

 31 33  0  0  0  0  0  0  0  0999 V2000
    3.1620   68.4870   63.7410 N   0  0  0  0  0  0  0  0  0  0  0  0
    1.8280   68.7550   63.3850 C   0  0  0  0  0  0  0  0  0  0  0  0
    0.7060   68.7870   64.1920 C   0  0  0  0  0  0  0  0  0  0  0  0
   -0.5250   69.0830   63.5910 C   0  0  0  0  0  0  0  0  0  0  0  0
   -0.6180   69.3380   62.2090 C   0  0  0  0  0  0  0  0  0  0  0  0
    0.5190   69.3030   61.4010 C   0  0  0  0  0  0  0  0  0  0  0  0
    1.7180   69.0100   62.0200 C   0  0  0  0  0  0  0  0  0  0  0  0
    3.0580   68.8950   61.4470 C   0  0  0  0  0  0  0  0  0  0  0  0
    3.3740   69.0530   60.2900 O   0  0  0  0  0  0  0  0  0  0  0  0
    3.9860   68.5250   62.6310 C   0  0  0  0  0  0  0  0  0  0  0  0
    5.1770   68.3130   62.5470 O   0  0  0  0  0  0  0  0  0  0  0  0
    3.6130   68.1110   65.0490 C   0  0  0  0  0  0  0  0  0  0  0  0
    3.3690   69.2340   65.9320 N   0  0  0  0  0  0  0  0  0  0  0  0
    7.8380   71.2550   69.5630 Br  0  0  0  0  0  0  0  0  0  0  0  0
    6.4660   70.6420   68.4190 C   0  0  0  0  0  0  0  0  0  0  0  0
    6.7750   70.2070   67.1350 C   0  0  0  0  0  0  0  0  0  0  0  0
    5.7570   69.7500   66.2890 C   0  0  0  0  0  0  0  0  0  0  0  0
    4.4190   69.7480   66.7000 C   0  0  0  0  0  0  0  0  0  0  0  0
    4.1410   70.1540   68.0150 C   0  0  0  0  0  0  0  0  0  0  0  0
    5.1500   70.6120   68.8680 C   0  0  0  0  0  0  0  0  0  0  0  0
    0.7771   68.5866   65.2712 H   0  0  0  0  0  0  0  0  0  0  0  0
   -1.4342   69.1167   64.2093 H   0  0  0  0  0  0  0  0  0  0  0  0
   -1.5967   69.5670   61.7622 H   0  0  0  0  0  0  0  0  0  0  0  0
    0.4628   69.4998   60.3202 H   0  0  0  0  0  0  0  0  0  0  0  0
    3.0562   67.2294   65.3995 H   0  0  0  0  0  0  0  0  0  0  0  0
    4.6829   67.8560   65.0321 H   0  0  0  0  0  0  0  0  0  0  0  0
    2.4291   69.6507   65.9936 H   0  0  0  0  0  0  0  0  0  0  0  0
    7.8175   70.2218   66.7843 H   0  0  0  0  0  0  0  0  0  0  0  0
    6.0135   69.3860   65.2832 H   0  0  0  0  0  0  0  0  0  0  0  0
    3.1052   70.1108   68.3829 H   0  0  0  0  0  0  0  0  0  0  0  0
    4.9046   70.9462   69.8869 H   0  0  0  0  0  0  0  0  0  0  0  0
  2  1  1  0
  3  2  2  0
  4  3  1  0
  5  4  2  0
  6  5  1  0
  7  6  2  0
  7  2  1  0
  8  7  1  0
  9  8  2  0
 10  8  1  0
 10  1  1  0
 11 10  2  0
 12  1  1  0
 13 12  1  0
 15 14  1  0
 16 15  2  0
 17 16  1  0
 18 17  2  0
 18 13  1  0
 19 18  1  0
 20 19  2  0
 20 15  1  0
  3 21  1  0
  4 22  1  0
  5 23  1  0
  6 24  1  0
 12 25  1  0
 12 26  1  0
 13 27  1  0
 16 28  1  0
 17 29  1  0
 19 30  1  0
 20 31  1  0
M  END
>  <score>  (3) 
-9.471

$$$$
=
     RDKit          3D

 31 33  0  0  0  0  0  0  0  0999 V2000
    0.2670   68.2300   66.2280 N   0  0  0  0  0  0  0  0  0  0  0  0
    0.6050   68.4730   64.8850 C   0  0  0  0  0  0  0  0  0  0  0  0
    1.8490   68.4260   64.2820 C   0  0  0  0  0  0  0  0  0  0  0  0
    1.9240   68.7120   62.9120 C   0  0  0  0  0  0  0  0  0  0  0  0
    0.7720   69.0370   62.1720 C   0  0  0  0  0  0  0  0  0  0  0  0
   -0.4800   69.0820   62.7870 C   0  0  0  0  0  0  0  0  0  0  0  0
   -0.5250   68.7960   64.1370 C   0  0  0  0  0  0  0  0  0  0  0  0
   -1.6700   68.7700   65.0460 C   0  0  0  0  0  0  0  0  0  0  0  0
   -2.8270   68.9900   64.7710 O   0  0  0  0  0  0  0  0  0  0  0  0
   -1.0880   68.4060   66.4360 C   0  0  0  0  0  0  0  0  0  0  0  0
   -1.7290   68.3190   67.4610 O   0  0  0  0  0  0  0  0  0  0  0  0
    1.1990   67.9470   67.2800 C   0  0  0  0  0  0  0  0  0  0  0  0
    1.4300   69.1840   68.0000 N   0  0  0  0  0  0  0  0  0  0  0  0
    7.1250   71.3080   68.5540 Br  0  0  0  0  0  0  0  0  0  0  0  0
    5.3630   70.6420   68.4070 C   0  0  0  0  0  0  0  0  0  0  0  0
    4.4700   70.8040   69.4600 C   0  0  0  0  0  0  0  0  0  0  0  0
    3.1630   70.3120   69.3490 C   0  0  0  0  0  0  0  0  0  0  0  0
    2.7400   69.6300   68.2020 C   0  0  0  0  0  0  0  0  0  0  0  0
    3.6500   69.5170   67.1390 C   0  0  0  0  0  0  0  0  0  0  0  0
    4.9570   70.0050   67.2400 C   0  0  0  0  0  0  0  0  0  0  0  0
    2.7504   68.1723   64.8592 H   0  0  0  0  0  0  0  0  0  0  0  0
    2.9004   68.6819   62.4063 H   0  0  0  0  0  0  0  0  0  0  0  0
    0.8592   69.2578   61.0979 H   0  0  0  0  0  0  0  0  0  0  0  0
   -1.3895   69.3339   62.2219 H   0  0  0  0  0  0  0  0  0  0  0  0
    0.7807   67.1894   67.9590 H   0  0  0  0  0  0  0  0  0  0  0  0
    2.1412   67.5556   66.8688 H   0  0  0  0  0  0  0  0  0  0  0  0
    0.6348   69.7306   68.3603 H   0  0  0  0  0  0  0  0  0  0  0  0
    4.7891   71.3177   70.3789 H   0  0  0  0  0  0  0  0  0  0  0  0
    2.4564   70.4643   70.1781 H   0  0  0  0  0  0  0  0  0  0  0  0
    3.3277   69.0335   66.2050 H   0  0  0  0  0  0  0  0  0  0  0  0
    5.6589   69.8855   66.4015 H   0  0  0  0  0  0  0  0  0  0  0  0
  2  1  1  0
  3  2  2  0
  4  3  1  0
  5  4  2  0
  6  5  1  0
  7  6  2  0
  7  2  1  0
  8  7  1  0
  9  8  2  0
 10  8  1  0
 10  1  1  0
 11 10  2  0
 12  1  1  0
 13 12  1  0
 15 14  1  0
 16 15  2  0
 17 16  1  0
 18 17  2  0
 18 13  1  0
 19 18  1  0
 20 19  2  0
 20 15  1  0
  3 21  1  0
  4 22  1  0
  5 23  1  0
  6 24  1  0
 12 25  1  0
 12 26  1  0
 13 27  1  0
 16 28  1  0
 17 29  1  0
 19 30  1  0
 20 31  1  0
M  END
>  <score>  (4) 
-9.43

$$$$
=
     RDKit          3D

 31 33  0  0  0  0  0  0  0  0999 V2000
    2.7350   69.1260   66.2410 N   0  0  0  0  0  0  0  0  0  0  0  0
    4.0650   69.5410   66.4280 C   0  0  0  0  0  0  0  0  0  0  0  0
    5.1240   69.4840   65.5410 C   0  0  0  0  0  0  0  0  0  0  0  0
    6.3660   69.9680   65.9710 C   0  0  0  0  0  0  0  0  0  0  0  0
    6.5330   70.4970   67.2660 C   0  0  0  0  0  0  0  0  0  0  0  0
    5.4590   70.5520   68.1560 C   0  0  0  0  0  0  0  0  0  0  0  0
    4.2470   70.0680   67.7050 C   0  0  0  0  0  0  0  0  0  0  0  0
    2.9620   69.9850   68.3970 C   0  0  0  0  0  0  0  0  0  0  0  0
    2.7140   70.3480   69.5240 O   0  0  0  0  0  0  0  0  0  0  0  0
    1.9870   69.3310   67.3860 C   0  0  0  0  0  0  0  0  0  0  0  0
    0.8240   69.0650   67.6050 O   0  0  0  0  0  0  0  0  0  0  0  0
    2.2270   68.4720   65.0700 C   0  0  0  0  0  0  0  0  0  0  0  0
    2.0580   67.0690   65.3940 N   0  0  0  0  0  0  0  0  0  0  0  0
    5.7030   62.7190   63.1510 Br  0  0  0  0  0  0  0  0  0  0  0  0
    4.5930   64.0830   63.8410 C   0  0  0  0  0  0  0  0  0  0  0  0
    4.5390   65.3200   63.2080 C   0  0  0  0  0  0  0  0  0  0  0  0
    3.7130   66.3300   63.7190 C   0  0  0  0  0  0  0  0  0  0  0  0
    2.9570   66.1290   64.8790 C   0  0  0  0  0  0  0  0  0  0  0  0
    3.0000   64.8590   65.4740 C   0  0  0  0  0  0  0  0  0  0  0  0
    3.8210   63.8440   64.9720 C   0  0  0  0  0  0  0  0  0  0  0  0
    4.9952   69.0715   64.5294 H   0  0  0  0  0  0  0  0  0  0  0  0
    7.2258   69.9345   65.2858 H   0  0  0  0  0  0  0  0  0  0  0  0
    7.5193   70.8703   67.5788 H   0  0  0  0  0  0  0  0  0  0  0  0
    5.5730   70.9622   69.1703 H   0  0  0  0  0  0  0  0  0  0  0  0
    1.2596   68.9108   64.7845 H   0  0  0  0  0  0  0  0  0  0  0  0
    2.9214   68.5940   64.2257 H   0  0  0  0  0  0  0  0  0  0  0  0
    1.2814   66.7664   65.9992 H   0  0  0  0  0  0  0  0  0  0  0  0
    5.1435   65.5053   62.3079 H   0  0  0  0  0  0  0  0  0  0  0  0
    3.6580   67.2978   63.1991 H   0  0  0  0  0  0  0  0  0  0  0  0
    2.3737   64.6570   66.3554 H   0  0  0  0  0  0  0  0  0  0  0  0
    3.8555   62.8632   65.4688 H   0  0  0  0  0  0  0  0  0  0  0  0
  2  1  1  0
  3  2  2  0
  4  3  1  0
  5  4  2  0
  6  5  1  0
  7  6  2  0
  7  2  1  0
  8  7  1  0
  9  8  2  0
 10  8  1  0
 10  1  1  0
 11 10  2  0
 12  1  1  0
 13 12  1  0
 15 14  1  0
 16 15  2  0
 17 16  1  0
 18 17  2  0
 18 13  1  0
 19 18  1  0
 20 19  2  0
 20 15  1  0
  3 21  1  0
  4 22  1  0
  5 23  1  0
  6 24  1  0
 12 25  1  0
 12 26  1  0
 13 27  1  0
 16 28  1  0
 17 29  1  0
 19 30  1  0
 20 31  1  0
M  END
>  <score>  (5) 
-9.121

$$$$
=
     RDKit          3D

 31 33  0  0  0  0  0  0  0  0999 V2000
    1.5870   68.8100   65.3200 N   0  0  0  0  0  0  0  0  0  0  0  0
    2.6420   68.8630   64.3920 C   0  0  0  0  0  0  0  0  0  0  0  0
    3.9870   69.0900   64.6210 C   0  0  0  0  0  0  0  0  0  0  0  0
    4.8480   69.0930   63.5150 C   0  0  0  0  0  0  0  0  0  0  0  0
    4.3610   68.8720   62.2120 C   0  0  0  0  0  0  0  0  0  0  0  0
    3.0030   68.6430   61.9890 C   0  0  0  0  0  0  0  0  0  0  0  0
    2.1780   68.6450   63.0960 C   0  0  0  0  0  0  0  0  0  0  0  0
    0.7320   68.4460   63.1810 C   0  0  0  0  0  0  0  0  0  0  0  0
   -0.0300   68.2230   62.2680 O   0  0  0  0  0  0  0  0  0  0  0  0
    0.3800   68.5850   64.6840 C   0  0  0  0  0  0  0  0  0  0  0  0
   -0.7360   68.5140   65.1510 O   0  0  0  0  0  0  0  0  0  0  0  0
    1.7050   69.0660   66.7260 C   0  0  0  0  0  0  0  0  0  0  0  0
    0.4460   68.6960   67.3420 N   0  0  0  0  0  0  0  0  0  0  0  0
    0.4010   64.3410   71.6160 Br  0  0  0  0  0  0  0  0  0  0  0  0
    0.4040   65.6730   70.2760 C   0  0  0  0  0  0  0  0  0  0  0  0
   -0.7110   65.8400   69.4630 C   0  0  0  0  0  0  0  0  0  0  0  0
   -0.7100   66.8300   68.4720 C   0  0  0  0  0  0  0  0  0  0  0  0
    0.4100   67.6430   68.2620 C   0  0  0  0  0  0  0  0  0  0  0  0
    1.5050   67.4790   69.1240 C   0  0  0  0  0  0  0  0  0  0  0  0
    1.5140   66.4940   70.1170 C   0  0  0  0  0  0  0  0  0  0  0  0
    4.3686   69.2626   65.6381 H   0  0  0  0  0  0  0  0  0  0  0  0
    5.9228   69.2711   63.6673 H   0  0  0  0  0  0  0  0  0  0  0  0
    5.0585   68.8800   61.3615 H   0  0  0  0  0  0  0  0  0  0  0  0
    2.6076   68.4688   60.9774 H   0  0  0  0  0  0  0  0  0  0  0  0
    2.5222   68.4642   67.1503 H   0  0  0  0  0  0  0  0  0  0  0  0
    1.9299   70.1270   66.9097 H   0  0  0  0  0  0  0  0  0  0  0  0
   -0.4169   69.2055   67.1036 H   0  0  0  0  0  0  0  0  0  0  0  0
   -1.5925   65.1959   69.5976 H   0  0  0  0  0  0  0  0  0  0  0  0
   -1.6048   66.9710   67.8480 H   0  0  0  0  0  0  0  0  0  0  0  0
    2.3770   68.1408   69.0162 H   0  0  0  0  0  0  0  0  0  0  0  0
    2.3927   66.3702   70.7670 H   0  0  0  0  0  0  0  0  0  0  0  0
  2  1  1  0
  3  2  2  0
  4  3  1  0
  5  4  2  0
  6  5  1  0
  7  6  2  0
  7  2  1  0
  8  7  1  0
  9  8  2  0
 10  8  1  0
 10  1  1  0
 11 10  2  0
 12  1  1  0
 13 12  1  0
 15 14  1  0
 16 15  2  0
 17 16  1  0
 18 17  2  0
 18 13  1  0
 19 18  1  0
 20 19  2  0
 20 15  1  0
  3 21  1  0
  4 22  1  0
  5 23  1  0
  6 24  1  0
 12 25  1  0
 12 26  1  0
 13 27  1  0
 16 28  1  0
 17 29  1  0
 19 30  1  0
 20 31  1  0
M  END
>  <score>  (6) 
-8.376

$$$$
=
     RDKit          3D

 31 33  0  0  0  0  0  0  0  0999 V2000
    0.3410   67.4650   67.8430 N   0  0  0  0  0  0  0  0  0  0  0  0
    1.0370   67.9270   66.7130 C   0  0  0  0  0  0  0  0  0  0  0  0
    2.4020   68.0370   66.5210 C   0  0  0  0  0  0  0  0  0  0  0  0
    2.8530   68.5330   65.2900 C   0  0  0  0  0  0  0  0  0  0  0  0
    1.9460   68.9070   64.2800 C   0  0  0  0  0  0  0  0  0  0  0  0
    0.5700   68.7940   64.4810 C   0  0  0  0  0  0  0  0  0  0  0  0
    0.1540   68.3030   65.7020 C   0  0  0  0  0  0  0  0  0  0  0  0
   -1.2010   68.0790   66.2040 C   0  0  0  0  0  0  0  0  0  0  0  0
   -2.2400   68.2790   65.6180 O   0  0  0  0  0  0  0  0  0  0  0  0
   -1.0260   67.5380   67.6460 C   0  0  0  0  0  0  0  0  0  0  0  0
   -1.9300   67.2620   68.4040 O   0  0  0  0  0  0  0  0  0  0  0  0
    0.9410   67.0740   69.0850 C   0  0  0  0  0  0  0  0  0  0  0  0
    0.2590   65.8780   69.5390 N   0  0  0  0  0  0  0  0  0  0  0  0
    2.7890   61.8560   73.3690 Br  0  0  0  0  0  0  0  0  0  0  0  0
    2.0290   63.1140   72.1820 C   0  0  0  0  0  0  0  0  0  0  0  0
    2.7480   63.5420   71.0720 C   0  0  0  0  0  0  0  0  0  0  0  0
    2.1810   64.4720   70.1900 C   0  0  0  0  0  0  0  0  0  0  0  0
    0.9080   65.0060   70.4200 C   0  0  0  0  0  0  0  0  0  0  0  0
    0.1900   64.5250   71.5260 C   0  0  0  0  0  0  0  0  0  0  0  0
    0.7450   63.5960   72.4110 C   0  0  0  0  0  0  0  0  0  0  0  0
    3.1113   67.7446   67.3092 H   0  0  0  0  0  0  0  0  0  0  0  0
    3.9337   68.6317   65.1100 H   0  0  0  0  0  0  0  0  0  0  0  0
    2.3263   69.2923   63.3224 H   0  0  0  0  0  0  0  0  0  0  0  0
   -0.1506   69.0831   63.7018 H   0  0  0  0  0  0  0  0  0  0  0  0
    2.0103   66.8633   68.9360 H   0  0  0  0  0  0  0  0  0  0  0  0
    0.8511   67.8785   69.8298 H   0  0  0  0  0  0  0  0  0  0  0  0
   -0.6968   65.6716   69.2152 H   0  0  0  0  0  0  0  0  0  0  0  0
    3.7595   63.1517   70.8863 H   0  0  0  0  0  0  0  0  0  0  0  0
    2.7467   64.7878   69.3011 H   0  0  0  0  0  0  0  0  0  0  0  0
   -0.8337   64.8877   71.7005 H   0  0  0  0  0  0  0  0  0  0  0  0
    0.1701   63.2488   73.2822 H   0  0  0  0  0  0  0  0  0  0  0  0
  2  1  1  0
  3  2  2  0
  4  3  1  0
  5  4  2  0
  6  5  1  0
  7  6  2  0
  7  2  1  0
  8  7  1  0
  9  8  2  0
 10  8  1  0
 10  1  1  0
 11 10  2  0
 12  1  1  0
 13 12  1  0
 15 14  1  0
 16 15  2  0
 17 16  1  0
 18 17  2  0
 18 13  1  0
 19 18  1  0
 20 19  2  0
 20 15  1  0
  3 21  1  0
  4 22  1  0
  5 23  1  0
  6 24  1  0
 12 25  1  0
 12 26  1  0
 13 27  1  0
 16 28  1  0
 17 29  1  0
 19 30  1  0
 20 31  1  0
M  END
>  <score>  (7) 
-8.204

$$$$
=
     RDKit          3D

 31 33  0  0  0  0  0  0  0  0999 V2000
    1.7590   62.6720   71.6650 N   0  0  0  0  0  0  0  0  0  0  0  0
    3.0210   62.0660   71.7910 C   0  0  0  0  0  0  0  0  0  0  0  0
    3.6200   61.5390   72.9210 C   0  0  0  0  0  0  0  0  0  0  0  0
    4.8990   60.9840   72.7850 C   0  0  0  0  0  0  0  0  0  0  0  0
    5.5560   60.9630   71.5390 C   0  0  0  0  0  0  0  0  0  0  0  0
    4.9450   61.4970   70.4040 C   0  0  0  0  0  0  0  0  0  0  0  0
    3.6850   62.0370   70.5670 C   0  0  0  0  0  0  0  0  0  0  0  0
    2.8070   62.6680   69.5820 C   0  0  0  0  0  0  0  0  0  0  0  0
    3.0270   62.8260   68.4030 O   0  0  0  0  0  0  0  0  0  0  0  0
    1.5410   63.0930   70.3660 C   0  0  0  0  0  0  0  0  0  0  0  0
    0.5900   63.6810   69.8950 O   0  0  0  0  0  0  0  0  0  0  0  0
    0.8500   62.9300   72.7430 C   0  0  0  0  0  0  0  0  0  0  0  0
   -0.4250   62.3390   72.3890 N   0  0  0  0  0  0  0  0  0  0  0  0
   -1.9790   57.2880   75.4410 Br  0  0  0  0  0  0  0  0  0  0  0  0
   -1.5220   58.8530   74.4860 C   0  0  0  0  0  0  0  0  0  0  0  0
   -2.4300   59.9010   74.3960 C   0  0  0  0  0  0  0  0  0  0  0  0
   -2.0890   61.0620   73.6910 C   0  0  0  0  0  0  0  0  0  0  0  0
   -0.8530   61.1790   73.0440 C   0  0  0  0  0  0  0  0  0  0  0  0
    0.0590   60.1230   73.1850 C   0  0  0  0  0  0  0  0  0  0  0  0
   -0.2710   58.9590   73.8870 C   0  0  0  0  0  0  0  0  0  0  0  0
    3.1086   61.5552   73.8948 H   0  0  0  0  0  0  0  0  0  0  0  0
    5.3992   60.5570   73.6668 H   0  0  0  0  0  0  0  0  0  0  0  0
    6.5604   60.5214   71.4602 H   0  0  0  0  0  0  0  0  0  0  0  0
    5.4445   61.4881   69.4240 H   0  0  0  0  0  0  0  0  0  0  0  0
    1.2293   62.4767   73.6707 H   0  0  0  0  0  0  0  0  0  0  0  0
    0.7426   64.0122   72.9085 H   0  0  0  0  0  0  0  0  0  0  0  0
   -1.0119   62.7698   71.6604 H   0  0  0  0  0  0  0  0  0  0  0  0
   -3.4154   59.8188   74.8779 H   0  0  0  0  0  0  0  0  0  0  0  0
   -2.8045   61.8962   73.6448 H   0  0  0  0  0  0  0  0  0  0  0  0
    1.0577   60.2122   72.7327 H   0  0  0  0  0  0  0  0  0  0  0  0
    0.4527   58.1343   73.9647 H   0  0  0  0  0  0  0  0  0  0  0  0
  2  1  1  0
  3  2  2  0
  4  3  1  0
  5  4  2  0
  6  5  1  0
  7  6  2  0
  7  2  1  0
  8  7  1  0
  9  8  2  0
 10  8  1  0
 10  1  1  0
 11 10  2  0
 12  1  1  0
 13 12  1  0
 15 14  1  0
 16 15  2  0
 17 16  1  0
 18 17  2  0
 18 13  1  0
 19 18  1  0
 20 19  2  0
 20 15  1  0
  3 21  1  0
  4 22  1  0
  5 23  1  0
  6 24  1  0
 12 25  1  0
 12 26  1  0
 13 27  1  0
 16 28  1  0
 17 29  1  0
 19 30  1  0
 20 31  1  0
M  END
>  <score>  (8) 
-7.987

$$$$
=
     RDKit          3D

 31 33  0  0  0  0  0  0  0  0999 V2000
    2.6630   60.2140   72.1410 N   0  0  0  0  0  0  0  0  0  0  0  0
    2.7600   61.4100   71.4080 C   0  0  0  0  0  0  0  0  0  0  0  0
    2.4090   62.6920   71.7910 C   0  0  0  0  0  0  0  0  0  0  0  0
    2.6050   63.7280   70.8670 C   0  0  0  0  0  0  0  0  0  0  0  0
    3.1410   63.4740   69.5900 C   0  0  0  0  0  0  0  0  0  0  0  0
    3.4930   62.1770   69.2110 C   0  0  0  0  0  0  0  0  0  0  0  0
    3.2890   61.1770   70.1410 C   0  0  0  0  0  0  0  0  0  0  0  0
    3.5480   59.7410   70.0360 C   0  0  0  0  0  0  0  0  0  0  0  0
    4.0140   59.1500   69.0890 O   0  0  0  0  0  0  0  0  0  0  0  0
    3.0950   59.1380   71.3890 C   0  0  0  0  0  0  0  0  0  0  0  0
    3.1240   57.9600   71.6750 O   0  0  0  0  0  0  0  0  0  0  0  0
    2.0920   60.0870   73.4500 C   0  0  0  0  0  0  0  0  0  0  0  0
    1.0140   59.1230   73.3630 N   0  0  0  0  0  0  0  0  0  0  0  0
   -4.6700   60.8340   74.7770 Br  0  0  0  0  0  0  0  0  0  0  0  0
   -2.9140   60.3140   74.3150 C   0  0  0  0  0  0  0  0  0  0  0  0
   -2.1140   61.1650   73.5610 C   0  0  0  0  0  0  0  0  0  0  0  0
   -0.8100   60.7800   73.2220 C   0  0  0  0  0  0  0  0  0  0  0  0
   -0.3010   59.5330   73.6050 C   0  0  0  0  0  0  0  0  0  0  0  0
   -1.1160   58.7120   74.3990 C   0  0  0  0  0  0  0  0  0  0  0  0
   -2.4190   59.0880   74.7430 C   0  0  0  0  0  0  0  0  0  0  0  0
    1.9897   62.8921   72.7881 H   0  0  0  0  0  0  0  0  0  0  0  0
    2.3352   64.7576   71.1446 H   0  0  0  0  0  0  0  0  0  0  0  0
    3.2838   64.3054   68.8841 H   0  0  0  0  0  0  0  0  0  0  0  0
    3.9134   61.9619   68.2175 H   0  0  0  0  0  0  0  0  0  0  0  0
    2.8547   59.7345   74.1599 H   0  0  0  0  0  0  0  0  0  0  0  0
    1.7159   61.0580   73.8046 H   0  0  0  0  0  0  0  0  0  0  0  0
    1.2149   58.1414   73.1243 H   0  0  0  0  0  0  0  0  0  0  0  0
   -2.5041   62.1391   73.2310 H   0  0  0  0  0  0  0  0  0  0  0  0
   -0.1755   61.4690   72.6453 H   0  0  0  0  0  0  0  0  0  0  0  0
   -0.7214   57.7505   74.7593 H   0  0  0  0  0  0  0  0  0  0  0  0
   -3.0473   58.4178   75.3481 H   0  0  0  0  0  0  0  0  0  0  0  0
  2  1  1  0
  3  2  2  0
  4  3  1  0
  5  4  2  0
  6  5  1  0
  7  6  2  0
  7  2  1  0
  8  7  1  0
  9  8  2  0
 10  8  1  0
 10  1  1  0
 11 10  2  0
 12  1  1  0
 13 12  1  0
 15 14  1  0
 16 15  2  0
 17 16  1  0
 18 17  2  0
 18 13  1  0
 19 18  1  0
 20 19  2  0
 20 15  1  0
  3 21  1  0
  4 22  1  0
  5 23  1  0
  6 24  1  0
 12 25  1  0
 12 26  1  0
 13 27  1  0
 16 28  1  0
 17 29  1  0
 19 30  1  0
 20 31  1  0
M  END
>  <score>  (9) 
-7.974

$$$$
