=
     RDKit          3D

 33 34  0  0  0  0  0  0  0  0999 V2000
    0.2470   65.5250   70.7390 C   0  0  0  0  0  0  0  0  0  0  0  0
    1.1070   64.5350   71.0190 C   0  0  0  0  0  0  0  0  0  0  0  0
    2.4910   64.0510   70.1270 S   0  0  0  0  0  0  0  0  0  0  0  0
    2.9470   62.8370   71.3230 C   0  0  0  0  0  0  0  0  0  0  0  0
    4.3030   61.8820   71.1160 S   0  0  0  0  0  0  0  0  0  0  0  0
    2.0010   62.7920   72.3250 N   0  0  0  0  0  0  0  0  0  0  0  0
    0.9630   63.7030   72.2450 C   0  0  0  0  0  0  0  0  0  0  0  0
    0.0130   63.8120   73.0110 O   0  0  0  0  0  0  0  0  0  0  0  0
    1.4680   67.3450   69.5740 C   0  0  0  0  0  0  0  0  0  0  0  0
    0.2750   66.4260   69.5920 C   0  0  0  0  0  0  0  0  0  0  0  0
   -0.7200   66.4210   68.6850 C   0  0  0  0  0  0  0  0  0  0  0  0
   -0.7760   67.2770   67.4990 C   0  0  0  0  0  0  0  0  0  0  0  0
   -1.9650   67.9320   67.1630 C   0  0  0  0  0  0  0  0  0  0  0  0
   -2.0200   68.7500   66.0310 C   0  0  0  0  0  0  0  0  0  0  0  0
   -0.8870   68.9130   65.2330 C   0  0  0  0  0  0  0  0  0  0  0  0
    0.2990   68.2600   65.5640 C   0  0  0  0  0  0  0  0  0  0  0  0
    0.3550   67.4440   66.6940 C   0  0  0  0  0  0  0  0  0  0  0  0
    2.1770   62.0470   73.5820 C   0  0  0  0  0  0  0  0  0  0  0  0
    1.8120   60.5490   73.4720 C   0  0  0  0  0  0  0  0  0  0  0  0
    2.6540   59.7640   73.9950 O   0  0  0  0  0  0  0  0  0  0  0  0
    0.7210   60.2870   72.8870 O   0  0  0  0  0  1  0  0  0  0  0  0
   -0.5734   65.6749   71.4562 H   0  0  0  0  0  0  0  0  0  0  0  0
    1.7683   67.5763   70.6066 H   0  0  0  0  0  0  0  0  0  0  0  0
    2.3016   66.8534   69.0511 H   0  0  0  0  0  0  0  0  0  0  0  0
    1.2054   68.2765   69.0511 H   0  0  0  0  0  0  0  0  0  0  0  0
   -1.5531   65.7213   68.8474 H   0  0  0  0  0  0  0  0  0  0  0  0
   -2.8589   67.8032   67.7910 H   0  0  0  0  0  0  0  0  0  0  0  0
   -2.9561   69.2651   65.7693 H   0  0  0  0  0  0  0  0  0  0  0  0
   -0.9299   69.5571   64.3423 H   0  0  0  0  0  0  0  0  0  0  0  0
    1.1914   68.3882   64.9338 H   0  0  0  0  0  0  0  0  0  0  0  0
    1.2925   66.9300   66.9528 H   0  0  0  0  0  0  0  0  0  0  0  0
    3.2305   62.1263   73.8882 H   0  0  0  0  0  0  0  0  0  0  0  0
    1.4916   62.4919   74.3184 H   0  0  0  0  0  0  0  0  0  0  0  0
  2  1  2  0
  3  2  1  0
  4  3  1  0
  5  4  2  0
  6  4  1  0
  7  6  1  0
  7  2  1  0
  8  7  2  0
 10  9  1  0
 10  1  1  0
 11 10  2  0
 12 11  1  0
 13 12  2  0
 14 13  1  0
 15 14  2  0
 16 15  1  0
 17 16  2  0
 17 12  1  0
 18  6  1  0
 19 18  1  0
 20 19  2  0
 21 19  1  0
  1 22  1  0
  9 23  1  0
  9 24  1  0
  9 25  1  0
 11 26  1  0
 13 27  1  0
 14 28  1  0
 15 29  1  0
 16 30  1  0
 17 31  1  0
 18 32  1  0
 18 33  1  0
M  CHG  1  21  -1
M  END
>  <score>  (1) 
-7.632

$$$$
=
     RDKit          3D

 33 34  0  0  0  0  0  0  0  0999 V2000
    4.1960   68.8850   64.2640 C   0  0  0  0  0  0  0  0  0  0  0  0
    2.8610   68.7580   64.2810 C   0  0  0  0  0  0  0  0  0  0  0  0
    1.7990   68.9230   65.6190 S   0  0  0  0  0  0  0  0  0  0  0  0
    0.3620   68.6970   64.6200 C   0  0  0  0  0  0  0  0  0  0  0  0
   -1.1710   68.7280   65.2860 S   0  0  0  0  0  0  0  0  0  0  0  0
    0.7360   68.4390   63.3180 N   0  0  0  0  0  0  0  0  0  0  0  0
    2.0910   68.4690   63.0400 C   0  0  0  0  0  0  0  0  0  0  0  0
    2.6310   68.2430   61.9640 O   0  0  0  0  0  0  0  0  0  0  0  0
    6.4530   68.5990   65.2560 C   0  0  0  0  0  0  0  0  0  0  0  0
    5.0720   69.1830   65.3910 C   0  0  0  0  0  0  0  0  0  0  0  0
    4.6230   69.8860   66.4480 C   0  0  0  0  0  0  0  0  0  0  0  0
    5.4250   70.2440   67.6190 C   0  0  0  0  0  0  0  0  0  0  0  0
    4.8270   70.3290   68.8800 C   0  0  0  0  0  0  0  0  0  0  0  0
    5.5930   70.6700   69.9970 C   0  0  0  0  0  0  0  0  0  0  0  0
    6.9570   70.9290   69.8570 C   0  0  0  0  0  0  0  0  0  0  0  0
    7.5560   70.8470   68.6010 C   0  0  0  0  0  0  0  0  0  0  0  0
    6.7930   70.5060   67.4840 C   0  0  0  0  0  0  0  0  0  0  0  0
   -0.2050   68.4130   62.1880 C   0  0  0  0  0  0  0  0  0  0  0  0
   -0.4500   69.7990   61.5490 C   0  0  0  0  0  0  0  0  0  0  0  0
    0.5100   70.2310   60.8490 O   0  0  0  0  0  0  0  0  0  0  0  0
   -1.5730   70.3300   61.7920 O   0  0  0  0  0  1  0  0  0  0  0  0
    4.6860   68.7488   63.2886 H   0  0  0  0  0  0  0  0  0  0  0  0
    6.8750   68.4205   66.2560 H   0  0  0  0  0  0  0  0  0  0  0  0
    6.3967   67.6477   64.7067 H   0  0  0  0  0  0  0  0  0  0  0  0
    7.0963   69.3021   64.7067 H   0  0  0  0  0  0  0  0  0  0  0  0
    3.5739   70.2163   66.4302 H   0  0  0  0  0  0  0  0  0  0  0  0
    3.7516   70.1270   68.9925 H   0  0  0  0  0  0  0  0  0  0  0  0
    5.1205   70.7345   70.9883 H   0  0  0  0  0  0  0  0  0  0  0  0
    7.5593   71.1978   70.7374 H   0  0  0  0  0  0  0  0  0  0  0  0
    8.6312   71.0513   68.4905 H   0  0  0  0  0  0  0  0  0  0  0  0
    7.2682   70.4429   66.4940 H   0  0  0  0  0  0  0  0  0  0  0  0
    0.1985   67.7414   61.4159 H   0  0  0  0  0  0  0  0  0  0  0  0
   -1.1714   68.0668   62.5834 H   0  0  0  0  0  0  0  0  0  0  0  0
  2  1  2  0
  3  2  1  0
  4  3  1  0
  5  4  2  0
  6  4  1  0
  7  6  1  0
  7  2  1  0
  8  7  2  0
 10  9  1  0
 10  1  1  0
 11 10  2  0
 12 11  1  0
 13 12  2  0
 14 13  1  0
 15 14  2  0
 16 15  1  0
 17 16  2  0
 17 12  1  0
 18  6  1  0
 19 18  1  0
 20 19  2  0
 21 19  1  0
  1 22  1  0
  9 23  1  0
  9 24  1  0
  9 25  1  0
 11 26  1  0
 13 27  1  0
 14 28  1  0
 15 29  1  0
 16 30  1  0
 17 31  1  0
 18 32  1  0
 18 33  1  0
M  CHG  1  21  -1
M  END
>  <score>  (2) 
-7.404

$$$$
=
     RDKit          3D

 33 34  0  0  0  0  0  0  0  0999 V2000
    3.4820   59.0490   74.1870 C   0  0  0  0  0  0  0  0  0  0  0  0
    2.4820   58.1990   74.4620 C   0  0  0  0  0  0  0  0  0  0  0  0
    0.8880   58.1980   73.8260 S   0  0  0  0  0  0  0  0  0  0  0  0
    0.4530   56.7170   74.6800 C   0  0  0  0  0  0  0  0  0  0  0  0
   -1.0740   56.0510   74.5390 S   0  0  0  0  0  0  0  0  0  0  0  0
    1.5060   56.3080   75.4700 N   0  0  0  0  0  0  0  0  0  0  0  0
    2.6670   57.0570   75.3990 C   0  0  0  0  0  0  0  0  0  0  0  0
    3.7010   56.8820   76.0330 O   0  0  0  0  0  0  0  0  0  0  0  0
    2.7740   61.4050   73.8620 C   0  0  0  0  0  0  0  0  0  0  0  0
    3.4500   60.1920   73.2820 C   0  0  0  0  0  0  0  0  0  0  0  0
    3.9570   60.1020   72.0370 C   0  0  0  0  0  0  0  0  0  0  0  0
    3.9810   61.1930   71.0620 C   0  0  0  0  0  0  0  0  0  0  0  0
    3.1140   61.1720   69.9640 C   0  0  0  0  0  0  0  0  0  0  0  0
    3.1360   62.2130   69.0330 C   0  0  0  0  0  0  0  0  0  0  0  0
    4.0250   63.2760   69.1950 C   0  0  0  0  0  0  0  0  0  0  0  0
    4.8910   63.3000   70.2870 C   0  0  0  0  0  0  0  0  0  0  0  0
    4.8700   62.2610   71.2190 C   0  0  0  0  0  0  0  0  0  0  0  0
    1.5610   55.0030   76.1480 C   0  0  0  0  0  0  0  0  0  0  0  0
    1.7430   53.8090   75.1840 C   0  0  0  0  0  0  0  0  0  0  0  0
    1.1820   52.7400   75.5610 O   0  0  0  0  0  0  0  0  0  0  0  0
    2.4170   54.0390   74.1390 O   0  0  0  0  0  1  0  0  0  0  0  0
    4.4354   58.8628   74.7031 H   0  0  0  0  0  0  0  0  0  0  0  0
    2.8039   61.3514   74.9603 H   0  0  0  0  0  0  0  0  0  0  0  0
    3.2965   62.3123   73.5248 H   0  0  0  0  0  0  0  0  0  0  0  0
    1.7275   61.4379   73.5248 H   0  0  0  0  0  0  0  0  0  0  0  0
    4.3849   59.1361   71.7305 H   0  0  0  0  0  0  0  0  0  0  0  0
    2.4136   60.3339   69.8337 H   0  0  0  0  0  0  0  0  0  0  0  0
    2.4521   62.1947   68.1717 H   0  0  0  0  0  0  0  0  0  0  0  0
    4.0425   64.0951   68.4610 H   0  0  0  0  0  0  0  0  0  0  0  0
    5.5916   64.1384   70.4144 H   0  0  0  0  0  0  0  0  0  0  0  0
    5.5548   62.2824   72.0796 H   0  0  0  0  0  0  0  0  0  0  0  0
    2.4061   55.0128   76.8520 H   0  0  0  0  0  0  0  0  0  0  0  0
    0.5945   54.8629   76.6542 H   0  0  0  0  0  0  0  0  0  0  0  0
  2  1  2  0
  3  2  1  0
  4  3  1  0
  5  4  2  0
  6  4  1  0
  7  6  1  0
  7  2  1  0
  8  7  2  0
 10  9  1  0
 10  1  1  0
 11 10  2  0
 12 11  1  0
 13 12  2  0
 14 13  1  0
 15 14  2  0
 16 15  1  0
 17 16  2  0
 17 12  1  0
 18  6  1  0
 19 18  1  0
 20 19  2  0
 21 19  1  0
  1 22  1  0
  9 23  1  0
  9 24  1  0
  9 25  1  0
 11 26  1  0
 13 27  1  0
 14 28  1  0
 15 29  1  0
 16 30  1  0
 17 31  1  0
 18 32  1  0
 18 33  1  0
M  CHG  1  21  -1
M  END
>  <score>  (3) 
-7.401

$$$$
=
     RDKit          3D

 33 34  0  0  0  0  0  0  0  0999 V2000
    2.8720   69.2580   65.9010 C   0  0  0  0  0  0  0  0  0  0  0  0
    1.8630   68.5840   66.4710 C   0  0  0  0  0  0  0  0  0  0  0  0
    1.7930   67.9220   68.0530 S   0  0  0  0  0  0  0  0  0  0  0  0
    0.1210   67.3930   67.8530 C   0  0  0  0  0  0  0  0  0  0  0  0
   -0.6900   66.5980   69.0800 S   0  0  0  0  0  0  0  0  0  0  0  0
   -0.3070   67.6770   66.5740 N   0  0  0  0  0  0  0  0  0  0  0  0
    0.5810   68.3450   65.7510 C   0  0  0  0  0  0  0  0  0  0  0  0
    0.4100   68.6660   64.5810 O   0  0  0  0  0  0  0  0  0  0  0  0
    5.3390   69.1360   65.6550 C   0  0  0  0  0  0  0  0  0  0  0  0
    4.1670   69.5800   66.4890 C   0  0  0  0  0  0  0  0  0  0  0  0
    4.2490   70.1840   67.6900 C   0  0  0  0  0  0  0  0  0  0  0  0
    5.4970   70.5560   68.3570 C   0  0  0  0  0  0  0  0  0  0  0  0
    6.4940   71.2370   67.6510 C   0  0  0  0  0  0  0  0  0  0  0  0
    7.6850   71.5930   68.2880 C   0  0  0  0  0  0  0  0  0  0  0  0
    7.8840   71.2700   69.6300 C   0  0  0  0  0  0  0  0  0  0  0  0
    6.8930   70.5900   70.3370 C   0  0  0  0  0  0  0  0  0  0  0  0
    5.7020   70.2330   69.7030 C   0  0  0  0  0  0  0  0  0  0  0  0
   -1.7080   67.5640   66.1370 C   0  0  0  0  0  0  0  0  0  0  0  0
   -2.4820   68.9010   66.1790 C   0  0  0  0  0  0  0  0  0  0  0  0
   -1.8460   69.8600   66.7030 O   0  0  0  0  0  0  0  0  0  0  0  0
   -3.6470   68.8820   65.6830 O   0  0  0  0  0  1  0  0  0  0  0  0
    2.7038   69.6082   64.8719 H   0  0  0  0  0  0  0  0  0  0  0  0
    6.1617   68.8243   66.3153 H   0  0  0  0  0  0  0  0  0  0  0  0
    5.0376   68.2897   65.0202 H   0  0  0  0  0  0  0  0  0  0  0  0
    5.6740   69.9695   65.0202 H   0  0  0  0  0  0  0  0  0  0  0  0
    3.3068   70.4150   68.2085 H   0  0  0  0  0  0  0  0  0  0  0  0
    6.3399   71.4927   66.5923 H   0  0  0  0  0  0  0  0  0  0  0  0
    8.4671   72.1289   67.7303 H   0  0  0  0  0  0  0  0  0  0  0  0
    8.8222   71.5515   70.1305 H   0  0  0  0  0  0  0  0  0  0  0  0
    7.0501   70.3347   71.3954 H   0  0  0  0  0  0  0  0  0  0  0  0
    4.9222   69.6961   70.2630 H   0  0  0  0  0  0  0  0  0  0  0  0
   -1.7200   67.1882   65.1033 H   0  0  0  0  0  0  0  0  0  0  0  0
   -2.2091   66.8805   66.8382 H   0  0  0  0  0  0  0  0  0  0  0  0
  2  1  2  0
  3  2  1  0
  4  3  1  0
  5  4  2  0
  6  4  1  0
  7  6  1  0
  7  2  1  0
  8  7  2  0
 10  9  1  0
 10  1  1  0
 11 10  2  0
 12 11  1  0
 13 12  2  0
 14 13  1  0
 15 14  2  0
 16 15  1  0
 17 16  2  0
 17 12  1  0
 18  6  1  0
 19 18  1  0
 20 19  2  0
 21 19  1  0
  1 22  1  0
  9 23  1  0
  9 24  1  0
  9 25  1  0
 11 26  1  0
 13 27  1  0
 14 28  1  0
 15 29  1  0
 16 30  1  0
 17 31  1  0
 18 32  1  0
 18 33  1  0
M  CHG  1  21  -1
M  END
>  <score>  (4) 
-7.275

$$$$
=
     RDKit          3D

 33 34  0  0  0  0  0  0  0  0999 V2000
    2.1340   64.9760   70.2980 C   0  0  0  0  0  0  0  0  0  0  0  0
    1.9650   63.8300   70.9740 C   0  0  0  0  0  0  0  0  0  0  0  0
    0.4930   63.1050   71.4780 S   0  0  0  0  0  0  0  0  0  0  0  0
    1.3130   61.6850   72.1290 C   0  0  0  0  0  0  0  0  0  0  0  0
    0.4560   60.4420   72.8470 S   0  0  0  0  0  0  0  0  0  0  0  0
    2.6770   61.8350   72.0020 N   0  0  0  0  0  0  0  0  0  0  0  0
    3.1230   62.9790   71.3640 C   0  0  0  0  0  0  0  0  0  0  0  0
    4.2850   63.3160   71.1740 O   0  0  0  0  0  0  0  0  0  0  0  0
    0.0510   66.1960   70.8760 C   0  0  0  0  0  0  0  0  0  0  0  0
    1.0980   65.8940   69.8370 C   0  0  0  0  0  0  0  0  0  0  0  0
    1.1040   66.3660   68.5760 C   0  0  0  0  0  0  0  0  0  0  0  0
    0.1180   67.2960   68.0250 C   0  0  0  0  0  0  0  0  0  0  0  0
   -1.1810   66.8590   67.7500 C   0  0  0  0  0  0  0  0  0  0  0  0
   -2.1230   67.7470   67.2240 C   0  0  0  0  0  0  0  0  0  0  0  0
   -1.7680   69.0720   66.9700 C   0  0  0  0  0  0  0  0  0  0  0  0
   -0.4730   69.5110   67.2410 C   0  0  0  0  0  0  0  0  0  0  0  0
    0.4690   68.6260   67.7670 C   0  0  0  0  0  0  0  0  0  0  0  0
    3.6450   60.7540   72.2460 C   0  0  0  0  0  0  0  0  0  0  0  0
    3.9290   59.8810   71.0030 C   0  0  0  0  0  0  0  0  0  0  0  0
    4.9670   60.2080   70.3580 O   0  0  0  0  0  0  0  0  0  0  0  0
    3.1050   58.9470   70.7820 O   0  0  0  0  0  1  0  0  0  0  0  0
    3.1719   65.2556   70.0646 H   0  0  0  0  0  0  0  0  0  0  0  0
    0.4837   66.0712   71.8796 H   0  0  0  0  0  0  0  0  0  0  0  0
   -0.2989   67.2317   70.7537 H   0  0  0  0  0  0  0  0  0  0  0  0
   -0.7967   65.5058   70.7537 H   0  0  0  0  0  0  0  0  0  0  0  0
    1.9110   66.0269   67.9099 H   0  0  0  0  0  0  0  0  0  0  0  0
   -1.4622   65.8141   67.9480 H   0  0  0  0  0  0  0  0  0  0  0  0
   -3.1450   67.4011   67.0101 H   0  0  0  0  0  0  0  0  0  0  0  0
   -2.5101   69.7704   66.5558 H   0  0  0  0  0  0  0  0  0  0  0  0
   -0.1935   70.5557   67.0401 H   0  0  0  0  0  0  0  0  0  0  0  0
    1.4904   68.9747   67.9795 H   0  0  0  0  0  0  0  0  0  0  0  0
    4.5922   61.2045   72.5775 H   0  0  0  0  0  0  0  0  0  0  0  0
    3.2042   60.0942   73.0078 H   0  0  0  0  0  0  0  0  0  0  0  0
  2  1  2  0
  3  2  1  0
  4  3  1  0
  5  4  2  0
  6  4  1  0
  7  6  1  0
  7  2  1  0
  8  7  2  0
 10  9  1  0
 10  1  1  0
 11 10  2  0
 12 11  1  0
 13 12  2  0
 14 13  1  0
 15 14  2  0
 16 15  1  0
 17 16  2  0
 17 12  1  0
 18  6  1  0
 19 18  1  0
 20 19  2  0
 21 19  1  0
  1 22  1  0
  9 23  1  0
  9 24  1  0
  9 25  1  0
 11 26  1  0
 13 27  1  0
 14 28  1  0
 15 29  1  0
 16 30  1  0
 17 31  1  0
 18 32  1  0
 18 33  1  0
M  CHG  1  21  -1
M  END
>  <score>  (5) 
-7.262

$$$$
=
     RDKit          3D

 33 34  0  0  0  0  0  0  0  0999 V2000
    1.8850   58.2590   72.7170 C   0  0  0  0  0  0  0  0  0  0  0  0
    2.2690   57.8140   73.9230 C   0  0  0  0  0  0  0  0  0  0  0  0
    3.2070   58.6320   75.1040 S   0  0  0  0  0  0  0  0  0  0  0  0
    3.0480   57.3170   76.2700 C   0  0  0  0  0  0  0  0  0  0  0  0
    3.7630   57.4050   77.7780 S   0  0  0  0  0  0  0  0  0  0  0  0
    2.3460   56.2750   75.7030 N   0  0  0  0  0  0  0  0  0  0  0  0
    1.8670   56.4690   74.4200 C   0  0  0  0  0  0  0  0  0  0  0  0
    1.2480   55.6670   73.7310 O   0  0  0  0  0  0  0  0  0  0  0  0
    1.1990   60.6310   72.4690 C   0  0  0  0  0  0  0  0  0  0  0  0
    2.1860   59.5510   72.1130 C   0  0  0  0  0  0  0  0  0  0  0  0
    3.2400   59.7000   71.2880 C   0  0  0  0  0  0  0  0  0  0  0  0
    3.6300   60.9540   70.6430 C   0  0  0  0  0  0  0  0  0  0  0  0
    3.1270   61.2790   69.3800 C   0  0  0  0  0  0  0  0  0  0  0  0
    3.4980   62.4770   68.7640 C   0  0  0  0  0  0  0  0  0  0  0  0
    4.3730   63.3520   69.4080 C   0  0  0  0  0  0  0  0  0  0  0  0
    4.8780   63.0300   70.6670 C   0  0  0  0  0  0  0  0  0  0  0  0
    4.5080   61.8350   71.2840 C   0  0  0  0  0  0  0  0  0  0  0  0
    1.8520   55.1140   76.4610 C   0  0  0  0  0  0  0  0  0  0  0  0
    0.5040   55.3650   77.1740 C   0  0  0  0  0  0  0  0  0  0  0  0
   -0.5150   55.0540   76.4940 O   0  0  0  0  0  0  0  0  0  0  0  0
    0.5770   55.8390   78.3450 O   0  0  0  0  0  1  0  0  0  0  0  0
    1.2734   57.5704   72.1155 H   0  0  0  0  0  0  0  0  0  0  0  0
    1.1241   60.7130   73.5634 H   0  0  0  0  0  0  0  0  0  0  0  0
    1.5389   61.5904   72.0518 H   0  0  0  0  0  0  0  0  0  0  0  0
    0.2130   60.3786   72.0518 H   0  0  0  0  0  0  0  0  0  0  0  0
    3.8546   58.8110   71.0835 H   0  0  0  0  0  0  0  0  0  0  0  0
    2.4376   60.5901   68.8699 H   0  0  0  0  0  0  0  0  0  0  0  0
    3.0998   62.7304   67.7704 H   0  0  0  0  0  0  0  0  0  0  0  0
    4.6643   64.2953   68.9229 H   0  0  0  0  0  0  0  0  0  0  0  0
    5.5691   63.7192   71.1744 H   0  0  0  0  0  0  0  0  0  0  0  0
    4.9077   61.5844   72.2777 H   0  0  0  0  0  0  0  0  0  0  0  0
    1.7246   54.2728   75.7638 H   0  0  0  0  0  0  0  0  0  0  0  0
    2.5949   54.9017   77.2439 H   0  0  0  0  0  0  0  0  0  0  0  0
  2  1  2  0
  3  2  1  0
  4  3  1  0
  5  4  2  0
  6  4  1  0
  7  6  1  0
  7  2  1  0
  8  7  2  0
 10  9  1  0
 10  1  1  0
 11 10  2  0
 12 11  1  0
 13 12  2  0
 14 13  1  0
 15 14  2  0
 16 15  1  0
 17 16  2  0
 17 12  1  0
 18  6  1  0
 19 18  1  0
 20 19  2  0
 21 19  1  0
  1 22  1  0
  9 23  1  0
  9 24  1  0
  9 25  1  0
 11 26  1  0
 13 27  1  0
 14 28  1  0
 15 29  1  0
 16 30  1  0
 17 31  1  0
 18 32  1  0
 18 33  1  0
M  CHG  1  21  -1
M  END
>  <score>  (6) 
-7.146

$$$$
=
     RDKit          3D

 33 34  0  0  0  0  0  0  0  0999 V2000
    1.1550   66.3640   69.1580 C   0  0  0  0  0  0  0  0  0  0  0  0
    0.3190   66.9000   68.2570 C   0  0  0  0  0  0  0  0  0  0  0  0
   -1.3930   66.7930   68.2070 S   0  0  0  0  0  0  0  0  0  0  0  0
   -1.5070   67.8600   66.8060 C   0  0  0  0  0  0  0  0  0  0  0  0
   -2.9860   68.2480   66.1290 S   0  0  0  0  0  0  0  0  0  0  0  0
   -0.2420   68.2090   66.3820 N   0  0  0  0  0  0  0  0  0  0  0  0
    0.8200   67.7380   67.1320 C   0  0  0  0  0  0  0  0  0  0  0  0
    2.0130   67.9080   66.9150 O   0  0  0  0  0  0  0  0  0  0  0  0
   -0.0620   66.2520   71.3180 C   0  0  0  0  0  0  0  0  0  0  0  0
    0.8070   65.5440   70.3120 C   0  0  0  0  0  0  0  0  0  0  0  0
    1.2790   64.2890   70.4370 C   0  0  0  0  0  0  0  0  0  0  0  0
    0.9780   63.3870   71.5490 C   0  0  0  0  0  0  0  0  0  0  0  0
    1.9210   63.1840   72.5620 C   0  0  0  0  0  0  0  0  0  0  0  0
    1.6350   62.3230   73.6240 C   0  0  0  0  0  0  0  0  0  0  0  0
    0.4070   61.6640   73.6770 C   0  0  0  0  0  0  0  0  0  0  0  0
   -0.5350   61.8630   72.6690 C   0  0  0  0  0  0  0  0  0  0  0  0
   -0.2510   62.7220   71.6070 C   0  0  0  0  0  0  0  0  0  0  0  0
    0.0240   69.2500   65.3770 C   0  0  0  0  0  0  0  0  0  0  0  0
    0.2570   68.6950   63.9530 C   0  0  0  0  0  0  0  0  0  0  0  0
    1.4710   68.5150   63.6520 O   0  0  0  0  0  0  0  0  0  0  0  0
   -0.7840   68.4800   63.2670 O   0  0  0  0  0  1  0  0  0  0  0  0
    2.2260   66.5662   69.0094 H   0  0  0  0  0  0  0  0  0  0  0  0
    0.2635   65.9868   72.3347 H   0  0  0  0  0  0  0  0  0  0  0  0
    0.0252   67.3394   71.1770 H   0  0  0  0  0  0  0  0  0  0  0  0
   -1.1094   65.9468   71.1770 H   0  0  0  0  0  0  0  0  0  0  0  0
    1.9411   63.9135   69.6429 H   0  0  0  0  0  0  0  0  0  0  0  0
    2.8898   63.7035   72.5222 H   0  0  0  0  0  0  0  0  0  0  0  0
    2.3787   62.1646   74.4189 H   0  0  0  0  0  0  0  0  0  0  0  0
    0.1818   60.9871   74.5143 H   0  0  0  0  0  0  0  0  0  0  0  0
   -1.5031   61.3423   72.7109 H   0  0  0  0  0  0  0  0  0  0  0  0
   -0.9961   62.8768   70.8127 H   0  0  0  0  0  0  0  0  0  0  0  0
   -0.8385   69.9320   65.3469 H   0  0  0  0  0  0  0  0  0  0  0  0
    0.9514   69.7586   65.6792 H   0  0  0  0  0  0  0  0  0  0  0  0
  2  1  2  0
  3  2  1  0
  4  3  1  0
  5  4  2  0
  6  4  1  0
  7  6  1  0
  7  2  1  0
  8  7  2  0
 10  9  1  0
 10  1  1  0
 11 10  2  0
 12 11  1  0
 13 12  2  0
 14 13  1  0
 15 14  2  0
 16 15  1  0
 17 16  2  0
 17 12  1  0
 18  6  1  0
 19 18  1  0
 20 19  2  0
 21 19  1  0
  1 22  1  0
  9 23  1  0
  9 24  1  0
  9 25  1  0
 11 26  1  0
 13 27  1  0
 14 28  1  0
 15 29  1  0
 16 30  1  0
 17 31  1  0
 18 32  1  0
 18 33  1  0
M  CHG  1  21  -1
M  END
>  <score>  (7) 
-7.13

$$$$
=
     RDKit          3D

 33 34  0  0  0  0  0  0  0  0999 V2000
    2.1870   58.0190   72.8400 C   0  0  0  0  0  0  0  0  0  0  0  0
    1.8900   59.3080   72.6180 C   0  0  0  0  0  0  0  0  0  0  0  0
    0.6010   60.2270   73.2830 S   0  0  0  0  0  0  0  0  0  0  0  0
    1.1400   61.7130   72.4990 C   0  0  0  0  0  0  0  0  0  0  0  0
    0.3060   63.1490   72.6950 S   0  0  0  0  0  0  0  0  0  0  0  0
    2.2390   61.4510   71.7090 N   0  0  0  0  0  0  0  0  0  0  0  0
    2.7270   60.1570   71.7270 C   0  0  0  0  0  0  0  0  0  0  0  0
    3.6690   59.7120   71.0820 O   0  0  0  0  0  0  0  0  0  0  0  0
    2.0170   57.0040   75.0990 C   0  0  0  0  0  0  0  0  0  0  0  0
    1.4720   57.0800   73.6970 C   0  0  0  0  0  0  0  0  0  0  0  0
    0.4520   56.3440   73.2160 C   0  0  0  0  0  0  0  0  0  0  0  0
   -0.3310   55.3860   73.9970 C   0  0  0  0  0  0  0  0  0  0  0  0
   -1.4290   55.8220   74.7450 C   0  0  0  0  0  0  0  0  0  0  0  0
   -2.1770   54.9070   75.4900 C   0  0  0  0  0  0  0  0  0  0  0  0
   -1.8300   53.5560   75.4900 C   0  0  0  0  0  0  0  0  0  0  0  0
   -0.7350   53.1180   74.7460 C   0  0  0  0  0  0  0  0  0  0  0  0
    0.0130   54.0300   74.0010 C   0  0  0  0  0  0  0  0  0  0  0  0
    3.0650   62.4970   71.0850 C   0  0  0  0  0  0  0  0  0  0  0  0
    2.5390   62.9660   69.7090 C   0  0  0  0  0  0  0  0  0  0  0  0
    2.1980   64.1830   69.6640 O   0  0  0  0  0  0  0  0  0  0  0  0
    2.5200   62.0900   68.7960 O   0  0  0  0  0  1  0  0  0  0  0  0
    3.0704   57.6252   72.3161 H   0  0  0  0  0  0  0  0  0  0  0  0
    1.1935   57.1188   75.8192 H   0  0  0  0  0  0  0  0  0  0  0  0
    2.5037   56.0293   75.2509 H   0  0  0  0  0  0  0  0  0  0  0  0
    2.7518   57.8084   75.2509 H   0  0  0  0  0  0  0  0  0  0  0  0
    0.1875   56.4727   72.1561 H   0  0  0  0  0  0  0  0  0  0  0  0
   -1.7042   56.8870   74.7468 H   0  0  0  0  0  0  0  0  0  0  0  0
   -3.0406   55.2524   76.0773 H   0  0  0  0  0  0  0  0  0  0  0  0
   -2.4199   52.8364   76.0767 H   0  0  0  0  0  0  0  0  0  0  0  0
   -0.4608   52.0527   74.7465 H   0  0  0  0  0  0  0  0  0  0  0  0
    0.8762   53.6817   73.4148 H   0  0  0  0  0  0  0  0  0  0  0  0
    3.0942   63.3651   71.7599 H   0  0  0  0  0  0  0  0  0  0  0  0
    4.0614   62.0622   70.9170 H   0  0  0  0  0  0  0  0  0  0  0  0
  2  1  2  0
  3  2  1  0
  4  3  1  0
  5  4  2  0
  6  4  1  0
  7  6  1  0
  7  2  1  0
  8  7  2  0
 10  9  1  0
 10  1  1  0
 11 10  2  0
 12 11  1  0
 13 12  2  0
 14 13  1  0
 15 14  2  0
 16 15  1  0
 17 16  2  0
 17 12  1  0
 18  6  1  0
 19 18  1  0
 20 19  2  0
 21 19  1  0
  1 22  1  0
  9 23  1  0
  9 24  1  0
  9 25  1  0
 11 26  1  0
 13 27  1  0
 14 28  1  0
 15 29  1  0
 16 30  1  0
 17 31  1  0
 18 32  1  0
 18 33  1  0
M  CHG  1  21  -1
M  END
>  <score>  (8) 
-6.999

$$$$
=
     RDKit          3D

 33 34  0  0  0  0  0  0  0  0999 V2000
   -0.9510   61.3300   73.0190 C   0  0  0  0  0  0  0  0  0  0  0  0
   -1.4050   61.7290   74.2160 C   0  0  0  0  0  0  0  0  0  0  0  0
   -0.5750   62.6330   75.4160 S   0  0  0  0  0  0  0  0  0  0  0  0
   -1.9930   62.7120   76.4630 C   0  0  0  0  0  0  0  0  0  0  0  0
   -1.9390   63.4970   77.9380 S   0  0  0  0  0  0  0  0  0  0  0  0
   -3.0280   61.9960   75.9010 N   0  0  0  0  0  0  0  0  0  0  0  0
   -2.7960   61.4350   74.6580 C   0  0  0  0  0  0  0  0  0  0  0  0
   -3.5670   60.7440   74.0020 O   0  0  0  0  0  0  0  0  0  0  0  0
    0.5050   62.8850   71.7440 C   0  0  0  0  0  0  0  0  0  0  0  0
    0.3720   61.5620   72.4510 C   0  0  0  0  0  0  0  0  0  0  0  0
    1.3370   60.6280   72.5450 C   0  0  0  0  0  0  0  0  0  0  0  0
    2.6950   60.7700   72.0180 C   0  0  0  0  0  0  0  0  0  0  0  0
    2.9750   60.4160   70.6950 C   0  0  0  0  0  0  0  0  0  0  0  0
    4.2720   60.5520   70.1920 C   0  0  0  0  0  0  0  0  0  0  0  0
    5.2900   61.0410   71.0100 C   0  0  0  0  0  0  0  0  0  0  0  0
    5.0150   61.3930   72.3300 C   0  0  0  0  0  0  0  0  0  0  0  0
    3.7210   61.2580   72.8340 C   0  0  0  0  0  0  0  0  0  0  0  0
   -4.4110   62.0290   76.4010 C   0  0  0  0  0  0  0  0  0  0  0  0
   -5.3170   63.0400   75.6620 C   0  0  0  0  0  0  0  0  0  0  0  0
   -6.4290   62.5710   75.2860 O   0  0  0  0  0  0  0  0  0  0  0  0
   -4.8470   64.2080   75.5270 O   0  0  0  0  0  1  0  0  0  0  0  0
   -1.6569   60.7631   72.3943 H   0  0  0  0  0  0  0  0  0  0  0  0
    0.5861   63.6916   72.4876 H   0  0  0  0  0  0  0  0  0  0  0  0
    1.4067   62.8751   71.1140 H   0  0  0  0  0  0  0  0  0  0  0  0
   -0.3806   63.0547   71.1140 H   0  0  0  0  0  0  0  0  0  0  0  0
    1.0859   59.6871   73.0565 H   0  0  0  0  0  0  0  0  0  0  0  0
    2.1732   60.0297   70.0486 H   0  0  0  0  0  0  0  0  0  0  0  0
    4.4898   60.2732   69.1504 H   0  0  0  0  0  0  0  0  0  0  0  0
    6.3103   61.1489   70.6132 H   0  0  0  0  0  0  0  0  0  0  0  0
    5.8187   61.7776   72.9751 H   0  0  0  0  0  0  0  0  0  0  0  0
    3.5069   61.5362   73.8765 H   0  0  0  0  0  0  0  0  0  0  0  0
   -4.8456   61.0251   76.2859 H   0  0  0  0  0  0  0  0  0  0  0  0
   -4.3643   62.3492   77.4523 H   0  0  0  0  0  0  0  0  0  0  0  0
  2  1  2  0
  3  2  1  0
  4  3  1  0
  5  4  2  0
  6  4  1  0
  7  6  1  0
  7  2  1  0
  8  7  2  0
 10  9  1  0
 10  1  1  0
 11 10  2  0
 12 11  1  0
 13 12  2  0
 14 13  1  0
 15 14  2  0
 16 15  1  0
 17 16  2  0
 17 12  1  0
 18  6  1  0
 19 18  1  0
 20 19  2  0
 21 19  1  0
  1 22  1  0
  9 23  1  0
  9 24  1  0
  9 25  1  0
 11 26  1  0
 13 27  1  0
 14 28  1  0
 15 29  1  0
 16 30  1  0
 17 31  1  0
 18 32  1  0
 18 33  1  0
M  CHG  1  21  -1
M  END
>  <score>  (9) 
-6.912

$$$$
