=
     RDKit          3D

 42 44  0  0  0  0  0  0  0  0999 V2000
   -0.6690   66.9850   67.7440 C   0  0  0  0  0  0  0  0  0  0  0  0
   -1.9760   67.4680   67.6570 C   0  0  0  0  0  0  0  0  0  0  0  0
   -2.3550   68.3090   66.6080 C   0  0  0  0  0  0  0  0  0  0  0  0
   -1.4280   68.6770   65.6350 C   0  0  0  0  0  0  0  0  0  0  0  0
   -0.1140   68.2070   65.7120 C   0  0  0  0  0  0  0  0  0  0  0  0
    0.2610   67.3570   66.7620 C   0  0  0  0  0  0  0  0  0  0  0  0
    0.7970   66.3460   69.6730 C   0  0  0  0  0  0  0  0  0  0  0  0
    1.5440   67.3160   69.7110 O   0  0  0  0  0  0  0  0  0  0  0  0
   -0.2180   66.1160   68.7600 N   0  0  0  0  0  0  0  0  0  0  0  0
    1.7040   62.0920   73.5080 C   0  0  0  0  0  0  0  0  0  0  0  0
    1.4440   63.1790   72.5050 C   0  0  0  0  0  0  0  0  0  0  0  0
    2.3260   63.3800   71.4380 C   0  0  0  0  0  0  0  0  0  0  0  0
    2.1060   64.4140   70.5250 C   0  0  0  0  0  0  0  0  0  0  0  0
    0.9990   65.2570   70.6690 C   0  0  0  0  0  0  0  0  0  0  0  0
    0.1300   65.0810   71.7540 C   0  0  0  0  0  0  0  0  0  0  0  0
    0.3550   64.0450   72.6660 C   0  0  0  0  0  0  0  0  0  0  0  0
    0.8470   68.6240   64.6600 C   0  0  0  0  0  0  0  0  0  0  0  0
    0.5510   69.4250   63.7810 O   0  0  0  0  0  0  0  0  0  0  0  0
    2.2380   68.0430   64.6570 C   0  0  0  0  0  0  0  0  0  0  0  0
    2.4350   66.9560   64.1270 O   0  0  0  0  0  0  0  0  0  0  0  0
    3.3020   68.8170   65.3320 C   0  0  0  0  0  0  0  0  0  0  0  0
    4.4640   69.1350   64.6370 C   0  0  0  0  0  0  0  0  0  0  0  0
    5.4570   69.8430   65.3070 C   0  0  0  0  0  0  0  0  0  0  0  0
    5.2600   70.2000   66.6380 C   0  0  0  0  0  0  0  0  0  0  0  0
    4.0740   69.8290   67.2520 C   0  0  0  0  0  0  0  0  0  0  0  0
    3.0920   69.1390   66.6320 N   0  0  0  0  0  0  0  0  0  0  0  0
   -2.7141   67.1837   68.4215 H   0  0  0  0  0  0  0  0  0  0  0  0
   -3.3883   68.6818   66.5499 H   0  0  0  0  0  0  0  0  0  0  0  0
   -1.7298   69.3362   64.8078 H   0  0  0  0  0  0  0  0  0  0  0  0
    1.2925   66.9789   66.8162 H   0  0  0  0  0  0  0  0  0  0  0  0
   -0.6983   65.2076   68.8304 H   0  0  0  0  0  0  0  0  0  0  0  0
    1.6063   62.5003   74.5248 H   0  0  0  0  0  0  0  0  0  0  0  0
    0.9745   61.2808   73.3670 H   0  0  0  0  0  0  0  0  0  0  0  0
    2.7216   61.6987   73.3670 H   0  0  0  0  0  0  0  0  0  0  0  0
    3.1977   62.7201   71.3173 H   0  0  0  0  0  0  0  0  0  0  0  0
    2.8057   64.5659   69.6899 H   0  0  0  0  0  0  0  0  0  0  0  0
   -0.7277   65.7566   71.8882 H   0  0  0  0  0  0  0  0  0  0  0  0
   -0.3289   63.9091   73.5168 H   0  0  0  0  0  0  0  0  0  0  0  0
    4.5944   68.8351   63.5867 H   0  0  0  0  0  0  0  0  0  0  0  0
    6.3883   70.1178   64.7901 H   0  0  0  0  0  0  0  0  0  0  0  0
    6.0273   70.7632   67.1894 H   0  0  0  0  0  0  0  0  0  0  0  0
    3.9239   70.1126   68.3042 H   0  0  0  0  0  0  0  0  0  0  0  0
  2  1  2  0
  3  2  1  0
  4  3  2  0
  5  4  1  0
  6  5  2  0
  6  1  1  0
  8  7  2  0
  9  7  1  0
  9  1  1  0
 11 10  1  0
 12 11  2  0
 13 12  1  0
 14 13  2  0
 14  7  1  0
 15 14  1  0
 16 15  2  0
 16 11  1  0
 17  5  1  0
 18 17  2  0
 19 17  1  0
 20 19  2  0
 21 19  1  0
 22 21  2  0
 23 22  1  0
 24 23  2  0
 25 24  1  0
 26 21  1  0
 26 25  2  0
  2 27  1  0
  3 28  1  0
  4 29  1  0
  6 30  1  0
  9 31  1  0
 10 32  1  0
 10 33  1  0
 10 34  1  0
 12 35  1  0
 13 36  1  0
 15 37  1  0
 16 38  1  0
 22 39  1  0
 23 40  1  0
 24 41  1  0
 25 42  1  0
M  END
>  <score>  (1) 
-10.597

$$$$
=
     RDKit          3D

 42 44  0  0  0  0  0  0  0  0999 V2000
    0.1240   66.5310   68.7950 C   0  0  0  0  0  0  0  0  0  0  0  0
   -1.1160   66.7590   68.1950 C   0  0  0  0  0  0  0  0  0  0  0  0
   -1.3600   67.9410   67.4920 C   0  0  0  0  0  0  0  0  0  0  0  0
   -0.3640   68.9090   67.3830 C   0  0  0  0  0  0  0  0  0  0  0  0
    0.8800   68.6990   67.9830 C   0  0  0  0  0  0  0  0  0  0  0  0
    1.1250   67.5080   68.6820 C   0  0  0  0  0  0  0  0  0  0  0  0
    0.2570   65.1030   70.8490 C   0  0  0  0  0  0  0  0  0  0  0  0
   -0.1600   65.8890   71.6900 O   0  0  0  0  0  0  0  0  0  0  0  0
    0.4520   65.3540   69.5020 N   0  0  0  0  0  0  0  0  0  0  0  0
    1.9110   59.8100   72.5450 C   0  0  0  0  0  0  0  0  0  0  0  0
    1.4620   61.1670   72.0870 C   0  0  0  0  0  0  0  0  0  0  0  0
    2.3280   61.9870   71.3550 C   0  0  0  0  0  0  0  0  0  0  0  0
    1.9260   63.2650   70.9600 C   0  0  0  0  0  0  0  0  0  0  0  0
    0.6510   63.7350   71.2910 C   0  0  0  0  0  0  0  0  0  0  0  0
   -0.2090   62.9310   72.0520 C   0  0  0  0  0  0  0  0  0  0  0  0
    0.1990   61.6540   72.4460 C   0  0  0  0  0  0  0  0  0  0  0  0
    1.9160   69.7550   67.8500 C   0  0  0  0  0  0  0  0  0  0  0  0
    1.8360   70.8290   68.4330 O   0  0  0  0  0  0  0  0  0  0  0  0
    3.1100   69.5120   66.9620 C   0  0  0  0  0  0  0  0  0  0  0  0
    2.9560   68.9360   65.8920 O   0  0  0  0  0  0  0  0  0  0  0  0
    4.4290   69.9650   67.4540 C   0  0  0  0  0  0  0  0  0  0  0  0
    5.5360   69.8890   66.6170 C   0  0  0  0  0  0  0  0  0  0  0  0
    6.7680   70.3000   67.1170 C   0  0  0  0  0  0  0  0  0  0  0  0
    6.8510   70.7630   68.4260 C   0  0  0  0  0  0  0  0  0  0  0  0
    5.6960   70.7920   69.1910 C   0  0  0  0  0  0  0  0  0  0  0  0
    4.4860   70.3970   68.7380 N   0  0  0  0  0  0  0  0  0  0  0  0
   -1.9084   66.0004   68.2768 H   0  0  0  0  0  0  0  0  0  0  0  0
   -2.3410   68.1080   67.0232 H   0  0  0  0  0  0  0  0  0  0  0  0
   -0.5568   69.8373   66.8253 H   0  0  0  0  0  0  0  0  0  0  0  0
    2.1084   67.3386   69.1448 H   0  0  0  0  0  0  0  0  0  0  0  0
    0.8850   64.5971   68.9539 H   0  0  0  0  0  0  0  0  0  0  0  0
    1.9213   59.7789   73.6445 H   0  0  0  0  0  0  0  0  0  0  0  0
    1.2177   59.0461   72.1631 H   0  0  0  0  0  0  0  0  0  0  0  0
    2.9231   59.6104   72.1631 H   0  0  0  0  0  0  0  0  0  0  0  0
    3.3314   61.6229   71.0891 H   0  0  0  0  0  0  0  0  0  0  0  0
    2.6142   63.9037   70.3869 H   0  0  0  0  0  0  0  0  0  0  0  0
   -1.2031   63.3047   72.3384 H   0  0  0  0  0  0  0  0  0  0  0  0
   -0.4779   61.0256   73.0435 H   0  0  0  0  0  0  0  0  0  0  0  0
    5.4409   69.5141   65.5872 H   0  0  0  0  0  0  0  0  0  0  0  0
    7.6665   70.2591   66.4838 H   0  0  0  0  0  0  0  0  0  0  0  0
    7.8115   71.0984   68.8443 H   0  0  0  0  0  0  0  0  0  0  0  0
    5.7684   71.1574   70.2260 H   0  0  0  0  0  0  0  0  0  0  0  0
  2  1  2  0
  3  2  1  0
  4  3  2  0
  5  4  1  0
  6  5  2  0
  6  1  1  0
  8  7  2  0
  9  7  1  0
  9  1  1  0
 11 10  1  0
 12 11  2  0
 13 12  1  0
 14 13  2  0
 14  7  1  0
 15 14  1  0
 16 15  2  0
 16 11  1  0
 17  5  1  0
 18 17  2  0
 19 17  1  0
 20 19  2  0
 21 19  1  0
 22 21  2  0
 23 22  1  0
 24 23  2  0
 25 24  1  0
 26 21  1  0
 26 25  2  0
  2 27  1  0
  3 28  1  0
  4 29  1  0
  6 30  1  0
  9 31  1  0
 10 32  1  0
 10 33  1  0
 10 34  1  0
 12 35  1  0
 13 36  1  0
 15 37  1  0
 16 38  1  0
 22 39  1  0
 23 40  1  0
 24 41  1  0
 25 42  1  0
M  END
>  <score>  (2) 
-10.443

$$$$
=
     RDKit          3D

 42 44  0  0  0  0  0  0  0  0999 V2000
    0.7820   64.5060   70.8750 C   0  0  0  0  0  0  0  0  0  0  0  0
    0.2520   64.3400   72.1560 C   0  0  0  0  0  0  0  0  0  0  0  0
    0.8850   63.5110   73.0860 C   0  0  0  0  0  0  0  0  0  0  0  0
    2.0560   62.8390   72.7420 C   0  0  0  0  0  0  0  0  0  0  0  0
    2.5960   62.9900   71.4620 C   0  0  0  0  0  0  0  0  0  0  0  0
    1.9620   63.8280   70.5330 C   0  0  0  0  0  0  0  0  0  0  0  0
    0.6670   66.5810   69.4770 C   0  0  0  0  0  0  0  0  0  0  0  0
    1.6010   67.2170   69.9500 O   0  0  0  0  0  0  0  0  0  0  0  0
    0.2130   65.3420   69.8900 N   0  0  0  0  0  0  0  0  0  0  0  0
   -2.4900   68.9240   65.2140 C   0  0  0  0  0  0  0  0  0  0  0  0
   -1.6550   68.3040   66.2960 C   0  0  0  0  0  0  0  0  0  0  0  0
   -2.2100   67.3490   67.1570 C   0  0  0  0  0  0  0  0  0  0  0  0
   -1.4460   66.7980   68.1870 C   0  0  0  0  0  0  0  0  0  0  0  0
   -0.1170   67.1950   68.3680 C   0  0  0  0  0  0  0  0  0  0  0  0
    0.4340   68.1740   67.5310 C   0  0  0  0  0  0  0  0  0  0  0  0
   -0.3350   68.7240   66.5010 C   0  0  0  0  0  0  0  0  0  0  0  0
    3.8420   62.2540   71.1300 C   0  0  0  0  0  0  0  0  0  0  0  0
    4.5100   62.5120   70.1350 O   0  0  0  0  0  0  0  0  0  0  0  0
    4.3090   61.1430   72.0350 C   0  0  0  0  0  0  0  0  0  0  0  0
    5.2150   61.3590   72.8330 O   0  0  0  0  0  0  0  0  0  0  0  0
    3.6580   59.8240   71.8890 C   0  0  0  0  0  0  0  0  0  0  0  0
    2.7560   59.3930   72.8550 C   0  0  0  0  0  0  0  0  0  0  0  0
    2.1790   58.1360   72.7010 C   0  0  0  0  0  0  0  0  0  0  0  0
    2.5240   57.3580   71.6010 C   0  0  0  0  0  0  0  0  0  0  0  0
    3.4420   57.8660   70.6950 C   0  0  0  0  0  0  0  0  0  0  0  0
    4.0240   59.0790   70.8160 N   0  0  0  0  0  0  0  0  0  0  0  0
   -0.6723   64.8666   72.4358 H   0  0  0  0  0  0  0  0  0  0  0  0
    0.4577   63.3887   74.0922 H   0  0  0  0  0  0  0  0  0  0  0  0
    2.5549   62.1903   73.4771 H   0  0  0  0  0  0  0  0  0  0  0  0
    2.3930   63.9547   69.5289 H   0  0  0  0  0  0  0  0  0  0  0  0
   -0.6364   64.9891   69.4266 H   0  0  0  0  0  0  0  0  0  0  0  0
   -3.2943   69.5212   65.6683 H   0  0  0  0  0  0  0  0  0  0  0  0
   -1.8584   69.5737   64.5903 H   0  0  0  0  0  0  0  0  0  0  0  0
   -2.9293   68.1315   64.5903 H   0  0  0  0  0  0  0  0  0  0  0  0
   -3.2543   67.0312   67.0207 H   0  0  0  0  0  0  0  0  0  0  0  0
   -1.8906   66.0489   68.8588 H   0  0  0  0  0  0  0  0  0  0  0  0
    1.4703   68.5096   67.6840 H   0  0  0  0  0  0  0  0  0  0  0  0
    0.1006   69.4931   65.8462 H   0  0  0  0  0  0  0  0  0  0  0  0
    2.5052   60.0281   73.7174 H   0  0  0  0  0  0  0  0  0  0  0  0
    1.4573   57.7615   73.4419 H   0  0  0  0  0  0  0  0  0  0  0  0
    2.0789   56.3630   71.4534 H   0  0  0  0  0  0  0  0  0  0  0  0
    3.7120   57.2457   69.8277 H   0  0  0  0  0  0  0  0  0  0  0  0
  2  1  2  0
  3  2  1  0
  4  3  2  0
  5  4  1  0
  6  5  2  0
  6  1  1  0
  8  7  2  0
  9  7  1  0
  9  1  1  0
 11 10  1  0
 12 11  2  0
 13 12  1  0
 14 13  2  0
 14  7  1  0
 15 14  1  0
 16 15  2  0
 16 11  1  0
 17  5  1  0
 18 17  2  0
 19 17  1  0
 20 19  2  0
 21 19  1  0
 22 21  2  0
 23 22  1  0
 24 23  2  0
 25 24  1  0
 26 21  1  0
 26 25  2  0
  2 27  1  0
  3 28  1  0
  4 29  1  0
  6 30  1  0
  9 31  1  0
 10 32  1  0
 10 33  1  0
 10 34  1  0
 12 35  1  0
 13 36  1  0
 15 37  1  0
 16 38  1  0
 22 39  1  0
 23 40  1  0
 24 41  1  0
 25 42  1  0
M  END
>  <score>  (3) 
-10.082

$$$$
=
     RDKit          3D

 42 44  0  0  0  0  0  0  0  0999 V2000
   -0.6910   66.9830   67.7730 C   0  0  0  0  0  0  0  0  0  0  0  0
   -1.9940   67.4790   67.6860 C   0  0  0  0  0  0  0  0  0  0  0  0
   -2.3680   68.3150   66.6300 C   0  0  0  0  0  0  0  0  0  0  0  0
   -1.4400   68.6640   65.6510 C   0  0  0  0  0  0  0  0  0  0  0  0
   -0.1310   68.1810   65.7270 C   0  0  0  0  0  0  0  0  0  0  0  0
    0.2390   67.3360   66.7840 C   0  0  0  0  0  0  0  0  0  0  0  0
    0.7790   66.3430   69.6970 C   0  0  0  0  0  0  0  0  0  0  0  0
    1.5420   67.3010   69.7180 O   0  0  0  0  0  0  0  0  0  0  0  0
   -0.2460   66.1180   68.7950 N   0  0  0  0  0  0  0  0  0  0  0  0
    1.4120   62.1530   73.6550 C   0  0  0  0  0  0  0  0  0  0  0  0
    1.2730   63.2510   72.6410 C   0  0  0  0  0  0  0  0  0  0  0  0
    0.2010   64.1480   72.7130 C   0  0  0  0  0  0  0  0  0  0  0  0
    0.0510   65.1470   71.7490 C   0  0  0  0  0  0  0  0  0  0  0  0
    0.9730   65.2620   70.7040 C   0  0  0  0  0  0  0  0  0  0  0  0
    2.0290   64.3470   70.6080 C   0  0  0  0  0  0  0  0  0  0  0  0
    2.1760   63.3470   71.5740 C   0  0  0  0  0  0  0  0  0  0  0  0
    0.8310   68.5780   64.6690 C   0  0  0  0  0  0  0  0  0  0  0  0
    0.4680   69.0090   63.5800 O   0  0  0  0  0  0  0  0  0  0  0  0
    2.3100   68.4450   64.9260 C   0  0  0  0  0  0  0  0  0  0  0  0
    2.9080   69.3570   65.4860 O   0  0  0  0  0  0  0  0  0  0  0  0
    2.9770   67.2130   64.4530 C   0  0  0  0  0  0  0  0  0  0  0  0
    3.8940   67.2860   63.4100 C   0  0  0  0  0  0  0  0  0  0  0  0
    4.4860   66.1060   62.9720 C   0  0  0  0  0  0  0  0  0  0  0  0
    4.1400   64.9030   63.5800 C   0  0  0  0  0  0  0  0  0  0  0  0
    3.2070   64.9260   64.6050 C   0  0  0  0  0  0  0  0  0  0  0  0
    2.6110   66.0530   65.0520 N   0  0  0  0  0  0  0  0  0  0  0  0
   -2.7324   67.2093   68.4554 H   0  0  0  0  0  0  0  0  0  0  0  0
   -3.3974   68.6983   66.5717 H   0  0  0  0  0  0  0  0  0  0  0  0
   -1.7376   69.3192   64.8190 H   0  0  0  0  0  0  0  0  0  0  0  0
    1.2666   66.9472   66.8376 H   0  0  0  0  0  0  0  0  0  0  0  0
   -0.7396   65.2179   68.8791 H   0  0  0  0  0  0  0  0  0  0  0  0
    1.3580   62.5798   74.6674 H   0  0  0  0  0  0  0  0  0  0  0  0
    0.5989   61.4245   73.5204 H   0  0  0  0  0  0  0  0  0  0  0  0
    2.3810   61.6501   73.5204 H   0  0  0  0  0  0  0  0  0  0  0  0
   -0.5272   64.0656   73.5333 H   0  0  0  0  0  0  0  0  0  0  0  0
   -0.7958   65.8463   71.8119 H   0  0  0  0  0  0  0  0  0  0  0  0
    2.7421   64.4151   69.7733 H   0  0  0  0  0  0  0  0  0  0  0  0
    3.0068   62.6303   71.4957 H   0  0  0  0  0  0  0  0  0  0  0  0
    4.1443   68.2505   62.9442 H   0  0  0  0  0  0  0  0  0  0  0  0
    5.2203   66.1236   62.1532 H   0  0  0  0  0  0  0  0  0  0  0  0
    4.5961   63.9562   63.2549 H   0  0  0  0  0  0  0  0  0  0  0  0
    2.9365   63.9722   65.0816 H   0  0  0  0  0  0  0  0  0  0  0  0
  2  1  2  0
  3  2  1  0
  4  3  2  0
  5  4  1  0
  6  5  2  0
  6  1  1  0
  8  7  2  0
  9  7  1  0
  9  1  1  0
 11 10  1  0
 12 11  2  0
 13 12  1  0
 14 13  2  0
 14  7  1  0
 15 14  1  0
 16 15  2  0
 16 11  1  0
 17  5  1  0
 18 17  2  0
 19 17  1  0
 20 19  2  0
 21 19  1  0
 22 21  2  0
 23 22  1  0
 24 23  2  0
 25 24  1  0
 26 21  1  0
 26 25  2  0
  2 27  1  0
  3 28  1  0
  4 29  1  0
  6 30  1  0
  9 31  1  0
 10 32  1  0
 10 33  1  0
 10 34  1  0
 12 35  1  0
 13 36  1  0
 15 37  1  0
 16 38  1  0
 22 39  1  0
 23 40  1  0
 24 41  1  0
 25 42  1  0
M  END
>  <score>  (4) 
-10.068

$$$$
=
     RDKit          3D

 42 44  0  0  0  0  0  0  0  0999 V2000
    1.4280   69.1910   66.5030 C   0  0  0  0  0  0  0  0  0  0  0  0
    0.2220   69.0350   67.1900 C   0  0  0  0  0  0  0  0  0  0  0  0
   -0.9470   68.6920   66.5060 C   0  0  0  0  0  0  0  0  0  0  0  0
   -0.9210   68.5020   65.1260 C   0  0  0  0  0  0  0  0  0  0  0  0
    0.2760   68.6610   64.4230 C   0  0  0  0  0  0  0  0  0  0  0  0
    1.4490   68.9980   65.1140 C   0  0  0  0  0  0  0  0  0  0  0  0
    3.8950   69.6230   66.5280 C   0  0  0  0  0  0  0  0  0  0  0  0
    4.1730   69.3760   65.3610 O   0  0  0  0  0  0  0  0  0  0  0  0
    2.6520   69.5140   67.1260 N   0  0  0  0  0  0  0  0  0  0  0  0
    8.2420   71.2770   69.9910 C   0  0  0  0  0  0  0  0  0  0  0  0
    7.1140   70.8230   69.1110 C   0  0  0  0  0  0  0  0  0  0  0  0
    7.3490   70.5110   67.7670 C   0  0  0  0  0  0  0  0  0  0  0  0
    6.2940   70.1240   66.9380 C   0  0  0  0  0  0  0  0  0  0  0  0
    4.9930   70.0430   67.4440 C   0  0  0  0  0  0  0  0  0  0  0  0
    4.7470   70.3860   68.7800 C   0  0  0  0  0  0  0  0  0  0  0  0
    5.8050   70.7740   69.6070 C   0  0  0  0  0  0  0  0  0  0  0  0
    0.2640   68.4550   62.9530 C   0  0  0  0  0  0  0  0  0  0  0  0
   -0.6540   67.8820   62.3780 O   0  0  0  0  0  0  0  0  0  0  0  0
    1.4200   68.9580   62.1270 C   0  0  0  0  0  0  0  0  0  0  0  0
    1.2270   69.8380   61.2950 O   0  0  0  0  0  0  0  0  0  0  0  0
    2.7410   68.3310   62.3470 C   0  0  0  0  0  0  0  0  0  0  0  0
    3.8940   69.0160   61.9830 C   0  0  0  0  0  0  0  0  0  0  0  0
    5.1210   68.3890   62.1800 C   0  0  0  0  0  0  0  0  0  0  0  0
    5.1520   67.1100   62.7250 C   0  0  0  0  0  0  0  0  0  0  0  0
    3.9500   66.5000   63.0480 C   0  0  0  0  0  0  0  0  0  0  0  0
    2.7420   67.0780   62.8650 N   0  0  0  0  0  0  0  0  0  0  0  0
    0.1923   69.1835   68.2795 H   0  0  0  0  0  0  0  0  0  0  0  0
   -1.8905   68.5716   67.0585 H   0  0  0  0  0  0  0  0  0  0  0  0
   -1.8417   68.2271   64.5906 H   0  0  0  0  0  0  0  0  0  0  0  0
    2.3935   69.1119   64.5618 H   0  0  0  0  0  0  0  0  0  0  0  0
    2.6162   69.6883   68.1405 H   0  0  0  0  0  0  0  0  0  0  0  0
    7.9535   71.1609   71.0461 H   0  0  0  0  0  0  0  0  0  0  0  0
    9.1349   70.6682   69.7859 H   0  0  0  0  0  0  0  0  0  0  0  0
    8.4642   72.3346   69.7859 H   0  0  0  0  0  0  0  0  0  0  0  0
    8.3699   70.5709   67.3617 H   0  0  0  0  0  0  0  0  0  0  0  0
    6.4872   69.8819   65.8825 H   0  0  0  0  0  0  0  0  0  0  0  0
    3.7221   70.3500   69.1778 H   0  0  0  0  0  0  0  0  0  0  0  0
    5.6081   71.0429   70.6553 H   0  0  0  0  0  0  0  0  0  0  0  0
    3.8385   70.0261   61.5510 H   0  0  0  0  0  0  0  0  0  0  0  0
    6.0563   68.8998   61.9075 H   0  0  0  0  0  0  0  0  0  0  0  0
    6.1085   66.5942   62.8958 H   0  0  0  0  0  0  0  0  0  0  0  0
    3.9810   65.4879   63.4777 H   0  0  0  0  0  0  0  0  0  0  0  0
  2  1  2  0
  3  2  1  0
  4  3  2  0
  5  4  1  0
  6  5  2  0
  6  1  1  0
  8  7  2  0
  9  7  1  0
  9  1  1  0
 11 10  1  0
 12 11  2  0
 13 12  1  0
 14 13  2  0
 14  7  1  0
 15 14  1  0
 16 15  2  0
 16 11  1  0
 17  5  1  0
 18 17  2  0
 19 17  1  0
 20 19  2  0
 21 19  1  0
 22 21  2  0
 23 22  1  0
 24 23  2  0
 25 24  1  0
 26 21  1  0
 26 25  2  0
  2 27  1  0
  3 28  1  0
  4 29  1  0
  6 30  1  0
  9 31  1  0
 10 32  1  0
 10 33  1  0
 10 34  1  0
 12 35  1  0
 13 36  1  0
 15 37  1  0
 16 38  1  0
 22 39  1  0
 23 40  1  0
 24 41  1  0
 25 42  1  0
M  END
>  <score>  (5) 
-9.759

$$$$
=
     RDKit          3D

 42 44  0  0  0  0  0  0  0  0999 V2000
    1.3310   67.2440   68.9640 C   0  0  0  0  0  0  0  0  0  0  0  0
    2.1000   68.3510   69.3290 C   0  0  0  0  0  0  0  0  0  0  0  0
    1.9630   69.5660   68.6530 C   0  0  0  0  0  0  0  0  0  0  0  0
    1.0540   69.6850   67.6030 C   0  0  0  0  0  0  0  0  0  0  0  0
    0.2820   68.5840   67.2220 C   0  0  0  0  0  0  0  0  0  0  0  0
    0.4170   67.3680   67.9080 C   0  0  0  0  0  0  0  0  0  0  0  0
    0.5960   65.5380   70.6450 C   0  0  0  0  0  0  0  0  0  0  0  0
   -0.2650   66.1740   71.2400 O   0  0  0  0  0  0  0  0  0  0  0  0
    1.3980   65.9920   69.6130 N   0  0  0  0  0  0  0  0  0  0  0  0
    1.7920   60.1140   72.3120 C   0  0  0  0  0  0  0  0  0  0  0  0
    1.4610   61.5070   71.8620 C   0  0  0  0  0  0  0  0  0  0  0  0
    2.3940   62.2550   71.1340 C   0  0  0  0  0  0  0  0  0  0  0  0
    2.1020   63.5640   70.7460 C   0  0  0  0  0  0  0  0  0  0  0  0
    0.8720   64.1400   71.0800 C   0  0  0  0  0  0  0  0  0  0  0  0
   -0.0530   63.4080   71.8370 C   0  0  0  0  0  0  0  0  0  0  0  0
    0.2440   62.0980   72.2250 C   0  0  0  0  0  0  0  0  0  0  0  0
   -0.6720   68.7460   66.0960 C   0  0  0  0  0  0  0  0  0  0  0  0
   -1.8440   69.0570   66.2700 O   0  0  0  0  0  0  0  0  0  0  0  0
   -0.1960   68.5150   64.6840 C   0  0  0  0  0  0  0  0  0  0  0  0
   -0.9710   68.6970   63.7520 O   0  0  0  0  0  0  0  0  0  0  0  0
    1.1940   68.0460   64.5010 C   0  0  0  0  0  0  0  0  0  0  0  0
    2.1880   68.9600   64.1690 C   0  0  0  0  0  0  0  0  0  0  0  0
    3.4820   68.4830   63.9790 C   0  0  0  0  0  0  0  0  0  0  0  0
    3.7330   67.1220   64.1190 C   0  0  0  0  0  0  0  0  0  0  0  0
    2.6770   66.2840   64.4400 C   0  0  0  0  0  0  0  0  0  0  0  0
    1.4090   66.7130   64.6270 N   0  0  0  0  0  0  0  0  0  0  0  0
    2.8201   68.2656   70.1562 H   0  0  0  0  0  0  0  0  0  0  0  0
    2.5741   70.4310   68.9502 H   0  0  0  0  0  0  0  0  0  0  0  0
    0.9444   70.6438   67.0751 H   0  0  0  0  0  0  0  0  0  0  0  0
   -0.1990   66.5050   67.6152 H   0  0  0  0  0  0  0  0  0  0  0  0
    2.1260   65.3435   69.2808 H   0  0  0  0  0  0  0  0  0  0  0  0
    1.8010   60.0762   73.4113 H   0  0  0  0  0  0  0  0  0  0  0  0
    1.0350   59.4148   71.9273 H   0  0  0  0  0  0  0  0  0  0  0  0
    2.7826   59.8300   71.9273 H   0  0  0  0  0  0  0  0  0  0  0  0
    3.3630   61.8087   70.8661 H   0  0  0  0  0  0  0  0  0  0  0  0
    2.8420   64.1445   70.1755 H   0  0  0  0  0  0  0  0  0  0  0  0
   -1.0117   63.8637   72.1256 H   0  0  0  0  0  0  0  0  0  0  0  0
   -0.4838   61.5269   72.8201 H   0  0  0  0  0  0  0  0  0  0  0  0
    1.9582   70.0302   64.0595 H   0  0  0  0  0  0  0  0  0  0  0  0
    4.2972   69.1750   63.7209 H   0  0  0  0  0  0  0  0  0  0  0  0
    4.7471   66.7199   63.9781 H   0  0  0  0  0  0  0  0  0  0  0  0
    2.8824   65.2088   64.5488 H   0  0  0  0  0  0  0  0  0  0  0  0
  2  1  2  0
  3  2  1  0
  4  3  2  0
  5  4  1  0
  6  5  2  0
  6  1  1  0
  8  7  2  0
  9  7  1  0
  9  1  1  0
 11 10  1  0
 12 11  2  0
 13 12  1  0
 14 13  2  0
 14  7  1  0
 15 14  1  0
 16 15  2  0
 16 11  1  0
 17  5  1  0
 18 17  2  0
 19 17  1  0
 20 19  2  0
 21 19  1  0
 22 21  2  0
 23 22  1  0
 24 23  2  0
 25 24  1  0
 26 21  1  0
 26 25  2  0
  2 27  1  0
  3 28  1  0
  4 29  1  0
  6 30  1  0
  9 31  1  0
 10 32  1  0
 10 33  1  0
 10 34  1  0
 12 35  1  0
 13 36  1  0
 15 37  1  0
 16 38  1  0
 22 39  1  0
 23 40  1  0
 24 41  1  0
 25 42  1  0
M  END
>  <score>  (6) 
-9.747

$$$$
=
     RDKit          3D

 42 44  0  0  0  0  0  0  0  0999 V2000
    0.5530   66.7100   68.8150 C   0  0  0  0  0  0  0  0  0  0  0  0
   -0.6450   66.9080   68.1250 C   0  0  0  0  0  0  0  0  0  0  0  0
   -0.8780   68.0990   67.4320 C   0  0  0  0  0  0  0  0  0  0  0  0
    0.0860   69.1050   67.4240 C   0  0  0  0  0  0  0  0  0  0  0  0
    1.2870   68.9250   68.1150 C   0  0  0  0  0  0  0  0  0  0  0  0
    1.5210   67.7250   68.8030 C   0  0  0  0  0  0  0  0  0  0  0  0
    0.4800   65.1850   70.8000 C   0  0  0  0  0  0  0  0  0  0  0  0
   -0.1430   65.8840   71.5910 O   0  0  0  0  0  0  0  0  0  0  0  0
    0.8690   65.5280   69.5180 N   0  0  0  0  0  0  0  0  0  0  0  0
    2.0810   59.8950   72.5550 C   0  0  0  0  0  0  0  0  0  0  0  0
    1.6860   61.2760   72.1210 C   0  0  0  0  0  0  0  0  0  0  0  0
    0.3940   61.7520   72.3690 C   0  0  0  0  0  0  0  0  0  0  0  0
    0.0130   63.0230   71.9330 C   0  0  0  0  0  0  0  0  0  0  0  0
    0.9230   63.8340   71.2460 C   0  0  0  0  0  0  0  0  0  0  0  0
    2.2080   63.3500   70.9660 C   0  0  0  0  0  0  0  0  0  0  0  0
    2.5840   62.0770   71.4020 C   0  0  0  0  0  0  0  0  0  0  0  0
    2.2890   70.0200   68.0880 C   0  0  0  0  0  0  0  0  0  0  0  0
    2.0340   71.1510   68.4850 O   0  0  0  0  0  0  0  0  0  0  0  0
    3.6700   69.7470   67.5500 C   0  0  0  0  0  0  0  0  0  0  0  0
    4.6330   69.8060   68.3060 O   0  0  0  0  0  0  0  0  0  0  0  0
    3.7930   69.4470   66.1070 C   0  0  0  0  0  0  0  0  0  0  0  0
    5.0170   69.6240   65.4720 C   0  0  0  0  0  0  0  0  0  0  0  0
    5.0940   69.3570   64.1080 C   0  0  0  0  0  0  0  0  0  0  0  0
    3.9550   68.9320   63.4320 C   0  0  0  0  0  0  0  0  0  0  0  0
    2.7760   68.7950   64.1460 C   0  0  0  0  0  0  0  0  0  0  0  0
    2.6650   69.0500   65.4680 N   0  0  0  0  0  0  0  0  0  0  0  0
   -1.4120   66.1195   68.1270 H   0  0  0  0  0  0  0  0  0  0  0  0
   -1.8251   68.2427   66.8913 H   0  0  0  0  0  0  0  0  0  0  0  0
   -0.0982   70.0398   66.8743 H   0  0  0  0  0  0  0  0  0  0  0  0
    2.4713   67.5789   69.3374 H   0  0  0  0  0  0  0  0  0  0  0  0
    1.4557   64.8433   69.0201 H   0  0  0  0  0  0  0  0  0  0  0  0
    2.0950   59.8459   73.6538 H   0  0  0  0  0  0  0  0  0  0  0  0
    1.3553   59.1664   72.1647 H   0  0  0  0  0  0  0  0  0  0  0  0
    3.0823   59.6603   72.1647 H   0  0  0  0  0  0  0  0  0  0  0  0
   -0.3262   61.1213   72.9107 H   0  0  0  0  0  0  0  0  0  0  0  0
   -1.0059   63.3877   72.1304 H   0  0  0  0  0  0  0  0  0  0  0  0
    2.9200   63.9718   70.4034 H   0  0  0  0  0  0  0  0  0  0  0  0
    3.5931   61.7002   71.1792 H   0  0  0  0  0  0  0  0  0  0  0  0
    5.9001   69.9656   66.0319 H   0  0  0  0  0  0  0  0  0  0  0  0
    6.0456   69.4808   63.5703 H   0  0  0  0  0  0  0  0  0  0  0  0
    3.9898   68.7098   62.3552 H   0  0  0  0  0  0  0  0  0  0  0  0
    1.8786   68.4593   63.6056 H   0  0  0  0  0  0  0  0  0  0  0  0
  2  1  2  0
  3  2  1  0
  4  3  2  0
  5  4  1  0
  6  5  2  0
  6  1  1  0
  8  7  2  0
  9  7  1  0
  9  1  1  0
 11 10  1  0
 12 11  2  0
 13 12  1  0
 14 13  2  0
 14  7  1  0
 15 14  1  0
 16 15  2  0
 16 11  1  0
 17  5  1  0
 18 17  2  0
 19 17  1  0
 20 19  2  0
 21 19  1  0
 22 21  2  0
 23 22  1  0
 24 23  2  0
 25 24  1  0
 26 21  1  0
 26 25  2  0
  2 27  1  0
  3 28  1  0
  4 29  1  0
  6 30  1  0
  9 31  1  0
 10 32  1  0
 10 33  1  0
 10 34  1  0
 12 35  1  0
 13 36  1  0
 15 37  1  0
 16 38  1  0
 22 39  1  0
 23 40  1  0
 24 41  1  0
 25 42  1  0
M  END
>  <score>  (7) 
-9.614

$$$$
=
     RDKit          3D

 42 44  0  0  0  0  0  0  0  0999 V2000
    1.0110   64.6170   70.4180 C   0  0  0  0  0  0  0  0  0  0  0  0
    2.3730   64.3450   70.2780 C   0  0  0  0  0  0  0  0  0  0  0  0
    3.0230   63.4870   71.1690 C   0  0  0  0  0  0  0  0  0  0  0  0
    2.3140   62.8930   72.2120 C   0  0  0  0  0  0  0  0  0  0  0  0
    0.9520   63.1610   72.3690 C   0  0  0  0  0  0  0  0  0  0  0  0
    0.3010   64.0160   71.4680 C   0  0  0  0  0  0  0  0  0  0  0  0
    0.6080   66.7390   69.1490 C   0  0  0  0  0  0  0  0  0  0  0  0
    1.5460   67.4150   69.5500 O   0  0  0  0  0  0  0  0  0  0  0  0
    0.2820   65.4530   69.5450 N   0  0  0  0  0  0  0  0  0  0  0  0
   -3.1490   69.0350   65.3750 C   0  0  0  0  0  0  0  0  0  0  0  0
   -2.1600   68.4310   66.3290 C   0  0  0  0  0  0  0  0  0  0  0  0
   -2.5200   67.3350   67.1210 C   0  0  0  0  0  0  0  0  0  0  0  0
   -1.6130   66.7950   68.0350 C   0  0  0  0  0  0  0  0  0  0  0  0
   -0.3330   67.3450   68.1650 C   0  0  0  0  0  0  0  0  0  0  0  0
    0.0220   68.4620   67.3990 C   0  0  0  0  0  0  0  0  0  0  0  0
   -0.8890   69.0010   66.4860 C   0  0  0  0  0  0  0  0  0  0  0  0
    0.2310   62.5140   73.4950 C   0  0  0  0  0  0  0  0  0  0  0  0
    0.3780   62.8700   74.6580 O   0  0  0  0  0  0  0  0  0  0  0  0
   -0.7130   61.3730   73.2110 C   0  0  0  0  0  0  0  0  0  0  0  0
   -1.8680   61.6170   72.8810 O   0  0  0  0  0  0  0  0  0  0  0  0
   -0.1920   60.0000   73.3780 C   0  0  0  0  0  0  0  0  0  0  0  0
    1.0620   59.6760   72.8740 C   0  0  0  0  0  0  0  0  0  0  0  0
    1.5140   58.3680   73.0250 C   0  0  0  0  0  0  0  0  0  0  0  0
    0.7010   57.4370   73.6640 C   0  0  0  0  0  0  0  0  0  0  0  0
   -0.5400   57.8480   74.1240 C   0  0  0  0  0  0  0  0  0  0  0  0
   -1.0100   59.1080   73.9890 N   0  0  0  0  0  0  0  0  0  0  0  0
    2.9400   64.8106   69.4584 H   0  0  0  0  0  0  0  0  0  0  0  0
    4.0964   63.2798   71.0471 H   0  0  0  0  0  0  0  0  0  0  0  0
    2.8261   62.2145   72.9101 H   0  0  0  0  0  0  0  0  0  0  0  0
   -0.7741   64.2168   71.5855 H   0  0  0  0  0  0  0  0  0  0  0  0
   -0.5898   65.0628   69.1595 H   0  0  0  0  0  0  0  0  0  0  0  0
   -3.9531   69.5261   65.9426 H   0  0  0  0  0  0  0  0  0  0  0  0
   -2.6412   69.7773   64.7416 H   0  0  0  0  0  0  0  0  0  0  0  0
   -3.5774   68.2443   64.7416 H   0  0  0  0  0  0  0  0  0  0  0  0
   -3.5239   66.8961   67.0229 H   0  0  0  0  0  0  0  0  0  0  0  0
   -1.9056   65.9346   68.6547 H   0  0  0  0  0  0  0  0  0  0  0  0
    1.0175   68.9152   67.5156 H   0  0  0  0  0  0  0  0  0  0  0  0
   -0.6064   69.8788   65.8864 H   0  0  0  0  0  0  0  0  0  0  0  0
    1.6807   60.4327   72.3694 H   0  0  0  0  0  0  0  0  0  0  0  0
    2.5028   58.0738   72.6434 H   0  0  0  0  0  0  0  0  0  0  0  0
    1.0358   56.3982   73.8010 H   0  0  0  0  0  0  0  0  0  0  0  0
   -1.1784   57.1070   74.6273 H   0  0  0  0  0  0  0  0  0  0  0  0
  2  1  2  0
  3  2  1  0
  4  3  2  0
  5  4  1  0
  6  5  2  0
  6  1  1  0
  8  7  2  0
  9  7  1  0
  9  1  1  0
 11 10  1  0
 12 11  2  0
 13 12  1  0
 14 13  2  0
 14  7  1  0
 15 14  1  0
 16 15  2  0
 16 11  1  0
 17  5  1  0
 18 17  2  0
 19 17  1  0
 20 19  2  0
 21 19  1  0
 22 21  2  0
 23 22  1  0
 24 23  2  0
 25 24  1  0
 26 21  1  0
 26 25  2  0
  2 27  1  0
  3 28  1  0
  4 29  1  0
  6 30  1  0
  9 31  1  0
 10 32  1  0
 10 33  1  0
 10 34  1  0
 12 35  1  0
 13 36  1  0
 15 37  1  0
 16 38  1  0
 22 39  1  0
 23 40  1  0
 24 41  1  0
 25 42  1  0
M  END
>  <score>  (8) 
-9.416

$$$$
=
     RDKit          3D

 42 44  0  0  0  0  0  0  0  0999 V2000
   -0.2170   66.6430   69.0740 C   0  0  0  0  0  0  0  0  0  0  0  0
   -1.4540   66.8330   68.4530 C   0  0  0  0  0  0  0  0  0  0  0  0
   -1.5270   67.3320   67.1500 C   0  0  0  0  0  0  0  0  0  0  0  0
   -0.3610   67.6460   66.4540 C   0  0  0  0  0  0  0  0  0  0  0  0
    0.8830   67.4680   67.0630 C   0  0  0  0  0  0  0  0  0  0  0  0
    0.9540   66.9600   68.3690 C   0  0  0  0  0  0  0  0  0  0  0  0
    0.1230   64.8010   70.7370 C   0  0  0  0  0  0  0  0  0  0  0  0
    0.1050   63.8280   69.9940 O   0  0  0  0  0  0  0  0  0  0  0  0
   -0.0630   66.1240   70.3770 N   0  0  0  0  0  0  0  0  0  0  0  0
    0.9780   63.8380   76.3910 C   0  0  0  0  0  0  0  0  0  0  0  0
    0.7270   64.0800   74.9310 C   0  0  0  0  0  0  0  0  0  0  0  0
    1.3190   63.2560   73.9670 C   0  0  0  0  0  0  0  0  0  0  0  0
    1.1160   63.5010   72.6070 C   0  0  0  0  0  0  0  0  0  0  0  0
    0.3180   64.5740   72.1970 C   0  0  0  0  0  0  0  0  0  0  0  0
   -0.2500   65.4220   73.1560 C   0  0  0  0  0  0  0  0  0  0  0  0
   -0.0440   65.1740   74.5160 C   0  0  0  0  0  0  0  0  0  0  0  0
    2.1030   67.8180   66.2930 C   0  0  0  0  0  0  0  0  0  0  0  0
    2.8060   68.7810   66.5800 O   0  0  0  0  0  0  0  0  0  0  0  0
    2.5000   66.9730   65.1100 C   0  0  0  0  0  0  0  0  0  0  0  0
    2.7750   65.7910   65.2810 O   0  0  0  0  0  0  0  0  0  0  0  0
    2.5650   67.6360   63.7890 C   0  0  0  0  0  0  0  0  0  0  0  0
    1.4850   68.3920   63.3480 C   0  0  0  0  0  0  0  0  0  0  0  0
    1.5670   68.9830   62.0900 C   0  0  0  0  0  0  0  0  0  0  0  0
    2.7120   68.7940   61.3230 C   0  0  0  0  0  0  0  0  0  0  0  0
    3.7340   68.0150   61.8410 C   0  0  0  0  0  0  0  0  0  0  0  0
    3.6850   67.4240   63.0550 N   0  0  0  0  0  0  0  0  0  0  0  0
   -2.3792   66.5874   68.9950 H   0  0  0  0  0  0  0  0  0  0  0  0
   -2.5071   67.4774   66.6723 H   0  0  0  0  0  0  0  0  0  0  0  0
   -0.4206   68.0335   65.4263 H   0  0  0  0  0  0  0  0  0  0  0  0
    1.9348   66.8092   68.8436 H   0  0  0  0  0  0  0  0  0  0  0  0
   -0.0924   66.8072   71.1472 H   0  0  0  0  0  0  0  0  0  0  0  0
    0.3131   64.4790   76.9885 H   0  0  0  0  0  0  0  0  0  0  0  0
    0.7790   62.7822   76.6272 H   0  0  0  0  0  0  0  0  0  0  0  0
    2.0258   64.0754   76.6272 H   0  0  0  0  0  0  0  0  0  0  0  0
    1.9479   62.4104   74.2823 H   0  0  0  0  0  0  0  0  0  0  0  0
    1.5851   62.8482   71.8562 H   0  0  0  0  0  0  0  0  0  0  0  0
   -0.8577   66.2824   72.8392 H   0  0  0  0  0  0  0  0  0  0  0  0
   -0.4906   65.8429   75.2664 H   0  0  0  0  0  0  0  0  0  0  0  0
    0.5906   68.5197   63.9754 H   0  0  0  0  0  0  0  0  0  0  0  0
    0.7355   69.5927   61.7068 H   0  0  0  0  0  0  0  0  0  0  0  0
    2.8040   69.2528   60.3275 H   0  0  0  0  0  0  0  0  0  0  0  0
    4.6365   67.8694   61.2292 H   0  0  0  0  0  0  0  0  0  0  0  0
  2  1  2  0
  3  2  1  0
  4  3  2  0
  5  4  1  0
  6  5  2  0
  6  1  1  0
  8  7  2  0
  9  7  1  0
  9  1  1  0
 11 10  1  0
 12 11  2  0
 13 12  1  0
 14 13  2  0
 14  7  1  0
 15 14  1  0
 16 15  2  0
 16 11  1  0
 17  5  1  0
 18 17  2  0
 19 17  1  0
 20 19  2  0
 21 19  1  0
 22 21  2  0
 23 22  1  0
 24 23  2  0
 25 24  1  0
 26 21  1  0
 26 25  2  0
  2 27  1  0
  3 28  1  0
  4 29  1  0
  6 30  1  0
  9 31  1  0
 10 32  1  0
 10 33  1  0
 10 34  1  0
 12 35  1  0
 13 36  1  0
 15 37  1  0
 16 38  1  0
 22 39  1  0
 23 40  1  0
 24 41  1  0
 25 42  1  0
M  END
>  <score>  (9) 
-9.334

$$$$
