=
     RDKit          3D

 47 47  0  0  0  0  0  0  0  0999 V2000
    5.1630   69.6600   65.5690 C   0  0  0  0  0  0  0  0  0  0  0  0
    5.2390   69.4020   64.1950 C   0  0  0  0  0  0  0  0  0  0  0  0
    4.1330   68.9010   63.5000 C   0  0  0  0  0  0  0  0  0  0  0  0
    2.9380   68.6500   64.1730 C   0  0  0  0  0  0  0  0  0  0  0  0
    2.8640   68.8930   65.5450 C   0  0  0  0  0  0  0  0  0  0  0  0
    3.9660   69.3950   66.2410 C   0  0  0  0  0  0  0  0  0  0  0  0
    6.3620   70.1900   66.3180 C   0  0  0  0  0  0  0  0  0  0  0  0
    6.0770   70.3300   67.8100 C   0  0  0  0  0  0  0  0  0  0  0  0
    6.3890   71.7230   68.2940 C   0  0  0  0  0  0  0  0  0  0  0  0
    5.7470   72.7260   68.0180 O   0  0  0  0  0  0  0  0  0  0  0  0
    7.5250   70.6080   70.0110 C   0  0  0  0  0  0  0  0  0  0  0  0
    7.4990   71.6930   69.0820 O   0  0  0  0  0  0  0  0  0  0  0  0
    1.7870   68.1640   63.6160 O   0  0  0  0  0  0  0  0  0  0  0  0
    0.8370   69.1240   63.1500 C   0  0  0  0  0  0  0  0  0  0  0  0
   -0.5380   68.6140   63.5850 C   0  0  2  0  0  0  0  0  0  0  0  0
   -1.5870   69.3520   62.9230 O   0  0  0  0  0  0  0  0  0  0  0  0
   -0.7660   68.7750   65.0920 C   0  0  0  0  0  0  0  0  0  0  0  0
   -0.2770   67.5070   65.7460 N   0  0  0  0  0  4  0  0  0  0  0  0
   -0.8120   67.1110   67.0840 C   0  0  0  0  0  0  0  0  0  0  0  0
   -2.2040   67.6900   67.2990 C   0  0  0  0  0  0  0  0  0  0  0  0
    0.1660   67.5060   68.1800 C   0  0  0  0  0  0  0  0  0  0  0  0
    6.1783   69.5953   63.6562 H   0  0  0  0  0  0  0  0  0  0  0  0
    4.2064   68.7047   62.4202 H   0  0  0  0  0  0  0  0  0  0  0  0
    1.9277   68.6870   66.0843 H   0  0  0  0  0  0  0  0  0  0  0  0
    3.8918   69.5826   67.3223 H   0  0  0  0  0  0  0  0  0  0  0  0
    7.2044   69.4964   66.1793 H   0  0  0  0  0  0  0  0  0  0  0  0
    6.6029   71.1865   65.9194 H   0  0  0  0  0  0  0  0  0  0  0  0
    5.0140   70.1154   67.9943 H   0  0  0  0  0  0  0  0  0  0  0  0
    6.7153   69.6195   68.3557 H   0  0  0  0  0  0  0  0  0  0  0  0
    7.5155   71.0037   71.0373 H   0  0  0  0  0  0  0  0  0  0  0  0
    6.6419   69.9709   69.8555 H   0  0  0  0  0  0  0  0  0  0  0  0
    8.4376   70.0139   69.8555 H   0  0  0  0  0  0  0  0  0  0  0  0
    1.0379   70.1077   63.5994 H   0  0  0  0  0  0  0  0  0  0  0  0
    0.8920   69.2430   62.0578 H   0  0  0  0  0  0  0  0  0  0  0  0
   -0.5642   67.5479   63.3153 H   0  0  0  0  0  0  0  0  0  0  0  0
   -2.1770   69.7671   63.6011 H   0  0  0  0  0  0  0  0  0  0  0  0
   -0.1995   69.6387   65.4703 H   0  0  0  0  0  0  0  0  0  0  0  0
   -1.8295   68.9479   65.3135 H   0  0  0  0  0  0  0  0  0  0  0  0
   -0.4907   66.7351   65.0984 H   0  0  0  0  0  0  0  0  0  0  0  0
    0.7172   67.7010   65.9327 H   0  0  0  0  0  0  0  0  0  0  0  0
   -0.9171   66.0168   67.1247 H   0  0  0  0  0  0  0  0  0  0  0  0
   -2.4040   67.7732   68.3775 H   0  0  0  0  0  0  0  0  0  0  0  0
   -2.2618   68.6868   66.8374 H   0  0  0  0  0  0  0  0  0  0  0  0
   -2.9517   67.0283   66.8374 H   0  0  0  0  0  0  0  0  0  0  0  0
   -0.2911   67.3214   69.1633 H   0  0  0  0  0  0  0  0  0  0  0  0
    1.0845   66.9084   68.0846 H   0  0  0  0  0  0  0  0  0  0  0  0
    0.4118   68.5739   68.0846 H   0  0  0  0  0  0  0  0  0  0  0  0
  2  1  2  0
  3  2  1  0
  4  3  2  0
  5  4  1  0
  6  5  2  0
  6  1  1  0
  7  1  1  0
  8  7  1  0
  9  8  1  0
 10  9  2  0
 12 11  1  0
 12  9  1  0
 13  4  1  0
 14 13  1  0
 15 14  1  0
 16 15  1  0
 17 15  1  0
 18 17  1  0
 19 18  1  0
 20 19  1  0
 21 19  1  0
  2 22  1  0
  3 23  1  0
  5 24  1  0
  6 25  1  0
  7 26  1  0
  7 27  1  0
  8 28  1  0
  8 29  1  0
 11 30  1  0
 11 31  1  0
 11 32  1  0
 14 33  1  0
 14 34  1  0
 15 35  1  1
 16 36  1  0
 17 37  1  0
 17 38  1  0
 18 39  1  0
 18 40  1  0
 19 41  1  0
 20 42  1  0
 20 43  1  0
 20 44  1  0
 21 45  1  0
 21 46  1  0
 21 47  1  0
M  CHG  1  18   1
M  END
>  <score>  (1) 
-8.216

$$$$
=
     RDKit          3D

 47 47  0  0  0  0  0  0  0  0999 V2000
    4.0480   69.0290   65.0660 C   0  0  0  0  0  0  0  0  0  0  0  0
    2.8030   68.5910   64.5960 C   0  0  0  0  0  0  0  0  0  0  0  0
    1.6780   68.6120   65.4270 C   0  0  0  0  0  0  0  0  0  0  0  0
    1.7860   69.0700   66.7400 C   0  0  0  0  0  0  0  0  0  0  0  0
    3.0280   69.4950   67.2150 C   0  0  0  0  0  0  0  0  0  0  0  0
    4.1520   69.4760   66.3860 C   0  0  0  0  0  0  0  0  0  0  0  0
    5.2610   68.9950   64.1700 C   0  0  0  0  0  0  0  0  0  0  0  0
    4.8780   69.1110   62.6970 C   0  0  0  0  0  0  0  0  0  0  0  0
    4.5030   67.7670   62.1260 C   0  0  0  0  0  0  0  0  0  0  0  0
    3.6550   67.5770   61.2660 O   0  0  0  0  0  0  0  0  0  0  0  0
    4.4930   65.6760   63.1780 C   0  0  0  0  0  0  0  0  0  0  0  0
    5.2510   66.7960   62.7200 O   0  0  0  0  0  0  0  0  0  0  0  0
    0.7700   69.1450   67.6520 O   0  0  0  0  0  0  0  0  0  0  0  0
   -0.5540   68.9090   67.1700 C   0  0  0  0  0  0  0  0  0  0  0  0
   -0.7610   67.3930   67.2080 C   0  0  2  0  0  0  0  0  0  0  0  0
   -2.0600   67.0440   66.6850 O   0  0  0  0  0  0  0  0  0  0  0  0
   -0.6940   66.8350   68.6340 C   0  0  0  0  0  0  0  0  0  0  0  0
    0.7400   66.4400   68.8820 N   0  0  0  0  0  4  0  0  0  0  0  0
    1.1620   66.0060   70.2480 C   0  0  0  0  0  0  0  0  0  0  0  0
    1.9440   64.7010   70.1790 C   0  0  0  0  0  0  0  0  0  0  0  0
   -0.0440   65.9220   71.1710 C   0  0  0  0  0  0  0  0  0  0  0  0
    2.7092   68.2267   63.5623 H   0  0  0  0  0  0  0  0  0  0  0  0
    0.7063   68.2667   65.0443 H   0  0  0  0  0  0  0  0  0  0  0  0
    3.1224   69.8483   68.2524 H   0  0  0  0  0  0  0  0  0  0  0  0
    5.1240   69.8146   66.7741 H   0  0  0  0  0  0  0  0  0  0  0  0
    5.9225   69.8335   64.4335 H   0  0  0  0  0  0  0  0  0  0  0  0
    5.7693   68.0307   64.3173 H   0  0  0  0  0  0  0  0  0  0  0  0
    4.0208   69.7937   62.6014 H   0  0  0  0  0  0  0  0  0  0  0  0
    5.7443   69.4976   62.1402 H   0  0  0  0  0  0  0  0  0  0  0  0
    4.4848   65.6639   64.2779 H   0  0  0  0  0  0  0  0  0  0  0  0
    3.4613   65.7540   62.8045 H   0  0  0  0  0  0  0  0  0  0  0  0
    4.9489   64.7472   62.8045 H   0  0  0  0  0  0  0  0  0  0  0  0
   -1.2896   69.4102   67.8163 H   0  0  0  0  0  0  0  0  0  0  0  0
   -0.6856   69.3051   66.1523 H   0  0  0  0  0  0  0  0  0  0  0  0
    0.0474   66.9619   66.5992 H   0  0  0  0  0  0  0  0  0  0  0  0
   -2.6837   66.8764   67.4353 H   0  0  0  0  0  0  0  0  0  0  0  0
   -1.0050   67.6041   69.3563 H   0  0  0  0  0  0  0  0  0  0  0  0
   -1.3663   65.9724   68.7516 H   0  0  0  0  0  0  0  0  0  0  0  0
    0.9500   65.6603   68.2426 H   0  0  0  0  0  0  0  0  0  0  0  0
    1.2592   67.3178   68.7379 H   0  0  0  0  0  0  0  0  0  0  0  0
    1.8418   66.7582   70.6748 H   0  0  0  0  0  0  0  0  0  0  0  0
    2.1564   64.3465   71.1984 H   0  0  0  0  0  0  0  0  0  0  0  0
    1.3498   63.9453   69.6444 H   0  0  0  0  0  0  0  0  0  0  0  0
    2.8906   64.8686   69.6444 H   0  0  0  0  0  0  0  0  0  0  0  0
    0.2931   65.9455   72.2178 H   0  0  0  0  0  0  0  0  0  0  0  0
   -0.7111   66.7759   70.9814 H   0  0  0  0  0  0  0  0  0  0  0  0
   -0.5862   64.9839   70.9814 H   0  0  0  0  0  0  0  0  0  0  0  0
  2  1  2  0
  3  2  1  0
  4  3  2  0
  5  4  1  0
  6  5  2  0
  6  1  1  0
  7  1  1  0
  8  7  1  0
  9  8  1  0
 10  9  2  0
 12 11  1  0
 12  9  1  0
 13  4  1  0
 14 13  1  0
 15 14  1  0
 16 15  1  0
 17 15  1  0
 18 17  1  0
 19 18  1  0
 20 19  1  0
 21 19  1  0
  2 22  1  0
  3 23  1  0
  5 24  1  0
  6 25  1  0
  7 26  1  0
  7 27  1  0
  8 28  1  0
  8 29  1  0
 11 30  1  0
 11 31  1  0
 11 32  1  0
 14 33  1  0
 14 34  1  0
 15 35  1  6
 16 36  1  0
 17 37  1  0
 17 38  1  0
 18 39  1  0
 18 40  1  0
 19 41  1  0
 20 42  1  0
 20 43  1  0
 20 44  1  0
 21 45  1  0
 21 46  1  0
 21 47  1  0
M  CHG  1  18   1
M  END
>  <score>  (2) 
-6.973

$$$$
=
     RDKit          3D

 47 47  0  0  0  0  0  0  0  0999 V2000
    0.1580   66.5280   69.3740 C   0  0  0  0  0  0  0  0  0  0  0  0
    1.2160   67.2240   68.7760 C   0  0  0  0  0  0  0  0  0  0  0  0
    1.0530   67.8360   67.5290 C   0  0  0  0  0  0  0  0  0  0  0  0
   -0.1700   67.7580   66.8640 C   0  0  0  0  0  0  0  0  0  0  0  0
   -1.2220   67.0540   67.4530 C   0  0  0  0  0  0  0  0  0  0  0  0
   -1.0630   66.4430   68.6980 C   0  0  0  0  0  0  0  0  0  0  0  0
    0.3400   65.8590   70.7150 C   0  0  0  0  0  0  0  0  0  0  0  0
    0.4160   64.3410   70.5810 C   0  0  0  0  0  0  0  0  0  0  0  0
    1.8350   63.8860   70.3480 C   0  0  0  0  0  0  0  0  0  0  0  0
    2.8360   64.4770   70.7250 O   0  0  0  0  0  0  0  0  0  0  0  0
    3.1210   62.2950   69.2100 C   0  0  0  0  0  0  0  0  0  0  0  0
    1.8290   62.7180   69.6470 O   0  0  0  0  0  0  0  0  0  0  0  0
   -0.4620   68.3110   65.6480 O   0  0  0  0  0  0  0  0  0  0  0  0
    0.6390   68.7780   64.8670 C   0  0  0  0  0  0  0  0  0  0  0  0
    0.0550   69.2240   63.5250 C   0  0  2  0  0  0  0  0  0  0  0  0
   -1.2790   68.7030   63.3520 O   0  0  0  0  0  0  0  0  0  0  0  0
    0.8830   68.7230   62.3370 C   0  0  0  0  0  0  0  0  0  0  0  0
    2.0280   67.9240   62.9080 N   0  0  0  0  0  4  0  0  0  0  0  0
    3.4170   68.1640   62.4110 C   0  0  0  0  0  0  0  0  0  0  0  0
    4.2080   68.9960   63.4110 C   0  0  0  0  0  0  0  0  0  0  0  0
    3.3810   68.7850   61.0240 C   0  0  0  0  0  0  0  0  0  0  0  0
    2.1851   67.2900   69.2923 H   0  0  0  0  0  0  0  0  0  0  0  0
    1.8922   68.3805   67.0715 H   0  0  0  0  0  0  0  0  0  0  0  0
   -2.1870   66.9800   66.9301 H   0  0  0  0  0  0  0  0  0  0  0  0
   -1.9017   65.8924   69.1491 H   0  0  0  0  0  0  0  0  0  0  0  0
    1.2716   66.2239   71.1722 H   0  0  0  0  0  0  0  0  0  0  0  0
   -0.5291   66.1054   71.3426 H   0  0  0  0  0  0  0  0  0  0  0  0
    0.0381   63.8795   71.5053 H   0  0  0  0  0  0  0  0  0  0  0  0
   -0.1945   64.0358   69.7184 H   0  0  0  0  0  0  0  0  0  0  0  0
    3.7544   62.0876   70.0851 H   0  0  0  0  0  0  0  0  0  0  0  0
    3.0225   61.3822   68.6041 H   0  0  0  0  0  0  0  0  0  0  0  0
    3.5814   63.0893   68.6041 H   0  0  0  0  0  0  0  0  0  0  0  0
    1.1300   69.6247   65.3689 H   0  0  0  0  0  0  0  0  0  0  0  0
    1.3957   67.9911   64.7320 H   0  0  0  0  0  0  0  0  0  0  0  0
    0.0580   70.3238   63.5453 H   0  0  0  0  0  0  0  0  0  0  0  0
   -1.6884   68.5431   64.2391 H   0  0  0  0  0  0  0  0  0  0  0  0
    0.2649   68.0868   61.6864 H   0  0  0  0  0  0  0  0  0  0  0  0
    1.2524   69.5638   61.7316 H   0  0  0  0  0  0  0  0  0  0  0  0
    2.0389   68.1004   63.9227 H   0  0  0  0  0  0  0  0  0  0  0  0
    1.8259   66.9616   62.6017 H   0  0  0  0  0  0  0  0  0  0  0  0
    3.9420   67.2018   62.3179 H   0  0  0  0  0  0  0  0  0  0  0  0
    3.9291   68.7027   64.4338 H   0  0  0  0  0  0  0  0  0  0  0  0
    5.2841   68.8244   63.2608 H   0  0  0  0  0  0  0  0  0  0  0  0
    3.9823   70.0621   63.2608 H   0  0  0  0  0  0  0  0  0  0  0  0
    3.3176   69.8795   61.1138 H   0  0  0  0  0  0  0  0  0  0  0  0
    4.2963   68.5144   60.4772 H   0  0  0  0  0  0  0  0  0  0  0  0
    2.5031   68.4105   60.4772 H   0  0  0  0  0  0  0  0  0  0  0  0
  2  1  2  0
  3  2  1  0
  4  3  2  0
  5  4  1  0
  6  5  2  0
  6  1  1  0
  7  1  1  0
  8  7  1  0
  9  8  1  0
 10  9  2  0
 12 11  1  0
 12  9  1  0
 13  4  1  0
 14 13  1  0
 15 14  1  0
 16 15  1  0
 17 15  1  0
 18 17  1  0
 19 18  1  0
 20 19  1  0
 21 19  1  0
  2 22  1  0
  3 23  1  0
  5 24  1  0
  6 25  1  0
  7 26  1  0
  7 27  1  0
  8 28  1  0
  8 29  1  0
 11 30  1  0
 11 31  1  0
 11 32  1  0
 14 33  1  0
 14 34  1  0
 15 35  1  1
 16 36  1  0
 17 37  1  0
 17 38  1  0
 18 39  1  0
 18 40  1  0
 19 41  1  0
 20 42  1  0
 20 43  1  0
 20 44  1  0
 21 45  1  0
 21 46  1  0
 21 47  1  0
M  CHG  1  18   1
M  END
>  <score>  (3) 
-6.91

$$$$
=
     RDKit          3D

 47 47  0  0  0  0  0  0  0  0999 V2000
    2.2070   62.8160   71.9860 C   0  0  0  0  0  0  0  0  0  0  0  0
    0.9010   63.3210   72.0120 C   0  0  0  0  0  0  0  0  0  0  0  0
    0.5210   64.3610   71.1560 C   0  0  0  0  0  0  0  0  0  0  0  0
    1.4440   64.9080   70.2660 C   0  0  0  0  0  0  0  0  0  0  0  0
    2.7500   64.4150   70.2480 C   0  0  0  0  0  0  0  0  0  0  0  0
    3.1320   63.3770   71.1000 C   0  0  0  0  0  0  0  0  0  0  0  0
    2.6170   61.7020   72.9180 C   0  0  0  0  0  0  0  0  0  0  0  0
    4.0860   61.3300   72.7410 C   0  0  0  0  0  0  0  0  0  0  0  0
    4.2300   59.9510   72.1500 C   0  0  0  0  0  0  0  0  0  0  0  0
    3.9190   58.9080   72.7070 O   0  0  0  0  0  0  0  0  0  0  0  0
    3.8150   59.8940   69.8460 C   0  0  0  0  0  0  0  0  0  0  0  0
    4.7670   60.0450   70.9010 O   0  0  0  0  0  0  0  0  0  0  0  0
    1.2040   65.9210   69.3790 O   0  0  0  0  0  0  0  0  0  0  0  0
   -0.1480   66.3650   69.2520 C   0  0  0  0  0  0  0  0  0  0  0  0
   -0.1800   67.3090   68.0490 C   0  0  2  0  0  0  0  0  0  0  0  0
   -0.8740   66.6970   66.9410 O   0  0  0  0  0  0  0  0  0  0  0  0
    1.2260   67.6590   67.5500 C   0  0  0  0  0  0  0  0  0  0  0  0
    1.7960   68.6650   68.5190 N   0  0  0  0  0  4  0  0  0  0  0  0
    2.6040   69.8130   68.0050 C   0  0  0  0  0  0  0  0  0  0  0  0
    3.4170   69.3930   66.7880 C   0  0  0  0  0  0  0  0  0  0  0  0
    3.4640   70.3920   69.1180 C   0  0  0  0  0  0  0  0  0  0  0  0
    0.1666   62.8961   72.7121 H   0  0  0  0  0  0  0  0  0  0  0  0
   -0.5084   64.7477   71.1856 H   0  0  0  0  0  0  0  0  0  0  0  0
    3.4859   64.8490   69.5551 H   0  0  0  0  0  0  0  0  0  0  0  0
    4.1647   62.9990   71.0742 H   0  0  0  0  0  0  0  0  0  0  0  0
    2.4543   62.0276   73.9560 H   0  0  0  0  0  0  0  0  0  0  0  0
    2.0083   60.8165   72.6826 H   0  0  0  0  0  0  0  0  0  0  0  0
    4.5629   62.0598   72.0702 H   0  0  0  0  0  0  0  0  0  0  0  0
    4.5697   61.3386   73.7289 H   0  0  0  0  0  0  0  0  0  0  0  0
    2.8145   59.7353   70.2748 H   0  0  0  0  0  0  0  0  0  0  0  0
    3.8081   60.8023   69.2255 H   0  0  0  0  0  0  0  0  0  0  0  0
    4.0895   59.0282   69.2255 H   0  0  0  0  0  0  0  0  0  0  0  0
   -0.8157   65.5077   69.0810 H   0  0  0  0  0  0  0  0  0  0  0  0
   -0.4893   66.8720   70.1666 H   0  0  0  0  0  0  0  0  0  0  0  0
   -0.6927   68.2195   68.3925 H   0  0  0  0  0  0  0  0  0  0  0  0
   -1.5700   66.0833   67.2860 H   0  0  0  0  0  0  0  0  0  0  0  0
    1.8550   66.7569   67.5274 H   0  0  0  0  0  0  0  0  0  0  0  0
    1.1914   68.0699   66.5302 H   0  0  0  0  0  0  0  0  0  0  0  0
    1.0002   69.0670   69.0347 H   0  0  0  0  0  0  0  0  0  0  0  0
    2.4778   68.1157   69.0616 H   0  0  0  0  0  0  0  0  0  0  0  0
    1.9286   70.6144   67.6711 H   0  0  0  0  0  0  0  0  0  0  0  0
    4.3492   68.9114   67.1182 H   0  0  0  0  0  0  0  0  0  0  0  0
    2.8323   68.6841   66.1833 H   0  0  0  0  0  0  0  0  0  0  0  0
    3.6568   70.2800   66.1833 H   0  0  0  0  0  0  0  0  0  0  0  0
    3.0418   70.1078   70.0932 H   0  0  0  0  0  0  0  0  0  0  0  0
    4.4877   69.9985   69.0329 H   0  0  0  0  0  0  0  0  0  0  0  0
    3.4845   71.4885   69.0329 H   0  0  0  0  0  0  0  0  0  0  0  0
  2  1  2  0
  3  2  1  0
  4  3  2  0
  5  4  1  0
  6  5  2  0
  6  1  1  0
  7  1  1  0
  8  7  1  0
  9  8  1  0
 10  9  2  0
 12 11  1  0
 12  9  1  0
 13  4  1  0
 14 13  1  0
 15 14  1  0
 16 15  1  0
 17 15  1  0
 18 17  1  0
 19 18  1  0
 20 19  1  0
 21 19  1  0
  2 22  1  0
  3 23  1  0
  5 24  1  0
  6 25  1  0
  7 26  1  0
  7 27  1  0
  8 28  1  0
  8 29  1  0
 11 30  1  0
 11 31  1  0
 11 32  1  0
 14 33  1  0
 14 34  1  0
 15 35  1  1
 16 36  1  0
 17 37  1  0
 17 38  1  0
 18 39  1  0
 18 40  1  0
 19 41  1  0
 20 42  1  0
 20 43  1  0
 20 44  1  0
 21 45  1  0
 21 46  1  0
 21 47  1  0
M  CHG  1  18   1
M  END
>  <score>  (4) 
-6.851

$$$$
=
     RDKit          3D

 47 47  0  0  0  0  0  0  0  0999 V2000
    0.9270   64.7950   70.6840 C   0  0  0  0  0  0  0  0  0  0  0  0
    0.2180   63.7620   71.3090 C   0  0  0  0  0  0  0  0  0  0  0  0
    0.8380   62.5410   71.5970 C   0  0  0  0  0  0  0  0  0  0  0  0
    2.1760   62.3390   71.2610 C   0  0  0  0  0  0  0  0  0  0  0  0
    2.8820   63.3630   70.6250 C   0  0  0  0  0  0  0  0  0  0  0  0
    2.2650   64.5830   70.3380 C   0  0  0  0  0  0  0  0  0  0  0  0
    0.2520   66.1060   70.3650 C   0  0  0  0  0  0  0  0  0  0  0  0
    1.1230   66.9870   69.4750 C   0  0  0  0  0  0  0  0  0  0  0  0
    0.3530   67.4780   68.2750 C   0  0  0  0  0  0  0  0  0  0  0  0
    0.6080   68.4900   67.6390 O   0  0  0  0  0  0  0  0  0  0  0  0
   -1.8070   67.2440   67.4040 C   0  0  0  0  0  0  0  0  0  0  0  0
   -0.6750   66.6230   68.0140 O   0  0  0  0  0  0  0  0  0  0  0  0
    2.9000   61.2010   71.4870 O   0  0  0  0  0  0  0  0  0  0  0  0
    3.3740   60.4960   70.3380 C   0  0  0  0  0  0  0  0  0  0  0  0
    4.0790   59.2440   70.8630 C   0  0  2  0  0  0  0  0  0  0  0  0
    3.8100   58.1120   70.0090 O   0  0  0  0  0  0  0  0  0  0  0  0
    3.6070   58.8590   72.2690 C   0  0  0  0  0  0  0  0  0  0  0  0
    2.2050   58.3210   72.1280 N   0  0  0  0  0  4  0  0  0  0  0  0
    1.3320   58.2040   73.3350 C   0  0  0  0  0  0  0  0  0  0  0  0
    0.6480   56.8440   73.3720 C   0  0  0  0  0  0  0  0  0  0  0  0
    0.3470   59.3620   73.3870 C   0  0  0  0  0  0  0  0  0  0  0  0
   -0.8383   63.9119   71.5767 H   0  0  0  0  0  0  0  0  0  0  0  0
    0.2686   61.7390   72.0895 H   0  0  0  0  0  0  0  0  0  0  0  0
    3.9349   63.2070   70.3473 H   0  0  0  0  0  0  0  0  0  0  0  0
    2.8342   65.3803   69.8377 H   0  0  0  0  0  0  0  0  0  0  0  0
   -0.6961   65.9018   69.8460 H   0  0  0  0  0  0  0  0  0  0  0  0
    0.0767   66.6404   71.3103 H   0  0  0  0  0  0  0  0  0  0  0  0
    1.4709   67.8530   70.0573 H   0  0  0  0  0  0  0  0  0  0  0  0
    1.9766   66.3900   69.1214 H   0  0  0  0  0  0  0  0  0  0  0  0
   -2.4861   67.6165   68.1851 H   0  0  0  0  0  0  0  0  0  0  0  0
   -1.4715   68.0844   66.7785 H   0  0  0  0  0  0  0  0  0  0  0  0
   -2.3354   66.5095   66.7785 H   0  0  0  0  0  0  0  0  0  0  0  0
    2.5314   60.2148   69.6892 H   0  0  0  0  0  0  0  0  0  0  0  0
    4.0565   61.1183   69.7406 H   0  0  0  0  0  0  0  0  0  0  0  0
    5.1515   59.4878   70.8824 H   0  0  0  0  0  0  0  0  0  0  0  0
    3.6208   57.3159   70.5662 H   0  0  0  0  0  0  0  0  0  0  0  0
    4.2675   58.0877   72.6918 H   0  0  0  0  0  0  0  0  0  0  0  0
    3.6297   59.7275   72.9437 H   0  0  0  0  0  0  0  0  0  0  0  0
    1.7145   58.9361   71.4631 H   0  0  0  0  0  0  0  0  0  0  0  0
    2.3513   57.3423   71.8421 H   0  0  0  0  0  0  0  0  0  0  0  0
    1.9519   58.2688   74.2414 H   0  0  0  0  0  0  0  0  0  0  0  0
    0.4946   56.5390   74.4177 H   0  0  0  0  0  0  0  0  0  0  0  0
   -0.3247   56.9088   72.8625 H   0  0  0  0  0  0  0  0  0  0  0  0
    1.2800   56.1017   72.8625 H   0  0  0  0  0  0  0  0  0  0  0  0
    0.1325   59.6141   74.4360 H   0  0  0  0  0  0  0  0  0  0  0  0
    0.7822   60.2366   72.8813 H   0  0  0  0  0  0  0  0  0  0  0  0
   -0.5860   59.0727   72.8813 H   0  0  0  0  0  0  0  0  0  0  0  0
  2  1  2  0
  3  2  1  0
  4  3  2  0
  5  4  1  0
  6  5  2  0
  6  1  1  0
  7  1  1  0
  8  7  1  0
  9  8  1  0
 10  9  2  0
 12 11  1  0
 12  9  1  0
 13  4  1  0
 14 13  1  0
 15 14  1  0
 16 15  1  0
 17 15  1  0
 18 17  1  0
 19 18  1  0
 20 19  1  0
 21 19  1  0
  2 22  1  0
  3 23  1  0
  5 24  1  0
  6 25  1  0
  7 26  1  0
  7 27  1  0
  8 28  1  0
  8 29  1  0
 11 30  1  0
 11 31  1  0
 11 32  1  0
 14 33  1  0
 14 34  1  0
 15 35  1  1
 16 36  1  0
 17 37  1  0
 17 38  1  0
 18 39  1  0
 18 40  1  0
 19 41  1  0
 20 42  1  0
 20 43  1  0
 20 44  1  0
 21 45  1  0
 21 46  1  0
 21 47  1  0
M  CHG  1  18   1
M  END
>  <score>  (5) 
-6.848

$$$$
=
     RDKit          3D

 47 47  0  0  0  0  0  0  0  0999 V2000
    0.6770   68.3410   65.2450 C   0  0  0  0  0  0  0  0  0  0  0  0
    1.7140   67.4120   65.3900 C   0  0  0  0  0  0  0  0  0  0  0  0
    2.5800   67.1350   64.3250 C   0  0  0  0  0  0  0  0  0  0  0  0
    2.4160   67.7860   63.1030 C   0  0  0  0  0  0  0  0  0  0  0  0
    1.3740   68.7040   62.9520 C   0  0  0  0  0  0  0  0  0  0  0  0
    0.5100   68.9820   64.0130 C   0  0  0  0  0  0  0  0  0  0  0  0
   -0.2610   68.6280   66.3920 C   0  0  0  0  0  0  0  0  0  0  0  0
   -0.6550   67.3520   67.1300 C   0  0  0  0  0  0  0  0  0  0  0  0
    0.1420   67.1910   68.4000 C   0  0  0  0  0  0  0  0  0  0  0  0
    1.0610   67.9150   68.7530 O   0  0  0  0  0  0  0  0  0  0  0  0
    0.4060   65.8370   70.2920 C   0  0  0  0  0  0  0  0  0  0  0  0
   -0.3170   66.1100   69.0900 O   0  0  0  0  0  0  0  0  0  0  0  0
    3.1890   67.6120   61.9880 O   0  0  0  0  0  0  0  0  0  0  0  0
    4.5960   67.4680   62.1910 C   0  0  0  0  0  0  0  0  0  0  0  0
    5.0900   68.8080   62.7390 C   0  0  2  0  0  0  0  0  0  0  0  0
    6.0120   69.4260   61.8170 O   0  0  0  0  0  0  0  0  0  0  0  0
    5.8330   68.6510   64.0700 C   0  0  0  0  0  0  0  0  0  0  0  0
    5.4260   69.8160   64.9380 N   0  0  0  0  0  4  0  0  0  0  0  0
    5.4370   69.6700   66.4250 C   0  0  0  0  0  0  0  0  0  0  0  0
    4.0310   69.8190   66.9890 C   0  0  0  0  0  0  0  0  0  0  0  0
    6.4270   70.6450   67.0420 C   0  0  0  0  0  0  0  0  0  0  0  0
    1.8501   66.8940   66.3508 H   0  0  0  0  0  0  0  0  0  0  0  0
    3.3908   66.4027   64.4527 H   0  0  0  0  0  0  0  0  0  0  0  0
    1.2327   69.2131   61.9872 H   0  0  0  0  0  0  0  0  0  0  0  0
   -0.3054   69.7081   63.8795 H   0  0  0  0  0  0  0  0  0  0  0  0
    0.2367   69.3092   67.0979 H   0  0  0  0  0  0  0  0  0  0  0  0
   -1.1745   69.0840   65.9827 H   0  0  0  0  0  0  0  0  0  0  0  0
   -1.7250   67.3979   67.3808 H   0  0  0  0  0  0  0  0  0  0  0  0
   -0.4476   66.4921   66.4761 H   0  0  0  0  0  0  0  0  0  0  0  0
   -0.2246   66.0751   71.1613 H   0  0  0  0  0  0  0  0  0  0  0  0
    0.6823   64.7726   70.3200 H   0  0  0  0  0  0  0  0  0  0  0  0
    1.3168   66.4531   70.3200 H   0  0  0  0  0  0  0  0  0  0  0  0
    4.7961   66.6637   62.9142 H   0  0  0  0  0  0  0  0  0  0  0  0
    5.1102   67.2049   61.2548 H   0  0  0  0  0  0  0  0  0  0  0  0
    4.1912   69.4254   62.8834 H   0  0  0  0  0  0  0  0  0  0  0  0
    6.7183   69.8994   62.3241 H   0  0  0  0  0  0  0  0  0  0  0  0
    5.5504   67.7033   64.5517 H   0  0  0  0  0  0  0  0  0  0  0  0
    6.9218   68.6369   63.9143 H   0  0  0  0  0  0  0  0  0  0  0  0
    6.0602   70.5947   64.7095 H   0  0  0  0  0  0  0  0  0  0  0  0
    4.4281   69.9432   64.7167 H   0  0  0  0  0  0  0  0  0  0  0  0
    5.7756   68.6574   66.6898 H   0  0  0  0  0  0  0  0  0  0  0  0
    4.0744   69.8144   68.0881 H   0  0  0  0  0  0  0  0  0  0  0  0
    3.5959   70.7683   66.6432 H   0  0  0  0  0  0  0  0  0  0  0  0
    3.4066   68.9820   66.6432 H   0  0  0  0  0  0  0  0  0  0  0  0
    6.3659   70.5848   68.1387 H   0  0  0  0  0  0  0  0  0  0  0  0
    7.4459   70.3879   66.7169 H   0  0  0  0  0  0  0  0  0  0  0  0
    6.1855   71.6677   66.7169 H   0  0  0  0  0  0  0  0  0  0  0  0
  2  1  2  0
  3  2  1  0
  4  3  2  0
  5  4  1  0
  6  5  2  0
  6  1  1  0
  7  1  1  0
  8  7  1  0
  9  8  1  0
 10  9  2  0
 12 11  1  0
 12  9  1  0
 13  4  1  0
 14 13  1  0
 15 14  1  0
 16 15  1  0
 17 15  1  0
 18 17  1  0
 19 18  1  0
 20 19  1  0
 21 19  1  0
  2 22  1  0
  3 23  1  0
  5 24  1  0
  6 25  1  0
  7 26  1  0
  7 27  1  0
  8 28  1  0
  8 29  1  0
 11 30  1  0
 11 31  1  0
 11 32  1  0
 14 33  1  0
 14 34  1  0
 15 35  1  1
 16 36  1  0
 17 37  1  0
 17 38  1  0
 18 39  1  0
 18 40  1  0
 19 41  1  0
 20 42  1  0
 20 43  1  0
 20 44  1  0
 21 45  1  0
 21 46  1  0
 21 47  1  0
M  CHG  1  18   1
M  END
>  <score>  (6) 
-6.805

$$$$
=
     RDKit          3D

 47 47  0  0  0  0  0  0  0  0999 V2000
    3.9870   61.4310   71.4260 C   0  0  0  0  0  0  0  0  0  0  0  0
    4.7350   62.4710   70.8610 C   0  0  0  0  0  0  0  0  0  0  0  0
    4.1020   63.5970   70.3250 C   0  0  0  0  0  0  0  0  0  0  0  0
    2.7110   63.6950   70.3470 C   0  0  0  0  0  0  0  0  0  0  0  0
    1.9620   62.6530   70.8980 C   0  0  0  0  0  0  0  0  0  0  0  0
    2.5920   61.5290   71.4350 C   0  0  0  0  0  0  0  0  0  0  0  0
    4.6730   60.2120   71.9930 C   0  0  0  0  0  0  0  0  0  0  0  0
    3.6860   59.0770   72.2480 C   0  0  0  0  0  0  0  0  0  0  0  0
    3.5110   58.2240   71.0180 C   0  0  0  0  0  0  0  0  0  0  0  0
    3.9860   58.4640   69.9190 O   0  0  0  0  0  0  0  0  0  0  0  0
    1.9160   57.3230   72.4780 C   0  0  0  0  0  0  0  0  0  0  0  0
    2.7340   57.1460   71.3200 O   0  0  0  0  0  0  0  0  0  0  0  0
    1.9690   64.7370   69.8610 O   0  0  0  0  0  0  0  0  0  0  0  0
    0.7960   65.0940   70.5940 C   0  0  0  0  0  0  0  0  0  0  0  0
    0.2320   66.3450   69.9180 C   0  0  2  0  0  0  0  0  0  0  0  0
   -0.6750   65.9840   68.8550 O   0  0  0  0  0  0  0  0  0  0  0  0
    1.3300   67.2100   69.2890 C   0  0  0  0  0  0  0  0  0  0  0  0
    1.1410   67.1380   67.7950 N   0  0  0  0  0  4  0  0  0  0  0  0
    1.1210   68.3970   66.9900 C   0  0  0  0  0  0  0  0  0  0  0  0
    1.7960   69.5300   67.7500 C   0  0  0  0  0  0  0  0  0  0  0  0
   -0.3020   68.7330   66.5720 C   0  0  0  0  0  0  0  0  0  0  0  0
    5.8326   62.4017   70.8384 H   0  0  0  0  0  0  0  0  0  0  0  0
    4.7024   64.4070   69.8852 H   0  0  0  0  0  0  0  0  0  0  0  0
    0.8640   62.7187   70.9090 H   0  0  0  0  0  0  0  0  0  0  0  0
    1.9887   60.7170   71.8670 H   0  0  0  0  0  0  0  0  0  0  0  0
    5.4357   59.8676   71.2790 H   0  0  0  0  0  0  0  0  0  0  0  0
    5.1302   60.4914   72.9537 H   0  0  0  0  0  0  0  0  0  0  0  0
    4.0636   58.4501   73.0692 H   0  0  0  0  0  0  0  0  0  0  0  0
    2.7116   59.5139   72.5119 H   0  0  0  0  0  0  0  0  0  0  0  0
    2.5276   57.1907   73.3827 H   0  0  0  0  0  0  0  0  0  0  0  0
    1.4853   58.3351   72.4714 H   0  0  0  0  0  0  0  0  0  0  0  0
    1.1054   56.5795   72.4714 H   0  0  0  0  0  0  0  0  0  0  0  0
    0.0605   64.2768   70.5575 H   0  0  0  0  0  0  0  0  0  0  0  0
    1.0276   65.2815   71.6529 H   0  0  0  0  0  0  0  0  0  0  0  0
   -0.2808   66.9106   70.7099 H   0  0  0  0  0  0  0  0  0  0  0  0
   -1.5211   65.6472   69.2433 H   0  0  0  0  0  0  0  0  0  0  0  0
    1.2354   68.2506   69.6327 H   0  0  0  0  0  0  0  0  0  0  0  0
    2.3287   66.8505   69.5777 H   0  0  0  0  0  0  0  0  0  0  0  0
    1.9077   66.5586   67.4244 H   0  0  0  0  0  0  0  0  0  0  0  0
    0.1839   66.7718   67.6916 H   0  0  0  0  0  0  0  0  0  0  0  0
    1.7004   68.2484   66.0668 H   0  0  0  0  0  0  0  0  0  0  0  0
    1.6936   69.3581   68.8316 H   0  0  0  0  0  0  0  0  0  0  0  0
    2.8627   69.5657   67.4838 H   0  0  0  0  0  0  0  0  0  0  0  0
    1.3195   70.4850   67.4838 H   0  0  0  0  0  0  0  0  0  0  0  0
   -0.9225   68.8795   67.4684 H   0  0  0  0  0  0  0  0  0  0  0  0
   -0.3000   69.6554   65.9726 H   0  0  0  0  0  0  0  0  0  0  0  0
   -0.7128   67.9072   65.9726 H   0  0  0  0  0  0  0  0  0  0  0  0
  2  1  2  0
  3  2  1  0
  4  3  2  0
  5  4  1  0
  6  5  2  0
  6  1  1  0
  7  1  1  0
  8  7  1  0
  9  8  1  0
 10  9  2  0
 12 11  1  0
 12  9  1  0
 13  4  1  0
 14 13  1  0
 15 14  1  0
 16 15  1  0
 17 15  1  0
 18 17  1  0
 19 18  1  0
 20 19  1  0
 21 19  1  0
  2 22  1  0
  3 23  1  0
  5 24  1  0
  6 25  1  0
  7 26  1  0
  7 27  1  0
  8 28  1  0
  8 29  1  0
 11 30  1  0
 11 31  1  0
 11 32  1  0
 14 33  1  0
 14 34  1  0
 15 35  1  1
 16 36  1  0
 17 37  1  0
 17 38  1  0
 18 39  1  0
 18 40  1  0
 19 41  1  0
 20 42  1  0
 20 43  1  0
 20 44  1  0
 21 45  1  0
 21 46  1  0
 21 47  1  0
M  CHG  1  18   1
M  END
>  <score>  (7) 
-6.8

$$$$
=
     RDKit          3D

 47 47  0  0  0  0  0  0  0  0999 V2000
    4.9170   69.2100   64.7440 C   0  0  0  0  0  0  0  0  0  0  0  0
    3.5620   68.8760   64.6180 C   0  0  0  0  0  0  0  0  0  0  0  0
    2.6920   68.9990   65.7060 C   0  0  0  0  0  0  0  0  0  0  0  0
    3.1670   69.4560   66.9350 C   0  0  0  0  0  0  0  0  0  0  0  0
    4.5200   69.7770   67.0670 C   0  0  0  0  0  0  0  0  0  0  0  0
    5.3900   69.6560   65.9810 C   0  0  0  0  0  0  0  0  0  0  0  0
    5.8550   69.0650   63.5710 C   0  0  0  0  0  0  0  0  0  0  0  0
    5.1120   69.1590   62.2410 C   0  0  0  0  0  0  0  0  0  0  0  0
    4.4410   67.8530   61.9000 C   0  0  0  0  0  0  0  0  0  0  0  0
    3.3680   67.7400   61.3250 O   0  0  0  0  0  0  0  0  0  0  0  0
    4.4690   65.7420   62.9130 C   0  0  0  0  0  0  0  0  0  0  0  0
    5.2110   66.8180   62.3370 O   0  0  0  0  0  0  0  0  0  0  0  0
    2.4270   69.6250   68.0730 O   0  0  0  0  0  0  0  0  0  0  0  0
    1.0110   69.7280   67.9150 C   0  0  0  0  0  0  0  0  0  0  0  0
    0.4230   68.4150   68.4350 C   0  0  2  0  0  0  0  0  0  0  0  0
    1.4340   67.6370   69.1100 O   0  0  0  0  0  0  0  0  0  0  0  0
   -0.1290   67.5390   67.3060 C   0  0  0  0  0  0  0  0  0  0  0  0
   -1.5650   67.9480   67.0970 N   0  0  0  0  0  4  0  0  0  0  0  0
   -1.9040   68.9450   66.0360 C   0  0  0  0  0  0  0  0  0  0  0  0
   -3.3600   68.8080   65.6160 C   0  0  0  0  0  0  0  0  0  0  0  0
   -0.9380   68.8200   64.8680 C   0  0  0  0  0  0  0  0  0  0  0  0
    3.1785   68.5132   63.6530 H   0  0  0  0  0  0  0  0  0  0  0  0
    1.6303   68.7346   65.5921 H   0  0  0  0  0  0  0  0  0  0  0  0
    4.9042   70.1286   68.0359 H   0  0  0  0  0  0  0  0  0  0  0  0
    6.4529   69.9131   66.1001 H   0  0  0  0  0  0  0  0  0  0  0  0
    6.6087   69.8649   63.6159 H   0  0  0  0  0  0  0  0  0  0  0  0
    6.3289   68.0741   63.6305 H   0  0  0  0  0  0  0  0  0  0  0  0
    4.3483   69.9476   62.3112 H   0  0  0  0  0  0  0  0  0  0  0  0
    5.8397   69.3944   61.4505 H   0  0  0  0  0  0  0  0  0  0  0  0
    4.5159   65.8101   64.0099 H   0  0  0  0  0  0  0  0  0  0  0  0
    3.4204   65.8035   62.5864 H   0  0  0  0  0  0  0  0  0  0  0  0
    4.8992   64.7838   62.5864 H   0  0  0  0  0  0  0  0  0  0  0  0
    0.6236   70.5761   68.4986 H   0  0  0  0  0  0  0  0  0  0  0  0
    0.7380   69.8989   66.8632 H   0  0  0  0  0  0  0  0  0  0  0  0
   -0.3905   68.6986   69.1190 H   0  0  0  0  0  0  0  0  0  0  0  0
    1.3192   67.7253   70.0893 H   0  0  0  0  0  0  0  0  0  0  0  0
    0.4487   67.7015   66.3841 H   0  0  0  0  0  0  0  0  0  0  0  0
   -0.0569   66.4721   67.5641 H   0  0  0  0  0  0  0  0  0  0  0  0
   -2.0914   67.0898   66.8796 H   0  0  0  0  0  0  0  0  0  0  0  0
   -1.8048   68.4370   67.9712 H   0  0  0  0  0  0  0  0  0  0  0  0
   -1.7890   69.9613   66.4408 H   0  0  0  0  0  0  0  0  0  0  0  0
   -3.9959   68.7482   66.5116 H   0  0  0  0  0  0  0  0  0  0  0  0
   -3.6525   69.6826   65.0164 H   0  0  0  0  0  0  0  0  0  0  0  0
   -3.4842   67.8942   65.0164 H   0  0  0  0  0  0  0  0  0  0  0  0
    0.0848   68.6877   65.2506 H   0  0  0  0  0  0  0  0  0  0  0  0
   -1.2153   67.9503   64.2543 H   0  0  0  0  0  0  0  0  0  0  0  0
   -0.9848   69.7317   64.2543 H   0  0  0  0  0  0  0  0  0  0  0  0
  2  1  2  0
  3  2  1  0
  4  3  2  0
  5  4  1  0
  6  5  2  0
  6  1  1  0
  7  1  1  0
  8  7  1  0
  9  8  1  0
 10  9  2  0
 12 11  1  0
 12  9  1  0
 13  4  1  0
 14 13  1  0
 15 14  1  0
 16 15  1  0
 17 15  1  0
 18 17  1  0
 19 18  1  0
 20 19  1  0
 21 19  1  0
  2 22  1  0
  3 23  1  0
  5 24  1  0
  6 25  1  0
  7 26  1  0
  7 27  1  0
  8 28  1  0
  8 29  1  0
 11 30  1  0
 11 31  1  0
 11 32  1  0
 14 33  1  0
 14 34  1  0
 15 35  1  1
 16 36  1  0
 17 37  1  0
 17 38  1  0
 18 39  1  0
 18 40  1  0
 19 41  1  0
 20 42  1  0
 20 43  1  0
 20 44  1  0
 21 45  1  0
 21 46  1  0
 21 47  1  0
M  CHG  1  18   1
M  END
>  <score>  (8) 
-6.659

$$$$
=
     RDKit          3D

 47 47  0  0  0  0  0  0  0  0999 V2000
    1.9160   63.0360   71.9210 C   0  0  0  0  0  0  0  0  0  0  0  0
    0.6600   63.6330   72.0860 C   0  0  0  0  0  0  0  0  0  0  0  0
    0.2810   64.7280   71.3010 C   0  0  0  0  0  0  0  0  0  0  0  0
    1.1560   65.2380   70.3420 C   0  0  0  0  0  0  0  0  0  0  0  0
    2.4130   64.6530   70.1850 C   0  0  0  0  0  0  0  0  0  0  0  0
    2.7940   63.5590   70.9660 C   0  0  0  0  0  0  0  0  0  0  0  0
    2.3260   61.8630   72.7770 C   0  0  0  0  0  0  0  0  0  0  0  0
    2.0120   60.5330   72.0980 C   0  0  0  0  0  0  0  0  0  0  0  0
    3.2430   59.6680   72.0030 C   0  0  0  0  0  0  0  0  0  0  0  0
    4.0650   59.5090   72.8930 O   0  0  0  0  0  0  0  0  0  0  0  0
    3.5710   60.0170   69.7110 C   0  0  0  0  0  0  0  0  0  0  0  0
    3.3010   59.0950   70.7680 O   0  0  0  0  0  0  0  0  0  0  0  0
    0.9110   66.2970   69.5110 O   0  0  0  0  0  0  0  0  0  0  0  0
   -0.4060   66.4040   68.9680 C   0  0  0  0  0  0  0  0  0  0  0  0
   -0.3240   67.4320   67.8390 C   0  0  2  0  0  0  0  0  0  0  0  0
   -0.6910   66.8350   66.5780 O   0  0  0  0  0  0  0  0  0  0  0  0
    1.0930   67.9920   67.6670 C   0  0  0  0  0  0  0  0  0  0  0  0
    1.7150   67.2580   66.5050 N   0  0  0  0  0  4  0  0  0  0  0  0
    2.4860   68.0200   65.4770 C   0  0  0  0  0  0  0  0  0  0  0  0
    3.3530   69.0840   66.1350 C   0  0  0  0  0  0  0  0  0  0  0  0
    1.5440   68.5920   64.4290 C   0  0  0  0  0  0  0  0  0  0  0  0
   -0.0359   63.2372   72.8404 H   0  0  0  0  0  0  0  0  0  0  0  0
   -0.7088   65.1872   71.4406 H   0  0  0  0  0  0  0  0  0  0  0  0
    3.1118   65.0577   69.4380 H   0  0  0  0  0  0  0  0  0  0  0  0
    3.7877   63.1075   70.8294 H   0  0  0  0  0  0  0  0  0  0  0  0
    3.4081   61.9203   72.9659 H   0  0  0  0  0  0  0  0  0  0  0  0
    1.7590   61.9102   73.7184 H   0  0  0  0  0  0  0  0  0  0  0  0
    1.2451   60.0035   72.6824 H   0  0  0  0  0  0  0  0  0  0  0  0
    1.6494   60.7376   71.0798 H   0  0  0  0  0  0  0  0  0  0  0  0
    3.8560   60.9902   70.1372 H   0  0  0  0  0  0  0  0  0  0  0  0
    4.3944   59.6330   69.0909 H   0  0  0  0  0  0  0  0  0  0  0  0
    2.6705   60.1378   69.0909 H   0  0  0  0  0  0  0  0  0  0  0  0
   -0.7354   65.4313   68.5739 H   0  0  0  0  0  0  0  0  0  0  0  0
   -1.1308   66.7116   69.7362 H   0  0  0  0  0  0  0  0  0  0  0  0
   -1.0154   68.2410   68.1172 H   0  0  0  0  0  0  0  0  0  0  0  0
   -1.2022   66.0034   66.7430 H   0  0  0  0  0  0  0  0  0  0  0  0
    1.0505   69.0704   67.4544 H   0  0  0  0  0  0  0  0  0  0  0  0
    1.6855   67.8535   68.5834 H   0  0  0  0  0  0  0  0  0  0  0  0
    2.3577   66.5584   66.9029 H   0  0  0  0  0  0  0  0  0  0  0  0
    0.9018   66.9034   65.9816 H   0  0  0  0  0  0  0  0  0  0  0  0
    3.1711   67.3359   64.9548 H   0  0  0  0  0  0  0  0  0  0  0  0
    3.2786   68.9928   67.2287 H   0  0  0  0  0  0  0  0  0  0  0  0
    4.3997   68.9467   65.8259 H   0  0  0  0  0  0  0  0  0  0  0  0
    3.0072   70.0814   65.8259 H   0  0  0  0  0  0  0  0  0  0  0  0
    0.7060   69.1008   64.9279 H   0  0  0  0  0  0  0  0  0  0  0  0
    2.0885   69.3121   63.8006 H   0  0  0  0  0  0  0  0  0  0  0  0
    1.1562   67.7767   63.8006 H   0  0  0  0  0  0  0  0  0  0  0  0
  2  1  2  0
  3  2  1  0
  4  3  2  0
  5  4  1  0
  6  5  2  0
  6  1  1  0
  7  1  1  0
  8  7  1  0
  9  8  1  0
 10  9  2  0
 12 11  1  0
 12  9  1  0
 13  4  1  0
 14 13  1  0
 15 14  1  0
 16 15  1  0
 17 15  1  0
 18 17  1  0
 19 18  1  0
 20 19  1  0
 21 19  1  0
  2 22  1  0
  3 23  1  0
  5 24  1  0
  6 25  1  0
  7 26  1  0
  7 27  1  0
  8 28  1  0
  8 29  1  0
 11 30  1  0
 11 31  1  0
 11 32  1  0
 14 33  1  0
 14 34  1  0
 15 35  1  1
 16 36  1  0
 17 37  1  0
 17 38  1  0
 18 39  1  0
 18 40  1  0
 19 41  1  0
 20 42  1  0
 20 43  1  0
 20 44  1  0
 21 45  1  0
 21 46  1  0
 21 47  1  0
M  CHG  1  18   1
M  END
>  <score>  (9) 
-6.525

$$$$
