=
     RDKit          3D

 68 67  0  0  0  0  0  0  0  0999 V2000
    1.9010   68.8970   67.4690 C   0  0  0  0  0  0  0  0  0  0  0  0
    2.1950   70.1550   68.2920 C   0  0  0  0  0  0  0  0  0  0  0  0
    3.4390   70.0200   69.1770 C   0  0  0  0  0  0  0  0  0  0  0  0
    4.3960   71.2090   69.0590 C   0  0  0  0  0  0  0  0  0  0  0  0
    5.8610   70.7920   68.8880 C   0  0  0  0  0  0  0  0  0  0  0  0
    6.3890   71.0080   67.4670 C   0  0  0  0  0  0  0  0  0  0  0  0
    6.2060   69.7860   66.5620 C   0  0  0  0  0  0  0  0  0  0  0  0
    4.9040   69.8200   65.7580 C   0  0  0  0  0  0  0  0  0  0  0  0
    5.0890   69.4120   64.2920 C   0  0  0  0  0  0  0  0  0  0  0  0
    3.9510   68.5340   63.7620 C   0  0  0  0  0  0  0  0  0  0  0  0
    4.1490   67.0440   64.0620 C   0  0  0  0  0  0  0  0  0  0  0  0
    4.4640   66.1770   62.8470 C   0  0  0  0  0  0  0  0  0  0  0  0
    4.1580   64.8130   63.0980 O   0  0  0  0  0  0  0  0  0  0  0  0
    0.4060   68.5680   67.3750 C   0  0  0  0  0  0  0  0  0  0  0  0
   -0.0010   67.3560   68.2160 C   0  0  0  0  0  0  0  0  0  0  0  0
    1.1060   66.8770   69.1570 C   0  0  0  0  0  0  0  0  0  0  0  0
    0.5960   66.0640   70.3430 C   0  0  0  0  0  0  0  0  0  0  0  0
   -0.0120   64.8470   69.8770 O   0  0  0  0  0  0  0  0  0  0  0  0
    0.4070   63.7120   70.4860 C   0  0  0  0  0  0  0  0  0  0  0  0
   -0.1900   63.1140   71.3680 O   0  0  0  0  0  0  0  0  0  0  0  0
    1.6010   63.3410   69.9490 N   0  0  0  0  0  0  0  0  0  0  0  0
    2.2790   62.1190   70.3100 C   0  0  0  0  0  0  0  0  0  0  0  0
    3.5170   61.8540   69.4530 C   0  0  0  0  0  0  0  0  0  0  0  0
    4.4480   60.7620   69.9890 C   0  0  0  0  0  0  0  0  0  0  0  0
    5.3080   61.2150   71.1580 C   0  0  0  0  0  0  0  0  0  0  0  0
    2.2899   69.0472   66.4511 H   0  0  0  0  0  0  0  0  0  0  0  0
    2.3884   68.0531   67.9792 H   0  0  0  0  0  0  0  0  0  0  0  0
    2.3472   70.9973   67.6010 H   0  0  0  0  0  0  0  0  0  0  0  0
    1.3354   70.3179   68.9588 H   0  0  0  0  0  0  0  0  0  0  0  0
    3.1149   69.9349   70.2247 H   0  0  0  0  0  0  0  0  0  0  0  0
    3.9848   69.1268   68.8390 H   0  0  0  0  0  0  0  0  0  0  0  0
    4.0999   71.8106   68.1870 H   0  0  0  0  0  0  0  0  0  0  0  0
    4.3262   71.7784   69.9976 H   0  0  0  0  0  0  0  0  0  0  0  0
    6.4758   71.3830   69.5828 H   0  0  0  0  0  0  0  0  0  0  0  0
    5.9200   69.7138   69.0977 H   0  0  0  0  0  0  0  0  0  0  0  0
    5.8518   71.8574   67.0200 H   0  0  0  0  0  0  0  0  0  0  0  0
    7.4698   71.1971   67.5456 H   0  0  0  0  0  0  0  0  0  0  0  0
    7.0503   69.7427   65.8583 H   0  0  0  0  0  0  0  0  0  0  0  0
    6.1647   68.9005   67.2133 H   0  0  0  0  0  0  0  0  0  0  0  0
    4.1864   69.1295   66.2252 H   0  0  0  0  0  0  0  0  0  0  0  0
    4.5423   70.8588   65.7652 H   0  0  0  0  0  0  0  0  0  0  0  0
    5.1415   70.3240   63.6792 H   0  0  0  0  0  0  0  0  0  0  0  0
    6.0141   68.8200   64.2316 H   0  0  0  0  0  0  0  0  0  0  0  0
    3.0100   68.8624   64.2275 H   0  0  0  0  0  0  0  0  0  0  0  0
    3.9322   68.6478   62.6681 H   0  0  0  0  0  0  0  0  0  0  0  0
    4.9811   66.9473   64.7749 H   0  0  0  0  0  0  0  0  0  0  0  0
    3.1893   66.6804   64.4580 H   0  0  0  0  0  0  0  0  0  0  0  0
    3.8677   66.5273   61.9916 H   0  0  0  0  0  0  0  0  0  0  0  0
    5.5390   66.2591   62.6289 H   0  0  0  0  0  0  0  0  0  0  0  0
    4.1230   64.6570   64.0750 H   0  0  0  0  0  0  0  0  0  0  0  0
   -0.1662   69.4413   67.7213 H   0  0  0  0  0  0  0  0  0  0  0  0
    0.1918   68.3223   66.3244 H   0  0  0  0  0  0  0  0  0  0  0  0
   -0.8795   67.6282   68.8195 H   0  0  0  0  0  0  0  0  0  0  0  0
   -0.2175   66.5325   67.5196 H   0  0  0  0  0  0  0  0  0  0  0  0
    1.8037   66.2509   68.5815 H   0  0  0  0  0  0  0  0  0  0  0  0
    1.5886   67.7759   69.5682 H   0  0  0  0  0  0  0  0  0  0  0  0
    1.4383   65.8199   71.0070 H   0  0  0  0  0  0  0  0  0  0  0  0
   -0.1516   66.6550   70.8925 H   0  0  0  0  0  0  0  0  0  0  0  0
    2.0409   63.9603   69.2534 H   0  0  0  0  0  0  0  0  0  0  0  0
    2.5885   62.1866   71.3634 H   0  0  0  0  0  0  0  0  0  0  0  0
    1.5768   61.2887   70.1439 H   0  0  0  0  0  0  0  0  0  0  0  0
    3.1807   61.5546   68.4494 H   0  0  0  0  0  0  0  0  0  0  0  0
    4.1003   62.7866   69.4552 H   0  0  0  0  0  0  0  0  0  0  0  0
    3.8330   59.9117   70.3187 H   0  0  0  0  0  0  0  0  0  0  0  0
    5.1321   60.4914   69.1712 H   0  0  0  0  0  0  0  0  0  0  0  0
    4.8099   60.9526   72.1030 H   0  0  0  0  0  0  0  0  0  0  0  0
    6.2868   60.7154   71.1084 H   0  0  0  0  0  0  0  0  0  0  0  0
    5.4496   62.3047   71.1084 H   0  0  0  0  0  0  0  0  0  0  0  0
  2  1  1  0
  3  2  1  0
  4  3  1  0
  5  4  1  0
  6  5  1  0
  7  6  1  0
  8  7  1  0
  9  8  1  0
 10  9  1  0
 11 10  1  0
 12 11  1  0
 13 12  1  0
 14  1  1  0
 15 14  1  0
 16 15  1  0
 17 16  1  0
 18 17  1  0
 19 18  1  0
 20 19  2  0
 21 19  1  0
 22 21  1  0
 23 22  1  0
 24 23  1  0
 25 24  1  0
  1 26  1  0
  1 27  1  0
  2 28  1  0
  2 29  1  0
  3 30  1  0
  3 31  1  0
  4 32  1  0
  4 33  1  0
  5 34  1  0
  5 35  1  0
  6 36  1  0
  6 37  1  0
  7 38  1  0
  7 39  1  0
  8 40  1  0
  8 41  1  0
  9 42  1  0
  9 43  1  0
 10 44  1  0
 10 45  1  0
 11 46  1  0
 11 47  1  0
 12 48  1  0
 12 49  1  0
 13 50  1  0
 14 51  1  0
 14 52  1  0
 15 53  1  0
 15 54  1  0
 16 55  1  0
 16 56  1  0
 17 57  1  0
 17 58  1  0
 21 59  1  0
 22 60  1  0
 22 61  1  0
 23 62  1  0
 23 63  1  0
 24 64  1  0
 24 65  1  0
 25 66  1  0
 25 67  1  0
 25 68  1  0
M  END
>  <score>  (1) 
-7.202

$$$$
=
     RDKit          3D

 68 67  0  0  0  0  0  0  0  0999 V2000
    0.8460   65.5910   70.7490 C   0  0  0  0  0  0  0  0  0  0  0  0
    0.4800   64.1280   70.4850 C   0  0  0  0  0  0  0  0  0  0  0  0
    1.6150   63.1530   70.8170 C   0  0  0  0  0  0  0  0  0  0  0  0
    2.3320   62.6150   69.5760 C   0  0  0  0  0  0  0  0  0  0  0  0
    3.8190   62.9850   69.5280 C   0  0  0  0  0  0  0  0  0  0  0  0
    4.5080   62.8930   70.8920 C   0  0  0  0  0  0  0  0  0  0  0  0
    5.4470   61.6890   71.0150 C   0  0  0  0  0  0  0  0  0  0  0  0
    5.2290   60.8820   72.2970 C   0  0  0  0  0  0  0  0  0  0  0  0
    3.9060   61.2080   72.9990 C   0  0  0  0  0  0  0  0  0  0  0  0
    2.8890   60.0660   72.9310 C   0  0  0  0  0  0  0  0  0  0  0  0
    2.6620   59.5440   71.5080 C   0  0  0  0  0  0  0  0  0  0  0  0
    3.0320   58.0800   71.2900 C   0  0  0  0  0  0  0  0  0  0  0  0
    3.8200   57.9190   70.1200 O   0  0  0  0  0  0  0  0  0  0  0  0
    0.7620   66.4740   69.4980 C   0  0  0  0  0  0  0  0  0  0  0  0
   -0.6030   66.4180   68.8080 C   0  0  0  0  0  0  0  0  0  0  0  0
   -0.6840   67.3040   67.5630 C   0  0  0  0  0  0  0  0  0  0  0  0
    0.6670   67.5580   66.9010 C   0  0  0  0  0  0  0  0  0  0  0  0
    0.7620   66.8090   65.6770 O   0  0  0  0  0  0  0  0  0  0  0  0
    2.0110   66.6690   65.1710 C   0  0  0  0  0  0  0  0  0  0  0  0
    2.6290   65.6200   65.0800 O   0  0  0  0  0  0  0  0  0  0  0  0
    2.4630   67.8900   64.7730 N   0  0  0  0  0  0  0  0  0  0  0  0
    3.7270   68.0780   64.1020 C   0  0  0  0  0  0  0  0  0  0  0  0
    4.6680   69.0100   64.8640 C   0  0  0  0  0  0  0  0  0  0  0  0
    4.1140   69.5410   66.1900 C   0  0  0  0  0  0  0  0  0  0  0  0
    5.1900   70.0170   67.1520 C   0  0  0  0  0  0  0  0  0  0  0  0
    0.1561   65.9921   71.5061 H   0  0  0  0  0  0  0  0  0  0  0  0
    1.8918   65.6082   71.0896 H   0  0  0  0  0  0  0  0  0  0  0  0
   -0.3943   63.8696   71.1006 H   0  0  0  0  0  0  0  0  0  0  0  0
    0.2705   64.0321   69.4094 H   0  0  0  0  0  0  0  0  0  0  0  0
    2.3506   63.6747   71.4468 H   0  0  0  0  0  0  0  0  0  0  0  0
    1.1651   62.2919   71.3329 H   0  0  0  0  0  0  0  0  0  0  0  0
    2.2445   61.5185   69.5698 H   0  0  0  0  0  0  0  0  0  0  0  0
    1.8532   63.0734   68.6982 H   0  0  0  0  0  0  0  0  0  0  0  0
    4.3272   62.3006   68.8328 H   0  0  0  0  0  0  0  0  0  0  0  0
    3.8846   64.0325   69.1988 H   0  0  0  0  0  0  0  0  0  0  0  0
    5.0938   63.8105   71.0501 H   0  0  0  0  0  0  0  0  0  0  0  0
    3.7190   62.7702   71.6486 H   0  0  0  0  0  0  0  0  0  0  0  0
    5.2808   61.0267   70.1526 H   0  0  0  0  0  0  0  0  0  0  0  0
    6.4753   62.0785   71.0452 H   0  0  0  0  0  0  0  0  0  0  0  0
    5.2347   59.8121   72.0417 H   0  0  0  0  0  0  0  0  0  0  0  0
    6.0406   61.1460   72.9910 H   0  0  0  0  0  0  0  0  0  0  0  0
    4.1160   61.4264   74.0564 H   0  0  0  0  0  0  0  0  0  0  0  0
    3.4640   62.0703   72.4784 H   0  0  0  0  0  0  0  0  0  0  0  0
    3.2533   59.2358   73.5540 H   0  0  0  0  0  0  0  0  0  0  0  0
    1.9281   60.4620   73.2912 H   0  0  0  0  0  0  0  0  0  0  0  0
    1.5959   59.6659   71.2661 H   0  0  0  0  0  0  0  0  0  0  0  0
    3.3281   60.1290   70.8568 H   0  0  0  0  0  0  0  0  0  0  0  0
    3.6024   57.7207   72.1592 H   0  0  0  0  0  0  0  0  0  0  0  0
    2.1050   57.5005   71.1684 H   0  0  0  0  0  0  0  0  0  0  0  0
    4.7568   57.7276   70.3768 H   0  0  0  0  0  0  0  0  0  0  0  0
    0.9625   67.5150   69.7913 H   0  0  0  0  0  0  0  0  0  0  0  0
    1.5052   66.0949   68.7811 H   0  0  0  0  0  0  0  0  0  0  0  0
   -0.8025   65.3779   68.5109 H   0  0  0  0  0  0  0  0  0  0  0  0
   -1.3483   66.7920   69.5254 H   0  0  0  0  0  0  0  0  0  0  0  0
   -1.3428   66.8143   66.8307 H   0  0  0  0  0  0  0  0  0  0  0  0
   -1.0707   68.2809   67.8887 H   0  0  0  0  0  0  0  0  0  0  0  0
    0.7690   68.6309   66.6807 H   0  0  0  0  0  0  0  0  0  0  0  0
    1.4694   67.2399   67.5829 H   0  0  0  0  0  0  0  0  0  0  0  0
    1.8769   68.7163   64.9590 H   0  0  0  0  0  0  0  0  0  0  0  0
    4.2155   67.0986   63.9915 H   0  0  0  0  0  0  0  0  0  0  0  0
    3.5188   68.5420   63.1266 H   0  0  0  0  0  0  0  0  0  0  0  0
    5.5960   68.4592   65.0772 H   0  0  0  0  0  0  0  0  0  0  0  0
    4.8218   69.8881   64.2196 H   0  0  0  0  0  0  0  0  0  0  0  0
    3.4430   70.3853   65.9733 H   0  0  0  0  0  0  0  0  0  0  0  0
    3.5911   68.7057   66.6787 H   0  0  0  0  0  0  0  0  0  0  0  0
    4.8493   69.8663   68.1870 H   0  0  0  0  0  0  0  0  0  0  0  0
    6.1131   69.4433   66.9827 H   0  0  0  0  0  0  0  0  0  0  0  0
    5.3864   71.0860   66.9827 H   0  0  0  0  0  0  0  0  0  0  0  0
  2  1  1  0
  3  2  1  0
  4  3  1  0
  5  4  1  0
  6  5  1  0
  7  6  1  0
  8  7  1  0
  9  8  1  0
 10  9  1  0
 11 10  1  0
 12 11  1  0
 13 12  1  0
 14  1  1  0
 15 14  1  0
 16 15  1  0
 17 16  1  0
 18 17  1  0
 19 18  1  0
 20 19  2  0
 21 19  1  0
 22 21  1  0
 23 22  1  0
 24 23  1  0
 25 24  1  0
  1 26  1  0
  1 27  1  0
  2 28  1  0
  2 29  1  0
  3 30  1  0
  3 31  1  0
  4 32  1  0
  4 33  1  0
  5 34  1  0
  5 35  1  0
  6 36  1  0
  6 37  1  0
  7 38  1  0
  7 39  1  0
  8 40  1  0
  8 41  1  0
  9 42  1  0
  9 43  1  0
 10 44  1  0
 10 45  1  0
 11 46  1  0
 11 47  1  0
 12 48  1  0
 12 49  1  0
 13 50  1  0
 14 51  1  0
 14 52  1  0
 15 53  1  0
 15 54  1  0
 16 55  1  0
 16 56  1  0
 17 57  1  0
 17 58  1  0
 21 59  1  0
 22 60  1  0
 22 61  1  0
 23 62  1  0
 23 63  1  0
 24 64  1  0
 24 65  1  0
 25 66  1  0
 25 67  1  0
 25 68  1  0
M  END
>  <score>  (2) 
-7.075

$$$$
=
     RDKit          3D

 68 67  0  0  0  0  0  0  0  0999 V2000
    1.6230   64.1080   71.1400 C   0  0  0  0  0  0  0  0  0  0  0  0
    0.6180   64.9860   70.3880 C   0  0  0  0  0  0  0  0  0  0  0  0
    1.2390   66.2710   69.8310 C   0  0  0  0  0  0  0  0  0  0  0  0
    0.2990   67.0400   68.8980 C   0  0  0  0  0  0  0  0  0  0  0  0
    1.0220   68.0810   68.0340 C   0  0  0  0  0  0  0  0  0  0  0  0
    1.5290   67.5150   66.7050 C   0  0  0  0  0  0  0  0  0  0  0  0
    1.9910   68.5980   65.7250 C   0  0  0  0  0  0  0  0  0  0  0  0
    3.2970   68.2460   65.0080 C   0  0  0  0  0  0  0  0  0  0  0  0
    4.4420   69.2140   65.3270 C   0  0  0  0  0  0  0  0  0  0  0  0
    4.3700   69.7870   66.7450 C   0  0  0  0  0  0  0  0  0  0  0  0
    5.7020   70.3730   67.2270 C   0  0  0  0  0  0  0  0  0  0  0  0
    5.6040   71.2730   68.4560 C   0  0  0  0  0  0  0  0  0  0  0  0
    5.7970   72.6360   68.1100 O   0  0  0  0  0  0  0  0  0  0  0  0
    2.1970   62.9720   70.2840 C   0  0  0  0  0  0  0  0  0  0  0  0
    3.4570   63.3720   69.5130 C   0  0  0  0  0  0  0  0  0  0  0  0
    4.7470   63.1220   70.2970 C   0  0  0  0  0  0  0  0  0  0  0  0
    4.6680   61.9260   71.2420 C   0  0  0  0  0  0  0  0  0  0  0  0
    5.0420   60.7250   70.5460 O   0  0  0  0  0  0  0  0  0  0  0  0
    4.1240   59.7290   70.5610 C   0  0  0  0  0  0  0  0  0  0  0  0
    3.9730   58.8870   69.6900 O   0  0  0  0  0  0  0  0  0  0  0  0
    3.4010   59.8150   71.7110 N   0  0  0  0  0  0  0  0  0  0  0  0
    2.4000   58.8450   72.0840 C   0  0  0  0  0  0  0  0  0  0  0  0
    1.2740   59.4490   72.9230 C   0  0  0  0  0  0  0  0  0  0  0  0
    1.3820   60.9600   73.1520 C   0  0  0  0  0  0  0  0  0  0  0  0
    1.7400   61.3350   74.5810 C   0  0  0  0  0  0  0  0  0  0  0  0
    2.4544   64.7426   71.4807 H   0  0  0  0  0  0  0  0  0  0  0  0
    1.0849   63.6431   71.9793 H   0  0  0  0  0  0  0  0  0  0  0  0
    0.2047   64.4055   69.5500 H   0  0  0  0  0  0  0  0  0  0  0  0
   -0.1594   65.2832   71.1072 H   0  0  0  0  0  0  0  0  0  0  0  0
    1.5059   66.9245   70.6746 H   0  0  0  0  0  0  0  0  0  0  0  0
    2.1195   65.9790   69.2399 H   0  0  0  0  0  0  0  0  0  0  0  0
   -0.1996   66.3195   68.2330 H   0  0  0  0  0  0  0  0  0  0  0  0
   -0.4178   67.5828   69.5317 H   0  0  0  0  0  0  0  0  0  0  0  0
    0.3236   68.9034   67.8199 H   0  0  0  0  0  0  0  0  0  0  0  0
    1.9011   68.4220   68.6005 H   0  0  0  0  0  0  0  0  0  0  0  0
    2.3769   66.8452   66.9110 H   0  0  0  0  0  0  0  0  0  0  0  0
    0.6885   66.9846   66.2336 H   0  0  0  0  0  0  0  0  0  0  0  0
    1.2054   68.7433   64.9689 H   0  0  0  0  0  0  0  0  0  0  0  0
    2.1755   69.5109   66.3103 H   0  0  0  0  0  0  0  0  0  0  0  0
    3.6006   67.2334   65.3120 H   0  0  0  0  0  0  0  0  0  0  0  0
    3.1043   68.3131   63.9271 H   0  0  0  0  0  0  0  0  0  0  0  0
    5.3954   68.6768   65.2150 H   0  0  0  0  0  0  0  0  0  0  0  0
    4.3595   70.0595   64.6282 H   0  0  0  0  0  0  0  0  0  0  0  0
    3.6110   70.5830   66.7625 H   0  0  0  0  0  0  0  0  0  0  0  0
    4.1139   68.9575   67.4205 H   0  0  0  0  0  0  0  0  0  0  0  0
    6.3748   69.5371   67.4690 H   0  0  0  0  0  0  0  0  0  0  0  0
    6.0719   71.0089   66.4092 H   0  0  0  0  0  0  0  0  0  0  0  0
    4.6084   71.1551   68.9087 H   0  0  0  0  0  0  0  0  0  0  0  0
    6.3903   70.9791   69.1669 H   0  0  0  0  0  0  0  0  0  0  0  0
    5.8738   73.1782   68.9348 H   0  0  0  0  0  0  0  0  0  0  0  0
    2.4451   62.1282   70.9446 H   0  0  0  0  0  0  0  0  0  0  0  0
    1.4312   62.7054   69.5407 H   0  0  0  0  0  0  0  0  0  0  0  0
    3.4960   62.7899   68.5805 H   0  0  0  0  0  0  0  0  0  0  0  0
    3.3944   64.4535   69.3221 H   0  0  0  0  0  0  0  0  0  0  0  0
    5.5610   62.9441   69.5789 H   0  0  0  0  0  0  0  0  0  0  0  0
    4.9232   64.0122   70.9187 H   0  0  0  0  0  0  0  0  0  0  0  0
    5.3522   62.0847   72.0886 H   0  0  0  0  0  0  0  0  0  0  0  0
    3.6366   61.8240   71.6105 H   0  0  0  0  0  0  0  0  0  0  0  0
    3.5764   60.6086   72.3438 H   0  0  0  0  0  0  0  0  0  0  0  0
    1.9657   58.4181   71.1680 H   0  0  0  0  0  0  0  0  0  0  0  0
    2.8948   58.0773   72.6970 H   0  0  0  0  0  0  0  0  0  0  0  0
    0.3209   59.2477   72.4120 H   0  0  0  0  0  0  0  0  0  0  0  0
    1.3422   58.9800   73.9157 H   0  0  0  0  0  0  0  0  0  0  0  0
    2.1589   61.3585   72.4829 H   0  0  0  0  0  0  0  0  0  0  0  0
    0.3907   61.3893   72.9446 H   0  0  0  0  0  0  0  0  0  0  0  0
    1.1532   60.7203   75.2794 H   0  0  0  0  0  0  0  0  0  0  0  0
    2.8126   61.1578   74.7488 H   0  0  0  0  0  0  0  0  0  0  0  0
    1.5133   62.3982   74.7488 H   0  0  0  0  0  0  0  0  0  0  0  0
  2  1  1  0
  3  2  1  0
  4  3  1  0
  5  4  1  0
  6  5  1  0
  7  6  1  0
  8  7  1  0
  9  8  1  0
 10  9  1  0
 11 10  1  0
 12 11  1  0
 13 12  1  0
 14  1  1  0
 15 14  1  0
 16 15  1  0
 17 16  1  0
 18 17  1  0
 19 18  1  0
 20 19  2  0
 21 19  1  0
 22 21  1  0
 23 22  1  0
 24 23  1  0
 25 24  1  0
  1 26  1  0
  1 27  1  0
  2 28  1  0
  2 29  1  0
  3 30  1  0
  3 31  1  0
  4 32  1  0
  4 33  1  0
  5 34  1  0
  5 35  1  0
  6 36  1  0
  6 37  1  0
  7 38  1  0
  7 39  1  0
  8 40  1  0
  8 41  1  0
  9 42  1  0
  9 43  1  0
 10 44  1  0
 10 45  1  0
 11 46  1  0
 11 47  1  0
 12 48  1  0
 12 49  1  0
 13 50  1  0
 14 51  1  0
 14 52  1  0
 15 53  1  0
 15 54  1  0
 16 55  1  0
 16 56  1  0
 17 57  1  0
 17 58  1  0
 21 59  1  0
 22 60  1  0
 22 61  1  0
 23 62  1  0
 23 63  1  0
 24 64  1  0
 24 65  1  0
 25 66  1  0
 25 67  1  0
 25 68  1  0
M  END
>  <score>  (3) 
-7.002

$$$$
=
     RDKit          3D

 68 67  0  0  0  0  0  0  0  0999 V2000
    0.7030   64.1990   70.8370 C   0  0  0  0  0  0  0  0  0  0  0  0
    2.1950   63.9390   70.6130 C   0  0  0  0  0  0  0  0  0  0  0  0
    2.4680   62.8230   69.5980 C   0  0  0  0  0  0  0  0  0  0  0  0
    3.9540   62.6530   69.2700 C   0  0  0  0  0  0  0  0  0  0  0  0
    4.8800   63.2370   70.3430 C   0  0  0  0  0  0  0  0  0  0  0  0
    5.2110   62.2450   71.4610 C   0  0  0  0  0  0  0  0  0  0  0  0
    5.1440   60.7820   71.0090 C   0  0  0  0  0  0  0  0  0  0  0  0
    4.4760   59.8640   72.0360 C   0  0  0  0  0  0  0  0  0  0  0  0
    3.2250   59.1620   71.4950 C   0  0  0  0  0  0  0  0  0  0  0  0
    1.9980   59.3400   72.3930 C   0  0  0  0  0  0  0  0  0  0  0  0
    1.4800   60.7820   72.4280 C   0  0  0  0  0  0  0  0  0  0  0  0
    1.4800   61.4340   73.8070 C   0  0  0  0  0  0  0  0  0  0  0  0
    2.6480   62.2190   74.0020 O   0  0  0  0  0  0  0  0  0  0  0  0
    0.3460   65.6900   70.8740 C   0  0  0  0  0  0  0  0  0  0  0  0
    0.9870   66.4950   69.7410 C   0  0  0  0  0  0  0  0  0  0  0  0
   -0.0220   66.9610   68.6890 C   0  0  0  0  0  0  0  0  0  0  0  0
    0.5770   67.8800   67.6280 C   0  0  0  0  0  0  0  0  0  0  0  0
   -0.3010   67.9550   66.4920 O   0  0  0  0  0  0  0  0  0  0  0  0
    0.2770   68.3440   65.3300 C   0  0  0  0  0  0  0  0  0  0  0  0
   -0.3120   68.7790   64.3530 O   0  0  0  0  0  0  0  0  0  0  0  0
    1.6240   68.1770   65.4310 N   0  0  0  0  0  0  0  0  0  0  0  0
    2.5460   68.5850   64.3990 C   0  0  0  0  0  0  0  0  0  0  0  0
    3.8420   69.1680   64.9600 C   0  0  0  0  0  0  0  0  0  0  0  0
    3.8060   69.4950   66.4560 C   0  0  0  0  0  0  0  0  0  0  0  0
    5.1480   69.9390   67.0150 C   0  0  0  0  0  0  0  0  0  0  0  0
    0.1395   63.7252   70.0197 H   0  0  0  0  0  0  0  0  0  0  0  0
    0.4426   63.7771   71.8189 H   0  0  0  0  0  0  0  0  0  0  0  0
    2.6603   64.8661   70.2468 H   0  0  0  0  0  0  0  0  0  0  0  0
    2.6186   63.6162   71.5755 H   0  0  0  0  0  0  0  0  0  0  0  0
    2.0909   61.8757   70.0108 H   0  0  0  0  0  0  0  0  0  0  0  0
    1.9577   63.1002   68.6638 H   0  0  0  0  0  0  0  0  0  0  0  0
    4.1692   61.5789   69.1695 H   0  0  0  0  0  0  0  0  0  0  0  0
    4.1477   63.2024   68.3369 H   0  0  0  0  0  0  0  0  0  0  0  0
    5.8193   63.5477   69.8623 H   0  0  0  0  0  0  0  0  0  0  0  0
    4.3512   64.0840   70.8044 H   0  0  0  0  0  0  0  0  0  0  0  0
    6.2287   62.4529   71.8230 H   0  0  0  0  0  0  0  0  0  0  0  0
    4.4566   62.3783   72.2504 H   0  0  0  0  0  0  0  0  0  0  0  0
    4.5720   60.7317   70.0707 H   0  0  0  0  0  0  0  0  0  0  0  0
    6.1788   60.4314   70.8811 H   0  0  0  0  0  0  0  0  0  0  0  0
    5.2019   59.0969   72.3436 H   0  0  0  0  0  0  0  0  0  0  0  0
    4.1582   60.4941   72.8798 H   0  0  0  0  0  0  0  0  0  0  0  0
    2.9943   59.5749   70.5019 H   0  0  0  0  0  0  0  0  0  0  0  0
    3.4464   58.0853   71.4535 H   0  0  0  0  0  0  0  0  0  0  0  0
    1.1940   58.6886   72.0197 H   0  0  0  0  0  0  0  0  0  0  0  0
    2.3012   59.0764   73.4170 H   0  0  0  0  0  0  0  0  0  0  0  0
    2.1136   61.3883   71.7639 H   0  0  0  0  0  0  0  0  0  0  0  0
    0.4283   60.7385   72.1086 H   0  0  0  0  0  0  0  0  0  0  0  0
    0.5940   62.0793   73.8992 H   0  0  0  0  0  0  0  0  0  0  0  0
    1.4615   60.6404   74.5685 H   0  0  0  0  0  0  0  0  0  0  0  0
    2.8130   62.3299   74.9718 H   0  0  0  0  0  0  0  0  0  0  0  0
   -0.7469   65.7892   70.7977 H   0  0  0  0  0  0  0  0  0  0  0  0
    0.7342   66.0942   71.8205 H   0  0  0  0  0  0  0  0  0  0  0  0
    1.4754   67.3805   70.1738 H   0  0  0  0  0  0  0  0  0  0  0  0
    1.7058   65.8335   69.2352 H   0  0  0  0  0  0  0  0  0  0  0  0
   -0.4346   66.0736   68.1867 H   0  0  0  0  0  0  0  0  0  0  0  0
   -0.7927   67.5408   69.2179 H   0  0  0  0  0  0  0  0  0  0  0  0
    0.7120   68.8862   68.0514 H   0  0  0  0  0  0  0  0  0  0  0  0
    1.5492   67.4772   67.3078 H   0  0  0  0  0  0  0  0  0  0  0  0
    2.0024   67.7393   66.2831 H   0  0  0  0  0  0  0  0  0  0  0  0
    2.7930   67.7086   63.7818 H   0  0  0  0  0  0  0  0  0  0  0  0
    2.0557   69.3738   63.8097 H   0  0  0  0  0  0  0  0  0  0  0  0
    4.6474   68.4386   64.7887 H   0  0  0  0  0  0  0  0  0  0  0  0
    4.0024   70.1232   64.4386 H   0  0  0  0  0  0  0  0  0  0  0  0
    3.0775   70.3032   66.6178 H   0  0  0  0  0  0  0  0  0  0  0  0
    3.5282   68.5695   66.9816 H   0  0  0  0  0  0  0  0  0  0  0  0
    5.1096   69.9263   68.1143 H   0  0  0  0  0  0  0  0  0  0  0  0
    5.9349   69.2533   66.6676 H   0  0  0  0  0  0  0  0  0  0  0  0
    5.3706   70.9587   66.6676 H   0  0  0  0  0  0  0  0  0  0  0  0
  2  1  1  0
  3  2  1  0
  4  3  1  0
  5  4  1  0
  6  5  1  0
  7  6  1  0
  8  7  1  0
  9  8  1  0
 10  9  1  0
 11 10  1  0
 12 11  1  0
 13 12  1  0
 14  1  1  0
 15 14  1  0
 16 15  1  0
 17 16  1  0
 18 17  1  0
 19 18  1  0
 20 19  2  0
 21 19  1  0
 22 21  1  0
 23 22  1  0
 24 23  1  0
 25 24  1  0
  1 26  1  0
  1 27  1  0
  2 28  1  0
  2 29  1  0
  3 30  1  0
  3 31  1  0
  4 32  1  0
  4 33  1  0
  5 34  1  0
  5 35  1  0
  6 36  1  0
  6 37  1  0
  7 38  1  0
  7 39  1  0
  8 40  1  0
  8 41  1  0
  9 42  1  0
  9 43  1  0
 10 44  1  0
 10 45  1  0
 11 46  1  0
 11 47  1  0
 12 48  1  0
 12 49  1  0
 13 50  1  0
 14 51  1  0
 14 52  1  0
 15 53  1  0
 15 54  1  0
 16 55  1  0
 16 56  1  0
 17 57  1  0
 17 58  1  0
 21 59  1  0
 22 60  1  0
 22 61  1  0
 23 62  1  0
 23 63  1  0
 24 64  1  0
 24 65  1  0
 25 66  1  0
 25 67  1  0
 25 68  1  0
M  END
>  <score>  (4) 
-6.936

$$$$
=
     RDKit          3D

 68 67  0  0  0  0  0  0  0  0999 V2000
    2.5070   63.1880   69.5180 C   0  0  0  0  0  0  0  0  0  0  0  0
    3.9850   62.8020   69.4150 C   0  0  0  0  0  0  0  0  0  0  0  0
    4.7740   63.0870   70.6970 C   0  0  0  0  0  0  0  0  0  0  0  0
    5.3400   61.8240   71.3520 C   0  0  0  0  0  0  0  0  0  0  0  0
    4.6800   60.5350   70.8500 C   0  0  0  0  0  0  0  0  0  0  0  0
    4.1280   59.6600   71.9790 C   0  0  0  0  0  0  0  0  0  0  0  0
    2.5980   59.5890   71.9950 C   0  0  0  0  0  0  0  0  0  0  0  0
    1.9340   60.9370   72.2890 C   0  0  0  0  0  0  0  0  0  0  0  0
    2.2570   61.4780   73.6860 C   0  0  0  0  0  0  0  0  0  0  0  0
    1.8770   62.9500   73.8670 C   0  0  0  0  0  0  0  0  0  0  0  0
    0.9720   63.1950   75.0790 C   0  0  0  0  0  0  0  0  0  0  0  0
    0.4460   64.6210   75.2150 C   0  0  0  0  0  0  0  0  0  0  0  0
   -0.3490   64.9830   74.0960 O   0  0  0  0  0  0  0  0  0  0  0  0
    2.2490   64.3500   70.4850 C   0  0  0  0  0  0  0  0  0  0  0  0
    0.7670   64.5480   70.8130 C   0  0  0  0  0  0  0  0  0  0  0  0
    0.3080   66.0000   70.6690 C   0  0  0  0  0  0  0  0  0  0  0  0
    0.9470   66.7320   69.4910 C   0  0  0  0  0  0  0  0  0  0  0  0
    0.0750   66.6790   68.3500 O   0  0  0  0  0  0  0  0  0  0  0  0
    0.3260   67.5890   67.3780 C   0  0  0  0  0  0  0  0  0  0  0  0
   -0.4140   68.5040   67.0510 O   0  0  0  0  0  0  0  0  0  0  0  0
    1.5420   67.3220   66.8280 N   0  0  0  0  0  0  0  0  0  0  0  0
    2.1530   68.1620   65.8260 C   0  0  0  0  0  0  0  0  0  0  0  0
    3.1400   69.1670   66.4190 C   0  0  0  0  0  0  0  0  0  0  0  0
    4.3550   69.4720   65.5370 C   0  0  0  0  0  0  0  0  0  0  0  0
    5.5690   69.9490   66.3180 C   0  0  0  0  0  0  0  0  0  0  0  0
    2.1521   63.4802   68.5187 H   0  0  0  0  0  0  0  0  0  0  0  0
    1.9684   62.3126   69.9099 H   0  0  0  0  0  0  0  0  0  0  0  0
    4.0509   61.7261   69.1958 H   0  0  0  0  0  0  0  0  0  0  0  0
    4.4278   63.4144   68.6157 H   0  0  0  0  0  0  0  0  0  0  0  0
    5.6104   63.7576   70.4506 H   0  0  0  0  0  0  0  0  0  0  0  0
    4.0762   63.5423   71.4152 H   0  0  0  0  0  0  0  0  0  0  0  0
    6.4175   61.7716   71.1369 H   0  0  0  0  0  0  0  0  0  0  0  0
    5.1367   61.8963   72.4306 H   0  0  0  0  0  0  0  0  0  0  0  0
    3.8506   60.8051   70.1798 H   0  0  0  0  0  0  0  0  0  0  0  0
    5.4556   59.9507   70.3333 H   0  0  0  0  0  0  0  0  0  0  0  0
    4.5239   58.6410   71.8569 H   0  0  0  0  0  0  0  0  0  0  0  0
    4.4439   60.1152   72.9293 H   0  0  0  0  0  0  0  0  0  0  0  0
    2.2542   59.2373   71.0111 H   0  0  0  0  0  0  0  0  0  0  0  0
    2.3114   58.9005   72.8036 H   0  0  0  0  0  0  0  0  0  0  0  0
    2.2802   61.6673   71.5428 H   0  0  0  0  0  0  0  0  0  0  0  0
    0.8460   60.7822   72.2423 H   0  0  0  0  0  0  0  0  0  0  0  0
    1.7060   60.8812   74.4277 H   0  0  0  0  0  0  0  0  0  0  0  0
    3.3461   61.4032   73.8211 H   0  0  0  0  0  0  0  0  0  0  0  0
    2.7991   63.5359   73.9950 H   0  0  0  0  0  0  0  0  0  0  0  0
    1.3147   63.2549   72.9721 H   0  0  0  0  0  0  0  0  0  0  0  0
    0.1079   62.5188   75.0016 H   0  0  0  0  0  0  0  0  0  0  0  0
    1.5932   63.0110   75.9680 H   0  0  0  0  0  0  0  0  0  0  0  0
   -0.1644   64.6930   76.1273 H   0  0  0  0  0  0  0  0  0  0  0  0
    1.3051   65.3059   75.2686 H   0  0  0  0  0  0  0  0  0  0  0  0
   -1.2034   65.3720   74.4102 H   0  0  0  0  0  0  0  0  0  0  0  0
    2.7903   64.1512   71.4218 H   0  0  0  0  0  0  0  0  0  0  0  0
    2.5985   65.2685   69.9908 H   0  0  0  0  0  0  0  0  0  0  0  0
    0.1713   63.9235   70.1310 H   0  0  0  0  0  0  0  0  0  0  0  0
    0.6236   64.2621   71.8655 H   0  0  0  0  0  0  0  0  0  0  0  0
   -0.7834   66.0072   70.5316 H   0  0  0  0  0  0  0  0  0  0  0  0
    0.6196   66.5277   71.5825 H   0  0  0  0  0  0  0  0  0  0  0  0
    1.1233   67.7822   69.7666 H   0  0  0  0  0  0  0  0  0  0  0  0
    1.9021   66.2478   69.2392 H   0  0  0  0  0  0  0  0  0  0  0  0
    2.0493   66.4821   67.1412 H   0  0  0  0  0  0  0  0  0  0  0  0
    2.6900   67.5220   65.1104 H   0  0  0  0  0  0  0  0  0  0  0  0
    1.3500   68.7340   65.3381 H   0  0  0  0  0  0  0  0  0  0  0  0
    2.6022   70.1096   66.5983 H   0  0  0  0  0  0  0  0  0  0  0  0
    3.5326   68.7092   67.3389 H   0  0  0  0  0  0  0  0  0  0  0  0
    4.6291   68.5558   64.9935 H   0  0  0  0  0  0  0  0  0  0  0  0
    4.0654   70.2890   64.8598 H   0  0  0  0  0  0  0  0  0  0  0  0
    5.3659   69.8692   67.3961 H   0  0  0  0  0  0  0  0  0  0  0  0
    6.4382   69.3255   66.0615 H   0  0  0  0  0  0  0  0  0  0  0  0
    5.7813   70.9974   66.0615 H   0  0  0  0  0  0  0  0  0  0  0  0
  2  1  1  0
  3  2  1  0
  4  3  1  0
  5  4  1  0
  6  5  1  0
  7  6  1  0
  8  7  1  0
  9  8  1  0
 10  9  1  0
 11 10  1  0
 12 11  1  0
 13 12  1  0
 14  1  1  0
 15 14  1  0
 16 15  1  0
 17 16  1  0
 18 17  1  0
 19 18  1  0
 20 19  2  0
 21 19  1  0
 22 21  1  0
 23 22  1  0
 24 23  1  0
 25 24  1  0
  1 26  1  0
  1 27  1  0
  2 28  1  0
  2 29  1  0
  3 30  1  0
  3 31  1  0
  4 32  1  0
  4 33  1  0
  5 34  1  0
  5 35  1  0
  6 36  1  0
  6 37  1  0
  7 38  1  0
  7 39  1  0
  8 40  1  0
  8 41  1  0
  9 42  1  0
  9 43  1  0
 10 44  1  0
 10 45  1  0
 11 46  1  0
 11 47  1  0
 12 48  1  0
 12 49  1  0
 13 50  1  0
 14 51  1  0
 14 52  1  0
 15 53  1  0
 15 54  1  0
 16 55  1  0
 16 56  1  0
 17 57  1  0
 17 58  1  0
 21 59  1  0
 22 60  1  0
 22 61  1  0
 23 62  1  0
 23 63  1  0
 24 64  1  0
 24 65  1  0
 25 66  1  0
 25 67  1  0
 25 68  1  0
M  END
>  <score>  (5) 
-6.932

$$$$
=
     RDKit          3D

 68 67  0  0  0  0  0  0  0  0999 V2000
    5.8240   70.7120   69.0570 C   0  0  0  0  0  0  0  0  0  0  0  0
    6.5250   70.9570   67.7180 C   0  0  0  0  0  0  0  0  0  0  0  0
    6.3550   69.8010   66.7270 C   0  0  0  0  0  0  0  0  0  0  0  0
    5.2730   70.0590   65.6760 C   0  0  0  0  0  0  0  0  0  0  0  0
    5.5010   69.2880   64.3700 C   0  0  0  0  0  0  0  0  0  0  0  0
    5.2060   67.7910   64.4940 C   0  0  0  0  0  0  0  0  0  0  0  0
    4.3760   67.2410   63.3290 C   0  0  0  0  0  0  0  0  0  0  0  0
    4.1040   68.2800   62.2380 C   0  0  0  0  0  0  0  0  0  0  0  0
    2.6390   68.7280   62.1820 C   0  0  0  0  0  0  0  0  0  0  0  0
    1.9860   68.8320   63.5630 C   0  0  0  0  0  0  0  0  0  0  0  0
    0.6430   68.0980   63.6520 C   0  0  0  0  0  0  0  0  0  0  0  0
   -0.5340   68.9600   64.0970 C   0  0  0  0  0  0  0  0  0  0  0  0
   -1.1410   68.4350   65.2680 O   0  0  0  0  0  0  0  0  0  0  0  0
    4.4020   71.2830   69.1130 C   0  0  0  0  0  0  0  0  0  0  0  0
    3.3220   70.2080   69.2510 C   0  0  0  0  0  0  0  0  0  0  0  0
    2.4690   70.0470   67.9920 C   0  0  0  0  0  0  0  0  0  0  0  0
    2.1270   68.5970   67.6630 C   0  0  0  0  0  0  0  0  0  0  0  0
    0.7020   68.4390   67.5620 O   0  0  0  0  0  0  0  0  0  0  0  0
    0.1810   67.3770   68.2220 C   0  0  0  0  0  0  0  0  0  0  0  0
   -0.7750   66.7100   67.8570 O   0  0  0  0  0  0  0  0  0  0  0  0
    0.9020   67.1690   69.3570 N   0  0  0  0  0  0  0  0  0  0  0  0
    0.6680   66.0540   70.2430 C   0  0  0  0  0  0  0  0  0  0  0  0
    1.8400   65.0730   70.2820 C   0  0  0  0  0  0  0  0  0  0  0  0
    1.6310   63.8560   71.1900 C   0  0  0  0  0  0  0  0  0  0  0  0
    0.3320   63.9020   71.9780 C   0  0  0  0  0  0  0  0  0  0  0  0
    5.7711   69.6269   69.2296 H   0  0  0  0  0  0  0  0  0  0  0  0
    6.4119   71.2277   69.8306 H   0  0  0  0  0  0  0  0  0  0  0  0
    6.1072   71.8689   67.2664 H   0  0  0  0  0  0  0  0  0  0  0  0
    7.6009   71.0541   67.9254 H   0  0  0  0  0  0  0  0  0  0  0  0
    7.3126   69.6405   66.2101 H   0  0  0  0  0  0  0  0  0  0  0  0
    6.0435   68.9189   67.3057 H   0  0  0  0  0  0  0  0  0  0  0  0
    4.3011   69.7581   66.0941 H   0  0  0  0  0  0  0  0  0  0  0  0
    5.3046   71.1311   65.4317 H   0  0  0  0  0  0  0  0  0  0  0  0
    4.8444   69.7107   63.5953 H   0  0  0  0  0  0  0  0  0  0  0  0
    6.5651   69.3911   64.1111 H   0  0  0  0  0  0  0  0  0  0  0  0
    6.1620   67.2480   64.5292 H   0  0  0  0  0  0  0  0  0  0  0  0
    4.6161   67.6488   65.4115 H   0  0  0  0  0  0  0  0  0  0  0  0
    4.9202   66.3971   62.8800 H   0  0  0  0  0  0  0  0  0  0  0  0
    3.4020   66.9344   63.7381 H   0  0  0  0  0  0  0  0  0  0  0  0
    4.7321   69.1621   62.4310 H   0  0  0  0  0  0  0  0  0  0  0  0
    4.3387   67.8087   61.2722 H   0  0  0  0  0  0  0  0  0  0  0  0
    2.5937   69.7151   61.6988 H   0  0  0  0  0  0  0  0  0  0  0  0
    2.0855   67.9645   61.6157 H   0  0  0  0  0  0  0  0  0  0  0  0
    2.6709   68.3995   64.3072 H   0  0  0  0  0  0  0  0  0  0  0  0
    1.7897   69.8976   63.7527 H   0  0  0  0  0  0  0  0  0  0  0  0
    0.4104   67.6900   62.6573 H   0  0  0  0  0  0  0  0  0  0  0  0
    0.7662   67.3237   64.4235 H   0  0  0  0  0  0  0  0  0  0  0  0
   -0.1744   69.9785   64.3051 H   0  0  0  0  0  0  0  0  0  0  0  0
   -1.2827   68.9701   63.2912 H   0  0  0  0  0  0  0  0  0  0  0  0
   -0.6998   68.8166   66.0679 H   0  0  0  0  0  0  0  0  0  0  0  0
    4.3319   71.9609   69.9765 H   0  0  0  0  0  0  0  0  0  0  0  0
    4.2228   71.8038   68.1608 H   0  0  0  0  0  0  0  0  0  0  0  0
    3.8110   69.2467   69.4675 H   0  0  0  0  0  0  0  0  0  0  0  0
    2.6501   70.5216   70.0636 H   0  0  0  0  0  0  0  0  0  0  0  0
    1.5297   70.6011   68.1359 H   0  0  0  0  0  0  0  0  0  0  0  0
    3.0616   70.4359   67.1508 H   0  0  0  0  0  0  0  0  0  0  0  0
    2.5929   68.3210   66.7055 H   0  0  0  0  0  0  0  0  0  0  0  0
    2.5067   67.9457   68.4640 H   0  0  0  0  0  0  0  0  0  0  0  0
    1.6486   67.8376   69.5947 H   0  0  0  0  0  0  0  0  0  0  0  0
    0.4998   66.4413   71.2587 H   0  0  0  0  0  0  0  0  0  0  0  0
   -0.2087   65.5081   69.8644 H   0  0  0  0  0  0  0  0  0  0  0  0
    2.0163   64.7100   69.2587 H   0  0  0  0  0  0  0  0  0  0  0  0
    2.6934   65.6274   70.6996 H   0  0  0  0  0  0  0  0  0  0  0  0
    1.6264   62.9515   70.5640 H   0  0  0  0  0  0  0  0  0  0  0  0
    2.4526   63.8537   71.9214 H   0  0  0  0  0  0  0  0  0  0  0  0
    0.5560   63.8941   73.0549 H   0  0  0  0  0  0  0  0  0  0  0  0
   -0.2182   64.8202   71.7247 H   0  0  0  0  0  0  0  0  0  0  0  0
   -0.2818   63.0250   71.7247 H   0  0  0  0  0  0  0  0  0  0  0  0
  2  1  1  0
  3  2  1  0
  4  3  1  0
  5  4  1  0
  6  5  1  0
  7  6  1  0
  8  7  1  0
  9  8  1  0
 10  9  1  0
 11 10  1  0
 12 11  1  0
 13 12  1  0
 14  1  1  0
 15 14  1  0
 16 15  1  0
 17 16  1  0
 18 17  1  0
 19 18  1  0
 20 19  2  0
 21 19  1  0
 22 21  1  0
 23 22  1  0
 24 23  1  0
 25 24  1  0
  1 26  1  0
  1 27  1  0
  2 28  1  0
  2 29  1  0
  3 30  1  0
  3 31  1  0
  4 32  1  0
  4 33  1  0
  5 34  1  0
  5 35  1  0
  6 36  1  0
  6 37  1  0
  7 38  1  0
  7 39  1  0
  8 40  1  0
  8 41  1  0
  9 42  1  0
  9 43  1  0
 10 44  1  0
 10 45  1  0
 11 46  1  0
 11 47  1  0
 12 48  1  0
 12 49  1  0
 13 50  1  0
 14 51  1  0
 14 52  1  0
 15 53  1  0
 15 54  1  0
 16 55  1  0
 16 56  1  0
 17 57  1  0
 17 58  1  0
 21 59  1  0
 22 60  1  0
 22 61  1  0
 23 62  1  0
 23 63  1  0
 24 64  1  0
 24 65  1  0
 25 66  1  0
 25 67  1  0
 25 68  1  0
M  END
>  <score>  (6) 
-6.88

$$$$
=
     RDKit          3D

 68 67  0  0  0  0  0  0  0  0999 V2000
    1.4090   66.3980   69.9340 C   0  0  0  0  0  0  0  0  0  0  0  0
    0.1800   65.5990   70.3740 C   0  0  0  0  0  0  0  0  0  0  0  0
    0.4780   64.1140   70.6080 C   0  0  0  0  0  0  0  0  0  0  0  0
    1.9660   63.8220   70.8190 C   0  0  0  0  0  0  0  0  0  0  0  0
    2.4850   62.6710   69.9500 C   0  0  0  0  0  0  0  0  0  0  0  0
    3.8660   62.9440   69.3470 C   0  0  0  0  0  0  0  0  0  0  0  0
    4.9180   63.3220   70.3950 C   0  0  0  0  0  0  0  0  0  0  0  0
    4.9950   62.3290   71.5580 C   0  0  0  0  0  0  0  0  0  0  0  0
    5.3530   60.9060   71.1150 C   0  0  0  0  0  0  0  0  0  0  0  0
    4.4160   59.8410   71.6920 C   0  0  0  0  0  0  0  0  0  0  0  0
    3.7310   58.9930   70.6140 C   0  0  0  0  0  0  0  0  0  0  0  0
    3.1030   57.6960   71.1170 C   0  0  0  0  0  0  0  0  0  0  0  0
    3.7430   56.5630   70.5500 O   0  0  0  0  0  0  0  0  0  0  0  0
    1.1230   67.3680   68.7820 C   0  0  0  0  0  0  0  0  0  0  0  0
   -0.2820   67.2150   68.1950 C   0  0  0  0  0  0  0  0  0  0  0  0
   -0.7570   68.4570   67.4390 C   0  0  0  0  0  0  0  0  0  0  0  0
   -0.8950   68.2450   65.9340 C   0  0  0  0  0  0  0  0  0  0  0  0
    0.1800   68.9050   65.2460 O   0  0  0  0  0  0  0  0  0  0  0  0
    1.0280   68.0950   64.5670 C   0  0  0  0  0  0  0  0  0  0  0  0
    1.1640   66.8950   64.7490 O   0  0  0  0  0  0  0  0  0  0  0  0
    1.6990   68.8350   63.6440 N   0  0  0  0  0  0  0  0  0  0  0  0
    2.6130   68.2580   62.6880 C   0  0  0  0  0  0  0  0  0  0  0  0
    4.0760   68.3910   63.1130 C   0  0  0  0  0  0  0  0  0  0  0  0
    4.6380   67.1810   63.8680 C   0  0  0  0  0  0  0  0  0  0  0  0
    4.2360   65.8460   63.2620 C   0  0  0  0  0  0  0  0  0  0  0  0
    1.7752   66.9769   70.7947 H   0  0  0  0  0  0  0  0  0  0  0  0
    2.1547   65.6747   69.5724 H   0  0  0  0  0  0  0  0  0  0  0  0
   -0.2009   66.0311   71.3111 H   0  0  0  0  0  0  0  0  0  0  0  0
   -0.5583   65.6603   69.5609 H   0  0  0  0  0  0  0  0  0  0  0  0
   -0.0729   63.7836   71.5010 H   0  0  0  0  0  0  0  0  0  0  0  0
    0.1641   63.5718   69.7038 H   0  0  0  0  0  0  0  0  0  0  0  0
    2.5382   64.7293   70.5755 H   0  0  0  0  0  0  0  0  0  0  0  0
    2.0943   63.5218   71.8694 H   0  0  0  0  0  0  0  0  0  0  0  0
    2.5478   61.7652   70.5710 H   0  0  0  0  0  0  0  0  0  0  0  0
    1.7814   62.5510   69.1130 H   0  0  0  0  0  0  0  0  0  0  0  0
    4.2042   62.0378   68.8232 H   0  0  0  0  0  0  0  0  0  0  0  0
    3.7614   63.8006   68.6649 H   0  0  0  0  0  0  0  0  0  0  0  0
    5.9016   63.3625   69.9042 H   0  0  0  0  0  0  0  0  0  0  0  0
    4.6255   64.2955   70.8153 H   0  0  0  0  0  0  0  0  0  0  0  0
    5.7616   62.6781   72.2654 H   0  0  0  0  0  0  0  0  0  0  0  0
    3.9966   62.2865   72.0179 H   0  0  0  0  0  0  0  0  0  0  0  0
    5.3024   60.8584   70.0172 H   0  0  0  0  0  0  0  0  0  0  0  0
    6.3638   60.6909   71.4917 H   0  0  0  0  0  0  0  0  0  0  0  0
    5.0021   59.1743   72.3416 H   0  0  0  0  0  0  0  0  0  0  0  0
    3.6249   60.3668   72.2468 H   0  0  0  0  0  0  0  0  0  0  0  0
    2.9375   59.6008   70.1546 H   0  0  0  0  0  0  0  0  0  0  0  0
    4.5201   58.6987   69.9064 H   0  0  0  0  0  0  0  0  0  0  0  0
    3.1988   57.6518   72.2119 H   0  0  0  0  0  0  0  0  0  0  0  0
    2.0440   57.6833   70.8199 H   0  0  0  0  0  0  0  0  0  0  0  0
    4.0752   55.9750   71.2739 H   0  0  0  0  0  0  0  0  0  0  0  0
    1.2349   68.3964   69.1559 H   0  0  0  0  0  0  0  0  0  0  0  0
    1.8381   67.1384   67.9783 H   0  0  0  0  0  0  0  0  0  0  0  0
   -0.2798   66.3622   67.5002 H   0  0  0  0  0  0  0  0  0  0  0  0
   -0.9731   67.0600   69.0366 H   0  0  0  0  0  0  0  0  0  0  0  0
   -1.7380   68.7529   67.8392 H   0  0  0  0  0  0  0  0  0  0  0  0
    0.0081   69.2337   67.5849 H   0  0  0  0  0  0  0  0  0  0  0  0
   -0.8625   67.1679   65.7130 H   0  0  0  0  0  0  0  0  0  0  0  0
   -1.8535   68.6656   65.5957 H   0  0  0  0  0  0  0  0  0  0  0  0
    1.5479   69.8537   63.6266 H   0  0  0  0  0  0  0  0  0  0  0  0
    2.3755   67.1899   62.5748 H   0  0  0  0  0  0  0  0  0  0  0  0
    2.4917   68.8051   61.7415 H   0  0  0  0  0  0  0  0  0  0  0  0
    4.6830   68.5420   62.2081 H   0  0  0  0  0  0  0  0  0  0  0  0
    4.1200   69.2398   63.8113 H   0  0  0  0  0  0  0  0  0  0  0  0
    5.7359   67.2481   63.8646 H   0  0  0  0  0  0  0  0  0  0  0  0
    4.2204   67.2127   64.8852 H   0  0  0  0  0  0  0  0  0  0  0  0
    4.0198   65.1282   64.0670 H   0  0  0  0  0  0  0  0  0  0  0  0
    3.3386   65.9809   62.6403 H   0  0  0  0  0  0  0  0  0  0  0  0
    5.0586   65.4630   62.6403 H   0  0  0  0  0  0  0  0  0  0  0  0
  2  1  1  0
  3  2  1  0
  4  3  1  0
  5  4  1  0
  6  5  1  0
  7  6  1  0
  8  7  1  0
  9  8  1  0
 10  9  1  0
 11 10  1  0
 12 11  1  0
 13 12  1  0
 14  1  1  0
 15 14  1  0
 16 15  1  0
 17 16  1  0
 18 17  1  0
 19 18  1  0
 20 19  2  0
 21 19  1  0
 22 21  1  0
 23 22  1  0
 24 23  1  0
 25 24  1  0
  1 26  1  0
  1 27  1  0
  2 28  1  0
  2 29  1  0
  3 30  1  0
  3 31  1  0
  4 32  1  0
  4 33  1  0
  5 34  1  0
  5 35  1  0
  6 36  1  0
  6 37  1  0
  7 38  1  0
  7 39  1  0
  8 40  1  0
  8 41  1  0
  9 42  1  0
  9 43  1  0
 10 44  1  0
 10 45  1  0
 11 46  1  0
 11 47  1  0
 12 48  1  0
 12 49  1  0
 13 50  1  0
 14 51  1  0
 14 52  1  0
 15 53  1  0
 15 54  1  0
 16 55  1  0
 16 56  1  0
 17 57  1  0
 17 58  1  0
 21 59  1  0
 22 60  1  0
 22 61  1  0
 23 62  1  0
 23 63  1  0
 24 64  1  0
 24 65  1  0
 25 66  1  0
 25 67  1  0
 25 68  1  0
M  END
>  <score>  (7) 
-6.866

$$$$
=
     RDKit          3D

 68 67  0  0  0  0  0  0  0  0999 V2000
    2.8150   63.9210   70.5460 C   0  0  0  0  0  0  0  0  0  0  0  0
    3.4210   63.2390   69.3170 C   0  0  0  0  0  0  0  0  0  0  0  0
    3.0410   61.7590   69.1990 C   0  0  0  0  0  0  0  0  0  0  0  0
    4.1020   60.8150   69.7720 C   0  0  0  0  0  0  0  0  0  0  0  0
    3.6540   59.3490   69.8040 C   0  0  0  0  0  0  0  0  0  0  0  0
    3.2000   58.8870   71.1910 C   0  0  0  0  0  0  0  0  0  0  0  0
    4.1450   59.3270   72.3130 C   0  0  0  0  0  0  0  0  0  0  0  0
    3.4220   60.0030   73.4810 C   0  0  0  0  0  0  0  0  0  0  0  0
    3.1710   61.4980   73.2520 C   0  0  0  0  0  0  0  0  0  0  0  0
    1.7310   61.9220   73.5540 C   0  0  0  0  0  0  0  0  0  0  0  0
    0.6850   61.0080   72.9050 C   0  0  0  0  0  0  0  0  0  0  0  0
   -0.6900   61.6390   72.7100 C   0  0  0  0  0  0  0  0  0  0  0  0
   -0.9070   62.6940   73.6360 O   0  0  0  0  0  0  0  0  0  0  0  0
    1.2820   63.8840   70.5670 C   0  0  0  0  0  0  0  0  0  0  0  0
    0.6490   65.2150   70.9810 C   0  0  0  0  0  0  0  0  0  0  0  0
    0.2570   66.0910   69.7900 C   0  0  0  0  0  0  0  0  0  0  0  0
    1.2700   67.1880   69.4750 C   0  0  0  0  0  0  0  0  0  0  0  0
    0.9970   67.7510   68.1810 O   0  0  0  0  0  0  0  0  0  0  0  0
    1.8040   68.7710   67.8030 C   0  0  0  0  0  0  0  0  0  0  0  0
    2.0750   69.0770   66.6520 O   0  0  0  0  0  0  0  0  0  0  0  0
    2.2600   69.4060   68.9170 N   0  0  0  0  0  0  0  0  0  0  0  0
    3.0710   70.5990   68.8650 C   0  0  0  0  0  0  0  0  0  0  0  0
    4.5000   70.3650   69.3560 C   0  0  0  0  0  0  0  0  0  0  0  0
    5.5870   71.0410   68.5150 C   0  0  0  0  0  0  0  0  0  0  0  0
    6.0660   70.1950   67.3460 C   0  0  0  0  0  0  0  0  0  0  0  0
    3.1888   63.4126   71.4470 H   0  0  0  0  0  0  0  0  0  0  0  0
    3.1146   64.9789   70.5121 H   0  0  0  0  0  0  0  0  0  0  0  0
    3.0682   63.7634   68.4167 H   0  0  0  0  0  0  0  0  0  0  0  0
    4.5149   63.2883   69.4219 H   0  0  0  0  0  0  0  0  0  0  0  0
    2.0984   61.5959   69.7420 H   0  0  0  0  0  0  0  0  0  0  0  0
    2.9459   61.5309   68.1271 H   0  0  0  0  0  0  0  0  0  0  0  0
    5.0077   60.8901   69.1523 H   0  0  0  0  0  0  0  0  0  0  0  0
    4.2854   61.1230   70.8120 H   0  0  0  0  0  0  0  0  0  0  0  0
    2.8161   59.2242   69.1024 H   0  0  0  0  0  0  0  0  0  0  0  0
    4.5229   58.7356   69.5235 H   0  0  0  0  0  0  0  0  0  0  0  0
    2.2025   59.3058   71.3898 H   0  0  0  0  0  0  0  0  0  0  0  0
    3.1923   57.7871   71.1828 H   0  0  0  0  0  0  0  0  0  0  0  0
    4.6716   58.4398   72.6944 H   0  0  0  0  0  0  0  0  0  0  0  0
    4.8375   60.0669   71.8853 H   0  0  0  0  0  0  0  0  0  0  0  0
    2.4526   59.5042   73.6279 H   0  0  0  0  0  0  0  0  0  0  0  0
    4.0715   59.9121   74.3641 H   0  0  0  0  0  0  0  0  0  0  0  0
    3.8477   62.0698   73.9040 H   0  0  0  0  0  0  0  0  0  0  0  0
    3.3543   61.7004   72.1864 H   0  0  0  0  0  0  0  0  0  0  0  0
    1.5825   61.9050   74.6438 H   0  0  0  0  0  0  0  0  0  0  0  0
    1.5913   62.9292   73.1344 H   0  0  0  0  0  0  0  0  0  0  0  0
    1.0635   60.7030   71.9183 H   0  0  0  0  0  0  0  0  0  0  0  0
    0.5412   60.1652   73.5971 H   0  0  0  0  0  0  0  0  0  0  0  0
   -0.7595   62.0390   71.6876 H   0  0  0  0  0  0  0  0  0  0  0  0
   -1.4548   60.8662   72.8770 H   0  0  0  0  0  0  0  0  0  0  0  0
   -0.8348   62.3431   74.5589 H   0  0  0  0  0  0  0  0  0  0  0  0
    0.9253   63.6265   69.5588 H   0  0  0  0  0  0  0  0  0  0  0  0
    0.9847   63.1353   71.3161 H   0  0  0  0  0  0  0  0  0  0  0  0
   -0.2543   65.0038   71.5722 H   0  0  0  0  0  0  0  0  0  0  0  0
    1.4017   65.7690   71.5611 H   0  0  0  0  0  0  0  0  0  0  0  0
    0.1557   65.4471   68.9039 H   0  0  0  0  0  0  0  0  0  0  0  0
   -0.6860   66.5912   70.0557 H   0  0  0  0  0  0  0  0  0  0  0  0
    1.2013   67.9775   70.2378 H   0  0  0  0  0  0  0  0  0  0  0  0
    2.2819   66.7566   69.4754 H   0  0  0  0  0  0  0  0  0  0  0  0
    2.0153   69.0177   69.8391 H   0  0  0  0  0  0  0  0  0  0  0  0
    3.1103   70.9523   67.8240 H   0  0  0  0  0  0  0  0  0  0  0  0
    2.6093   71.3430   69.5309 H   0  0  0  0  0  0  0  0  0  0  0  0
    4.5755   70.7479   70.3844 H   0  0  0  0  0  0  0  0  0  0  0  0
    4.6795   69.2823   69.2816 H   0  0  0  0  0  0  0  0  0  0  0  0
    5.1838   71.9848   68.1191 H   0  0  0  0  0  0  0  0  0  0  0  0
    6.4530   71.2000   69.1744 H   0  0  0  0  0  0  0  0  0  0  0  0
    6.5744   69.2971   67.7272 H   0  0  0  0  0  0  0  0  0  0  0  0
    5.2035   69.8954   66.7325 H   0  0  0  0  0  0  0  0  0  0  0  0
    6.7666   70.7804   66.7325 H   0  0  0  0  0  0  0  0  0  0  0  0
  2  1  1  0
  3  2  1  0
  4  3  1  0
  5  4  1  0
  6  5  1  0
  7  6  1  0
  8  7  1  0
  9  8  1  0
 10  9  1  0
 11 10  1  0
 12 11  1  0
 13 12  1  0
 14  1  1  0
 15 14  1  0
 16 15  1  0
 17 16  1  0
 18 17  1  0
 19 18  1  0
 20 19  2  0
 21 19  1  0
 22 21  1  0
 23 22  1  0
 24 23  1  0
 25 24  1  0
  1 26  1  0
  1 27  1  0
  2 28  1  0
  2 29  1  0
  3 30  1  0
  3 31  1  0
  4 32  1  0
  4 33  1  0
  5 34  1  0
  5 35  1  0
  6 36  1  0
  6 37  1  0
  7 38  1  0
  7 39  1  0
  8 40  1  0
  8 41  1  0
  9 42  1  0
  9 43  1  0
 10 44  1  0
 10 45  1  0
 11 46  1  0
 11 47  1  0
 12 48  1  0
 12 49  1  0
 13 50  1  0
 14 51  1  0
 14 52  1  0
 15 53  1  0
 15 54  1  0
 16 55  1  0
 16 56  1  0
 17 57  1  0
 17 58  1  0
 21 59  1  0
 22 60  1  0
 22 61  1  0
 23 62  1  0
 23 63  1  0
 24 64  1  0
 24 65  1  0
 25 66  1  0
 25 67  1  0
 25 68  1  0
M  END
>  <score>  (8) 
-6.744

$$$$
=
     RDKit          3D

 68 67  0  0  0  0  0  0  0  0999 V2000
    3.5870   63.3820   69.5870 C   0  0  0  0  0  0  0  0  0  0  0  0
    2.9210   62.0460   69.2460 C   0  0  0  0  0  0  0  0  0  0  0  0
    3.5380   60.8570   69.9900 C   0  0  0  0  0  0  0  0  0  0  0  0
    4.9660   61.1220   70.4750 C   0  0  0  0  0  0  0  0  0  0  0  0
    5.0790   61.2130   72.0020 C   0  0  0  0  0  0  0  0  0  0  0  0
    4.0100   60.3990   72.7360 C   0  0  0  0  0  0  0  0  0  0  0  0
    3.1590   61.2430   73.6910 C   0  0  0  0  0  0  0  0  0  0  0  0
    1.7670   61.5590   73.1380 C   0  0  0  0  0  0  0  0  0  0  0  0
    1.0650   60.3380   72.5330 C   0  0  0  0  0  0  0  0  0  0  0  0
    0.3320   59.4860   73.5730 C   0  0  0  0  0  0  0  0  0  0  0  0
    1.1390   58.2660   74.0300 C   0  0  0  0  0  0  0  0  0  0  0  0
    1.3130   57.1760   72.9770 C   0  0  0  0  0  0  0  0  0  0  0  0
    2.6330   57.1770   72.4520 O   0  0  0  0  0  0  0  0  0  0  0  0
    2.8180   64.1930   70.6380 C   0  0  0  0  0  0  0  0  0  0  0  0
    1.2990   64.0300   70.5370 C   0  0  0  0  0  0  0  0  0  0  0  0
    0.5470   65.3610   70.5960 C   0  0  0  0  0  0  0  0  0  0  0  0
    1.2480   66.4960   69.8550 C   0  0  0  0  0  0  0  0  0  0  0  0
    0.5940   66.7400   68.5990 O   0  0  0  0  0  0  0  0  0  0  0  0
    1.0520   67.8040   67.8960 C   0  0  0  0  0  0  0  0  0  0  0  0
    0.8150   68.0380   66.7210 O   0  0  0  0  0  0  0  0  0  0  0  0
    1.8150   68.5770   68.7170 N   0  0  0  0  0  0  0  0  0  0  0  0
    2.3800   69.8400   68.3060 C   0  0  0  0  0  0  0  0  0  0  0  0
    3.6910   70.1630   69.0220 C   0  0  0  0  0  0  0  0  0  0  0  0
    4.8790   70.4410   68.0950 C   0  0  0  0  0  0  0  0  0  0  0  0
    6.1340   70.8810   68.8300 C   0  0  0  0  0  0  0  0  0  0  0  0
    4.5973   63.1801   69.9725 H   0  0  0  0  0  0  0  0  0  0  0  0
    3.6072   63.9807   68.6644 H   0  0  0  0  0  0  0  0  0  0  0  0
    1.8551   62.1091   69.5105 H   0  0  0  0  0  0  0  0  0  0  0  0
    3.0700   61.8715   68.1702 H   0  0  0  0  0  0  0  0  0  0  0  0
    2.9096   60.6271   70.8631 H   0  0  0  0  0  0  0  0  0  0  0  0
    3.5849   60.0173   69.2809 H   0  0  0  0  0  0  0  0  0  0  0  0
    5.6116   60.3031   70.1249 H   0  0  0  0  0  0  0  0  0  0  0  0
    5.2745   62.0954   70.0660 H   0  0  0  0  0  0  0  0  0  0  0  0
    6.0695   60.8402   72.3020 H   0  0  0  0  0  0  0  0  0  0  0  0
    4.9332   62.2678   72.2781 H   0  0  0  0  0  0  0  0  0  0  0  0
    3.3459   59.9398   71.9889 H   0  0  0  0  0  0  0  0  0  0  0  0
    4.5325   59.6451   73.3431 H   0  0  0  0  0  0  0  0  0  0  0  0
    3.0431   60.6919   74.6359 H   0  0  0  0  0  0  0  0  0  0  0  0
    3.6799   62.2014   73.8332 H   0  0  0  0  0  0  0  0  0  0  0  0
    1.1456   61.9488   73.9577 H   0  0  0  0  0  0  0  0  0  0  0  0
    1.8958   62.2948   72.3306 H   0  0  0  0  0  0  0  0  0  0  0  0
    0.3336   60.6881   71.7897 H   0  0  0  0  0  0  0  0  0  0  0  0
    1.8427   59.7046   72.0814 H   0  0  0  0  0  0  0  0  0  0  0  0
    0.1185   60.1131   74.4512 H   0  0  0  0  0  0  0  0  0  0  0  0
   -0.5877   59.1115   73.0998 H   0  0  0  0  0  0  0  0  0  0  0  0
    2.1388   58.6118   74.3315 H   0  0  0  0  0  0  0  0  0  0  0  0
    0.5678   57.8103   74.8522 H   0  0  0  0  0  0  0  0  0  0  0  0
    1.1100   56.1973   73.4363 H   0  0  0  0  0  0  0  0  0  0  0  0
    0.6098   57.3706   72.1538 H   0  0  0  0  0  0  0  0  0  0  0  0
    3.2846   57.1775   73.1973 H   0  0  0  0  0  0  0  0  0  0  0  0
    3.1388   63.8628   71.6370 H   0  0  0  0  0  0  0  0  0  0  0  0
    3.0441   65.2546   70.4596 H   0  0  0  0  0  0  0  0  0  0  0  0
    1.0626   63.5364   69.5828 H   0  0  0  0  0  0  0  0  0  0  0  0
    0.9752   63.4319   71.4016 H   0  0  0  0  0  0  0  0  0  0  0  0
   -0.4481   65.2175   70.1497 H   0  0  0  0  0  0  0  0  0  0  0  0
    0.4943   65.6533   71.6551 H   0  0  0  0  0  0  0  0  0  0  0  0
    1.2117   67.4086   70.4681 H   0  0  0  0  0  0  0  0  0  0  0  0
    2.2946   66.2136   69.6685 H   0  0  0  0  0  0  0  0  0  0  0  0
    1.9973   68.2454   69.6750 H   0  0  0  0  0  0  0  0  0  0  0  0
    2.5704   69.8042   67.2232 H   0  0  0  0  0  0  0  0  0  0  0  0
    1.6572   70.6270   68.5672 H   0  0  0  0  0  0  0  0  0  0  0  0
    3.5290   71.0537   69.6468 H   0  0  0  0  0  0  0  0  0  0  0  0
    3.9550   69.2669   69.6028 H   0  0  0  0  0  0  0  0  0  0  0  0
    5.1073   69.5210   67.5369 H   0  0  0  0  0  0  0  0  0  0  0  0
    4.5852   71.2695   67.4337 H   0  0  0  0  0  0  0  0  0  0  0  0
    5.9634   70.8212   69.9150 H   0  0  0  0  0  0  0  0  0  0  0  0
    6.9707   70.2226   68.5535 H   0  0  0  0  0  0  0  0  0  0  0  0
    6.3764   71.9177   68.5535 H   0  0  0  0  0  0  0  0  0  0  0  0
  2  1  1  0
  3  2  1  0
  4  3  1  0
  5  4  1  0
  6  5  1  0
  7  6  1  0
  8  7  1  0
  9  8  1  0
 10  9  1  0
 11 10  1  0
 12 11  1  0
 13 12  1  0
 14  1  1  0
 15 14  1  0
 16 15  1  0
 17 16  1  0
 18 17  1  0
 19 18  1  0
 20 19  2  0
 21 19  1  0
 22 21  1  0
 23 22  1  0
 24 23  1  0
 25 24  1  0
  1 26  1  0
  1 27  1  0
  2 28  1  0
  2 29  1  0
  3 30  1  0
  3 31  1  0
  4 32  1  0
  4 33  1  0
  5 34  1  0
  5 35  1  0
  6 36  1  0
  6 37  1  0
  7 38  1  0
  7 39  1  0
  8 40  1  0
  8 41  1  0
  9 42  1  0
  9 43  1  0
 10 44  1  0
 10 45  1  0
 11 46  1  0
 11 47  1  0
 12 48  1  0
 12 49  1  0
 13 50  1  0
 14 51  1  0
 14 52  1  0
 15 53  1  0
 15 54  1  0
 16 55  1  0
 16 56  1  0
 17 57  1  0
 17 58  1  0
 21 59  1  0
 22 60  1  0
 22 61  1  0
 23 62  1  0
 23 63  1  0
 24 64  1  0
 24 65  1  0
 25 66  1  0
 25 67  1  0
 25 68  1  0
M  END
>  <score>  (9) 
-6.729

$$$$
