=
     RDKit          3D

 36 38  0  0  0  0  0  0  0  0999 V2000
    4.3530   68.7090   62.1460 C   0  0  0  0  0  0  0  0  0  0  0  0
    3.0760   68.4810   62.8500 C   0  0  0  0  0  0  0  0  0  0  0  0
    2.0760   67.9450   62.1050 O   0  0  0  0  0  0  0  0  0  0  0  0
    0.9620   67.7530   62.8900 N   0  0  0  0  0  0  0  0  0  0  0  0
    1.2790   68.1910   64.1200 C   0  0  0  0  0  0  0  0  0  0  0  0
    2.6280   68.6690   64.1400 C   0  0  0  0  0  0  0  0  0  0  0  0
    3.4530   69.1770   65.2170 C   0  0  0  0  0  0  0  0  0  0  0  0
    4.7970   69.5060   64.9880 C   0  0  0  0  0  0  0  0  0  0  0  0
    5.5880   70.0060   66.0260 C   0  0  0  0  0  0  0  0  0  0  0  0
    5.0320   70.1700   67.2980 C   0  0  0  0  0  0  0  0  0  0  0  0
    3.6910   69.8590   67.5350 C   0  0  0  0  0  0  0  0  0  0  0  0
    2.9050   69.3580   66.4940 C   0  0  0  0  0  0  0  0  0  0  0  0
    6.0190   70.8370   68.6050 S   0  0  0  0  0  6  0  0  0  0  0  0
    5.3540   70.6070   69.8660 O   0  0  0  0  0  0  0  0  0  0  0  0
    7.4030   70.4870   68.3820 O   0  0  0  0  0  0  0  0  0  0  0  0
    5.9060   72.4870   68.3180 N   0  0  0  0  0  0  0  0  0  0  0  0
    0.3010   68.1330   65.2070 C   0  0  0  0  0  0  0  0  0  0  0  0
    0.4770   67.2700   66.2980 C   0  0  0  0  0  0  0  0  0  0  0  0
   -0.4710   67.2170   67.3230 C   0  0  0  0  0  0  0  0  0  0  0  0
   -1.6000   68.0330   67.2740 C   0  0  0  0  0  0  0  0  0  0  0  0
   -1.7810   68.9040   66.2020 C   0  0  0  0  0  0  0  0  0  0  0  0
   -0.8340   68.9570   65.1760 C   0  0  0  0  0  0  0  0  0  0  0  0
    5.1572   68.8526   62.8826 H   0  0  0  0  0  0  0  0  0  0  0  0
    4.5846   67.8380   61.5153 H   0  0  0  0  0  0  0  0  0  0  0  0
    4.2689   69.6063   61.5153 H   0  0  0  0  0  0  0  0  0  0  0  0
    5.2307   69.3698   63.9863 H   0  0  0  0  0  0  0  0  0  0  0  0
    6.6405   70.2686   65.8434 H   0  0  0  0  0  0  0  0  0  0  0  0
    3.2566   70.0075   68.5346 H   0  0  0  0  0  0  0  0  0  0  0  0
    1.8506   69.1043   66.6778 H   0  0  0  0  0  0  0  0  0  0  0  0
    5.8715   72.9901   69.2161 H   0  0  0  0  0  0  0  0  0  0  0  0
    6.7276   72.7991   67.7809 H   0  0  0  0  0  0  0  0  0  0  0  0
    1.3695   66.6289   66.3474 H   0  0  0  0  0  0  0  0  0  0  0  0
   -0.3262   66.5302   68.1700 H   0  0  0  0  0  0  0  0  0  0  0  0
   -2.3468   67.9893   68.0805 H   0  0  0  0  0  0  0  0  0  0  0  0
   -2.6701   69.5505   66.1632 H   0  0  0  0  0  0  0  0  0  0  0  0
   -0.9798   69.6517   64.3357 H   0  0  0  0  0  0  0  0  0  0  0  0
  2  1  1  0
  3  2  1  0
  4  3  1  0
  5  4  2  0
  6  5  1  0
  6  2  2  0
  7  6  1  0
  8  7  2  0
  9  8  1  0
 10  9  2  0
 11 10  1  0
 12  7  1  0
 12 11  2  0
 13 10  1  0
 14 13  2  0
 15 13  2  0
 16 13  1  0
 17  5  1  0
 18 17  2  0
 19 18  1  0
 20 19  2  0
 21 20  1  0
 22 17  1  0
 22 21  2  0
  1 23  1  0
  1 24  1  0
  1 25  1  0
  8 26  1  0
  9 27  1  0
 11 28  1  0
 12 29  1  0
 16 30  1  0
 16 31  1  0
 18 32  1  0
 19 33  1  0
 20 34  1  0
 21 35  1  0
 22 36  1  0
M  END
>  <score>  (1) 
-10.593

$$$$
=
     RDKit          3D

 36 38  0  0  0  0  0  0  0  0999 V2000
    1.5610   57.0780   73.1070 C   0  0  0  0  0  0  0  0  0  0  0  0
    2.2810   58.0460   72.2590 C   0  0  0  0  0  0  0  0  0  0  0  0
    3.0730   57.5150   71.2930 O   0  0  0  0  0  0  0  0  0  0  0  0
    3.6530   58.5240   70.5570 N   0  0  0  0  0  0  0  0  0  0  0  0
    3.2250   59.6810   71.0900 C   0  0  0  0  0  0  0  0  0  0  0  0
    2.3430   59.4220   72.1870 C   0  0  0  0  0  0  0  0  0  0  0  0
    1.5790   60.3110   73.0390 C   0  0  0  0  0  0  0  0  0  0  0  0
    2.2160   61.0530   74.0440 C   0  0  0  0  0  0  0  0  0  0  0  0
    1.4790   61.9180   74.8570 C   0  0  0  0  0  0  0  0  0  0  0  0
    0.0990   62.0340   74.6660 C   0  0  0  0  0  0  0  0  0  0  0  0
   -0.5450   61.3110   73.6590 C   0  0  0  0  0  0  0  0  0  0  0  0
    0.1970   60.4460   72.8500 C   0  0  0  0  0  0  0  0  0  0  0  0
   -0.8320   63.1560   75.6690 S   0  0  0  0  0  6  0  0  0  0  0  0
   -2.2410   62.9300   75.4490 O   0  0  0  0  0  0  0  0  0  0  0  0
   -0.2500   63.2070   76.9900 O   0  0  0  0  0  0  0  0  0  0  0  0
   -0.4840   64.6330   74.9510 N   0  0  0  0  0  0  0  0  0  0  0  0
    3.6640   60.9630   70.5380 C   0  0  0  0  0  0  0  0  0  0  0  0
    4.5710   61.7790   71.2290 C   0  0  0  0  0  0  0  0  0  0  0  0
    4.9730   63.0060   70.6940 C   0  0  0  0  0  0  0  0  0  0  0  0
    4.4780   63.4270   69.4610 C   0  0  0  0  0  0  0  0  0  0  0  0
    3.5860   62.6200   68.7590 C   0  0  0  0  0  0  0  0  0  0  0  0
    3.1820   61.3940   69.2930 C   0  0  0  0  0  0  0  0  0  0  0  0
    1.7379   57.3158   74.1663 H   0  0  0  0  0  0  0  0  0  0  0  0
    0.4833   57.1341   72.8936 H   0  0  0  0  0  0  0  0  0  0  0  0
    1.9247   56.0620   72.8936 H   0  0  0  0  0  0  0  0  0  0  0  0
    3.3013   60.9536   74.1931 H   0  0  0  0  0  0  0  0  0  0  0  0
    1.9809   62.5033   75.6415 H   0  0  0  0  0  0  0  0  0  0  0  0
   -1.6284   61.4217   73.5039 H   0  0  0  0  0  0  0  0  0  0  0  0
   -0.3064   59.8682   72.0609 H   0  0  0  0  0  0  0  0  0  0  0  0
   -0.3176   65.3393   75.6819 H   0  0  0  0  0  0  0  0  0  0  0  0
    0.3581   64.5401   74.3653 H   0  0  0  0  0  0  0  0  0  0  0  0
    4.9695   61.4507   72.2003 H   0  0  0  0  0  0  0  0  0  0  0  0
    5.6813   63.6405   71.2470 H   0  0  0  0  0  0  0  0  0  0  0  0
    4.7913   64.3950   69.0430 H   0  0  0  0  0  0  0  0  0  0  0  0
    3.1992   62.9484   67.7830 H   0  0  0  0  0  0  0  0  0  0  0  0
    2.4792   60.7605   68.7319 H   0  0  0  0  0  0  0  0  0  0  0  0
  2  1  1  0
  3  2  1  0
  4  3  1  0
  5  4  2  0
  6  5  1  0
  6  2  2  0
  7  6  1  0
  8  7  2  0
  9  8  1  0
 10  9  2  0
 11 10  1  0
 12  7  1  0
 12 11  2  0
 13 10  1  0
 14 13  2  0
 15 13  2  0
 16 13  1  0
 17  5  1  0
 18 17  2  0
 19 18  1  0
 20 19  2  0
 21 20  1  0
 22 17  1  0
 22 21  2  0
  1 23  1  0
  1 24  1  0
  1 25  1  0
  8 26  1  0
  9 27  1  0
 11 28  1  0
 12 29  1  0
 16 30  1  0
 16 31  1  0
 18 32  1  0
 19 33  1  0
 20 34  1  0
 21 35  1  0
 22 36  1  0
M  END
>  <score>  (2) 
-9.24

$$$$
=
     RDKit          3D

 36 38  0  0  0  0  0  0  0  0999 V2000
    0.4030   69.4160   64.4820 C   0  0  0  0  0  0  0  0  0  0  0  0
    0.2260   68.5290   65.6480 C   0  0  0  0  0  0  0  0  0  0  0  0
   -0.8470   67.6980   65.6040 O   0  0  0  0  0  0  0  0  0  0  0  0
   -0.8690   66.9060   66.7310 N   0  0  0  0  0  0  0  0  0  0  0  0
    0.1880   67.2700   67.4760 C   0  0  0  0  0  0  0  0  0  0  0  0
    0.9190   68.3110   66.8200 C   0  0  0  0  0  0  0  0  0  0  0  0
    2.1490   68.9920   67.1710 C   0  0  0  0  0  0  0  0  0  0  0  0
    2.2790   69.6280   68.4140 C   0  0  0  0  0  0  0  0  0  0  0  0
    3.4690   70.2750   68.7550 C   0  0  0  0  0  0  0  0  0  0  0  0
    4.5300   70.2900   67.8450 C   0  0  0  0  0  0  0  0  0  0  0  0
    4.4170   69.6470   66.6090 C   0  0  0  0  0  0  0  0  0  0  0  0
    3.2240   69.0030   66.2730 C   0  0  0  0  0  0  0  0  0  0  0  0
    6.0520   71.0750   68.2870 S   0  0  0  0  0  6  0  0  0  0  0  0
    5.9680   72.4820   67.9720 O   0  0  0  0  0  0  0  0  0  0  0  0
    6.4780   70.5930   69.5800 O   0  0  0  0  0  0  0  0  0  0  0  0
    7.1190   70.4150   67.1710 N   0  0  0  0  0  0  0  0  0  0  0  0
    0.4540   66.6180   68.7590 C   0  0  0  0  0  0  0  0  0  0  0  0
    1.7050   66.0490   69.0390 C   0  0  0  0  0  0  0  0  0  0  0  0
    1.9410   65.4200   70.2650 C   0  0  0  0  0  0  0  0  0  0  0  0
    0.9330   65.3610   71.2260 C   0  0  0  0  0  0  0  0  0  0  0  0
   -0.3100   65.9330   70.9650 C   0  0  0  0  0  0  0  0  0  0  0  0
   -0.5480   66.5600   69.7400 C   0  0  0  0  0  0  0  0  0  0  0  0
    0.6073   70.4400   64.8279 H   0  0  0  0  0  0  0  0  0  0  0  0
    1.2476   69.0588   63.8745 H   0  0  0  0  0  0  0  0  0  0  0  0
   -0.5140   69.4104   63.8745 H   0  0  0  0  0  0  0  0  0  0  0  0
    1.4392   69.6173   69.1244 H   0  0  0  0  0  0  0  0  0  0  0  0
    3.5705   70.7691   69.7325 H   0  0  0  0  0  0  0  0  0  0  0  0
    5.2624   69.6482   65.9053 H   0  0  0  0  0  0  0  0  0  0  0  0
    3.1282   68.5020   65.2984 H   0  0  0  0  0  0  0  0  0  0  0  0
    7.8861   69.9405   67.6684 H   0  0  0  0  0  0  0  0  0  0  0  0
    6.6203   69.7346   66.5800 H   0  0  0  0  0  0  0  0  0  0  0  0
    2.5070   66.0981   68.2878 H   0  0  0  0  0  0  0  0  0  0  0  0
    2.9237   64.9709   70.4716 H   0  0  0  0  0  0  0  0  0  0  0  0
    1.1189   64.8634   72.1892 H   0  0  0  0  0  0  0  0  0  0  0  0
   -1.1047   65.8908   71.7244 H   0  0  0  0  0  0  0  0  0  0  0  0
   -1.5307   67.0129   69.5420 H   0  0  0  0  0  0  0  0  0  0  0  0
  2  1  1  0
  3  2  1  0
  4  3  1  0
  5  4  2  0
  6  5  1  0
  6  2  2  0
  7  6  1  0
  8  7  2  0
  9  8  1  0
 10  9  2  0
 11 10  1  0
 12  7  1  0
 12 11  2  0
 13 10  1  0
 14 13  2  0
 15 13  2  0
 16 13  1  0
 17  5  1  0
 18 17  2  0
 19 18  1  0
 20 19  2  0
 21 20  1  0
 22 17  1  0
 22 21  2  0
  1 23  1  0
  1 24  1  0
  1 25  1  0
  8 26  1  0
  9 27  1  0
 11 28  1  0
 12 29  1  0
 16 30  1  0
 16 31  1  0
 18 32  1  0
 19 33  1  0
 20 34  1  0
 21 35  1  0
 22 36  1  0
M  END
>  <score>  (3) 
-9.234

$$$$
=
     RDKit          3D

 36 38  0  0  0  0  0  0  0  0999 V2000
    3.3770   62.0640   69.2040 C   0  0  0  0  0  0  0  0  0  0  0  0
    3.2870   60.8530   70.0430 C   0  0  0  0  0  0  0  0  0  0  0  0
    3.9100   59.7480   69.5580 O   0  0  0  0  0  0  0  0  0  0  0  0
    3.7780   58.7090   70.4520 N   0  0  0  0  0  0  0  0  0  0  0  0
    3.0550   59.1790   71.4830 C   0  0  0  0  0  0  0  0  0  0  0  0
    2.7160   60.5520   71.2610 C   0  0  0  0  0  0  0  0  0  0  0  0
    2.0140   61.5150   72.0850 C   0  0  0  0  0  0  0  0  0  0  0  0
    0.7230   61.9410   71.7380 C   0  0  0  0  0  0  0  0  0  0  0  0
    0.0440   62.8610   72.5410 C   0  0  0  0  0  0  0  0  0  0  0  0
    0.6630   63.3610   73.6890 C   0  0  0  0  0  0  0  0  0  0  0  0
    1.9430   62.9350   74.0530 C   0  0  0  0  0  0  0  0  0  0  0  0
    2.6180   62.0150   73.2470 C   0  0  0  0  0  0  0  0  0  0  0  0
   -0.2080   64.4990   74.7280 S   0  0  0  0  0  6  0  0  0  0  0  0
   -0.4860   65.7040   73.9830 O   0  0  0  0  0  0  0  0  0  0  0  0
   -1.2280   63.7870   75.4610 O   0  0  0  0  0  0  0  0  0  0  0  0
    0.9690   64.9120   75.8520 N   0  0  0  0  0  0  0  0  0  0  0  0
    2.7250   58.3160   72.6170 C   0  0  0  0  0  0  0  0  0  0  0  0
    1.8710   57.2140   72.4680 C   0  0  0  0  0  0  0  0  0  0  0  0
    1.5570   56.4050   73.5640 C   0  0  0  0  0  0  0  0  0  0  0  0
    2.0990   56.6840   74.8170 C   0  0  0  0  0  0  0  0  0  0  0  0
    2.9590   57.7680   74.9760 C   0  0  0  0  0  0  0  0  0  0  0  0
    3.2730   58.5790   73.8820 C   0  0  0  0  0  0  0  0  0  0  0  0
    3.4430   62.9527   69.8488 H   0  0  0  0  0  0  0  0  0  0  0  0
    4.2732   62.0043   68.5690 H   0  0  0  0  0  0  0  0  0  0  0  0
    2.4818   62.1375   68.5690 H   0  0  0  0  0  0  0  0  0  0  0  0
    0.2430   61.5488   70.8293 H   0  0  0  0  0  0  0  0  0  0  0  0
   -0.9706   63.1891   72.2711 H   0  0  0  0  0  0  0  0  0  0  0  0
    2.4159   63.3214   74.9679 H   0  0  0  0  0  0  0  0  0  0  0  0
    3.6285   61.6813   73.5256 H   0  0  0  0  0  0  0  0  0  0  0  0
    0.5963   64.7812   76.8032 H   0  0  0  0  0  0  0  0  0  0  0  0
    1.7948   64.3105   75.7211 H   0  0  0  0  0  0  0  0  0  0  0  0
    1.4445   56.9841   71.4804 H   0  0  0  0  0  0  0  0  0  0  0  0
    0.8809   55.5467   73.4370 H   0  0  0  0  0  0  0  0  0  0  0  0
    1.8480   56.0490   75.6794 H   0  0  0  0  0  0  0  0  0  0  0  0
    3.3915   57.9860   75.9636 H   0  0  0  0  0  0  0  0  0  0  0  0
    3.9559   59.4313   74.0136 H   0  0  0  0  0  0  0  0  0  0  0  0
  2  1  1  0
  3  2  1  0
  4  3  1  0
  5  4  2  0
  6  5  1  0
  6  2  2  0
  7  6  1  0
  8  7  2  0
  9  8  1  0
 10  9  2  0
 11 10  1  0
 12  7  1  0
 12 11  2  0
 13 10  1  0
 14 13  2  0
 15 13  2  0
 16 13  1  0
 17  5  1  0
 18 17  2  0
 19 18  1  0
 20 19  2  0
 21 20  1  0
 22 17  1  0
 22 21  2  0
  1 23  1  0
  1 24  1  0
  1 25  1  0
  8 26  1  0
  9 27  1  0
 11 28  1  0
 12 29  1  0
 16 30  1  0
 16 31  1  0
 18 32  1  0
 19 33  1  0
 20 34  1  0
 21 35  1  0
 22 36  1  0
M  END
>  <score>  (4) 
-9.129

$$$$
=
     RDKit          3D

 36 38  0  0  0  0  0  0  0  0999 V2000
   -2.0880   60.7990   73.6370 C   0  0  0  0  0  0  0  0  0  0  0  0
   -0.7840   61.1710   73.0550 C   0  0  0  0  0  0  0  0  0  0  0  0
   -0.6640   62.4580   72.6410 O   0  0  0  0  0  0  0  0  0  0  0  0
    0.6070   62.6750   72.1570 N   0  0  0  0  0  0  0  0  0  0  0  0
    1.2620   61.5070   72.2610 C   0  0  0  0  0  0  0  0  0  0  0  0
    0.4060   60.5110   72.8320 C   0  0  0  0  0  0  0  0  0  0  0  0
    0.6490   59.1320   73.2020 C   0  0  0  0  0  0  0  0  0  0  0  0
   -0.1680   58.4960   74.1490 C   0  0  0  0  0  0  0  0  0  0  0  0
    0.0610   57.1630   74.4970 C   0  0  0  0  0  0  0  0  0  0  0  0
    1.1160   56.4670   73.9000 C   0  0  0  0  0  0  0  0  0  0  0  0
    1.9290   57.0850   72.9460 C   0  0  0  0  0  0  0  0  0  0  0  0
    1.6960   58.4190   72.6020 C   0  0  0  0  0  0  0  0  0  0  0  0
    1.3880   54.7680   74.3100 S   0  0  0  0  0  6  0  0  0  0  0  0
    1.9450   54.6840   75.6400 O   0  0  0  0  0  0  0  0  0  0  0  0
    0.2420   53.9910   73.8990 O   0  0  0  0  0  0  0  0  0  0  0  0
    2.6310   54.3520   73.2610 N   0  0  0  0  0  0  0  0  0  0  0  0
    2.6540   61.3910   71.8230 C   0  0  0  0  0  0  0  0  0  0  0  0
    3.7140   61.5240   72.7300 C   0  0  0  0  0  0  0  0  0  0  0  0
    5.0390   61.4220   72.2960 C   0  0  0  0  0  0  0  0  0  0  0  0
    5.3160   61.1780   70.9520 C   0  0  0  0  0  0  0  0  0  0  0  0
    4.2710   61.0310   70.0420 C   0  0  0  0  0  0  0  0  0  0  0  0
    2.9470   61.1350   70.4750 C   0  0  0  0  0  0  0  0  0  0  0  0
   -2.0187   60.8188   74.7346 H   0  0  0  0  0  0  0  0  0  0  0  0
   -2.8551   61.5141   73.3051 H   0  0  0  0  0  0  0  0  0  0  0  0
   -2.3623   59.7868   73.3051 H   0  0  0  0  0  0  0  0  0  0  0  0
   -0.9933   59.0503   74.6198 H   0  0  0  0  0  0  0  0  0  0  0  0
   -0.5841   56.6645   75.2355 H   0  0  0  0  0  0  0  0  0  0  0  0
    2.7469   56.5250   72.4691 H   0  0  0  0  0  0  0  0  0  0  0  0
    2.3374   58.9121   71.8567 H   0  0  0  0  0  0  0  0  0  0  0  0
    3.4606   54.0744   73.8047 H   0  0  0  0  0  0  0  0  0  0  0  0
    2.3306   53.5657   72.6674 H   0  0  0  0  0  0  0  0  0  0  0  0
    3.5015   61.7103   73.7931 H   0  0  0  0  0  0  0  0  0  0  0  0
    5.8634   61.5344   73.0156 H   0  0  0  0  0  0  0  0  0  0  0  0
    6.3587   61.1015   70.6099 H   0  0  0  0  0  0  0  0  0  0  0  0
    4.4888   60.8330   68.9821 H   0  0  0  0  0  0  0  0  0  0  0  0
    2.1264   61.0151   69.7523 H   0  0  0  0  0  0  0  0  0  0  0  0
  2  1  1  0
  3  2  1  0
  4  3  1  0
  5  4  2  0
  6  5  1  0
  6  2  2  0
  7  6  1  0
  8  7  2  0
  9  8  1  0
 10  9  2  0
 11 10  1  0
 12  7  1  0
 12 11  2  0
 13 10  1  0
 14 13  2  0
 15 13  2  0
 16 13  1  0
 17  5  1  0
 18 17  2  0
 19 18  1  0
 20 19  2  0
 21 20  1  0
 22 17  1  0
 22 21  2  0
  1 23  1  0
  1 24  1  0
  1 25  1  0
  8 26  1  0
  9 27  1  0
 11 28  1  0
 12 29  1  0
 16 30  1  0
 16 31  1  0
 18 32  1  0
 19 33  1  0
 20 34  1  0
 21 35  1  0
 22 36  1  0
M  END
>  <score>  (5) 
-9.014

$$$$
=
     RDKit          3D

 36 38  0  0  0  0  0  0  0  0999 V2000
   -1.9580   69.1380   63.5830 C   0  0  0  0  0  0  0  0  0  0  0  0
   -1.6420   68.7090   64.9580 C   0  0  0  0  0  0  0  0  0  0  0  0
   -2.6610   68.7840   65.8520 O   0  0  0  0  0  0  0  0  0  0  0  0
   -2.2410   68.3210   67.0790 N   0  0  0  0  0  0  0  0  0  0  0  0
   -0.9500   67.9770   66.9360 C   0  0  0  0  0  0  0  0  0  0  0  0
   -0.5230   68.2100   65.5900 C   0  0  0  0  0  0  0  0  0  0  0  0
    0.7360   67.9500   64.9210 C   0  0  0  0  0  0  0  0  0  0  0  0
    1.3890   66.7210   65.0890 C   0  0  0  0  0  0  0  0  0  0  0  0
    2.5970   66.4680   64.4340 C   0  0  0  0  0  0  0  0  0  0  0  0
    3.1550   67.4540   63.6150 C   0  0  0  0  0  0  0  0  0  0  0  0
    2.5070   68.6780   63.4290 C   0  0  0  0  0  0  0  0  0  0  0  0
    1.3000   68.9250   64.0870 C   0  0  0  0  0  0  0  0  0  0  0  0
    4.6660   67.1250   62.7550 S   0  0  0  0  0  6  0  0  0  0  0  0
    5.6360   68.1380   63.0970 O   0  0  0  0  0  0  0  0  0  0  0  0
    4.9590   65.7130   62.8320 O   0  0  0  0  0  0  0  0  0  0  0  0
    4.2290   67.4220   61.1620 N   0  0  0  0  0  0  0  0  0  0  0  0
   -0.1910   67.4440   68.0690 C   0  0  0  0  0  0  0  0  0  0  0  0
   -0.6810   66.3760   68.8340 C   0  0  0  0  0  0  0  0  0  0  0  0
    0.0500   65.8860   69.9200 C   0  0  0  0  0  0  0  0  0  0  0  0
    1.2800   66.4530   70.2480 C   0  0  0  0  0  0  0  0  0  0  0  0
    1.7840   67.5060   69.4880 C   0  0  0  0  0  0  0  0  0  0  0  0
    1.0540   67.9980   68.4040 C   0  0  0  0  0  0  0  0  0  0  0  0
   -2.6101   70.0233   63.6158 H   0  0  0  0  0  0  0  0  0  0  0  0
   -1.0267   69.3880   63.0537 H   0  0  0  0  0  0  0  0  0  0  0  0
   -2.4730   68.3227   63.0537 H   0  0  0  0  0  0  0  0  0  0  0  0
    0.9481   65.9517   65.7399 H   0  0  0  0  0  0  0  0  0  0  0  0
    3.1049   65.5007   64.5618 H   0  0  0  0  0  0  0  0  0  0  0  0
    2.9444   69.4416   62.7690 H   0  0  0  0  0  0  0  0  0  0  0  0
    0.7895   69.8897   63.9499 H   0  0  0  0  0  0  0  0  0  0  0  0
    3.3773   68.0009   61.1418 H   0  0  0  0  0  0  0  0  0  0  0  0
    4.9935   67.9193   60.6833 H   0  0  0  0  0  0  0  0  0  0  0  0
   -1.6486   65.9200   68.5774 H   0  0  0  0  0  0  0  0  0  0  0  0
   -0.3464   65.0513   70.5168 H   0  0  0  0  0  0  0  0  0  0  0  0
    1.8521   66.0696   71.1058 H   0  0  0  0  0  0  0  0  0  0  0  0
    2.7577   67.9503   69.7419 H   0  0  0  0  0  0  0  0  0  0  0  0
    1.4590   68.8282   67.8067 H   0  0  0  0  0  0  0  0  0  0  0  0
  2  1  1  0
  3  2  1  0
  4  3  1  0
  5  4  2  0
  6  5  1  0
  6  2  2  0
  7  6  1  0
  8  7  2  0
  9  8  1  0
 10  9  2  0
 11 10  1  0
 12  7  1  0
 12 11  2  0
 13 10  1  0
 14 13  2  0
 15 13  2  0
 16 13  1  0
 17  5  1  0
 18 17  2  0
 19 18  1  0
 20 19  2  0
 21 20  1  0
 22 17  1  0
 22 21  2  0
  1 23  1  0
  1 24  1  0
  1 25  1  0
  8 26  1  0
  9 27  1  0
 11 28  1  0
 12 29  1  0
 16 30  1  0
 16 31  1  0
 18 32  1  0
 19 33  1  0
 20 34  1  0
 21 35  1  0
 22 36  1  0
M  END
>  <score>  (6) 
-8.763

$$$$
=
     RDKit          3D

 36 38  0  0  0  0  0  0  0  0999 V2000
   -2.1220   69.0540   65.4960 C   0  0  0  0  0  0  0  0  0  0  0  0
   -1.7220   68.2100   66.6380 C   0  0  0  0  0  0  0  0  0  0  0  0
   -2.7310   67.7740   67.4360 O   0  0  0  0  0  0  0  0  0  0  0  0
   -2.2230   66.9720   68.4330 N   0  0  0  0  0  0  0  0  0  0  0  0
   -0.8920   66.9330   68.2530 C   0  0  0  0  0  0  0  0  0  0  0  0
   -0.5250   67.7160   67.1120 C   0  0  0  0  0  0  0  0  0  0  0  0
    0.7540   67.9420   66.4710 C   0  0  0  0  0  0  0  0  0  0  0  0
    1.6070   68.9590   66.9250 C   0  0  0  0  0  0  0  0  0  0  0  0
    2.8440   69.1680   66.3120 C   0  0  0  0  0  0  0  0  0  0  0  0
    3.2260   68.3600   65.2370 C   0  0  0  0  0  0  0  0  0  0  0  0
    2.3920   67.3350   64.7850 C   0  0  0  0  0  0  0  0  0  0  0  0
    1.1540   67.1310   65.4010 C   0  0  0  0  0  0  0  0  0  0  0  0
    4.8080   68.5970   64.4820 S   0  0  0  0  0  6  0  0  0  0  0  0
    5.4640   67.3190   64.3450 O   0  0  0  0  0  0  0  0  0  0  0  0
    4.6750   69.5230   63.3810 O   0  0  0  0  0  0  0  0  0  0  0  0
    5.6450   69.4210   65.6820 N   0  0  0  0  0  0  0  0  0  0  0  0
   -0.0400   66.1610   69.1590 C   0  0  0  0  0  0  0  0  0  0  0  0
    1.2060   66.6490   69.5780 C   0  0  0  0  0  0  0  0  0  0  0  0
    2.0130   65.8960   70.4340 C   0  0  0  0  0  0  0  0  0  0  0  0
    1.5810   64.6510   70.8870 C   0  0  0  0  0  0  0  0  0  0  0  0
    0.3400   64.1590   70.4880 C   0  0  0  0  0  0  0  0  0  0  0  0
   -0.4670   64.9110   69.6310 C   0  0  0  0  0  0  0  0  0  0  0  0
   -2.5652   69.9892   65.8687 H   0  0  0  0  0  0  0  0  0  0  0  0
   -1.2379   69.2857   64.8839 H   0  0  0  0  0  0  0  0  0  0  0  0
   -2.8611   68.5164   64.8839 H   0  0  0  0  0  0  0  0  0  0  0  0
    1.2998   69.5951   67.7682 H   0  0  0  0  0  0  0  0  0  0  0  0
    3.5134   69.9630   66.6725 H   0  0  0  0  0  0  0  0  0  0  0  0
    2.7073   66.6925   63.9497 H   0  0  0  0  0  0  0  0  0  0  0  0
    0.4905   66.3296   65.0438 H   0  0  0  0  0  0  0  0  0  0  0  0
    5.3216   69.1026   66.6066 H   0  0  0  0  0  0  0  0  0  0  0  0
    6.6534   69.2336   65.5877 H   0  0  0  0  0  0  0  0  0  0  0  0
    1.5510   67.6336   69.2295 H   0  0  0  0  0  0  0  0  0  0  0  0
    2.9913   66.2865   70.7511 H   0  0  0  0  0  0  0  0  0  0  0  0
    2.2188   64.0575   71.5586 H   0  0  0  0  0  0  0  0  0  0  0  0
   -0.0043   63.1782   70.8479 H   0  0  0  0  0  0  0  0  0  0  0  0
   -1.4475   64.5189   69.3231 H   0  0  0  0  0  0  0  0  0  0  0  0
  2  1  1  0
  3  2  1  0
  4  3  1  0
  5  4  2  0
  6  5  1  0
  6  2  2  0
  7  6  1  0
  8  7  2  0
  9  8  1  0
 10  9  2  0
 11 10  1  0
 12  7  1  0
 12 11  2  0
 13 10  1  0
 14 13  2  0
 15 13  2  0
 16 13  1  0
 17  5  1  0
 18 17  2  0
 19 18  1  0
 20 19  2  0
 21 20  1  0
 22 17  1  0
 22 21  2  0
  1 23  1  0
  1 24  1  0
  1 25  1  0
  8 26  1  0
  9 27  1  0
 11 28  1  0
 12 29  1  0
 16 30  1  0
 16 31  1  0
 18 32  1  0
 19 33  1  0
 20 34  1  0
 21 35  1  0
 22 36  1  0
M  END
>  <score>  (7) 
-8.513

$$$$
=
     RDKit          3D

 36 38  0  0  0  0  0  0  0  0999 V2000
    0.3070   61.5180   76.0900 C   0  0  0  0  0  0  0  0  0  0  0  0
    0.9510   61.7720   74.7880 C   0  0  0  0  0  0  0  0  0  0  0  0
    1.0540   63.0750   74.4200 O   0  0  0  0  0  0  0  0  0  0  0  0
    1.7030   63.1680   73.2100 N   0  0  0  0  0  0  0  0  0  0  0  0
    1.9840   61.9110   72.8280 C   0  0  0  0  0  0  0  0  0  0  0  0
    1.5170   60.9810   73.8100 C   0  0  0  0  0  0  0  0  0  0  0  0
    1.6280   59.5390   73.9000 C   0  0  0  0  0  0  0  0  0  0  0  0
    2.6840   58.9500   74.6100 C   0  0  0  0  0  0  0  0  0  0  0  0
    2.7820   57.5600   74.7040 C   0  0  0  0  0  0  0  0  0  0  0  0
    1.8240   56.7580   74.0780 C   0  0  0  0  0  0  0  0  0  0  0  0
    0.7600   57.3330   73.3780 C   0  0  0  0  0  0  0  0  0  0  0  0
    0.6670   58.7240   73.2870 C   0  0  0  0  0  0  0  0  0  0  0  0
    1.9240   54.9980   74.2240 S   0  0  0  0  0  6  0  0  0  0  0  0
    0.6790   54.4950   74.7550 O   0  0  0  0  0  0  0  0  0  0  0  0
    2.5360   54.4550   73.0340 O   0  0  0  0  0  0  0  0  0  0  0  0
    3.0550   54.8160   75.4510 N   0  0  0  0  0  0  0  0  0  0  0  0
    2.6770   61.6540   71.5640 C   0  0  0  0  0  0  0  0  0  0  0  0
    3.8490   60.8860   71.5220 C   0  0  0  0  0  0  0  0  0  0  0  0
    4.5060   60.6580   70.3100 C   0  0  0  0  0  0  0  0  0  0  0  0
    3.9950   61.1880   69.1270 C   0  0  0  0  0  0  0  0  0  0  0  0
    2.8240   61.9430   69.1530 C   0  0  0  0  0  0  0  0  0  0  0  0
    2.1670   62.1730   70.3650 C   0  0  0  0  0  0  0  0  0  0  0  0
    0.9987   61.7908   76.9006 H   0  0  0  0  0  0  0  0  0  0  0  0
   -0.6086   62.1224   76.1703 H   0  0  0  0  0  0  0  0  0  0  0  0
    0.0505   60.4513   76.1703 H   0  0  0  0  0  0  0  0  0  0  0  0
    3.4390   59.5859   75.0954 H   0  0  0  0  0  0  0  0  0  0  0  0
    3.6075   57.0997   75.2668 H   0  0  0  0  0  0  0  0  0  0  0  0
    0.0010   56.6949   72.9019 H   0  0  0  0  0  0  0  0  0  0  0  0
   -0.1647   59.1817   72.7314 H   0  0  0  0  0  0  0  0  0  0  0  0
    2.5855   54.8915   76.3647 H   0  0  0  0  0  0  0  0  0  0  0  0
    3.5031   53.8921   75.3706 H   0  0  0  0  0  0  0  0  0  0  0  0
    4.2549   60.4592   72.4510 H   0  0  0  0  0  0  0  0  0  0  0  0
    5.4284   60.0590   70.2898 H   0  0  0  0  0  0  0  0  0  0  0  0
    4.5151   61.0107   68.1741 H   0  0  0  0  0  0  0  0  0  0  0  0
    2.4166   62.3581   68.2193 H   0  0  0  0  0  0  0  0  0  0  0  0
    1.2411   62.7667   70.3786 H   0  0  0  0  0  0  0  0  0  0  0  0
  2  1  1  0
  3  2  1  0
  4  3  1  0
  5  4  2  0
  6  5  1  0
  6  2  2  0
  7  6  1  0
  8  7  2  0
  9  8  1  0
 10  9  2  0
 11 10  1  0
 12  7  1  0
 12 11  2  0
 13 10  1  0
 14 13  2  0
 15 13  2  0
 16 13  1  0
 17  5  1  0
 18 17  2  0
 19 18  1  0
 20 19  2  0
 21 20  1  0
 22 17  1  0
 22 21  2  0
  1 23  1  0
  1 24  1  0
  1 25  1  0
  8 26  1  0
  9 27  1  0
 11 28  1  0
 12 29  1  0
 16 30  1  0
 16 31  1  0
 18 32  1  0
 19 33  1  0
 20 34  1  0
 21 35  1  0
 22 36  1  0
M  END
>  <score>  (8) 
-8.082

$$$$
=
     RDKit          3D

 36 38  0  0  0  0  0  0  0  0999 V2000
    1.0540   57.5440   73.7390 C   0  0  0  0  0  0  0  0  0  0  0  0
    1.5490   58.6830   72.9420 C   0  0  0  0  0  0  0  0  0  0  0  0
    2.4840   58.3870   72.0020 O   0  0  0  0  0  0  0  0  0  0  0  0
    2.8270   59.5280   71.3120 N   0  0  0  0  0  0  0  0  0  0  0  0
    2.1090   60.5300   71.8460 C   0  0  0  0  0  0  0  0  0  0  0  0
    1.2740   60.0330   72.8970 C   0  0  0  0  0  0  0  0  0  0  0  0
    0.2840   60.6850   73.7300 C   0  0  0  0  0  0  0  0  0  0  0  0
    0.6730   61.3840   74.8820 C   0  0  0  0  0  0  0  0  0  0  0  0
   -0.2830   62.0210   75.6770 C   0  0  0  0  0  0  0  0  0  0  0  0
   -1.6330   61.9510   75.3200 C   0  0  0  0  0  0  0  0  0  0  0  0
   -2.0310   61.2700   74.1670 C   0  0  0  0  0  0  0  0  0  0  0  0
   -1.0710   60.6340   73.3760 C   0  0  0  0  0  0  0  0  0  0  0  0
   -2.8430   62.7870   76.3040 S   0  0  0  0  0  6  0  0  0  0  0  0
   -3.0250   62.0690   77.5430 O   0  0  0  0  0  0  0  0  0  0  0  0
   -2.5910   64.2090   76.2600 O   0  0  0  0  0  0  0  0  0  0  0  0
   -4.2440   62.5370   75.4150 N   0  0  0  0  0  0  0  0  0  0  0  0
    2.2420   61.8960   71.3370 C   0  0  0  0  0  0  0  0  0  0  0  0
    3.5000   62.4460   71.0540 C   0  0  0  0  0  0  0  0  0  0  0  0
    3.6120   63.7560   70.5790 C   0  0  0  0  0  0  0  0  0  0  0  0
    2.4690   64.5260   70.3750 C   0  0  0  0  0  0  0  0  0  0  0  0
    1.2120   63.9870   70.6410 C   0  0  0  0  0  0  0  0  0  0  0  0
    1.0980   62.6790   71.1170 C   0  0  0  0  0  0  0  0  0  0  0  0
    1.1543   57.7747   74.8099 H   0  0  0  0  0  0  0  0  0  0  0  0
   -0.0043   57.3621   73.5006 H   0  0  0  0  0  0  0  0  0  0  0  0
    1.6431   56.6461   73.5006 H   0  0  0  0  0  0  0  0  0  0  0  0
    1.7360   61.4309   75.1609 H   0  0  0  0  0  0  0  0  0  0  0  0
    0.0241   62.5736   76.5772 H   0  0  0  0  0  0  0  0  0  0  0  0
   -3.0933   61.2348   73.8838 H   0  0  0  0  0  0  0  0  0  0  0  0
   -1.3802   60.0906   72.4710 H   0  0  0  0  0  0  0  0  0  0  0  0
   -5.0371   62.3955   76.0567 H   0  0  0  0  0  0  0  0  0  0  0  0
   -4.4252   63.3589   74.8213 H   0  0  0  0  0  0  0  0  0  0  0  0
    4.4064   61.8418   71.2069 H   0  0  0  0  0  0  0  0  0  0  0  0
    4.6045   64.1797   70.3659 H   0  0  0  0  0  0  0  0  0  0  0  0
    2.5588   65.5578   70.0045 H   0  0  0  0  0  0  0  0  0  0  0  0
    0.3085   64.5923   70.4759 H   0  0  0  0  0  0  0  0  0  0  0  0
    0.1023   62.2584   71.3214 H   0  0  0  0  0  0  0  0  0  0  0  0
  2  1  1  0
  3  2  1  0
  4  3  1  0
  5  4  2  0
  6  5  1  0
  6  2  2  0
  7  6  1  0
  8  7  2  0
  9  8  1  0
 10  9  2  0
 11 10  1  0
 12  7  1  0
 12 11  2  0
 13 10  1  0
 14 13  2  0
 15 13  2  0
 16 13  1  0
 17  5  1  0
 18 17  2  0
 19 18  1  0
 20 19  2  0
 21 20  1  0
 22 17  1  0
 22 21  2  0
  1 23  1  0
  1 24  1  0
  1 25  1  0
  8 26  1  0
  9 27  1  0
 11 28  1  0
 12 29  1  0
 16 30  1  0
 16 31  1  0
 18 32  1  0
 19 33  1  0
 20 34  1  0
 21 35  1  0
 22 36  1  0
M  END
>  <score>  (9) 
-7.879

$$$$
