=
     RDKit          3D

 49 49  0  0  0  0  0  0  0  0999 V2000
    2.1690   67.5040   65.0510 C   0  0  2  0  0  0  0  0  0  0  0  0
    3.1650   68.0740   65.9690 N   0  0  0  0  0  0  0  0  0  0  0  0
    4.0050   69.0900   65.5710 C   0  0  0  0  0  0  0  0  0  0  0  0
    4.1670   69.4550   64.4130 O   0  0  0  0  0  0  0  0  0  0  0  0
    4.7520   69.7670   66.6620 C   0  0  0  0  0  0  0  0  0  0  0  0
    4.0770   70.0500   67.8560 C   0  0  0  0  0  0  0  0  0  0  0  0
    4.7490   70.6810   68.9030 C   0  0  0  0  0  0  0  0  0  0  0  0
    6.0960   71.0180   68.7660 C   0  0  0  0  0  0  0  0  0  0  0  0
    6.7760   70.7180   67.5840 C   0  0  0  0  0  0  0  0  0  0  0  0
    6.1080   70.0890   66.5320 C   0  0  0  0  0  0  0  0  0  0  0  0
   -0.1950   68.4540   65.2600 N   0  0  0  0  0  0  0  0  0  0  0  0
    0.7960   67.6110   65.7730 C   0  0  0  0  0  0  0  0  0  0  0  0
    0.5680   66.9060   66.7700 O   0  0  0  0  0  0  0  0  0  0  0  0
    0.0150   69.3870   64.1420 C   0  0  0  0  0  0  0  0  0  0  0  0
    0.0690   69.7430   61.6210 C   0  0  0  0  0  0  0  0  0  0  0  0
    0.0320   68.7310   62.7560 C   0  0  0  0  0  0  0  0  0  0  0  0
   -1.3970   68.6360   66.0740 C   0  0  0  0  0  0  0  0  0  0  0  0
   -2.6280   68.9880   65.2370 C   0  0  0  0  0  0  0  0  0  0  0  0
   -3.9130   68.6260   65.9630 C   0  0  0  0  0  0  0  0  0  0  0  0
    2.4780   66.0210   64.7950 C   0  0  0  0  0  0  0  0  0  0  0  0
    3.7760   65.7870   64.0250 C   0  0  0  0  0  0  0  0  0  0  0  0
    4.2540   64.3370   63.9530 C   0  0  0  0  0  0  0  0  0  0  0  0
    5.4000   64.1520   63.4570 O   0  0  0  0  0  0  0  0  0  0  0  0
    3.4210   63.4910   64.3840 O   0  0  0  0  0  1  0  0  0  0  0  0
    2.1733   68.0352   64.0877 H   0  0  0  0  0  0  0  0  0  0  0  0
    3.2361   67.7065   66.9286 H   0  0  0  0  0  0  0  0  0  0  0  0
    3.0179   69.7750   67.9681 H   0  0  0  0  0  0  0  0  0  0  0  0
    4.2166   70.9130   69.8372 H   0  0  0  0  0  0  0  0  0  0  0  0
    6.6230   71.5207   69.5904 H   0  0  0  0  0  0  0  0  0  0  0  0
    7.8400   70.9778   67.4816 H   0  0  0  0  0  0  0  0  0  0  0  0
    6.6457   69.8470   65.6034 H   0  0  0  0  0  0  0  0  0  0  0  0
   -0.7952   70.1308   64.1594 H   0  0  0  0  0  0  0  0  0  0  0  0
    1.0112   69.8296   64.2890 H   0  0  0  0  0  0  0  0  0  0  0  0
    0.1062   70.7603   62.0379 H   0  0  0  0  0  0  0  0  0  0  0  0
    0.9613   69.5675   61.0022 H   0  0  0  0  0  0  0  0  0  0  0  0
   -0.8338   69.6331   61.0022 H   0  0  0  0  0  0  0  0  0  0  0  0
   -0.8735   68.1158   62.6480 H   0  0  0  0  0  0  0  0  0  0  0  0
    0.9487   68.1268   62.6887 H   0  0  0  0  0  0  0  0  0  0  0  0
   -1.5975   67.7021   66.6195 H   0  0  0  0  0  0  0  0  0  0  0  0
   -1.2102   69.4753   66.7601 H   0  0  0  0  0  0  0  0  0  0  0  0
   -2.6247   70.0688   65.0323 H   0  0  0  0  0  0  0  0  0  0  0  0
   -2.5858   68.4135   64.2999 H   0  0  0  0  0  0  0  0  0  0  0  0
   -3.7461   68.6730   67.0493 H   0  0  0  0  0  0  0  0  0  0  0  0
   -4.7050   69.3360   65.6826 H   0  0  0  0  0  0  0  0  0  0  0  0
   -4.2180   67.6070   65.6826 H   0  0  0  0  0  0  0  0  0  0  0  0
    2.5535   65.5096   65.7660 H   0  0  0  0  0  0  0  0  0  0  0  0
    1.6607   65.6255   64.1740 H   0  0  0  0  0  0  0  0  0  0  0  0
    3.6270   66.1449   62.9956 H   0  0  0  0  0  0  0  0  0  0  0  0
    4.5547   66.3313   64.5793 H   0  0  0  0  0  0  0  0  0  0  0  0
  2  1  1  0
  3  2  1  0
  4  3  2  0
  5  3  1  0
  6  5  2  0
  7  6  1  0
  8  7  2  0
  9  8  1  0
 10  5  1  0
 10  9  2  0
 12 11  1  0
 12  1  1  0
 13 12  2  0
 14 11  1  0
 16 15  1  0
 16 14  1  0
 17 11  1  0
 18 17  1  0
 19 18  1  0
 20  1  1  0
 21 20  1  0
 22 21  1  0
 23 22  2  0
 24 22  1  0
  1 25  1  6
  2 26  1  0
  6 27  1  0
  7 28  1  0
  8 29  1  0
  9 30  1  0
 10 31  1  0
 14 32  1  0
 14 33  1  0
 15 34  1  0
 15 35  1  0
 15 36  1  0
 16 37  1  0
 16 38  1  0
 17 39  1  0
 17 40  1  0
 18 41  1  0
 18 42  1  0
 19 43  1  0
 19 44  1  0
 19 45  1  0
 20 46  1  0
 20 47  1  0
 21 48  1  0
 21 49  1  0
M  CHG  1  24  -1
M  END
>  <score>  (1) 
-8.892

$$$$
=
     RDKit          3D

 49 49  0  0  0  0  0  0  0  0999 V2000
    2.5700   67.5820   64.3230 C   0  0  2  0  0  0  0  0  0  0  0  0
    3.4080   68.1070   65.4100 N   0  0  0  0  0  0  0  0  0  0  0  0
    4.3010   69.1320   65.1940 C   0  0  0  0  0  0  0  0  0  0  0  0
    4.6430   69.5450   64.0920 O   0  0  0  0  0  0  0  0  0  0  0  0
    4.8650   69.7580   66.4170 C   0  0  0  0  0  0  0  0  0  0  0  0
    4.0090   70.0010   67.4970 C   0  0  0  0  0  0  0  0  0  0  0  0
    4.5060   70.5830   68.6630 C   0  0  0  0  0  0  0  0  0  0  0  0
    5.8600   70.9120   68.7570 C   0  0  0  0  0  0  0  0  0  0  0  0
    6.7190   70.6520   67.6880 C   0  0  0  0  0  0  0  0  0  0  0  0
    6.2260   70.0710   66.5180 C   0  0  0  0  0  0  0  0  0  0  0  0
    0.4290   68.3170   65.5100 N   0  0  0  0  0  0  0  0  0  0  0  0
    1.2370   68.3820   64.3710 C   0  0  0  0  0  0  0  0  0  0  0  0
    0.9260   69.1170   63.4190 O   0  0  0  0  0  0  0  0  0  0  0  0
    0.6720   67.4110   66.6430 C   0  0  0  0  0  0  0  0  0  0  0  0
    1.1710   67.1570   69.1270 C   0  0  0  0  0  0  0  0  0  0  0  0
    1.0870   68.1090   67.9430 C   0  0  0  0  0  0  0  0  0  0  0  0
   -0.8850   68.9570   65.4270 C   0  0  0  0  0  0  0  0  0  0  0  0
   -1.9260   68.2810   66.3210 C   0  0  0  0  0  0  0  0  0  0  0  0
   -3.3400   68.6350   65.8900 C   0  0  0  0  0  0  0  0  0  0  0  0
    2.2630   66.0970   64.5650 C   0  0  0  0  0  0  0  0  0  0  0  0
    3.5090   65.2340   64.7540 C   0  0  0  0  0  0  0  0  0  0  0  0
    4.3040   64.9280   63.4840 C   0  0  0  0  0  0  0  0  0  0  0  0
    4.3570   63.7150   63.1380 O   0  0  0  0  0  0  0  0  0  0  0  0
    4.8360   65.9390   62.9450 O   0  0  0  0  0  1  0  0  0  0  0  0
    3.0787   67.6818   63.3528 H   0  0  0  0  0  0  0  0  0  0  0  0
    3.3255   67.6998   66.3525 H   0  0  0  0  0  0  0  0  0  0  0  0
    2.9445   69.7331   67.4264 H   0  0  0  0  0  0  0  0  0  0  0  0
    3.8315   70.7829   69.5086 H   0  0  0  0  0  0  0  0  0  0  0  0
    6.2500   71.3766   69.6746 H   0  0  0  0  0  0  0  0  0  0  0  0
    7.7865   70.9053   67.7675 H   0  0  0  0  0  0  0  0  0  0  0  0
    6.9046   69.8599   65.6784 H   0  0  0  0  0  0  0  0  0  0  0  0
   -0.2532   66.8483   66.8364 H   0  0  0  0  0  0  0  0  0  0  0  0
    1.5161   66.7686   66.3519 H   0  0  0  0  0  0  0  0  0  0  0  0
    1.1203   67.7315   70.0637 H   0  0  0  0  0  0  0  0  0  0  0  0
    0.3320   66.4467   69.0866 H   0  0  0  0  0  0  0  0  0  0  0  0
    2.1214   66.6046   69.0866 H   0  0  0  0  0  0  0  0  0  0  0  0
    0.3477   68.8904   68.1730 H   0  0  0  0  0  0  0  0  0  0  0  0
    2.0916   68.5285   67.7856 H   0  0  0  0  0  0  0  0  0  0  0  0
   -0.7850   70.0081   65.7354 H   0  0  0  0  0  0  0  0  0  0  0  0
   -1.2326   68.8707   64.3869 H   0  0  0  0  0  0  0  0  0  0  0  0
   -1.7958   67.1904   66.2606 H   0  0  0  0  0  0  0  0  0  0  0  0
   -1.7793   68.6348   67.3522 H   0  0  0  0  0  0  0  0  0  0  0  0
   -3.9663   68.7918   66.7806 H   0  0  0  0  0  0  0  0  0  0  0  0
   -3.3203   69.5559   65.2888 H   0  0  0  0  0  0  0  0  0  0  0  0
   -3.7566   67.8134   65.2888 H   0  0  0  0  0  0  0  0  0  0  0  0
    1.6427   66.0138   65.4696 H   0  0  0  0  0  0  0  0  0  0  0  0
    1.7483   65.7252   63.6667 H   0  0  0  0  0  0  0  0  0  0  0  0
    4.1782   65.7558   65.4539 H   0  0  0  0  0  0  0  0  0  0  0  0
    3.1473   64.2626   65.1220 H   0  0  0  0  0  0  0  0  0  0  0  0
  2  1  1  0
  3  2  1  0
  4  3  2  0
  5  3  1  0
  6  5  2  0
  7  6  1  0
  8  7  2  0
  9  8  1  0
 10  5  1  0
 10  9  2  0
 12 11  1  0
 12  1  1  0
 13 12  2  0
 14 11  1  0
 16 15  1  0
 16 14  1  0
 17 11  1  0
 18 17  1  0
 19 18  1  0
 20  1  1  0
 21 20  1  0
 22 21  1  0
 23 22  2  0
 24 22  1  0
  1 25  1  6
  2 26  1  0
  6 27  1  0
  7 28  1  0
  8 29  1  0
  9 30  1  0
 10 31  1  0
 14 32  1  0
 14 33  1  0
 15 34  1  0
 15 35  1  0
 15 36  1  0
 16 37  1  0
 16 38  1  0
 17 39  1  0
 17 40  1  0
 18 41  1  0
 18 42  1  0
 19 43  1  0
 19 44  1  0
 19 45  1  0
 20 46  1  0
 20 47  1  0
 21 48  1  0
 21 49  1  0
M  CHG  1  24  -1
M  END
>  <score>  (2) 
-8.786

$$$$
=
     RDKit          3D

 49 49  0  0  0  0  0  0  0  0999 V2000
    1.8260   68.0770   65.5110 C   0  0  2  0  0  0  0  0  0  0  0  0
    2.9950   68.8450   65.9600 N   0  0  0  0  0  0  0  0  0  0  0  0
    3.0090   69.4760   67.1840 C   0  0  0  0  0  0  0  0  0  0  0  0
    2.0270   69.6520   67.8950 O   0  0  0  0  0  0  0  0  0  0  0  0
    4.3370   69.9640   67.6370 C   0  0  0  0  0  0  0  0  0  0  0  0
    4.4630   70.4290   68.9510 C   0  0  0  0  0  0  0  0  0  0  0  0
    5.6960   70.8900   69.4120 C   0  0  0  0  0  0  0  0  0  0  0  0
    6.8070   70.8760   68.5670 C   0  0  0  0  0  0  0  0  0  0  0  0
    6.6870   70.3940   67.2620 C   0  0  0  0  0  0  0  0  0  0  0  0
    5.4550   69.9340   66.7950 C   0  0  0  0  0  0  0  0  0  0  0  0
    3.5760   66.8530   64.1060 N   0  0  0  0  0  0  0  0  0  0  0  0
    2.3800   66.7940   64.8270 C   0  0  0  0  0  0  0  0  0  0  0  0
    1.7850   65.7140   64.9710 O   0  0  0  0  0  0  0  0  0  0  0  0
    4.3000   68.1000   63.8100 C   0  0  0  0  0  0  0  0  0  0  0  0
    3.2660   68.7030   61.5620 C   0  0  0  0  0  0  0  0  0  0  0  0
    4.5410   68.3610   62.3180 C   0  0  0  0  0  0  0  0  0  0  0  0
    3.9550   65.6580   63.3520 C   0  0  0  0  0  0  0  0  0  0  0  0
    4.8850   64.7350   64.1400 C   0  0  0  0  0  0  0  0  0  0  0  0
    4.1790   63.4500   64.5430 C   0  0  0  0  0  0  0  0  0  0  0  0
    1.0320   68.8850   64.4730 C   0  0  0  0  0  0  0  0  0  0  0  0
   -0.4820   68.7850   64.6430 C   0  0  0  0  0  0  0  0  0  0  0  0
   -0.9760   68.5310   66.0680 C   0  0  0  0  0  0  0  0  0  0  0  0
   -1.2280   67.3300   66.3650 O   0  0  0  0  0  0  0  0  0  0  0  0
   -1.0930   69.5720   66.7740 O   0  0  0  0  0  1  0  0  0  0  0  0
    1.1626   67.8429   66.3566 H   0  0  0  0  0  0  0  0  0  0  0  0
    3.8203   68.9129   65.3474 H   0  0  0  0  0  0  0  0  0  0  0  0
    3.5898   70.4309   69.6200 H   0  0  0  0  0  0  0  0  0  0  0  0
    5.7930   71.2647   70.4417 H   0  0  0  0  0  0  0  0  0  0  0  0
    7.7778   71.2450   68.9295 H   0  0  0  0  0  0  0  0  0  0  0  0
    7.5657   70.3768   66.6005 H   0  0  0  0  0  0  0  0  0  0  0  0
    5.3627   69.5491   65.7687 H   0  0  0  0  0  0  0  0  0  0  0  0
    3.7163   68.9398   64.2151 H   0  0  0  0  0  0  0  0  0  0  0  0
    5.2929   68.0008   64.2729 H   0  0  0  0  0  0  0  0  0  0  0  0
    2.4609   68.9190   62.2797 H   0  0  0  0  0  0  0  0  0  0  0  0
    3.4403   69.5861   60.9298 H   0  0  0  0  0  0  0  0  0  0  0  0
    2.9749   67.8512   60.9298 H   0  0  0  0  0  0  0  0  0  0  0  0
    4.9824   67.4581   61.8708 H   0  0  0  0  0  0  0  0  0  0  0  0
    5.2133   69.2281   62.2396 H   0  0  0  0  0  0  0  0  0  0  0  0
    3.0425   65.1009   63.0930 H   0  0  0  0  0  0  0  0  0  0  0  0
    4.4973   65.9891   62.4541 H   0  0  0  0  0  0  0  0  0  0  0  0
    5.7549   64.4847   63.5149 H   0  0  0  0  0  0  0  0  0  0  0  0
    5.1998   65.2589   65.0545 H   0  0  0  0  0  0  0  0  0  0  0  0
    4.1411   63.3810   65.6402 H   0  0  0  0  0  0  0  0  0  0  0  0
    3.1554   63.4522   64.1402 H   0  0  0  0  0  0  0  0  0  0  0  0
    4.7297   62.5872   64.1402 H   0  0  0  0  0  0  0  0  0  0  0  0
    1.3220   69.9425   64.5606 H   0  0  0  0  0  0  0  0  0  0  0  0
    1.2726   68.4636   63.4858 H   0  0  0  0  0  0  0  0  0  0  0  0
   -0.9239   69.7307   64.2961 H   0  0  0  0  0  0  0  0  0  0  0  0
   -0.7911   67.9060   64.0583 H   0  0  0  0  0  0  0  0  0  0  0  0
  2  1  1  0
  3  2  1  0
  4  3  2  0
  5  3  1  0
  6  5  2  0
  7  6  1  0
  8  7  2  0
  9  8  1  0
 10  5  1  0
 10  9  2  0
 12 11  1  0
 12  1  1  0
 13 12  2  0
 14 11  1  0
 16 15  1  0
 16 14  1  0
 17 11  1  0
 18 17  1  0
 19 18  1  0
 20  1  1  0
 21 20  1  0
 22 21  1  0
 23 22  2  0
 24 22  1  0
  1 25  1  1
  2 26  1  0
  6 27  1  0
  7 28  1  0
  8 29  1  0
  9 30  1  0
 10 31  1  0
 14 32  1  0
 14 33  1  0
 15 34  1  0
 15 35  1  0
 15 36  1  0
 16 37  1  0
 16 38  1  0
 17 39  1  0
 17 40  1  0
 18 41  1  0
 18 42  1  0
 19 43  1  0
 19 44  1  0
 19 45  1  0
 20 46  1  0
 20 47  1  0
 21 48  1  0
 21 49  1  0
M  CHG  1  24  -1
M  END
>  <score>  (3) 
-8.654

$$$$
=
     RDKit          3D

 49 49  0  0  0  0  0  0  0  0999 V2000
    1.7440   68.6370   64.9890 C   0  0  2  0  0  0  0  0  0  0  0  0
    2.9210   69.2980   65.5700 N   0  0  0  0  0  0  0  0  0  0  0  0
    2.9950   69.5700   66.9180 C   0  0  0  0  0  0  0  0  0  0  0  0
    2.0550   69.5050   67.7010 O   0  0  0  0  0  0  0  0  0  0  0  0
    4.3360   69.9670   67.4170 C   0  0  0  0  0  0  0  0  0  0  0  0
    5.4320   69.8480   66.5540 C   0  0  0  0  0  0  0  0  0  0  0  0
    6.7050   70.2160   66.9890 C   0  0  0  0  0  0  0  0  0  0  0  0
    6.8850   70.7150   68.2800 C   0  0  0  0  0  0  0  0  0  0  0  0
    5.7900   70.8540   69.1350 C   0  0  0  0  0  0  0  0  0  0  0  0
    4.5140   70.4850   68.7060 C   0  0  0  0  0  0  0  0  0  0  0  0
    2.9270   66.4650   64.3400 N   0  0  0  0  0  0  0  0  0  0  0  0
    1.9790   67.1070   65.1440 C   0  0  0  0  0  0  0  0  0  0  0  0
    1.3630   66.4750   66.0170 O   0  0  0  0  0  0  0  0  0  0  0  0
    3.6360   67.1120   63.2250 C   0  0  0  0  0  0  0  0  0  0  0  0
    5.3960   68.9270   62.9210 C   0  0  0  0  0  0  0  0  0  0  0  0
    5.0540   67.5900   63.5610 C   0  0  0  0  0  0  0  0  0  0  0  0
    2.9810   65.0050   64.4180 C   0  0  0  0  0  0  0  0  0  0  0  0
    4.3520   64.4900   64.8580 C   0  0  0  0  0  0  0  0  0  0  0  0
    4.9100   63.4830   63.8640 C   0  0  0  0  0  0  0  0  0  0  0  0
    1.6380   68.9710   63.4930 C   0  0  0  0  0  0  0  0  0  0  0  0
    0.2030   69.1460   63.0030 C   0  0  0  0  0  0  0  0  0  0  0  0
    0.0460   69.7620   61.6120 C   0  0  0  0  0  0  0  0  0  0  0  0
   -1.1070   70.1820   61.3150 O   0  0  0  0  0  0  0  0  0  0  0  0
    1.0990   69.7530   60.9150 O   0  0  0  0  0  1  0  0  0  0  0  0
    0.8216   68.9675   65.4890 H   0  0  0  0  0  0  0  0  0  0  0  0
    3.7055   69.5629   64.9574 H   0  0  0  0  0  0  0  0  0  0  0  0
    5.2891   69.4643   65.5330 H   0  0  0  0  0  0  0  0  0  0  0  0
    7.5676   70.1129   66.3143 H   0  0  0  0  0  0  0  0  0  0  0  0
    7.8904   70.9990   68.6241 H   0  0  0  0  0  0  0  0  0  0  0  0
    5.9332   71.2553   70.1491 H   0  0  0  0  0  0  0  0  0  0  0  0
    3.6510   70.6007   69.3782 H   0  0  0  0  0  0  0  0  0  0  0  0
    3.7043   66.3907   62.3973 H   0  0  0  0  0  0  0  0  0  0  0  0
    3.0570   68.0111   62.9675 H   0  0  0  0  0  0  0  0  0  0  0  0
    5.5866   69.6720   63.7076 H   0  0  0  0  0  0  0  0  0  0  0  0
    6.2945   68.8153   62.2963 H   0  0  0  0  0  0  0  0  0  0  0  0
    4.5542   69.2605   62.2963 H   0  0  0  0  0  0  0  0  0  0  0  0
    5.7719   66.8366   63.2046 H   0  0  0  0  0  0  0  0  0  0  0  0
    5.1074   67.7232   64.6516 H   0  0  0  0  0  0  0  0  0  0  0  0
    2.2271   64.6627   65.1422 H   0  0  0  0  0  0  0  0  0  0  0  0
    2.7844   64.6100   63.4104 H   0  0  0  0  0  0  0  0  0  0  0  0
    5.0461   65.3399   64.9347 H   0  0  0  0  0  0  0  0  0  0  0  0
    4.2388   63.9903   65.8314 H   0  0  0  0  0  0  0  0  0  0  0  0
    5.3730   62.6474   64.4094 H   0  0  0  0  0  0  0  0  0  0  0  0
    4.0947   63.1013   63.2319 H   0  0  0  0  0  0  0  0  0  0  0  0
    5.6659   63.9720   63.2319 H   0  0  0  0  0  0  0  0  0  0  0  0
    2.1851   69.9069   63.3066 H   0  0  0  0  0  0  0  0  0  0  0  0
    2.0637   68.1190   62.9427 H   0  0  0  0  0  0  0  0  0  0  0  0
   -0.2722   68.1541   62.9886 H   0  0  0  0  0  0  0  0  0  0  0  0
   -0.2664   69.8564   63.6995 H   0  0  0  0  0  0  0  0  0  0  0  0
  2  1  1  0
  3  2  1  0
  4  3  2  0
  5  3  1  0
  6  5  2  0
  7  6  1  0
  8  7  2  0
  9  8  1  0
 10  5  1  0
 10  9  2  0
 12 11  1  0
 12  1  1  0
 13 12  2  0
 14 11  1  0
 16 15  1  0
 16 14  1  0
 17 11  1  0
 18 17  1  0
 19 18  1  0
 20  1  1  0
 21 20  1  0
 22 21  1  0
 23 22  2  0
 24 22  1  0
  1 25  1  1
  2 26  1  0
  6 27  1  0
  7 28  1  0
  8 29  1  0
  9 30  1  0
 10 31  1  0
 14 32  1  0
 14 33  1  0
 15 34  1  0
 15 35  1  0
 15 36  1  0
 16 37  1  0
 16 38  1  0
 17 39  1  0
 17 40  1  0
 18 41  1  0
 18 42  1  0
 19 43  1  0
 19 44  1  0
 19 45  1  0
 20 46  1  0
 20 47  1  0
 21 48  1  0
 21 49  1  0
M  CHG  1  24  -1
M  END
>  <score>  (4) 
-8.52

$$$$
=
     RDKit          3D

 49 49  0  0  0  0  0  0  0  0999 V2000
    2.4320   69.0640   67.8830 C   0  0  2  0  0  0  0  0  0  0  0  0
    2.8150   69.1260   66.4660 N   0  0  0  0  0  0  0  0  0  0  0  0
    2.6270   68.0510   65.6260 C   0  0  0  0  0  0  0  0  0  0  0  0
    2.3500   66.9140   65.9920 O   0  0  0  0  0  0  0  0  0  0  0  0
    2.7800   68.3360   64.1770 C   0  0  0  0  0  0  0  0  0  0  0  0
    4.0730   68.4520   63.6530 C   0  0  0  0  0  0  0  0  0  0  0  0
    4.2530   68.7150   62.2950 C   0  0  0  0  0  0  0  0  0  0  0  0
    3.1450   68.8490   61.4560 C   0  0  0  0  0  0  0  0  0  0  0  0
    1.8560   68.7130   61.9740 C   0  0  0  0  0  0  0  0  0  0  0  0
    1.6690   68.4520   63.3330 C   0  0  0  0  0  0  0  0  0  0  0  0
    0.3750   67.7240   68.5960 N   0  0  0  0  0  0  0  0  0  0  0  0
    0.8950   68.8280   67.9130 C   0  0  0  0  0  0  0  0  0  0  0  0
    0.1360   69.6510   67.3750 O   0  0  0  0  0  0  0  0  0  0  0  0
    1.1980   66.6550   69.1830 C   0  0  0  0  0  0  0  0  0  0  0  0
    1.1640   64.5830   70.6620 C   0  0  0  0  0  0  0  0  0  0  0  0
    0.5700   65.9580   70.3950 C   0  0  0  0  0  0  0  0  0  0  0  0
   -1.0580   67.4680   68.4460 C   0  0  0  0  0  0  0  0  0  0  0  0
   -1.4500   67.1390   67.0040 C   0  0  0  0  0  0  0  0  0  0  0  0
   -2.7020   67.8920   66.5850 C   0  0  0  0  0  0  0  0  0  0  0  0
    2.7400   70.4020   68.5710 C   0  0  0  0  0  0  0  0  0  0  0  0
    4.1390   70.4750   69.1770 C   0  0  0  0  0  0  0  0  0  0  0  0
    5.2570   70.8950   68.2220 C   0  0  0  0  0  0  0  0  0  0  0  0
    5.6760   70.0060   67.4290 O   0  0  0  0  0  0  0  0  0  0  0  0
    5.6430   72.0900   68.3630 O   0  0  0  0  0  1  0  0  0  0  0  0
    2.9834   68.2670   68.4033 H   0  0  0  0  0  0  0  0  0  0  0  0
    3.2325   69.9907   66.0934 H   0  0  0  0  0  0  0  0  0  0  0  0
    4.9463   68.3358   64.3117 H   0  0  0  0  0  0  0  0  0  0  0  0
    5.2686   68.8169   61.8848 H   0  0  0  0  0  0  0  0  0  0  0  0
    3.2880   69.0618   60.3863 H   0  0  0  0  0  0  0  0  0  0  0  0
    0.9848   68.8117   61.3097 H   0  0  0  0  0  0  0  0  0  0  0  0
    0.6529   68.3380   63.7387 H   0  0  0  0  0  0  0  0  0  0  0  0
    1.3794   65.8966   68.4072 H   0  0  0  0  0  0  0  0  0  0  0  0
    2.1206   67.1341   69.5427 H   0  0  0  0  0  0  0  0  0  0  0  0
    1.2350   64.4187   71.7473 H   0  0  0  0  0  0  0  0  0  0  0  0
    0.5187   63.8119   70.2158 H   0  0  0  0  0  0  0  0  0  0  0  0
    2.1677   64.5243   70.2158 H   0  0  0  0  0  0  0  0  0  0  0  0
   -0.5092   65.8449   70.2144 H   0  0  0  0  0  0  0  0  0  0  0  0
    0.7747   66.5825   71.2771 H   0  0  0  0  0  0  0  0  0  0  0  0
   -1.3331   66.6184   69.0883 H   0  0  0  0  0  0  0  0  0  0  0  0
   -1.5920   68.3852   68.7350 H   0  0  0  0  0  0  0  0  0  0  0  0
   -0.6229   67.4194   66.3352 H   0  0  0  0  0  0  0  0  0  0  0  0
   -1.6560   66.0605   66.9383 H   0  0  0  0  0  0  0  0  0  0  0  0
   -3.2490   68.2210   67.4808 H   0  0  0  0  0  0  0  0  0  0  0  0
   -2.4186   68.7696   65.9855 H   0  0  0  0  0  0  0  0  0  0  0  0
   -3.3444   67.2303   65.9855 H   0  0  0  0  0  0  0  0  0  0  0  0
    2.6422   71.2056   67.8262 H   0  0  0  0  0  0  0  0  0  0  0  0
    2.0254   70.5078   69.4006 H   0  0  0  0  0  0  0  0  0  0  0  0
    4.1112   71.2001   70.0037 H   0  0  0  0  0  0  0  0  0  0  0  0
    4.3830   69.4490   69.4896 H   0  0  0  0  0  0  0  0  0  0  0  0
  2  1  1  0
  3  2  1  0
  4  3  2  0
  5  3  1  0
  6  5  2  0
  7  6  1  0
  8  7  2  0
  9  8  1  0
 10  5  1  0
 10  9  2  0
 12 11  1  0
 12  1  1  0
 13 12  2  0
 14 11  1  0
 16 15  1  0
 16 14  1  0
 17 11  1  0
 18 17  1  0
 19 18  1  0
 20  1  1  0
 21 20  1  0
 22 21  1  0
 23 22  2  0
 24 22  1  0
  1 25  1  1
  2 26  1  0
  6 27  1  0
  7 28  1  0
  8 29  1  0
  9 30  1  0
 10 31  1  0
 14 32  1  0
 14 33  1  0
 15 34  1  0
 15 35  1  0
 15 36  1  0
 16 37  1  0
 16 38  1  0
 17 39  1  0
 17 40  1  0
 18 41  1  0
 18 42  1  0
 19 43  1  0
 19 44  1  0
 19 45  1  0
 20 46  1  0
 20 47  1  0
 21 48  1  0
 21 49  1  0
M  CHG  1  24  -1
M  END
>  <score>  (5) 
-7.788

$$$$
=
     RDKit          3D

 49 49  0  0  0  0  0  0  0  0999 V2000
    4.8000   69.0780   65.2180 C   0  0  2  0  0  0  0  0  0  0  0  0
    3.3500   69.0800   65.4590 N   0  0  0  0  0  0  0  0  0  0  0  0
    2.6180   67.9150   65.4350 C   0  0  0  0  0  0  0  0  0  0  0  0
    3.0250   66.8390   65.0110 O   0  0  0  0  0  0  0  0  0  0  0  0
    1.2380   68.0140   65.9740 C   0  0  0  0  0  0  0  0  0  0  0  0
    0.9500   67.3790   67.1880 C   0  0  0  0  0  0  0  0  0  0  0  0
   -0.3350   67.4550   67.7260 C   0  0  0  0  0  0  0  0  0  0  0  0
   -1.3290   68.1740   67.0610 C   0  0  0  0  0  0  0  0  0  0  0  0
   -1.0380   68.8250   65.8600 C   0  0  0  0  0  0  0  0  0  0  0  0
    0.2460   68.7500   65.3160 C   0  0  0  0  0  0  0  0  0  0  0  0
    4.9840   70.2530   67.4810 N   0  0  0  0  0  0  0  0  0  0  0  0
    5.4010   70.1700   66.1490 C   0  0  0  0  0  0  0  0  0  0  0  0
    6.2860   70.9270   65.7180 O   0  0  0  0  0  0  0  0  0  0  0  0
    3.8830   69.4610   68.0520 C   0  0  0  0  0  0  0  0  0  0  0  0
    1.6220   70.5650   68.4420 C   0  0  0  0  0  0  0  0  0  0  0  0
    2.9840   70.2260   69.0290 C   0  0  0  0  0  0  0  0  0  0  0  0
    5.4610   71.4010   68.2530 C   0  0  0  0  0  0  0  0  0  0  0  0
    6.9310   71.2720   68.6530 C   0  0  0  0  0  0  0  0  0  0  0  0
    7.0770   70.6450   70.0310 C   0  0  0  0  0  0  0  0  0  0  0  0
    5.0920   69.4570   63.7590 C   0  0  0  0  0  0  0  0  0  0  0  0
    5.4810   68.2700   62.8810 C   0  0  0  0  0  0  0  0  0  0  0  0
    4.3400   67.6200   62.0980 C   0  0  0  0  0  0  0  0  0  0  0  0
    4.3620   66.3600   62.0240 O   0  0  0  0  0  0  0  0  0  0  0  0
    3.5190   68.4380   61.5960 O   0  0  0  0  0  1  0  0  0  0  0  0
    5.2288   68.0843   65.4145 H   0  0  0  0  0  0  0  0  0  0  0  0
    2.8718   69.9721   65.6498 H   0  0  0  0  0  0  0  0  0  0  0  0
    1.7362   66.8206   67.7172 H   0  0  0  0  0  0  0  0  0  0  0  0
   -0.5647   66.9479   68.6748 H   0  0  0  0  0  0  0  0  0  0  0  0
   -2.3433   68.2282   67.4833 H   0  0  0  0  0  0  0  0  0  0  0  0
   -1.8214   69.3976   65.3419 H   0  0  0  0  0  0  0  0  0  0  0  0
    0.4770   69.2677   64.3733 H   0  0  0  0  0  0  0  0  0  0  0  0
    3.2573   69.0970   67.2238 H   0  0  0  0  0  0  0  0  0  0  0  0
    4.3506   68.6501   68.6297 H   0  0  0  0  0  0  0  0  0  0  0  0
    0.9054   70.7434   69.2573 H   0  0  0  0  0  0  0  0  0  0  0  0
    1.7048   71.4699   67.8221 H   0  0  0  0  0  0  0  0  0  0  0  0
    1.2710   69.7268   67.8221 H   0  0  0  0  0  0  0  0  0  0  0  0
    3.4880   71.1627   69.3092 H   0  0  0  0  0  0  0  0  0  0  0  0
    2.8146   69.5749   69.8993 H   0  0  0  0  0  0  0  0  0  0  0  0
    5.3401   72.3093   67.6444 H   0  0  0  0  0  0  0  0  0  0  0  0
    4.8676   71.4497   69.1779 H   0  0  0  0  0  0  0  0  0  0  0  0
    7.4487   70.6408   67.9157 H   0  0  0  0  0  0  0  0  0  0  0  0
    7.3721   72.2793   68.6819 H   0  0  0  0  0  0  0  0  0  0  0  0
    6.8991   71.4090   70.8022 H   0  0  0  0  0  0  0  0  0  0  0  0
    6.3440   69.8326   70.1437 H   0  0  0  0  0  0  0  0  0  0  0  0
    8.0935   70.2400   70.1437 H   0  0  0  0  0  0  0  0  0  0  0  0
    4.1902   69.9220   63.3342 H   0  0  0  0  0  0  0  0  0  0  0  0
    5.9524   70.1423   63.7716 H   0  0  0  0  0  0  0  0  0  0  0  0
    6.2323   68.6177   62.1567 H   0  0  0  0  0  0  0  0  0  0  0  0
    5.8493   67.4961   63.5705 H   0  0  0  0  0  0  0  0  0  0  0  0
  2  1  1  0
  3  2  1  0
  4  3  2  0
  5  3  1  0
  6  5  2  0
  7  6  1  0
  8  7  2  0
  9  8  1  0
 10  5  1  0
 10  9  2  0
 12 11  1  0
 12  1  1  0
 13 12  2  0
 14 11  1  0
 16 15  1  0
 16 14  1  0
 17 11  1  0
 18 17  1  0
 19 18  1  0
 20  1  1  0
 21 20  1  0
 22 21  1  0
 23 22  2  0
 24 22  1  0
  1 25  1  1
  2 26  1  0
  6 27  1  0
  7 28  1  0
  8 29  1  0
  9 30  1  0
 10 31  1  0
 14 32  1  0
 14 33  1  0
 15 34  1  0
 15 35  1  0
 15 36  1  0
 16 37  1  0
 16 38  1  0
 17 39  1  0
 17 40  1  0
 18 41  1  0
 18 42  1  0
 19 43  1  0
 19 44  1  0
 19 45  1  0
 20 46  1  0
 20 47  1  0
 21 48  1  0
 21 49  1  0
M  CHG  1  24  -1
M  END
>  <score>  (6) 
-7.449

$$$$
=
     RDKit          3D

 49 49  0  0  0  0  0  0  0  0999 V2000
    3.0820   69.4800   67.5550 C   0  0  2  0  0  0  0  0  0  0  0  0
    3.1880   69.6200   66.0960 N   0  0  0  0  0  0  0  0  0  0  0  0
    4.3320   69.2550   65.4230 C   0  0  0  0  0  0  0  0  0  0  0  0
    5.4080   69.0030   65.9530 O   0  0  0  0  0  0  0  0  0  0  0  0
    4.2070   69.1710   63.9460 C   0  0  0  0  0  0  0  0  0  0  0  0
    5.3470   69.3990   63.1660 C   0  0  0  0  0  0  0  0  0  0  0  0
    5.2670   69.3240   61.7750 C   0  0  0  0  0  0  0  0  0  0  0  0
    4.0530   69.0090   61.1620 C   0  0  0  0  0  0  0  0  0  0  0  0
    2.9190   68.7620   61.9390 C   0  0  0  0  0  0  0  0  0  0  0  0
    2.9940   68.8380   63.3320 C   0  0  0  0  0  0  0  0  0  0  0  0
    1.0240   67.9740   67.7320 N   0  0  0  0  0  0  0  0  0  0  0  0
    1.5750   69.2520   67.8660 C   0  0  0  0  0  0  0  0  0  0  0  0
    0.8830   70.1950   68.2820 O   0  0  0  0  0  0  0  0  0  0  0  0
    1.7420   66.8220   67.1640 C   0  0  0  0  0  0  0  0  0  0  0  0
    2.6860   65.7660   65.0480 C   0  0  0  0  0  0  0  0  0  0  0  0
    1.6280   66.6840   65.6420 C   0  0  0  0  0  0  0  0  0  0  0  0
   -0.4280   67.8600   67.8770 C   0  0  0  0  0  0  0  0  0  0  0  0
   -1.1440   67.7170   66.5330 C   0  0  0  0  0  0  0  0  0  0  0  0
   -1.6340   69.0620   66.0210 C   0  0  0  0  0  0  0  0  0  0  0  0
    3.5370   70.7760   68.2430 C   0  0  0  0  0  0  0  0  0  0  0  0
    4.8400   70.6310   69.0270 C   0  0  0  0  0  0  0  0  0  0  0  0
    6.0680   71.2950   68.4040 C   0  0  0  0  0  0  0  0  0  0  0  0
    7.1140   70.5900   68.3460 O   0  0  0  0  0  0  0  0  0  0  0  0
    5.8870   72.4910   68.0390 O   0  0  0  0  0  1  0  0  0  0  0  0
    3.7097   68.6518   67.9157 H   0  0  0  0  0  0  0  0  0  0  0  0
    2.3901   69.9989   65.5662 H   0  0  0  0  0  0  0  0  0  0  0  0
    6.3058   69.6373   63.6497 H   0  0  0  0  0  0  0  0  0  0  0  0
    6.1603   69.5130   61.1616 H   0  0  0  0  0  0  0  0  0  0  0  0
    3.9894   68.9552   60.0652 H   0  0  0  0  0  0  0  0  0  0  0  0
    1.9654   68.5072   61.4534 H   0  0  0  0  0  0  0  0  0  0  0  0
    2.1026   68.6368   63.9443 H   0  0  0  0  0  0  0  0  0  0  0  0
    2.8071   66.9217   67.4203 H   0  0  0  0  0  0  0  0  0  0  0  0
    1.2761   65.9228   67.5934 H   0  0  0  0  0  0  0  0  0  0  0  0
    3.2468   65.2794   65.8596 H   0  0  0  0  0  0  0  0  0  0  0  0
    2.1994   64.9991   64.4275 H   0  0  0  0  0  0  0  0  0  0  0  0
    3.3767   66.3558   64.4275 H   0  0  0  0  0  0  0  0  0  0  0  0
    1.7355   67.6813   65.1905 H   0  0  0  0  0  0  0  0  0  0  0  0
    0.6460   66.2388   65.4244 H   0  0  0  0  0  0  0  0  0  0  0  0
   -0.6523   66.9757   68.4915 H   0  0  0  0  0  0  0  0  0  0  0  0
   -0.7892   68.7851   68.3501 H   0  0  0  0  0  0  0  0  0  0  0  0
   -0.4461   67.2872   65.7994 H   0  0  0  0  0  0  0  0  0  0  0  0
   -2.0157   67.0607   66.6726 H   0  0  0  0  0  0  0  0  0  0  0  0
   -1.8717   69.7146   66.8740 H   0  0  0  0  0  0  0  0  0  0  0  0
   -0.8485   69.5297   65.4093 H   0  0  0  0  0  0  0  0  0  0  0  0
   -2.5363   68.9149   65.4093 H   0  0  0  0  0  0  0  0  0  0  0  0
    3.6800   71.5469   67.4714 H   0  0  0  0  0  0  0  0  0  0  0  0
    2.7547   71.0468   68.9674 H   0  0  0  0  0  0  0  0  0  0  0  0
    4.6859   71.0727   70.0226 H   0  0  0  0  0  0  0  0  0  0  0  0
    5.0597   69.5533   69.0452 H   0  0  0  0  0  0  0  0  0  0  0  0
  2  1  1  0
  3  2  1  0
  4  3  2  0
  5  3  1  0
  6  5  2  0
  7  6  1  0
  8  7  2  0
  9  8  1  0
 10  5  1  0
 10  9  2  0
 12 11  1  0
 12  1  1  0
 13 12  2  0
 14 11  1  0
 16 15  1  0
 16 14  1  0
 17 11  1  0
 18 17  1  0
 19 18  1  0
 20  1  1  0
 21 20  1  0
 22 21  1  0
 23 22  2  0
 24 22  1  0
  1 25  1  1
  2 26  1  0
  6 27  1  0
  7 28  1  0
  8 29  1  0
  9 30  1  0
 10 31  1  0
 14 32  1  0
 14 33  1  0
 15 34  1  0
 15 35  1  0
 15 36  1  0
 16 37  1  0
 16 38  1  0
 17 39  1  0
 17 40  1  0
 18 41  1  0
 18 42  1  0
 19 43  1  0
 19 44  1  0
 19 45  1  0
 20 46  1  0
 20 47  1  0
 21 48  1  0
 21 49  1  0
M  CHG  1  24  -1
M  END
>  <score>  (7) 
-7.079

$$$$
=
     RDKit          3D

 49 49  0  0  0  0  0  0  0  0999 V2000
    1.2780   61.5880   72.7520 C   0  0  2  0  0  0  0  0  0  0  0  0
    1.1250   60.2440   73.3260 N   0  0  0  0  0  0  0  0  0  0  0  0
   -0.1170   59.6780   73.5000 C   0  0  0  0  0  0  0  0  0  0  0  0
   -1.1810   60.2790   73.4150 O   0  0  0  0  0  0  0  0  0  0  0  0
   -0.1210   58.2250   73.8100 C   0  0  0  0  0  0  0  0  0  0  0  0
    0.9610   57.4490   73.3790 C   0  0  0  0  0  0  0  0  0  0  0  0
    0.9920   56.0820   73.6570 C   0  0  0  0  0  0  0  0  0  0  0  0
   -0.0480   55.4920   74.3760 C   0  0  0  0  0  0  0  0  0  0  0  0
   -1.1180   56.2690   74.8240 C   0  0  0  0  0  0  0  0  0  0  0  0
   -1.1560   57.6370   74.5470 C   0  0  0  0  0  0  0  0  0  0  0  0
    2.0510   62.3310   70.4310 N   0  0  0  0  0  0  0  0  0  0  0  0
    2.1740   61.4270   71.4900 C   0  0  0  0  0  0  0  0  0  0  0  0
    3.0300   60.5270   71.4540 O   0  0  0  0  0  0  0  0  0  0  0  0
    1.0100   63.3680   70.3490 C   0  0  0  0  0  0  0  0  0  0  0  0
    0.5010   65.8630   70.3250 C   0  0  0  0  0  0  0  0  0  0  0  0
    1.4740   64.7730   70.7510 C   0  0  0  0  0  0  0  0  0  0  0  0
    2.7990   62.0270   69.2110 C   0  0  0  0  0  0  0  0  0  0  0  0
    3.8910   63.0580   68.9180 C   0  0  0  0  0  0  0  0  0  0  0  0
    4.7790   63.2830   70.1310 C   0  0  0  0  0  0  0  0  0  0  0  0
    1.9950   62.5090   73.7510 C   0  0  0  0  0  0  0  0  0  0  0  0
    1.1410   62.8890   74.9590 C   0  0  0  0  0  0  0  0  0  0  0  0
   -0.1700   63.6110   74.6460 C   0  0  0  0  0  0  0  0  0  0  0  0
   -0.0810   64.6350   73.9130 O   0  0  0  0  0  0  0  0  0  0  0  0
   -1.1900   63.0980   75.1860 O   0  0  0  0  0  1  0  0  0  0  0  0
    0.2977   62.0253   72.5119 H   0  0  0  0  0  0  0  0  0  0  0  0
    1.9641   59.7151   73.6036 H   0  0  0  0  0  0  0  0  0  0  0  0
    1.7862   57.9163   72.8216 H   0  0  0  0  0  0  0  0  0  0  0  0
    1.8367   55.4692   73.3092 H   0  0  0  0  0  0  0  0  0  0  0  0
   -0.0249   54.4133   74.5902 H   0  0  0  0  0  0  0  0  0  0  0  0
   -1.9331   55.8023   75.3966 H   0  0  0  0  0  0  0  0  0  0  0  0
   -1.9956   58.2502   74.9063 H   0  0  0  0  0  0  0  0  0  0  0  0
    0.6490   63.4101   69.3108 H   0  0  0  0  0  0  0  0  0  0  0  0
    0.2277   63.0812   71.0672 H   0  0  0  0  0  0  0  0  0  0  0  0
    0.0733   66.3422   71.2180 H   0  0  0  0  0  0  0  0  0  0  0  0
    1.0333   66.6154   69.7245 H   0  0  0  0  0  0  0  0  0  0  0  0
   -0.3068   65.4192   69.7245 H   0  0  0  0  0  0  0  0  0  0  0  0
    2.4485   64.9689   70.2799 H   0  0  0  0  0  0  0  0  0  0  0  0
    1.5373   64.7980   71.8489 H   0  0  0  0  0  0  0  0  0  0  0  0
    3.2686   61.0386   69.3227 H   0  0  0  0  0  0  0  0  0  0  0  0
    2.0888   62.0462   68.3712 H   0  0  0  0  0  0  0  0  0  0  0  0
    4.5097   62.6970   68.0832 H   0  0  0  0  0  0  0  0  0  0  0  0
    3.4074   64.0118   68.6605 H   0  0  0  0  0  0  0  0  0  0  0  0
    4.1910   63.1340   71.0486 H   0  0  0  0  0  0  0  0  0  0  0  0
    5.6149   62.5683   70.1111 H   0  0  0  0  0  0  0  0  0  0  0  0
    5.1737   64.3095   70.1111 H   0  0  0  0  0  0  0  0  0  0  0  0
    2.8974   61.9939   74.1121 H   0  0  0  0  0  0  0  0  0  0  0  0
    2.2290   63.4418   73.2170 H   0  0  0  0  0  0  0  0  0  0  0  0
    0.8959   61.9650   75.5032 H   0  0  0  0  0  0  0  0  0  0  0  0
    1.7443   63.6029   75.5389 H   0  0  0  0  0  0  0  0  0  0  0  0
  2  1  1  0
  3  2  1  0
  4  3  2  0
  5  3  1  0
  6  5  2  0
  7  6  1  0
  8  7  2  0
  9  8  1  0
 10  5  1  0
 10  9  2  0
 12 11  1  0
 12  1  1  0
 13 12  2  0
 14 11  1  0
 16 15  1  0
 16 14  1  0
 17 11  1  0
 18 17  1  0
 19 18  1  0
 20  1  1  0
 21 20  1  0
 22 21  1  0
 23 22  2  0
 24 22  1  0
  1 25  1  6
  2 26  1  0
  6 27  1  0
  7 28  1  0
  8 29  1  0
  9 30  1  0
 10 31  1  0
 14 32  1  0
 14 33  1  0
 15 34  1  0
 15 35  1  0
 15 36  1  0
 16 37  1  0
 16 38  1  0
 17 39  1  0
 17 40  1  0
 18 41  1  0
 18 42  1  0
 19 43  1  0
 19 44  1  0
 19 45  1  0
 20 46  1  0
 20 47  1  0
 21 48  1  0
 21 49  1  0
M  CHG  1  24  -1
M  END
>  <score>  (8) 
-6.761

$$$$
=
     RDKit          3D

 49 49  0  0  0  0  0  0  0  0999 V2000
    3.0770   62.0150   72.2770 C   0  0  2  0  0  0  0  0  0  0  0  0
    2.4760   60.6790   72.4050 N   0  0  0  0  0  0  0  0  0  0  0  0
    2.2860   60.0960   73.6380 C   0  0  0  0  0  0  0  0  0  0  0  0
    2.7730   60.4970   74.6880 O   0  0  0  0  0  0  0  0  0  0  0  0
    1.4160   58.8920   73.6480 C   0  0  0  0  0  0  0  0  0  0  0  0
    0.0810   59.0380   74.0420 C   0  0  0  0  0  0  0  0  0  0  0  0
   -0.7660   57.9290   74.0600 C   0  0  0  0  0  0  0  0  0  0  0  0
   -0.2850   56.6780   73.6720 C   0  0  0  0  0  0  0  0  0  0  0  0
    1.0410   56.5340   73.2600 C   0  0  0  0  0  0  0  0  0  0  0  0
    1.8930   57.6400   73.2420 C   0  0  0  0  0  0  0  0  0  0  0  0
    1.1870   63.6530   71.7480 N   0  0  0  0  0  0  0  0  0  0  0  0
    2.1880   62.8010   71.2720 C   0  0  0  0  0  0  0  0  0  0  0  0
    2.4080   62.7070   70.0520 O   0  0  0  0  0  0  0  0  0  0  0  0
    0.7990   63.7580   73.1630 C   0  0  0  0  0  0  0  0  0  0  0  0
   -0.3030   62.5530   75.1160 C   0  0  0  0  0  0  0  0  0  0  0  0
   -0.2730   62.7580   73.6090 C   0  0  0  0  0  0  0  0  0  0  0  0
    0.2820   64.2310   70.7550 C   0  0  0  0  0  0  0  0  0  0  0  0
    0.2290   65.7590   70.8250 C   0  0  0  0  0  0  0  0  0  0  0  0
    1.2190   66.3910   69.8600 C   0  0  0  0  0  0  0  0  0  0  0  0
    4.4950   61.9010   71.6980 C   0  0  0  0  0  0  0  0  0  0  0  0
    4.9410   60.4630   71.4430 C   0  0  0  0  0  0  0  0  0  0  0  0
    4.3540   59.7950   70.2000 C   0  0  0  0  0  0  0  0  0  0  0  0
    3.7720   58.6900   70.3820 O   0  0  0  0  0  0  0  0  0  0  0  0
    4.5470   60.4310   69.1250 O   0  0  0  0  0  1  0  0  0  0  0  0
    3.1367   62.5139   73.2556 H   0  0  0  0  0  0  0  0  0  0  0  0
    2.1917   60.1695   71.5562 H   0  0  0  0  0  0  0  0  0  0  0  0
   -0.3005   60.0265   74.3374 H   0  0  0  0  0  0  0  0  0  0  0  0
   -1.8125   58.0411   74.3800 H   0  0  0  0  0  0  0  0  0  0  0  0
   -0.9520   55.8035   73.6908 H   0  0  0  0  0  0  0  0  0  0  0  0
    1.4153   55.5475   72.9490 H   0  0  0  0  0  0  0  0  0  0  0  0
    2.9357   57.5280   72.9099 H   0  0  0  0  0  0  0  0  0  0  0  0
    1.6967   63.5947   73.7774 H   0  0  0  0  0  0  0  0  0  0  0  0
    0.3625   64.7594   73.2919 H   0  0  0  0  0  0  0  0  0  0  0  0
   -0.1615   63.5202   75.6205 H   0  0  0  0  0  0  0  0  0  0  0  0
   -1.2733   62.1253   75.4086 H   0  0  0  0  0  0  0  0  0  0  0  0
    0.5041   61.8652   75.4086 H   0  0  0  0  0  0  0  0  0  0  0  0
   -0.0716   61.7898   73.1273 H   0  0  0  0  0  0  0  0  0  0  0  0
   -1.2498   63.1681   73.3128 H   0  0  0  0  0  0  0  0  0  0  0  0
    0.6247   63.9360   69.7522 H   0  0  0  0  0  0  0  0  0  0  0  0
   -0.7291   63.8528   70.9660 H   0  0  0  0  0  0  0  0  0  0  0  0
   -0.7864   66.0945   70.5673 H   0  0  0  0  0  0  0  0  0  0  0  0
    0.4939   66.0691   71.8466 H   0  0  0  0  0  0  0  0  0  0  0  0
    2.0127   66.8977   70.4286 H   0  0  0  0  0  0  0  0  0  0  0  0
    1.6636   65.6093   69.2266 H   0  0  0  0  0  0  0  0  0  0  0  0
    0.6971   67.1234   69.2266 H   0  0  0  0  0  0  0  0  0  0  0  0
    4.5255   62.4482   70.7443 H   0  0  0  0  0  0  0  0  0  0  0  0
    5.1823   62.3224   72.4464 H   0  0  0  0  0  0  0  0  0  0  0  0
    6.0363   60.4624   71.3410 H   0  0  0  0  0  0  0  0  0  0  0  0
    4.5710   59.8793   72.2988 H   0  0  0  0  0  0  0  0  0  0  0  0
  2  1  1  0
  3  2  1  0
  4  3  2  0
  5  3  1  0
  6  5  2  0
  7  6  1  0
  8  7  2  0
  9  8  1  0
 10  5  1  0
 10  9  2  0
 12 11  1  0
 12  1  1  0
 13 12  2  0
 14 11  1  0
 16 15  1  0
 16 14  1  0
 17 11  1  0
 18 17  1  0
 19 18  1  0
 20  1  1  0
 21 20  1  0
 22 21  1  0
 23 22  2  0
 24 22  1  0
  1 25  1  1
  2 26  1  0
  6 27  1  0
  7 28  1  0
  8 29  1  0
  9 30  1  0
 10 31  1  0
 14 32  1  0
 14 33  1  0
 15 34  1  0
 15 35  1  0
 15 36  1  0
 16 37  1  0
 16 38  1  0
 17 39  1  0
 17 40  1  0
 18 41  1  0
 18 42  1  0
 19 43  1  0
 19 44  1  0
 19 45  1  0
 20 46  1  0
 20 47  1  0
 21 48  1  0
 21 49  1  0
M  CHG  1  24  -1
M  END
>  <score>  (9) 
-6.594

$$$$
