=
     RDKit          3D

 63 67  0  0  0  0  0  0  0  0999 V2000
    0.1490   65.4270   70.3340 C   0  0  0  0  0  0  0  0  0  0  0  0
   -0.1200   65.8420   71.6420 C   0  0  0  0  0  0  0  0  0  0  0  0
    0.0640   64.9540   72.7060 C   0  0  0  0  0  0  0  0  0  0  0  0
    0.5310   63.6550   72.4840 C   0  0  0  0  0  0  0  0  0  0  0  0
    0.8080   63.2440   71.1800 C   0  0  0  0  0  0  0  0  0  0  0  0
    0.6240   64.1290   70.1110 C   0  0  0  0  0  0  0  0  0  0  0  0
   -1.0020   66.2020   68.4260 O   0  0  0  0  0  0  0  0  0  0  0  0
   -0.0290   66.3300   69.1620 C   0  0  0  0  0  0  0  0  0  0  0  0
    0.9270   67.3090   68.9920 N   0  0  0  0  0  0  0  0  0  0  0  0
    0.7490   68.3560   68.0010 C   0  0  0  0  0  0  0  0  0  0  0  0
    1.6420   69.5720   68.2600 C   0  0  0  0  0  0  0  0  0  0  0  0
    2.9010   69.5730   67.4450 C   0  0  0  0  0  0  0  0  0  0  0  0
    3.0300   69.1350   66.1400 C   0  0  0  0  0  0  0  0  0  0  0  0
    4.3320   69.3040   65.7550 N   0  0  0  0  0  0  0  0  0  0  0  0
    5.0670   69.8410   66.7860 C   0  0  0  0  0  0  0  0  0  0  0  0
    4.1950   70.0280   67.8590 C   0  0  0  0  0  0  0  0  0  0  0  0
    4.7070   70.5810   69.0500 C   0  0  0  0  0  0  0  0  0  0  0  0
    6.0630   70.9210   69.1270 C   0  0  0  0  0  0  0  0  0  0  0  0
    6.9080   70.7200   68.0390 C   0  0  0  0  0  0  0  0  0  0  0  0
    6.4250   70.1760   66.8450 C   0  0  0  0  0  0  0  0  0  0  0  0
    0.6530   62.8970   73.6140 O   0  0  0  0  0  0  0  0  0  0  0  0
    1.0970   61.5430   73.4870 C   0  0  0  0  0  0  0  0  0  0  0  0
    2.4070   61.3480   74.2500 C   0  0  0  0  0  0  0  0  0  0  0  0
    3.0390   59.9640   74.0820 C   0  0  0  0  0  0  0  0  0  0  0  0
    4.2610   59.9110   73.1600 C   0  0  0  0  0  0  0  0  0  0  0  0
    3.9650   60.0440   71.7450 N   0  0  0  0  0  0  0  0  0  0  0  0
    3.5850   58.9940   70.9460 C   0  0  0  0  0  0  0  0  0  0  0  0
    3.4130   59.4720   69.6690 C   0  0  0  0  0  0  0  0  0  0  0  0
    3.7180   60.8590   69.6830 C   0  0  0  0  0  0  0  0  0  0  0  0
    4.0730   61.1970   70.9940 C   0  0  0  0  0  0  0  0  0  0  0  0
    4.4350   62.5090   71.3440 C   0  0  0  0  0  0  0  0  0  0  0  0
    4.4360   63.4840   70.3420 C   0  0  0  0  0  0  0  0  0  0  0  0
    4.0870   63.1680   69.0330 C   0  0  0  0  0  0  0  0  0  0  0  0
    3.7270   61.8610   68.6910 C   0  0  0  0  0  0  0  0  0  0  0  0
   -0.4757   66.8652   71.8334 H   0  0  0  0  0  0  0  0  0  0  0  0
   -0.1617   65.2817   73.7315 H   0  0  0  0  0  0  0  0  0  0  0  0
    1.1715   62.2231   70.9915 H   0  0  0  0  0  0  0  0  0  0  0  0
    0.8547   63.8016   69.0865 H   0  0  0  0  0  0  0  0  0  0  0  0
    1.7767   67.2978   69.5741 H   0  0  0  0  0  0  0  0  0  0  0  0
    0.9908   67.9466   67.0091 H   0  0  0  0  0  0  0  0  0  0  0  0
   -0.2965   68.6932   68.0578 H   0  0  0  0  0  0  0  0  0  0  0  0
    1.0709   70.4810   68.0200 H   0  0  0  0  0  0  0  0  0  0  0  0
    1.9410   69.5349   69.3179 H   0  0  0  0  0  0  0  0  0  0  0  0
    2.2232   68.7211   65.5173 H   0  0  0  0  0  0  0  0  0  0  0  0
    4.7077   69.0636   64.8266 H   0  0  0  0  0  0  0  0  0  0  0  0
    4.0455   70.7444   69.9135 H   0  0  0  0  0  0  0  0  0  0  0  0
    6.4647   71.3512   70.0563 H   0  0  0  0  0  0  0  0  0  0  0  0
    7.9705   70.9930   68.1198 H   0  0  0  0  0  0  0  0  0  0  0  0
    7.0887   70.0168   65.9823 H   0  0  0  0  0  0  0  0  0  0  0  0
    0.3318   60.8687   73.8990 H   0  0  0  0  0  0  0  0  0  0  0  0
    1.2616   61.3155   72.4234 H   0  0  0  0  0  0  0  0  0  0  0  0
    3.1269   62.1000   73.8946 H   0  0  0  0  0  0  0  0  0  0  0  0
    2.1661   61.4545   75.3180 H   0  0  0  0  0  0  0  0  0  0  0  0
    3.3474   59.6081   75.0761 H   0  0  0  0  0  0  0  0  0  0  0  0
    2.2719   59.3344   73.6075 H   0  0  0  0  0  0  0  0  0  0  0  0
    4.9401   60.7279   73.4453 H   0  0  0  0  0  0  0  0  0  0  0  0
    4.7028   58.9121   73.2903 H   0  0  0  0  0  0  0  0  0  0  0  0
    3.4431   57.9527   71.2710 H   0  0  0  0  0  0  0  0  0  0  0  0
    3.0962   58.8859   68.7937 H   0  0  0  0  0  0  0  0  0  0  0  0
    4.7102   62.7620   72.3785 H   0  0  0  0  0  0  0  0  0  0  0  0
    4.7172   64.5175   70.5927 H   0  0  0  0  0  0  0  0  0  0  0  0
    4.0943   63.9520   68.2615 H   0  0  0  0  0  0  0  0  0  0  0  0
    3.4525   61.6159   67.6544 H   0  0  0  0  0  0  0  0  0  0  0  0
  2  1  2  0
  3  2  1  0
  4  3  2  0
  5  4  1  0
  6  5  2  0
  6  1  1  0
  8  7  2  0
  8  1  1  0
  9  8  1  0
 10  9  1  0
 11 10  1  0
 12 11  1  0
 13 12  2  0
 14 13  1  0
 15 14  1  0
 16 15  2  0
 16 12  1  0
 17 16  1  0
 18 17  2  0
 19 18  1  0
 20 15  1  0
 20 19  2  0
 21  4  1  0
 22 21  1  0
 23 22  1  0
 24 23  1  0
 25 24  1  0
 26 25  1  0
 27 26  1  0
 28 27  2  0
 29 28  1  0
 30 29  2  0
 30 26  1  0
 31 30  1  0
 32 31  2  0
 33 32  1  0
 34 33  2  0
 34 29  1  0
  2 35  1  0
  3 36  1  0
  5 37  1  0
  6 38  1  0
  9 39  1  0
 10 40  1  0
 10 41  1  0
 11 42  1  0
 11 43  1  0
 13 44  1  0
 14 45  1  0
 17 46  1  0
 18 47  1  0
 19 48  1  0
 20 49  1  0
 22 50  1  0
 22 51  1  0
 23 52  1  0
 23 53  1  0
 24 54  1  0
 24 55  1  0
 25 56  1  0
 25 57  1  0
 27 58  1  0
 28 59  1  0
 31 60  1  0
 32 61  1  0
 33 62  1  0
 34 63  1  0
M  END
>  <score>  (1) 
-11.257

$$$$
=
     RDKit          3D

 63 67  0  0  0  0  0  0  0  0999 V2000
    0.8960   62.5920   72.2550 C   0  0  0  0  0  0  0  0  0  0  0  0
    1.0980   62.7950   70.8870 C   0  0  0  0  0  0  0  0  0  0  0  0
    0.8040   64.0370   70.3160 C   0  0  0  0  0  0  0  0  0  0  0  0
    0.3210   65.0900   71.0990 C   0  0  0  0  0  0  0  0  0  0  0  0
    0.1270   64.8900   72.4660 C   0  0  0  0  0  0  0  0  0  0  0  0
    0.4190   63.6480   73.0420 C   0  0  0  0  0  0  0  0  0  0  0  0
    0.3840   60.3700   72.8600 O   0  0  0  0  0  0  0  0  0  0  0  0
    1.1920   61.2910   72.9180 C   0  0  0  0  0  0  0  0  0  0  0  0
    2.4150   61.1900   73.5490 N   0  0  0  0  0  0  0  0  0  0  0  0
    2.8830   59.9120   74.0580 C   0  0  0  0  0  0  0  0  0  0  0  0
    3.9960   59.3060   73.1990 C   0  0  0  0  0  0  0  0  0  0  0  0
    3.8530   59.6110   71.7370 C   0  0  0  0  0  0  0  0  0  0  0  0
    3.4160   58.7370   70.7600 C   0  0  0  0  0  0  0  0  0  0  0  0
    3.4240   59.3940   69.5590 N   0  0  0  0  0  0  0  0  0  0  0  0
    3.8660   60.6850   69.7260 C   0  0  0  0  0  0  0  0  0  0  0  0
    4.1360   60.8550   71.0850 C   0  0  0  0  0  0  0  0  0  0  0  0
    4.6010   62.1110   71.5240 C   0  0  0  0  0  0  0  0  0  0  0  0
    4.7800   63.1440   70.5960 C   0  0  0  0  0  0  0  0  0  0  0  0
    4.5030   62.9420   69.2470 C   0  0  0  0  0  0  0  0  0  0  0  0
    4.0380   61.7070   68.7860 C   0  0  0  0  0  0  0  0  0  0  0  0
    0.0670   66.2400   70.4050 O   0  0  0  0  0  0  0  0  0  0  0  0
    1.1270   66.8310   69.6470 C   0  0  0  0  0  0  0  0  0  0  0  0
    0.5520   67.5980   68.4560 C   0  0  0  0  0  0  0  0  0  0  0  0
    1.4750   67.6600   67.2370 C   0  0  0  0  0  0  0  0  0  0  0  0
    1.7370   69.0660   66.6870 C   0  0  0  0  0  0  0  0  0  0  0  0
    3.1290   69.3590   66.3970 N   0  0  0  0  0  0  0  0  0  0  0  0
    3.7210   69.1120   65.1830 C   0  0  0  0  0  0  0  0  0  0  0  0
    5.0410   69.4840   65.2710 C   0  0  0  0  0  0  0  0  0  0  0  0
    5.2700   69.9570   66.5910 C   0  0  0  0  0  0  0  0  0  0  0  0
    4.0590   69.8600   67.2860 C   0  0  0  0  0  0  0  0  0  0  0  0
    3.9490   70.2510   68.6320 C   0  0  0  0  0  0  0  0  0  0  0  0
    5.0900   70.7450   69.2720 C   0  0  0  0  0  0  0  0  0  0  0  0
    6.3030   70.8480   68.5980 C   0  0  0  0  0  0  0  0  0  0  0  0
    6.4050   70.4580   67.2590 C   0  0  0  0  0  0  0  0  0  0  0  0
    1.4876   61.9790   70.2606 H   0  0  0  0  0  0  0  0  0  0  0  0
    0.9546   64.1877   69.2368 H   0  0  0  0  0  0  0  0  0  0  0  0
   -0.2559   65.7094   73.0921 H   0  0  0  0  0  0  0  0  0  0  0  0
    0.2726   63.5000   74.1221 H   0  0  0  0  0  0  0  0  0  0  0  0
    3.0021   62.0290   73.6603 H   0  0  0  0  0  0  0  0  0  0  0  0
    3.2664   60.0587   75.0785 H   0  0  0  0  0  0  0  0  0  0  0  0
    2.0321   59.2151   74.0395 H   0  0  0  0  0  0  0  0  0  0  0  0
    4.9606   59.7051   73.5458 H   0  0  0  0  0  0  0  0  0  0  0  0
    3.9340   58.2134   73.3105 H   0  0  0  0  0  0  0  0  0  0  0  0
    3.1133   57.6916   70.9200 H   0  0  0  0  0  0  0  0  0  0  0  0
    3.1397   58.9805   68.6595 H   0  0  0  0  0  0  0  0  0  0  0  0
    4.8218   62.2785   72.5885 H   0  0  0  0  0  0  0  0  0  0  0  0
    5.1431   64.1249   70.9364 H   0  0  0  0  0  0  0  0  0  0  0  0
    4.6521   63.7659   68.5336 H   0  0  0  0  0  0  0  0  0  0  0  0
    3.8150   61.5443   67.7212 H   0  0  0  0  0  0  0  0  0  0  0  0
    1.6915   67.5237   70.2885 H   0  0  0  0  0  0  0  0  0  0  0  0
    1.7937   66.0376   69.2783 H   0  0  0  0  0  0  0  0  0  0  0  0
   -0.3857   67.1093   68.1527 H   0  0  0  0  0  0  0  0  0  0  0  0
    0.4067   68.6353   68.7920 H   0  0  0  0  0  0  0  0  0  0  0  0
    2.4425   67.2198   67.5201 H   0  0  0  0  0  0  0  0  0  0  0  0
    0.9593   67.1103   66.4358 H   0  0  0  0  0  0  0  0  0  0  0  0
    1.1623   69.1814   65.7562 H   0  0  0  0  0  0  0  0  0  0  0  0
    1.4318   69.7682   67.4768 H   0  0  0  0  0  0  0  0  0  0  0  0
    3.2257   68.6904   64.2959 H   0  0  0  0  0  0  0  0  0  0  0  0
    5.7865   69.4260   64.4642 H   0  0  0  0  0  0  0  0  0  0  0  0
    2.9913   70.1705   69.1672 H   0  0  0  0  0  0  0  0  0  0  0  0
    5.0276   71.0571   70.3249 H   0  0  0  0  0  0  0  0  0  0  0  0
    7.1877   71.2389   69.1220 H   0  0  0  0  0  0  0  0  0  0  0  0
    7.3659   70.5419   66.7302 H   0  0  0  0  0  0  0  0  0  0  0  0
  2  1  2  0
  3  2  1  0
  4  3  2  0
  5  4  1  0
  6  5  2  0
  6  1  1  0
  8  7  2  0
  8  1  1  0
  9  8  1  0
 10  9  1  0
 11 10  1  0
 12 11  1  0
 13 12  2  0
 14 13  1  0
 15 14  1  0
 16 15  2  0
 16 12  1  0
 17 16  1  0
 18 17  2  0
 19 18  1  0
 20 15  1  0
 20 19  2  0
 21  4  1  0
 22 21  1  0
 23 22  1  0
 24 23  1  0
 25 24  1  0
 26 25  1  0
 27 26  1  0
 28 27  2  0
 29 28  1  0
 30 29  2  0
 30 26  1  0
 31 30  1  0
 32 31  2  0
 33 32  1  0
 34 33  2  0
 34 29  1  0
  2 35  1  0
  3 36  1  0
  5 37  1  0
  6 38  1  0
  9 39  1  0
 10 40  1  0
 10 41  1  0
 11 42  1  0
 11 43  1  0
 13 44  1  0
 14 45  1  0
 17 46  1  0
 18 47  1  0
 19 48  1  0
 20 49  1  0
 22 50  1  0
 22 51  1  0
 23 52  1  0
 23 53  1  0
 24 54  1  0
 24 55  1  0
 25 56  1  0
 25 57  1  0
 27 58  1  0
 28 59  1  0
 31 60  1  0
 32 61  1  0
 33 62  1  0
 34 63  1  0
M  END
>  <score>  (2) 
-11.034

$$$$
=
     RDKit          3D

 63 67  0  0  0  0  0  0  0  0999 V2000
    0.2720   65.6300   70.3120 C   0  0  0  0  0  0  0  0  0  0  0  0
   -0.1040   65.9890   71.6100 C   0  0  0  0  0  0  0  0  0  0  0  0
    0.0290   65.0670   72.6530 C   0  0  0  0  0  0  0  0  0  0  0  0
    0.5490   63.7910   72.4210 C   0  0  0  0  0  0  0  0  0  0  0  0
    0.9330   63.4370   71.1270 C   0  0  0  0  0  0  0  0  0  0  0  0
    0.8000   64.3550   70.0790 C   0  0  0  0  0  0  0  0  0  0  0  0
   -0.7620   66.4460   68.3550 O   0  0  0  0  0  0  0  0  0  0  0  0
    0.1520   66.5700   69.1620 C   0  0  0  0  0  0  0  0  0  0  0  0
    1.0920   67.5780   69.0950 N   0  0  0  0  0  0  0  0  0  0  0  0
    0.9560   68.6560   68.1300 C   0  0  0  0  0  0  0  0  0  0  0  0
    2.2680   68.9680   67.4060 C   0  0  0  0  0  0  0  0  0  0  0  0
    2.2050   68.7250   65.9260 C   0  0  0  0  0  0  0  0  0  0  0  0
    1.1150   68.2510   65.2220 C   0  0  0  0  0  0  0  0  0  0  0  0
    1.4560   68.1730   63.8990 N   0  0  0  0  0  0  0  0  0  0  0  0
    2.7570   68.5830   63.7190 C   0  0  0  0  0  0  0  0  0  0  0  0
    3.2520   68.9430   64.9730 C   0  0  0  0  0  0  0  0  0  0  0  0
    4.5780   69.4130   65.0610 C   0  0  0  0  0  0  0  0  0  0  0  0
    5.3570   69.5010   63.9010 C   0  0  0  0  0  0  0  0  0  0  0  0
    4.8350   69.1310   62.6650 C   0  0  0  0  0  0  0  0  0  0  0  0
    3.5210   68.6650   62.5500 C   0  0  0  0  0  0  0  0  0  0  0  0
    0.6120   62.9950   73.5300 O   0  0  0  0  0  0  0  0  0  0  0  0
    1.0970   61.6570   73.3880 C   0  0  0  0  0  0  0  0  0  0  0  0
    2.3590   61.4660   74.2290 C   0  0  0  0  0  0  0  0  0  0  0  0
    2.9780   60.0700   74.1360 C   0  0  0  0  0  0  0  0  0  0  0  0
    4.2100   59.9590   73.2320 C   0  0  0  0  0  0  0  0  0  0  0  0
    3.9360   60.0640   71.8110 N   0  0  0  0  0  0  0  0  0  0  0  0
    3.5590   59.0000   71.0290 C   0  0  0  0  0  0  0  0  0  0  0  0
    3.4100   59.4530   69.7390 C   0  0  0  0  0  0  0  0  0  0  0  0
    3.7270   60.8380   69.7280 C   0  0  0  0  0  0  0  0  0  0  0  0
    4.0640   61.2000   71.0370 C   0  0  0  0  0  0  0  0  0  0  0  0
    4.4330   62.5170   71.3640 C   0  0  0  0  0  0  0  0  0  0  0  0
    4.4560   63.4700   70.3420 C   0  0  0  0  0  0  0  0  0  0  0  0
    4.1240   63.1280   69.0350 C   0  0  0  0  0  0  0  0  0  0  0  0
    3.7580   61.8170   68.7160 C   0  0  0  0  0  0  0  0  0  0  0  0
   -0.5034   66.9942   71.8102 H   0  0  0  0  0  0  0  0  0  0  0  0
   -0.2800   65.3502   73.6700 H   0  0  0  0  0  0  0  0  0  0  0  0
    1.3410   62.4346   70.9303 H   0  0  0  0  0  0  0  0  0  0  0  0
    1.1132   64.0719   69.0632 H   0  0  0  0  0  0  0  0  0  0  0  0
    1.8984   67.5662   69.7356 H   0  0  0  0  0  0  0  0  0  0  0  0
    0.2018   68.3671   67.3832 H   0  0  0  0  0  0  0  0  0  0  0  0
    0.6567   69.5599   68.6808 H   0  0  0  0  0  0  0  0  0  0  0  0
    2.5165   70.0261   67.5753 H   0  0  0  0  0  0  0  0  0  0  0  0
    3.0328   68.2907   67.8139 H   0  0  0  0  0  0  0  0  0  0  0  0
    0.1388   67.9820   65.6518 H   0  0  0  0  0  0  0  0  0  0  0  0
    0.8293   67.8535   63.1466 H   0  0  0  0  0  0  0  0  0  0  0  0
    4.9977   69.7085   66.0339 H   0  0  0  0  0  0  0  0  0  0  0  0
    6.3924   69.8664   63.9672 H   0  0  0  0  0  0  0  0  0  0  0  0
    5.4644   69.2060   61.7660 H   0  0  0  0  0  0  0  0  0  0  0  0
    3.1034   68.3734   61.5750 H   0  0  0  0  0  0  0  0  0  0  0  0
    0.3237   60.9515   73.7262 H   0  0  0  0  0  0  0  0  0  0  0  0
    1.3361   61.4701   72.3307 H   0  0  0  0  0  0  0  0  0  0  0  0
    3.1091   62.1975   73.8940 H   0  0  0  0  0  0  0  0  0  0  0  0
    2.0600   61.6064   75.2782 H   0  0  0  0  0  0  0  0  0  0  0  0
    3.2714   59.7601   75.1499 H   0  0  0  0  0  0  0  0  0  0  0  0
    2.2096   59.4261   73.6834 H   0  0  0  0  0  0  0  0  0  0  0  0
    4.9084   60.7635   73.5058 H   0  0  0  0  0  0  0  0  0  0  0  0
    4.6216   58.9518   73.3934 H   0  0  0  0  0  0  0  0  0  0  0  0
    3.4035   57.9670   71.3737 H   0  0  0  0  0  0  0  0  0  0  0  0
    3.1009   58.8512   68.8716 H   0  0  0  0  0  0  0  0  0  0  0  0
    4.6965   62.7898   72.3965 H   0  0  0  0  0  0  0  0  0  0  0  0
    4.7410   64.5066   70.5747 H   0  0  0  0  0  0  0  0  0  0  0  0
    4.1497   63.8948   68.2467 H   0  0  0  0  0  0  0  0  0  0  0  0
    3.4959   61.5518   67.6811 H   0  0  0  0  0  0  0  0  0  0  0  0
  2  1  2  0
  3  2  1  0
  4  3  2  0
  5  4  1  0
  6  5  2  0
  6  1  1  0
  8  7  2  0
  8  1  1  0
  9  8  1  0
 10  9  1  0
 11 10  1  0
 12 11  1  0
 13 12  2  0
 14 13  1  0
 15 14  1  0
 16 15  2  0
 16 12  1  0
 17 16  1  0
 18 17  2  0
 19 18  1  0
 20 15  1  0
 20 19  2  0
 21  4  1  0
 22 21  1  0
 23 22  1  0
 24 23  1  0
 25 24  1  0
 26 25  1  0
 27 26  1  0
 28 27  2  0
 29 28  1  0
 30 29  2  0
 30 26  1  0
 31 30  1  0
 32 31  2  0
 33 32  1  0
 34 33  2  0
 34 29  1  0
  2 35  1  0
  3 36  1  0
  5 37  1  0
  6 38  1  0
  9 39  1  0
 10 40  1  0
 10 41  1  0
 11 42  1  0
 11 43  1  0
 13 44  1  0
 14 45  1  0
 17 46  1  0
 18 47  1  0
 19 48  1  0
 20 49  1  0
 22 50  1  0
 22 51  1  0
 23 52  1  0
 23 53  1  0
 24 54  1  0
 24 55  1  0
 25 56  1  0
 25 57  1  0
 27 58  1  0
 28 59  1  0
 31 60  1  0
 32 61  1  0
 33 62  1  0
 34 63  1  0
M  END
>  <score>  (3) 
-10.755

$$$$
=
     RDKit          3D

 63 67  0  0  0  0  0  0  0  0999 V2000
    0.7360   63.0730   71.8790 C   0  0  0  0  0  0  0  0  0  0  0  0
    0.2400   61.7670   71.9120 C   0  0  0  0  0  0  0  0  0  0  0  0
    0.6390   60.8960   72.9310 C   0  0  0  0  0  0  0  0  0  0  0  0
    1.5200   61.3180   73.9310 C   0  0  0  0  0  0  0  0  0  0  0  0
    2.0090   62.6240   73.9020 C   0  0  0  0  0  0  0  0  0  0  0  0
    1.6130   63.5000   72.8840 C   0  0  0  0  0  0  0  0  0  0  0  0
   -0.1990   63.6520   69.7910 O   0  0  0  0  0  0  0  0  0  0  0  0
    0.3460   64.0450   70.8170 C   0  0  0  0  0  0  0  0  0  0  0  0
    0.6010   65.3740   71.0820 N   0  0  0  0  0  0  0  0  0  0  0  0
    0.0910   66.4150   70.2060 C   0  0  0  0  0  0  0  0  0  0  0  0
    1.1430   66.9180   69.2130 C   0  0  0  0  0  0  0  0  0  0  0  0
    0.5700   67.3060   67.8820 C   0  0  0  0  0  0  0  0  0  0  0  0
   -0.7500   67.1810   67.4930 C   0  0  0  0  0  0  0  0  0  0  0  0
   -0.8690   67.6480   66.2120 N   0  0  0  0  0  0  0  0  0  0  0  0
    0.3530   68.0740   65.7460 C   0  0  0  0  0  0  0  0  0  0  0  0
    1.2760   67.8790   66.7750 C   0  0  0  0  0  0  0  0  0  0  0  0
    2.6180   68.2480   66.5510 C   0  0  0  0  0  0  0  0  0  0  0  0
    2.9870   68.7920   65.3140 C   0  0  0  0  0  0  0  0  0  0  0  0
    2.0430   68.9720   64.3080 C   0  0  0  0  0  0  0  0  0  0  0  0
    0.7050   68.6160   64.5050 C   0  0  0  0  0  0  0  0  0  0  0  0
    1.8300   60.3580   74.8530 O   0  0  0  0  0  0  0  0  0  0  0  0
    1.5110   58.9950   74.5580 C   0  0  0  0  0  0  0  0  0  0  0  0
    2.6610   58.3450   73.7890 C   0  0  0  0  0  0  0  0  0  0  0  0
    2.3880   58.1370   72.2980 C   0  0  0  0  0  0  0  0  0  0  0  0
    3.5550   58.4780   71.3660 C   0  0  0  0  0  0  0  0  0  0  0  0
    4.0630   59.8310   71.4930 N   0  0  0  0  0  0  0  0  0  0  0  0
    4.8610   60.2490   72.5300 C   0  0  0  0  0  0  0  0  0  0  0  0
    5.1320   61.5840   72.3470 C   0  0  0  0  0  0  0  0  0  0  0  0
    4.4600   62.0030   71.1670 C   0  0  0  0  0  0  0  0  0  0  0  0
    3.7860   60.8900   70.6520 C   0  0  0  0  0  0  0  0  0  0  0  0
    3.0170   60.9730   69.4780 C   0  0  0  0  0  0  0  0  0  0  0  0
    2.9370   62.2080   68.8270 C   0  0  0  0  0  0  0  0  0  0  0  0
    3.5990   63.3250   69.3240 C   0  0  0  0  0  0  0  0  0  0  0  0
    4.3620   63.2360   70.4920 C   0  0  0  0  0  0  0  0  0  0  0  0
   -0.4628   61.4247   71.1381 H   0  0  0  0  0  0  0  0  0  0  0  0
    0.2546   59.8655   72.9457 H   0  0  0  0  0  0  0  0  0  0  0  0
    2.7070   62.9663   74.6802 H   0  0  0  0  0  0  0  0  0  0  0  0
    1.9938   64.5319   72.8735 H   0  0  0  0  0  0  0  0  0  0  0  0
    1.1585   65.6313   71.9090 H   0  0  0  0  0  0  0  0  0  0  0  0
   -0.7627   66.0127   69.6409 H   0  0  0  0  0  0  0  0  0  0  0  0
   -0.2045   67.2660   70.8373 H   0  0  0  0  0  0  0  0  0  0  0  0
    1.6404   67.7974   69.6480 H   0  0  0  0  0  0  0  0  0  0  0  0
    1.8436   66.0889   69.0351 H   0  0  0  0  0  0  0  0  0  0  0  0
   -1.5665   66.7751   68.1083 H   0  0  0  0  0  0  0  0  0  0  0  0
   -1.7471   67.6764   65.6744 H   0  0  0  0  0  0  0  0  0  0  0  0
    3.3700   68.1097   67.3419 H   0  0  0  0  0  0  0  0  0  0  0  0
    4.0337   69.0798   65.1362 H   0  0  0  0  0  0  0  0  0  0  0  0
    2.3535   69.4005   63.3437 H   0  0  0  0  0  0  0  0  0  0  0  0
   -0.0444   68.7571   63.7122 H   0  0  0  0  0  0  0  0  0  0  0  0
    1.3456   58.4477   75.4978 H   0  0  0  0  0  0  0  0  0  0  0  0
    0.6000   58.9619   73.9424 H   0  0  0  0  0  0  0  0  0  0  0  0
    3.5483   58.9872   73.8897 H   0  0  0  0  0  0  0  0  0  0  0  0
    2.8032   57.3448   74.2241 H   0  0  0  0  0  0  0  0  0  0  0  0
    2.1279   57.0793   72.1443 H   0  0  0  0  0  0  0  0  0  0  0  0
    1.5765   58.8323   72.0370 H   0  0  0  0  0  0  0  0  0  0  0  0
    4.3791   57.7820   71.5816 H   0  0  0  0  0  0  0  0  0  0  0  0
    3.1669   58.3892   70.3406 H   0  0  0  0  0  0  0  0  0  0  0  0
    5.2202   59.6246   73.3613 H   0  0  0  0  0  0  0  0  0  0  0  0
    5.7566   62.2145   72.9969 H   0  0  0  0  0  0  0  0  0  0  0  0
    2.4926   60.0907   69.0824 H   0  0  0  0  0  0  0  0  0  0  0  0
    2.3407   62.2972   67.9069 H   0  0  0  0  0  0  0  0  0  0  0  0
    3.5218   64.2859   68.7942 H   0  0  0  0  0  0  0  0  0  0  0  0
    4.8827   64.1231   70.8817 H   0  0  0  0  0  0  0  0  0  0  0  0
  2  1  2  0
  3  2  1  0
  4  3  2  0
  5  4  1  0
  6  5  2  0
  6  1  1  0
  8  7  2  0
  8  1  1  0
  9  8  1  0
 10  9  1  0
 11 10  1  0
 12 11  1  0
 13 12  2  0
 14 13  1  0
 15 14  1  0
 16 15  2  0
 16 12  1  0
 17 16  1  0
 18 17  2  0
 19 18  1  0
 20 15  1  0
 20 19  2  0
 21  4  1  0
 22 21  1  0
 23 22  1  0
 24 23  1  0
 25 24  1  0
 26 25  1  0
 27 26  1  0
 28 27  2  0
 29 28  1  0
 30 29  2  0
 30 26  1  0
 31 30  1  0
 32 31  2  0
 33 32  1  0
 34 33  2  0
 34 29  1  0
  2 35  1  0
  3 36  1  0
  5 37  1  0
  6 38  1  0
  9 39  1  0
 10 40  1  0
 10 41  1  0
 11 42  1  0
 11 43  1  0
 13 44  1  0
 14 45  1  0
 17 46  1  0
 18 47  1  0
 19 48  1  0
 20 49  1  0
 22 50  1  0
 22 51  1  0
 23 52  1  0
 23 53  1  0
 24 54  1  0
 24 55  1  0
 25 56  1  0
 25 57  1  0
 27 58  1  0
 28 59  1  0
 31 60  1  0
 32 61  1  0
 33 62  1  0
 34 63  1  0
M  END
>  <score>  (4) 
-10.586

$$$$
=
     RDKit          3D

 63 67  0  0  0  0  0  0  0  0999 V2000
    0.5840   66.8920   67.7540 C   0  0  0  0  0  0  0  0  0  0  0  0
   -0.7170   66.7550   68.2490 C   0  0  0  0  0  0  0  0  0  0  0  0
   -0.9190   66.3540   69.5730 C   0  0  0  0  0  0  0  0  0  0  0  0
    0.1650   66.1010   70.4200 C   0  0  0  0  0  0  0  0  0  0  0  0
    1.4620   66.2460   69.9280 C   0  0  0  0  0  0  0  0  0  0  0  0
    1.6700   66.6460   68.6030 C   0  0  0  0  0  0  0  0  0  0  0  0
    0.0230   67.9550   65.7240 O   0  0  0  0  0  0  0  0  0  0  0  0
    0.8590   67.3150   66.3520 C   0  0  0  0  0  0  0  0  0  0  0  0
    2.0960   66.9770   65.8430 N   0  0  0  0  0  0  0  0  0  0  0  0
    2.5400   67.5020   64.5630 C   0  0  0  0  0  0  0  0  0  0  0  0
    2.7930   69.0120   64.6010 C   0  0  0  0  0  0  0  0  0  0  0  0
    3.9970   69.3950   65.4100 C   0  0  0  0  0  0  0  0  0  0  0  0
    5.3010   69.4480   64.9590 C   0  0  0  0  0  0  0  0  0  0  0  0
    6.1020   69.8430   65.9960 N   0  0  0  0  0  0  0  0  0  0  0  0
    5.3470   70.0460   67.1280 C   0  0  0  0  0  0  0  0  0  0  0  0
    4.0200   69.7790   66.7900 C   0  0  0  0  0  0  0  0  0  0  0  0
    3.0320   69.9240   67.7860 C   0  0  0  0  0  0  0  0  0  0  0  0
    3.4060   70.3230   69.0760 C   0  0  0  0  0  0  0  0  0  0  0  0
    4.7400   70.5790   69.3810 C   0  0  0  0  0  0  0  0  0  0  0  0
    5.7380   70.4460   68.4110 C   0  0  0  0  0  0  0  0  0  0  0  0
   -0.1830   65.7090   71.6820 O   0  0  0  0  0  0  0  0  0  0  0  0
    0.4520   64.5550   72.2400 C   0  0  0  0  0  0  0  0  0  0  0  0
   -0.3450   63.2990   71.8900 C   0  0  0  0  0  0  0  0  0  0  0  0
   -0.0850   62.1050   72.8120 C   0  0  0  0  0  0  0  0  0  0  0  0
    0.7820   60.9930   72.2130 C   0  0  0  0  0  0  0  0  0  0  0  0
    2.2110   61.2480   72.2470 N   0  0  0  0  0  0  0  0  0  0  0  0
    3.0270   60.8620   73.2820 C   0  0  0  0  0  0  0  0  0  0  0  0
    4.3040   61.2850   72.9960 C   0  0  0  0  0  0  0  0  0  0  0  0
    4.2640   61.9700   71.7520 C   0  0  0  0  0  0  0  0  0  0  0  0
    2.9380   61.9450   71.3030 C   0  0  0  0  0  0  0  0  0  0  0  0
    2.5600   62.5450   70.0900 C   0  0  0  0  0  0  0  0  0  0  0  0
    3.5490   63.1780   69.3300 C   0  0  0  0  0  0  0  0  0  0  0  0
    4.8710   63.2140   69.7600 C   0  0  0  0  0  0  0  0  0  0  0  0
    5.2400   62.6140   70.9680 C   0  0  0  0  0  0  0  0  0  0  0  0
   -1.5792   66.9623   67.5981 H   0  0  0  0  0  0  0  0  0  0  0  0
   -1.9442   66.2359   69.9538 H   0  0  0  0  0  0  0  0  0  0  0  0
    2.3230   66.0456   70.5826 H   0  0  0  0  0  0  0  0  0  0  0  0
    2.6958   66.7682   68.2252 H   0  0  0  0  0  0  0  0  0  0  0  0
    2.7112   66.3459   66.3760 H   0  0  0  0  0  0  0  0  0  0  0  0
    3.4743   66.9954   64.2795 H   0  0  0  0  0  0  0  0  0  0  0  0
    1.7396   67.3168   63.8315 H   0  0  0  0  0  0  0  0  0  0  0  0
    2.9385   69.3671   63.5701 H   0  0  0  0  0  0  0  0  0  0  0  0
    1.9186   69.4754   65.0813 H   0  0  0  0  0  0  0  0  0  0  0  0
    5.6388   69.2126   63.9390 H   0  0  0  0  0  0  0  0  0  0  0  0
    7.1225   69.9699   65.9374 H   0  0  0  0  0  0  0  0  0  0  0  0
    1.9757   69.7253   67.5518 H   0  0  0  0  0  0  0  0  0  0  0  0
    2.6380   70.4351   69.8555 H   0  0  0  0  0  0  0  0  0  0  0  0
    5.0128   70.8905   70.4001 H   0  0  0  0  0  0  0  0  0  0  0  0
    6.7930   70.6485   68.6477 H   0  0  0  0  0  0  0  0  0  0  0  0
    1.4696   64.4661   71.8319 H   0  0  0  0  0  0  0  0  0  0  0  0
    0.4966   64.6610   73.3340 H   0  0  0  0  0  0  0  0  0  0  0  0
   -1.4157   63.5460   71.9413 H   0  0  0  0  0  0  0  0  0  0  0  0
   -0.0219   62.9936   70.8838 H   0  0  0  0  0  0  0  0  0  0  0  0
    0.4171   62.4774   73.7171 H   0  0  0  0  0  0  0  0  0  0  0  0
   -1.0680   61.6523   73.0086 H   0  0  0  0  0  0  0  0  0  0  0  0
    0.5864   60.0673   72.7741 H   0  0  0  0  0  0  0  0  0  0  0  0
    0.5056   60.9242   71.1505 H   0  0  0  0  0  0  0  0  0  0  0  0
    2.7142   60.3114   74.1815 H   0  0  0  0  0  0  0  0  0  0  0  0
    5.1961   61.1222   73.6186 H   0  0  0  0  0  0  0  0  0  0  0  0
    1.5150   62.5177   69.7475 H   0  0  0  0  0  0  0  0  0  0  0  0
    3.2767   63.6550   68.3769 H   0  0  0  0  0  0  0  0  0  0  0  0
    5.6317   63.7179   69.1456 H   0  0  0  0  0  0  0  0  0  0  0  0
    6.2870   62.6450   71.3038 H   0  0  0  0  0  0  0  0  0  0  0  0
  2  1  2  0
  3  2  1  0
  4  3  2  0
  5  4  1  0
  6  5  2  0
  6  1  1  0
  8  7  2  0
  8  1  1  0
  9  8  1  0
 10  9  1  0
 11 10  1  0
 12 11  1  0
 13 12  2  0
 14 13  1  0
 15 14  1  0
 16 15  2  0
 16 12  1  0
 17 16  1  0
 18 17  2  0
 19 18  1  0
 20 15  1  0
 20 19  2  0
 21  4  1  0
 22 21  1  0
 23 22  1  0
 24 23  1  0
 25 24  1  0
 26 25  1  0
 27 26  1  0
 28 27  2  0
 29 28  1  0
 30 29  2  0
 30 26  1  0
 31 30  1  0
 32 31  2  0
 33 32  1  0
 34 33  2  0
 34 29  1  0
  2 35  1  0
  3 36  1  0
  5 37  1  0
  6 38  1  0
  9 39  1  0
 10 40  1  0
 10 41  1  0
 11 42  1  0
 11 43  1  0
 13 44  1  0
 14 45  1  0
 17 46  1  0
 18 47  1  0
 19 48  1  0
 20 49  1  0
 22 50  1  0
 22 51  1  0
 23 52  1  0
 23 53  1  0
 24 54  1  0
 24 55  1  0
 25 56  1  0
 25 57  1  0
 27 58  1  0
 28 59  1  0
 31 60  1  0
 32 61  1  0
 33 62  1  0
 34 63  1  0
M  END
>  <score>  (5) 
-10.446

$$$$
=
     RDKit          3D

 63 67  0  0  0  0  0  0  0  0999 V2000
    3.1560   61.8800   70.9040 C   0  0  0  0  0  0  0  0  0  0  0  0
    3.6800   62.5550   69.7970 C   0  0  0  0  0  0  0  0  0  0  0  0
    3.1940   63.8220   69.4610 C   0  0  0  0  0  0  0  0  0  0  0  0
    2.1970   64.4350   70.2260 C   0  0  0  0  0  0  0  0  0  0  0  0
    1.6810   63.7650   71.3350 C   0  0  0  0  0  0  0  0  0  0  0  0
    2.1630   62.4960   71.6760 C   0  0  0  0  0  0  0  0  0  0  0  0
    4.7890   60.3710   71.6940 O   0  0  0  0  0  0  0  0  0  0  0  0
    3.6350   60.5280   71.3100 C   0  0  0  0  0  0  0  0  0  0  0  0
    2.7060   59.5090   71.2590 N   0  0  0  0  0  0  0  0  0  0  0  0
    3.0110   58.2000   71.8110 C   0  0  0  0  0  0  0  0  0  0  0  0
    2.2760   57.9300   73.1270 C   0  0  0  0  0  0  0  0  0  0  0  0
    2.1130   59.1520   73.9820 C   0  0  0  0  0  0  0  0  0  0  0  0
    3.0080   59.6120   74.9290 C   0  0  0  0  0  0  0  0  0  0  0  0
    2.4980   60.7520   75.4870 N   0  0  0  0  0  0  0  0  0  0  0  0
    1.2770   61.0500   74.9280 C   0  0  0  0  0  0  0  0  0  0  0  0
    1.0110   60.0680   73.9740 C   0  0  0  0  0  0  0  0  0  0  0  0
   -0.1920   60.1510   73.2430 C   0  0  0  0  0  0  0  0  0  0  0  0
   -1.0800   61.2040   73.4940 C   0  0  0  0  0  0  0  0  0  0  0  0
   -0.7860   62.1670   74.4540 C   0  0  0  0  0  0  0  0  0  0  0  0
    0.4010   62.1090   75.1910 C   0  0  0  0  0  0  0  0  0  0  0  0
    1.8130   65.6660   69.7730 O   0  0  0  0  0  0  0  0  0  0  0  0
    0.5050   66.1410   70.1040 C   0  0  0  0  0  0  0  0  0  0  0  0
   -0.1050   66.8690   68.9060 C   0  0  0  0  0  0  0  0  0  0  0  0
    0.9070   67.2940   67.8400 C   0  0  0  0  0  0  0  0  0  0  0  0
    1.2610   68.7850   67.8320 C   0  0  0  0  0  0  0  0  0  0  0  0
    2.4900   69.1170   67.1350 N   0  0  0  0  0  0  0  0  0  0  0  0
    2.7190   68.8190   65.8140 C   0  0  0  0  0  0  0  0  0  0  0  0
    3.9840   69.2520   65.4950 C   0  0  0  0  0  0  0  0  0  0  0  0
    4.5570   69.8150   66.6660 C   0  0  0  0  0  0  0  0  0  0  0  0
    3.6070   69.7120   67.6880 C   0  0  0  0  0  0  0  0  0  0  0  0
    3.8680   70.1810   68.9870 C   0  0  0  0  0  0  0  0  0  0  0  0
    5.1140   70.7610   69.2420 C   0  0  0  0  0  0  0  0  0  0  0  0
    6.0720   70.8730   68.2390 C   0  0  0  0  0  0  0  0  0  0  0  0
    5.8050   70.4040   66.9490 C   0  0  0  0  0  0  0  0  0  0  0  0
    4.4726   62.0902   69.1922 H   0  0  0  0  0  0  0  0  0  0  0  0
    3.6016   64.3439   68.5826 H   0  0  0  0  0  0  0  0  0  0  0  0
    0.8937   64.2348   71.9429 H   0  0  0  0  0  0  0  0  0  0  0  0
    1.7584   61.9780   72.5580 H   0  0  0  0  0  0  0  0  0  0  0  0
    1.7872   59.6780   70.8253 H   0  0  0  0  0  0  0  0  0  0  0  0
    2.7178   57.4323   71.0798 H   0  0  0  0  0  0  0  0  0  0  0  0
    4.0905   58.1699   72.0201 H   0  0  0  0  0  0  0  0  0  0  0  0
    1.2773   57.5328   72.8930 H   0  0  0  0  0  0  0  0  0  0  0  0
    2.8859   57.2143   73.6978 H   0  0  0  0  0  0  0  0  0  0  0  0
    3.9675   59.1414   75.1898 H   0  0  0  0  0  0  0  0  0  0  0  0
    2.9615   61.3074   76.2202 H   0  0  0  0  0  0  0  0  0  0  0  0
   -0.4310   59.3942   72.4813 H   0  0  0  0  0  0  0  0  0  0  0  0
   -2.0198   61.2705   72.9263 H   0  0  0  0  0  0  0  0  0  0  0  0
   -1.4975   62.9859   74.6360 H   0  0  0  0  0  0  0  0  0  0  0  0
    0.6376   62.8688   75.9504 H   0  0  0  0  0  0  0  0  0  0  0  0
   -0.1343   65.2882   70.3763 H   0  0  0  0  0  0  0  0  0  0  0  0
    0.5776   66.8382   70.9518 H   0  0  0  0  0  0  0  0  0  0  0  0
   -0.8398   66.1997   68.4348 H   0  0  0  0  0  0  0  0  0  0  0  0
   -0.5546   67.7936   69.2972 H   0  0  0  0  0  0  0  0  0  0  0  0
    1.8340   66.7253   68.0052 H   0  0  0  0  0  0  0  0  0  0  0  0
    0.4316   67.0886   66.8695 H   0  0  0  0  0  0  0  0  0  0  0  0
    0.4363   69.3295   67.3489 H   0  0  0  0  0  0  0  0  0  0  0  0
    1.4150   69.0714   68.8828 H   0  0  0  0  0  0  0  0  0  0  0  0
    2.0143   68.3215   65.1315 H   0  0  0  0  0  0  0  0  0  0  0  0
    4.4661   69.1760   64.5092 H   0  0  0  0  0  0  0  0  0  0  0  0
    3.1122   70.0940   69.7815 H   0  0  0  0  0  0  0  0  0  0  0  0
    5.3408   71.1348   70.2514 H   0  0  0  0  0  0  0  0  0  0  0  0
    7.0457   71.3335   68.4624 H   0  0  0  0  0  0  0  0  0  0  0  0
    6.5655   70.4945   66.1594 H   0  0  0  0  0  0  0  0  0  0  0  0
  2  1  2  0
  3  2  1  0
  4  3  2  0
  5  4  1  0
  6  5  2  0
  6  1  1  0
  8  7  2  0
  8  1  1  0
  9  8  1  0
 10  9  1  0
 11 10  1  0
 12 11  1  0
 13 12  2  0
 14 13  1  0
 15 14  1  0
 16 15  2  0
 16 12  1  0
 17 16  1  0
 18 17  2  0
 19 18  1  0
 20 15  1  0
 20 19  2  0
 21  4  1  0
 22 21  1  0
 23 22  1  0
 24 23  1  0
 25 24  1  0
 26 25  1  0
 27 26  1  0
 28 27  2  0
 29 28  1  0
 30 29  2  0
 30 26  1  0
 31 30  1  0
 32 31  2  0
 33 32  1  0
 34 33  2  0
 34 29  1  0
  2 35  1  0
  3 36  1  0
  5 37  1  0
  6 38  1  0
  9 39  1  0
 10 40  1  0
 10 41  1  0
 11 42  1  0
 11 43  1  0
 13 44  1  0
 14 45  1  0
 17 46  1  0
 18 47  1  0
 19 48  1  0
 20 49  1  0
 22 50  1  0
 22 51  1  0
 23 52  1  0
 23 53  1  0
 24 54  1  0
 24 55  1  0
 25 56  1  0
 25 57  1  0
 27 58  1  0
 28 59  1  0
 31 60  1  0
 32 61  1  0
 33 62  1  0
 34 63  1  0
M  END
>  <score>  (6) 
-10.016

$$$$
=
     RDKit          3D

 63 67  0  0  0  0  0  0  0  0999 V2000
    1.0130   66.2040   69.8930 C   0  0  0  0  0  0  0  0  0  0  0  0
    0.0070   66.5070   70.8150 C   0  0  0  0  0  0  0  0  0  0  0  0
   -0.3300   65.5810   71.8070 C   0  0  0  0  0  0  0  0  0  0  0  0
    0.3370   64.3560   71.9010 C   0  0  0  0  0  0  0  0  0  0  0  0
    1.3470   64.0580   70.9860 C   0  0  0  0  0  0  0  0  0  0  0  0
    1.6870   64.9800   69.9900 C   0  0  0  0  0  0  0  0  0  0  0  0
    1.2620   66.8470   67.6360 O   0  0  0  0  0  0  0  0  0  0  0  0
    1.4140   67.1520   68.8140 C   0  0  0  0  0  0  0  0  0  0  0  0
    1.9170   68.3690   69.2260 N   0  0  0  0  0  0  0  0  0  0  0  0
    2.1570   69.4340   68.2670 C   0  0  0  0  0  0  0  0  0  0  0  0
    3.4990   70.1370   68.4910 C   0  0  0  0  0  0  0  0  0  0  0  0
    4.4430   70.0060   67.3330 C   0  0  0  0  0  0  0  0  0  0  0  0
    5.7960   70.2850   67.3460 C   0  0  0  0  0  0  0  0  0  0  0  0
    6.3010   70.0350   66.0990 N   0  0  0  0  0  0  0  0  0  0  0  0
    5.3020   69.6010   65.2600 C   0  0  0  0  0  0  0  0  0  0  0  0
    4.1240   69.5650   66.0070 C   0  0  0  0  0  0  0  0  0  0  0  0
    2.9390   69.1400   65.3720 C   0  0  0  0  0  0  0  0  0  0  0  0
    2.9740   68.7720   64.0220 C   0  0  0  0  0  0  0  0  0  0  0  0
    4.1650   68.8210   63.3030 C   0  0  0  0  0  0  0  0  0  0  0  0
    5.3540   69.2370   63.9100 C   0  0  0  0  0  0  0  0  0  0  0  0
   -0.1040   63.5480   72.9110 O   0  0  0  0  0  0  0  0  0  0  0  0
   -0.3020   62.1570   72.6400 C   0  0  0  0  0  0  0  0  0  0  0  0
   -1.2710   61.5590   73.6600 C   0  0  0  0  0  0  0  0  0  0  0  0
   -1.1210   60.0500   73.8670 C   0  0  0  0  0  0  0  0  0  0  0  0
    0.2160   59.6010   74.4660 C   0  0  0  0  0  0  0  0  0  0  0  0
    0.9760   58.6800   73.6420 N   0  0  0  0  0  0  0  0  0  0  0  0
    0.9860   57.3200   73.8320 C   0  0  0  0  0  0  0  0  0  0  0  0
    1.8260   56.7660   72.8950 C   0  0  0  0  0  0  0  0  0  0  0  0
    2.3640   57.8260   72.1170 C   0  0  0  0  0  0  0  0  0  0  0  0
    1.8260   59.0210   72.6080 C   0  0  0  0  0  0  0  0  0  0  0  0
    2.1640   60.2650   72.0490 C   0  0  0  0  0  0  0  0  0  0  0  0
    3.0620   60.2860   70.9770 C   0  0  0  0  0  0  0  0  0  0  0  0
    3.6080   59.1090   70.4760 C   0  0  0  0  0  0  0  0  0  0  0  0
    3.2670   57.8740   71.0370 C   0  0  0  0  0  0  0  0  0  0  0  0
   -0.5184   67.4719   70.7603 H   0  0  0  0  0  0  0  0  0  0  0  0
   -1.1304   65.8195   72.5228 H   0  0  0  0  0  0  0  0  0  0  0  0
    1.8772   63.0962   71.0477 H   0  0  0  0  0  0  0  0  0  0  0  0
    2.4902   64.7416   69.2773 H   0  0  0  0  0  0  0  0  0  0  0  0
    2.1244   68.5241   70.2229 H   0  0  0  0  0  0  0  0  0  0  0  0
    2.1490   69.0046   67.2543 H   0  0  0  0  0  0  0  0  0  0  0  0
    1.3625   70.1838   68.3961 H   0  0  0  0  0  0  0  0  0  0  0  0
    3.3074   71.2061   68.6649 H   0  0  0  0  0  0  0  0  0  0  0  0
    3.9776   69.6533   69.3552 H   0  0  0  0  0  0  0  0  0  0  0  0
    6.3700   70.6467   68.2119 H   0  0  0  0  0  0  0  0  0  0  0  0
    7.2875   70.1547   65.8280 H   0  0  0  0  0  0  0  0  0  0  0  0
    1.9940   69.0980   65.9334 H   0  0  0  0  0  0  0  0  0  0  0  0
    2.0508   68.4406   63.5240 H   0  0  0  0  0  0  0  0  0  0  0  0
    4.1708   68.5284   62.2426 H   0  0  0  0  0  0  0  0  0  0  0  0
    6.2974   69.2767   63.3458 H   0  0  0  0  0  0  0  0  0  0  0  0
   -0.7184   62.0384   71.6288 H   0  0  0  0  0  0  0  0  0  0  0  0
    0.6634   61.6344   72.7092 H   0  0  0  0  0  0  0  0  0  0  0  0
   -1.1034   62.0570   74.6264 H   0  0  0  0  0  0  0  0  0  0  0  0
   -2.2839   61.7218   73.2630 H   0  0  0  0  0  0  0  0  0  0  0  0
   -1.9241   59.7180   74.5414 H   0  0  0  0  0  0  0  0  0  0  0  0
   -1.1722   59.5989   72.8651 H   0  0  0  0  0  0  0  0  0  0  0  0
    0.8323   60.4962   74.6355 H   0  0  0  0  0  0  0  0  0  0  0  0
   -0.0273   59.0583   75.3913 H   0  0  0  0  0  0  0  0  0  0  0  0
    0.4211   56.7703   74.5992 H   0  0  0  0  0  0  0  0  0  0  0  0
    2.0425   55.6948   72.7702 H   0  0  0  0  0  0  0  0  0  0  0  0
    1.7339   61.1973   72.4439 H   0  0  0  0  0  0  0  0  0  0  0  0
    3.3408   61.2484   70.5230 H   0  0  0  0  0  0  0  0  0  0  0  0
    4.3130   59.1497   69.6326 H   0  0  0  0  0  0  0  0  0  0  0  0
    3.7014   56.9458   70.6372 H   0  0  0  0  0  0  0  0  0  0  0  0
  2  1  2  0
  3  2  1  0
  4  3  2  0
  5  4  1  0
  6  5  2  0
  6  1  1  0
  8  7  2  0
  8  1  1  0
  9  8  1  0
 10  9  1  0
 11 10  1  0
 12 11  1  0
 13 12  2  0
 14 13  1  0
 15 14  1  0
 16 15  2  0
 16 12  1  0
 17 16  1  0
 18 17  2  0
 19 18  1  0
 20 15  1  0
 20 19  2  0
 21  4  1  0
 22 21  1  0
 23 22  1  0
 24 23  1  0
 25 24  1  0
 26 25  1  0
 27 26  1  0
 28 27  2  0
 29 28  1  0
 30 29  2  0
 30 26  1  0
 31 30  1  0
 32 31  2  0
 33 32  1  0
 34 33  2  0
 34 29  1  0
  2 35  1  0
  3 36  1  0
  5 37  1  0
  6 38  1  0
  9 39  1  0
 10 40  1  0
 10 41  1  0
 11 42  1  0
 11 43  1  0
 13 44  1  0
 14 45  1  0
 17 46  1  0
 18 47  1  0
 19 48  1  0
 20 49  1  0
 22 50  1  0
 22 51  1  0
 23 52  1  0
 23 53  1  0
 24 54  1  0
 24 55  1  0
 25 56  1  0
 25 57  1  0
 27 58  1  0
 28 59  1  0
 31 60  1  0
 32 61  1  0
 33 62  1  0
 34 63  1  0
M  END
>  <score>  (7) 
-9.957

$$$$
=
     RDKit          3D

 63 67  0  0  0  0  0  0  0  0999 V2000
    2.0350   62.0860   71.2980 C   0  0  0  0  0  0  0  0  0  0  0  0
    0.7570   62.4980   71.6880 C   0  0  0  0  0  0  0  0  0  0  0  0
    0.3190   63.7900   71.3810 C   0  0  0  0  0  0  0  0  0  0  0  0
    1.1360   64.6760   70.6730 C   0  0  0  0  0  0  0  0  0  0  0  0
    2.4070   64.2610   70.2760 C   0  0  0  0  0  0  0  0  0  0  0  0
    2.8520   62.9690   70.5820 C   0  0  0  0  0  0  0  0  0  0  0  0
    3.4650   60.2470   70.9260 O   0  0  0  0  0  0  0  0  0  0  0  0
    2.5550   60.7210   71.5970 C   0  0  0  0  0  0  0  0  0  0  0  0
    1.9830   60.0710   72.6700 N   0  0  0  0  0  0  0  0  0  0  0  0
    2.5430   58.8240   73.1650 C   0  0  0  0  0  0  0  0  0  0  0  0
    1.8010   57.5940   72.6360 C   0  0  0  0  0  0  0  0  0  0  0  0
    0.6210   57.2020   73.4740 C   0  0  0  0  0  0  0  0  0  0  0  0
   -0.3530   58.0520   73.9630 C   0  0  0  0  0  0  0  0  0  0  0  0
   -1.2560   57.3100   74.6750 N   0  0  0  0  0  0  0  0  0  0  0  0
   -0.8910   55.9840   74.6700 C   0  0  0  0  0  0  0  0  0  0  0  0
    0.2800   55.8820   73.9180 C   0  0  0  0  0  0  0  0  0  0  0  0
    0.8610   54.6090   73.7500 C   0  0  0  0  0  0  0  0  0  0  0  0
    0.2570   53.4920   74.3400 C   0  0  0  0  0  0  0  0  0  0  0  0
   -0.9090   53.6270   75.0870 C   0  0  0  0  0  0  0  0  0  0  0  0
   -1.5080   54.8780   75.2660 C   0  0  0  0  0  0  0  0  0  0  0  0
    0.5810   65.9050   70.4540 O   0  0  0  0  0  0  0  0  0  0  0  0
    1.2900   66.8420   69.6390 C   0  0  0  0  0  0  0  0  0  0  0  0
    0.4150   67.2810   68.4650 C   0  0  0  0  0  0  0  0  0  0  0  0
    1.1810   67.9260   67.3080 C   0  0  0  0  0  0  0  0  0  0  0  0
    1.8200   69.2830   67.6230 C   0  0  0  0  0  0  0  0  0  0  0  0
    3.1300   69.4920   67.0360 N   0  0  0  0  0  0  0  0  0  0  0  0
    3.4380   69.1840   65.7330 C   0  0  0  0  0  0  0  0  0  0  0  0
    4.7630   69.4860   65.5270 C   0  0  0  0  0  0  0  0  0  0  0  0
    5.2900   69.9780   66.7510 C   0  0  0  0  0  0  0  0  0  0  0  0
    4.2510   69.9640   67.6890 C   0  0  0  0  0  0  0  0  0  0  0  0
    4.4490   70.3920   69.0130 C   0  0  0  0  0  0  0  0  0  0  0  0
    5.7230   70.8380   69.3800 C   0  0  0  0  0  0  0  0  0  0  0  0
    6.7670   70.8590   68.4620 C   0  0  0  0  0  0  0  0  0  0  0  0
    6.5640   70.4320   67.1460 C   0  0  0  0  0  0  0  0  0  0  0  0
    0.0979   61.8076   72.2348 H   0  0  0  0  0  0  0  0  0  0  0  0
   -0.6824   64.1136   71.7011 H   0  0  0  0  0  0  0  0  0  0  0  0
    3.0611   64.9499   69.7215 H   0  0  0  0  0  0  0  0  0  0  0  0
    3.8518   62.6452   70.2571 H   0  0  0  0  0  0  0  0  0  0  0  0
    1.1510   60.4727   73.1252 H   0  0  0  0  0  0  0  0  0  0  0  0
    3.5957   58.7619   72.8521 H   0  0  0  0  0  0  0  0  0  0  0  0
    2.4447   58.8265   74.2606 H   0  0  0  0  0  0  0  0  0  0  0  0
    1.4478   57.8117   71.6173 H   0  0  0  0  0  0  0  0  0  0  0  0
    2.5095   56.7529   72.6606 H   0  0  0  0  0  0  0  0  0  0  0  0
   -0.3952   59.1400   73.8065 H   0  0  0  0  0  0  0  0  0  0  0  0
   -2.0891   57.6899   75.1467 H   0  0  0  0  0  0  0  0  0  0  0  0
    1.7821   54.4938   73.1598 H   0  0  0  0  0  0  0  0  0  0  0  0
    0.7090   52.4974   74.2116 H   0  0  0  0  0  0  0  0  0  0  0  0
   -1.3664   52.7368   75.5434 H   0  0  0  0  0  0  0  0  0  0  0  0
   -2.4310   54.9888   75.8541 H   0  0  0  0  0  0  0  0  0  0  0  0
    1.5569   67.7216   70.2433 H   0  0  0  0  0  0  0  0  0  0  0  0
    2.2022   66.3652   69.2509 H   0  0  0  0  0  0  0  0  0  0  0  0
   -0.1099   66.3952   68.0779 H   0  0  0  0  0  0  0  0  0  0  0  0
   -0.2680   68.0501   68.8548 H   0  0  0  0  0  0  0  0  0  0  0  0
    1.9814   67.2357   67.0033 H   0  0  0  0  0  0  0  0  0  0  0  0
    0.4385   68.1147   66.5186 H   0  0  0  0  0  0  0  0  0  0  0  0
    1.1491   70.0713   67.2509 H   0  0  0  0  0  0  0  0  0  0  0  0
    1.9623   69.3114   68.7134 H   0  0  0  0  0  0  0  0  0  0  0  0
    2.7458   68.7686   64.9858 H   0  0  0  0  0  0  0  0  0  0  0  0
    5.3161   69.3679   64.5835 H   0  0  0  0  0  0  0  0  0  0  0  0
    3.6244   70.3767   69.7409 H   0  0  0  0  0  0  0  0  0  0  0  0
    5.9017   71.1774   70.4110 H   0  0  0  0  0  0  0  0  0  0  0  0
    7.7604   71.2143   68.7734 H   0  0  0  0  0  0  0  0  0  0  0  0
    7.3936   70.4504   66.4238 H   0  0  0  0  0  0  0  0  0  0  0  0
  2  1  2  0
  3  2  1  0
  4  3  2  0
  5  4  1  0
  6  5  2  0
  6  1  1  0
  8  7  2  0
  8  1  1  0
  9  8  1  0
 10  9  1  0
 11 10  1  0
 12 11  1  0
 13 12  2  0
 14 13  1  0
 15 14  1  0
 16 15  2  0
 16 12  1  0
 17 16  1  0
 18 17  2  0
 19 18  1  0
 20 15  1  0
 20 19  2  0
 21  4  1  0
 22 21  1  0
 23 22  1  0
 24 23  1  0
 25 24  1  0
 26 25  1  0
 27 26  1  0
 28 27  2  0
 29 28  1  0
 30 29  2  0
 30 26  1  0
 31 30  1  0
 32 31  2  0
 33 32  1  0
 34 33  2  0
 34 29  1  0
  2 35  1  0
  3 36  1  0
  5 37  1  0
  6 38  1  0
  9 39  1  0
 10 40  1  0
 10 41  1  0
 11 42  1  0
 11 43  1  0
 13 44  1  0
 14 45  1  0
 17 46  1  0
 18 47  1  0
 19 48  1  0
 20 49  1  0
 22 50  1  0
 22 51  1  0
 23 52  1  0
 23 53  1  0
 24 54  1  0
 24 55  1  0
 25 56  1  0
 25 57  1  0
 27 58  1  0
 28 59  1  0
 31 60  1  0
 32 61  1  0
 33 62  1  0
 34 63  1  0
M  END
>  <score>  (8) 
-9.951

$$$$
=
     RDKit          3D

 63 67  0  0  0  0  0  0  0  0999 V2000
    1.0780   65.1520   70.2770 C   0  0  0  0  0  0  0  0  0  0  0  0
    2.3110   64.6050   70.6440 C   0  0  0  0  0  0  0  0  0  0  0  0
    2.3580   63.3670   71.2930 C   0  0  0  0  0  0  0  0  0  0  0  0
    1.1860   62.6560   71.5680 C   0  0  0  0  0  0  0  0  0  0  0  0
   -0.0430   63.1990   71.1930 C   0  0  0  0  0  0  0  0  0  0  0  0
   -0.0960   64.4380   70.5450 C   0  0  0  0  0  0  0  0  0  0  0  0
    1.7290   67.3830   69.8720 O   0  0  0  0  0  0  0  0  0  0  0  0
    0.9670   66.4670   69.5830 C   0  0  0  0  0  0  0  0  0  0  0  0
    0.0020   66.5610   68.6020 N   0  0  0  0  0  0  0  0  0  0  0  0
   -0.0640   67.7270   67.7380 C   0  0  0  0  0  0  0  0  0  0  0  0
    1.1770   68.6170   67.8520 C   0  0  0  0  0  0  0  0  0  0  0  0
    1.9810   68.6850   66.5870 C   0  0  0  0  0  0  0  0  0  0  0  0
    1.5740   68.2600   65.3370 C   0  0  0  0  0  0  0  0  0  0  0  0
    2.5880   68.4970   64.4490 N   0  0  0  0  0  0  0  0  0  0  0  0
    3.6620   69.0660   65.0940 C   0  0  0  0  0  0  0  0  0  0  0  0
    3.3080   69.2040   66.4370 C   0  0  0  0  0  0  0  0  0  0  0  0
    4.2440   69.7780   67.3210 C   0  0  0  0  0  0  0  0  0  0  0  0
    5.4920   70.1860   66.8350 C   0  0  0  0  0  0  0  0  0  0  0  0
    5.8150   70.0330   65.4900 C   0  0  0  0  0  0  0  0  0  0  0  0
    4.9040   69.4700   64.5920 C   0  0  0  0  0  0  0  0  0  0  0  0
    1.3840   61.4690   72.2150 O   0  0  0  0  0  0  0  0  0  0  0  0
    0.2440   60.7580   72.7060 C   0  0  0  0  0  0  0  0  0  0  0  0
    0.5650   60.1280   74.0610 C   0  0  0  0  0  0  0  0  0  0  0  0
    0.8330   58.6220   74.0130 C   0  0  0  0  0  0  0  0  0  0  0  0
    2.3050   58.2250   73.8600 C   0  0  0  0  0  0  0  0  0  0  0  0
    2.8940   58.5460   72.5730 N   0  0  0  0  0  0  0  0  0  0  0  0
    2.6760   57.8120   71.4330 C   0  0  0  0  0  0  0  0  0  0  0  0
    3.4040   58.3810   70.4160 C   0  0  0  0  0  0  0  0  0  0  0  0
    4.1070   59.4910   70.9560 C   0  0  0  0  0  0  0  0  0  0  0  0
    3.7810   59.5710   72.3150 C   0  0  0  0  0  0  0  0  0  0  0  0
    4.3200   60.5710   73.1430 C   0  0  0  0  0  0  0  0  0  0  0  0
    5.2010   61.4960   72.5750 C   0  0  0  0  0  0  0  0  0  0  0  0
    5.5370   61.4320   71.2270 C   0  0  0  0  0  0  0  0  0  0  0  0
    4.9970   60.4360   70.4080 C   0  0  0  0  0  0  0  0  0  0  0  0
    3.2422   65.1471   70.4228 H   0  0  0  0  0  0  0  0  0  0  0  0
    3.3300   62.9471   71.5911 H   0  0  0  0  0  0  0  0  0  0  0  0
   -0.9728   62.6517   71.4073 H   0  0  0  0  0  0  0  0  0  0  0  0
   -1.0684   64.8546   70.2436 H   0  0  0  0  0  0  0  0  0  0  0  0
   -0.6783   65.7972   68.4809 H   0  0  0  0  0  0  0  0  0  0  0  0
   -0.1596   67.3880   66.6959 H   0  0  0  0  0  0  0  0  0  0  0  0
   -0.9322   68.3250   68.0521 H   0  0  0  0  0  0  0  0  0  0  0  0
    0.8529   69.6350   68.1141 H   0  0  0  0  0  0  0  0  0  0  0  0
    1.8237   68.1743   68.6239 H   0  0  0  0  0  0  0  0  0  0  0  0
    0.6005   67.8080   65.0964 H   0  0  0  0  0  0  0  0  0  0  0  0
    2.5523   68.2806   63.4426 H   0  0  0  0  0  0  0  0  0  0  0  0
    3.9956   69.9045   68.3851 H   0  0  0  0  0  0  0  0  0  0  0  0
    6.2248   70.6321   67.5234 H   0  0  0  0  0  0  0  0  0  0  0  0
    6.8012   70.3598   65.1286 H   0  0  0  0  0  0  0  0  0  0  0  0
    5.1546   69.3487   63.5278 H   0  0  0  0  0  0  0  0  0  0  0  0
   -0.5993   61.4552   72.8190 H   0  0  0  0  0  0  0  0  0  0  0  0
   -0.0215   59.9641   71.9924 H   0  0  0  0  0  0  0  0  0  0  0  0
    1.4593   60.6234   74.4670 H   0  0  0  0  0  0  0  0  0  0  0  0
   -0.3267   60.2673   74.6899 H   0  0  0  0  0  0  0  0  0  0  0  0
    0.4567   58.1796   74.9472 H   0  0  0  0  0  0  0  0  0  0  0  0
    0.3217   58.2499   73.1129 H   0  0  0  0  0  0  0  0  0  0  0  0
    2.8819   58.7450   74.6390 H   0  0  0  0  0  0  0  0  0  0  0  0
    2.3400   57.1293   73.9505 H   0  0  0  0  0  0  0  0  0  0  0  0
    2.0317   56.9244   71.3488 H   0  0  0  0  0  0  0  0  0  0  0  0
    3.4366   58.0385   69.3712 H   0  0  0  0  0  0  0  0  0  0  0  0
    4.0556   60.6243   74.2094 H   0  0  0  0  0  0  0  0  0  0  0  0
    5.6353   62.2869   73.2042 H   0  0  0  0  0  0  0  0  0  0  0  0
    6.2328   62.1705   70.8021 H   0  0  0  0  0  0  0  0  0  0  0  0
    5.2653   60.3903   69.3422 H   0  0  0  0  0  0  0  0  0  0  0  0
  2  1  2  0
  3  2  1  0
  4  3  2  0
  5  4  1  0
  6  5  2  0
  6  1  1  0
  8  7  2  0
  8  1  1  0
  9  8  1  0
 10  9  1  0
 11 10  1  0
 12 11  1  0
 13 12  2  0
 14 13  1  0
 15 14  1  0
 16 15  2  0
 16 12  1  0
 17 16  1  0
 18 17  2  0
 19 18  1  0
 20 15  1  0
 20 19  2  0
 21  4  1  0
 22 21  1  0
 23 22  1  0
 24 23  1  0
 25 24  1  0
 26 25  1  0
 27 26  1  0
 28 27  2  0
 29 28  1  0
 30 29  2  0
 30 26  1  0
 31 30  1  0
 32 31  2  0
 33 32  1  0
 34 33  2  0
 34 29  1  0
  2 35  1  0
  3 36  1  0
  5 37  1  0
  6 38  1  0
  9 39  1  0
 10 40  1  0
 10 41  1  0
 11 42  1  0
 11 43  1  0
 13 44  1  0
 14 45  1  0
 17 46  1  0
 18 47  1  0
 19 48  1  0
 20 49  1  0
 22 50  1  0
 22 51  1  0
 23 52  1  0
 23 53  1  0
 24 54  1  0
 24 55  1  0
 25 56  1  0
 25 57  1  0
 27 58  1  0
 28 59  1  0
 31 60  1  0
 32 61  1  0
 33 62  1  0
 34 63  1  0
M  END
>  <score>  (9) 
-9.753

$$$$
