=
     RDKit          3D

 68 72  0  0  0  0  0  0  0  0999 V2000
    2.4320   63.1980   70.7310 C   0  0  0  0  0  0  0  0  0  0  0  0
    3.0240   63.6460   69.5420 C   0  0  0  0  0  0  0  0  0  0  0  0
    3.7270   62.7660   68.7140 C   0  0  0  0  0  0  0  0  0  0  0  0
    3.8360   61.4230   69.0580 C   0  0  0  0  0  0  0  0  0  0  0  0
    3.2440   60.9600   70.2380 C   0  0  0  0  0  0  0  0  0  0  0  0
    2.5560   61.8390   71.0820 C   0  0  0  0  0  0  0  0  0  0  0  0
    2.0190   61.2980   72.3560 C   0  0  0  0  0  0  0  0  0  0  0  0
    1.8750   61.9980   73.3530 O   0  0  0  0  0  0  0  0  0  0  0  0
    1.7860   59.8390   72.4580 C   0  0  0  0  0  0  0  0  0  0  0  0
    2.5160   58.9730   71.6550 C   0  0  0  0  0  0  0  0  0  0  0  0
    3.3480   59.5260   70.5730 C   0  0  0  0  0  0  0  0  0  0  0  0
    4.0850   58.7770   69.9410 O   0  0  0  0  0  0  0  0  0  0  0  0
    2.4290   57.5870   71.8710 C   0  0  0  0  0  0  0  0  0  0  0  0
    1.6340   57.0570   72.9040 C   0  0  0  0  0  0  0  0  0  0  0  0
    0.9090   57.9380   73.7250 C   0  0  0  0  0  0  0  0  0  0  0  0
    0.9220   59.3090   73.4230 C   0  0  0  0  0  0  0  0  0  0  0  0
    0.2660   57.3800   74.9800 C   0  0  2  0  0  0  0  0  0  0  0  0
   -0.4420   56.0770   74.6440 C   0  0  0  0  0  0  0  0  0  0  0  0
    0.5560   55.0140   74.1540 C   0  0  1  0  0  0  0  0  0  0  0  0
    1.5710   55.5520   73.1100 C   0  0  0  0  0  0  0  0  0  0  0  0
    1.3300   54.4090   75.3500 C   0  0  0  0  0  0  0  0  0  0  0  0
    2.5570   54.2800   75.3280 O   0  0  0  0  0  0  0  0  0  0  0  0
    0.5310   53.9790   76.5580 C   0  0  0  0  0  0  0  0  0  0  0  0
    0.5160   64.5940   71.0570 C   0  0  0  0  0  0  0  0  0  0  0  0
    1.7030   64.0010   71.5660 O   0  0  0  0  0  0  0  0  0  0  0  0
    3.1340   56.6910   71.1110 O   0  0  0  0  0  0  0  0  0  0  0  0
    0.0120   60.1370   74.0240 O   0  0  0  0  0  0  0  0  0  0  0  0
   -0.2110   53.9660   73.5470 O   0  0  0  0  0  0  0  0  0  0  0  0
   -0.6590   58.3180   75.5590 O   0  0  0  0  0  0  0  0  0  0  0  0
   -2.0130   57.8570   75.5230 C   0  0  1  0  0  0  0  0  0  0  0  0
   -2.5950   57.6300   76.9280 C   0  0  0  0  0  0  0  0  0  0  0  0
   -2.8180   58.9540   77.6620 C   0  0  1  0  0  0  0  0  0  0  0  0
   -3.5910   59.9550   76.7940 C   0  0  1  0  0  0  0  0  0  0  0  0
   -2.9130   60.0810   75.4220 C   0  0  1  0  0  0  0  0  0  0  0  0
   -2.8320   58.7900   74.8120 O   0  0  0  0  0  0  0  0  0  0  0  0
   -3.6750   60.9990   74.4720 C   0  0  0  0  0  0  0  0  0  0  0  0
   -3.6480   58.6910   78.8860 N   0  0  0  0  0  4  0  0  0  0  0  0
   -4.9410   59.4490   76.7210 O   0  0  0  0  0  0  0  0  0  0  0  0
    2.9342   64.7045   69.2566 H   0  0  0  0  0  0  0  0  0  0  0  0
    4.1944   63.1362   67.7896 H   0  0  0  0  0  0  0  0  0  0  0  0
    4.3850   60.7281   68.4055 H   0  0  0  0  0  0  0  0  0  0  0  0
    1.0542   57.1925   75.7241 H   0  0  0  0  0  0  0  0  0  0  0  0
   -0.9520   55.7030   75.5440 H   0  0  0  0  0  0  0  0  0  0  0  0
   -1.1677   56.2712   73.8405 H   0  0  0  0  0  0  0  0  0  0  0  0
    2.5721   55.2199   73.4221 H   0  0  0  0  0  0  0  0  0  0  0  0
    1.2217   55.1514   72.1469 H   0  0  0  0  0  0  0  0  0  0  0  0
    1.0673   54.2676   77.4740 H   0  0  0  0  0  0  0  0  0  0  0  0
   -0.4536   54.4690   76.5398 H   0  0  0  0  0  0  0  0  0  0  0  0
    0.3976   52.8873   76.5398 H   0  0  0  0  0  0  0  0  0  0  0  0
   -0.1225   64.9130   71.8940 H   0  0  0  0  0  0  0  0  0  0  0  0
    0.7773   65.4675   70.4415 H   0  0  0  0  0  0  0  0  0  0  0  0
   -0.0255   63.8605   70.4415 H   0  0  0  0  0  0  0  0  0  0  0  0
    3.0521   55.7202   71.2871 H   0  0  0  0  0  0  0  0  0  0  0  0
    0.0124   61.1054   73.8182 H   0  0  0  0  0  0  0  0  0  0  0  0
   -0.6210   53.4058   74.2528 H   0  0  0  0  0  0  0  0  0  0  0  0
   -2.0076   56.8869   75.0044 H   0  0  0  0  0  0  0  0  0  0  0  0
   -3.5575   57.1056   76.8360 H   0  0  0  0  0  0  0  0  0  0  0  0
   -1.8769   57.0306   77.5069 H   0  0  0  0  0  0  0  0  0  0  0  0
   -1.8323   59.3737   77.9116 H   0  0  0  0  0  0  0  0  0  0  0  0
   -3.6024   60.9725   77.2118 H   0  0  0  0  0  0  0  0  0  0  0  0
   -1.9165   60.5123   75.5977 H   0  0  0  0  0  0  0  0  0  0  0  0
   -4.2708   61.7168   75.0549 H   0  0  0  0  0  0  0  0  0  0  0  0
   -2.9608   61.5448   73.8379 H   0  0  0  0  0  0  0  0  0  0  0  0
   -4.3430   60.3975   73.8379 H   0  0  0  0  0  0  0  0  0  0  0  0
   -3.0834   58.8699   79.7287 H   0  0  0  0  0  0  0  0  0  0  0  0
   -4.4689   59.3131   78.8843 H   0  0  0  0  0  0  0  0  0  0  0  0
   -3.9609   57.7097   78.8843 H   0  0  0  0  0  0  0  0  0  0  0  0
   -5.2938   59.3168   77.6365 H   0  0  0  0  0  0  0  0  0  0  0  0
  2  1  2  0
  3  2  1  0
  4  3  2  0
  5  4  1  0
  6  5  2  0
  6  1  1  0
  7  6  1  0
  8  7  2  0
  9  7  1  0
 10  9  2  0
 11 10  1  0
 11  5  1  0
 12 11  2  0
 13 10  1  0
 14 13  2  0
 15 14  1  0
 16 15  2  0
 16  9  1  0
 17 15  1  0
 18 17  1  0
 19 18  1  0
 20 19  1  0
 20 14  1  0
 21 19  1  0
 22 21  2  0
 23 21  1  0
 25  1  1  0
 25 24  1  0
 26 13  1  0
 27 16  1  0
 19 28  1  6
 29 17  1  0
 30 29  1  0
 31 30  1  0
 32 31  1  0
 33 32  1  0
 34 33  1  0
 35 30  1  0
 35 34  1  0
 36 34  1  0
 37 32  1  0
 38 33  1  0
  2 39  1  0
  3 40  1  0
  4 41  1  0
 17 42  1  1
 18 43  1  0
 18 44  1  0
 20 45  1  0
 20 46  1  0
 23 47  1  0
 23 48  1  0
 23 49  1  0
 24 50  1  0
 24 51  1  0
 24 52  1  0
 26 53  1  0
 27 54  1  0
 28 55  1  0
 30 56  1  6
 31 57  1  0
 31 58  1  0
 32 59  1  1
 33 60  1  1
 34 61  1  1
 36 62  1  0
 36 63  1  0
 36 64  1  0
 37 65  1  0
 37 66  1  0
 37 67  1  0
 38 68  1  0
M  CHG  1  37   1
M  END
>  <score>  (1) 
-9.131

$$$$
=
     RDKit          3D

 68 72  0  0  0  0  0  0  0  0999 V2000
    1.9950   63.5500   70.5870 C   0  0  0  0  0  0  0  0  0  0  0  0
    3.0290   63.8600   69.6930 C   0  0  0  0  0  0  0  0  0  0  0  0
    4.0890   62.9740   69.4850 C   0  0  0  0  0  0  0  0  0  0  0  0
    4.1230   61.7580   70.1610 C   0  0  0  0  0  0  0  0  0  0  0  0
    3.0950   61.4310   71.0500 C   0  0  0  0  0  0  0  0  0  0  0  0
    2.0400   62.3230   71.2790 C   0  0  0  0  0  0  0  0  0  0  0  0
    1.0230   61.9480   72.2930 C   0  0  0  0  0  0  0  0  0  0  0  0
    0.3950   62.7880   72.9300 O   0  0  0  0  0  0  0  0  0  0  0  0
    0.8700   60.5160   72.6410 C   0  0  0  0  0  0  0  0  0  0  0  0
    1.9430   59.6520   72.4630 C   0  0  0  0  0  0  0  0  0  0  0  0
    3.1350   60.1260   71.7380 C   0  0  0  0  0  0  0  0  0  0  0  0
    4.1280   59.4080   71.6830 O   0  0  0  0  0  0  0  0  0  0  0  0
    1.8640   58.3380   72.9540 C   0  0  0  0  0  0  0  0  0  0  0  0
    0.7260   57.8840   73.6460 C   0  0  0  0  0  0  0  0  0  0  0  0
   -0.3510   58.7670   73.8380 C   0  0  0  0  0  0  0  0  0  0  0  0
   -0.2970   60.0380   73.2450 C   0  0  0  0  0  0  0  0  0  0  0  0
   -1.4520   58.3530   74.7950 C   0  0  2  0  0  0  0  0  0  0  0  0
   -1.8400   56.9080   74.5210 C   0  0  0  0  0  0  0  0  0  0  0  0
   -0.6570   55.9590   74.7780 C   0  0  1  0  0  0  0  0  0  0  0  0
    0.6800   56.4560   74.1670 C   0  0  0  0  0  0  0  0  0  0  0  0
   -0.4680   55.7310   76.2970 C   0  0  0  0  0  0  0  0  0  0  0  0
   -1.2540   55.0390   76.9500 O   0  0  0  0  0  0  0  0  0  0  0  0
    0.7200   56.3860   76.9620 C   0  0  0  0  0  0  0  0  0  0  0  0
    0.9520   65.6840   70.2950 C   0  0  0  0  0  0  0  0  0  0  0  0
    0.9140   64.3590   70.8090 O   0  0  0  0  0  0  0  0  0  0  0  0
    2.8970   57.4480   72.8100 O   0  0  0  0  0  0  0  0  0  0  0  0
   -1.4350   60.7960   73.1790 O   0  0  0  0  0  0  0  0  0  0  0  0
   -0.9920   54.7000   74.1790 O   0  0  0  0  0  0  0  0  0  0  0  0
   -2.6010   59.2100   74.6770 O   0  0  0  0  0  0  0  0  0  0  0  0
   -3.1860   59.5350   75.9420 C   0  0  1  0  0  0  0  0  0  0  0  0
   -2.8140   60.9490   76.4170 C   0  0  0  0  0  0  0  0  0  0  0  0
   -3.4930   62.0220   75.5640 C   0  0  1  0  0  0  0  0  0  0  0  0
   -4.9980   61.7610   75.4230 C   0  0  1  0  0  0  0  0  0  0  0  0
   -5.2290   60.3170   74.9530 C   0  0  1  0  0  0  0  0  0  0  0  0
   -4.6100   59.4140   75.8720 O   0  0  0  0  0  0  0  0  0  0  0  0
   -6.7080   59.9560   74.8700 C   0  0  0  0  0  0  0  0  0  0  0  0
   -3.3330   63.3510   76.2470 N   0  0  0  0  0  4  0  0  0  0  0  0
   -5.5670   62.0390   76.7200 O   0  0  0  0  0  0  0  0  0  0  0  0
    3.0056   64.8148   69.1472 H   0  0  0  0  0  0  0  0  0  0  0  0
    4.8970   63.2376   68.7867 H   0  0  0  0  0  0  0  0  0  0  0  0
    4.9550   61.0574   69.9965 H   0  0  0  0  0  0  0  0  0  0  0  0
   -1.0743   58.4464   75.8239 H   0  0  0  0  0  0  0  0  0  0  0  0
   -2.6746   56.6287   75.1809 H   0  0  0  0  0  0  0  0  0  0  0  0
   -2.1359   56.8197   73.4652 H   0  0  0  0  0  0  0  0  0  0  0  0
    1.4521   56.3641   74.9451 H   0  0  0  0  0  0  0  0  0  0  0  0
    0.8319   55.8279   73.2768 H   0  0  0  0  0  0  0  0  0  0  0  0
    0.6086   56.3246   78.0546 H   0  0  0  0  0  0  0  0  0  0  0  0
    1.6418   55.8686   76.6578 H   0  0  0  0  0  0  0  0  0  0  0  0
    0.7745   57.4417   76.6578 H   0  0  0  0  0  0  0  0  0  0  0  0
    0.9725   66.4005   71.1294 H   0  0  0  0  0  0  0  0  0  0  0  0
    1.8542   65.8126   69.6790 H   0  0  0  0  0  0  0  0  0  0  0  0
    0.0587   65.8641   69.6790 H   0  0  0  0  0  0  0  0  0  0  0  0
    2.8115   56.5285   73.1668 H   0  0  0  0  0  0  0  0  0  0  0  0
   -1.4082   61.6939   72.7629 H   0  0  0  0  0  0  0  0  0  0  0  0
   -1.1694   54.0335   74.8892 H   0  0  0  0  0  0  0  0  0  0  0  0
   -2.7815   58.8210   76.6745 H   0  0  0  0  0  0  0  0  0  0  0  0
   -3.1313   61.0699   77.4633 H   0  0  0  0  0  0  0  0  0  0  0  0
   -1.7248   61.0702   76.3225 H   0  0  0  0  0  0  0  0  0  0  0  0
   -3.0267   62.0082   74.5678 H   0  0  0  0  0  0  0  0  0  0  0  0
   -5.4800   62.3985   74.6671 H   0  0  0  0  0  0  0  0  0  0  0  0
   -4.7938   60.2364   73.9460 H   0  0  0  0  0  0  0  0  0  0  0  0
   -7.1185   59.8558   75.8856 H   0  0  0  0  0  0  0  0  0  0  0  0
   -7.2492   60.7484   74.3323 H   0  0  0  0  0  0  0  0  0  0  0  0
   -6.8233   59.0033   74.3323 H   0  0  0  0  0  0  0  0  0  0  0  0
   -3.3492   63.2164   77.2680 H   0  0  0  0  0  0  0  0  0  0  0  0
   -2.4351   63.7732   75.9705 H   0  0  0  0  0  0  0  0  0  0  0  0
   -4.1050   63.9743   75.9705 H   0  0  0  0  0  0  0  0  0  0  0  0
   -4.9435   61.7344   77.4261 H   0  0  0  0  0  0  0  0  0  0  0  0
  2  1  2  0
  3  2  1  0
  4  3  2  0
  5  4  1  0
  6  5  2  0
  6  1  1  0
  7  6  1  0
  8  7  2  0
  9  7  1  0
 10  9  2  0
 11 10  1  0
 11  5  1  0
 12 11  2  0
 13 10  1  0
 14 13  2  0
 15 14  1  0
 16 15  2  0
 16  9  1  0
 17 15  1  0
 18 17  1  0
 19 18  1  0
 20 19  1  0
 20 14  1  0
 21 19  1  0
 22 21  2  0
 23 21  1  0
 25  1  1  0
 25 24  1  0
 26 13  1  0
 27 16  1  0
 19 28  1  6
 29 17  1  0
 30 29  1  0
 31 30  1  0
 32 31  1  0
 33 32  1  0
 34 33  1  0
 35 30  1  0
 35 34  1  0
 36 34  1  0
 37 32  1  0
 38 33  1  0
  2 39  1  0
  3 40  1  0
  4 41  1  0
 17 42  1  1
 18 43  1  0
 18 44  1  0
 20 45  1  0
 20 46  1  0
 23 47  1  0
 23 48  1  0
 23 49  1  0
 24 50  1  0
 24 51  1  0
 24 52  1  0
 26 53  1  0
 27 54  1  0
 28 55  1  0
 30 56  1  1
 31 57  1  0
 31 58  1  0
 32 59  1  6
 33 60  1  6
 34 61  1  6
 36 62  1  0
 36 63  1  0
 36 64  1  0
 37 65  1  0
 37 66  1  0
 37 67  1  0
 38 68  1  0
M  CHG  1  37   1
M  END
>  <score>  (2) 
-8.701

$$$$
=
     RDKit          3D

 68 72  0  0  0  0  0  0  0  0999 V2000
    1.2630   62.6630   71.3880 C   0  0  0  0  0  0  0  0  0  0  0  0
    2.2490   62.9880   70.4460 C   0  0  0  0  0  0  0  0  0  0  0  0
    3.2640   62.0820   70.1280 C   0  0  0  0  0  0  0  0  0  0  0  0
    3.3000   60.8330   70.7390 C   0  0  0  0  0  0  0  0  0  0  0  0
    2.3190   60.4910   71.6760 C   0  0  0  0  0  0  0  0  0  0  0  0
    1.3110   61.4010   72.0140 C   0  0  0  0  0  0  0  0  0  0  0  0
    0.3470   61.0050   73.0720 C   0  0  0  0  0  0  0  0  0  0  0  0
   -0.2120   61.8300   73.7880 O   0  0  0  0  0  0  0  0  0  0  0  0
    0.1690   59.5630   73.3580 C   0  0  0  0  0  0  0  0  0  0  0  0
    1.2000   58.6770   73.0700 C   0  0  0  0  0  0  0  0  0  0  0  0
    2.3590   59.1520   72.2940 C   0  0  0  0  0  0  0  0  0  0  0  0
    3.3220   58.4090   72.1410 O   0  0  0  0  0  0  0  0  0  0  0  0
    1.1080   57.3430   73.4990 C   0  0  0  0  0  0  0  0  0  0  0  0
    0.0010   56.8880   74.2400 C   0  0  0  0  0  0  0  0  0  0  0  0
   -1.0320   57.7920   74.5430 C   0  0  0  0  0  0  0  0  0  0  0  0
   -0.9730   59.0890   74.0110 C   0  0  0  0  0  0  0  0  0  0  0  0
   -2.0840   57.3630   75.5470 C   0  0  2  0  0  0  0  0  0  0  0  0
   -2.5360   55.9460   75.2270 C   0  0  0  0  0  0  0  0  0  0  0  0
   -1.3710   54.9500   75.3610 C   0  0  1  0  0  0  0  0  0  0  0  0
   -0.0590   55.4370   74.6920 C   0  0  0  0  0  0  0  0  0  0  0  0
   -1.0960   54.6390   76.8520 C   0  0  0  0  0  0  0  0  0  0  0  0
    0.0360   54.7330   77.3340 O   0  0  0  0  0  0  0  0  0  0  0  0
   -2.2670   54.2170   77.7090 C   0  0  0  0  0  0  0  0  0  0  0  0
    0.3520   64.8760   71.4200 C   0  0  0  0  0  0  0  0  0  0  0  0
    0.2250   63.4910   71.7180 O   0  0  0  0  0  0  0  0  0  0  0  0
    2.1000   56.4320   73.2460 O   0  0  0  0  0  0  0  0  0  0  0  0
   -2.0880   59.8830   74.0550 O   0  0  0  0  0  0  0  0  0  0  0  0
   -1.7840   53.7330   74.7240 O   0  0  0  0  0  0  0  0  0  0  0  0
   -3.2100   58.2590   75.5450 O   0  0  0  0  0  0  0  0  0  0  0  0
   -4.4660   57.5740   75.5530 C   0  0  1  0  0  0  0  0  0  0  0  0
   -5.1240   57.5670   76.9420 C   0  0  0  0  0  0  0  0  0  0  0  0
   -5.6150   58.9610   77.3360 C   0  0  1  0  0  0  0  0  0  0  0  0
   -6.4590   59.5950   76.2220 C   0  0  1  0  0  0  0  0  0  0  0  0
   -5.6930   59.5290   74.8930 C   0  0  1  0  0  0  0  0  0  0  0  0
   -5.3580   58.1700   74.6060 O   0  0  0  0  0  0  0  0  0  0  0  0
   -6.5060   60.0670   73.7200 C   0  0  0  0  0  0  0  0  0  0  0  0
   -6.4960   58.8360   78.5460 N   0  0  0  0  0  4  0  0  0  0  0  0
   -7.7010   58.8590   76.2050 O   0  0  0  0  0  0  0  0  0  0  0  0
    2.2232   63.9697   69.9504 H   0  0  0  0  0  0  0  0  0  0  0  0
    4.0355   62.3568   69.3936 H   0  0  0  0  0  0  0  0  0  0  0  0
    4.0963   60.1173   70.4866 H   0  0  0  0  0  0  0  0  0  0  0  0
   -1.6400   57.3927   76.5530 H   0  0  0  0  0  0  0  0  0  0  0  0
   -3.3368   55.6582   75.9241 H   0  0  0  0  0  0  0  0  0  0  0  0
   -2.8997   55.9210   74.1892 H   0  0  0  0  0  0  0  0  0  0  0  0
    0.7563   55.2827   75.4141 H   0  0  0  0  0  0  0  0  0  0  0  0
    0.0175   54.8507   73.7644 H   0  0  0  0  0  0  0  0  0  0  0  0
   -1.9978   54.3140   78.7711 H   0  0  0  0  0  0  0  0  0  0  0  0
   -3.1323   54.8599   77.4898 H   0  0  0  0  0  0  0  0  0  0  0  0
   -2.5233   53.1700   77.4898 H   0  0  0  0  0  0  0  0  0  0  0  0
    0.4046   65.4494   72.3573 H   0  0  0  0  0  0  0  0  0  0  0  0
    1.2692   65.0428   70.8361 H   0  0  0  0  0  0  0  0  0  0  0  0
   -0.5196   65.2069   70.8361 H   0  0  0  0  0  0  0  0  0  0  0  0
    2.0067   55.4982   73.5613 H   0  0  0  0  0  0  0  0  0  0  0  0
   -2.0578   60.7998   73.6826 H   0  0  0  0  0  0  0  0  0  0  0  0
   -2.0122   53.0605   75.4137 H   0  0  0  0  0  0  0  0  0  0  0  0
   -4.2624   56.5292   75.2758 H   0  0  0  0  0  0  0  0  0  0  0  0
   -5.9804   56.8768   76.9285 H   0  0  0  0  0  0  0  0  0  0  0  0
   -4.3731   57.2444   77.6783 H   0  0  0  0  0  0  0  0  0  0  0  0
   -4.7332   59.5898   77.5283 H   0  0  0  0  0  0  0  0  0  0  0  0
   -6.6674   60.6620   76.3894 H   0  0  0  0  0  0  0  0  0  0  0  0
   -4.7955   60.1541   75.0104 H   0  0  0  0  0  0  0  0  0  0  0  0
   -7.3666   60.6365   74.1009 H   0  0  0  0  0  0  0  0  0  0  0  0
   -5.8732   60.7253   73.1066 H   0  0  0  0  0  0  0  0  0  0  0  0
   -6.8645   59.2273   73.1066 H   0  0  0  0  0  0  0  0  0  0  0  0
   -5.9228   58.9173   79.3979 H   0  0  0  0  0  0  0  0  0  0  0  0
   -7.2028   59.5851   78.5349 H   0  0  0  0  0  0  0  0  0  0  0  0
   -6.9665   57.9198   78.5349 H   0  0  0  0  0  0  0  0  0  0  0  0
   -7.9943   58.6852   77.1344 H   0  0  0  0  0  0  0  0  0  0  0  0
  2  1  2  0
  3  2  1  0
  4  3  2  0
  5  4  1  0
  6  5  2  0
  6  1  1  0
  7  6  1  0
  8  7  2  0
  9  7  1  0
 10  9  2  0
 11 10  1  0
 11  5  1  0
 12 11  2  0
 13 10  1  0
 14 13  2  0
 15 14  1  0
 16 15  2  0
 16  9  1  0
 17 15  1  0
 18 17  1  0
 19 18  1  0
 20 19  1  0
 20 14  1  0
 21 19  1  0
 22 21  2  0
 23 21  1  0
 25  1  1  0
 25 24  1  0
 26 13  1  0
 27 16  1  0
 19 28  1  6
 29 17  1  0
 30 29  1  0
 31 30  1  0
 32 31  1  0
 33 32  1  0
 34 33  1  0
 35 30  1  0
 35 34  1  0
 36 34  1  0
 37 32  1  0
 38 33  1  0
  2 39  1  0
  3 40  1  0
  4 41  1  0
 17 42  1  1
 18 43  1  0
 18 44  1  0
 20 45  1  0
 20 46  1  0
 23 47  1  0
 23 48  1  0
 23 49  1  0
 24 50  1  0
 24 51  1  0
 24 52  1  0
 26 53  1  0
 27 54  1  0
 28 55  1  0
 30 56  1  6
 31 57  1  0
 31 58  1  0
 32 59  1  1
 33 60  1  1
 34 61  1  1
 36 62  1  0
 36 63  1  0
 36 64  1  0
 37 65  1  0
 37 66  1  0
 37 67  1  0
 38 68  1  0
M  CHG  1  37   1
M  END
>  <score>  (3) 
-8.497

$$$$
=
     RDKit          3D

 68 72  0  0  0  0  0  0  0  0999 V2000
    3.6570   61.6630   71.1440 C   0  0  0  0  0  0  0  0  0  0  0  0
    4.0550   62.9160   70.6600 C   0  0  0  0  0  0  0  0  0  0  0  0
    3.1810   64.0060   70.6850 C   0  0  0  0  0  0  0  0  0  0  0  0
    1.9000   63.8590   71.2070 C   0  0  0  0  0  0  0  0  0  0  0  0
    1.4910   62.6160   71.7010 C   0  0  0  0  0  0  0  0  0  0  0  0
    2.3540   61.5150   71.6600 C   0  0  0  0  0  0  0  0  0  0  0  0
    1.8320   60.2070   72.1280 C   0  0  0  0  0  0  0  0  0  0  0  0
    2.2540   59.1410   71.6920 O   0  0  0  0  0  0  0  0  0  0  0  0
    0.6680   60.2020   73.0440 C   0  0  0  0  0  0  0  0  0  0  0  0
   -0.2140   61.2750   73.0350 C   0  0  0  0  0  0  0  0  0  0  0  0
    0.1380   62.4870   72.2750 C   0  0  0  0  0  0  0  0  0  0  0  0
   -0.6890   63.3860   72.1660 O   0  0  0  0  0  0  0  0  0  0  0  0
   -1.4100   61.1960   73.7690 C   0  0  0  0  0  0  0  0  0  0  0  0
   -1.7460   60.0400   74.4960 C   0  0  0  0  0  0  0  0  0  0  0  0
   -0.8590   58.9500   74.4890 C   0  0  0  0  0  0  0  0  0  0  0  0
    0.3790   59.0890   73.8420 C   0  0  0  0  0  0  0  0  0  0  0  0
   -1.3430   57.6310   75.0590 C   0  0  2  0  0  0  0  0  0  0  0  0
   -2.0490   57.8840   76.3820 C   0  0  0  0  0  0  0  0  0  0  0  0
   -3.2970   58.7600   76.1850 C   0  0  1  0  0  0  0  0  0  0  0  0
   -3.0530   59.9910   75.2720 C   0  0  0  0  0  0  0  0  0  0  0  0
   -4.4600   57.9200   75.6040 C   0  0  0  0  0  0  0  0  0  0  0  0
   -4.5630   56.7110   75.8320 O   0  0  0  0  0  0  0  0  0  0  0  0
   -5.4770   58.6320   74.7430 C   0  0  0  0  0  0  0  0  0  0  0  0
    5.8690   60.7770   71.3760 C   0  0  0  0  0  0  0  0  0  0  0  0
    4.4760   60.5670   71.1780 O   0  0  0  0  0  0  0  0  0  0  0  0
   -2.3160   62.2250   73.7870 O   0  0  0  0  0  0  0  0  0  0  0  0
    1.3600   58.1600   74.0630 O   0  0  0  0  0  0  0  0  0  0  0  0
   -3.6930   59.2250   77.4830 O   0  0  0  0  0  0  0  0  0  0  0  0
   -0.2570   56.7050   75.2410 O   0  0  0  0  0  0  0  0  0  0  0  0
   -0.5740   55.3810   74.8010 C   0  0  1  0  0  0  0  0  0  0  0  0
    0.3320   54.9080   73.6540 C   0  0  0  0  0  0  0  0  0  0  0  0
    1.7620   54.6570   74.1360 C   0  0  1  0  0  0  0  0  0  0  0  0
    1.7860   53.7710   75.3890 C   0  0  1  0  0  0  0  0  0  0  0  0
    0.8360   54.3480   76.4480 C   0  0  1  0  0  0  0  0  0  0  0  0
   -0.4780   54.4630   75.8950 O   0  0  0  0  0  0  0  0  0  0  0  0
    0.7430   53.4720   77.6930 C   0  0  0  0  0  0  0  0  0  0  0  0
    2.5120   53.9270   73.0590 N   0  0  0  0  0  4  0  0  0  0  0  0
    1.4100   52.4510   74.9410 O   0  0  0  0  0  0  0  0  0  0  0  0
    5.0696   63.0436   70.2547 H   0  0  0  0  0  0  0  0  0  0  0  0
    3.5060   64.9805   70.2918 H   0  0  0  0  0  0  0  0  0  0  0  0
    1.2116   64.7166   71.2312 H   0  0  0  0  0  0  0  0  0  0  0  0
   -2.0458   57.1785   74.3439 H   0  0  0  0  0  0  0  0  0  0  0  0
   -2.3516   56.9204   76.8177 H   0  0  0  0  0  0  0  0  0  0  0  0
   -1.3548   58.4109   77.0532 H   0  0  0  0  0  0  0  0  0  0  0  0
   -3.8729   60.0259   74.5395 H   0  0  0  0  0  0  0  0  0  0  0  0
   -3.0024   60.8465   75.9616 H   0  0  0  0  0  0  0  0  0  0  0  0
   -6.2080   59.1438   75.3862 H   0  0  0  0  0  0  0  0  0  0  0  0
   -4.9666   59.3711   74.1079 H   0  0  0  0  0  0  0  0  0  0  0  0
   -5.9968   57.8996   74.1079 H   0  0  0  0  0  0  0  0  0  0  0  0
    6.0853   60.8096   72.4540 H   0  0  0  0  0  0  0  0  0  0  0  0
    6.4333   59.9538   70.9135 H   0  0  0  0  0  0  0  0  0  0  0  0
    6.1655   61.7300   70.9135 H   0  0  0  0  0  0  0  0  0  0  0  0
   -3.1503   62.1408   74.3133 H   0  0  0  0  0  0  0  0  0  0  0  0
    2.2366   58.2488   73.6116 H   0  0  0  0  0  0  0  0  0  0  0  0
   -3.2365   58.6890   78.1790 H   0  0  0  0  0  0  0  0  0  0  0  0
   -1.6052   55.4090   74.4192 H   0  0  0  0  0  0  0  0  0  0  0  0
   -0.0746   53.9738   73.2394 H   0  0  0  0  0  0  0  0  0  0  0  0
    0.3595   55.6971   72.8881 H   0  0  0  0  0  0  0  0  0  0  0  0
    2.2166   55.6310   74.3698 H   0  0  0  0  0  0  0  0  0  0  0  0
    2.7737   53.7281   75.8712 H   0  0  0  0  0  0  0  0  0  0  0  0
    1.2423   55.3273   76.7409 H   0  0  0  0  0  0  0  0  0  0  0  0
    0.8100   54.1033   78.5913 H   0  0  0  0  0  0  0  0  0  0  0  0
   -0.2172   52.9353   77.6928 H   0  0  0  0  0  0  0  0  0  0  0  0
    1.5691   52.7456   77.6928 H   0  0  0  0  0  0  0  0  0  0  0  0
    3.1825   53.2744   73.4896 H   0  0  0  0  0  0  0  0  0  0  0  0
    1.8474   53.4003   72.4744 H   0  0  0  0  0  0  0  0  0  0  0  0
    3.0205   54.6056   72.4744 H   0  0  0  0  0  0  0  0  0  0  0  0
    1.2447   51.8707   75.7259 H   0  0  0  0  0  0  0  0  0  0  0  0
  2  1  2  0
  3  2  1  0
  4  3  2  0
  5  4  1  0
  6  5  2  0
  6  1  1  0
  7  6  1  0
  8  7  2  0
  9  7  1  0
 10  9  2  0
 11 10  1  0
 11  5  1  0
 12 11  2  0
 13 10  1  0
 14 13  2  0
 15 14  1  0
 16 15  2  0
 16  9  1  0
 17 15  1  0
 18 17  1  0
 19 18  1  0
 20 19  1  0
 20 14  1  0
 21 19  1  0
 22 21  2  0
 23 21  1  0
 25  1  1  0
 25 24  1  0
 26 13  1  0
 27 16  1  0
 19 28  1  1
 29 17  1  0
 30 29  1  0
 31 30  1  0
 32 31  1  0
 33 32  1  0
 34 33  1  0
 35 30  1  0
 35 34  1  0
 36 34  1  0
 37 32  1  0
 38 33  1  0
  2 39  1  0
  3 40  1  0
  4 41  1  0
 17 42  1  6
 18 43  1  0
 18 44  1  0
 20 45  1  0
 20 46  1  0
 23 47  1  0
 23 48  1  0
 23 49  1  0
 24 50  1  0
 24 51  1  0
 24 52  1  0
 26 53  1  0
 27 54  1  0
 28 55  1  0
 30 56  1  6
 31 57  1  0
 31 58  1  0
 32 59  1  1
 33 60  1  1
 34 61  1  1
 36 62  1  0
 36 63  1  0
 36 64  1  0
 37 65  1  0
 37 66  1  0
 37 67  1  0
 38 68  1  0
M  CHG  1  37   1
M  END
>  <score>  (4) 
-8.097

$$$$
=
     RDKit          3D

 68 72  0  0  0  0  0  0  0  0999 V2000
    3.5700   61.8520   70.6990 C   0  0  0  0  0  0  0  0  0  0  0  0
    3.8040   63.0480   70.0070 C   0  0  0  0  0  0  0  0  0  0  0  0
    2.9520   64.1450   70.1600 C   0  0  0  0  0  0  0  0  0  0  0  0
    1.8600   64.0640   71.0190 C   0  0  0  0  0  0  0  0  0  0  0  0
    1.6180   62.8800   71.7230 C   0  0  0  0  0  0  0  0  0  0  0  0
    2.4560   61.7700   71.5580 C   0  0  0  0  0  0  0  0  0  0  0  0
    2.0980   60.5200   72.2740 C   0  0  0  0  0  0  0  0  0  0  0  0
    2.4050   59.4120   71.8460 O   0  0  0  0  0  0  0  0  0  0  0  0
    1.2230   60.6170   73.4650 C   0  0  0  0  0  0  0  0  0  0  0  0
    0.3540   61.6940   73.5890 C   0  0  0  0  0  0  0  0  0  0  0  0
    0.4710   62.8220   72.6490 C   0  0  0  0  0  0  0  0  0  0  0  0
   -0.3680   63.7160   72.6790 O   0  0  0  0  0  0  0  0  0  0  0  0
   -0.6000   61.7010   74.6210 C   0  0  0  0  0  0  0  0  0  0  0  0
   -0.7110   60.6240   75.5200 C   0  0  0  0  0  0  0  0  0  0  0  0
    0.1590   59.5300   75.3810 C   0  0  0  0  0  0  0  0  0  0  0  0
    1.1760   59.5910   74.4150 C   0  0  0  0  0  0  0  0  0  0  0  0
   -0.1340   58.2770   76.1850 C   0  0  2  0  0  0  0  0  0  0  0  0
   -0.4630   58.6660   77.6180 C   0  0  0  0  0  0  0  0  0  0  0  0
   -1.7320   59.5330   77.6800 C   0  0  1  0  0  0  0  0  0  0  0  0
   -1.7600   60.6660   76.6200 C   0  0  0  0  0  0  0  0  0  0  0  0
   -2.9950   58.6530   77.5160 C   0  0  0  0  0  0  0  0  0  0  0  0
   -3.3250   57.8290   78.3730 O   0  0  0  0  0  0  0  0  0  0  0  0
   -3.8210   58.8390   76.2650 C   0  0  0  0  0  0  0  0  0  0  0  0
    5.6510   60.8130   71.2630 C   0  0  0  0  0  0  0  0  0  0  0  0
    4.3850   60.7550   70.6180 O   0  0  0  0  0  0  0  0  0  0  0  0
   -1.4830   62.7360   74.7820 O   0  0  0  0  0  0  0  0  0  0  0  0
    2.1940   58.6760   74.4530 O   0  0  0  0  0  0  0  0  0  0  0  0
   -1.7720   60.1270   78.9840 O   0  0  0  0  0  0  0  0  0  0  0  0
    0.9750   57.3620   76.1570 O   0  0  0  0  0  0  0  0  0  0  0  0
    0.6370   56.0620   76.6510 C   0  0  1  0  0  0  0  0  0  0  0  0
   -0.8680   55.7670   76.5480 C   0  0  0  0  0  0  0  0  0  0  0  0
   -1.3060   55.5860   75.0940 C   0  0  1  0  0  0  0  0  0  0  0  0
   -0.3990   54.5940   74.3530 C   0  0  1  0  0  0  0  0  0  0  0  0
    1.0710   54.9970   74.5430 C   0  0  1  0  0  0  0  0  0  0  0  0
    1.3690   55.0600   75.9400 O   0  0  0  0  0  0  0  0  0  0  0  0
    2.0390   54.0080   73.9030 C   0  0  0  0  0  0  0  0  0  0  0  0
   -2.6960   55.0170   75.0770 N   0  0  0  0  0  4  0  0  0  0  0  0
   -0.7110   53.2950   74.8990 O   0  0  0  0  0  0  0  0  0  0  0  0
    4.6706   63.1243   69.3339 H   0  0  0  0  0  0  0  0  0  0  0  0
    3.1445   65.0728   69.6013 H   0  0  0  0  0  0  0  0  0  0  0  0
    1.1901   64.9275   71.1437 H   0  0  0  0  0  0  0  0  0  0  0  0
   -0.9955   57.7641   75.7325 H   0  0  0  0  0  0  0  0  0  0  0  0
   -0.6226   57.7529   78.2103 H   0  0  0  0  0  0  0  0  0  0  0  0
    0.3776   59.2483   78.0233 H   0  0  0  0  0  0  0  0  0  0  0  0
   -2.7471   60.6394   76.1352 H   0  0  0  0  0  0  0  0  0  0  0  0
   -1.5377   61.5836   77.1845 H   0  0  0  0  0  0  0  0  0  0  0  0
   -4.8594   59.0728   76.5426 H   0  0  0  0  0  0  0  0  0  0  0  0
   -3.4052   59.6660   75.6707 H   0  0  0  0  0  0  0  0  0  0  0  0
   -3.7999   57.9136   75.6707 H   0  0  0  0  0  0  0  0  0  0  0  0
    5.5075   60.8064   72.3536 H   0  0  0  0  0  0  0  0  0  0  0  0
    6.2535   59.9415   70.9672 H   0  0  0  0  0  0  0  0  0  0  0  0
    6.1713   61.7359   70.9672 H   0  0  0  0  0  0  0  0  0  0  0  0
   -2.1439   62.7127   75.5187 H   0  0  0  0  0  0  0  0  0  0  0  0
    2.9160   58.7104   73.7765 H   0  0  0  0  0  0  0  0  0  0  0  0
   -1.7242   59.4166   79.6718 H   0  0  0  0  0  0  0  0  0  0  0  0
    0.9079   56.0435   77.7170 H   0  0  0  0  0  0  0  0  0  0  0  0
   -1.0904   54.8452   77.1056 H   0  0  0  0  0  0  0  0  0  0  0  0
   -1.4167   56.6221   76.9696 H   0  0  0  0  0  0  0  0  0  0  0  0
   -1.2540   56.5673   74.5998 H   0  0  0  0  0  0  0  0  0  0  0  0
   -0.5645   54.5845   73.2656 H   0  0  0  0  0  0  0  0  0  0  0  0
    1.1992   55.9741   74.0543 H   0  0  0  0  0  0  0  0  0  0  0  0
    2.5763   53.4591   74.6904 H   0  0  0  0  0  0  0  0  0  0  0  0
    1.4777   53.2975   73.2784 H   0  0  0  0  0  0  0  0  0  0  0  0
    2.7614   54.5539   73.2784 H   0  0  0  0  0  0  0  0  0  0  0  0
   -3.0239   54.8828   76.0441 H   0  0  0  0  0  0  0  0  0  0  0  0
   -3.3272   55.6673   74.5876 H   0  0  0  0  0  0  0  0  0  0  0  0
   -2.6900   54.1107   74.5876 H   0  0  0  0  0  0  0  0  0  0  0  0
   -0.6999   53.3413   75.8879 H   0  0  0  0  0  0  0  0  0  0  0  0
  2  1  2  0
  3  2  1  0
  4  3  2  0
  5  4  1  0
  6  5  2  0
  6  1  1  0
  7  6  1  0
  8  7  2  0
  9  7  1  0
 10  9  2  0
 11 10  1  0
 11  5  1  0
 12 11  2  0
 13 10  1  0
 14 13  2  0
 15 14  1  0
 16 15  2  0
 16  9  1  0
 17 15  1  0
 18 17  1  0
 19 18  1  0
 20 19  1  0
 20 14  1  0
 21 19  1  0
 22 21  2  0
 23 21  1  0
 25  1  1  0
 25 24  1  0
 26 13  1  0
 27 16  1  0
 19 28  1  1
 29 17  1  0
 30 29  1  0
 31 30  1  0
 32 31  1  0
 33 32  1  0
 34 33  1  0
 35 30  1  0
 35 34  1  0
 36 34  1  0
 37 32  1  0
 38 33  1  0
  2 39  1  0
  3 40  1  0
  4 41  1  0
 17 42  1  6
 18 43  1  0
 18 44  1  0
 20 45  1  0
 20 46  1  0
 23 47  1  0
 23 48  1  0
 23 49  1  0
 24 50  1  0
 24 51  1  0
 24 52  1  0
 26 53  1  0
 27 54  1  0
 28 55  1  0
 30 56  1  1
 31 57  1  0
 31 58  1  0
 32 59  1  6
 33 60  1  6
 34 61  1  6
 36 62  1  0
 36 63  1  0
 36 64  1  0
 37 65  1  0
 37 66  1  0
 37 67  1  0
 38 68  1  0
M  CHG  1  37   1
M  END
>  <score>  (5) 
-7.404

$$$$
=
     RDKit          3D

 68 72  0  0  0  0  0  0  0  0999 V2000
    0.7190   62.3870   72.6100 C   0  0  0  0  0  0  0  0  0  0  0  0
    1.5460   63.0650   71.7040 C   0  0  0  0  0  0  0  0  0  0  0  0
    2.5990   62.4070   71.0640 C   0  0  0  0  0  0  0  0  0  0  0  0
    2.8320   61.0580   71.3120 C   0  0  0  0  0  0  0  0  0  0  0  0
    2.0110   60.3670   72.2080 C   0  0  0  0  0  0  0  0  0  0  0  0
    0.9660   61.0240   72.8680 C   0  0  0  0  0  0  0  0  0  0  0  0
    0.1810   60.2520   73.8640 C   0  0  0  0  0  0  0  0  0  0  0  0
   -0.3650   60.7880   74.8230 O   0  0  0  0  0  0  0  0  0  0  0  0
    0.1820   58.7740   73.7680 C   0  0  0  0  0  0  0  0  0  0  0  0
    1.2530   58.1300   73.1610 C   0  0  0  0  0  0  0  0  0  0  0  0
    2.2570   58.9300   72.4380 C   0  0  0  0  0  0  0  0  0  0  0  0
    3.2630   58.3790   72.0050 O   0  0  0  0  0  0  0  0  0  0  0  0
    1.3460   56.7290   73.2240 C   0  0  0  0  0  0  0  0  0  0  0  0
    0.3870   55.9630   73.9130 C   0  0  0  0  0  0  0  0  0  0  0  0
   -0.6850   56.6200   74.5390 C   0  0  0  0  0  0  0  0  0  0  0  0
   -0.8200   58.0080   74.3720 C   0  0  0  0  0  0  0  0  0  0  0  0
   -1.5610   55.8190   75.4830 C   0  0  2  0  0  0  0  0  0  0  0  0
   -1.9060   54.4860   74.8380 C   0  0  0  0  0  0  0  0  0  0  0  0
   -0.6420   53.6450   74.5940 C   0  0  1  0  0  0  0  0  0  0  0  0
    0.5260   54.4500   73.9630 C   0  0  0  0  0  0  0  0  0  0  0  0
   -0.1580   53.0010   75.9160 C   0  0  0  0  0  0  0  0  0  0  0  0
   -0.9110   52.3190   76.6170 O   0  0  0  0  0  0  0  0  0  0  0  0
    1.2780   53.2330   76.3240 C   0  0  0  0  0  0  0  0  0  0  0  0
   -0.1150   64.1310   74.0220 C   0  0  0  0  0  0  0  0  0  0  0  0
   -0.3490   62.9650   73.2430 O   0  0  0  0  0  0  0  0  0  0  0  0
    2.3850   56.0460   72.6470 O   0  0  0  0  0  0  0  0  0  0  0  0
   -1.9940   58.6150   74.7280 O   0  0  0  0  0  0  0  0  0  0  0  0
   -1.0060   52.5890   73.6950 O   0  0  0  0  0  0  0  0  0  0  0  0
   -2.7610   56.5350   75.8240 O   0  0  0  0  0  0  0  0  0  0  0  0
   -3.1420   56.3640   77.1920 C   0  0  1  0  0  0  0  0  0  0  0  0
   -2.4020   57.3260   78.1340 C   0  0  0  0  0  0  0  0  0  0  0  0
   -2.8690   58.7700   77.9410 C   0  0  1  0  0  0  0  0  0  0  0  0
   -4.4000   58.8760   77.9780 C   0  0  1  0  0  0  0  0  0  0  0  0
   -5.0120   57.8590   77.0030 C   0  0  1  0  0  0  0  0  0  0  0  0
   -4.5540   56.5470   77.3360 O   0  0  0  0  0  0  0  0  0  0  0  0
   -6.5360   57.8480   77.0460 C   0  0  0  0  0  0  0  0  0  0  0  0
   -2.3380   59.6030   79.0720 N   0  0  0  0  0  4  0  0  0  0  0  0
   -4.7740   58.6460   79.3540 O   0  0  0  0  0  0  0  0  0  0  0  0
    1.3635   64.1293   71.4942 H   0  0  0  0  0  0  0  0  0  0  0  0
    3.2448   62.9562   70.3630 H   0  0  0  0  0  0  0  0  0  0  0  0
    3.6582   60.5376   70.8055 H   0  0  0  0  0  0  0  0  0  0  0  0
   -1.0039   55.6470   76.4157 H   0  0  0  0  0  0  0  0  0  0  0  0
   -2.5844   53.9305   75.5022 H   0  0  0  0  0  0  0  0  0  0  0  0
   -2.3879   54.6814   73.8687 H   0  0  0  0  0  0  0  0  0  0  0  0
    1.4340   54.2211   74.5402 H   0  0  0  0  0  0  0  0  0  0  0  0
    0.5475   54.1348   72.9093 H   0  0  0  0  0  0  0  0  0  0  0  0
    1.3500   53.2446   77.4216 H   0  0  0  0  0  0  0  0  0  0  0  0
    1.9080   52.4250   75.9237 H   0  0  0  0  0  0  0  0  0  0  0  0
    1.6215   54.1983   75.9237 H   0  0  0  0  0  0  0  0  0  0  0  0
   -0.1665   63.8746   75.0905 H   0  0  0  0  0  0  0  0  0  0  0  0
    0.8818   64.5336   73.7891 H   0  0  0  0  0  0  0  0  0  0  0  0
   -0.8793   64.8870   73.7891 H   0  0  0  0  0  0  0  0  0  0  0  0
    2.4230   55.0586   72.7082 H   0  0  0  0  0  0  0  0  0  0  0  0
   -2.1000   59.5928   74.6145 H   0  0  0  0  0  0  0  0  0  0  0  0
   -1.2805   51.7927   74.2152 H   0  0  0  0  0  0  0  0  0  0  0  0
   -2.8620   55.3390   77.4767 H   0  0  0  0  0  0  0  0  0  0  0  0
   -2.5929   57.0247   79.1746 H   0  0  0  0  0  0  0  0  0  0  0  0
   -1.3277   57.2770   77.9028 H   0  0  0  0  0  0  0  0  0  0  0  0
   -2.5027   59.1164   76.9633 H   0  0  0  0  0  0  0  0  0  0  0  0
   -4.7750   59.8580   77.6539 H   0  0  0  0  0  0  0  0  0  0  0  0
   -4.6954   58.1560   75.9923 H   0  0  0  0  0  0  0  0  0  0  0  0
   -6.8733   57.8456   78.0930 H   0  0  0  0  0  0  0  0  0  0  0  0
   -6.9236   58.7434   76.5380 H   0  0  0  0  0  0  0  0  0  0  0  0
   -6.9107   56.9471   76.5380 H   0  0  0  0  0  0  0  0  0  0  0  0
   -2.6097   59.1767   79.9694 H   0  0  0  0  0  0  0  0  0  0  0  0
   -1.3109   59.6498   79.0112 H   0  0  0  0  0  0  0  0  0  0  0  0
   -2.7292   60.5539   79.0112 H   0  0  0  0  0  0  0  0  0  0  0  0
   -4.1020   59.0593   79.9521 H   0  0  0  0  0  0  0  0  0  0  0  0
  2  1  2  0
  3  2  1  0
  4  3  2  0
  5  4  1  0
  6  5  2  0
  6  1  1  0
  7  6  1  0
  8  7  2  0
  9  7  1  0
 10  9  2  0
 11 10  1  0
 11  5  1  0
 12 11  2  0
 13 10  1  0
 14 13  2  0
 15 14  1  0
 16 15  2  0
 16  9  1  0
 17 15  1  0
 18 17  1  0
 19 18  1  0
 20 19  1  0
 20 14  1  0
 21 19  1  0
 22 21  2  0
 23 21  1  0
 25  1  1  0
 25 24  1  0
 26 13  1  0
 27 16  1  0
 19 28  1  6
 29 17  1  0
 30 29  1  0
 31 30  1  0
 32 31  1  0
 33 32  1  0
 34 33  1  0
 35 30  1  0
 35 34  1  0
 36 34  1  0
 37 32  1  0
 38 33  1  0
  2 39  1  0
  3 40  1  0
  4 41  1  0
 17 42  1  1
 18 43  1  0
 18 44  1  0
 20 45  1  0
 20 46  1  0
 23 47  1  0
 23 48  1  0
 23 49  1  0
 24 50  1  0
 24 51  1  0
 24 52  1  0
 26 53  1  0
 27 54  1  0
 28 55  1  0
 30 56  1  1
 31 57  1  0
 31 58  1  0
 32 59  1  6
 33 60  1  6
 34 61  1  6
 36 62  1  0
 36 63  1  0
 36 64  1  0
 37 65  1  0
 37 66  1  0
 37 67  1  0
 38 68  1  0
M  CHG  1  37   1
M  END
>  <score>  (6) 
-7.392

$$$$
=
     RDKit          3D

 68 72  0  0  0  0  0  0  0  0999 V2000
    3.6500   60.2150   70.6190 C   0  0  0  0  0  0  0  0  0  0  0  0
    4.1930   60.8130   69.4730 C   0  0  0  0  0  0  0  0  0  0  0  0
    3.7820   62.0840   69.0640 C   0  0  0  0  0  0  0  0  0  0  0  0
    2.8300   62.7800   69.8030 C   0  0  0  0  0  0  0  0  0  0  0  0
    2.2850   62.1990   70.9520 C   0  0  0  0  0  0  0  0  0  0  0  0
    2.6770   60.9180   71.3570 C   0  0  0  0  0  0  0  0  0  0  0  0
    2.0040   60.3280   72.5410 C   0  0  0  0  0  0  0  0  0  0  0  0
    1.8700   59.1170   72.6810 O   0  0  0  0  0  0  0  0  0  0  0  0
    1.3520   61.2420   73.5070 C   0  0  0  0  0  0  0  0  0  0  0  0
    0.9150   62.4900   73.0790 C   0  0  0  0  0  0  0  0  0  0  0  0
    1.2970   62.9630   71.7380 C   0  0  0  0  0  0  0  0  0  0  0  0
    0.8160   64.0080   71.3120 O   0  0  0  0  0  0  0  0  0  0  0  0
    0.1410   63.2870   73.9400 C   0  0  0  0  0  0  0  0  0  0  0  0
   -0.2240   62.8360   75.2220 C   0  0  0  0  0  0  0  0  0  0  0  0
    0.2070   61.5660   75.6450 C   0  0  0  0  0  0  0  0  0  0  0  0
    1.0700   60.8330   74.8150 C   0  0  0  0  0  0  0  0  0  0  0  0
   -0.3980   60.9920   76.9110 C   0  0  2  0  0  0  0  0  0  0  0  0
   -0.4140   62.0630   77.9910 C   0  0  0  0  0  0  0  0  0  0  0  0
   -1.3020   63.2500   77.5810 C   0  0  1  0  0  0  0  0  0  0  0  0
   -1.0670   63.7250   76.1220 C   0  0  0  0  0  0  0  0  0  0  0  0
   -2.7970   62.8930   77.7640 C   0  0  0  0  0  0  0  0  0  0  0  0
   -3.2070   62.3200   78.7770 O   0  0  0  0  0  0  0  0  0  0  0  0
   -3.7490   63.2740   76.6540 C   0  0  0  0  0  0  0  0  0  0  0  0
    3.5290   57.8310   70.4380 C   0  0  0  0  0  0  0  0  0  0  0  0
    4.0350   58.9890   71.0900 O   0  0  0  0  0  0  0  0  0  0  0  0
   -0.3190   64.5210   73.5640 O   0  0  0  0  0  0  0  0  0  0  0  0
    1.7190   59.7390   75.3210 O   0  0  0  0  0  0  0  0  0  0  0  0
   -0.9940   64.3320   78.4690 O   0  0  0  0  0  0  0  0  0  0  0  0
    0.3290   59.8360   77.3650 O   0  0  0  0  0  0  0  0  0  0  0  0
   -0.5250   58.7980   77.8530 C   0  0  1  0  0  0  0  0  0  0  0  0
   -1.4110   58.1970   76.7500 C   0  0  0  0  0  0  0  0  0  0  0  0
   -0.5890   57.3750   75.7560 C   0  0  1  0  0  0  0  0  0  0  0  0
    0.3220   56.3700   76.4750 C   0  0  1  0  0  0  0  0  0  0  0  0
    1.1420   57.0960   77.5530 C   0  0  1  0  0  0  0  0  0  0  0  0
    0.2550   57.7610   78.4560 O   0  0  0  0  0  0  0  0  0  0  0  0
    2.0110   56.1450   78.3680 C   0  0  0  0  0  0  0  0  0  0  0  0
   -1.5290   56.5840   74.8920 N   0  0  0  0  0  4  0  0  0  0  0  0
   -0.5580   55.3580   77.0100 O   0  0  0  0  0  0  0  0  0  0  0  0
    4.9529   60.2741   68.8880 H   0  0  0  0  0  0  0  0  0  0  0  0
    4.2112   62.5350   68.1571 H   0  0  0  0  0  0  0  0  0  0  0  0
    2.5079   63.7824   69.4846 H   0  0  0  0  0  0  0  0  0  0  0  0
   -1.4268   60.6703   76.6918 H   0  0  0  0  0  0  0  0  0  0  0  0
   -0.8040   61.6276   78.9229 H   0  0  0  0  0  0  0  0  0  0  0  0
    0.6133   62.4288   78.1353 H   0  0  0  0  0  0  0  0  0  0  0  0
   -2.0536   63.8332   75.6477 H   0  0  0  0  0  0  0  0  0  0  0  0
   -0.4876   64.6549   76.2198 H   0  0  0  0  0  0  0  0  0  0  0  0
   -4.6872   63.6495   77.0884 H   0  0  0  0  0  0  0  0  0  0  0  0
   -3.2927   64.0588   76.0328 H   0  0  0  0  0  0  0  0  0  0  0  0
   -3.9601   62.3911   76.0328 H   0  0  0  0  0  0  0  0  0  0  0  0
    3.2081   57.0967   71.1915 H   0  0  0  0  0  0  0  0  0  0  0  0
    2.6707   58.1099   69.8091 H   0  0  0  0  0  0  0  0  0  0  0  0
    4.3167   57.3907   69.8091 H   0  0  0  0  0  0  0  0  0  0  0  0
   -0.8622   65.0594   74.1926 H   0  0  0  0  0  0  0  0  0  0  0  0
    2.3298   59.2151   74.7442 H   0  0  0  0  0  0  0  0  0  0  0  0
   -1.0814   64.0249   79.4061 H   0  0  0  0  0  0  0  0  0  0  0  0
   -1.1892   59.2555   78.6010 H   0  0  0  0  0  0  0  0  0  0  0  0
   -2.1665   57.5457   77.2137 H   0  0  0  0  0  0  0  0  0  0  0  0
   -1.8886   59.0231   76.2028 H   0  0  0  0  0  0  0  0  0  0  0  0
    0.0274   58.0715   75.1687 H   0  0  0  0  0  0  0  0  0  0  0  0
    1.0604   55.8998   75.8089 H   0  0  0  0  0  0  0  0  0  0  0  0
    1.7991   57.8064   77.0300 H   0  0  0  0  0  0  0  0  0  0  0  0
    1.8460   56.3256   79.4405 H   0  0  0  0  0  0  0  0  0  0  0  0
    1.7440   55.1057   78.1258 H   0  0  0  0  0  0  0  0  0  0  0  0
    3.0701   56.3175   78.1258 H   0  0  0  0  0  0  0  0  0  0  0  0
   -2.1713   56.0435   75.4888 H   0  0  0  0  0  0  0  0  0  0  0  0
   -2.0716   57.2265   74.2973 H   0  0  0  0  0  0  0  0  0  0  0  0
   -0.9887   55.9395   74.2973 H   0  0  0  0  0  0  0  0  0  0  0  0
   -0.5322   55.3877   77.9992 H   0  0  0  0  0  0  0  0  0  0  0  0
  2  1  2  0
  3  2  1  0
  4  3  2  0
  5  4  1  0
  6  5  2  0
  6  1  1  0
  7  6  1  0
  8  7  2  0
  9  7  1  0
 10  9  2  0
 11 10  1  0
 11  5  1  0
 12 11  2  0
 13 10  1  0
 14 13  2  0
 15 14  1  0
 16 15  2  0
 16  9  1  0
 17 15  1  0
 18 17  1  0
 19 18  1  0
 20 19  1  0
 20 14  1  0
 21 19  1  0
 22 21  2  0
 23 21  1  0
 25  1  1  0
 25 24  1  0
 26 13  1  0
 27 16  1  0
 19 28  1  1
 29 17  1  0
 30 29  1  0
 31 30  1  0
 32 31  1  0
 33 32  1  0
 34 33  1  0
 35 30  1  0
 35 34  1  0
 36 34  1  0
 37 32  1  0
 38 33  1  0
  2 39  1  0
  3 40  1  0
  4 41  1  0
 17 42  1  6
 18 43  1  0
 18 44  1  0
 20 45  1  0
 20 46  1  0
 23 47  1  0
 23 48  1  0
 23 49  1  0
 24 50  1  0
 24 51  1  0
 24 52  1  0
 26 53  1  0
 27 54  1  0
 28 55  1  0
 30 56  1  1
 31 57  1  0
 31 58  1  0
 32 59  1  6
 33 60  1  6
 34 61  1  6
 36 62  1  0
 36 63  1  0
 36 64  1  0
 37 65  1  0
 37 66  1  0
 37 67  1  0
 38 68  1  0
M  CHG  1  37   1
M  END
>  <score>  (7) 
-7.08

$$$$
=
     RDKit          3D

 68 72  0  0  0  0  0  0  0  0999 V2000
    1.2640   63.8800   70.4350 C   0  0  0  0  0  0  0  0  0  0  0  0
    0.9060   65.1100   69.8660 C   0  0  0  0  0  0  0  0  0  0  0  0
    0.2620   66.0910   70.6230 C   0  0  0  0  0  0  0  0  0  0  0  0
   -0.0210   65.8610   71.9660 C   0  0  0  0  0  0  0  0  0  0  0  0
    0.3370   64.6420   72.5500 C   0  0  0  0  0  0  0  0  0  0  0  0
    0.9640   63.6460   71.7920 C   0  0  0  0  0  0  0  0  0  0  0  0
    1.2470   62.3470   72.4520 C   0  0  0  0  0  0  0  0  0  0  0  0
    1.2990   61.2930   71.8260 O   0  0  0  0  0  0  0  0  0  0  0  0
    1.3280   62.3120   73.9310 C   0  0  0  0  0  0  0  0  0  0  0  0
    0.6540   63.2730   74.6740 C   0  0  0  0  0  0  0  0  0  0  0  0
    0.0530   64.4260   73.9820 C   0  0  0  0  0  0  0  0  0  0  0  0
   -0.6430   65.2100   74.6180 O   0  0  0  0  0  0  0  0  0  0  0  0
    0.5790   63.1430   76.0720 C   0  0  0  0  0  0  0  0  0  0  0  0
    1.1540   62.0420   76.7340 C   0  0  0  0  0  0  0  0  0  0  0  0
    1.8210   61.0650   75.9770 C   0  0  0  0  0  0  0  0  0  0  0  0
    1.9800   61.2690   74.5970 C   0  0  0  0  0  0  0  0  0  0  0  0
    2.2090   59.7700   76.6640 C   0  0  2  0  0  0  0  0  0  0  0  0
    2.8390   60.0860   78.0120 C   0  0  0  0  0  0  0  0  0  0  0  0
    1.8360   60.7910   78.9400 C   0  0  1  0  0  0  0  0  0  0  0  0
    1.0470   61.9340   78.2470 C   0  0  0  0  0  0  0  0  0  0  0  0
    0.8340   59.7680   79.5290 C   0  0  0  0  0  0  0  0  0  0  0  0
    1.1930   58.8960   80.3250 O   0  0  0  0  0  0  0  0  0  0  0  0
   -0.6090   59.8720   79.0970 C   0  0  0  0  0  0  0  0  0  0  0  0
    3.2970   63.1000   69.4410 C   0  0  0  0  0  0  0  0  0  0  0  0
    1.9260   62.8930   69.7560 O   0  0  0  0  0  0  0  0  0  0  0  0
   -0.0790   64.0590   76.8500 O   0  0  0  0  0  0  0  0  0  0  0  0
    2.8580   60.4840   73.8990 O   0  0  0  0  0  0  0  0  0  0  0  0
    2.5880   61.3480   80.0260 O   0  0  0  0  0  0  0  0  0  0  0  0
    3.1160   58.9970   75.8580 O   0  0  0  0  0  0  0  0  0  0  0  0
    2.8030   57.6010   75.8520 C   0  0  1  0  0  0  0  0  0  0  0  0
    1.4360   57.3010   76.4870 C   0  0  0  0  0  0  0  0  0  0  0  0
    0.2880   57.8020   75.6080 C   0  0  1  0  0  0  0  0  0  0  0  0
    0.4450   57.3320   74.1560 C   0  0  1  0  0  0  0  0  0  0  0  0
    1.8510   57.6830   73.6480 C   0  0  1  0  0  0  0  0  0  0  0  0
    2.8280   57.0970   74.5130 O   0  0  0  0  0  0  0  0  0  0  0  0
    2.1100   57.1710   72.2360 C   0  0  0  0  0  0  0  0  0  0  0  0
   -1.0000   57.2270   76.1260 N   0  0  0  0  0  4  0  0  0  0  0  0
    0.1800   55.9120   74.1730 O   0  0  0  0  0  0  0  0  0  0  0  0
    1.1356   65.3053   68.8081 H   0  0  0  0  0  0  0  0  0  0  0  0
   -0.0218   67.0463   70.1573 H   0  0  0  0  0  0  0  0  0  0  0  0
   -0.5239   66.6344   72.5652 H   0  0  0  0  0  0  0  0  0  0  0  0
    1.3011   59.1664   76.8103 H   0  0  0  0  0  0  0  0  0  0  0  0
    3.1672   59.1481   78.4839 H   0  0  0  0  0  0  0  0  0  0  0  0
    3.6953   60.7569   77.8488 H   0  0  0  0  0  0  0  0  0  0  0  0
   -0.0163   61.7973   78.4935 H   0  0  0  0  0  0  0  0  0  0  0  0
    1.5021   62.8603   78.6276 H   0  0  0  0  0  0  0  0  0  0  0  0
   -1.2554   59.9186   79.9858 H   0  0  0  0  0  0  0  0  0  0  0  0
   -0.7469   60.7824   78.4952 H   0  0  0  0  0  0  0  0  0  0  0  0
   -0.8760   58.9908   78.4952 H   0  0  0  0  0  0  0  0  0  0  0  0
    3.8777   63.1877   70.3711 H   0  0  0  0  0  0  0  0  0  0  0  0
    3.6710   62.2482   68.8541 H   0  0  0  0  0  0  0  0  0  0  0  0
    3.4029   64.0243   68.8541 H   0  0  0  0  0  0  0  0  0  0  0  0
   -0.1143   63.9398   77.8322 H   0  0  0  0  0  0  0  0  0  0  0  0
    2.9774   60.6198   72.9257 H   0  0  0  0  0  0  0  0  0  0  0  0
    2.1929   61.0554   80.8853 H   0  0  0  0  0  0  0  0  0  0  0  0
    3.5695   57.0984   76.4602 H   0  0  0  0  0  0  0  0  0  0  0  0
    1.3351   56.2139   76.6216 H   0  0  0  0  0  0  0  0  0  0  0  0
    1.3828   57.8217   77.4545 H   0  0  0  0  0  0  0  0  0  0  0  0
    0.2930   58.9016   75.6375 H   0  0  0  0  0  0  0  0  0  0  0  0
   -0.2509   57.8271   73.4628 H   0  0  0  0  0  0  0  0  0  0  0  0
    1.9216   58.7807   73.6378 H   0  0  0  0  0  0  0  0  0  0  0  0
    2.6060   56.1905   72.2867 H   0  0  0  0  0  0  0  0  0  0  0  0
    1.1540   57.0711   71.7011 H   0  0  0  0  0  0  0  0  0  0  0  0
    2.7569   57.8819   71.7011 H   0  0  0  0  0  0  0  0  0  0  0  0
   -0.9886   57.2321   77.1559 H   0  0  0  0  0  0  0  0  0  0  0  0
   -1.7900   57.7953   75.7886 H   0  0  0  0  0  0  0  0  0  0  0  0
   -1.1043   56.2594   75.7886 H   0  0  0  0  0  0  0  0  0  0  0  0
    0.1215   55.5984   75.1102 H   0  0  0  0  0  0  0  0  0  0  0  0
  2  1  2  0
  3  2  1  0
  4  3  2  0
  5  4  1  0
  6  5  2  0
  6  1  1  0
  7  6  1  0
  8  7  2  0
  9  7  1  0
 10  9  2  0
 11 10  1  0
 11  5  1  0
 12 11  2  0
 13 10  1  0
 14 13  2  0
 15 14  1  0
 16 15  2  0
 16  9  1  0
 17 15  1  0
 18 17  1  0
 19 18  1  0
 20 19  1  0
 20 14  1  0
 21 19  1  0
 22 21  2  0
 23 21  1  0
 25  1  1  0
 25 24  1  0
 26 13  1  0
 27 16  1  0
 19 28  1  1
 29 17  1  0
 30 29  1  0
 31 30  1  0
 32 31  1  0
 33 32  1  0
 34 33  1  0
 35 30  1  0
 35 34  1  0
 36 34  1  0
 37 32  1  0
 38 33  1  0
  2 39  1  0
  3 40  1  0
  4 41  1  0
 17 42  1  1
 18 43  1  0
 18 44  1  0
 20 45  1  0
 20 46  1  0
 23 47  1  0
 23 48  1  0
 23 49  1  0
 24 50  1  0
 24 51  1  0
 24 52  1  0
 26 53  1  0
 27 54  1  0
 28 55  1  0
 30 56  1  1
 31 57  1  0
 31 58  1  0
 32 59  1  6
 33 60  1  6
 34 61  1  6
 36 62  1  0
 36 63  1  0
 36 64  1  0
 37 65  1  0
 37 66  1  0
 37 67  1  0
 38 68  1  0
M  CHG  1  37   1
M  END
>  <score>  (8) 
-6.721

$$$$
=
     RDKit          3D

 68 72  0  0  0  0  0  0  0  0999 V2000
    2.8660   59.8480   71.5340 C   0  0  0  0  0  0  0  0  0  0  0  0
    3.3860   60.7390   70.5840 C   0  0  0  0  0  0  0  0  0  0  0  0
    2.8440   62.0170   70.4270 C   0  0  0  0  0  0  0  0  0  0  0  0
    1.7830   62.4270   71.2280 C   0  0  0  0  0  0  0  0  0  0  0  0
    1.2600   61.5530   72.1860 C   0  0  0  0  0  0  0  0  0  0  0  0
    1.7830   60.2640   72.3340 C   0  0  0  0  0  0  0  0  0  0  0  0
    1.1320   59.3600   73.3150 C   0  0  0  0  0  0  0  0  0  0  0  0
    1.1380   58.1400   73.1830 O   0  0  0  0  0  0  0  0  0  0  0  0
    0.3310   59.9630   74.4050 C   0  0  0  0  0  0  0  0  0  0  0  0
   -0.2320   61.2200   74.2240 C   0  0  0  0  0  0  0  0  0  0  0  0
    0.1520   62.0150   73.0440 C   0  0  0  0  0  0  0  0  0  0  0  0
   -0.4310   63.0710   72.8180 O   0  0  0  0  0  0  0  0  0  0  0  0
   -1.1340   61.7210   75.1780 C   0  0  0  0  0  0  0  0  0  0  0  0
   -1.5000   60.9630   76.3050 C   0  0  0  0  0  0  0  0  0  0  0  0
   -0.9400   59.6850   76.4760 C   0  0  0  0  0  0  0  0  0  0  0  0
    0.0410   59.2490   75.5720 C   0  0  0  0  0  0  0  0  0  0  0  0
   -1.5290   58.7840   77.5450 C   0  0  2  0  0  0  0  0  0  0  0  0
   -1.7230   59.5840   78.8250 C   0  0  0  0  0  0  0  0  0  0  0  0
   -2.7270   60.7290   78.6150 C   0  0  1  0  0  0  0  0  0  0  0  0
   -2.4840   61.5360   77.3120 C   0  0  0  0  0  0  0  0  0  0  0  0
   -4.1760   60.1830   78.6120 C   0  0  0  0  0  0  0  0  0  0  0  0
   -4.5280   59.2770   79.3720 O   0  0  0  0  0  0  0  0  0  0  0  0
   -5.1550   60.8010   77.6420 C   0  0  0  0  0  0  0  0  0  0  0  0
    3.4250   57.6890   70.6660 C   0  0  0  0  0  0  0  0  0  0  0  0
    3.3730   58.5970   71.7590 O   0  0  0  0  0  0  0  0  0  0  0  0
   -1.7210   62.9520   75.0420 O   0  0  0  0  0  0  0  0  0  0  0  0
    0.7920   58.1460   75.8780 O   0  0  0  0  0  0  0  0  0  0  0  0
   -2.5920   61.6170   79.7340 O   0  0  0  0  0  0  0  0  0  0  0  0
   -0.6910   57.6420   77.7920 O   0  0  0  0  0  0  0  0  0  0  0  0
   -1.4220   56.5060   78.2630 C   0  0  1  0  0  0  0  0  0  0  0  0
   -2.5410   56.0850   77.2980 C   0  0  0  0  0  0  0  0  0  0  0  0
   -1.9740   55.4800   76.0120 C   0  0  1  0  0  0  0  0  0  0  0  0
   -0.9340   54.3920   76.3130 C   0  0  1  0  0  0  0  0  0  0  0  0
    0.1160   54.9390   77.2910 C   0  0  1  0  0  0  0  0  0  0  0  0
   -0.5350   55.4030   78.4760 O   0  0  0  0  0  0  0  0  0  0  0  0
    1.1390   53.8860   77.7030 C   0  0  0  0  0  0  0  0  0  0  0  0
   -3.0940   54.8280   75.2530 N   0  0  0  0  0  4  0  0  0  0  0  0
   -1.6790   53.2730   76.8390 O   0  0  0  0  0  0  0  0  0  0  0  0
    4.2321   60.4274   69.9539 H   0  0  0  0  0  0  0  0  0  0  0  0
    3.2565   62.6996   69.6694 H   0  0  0  0  0  0  0  0  0  0  0  0
    1.3574   63.4342   71.1082 H   0  0  0  0  0  0  0  0  0  0  0  0
   -2.5004   58.4094   77.1901 H   0  0  0  0  0  0  0  0  0  0  0  0
   -2.1002   58.9154   79.6129 H   0  0  0  0  0  0  0  0  0  0  0  0
   -0.7548   60.0172   79.1164 H   0  0  0  0  0  0  0  0  0  0  0  0
   -3.4536   61.6397   76.8030 H   0  0  0  0  0  0  0  0  0  0  0  0
   -2.0255   62.4780   77.6471 H   0  0  0  0  0  0  0  0  0  0  0  0
   -5.9559   61.3066   78.2015 H   0  0  0  0  0  0  0  0  0  0  0  0
   -4.6316   61.5327   77.0090 H   0  0  0  0  0  0  0  0  0  0  0  0
   -5.5905   60.0138   77.0090 H   0  0  0  0  0  0  0  0  0  0  0  0
    3.4840   56.6590   71.0475 H   0  0  0  0  0  0  0  0  0  0  0  0
    2.5189   57.8014   70.0525 H   0  0  0  0  0  0  0  0  0  0  0  0
    4.3123   57.9042   70.0525 H   0  0  0  0  0  0  0  0  0  0  0  0
   -2.3528   63.2780   75.7310 H   0  0  0  0  0  0  0  0  0  0  0  0
    1.4867   57.8297   75.2476 H   0  0  0  0  0  0  0  0  0  0  0  0
   -2.6704   61.1016   80.5756 H   0  0  0  0  0  0  0  0  0  0  0  0
   -1.8942   56.8001   79.2119 H   0  0  0  0  0  0  0  0  0  0  0  0
   -3.1783   55.3380   77.7938 H   0  0  0  0  0  0  0  0  0  0  0  0
   -3.1220   56.9802   77.0315 H   0  0  0  0  0  0  0  0  0  0  0  0
   -1.4993   56.2889   75.4373 H   0  0  0  0  0  0  0  0  0  0  0  0
   -0.3709   54.0719   75.4239 H   0  0  0  0  0  0  0  0  0  0  0  0
    0.6432   55.7521   76.7705 H   0  0  0  0  0  0  0  0  0  0  0  0
    1.1897   53.8338   78.8006 H   0  0  0  0  0  0  0  0  0  0  0  0
    0.8384   52.9065   77.3028 H   0  0  0  0  0  0  0  0  0  0  0  0
    2.1268   54.1581   77.3028 H   0  0  0  0  0  0  0  0  0  0  0  0
   -3.7742   54.4320   75.9174 H   0  0  0  0  0  0  0  0  0  0  0  0
   -3.5611   55.5292   74.6605 H   0  0  0  0  0  0  0  0  0  0  0  0
   -2.7149   54.0756   74.6605 H   0  0  0  0  0  0  0  0  0  0  0  0
   -1.6608   53.3003   77.8285 H   0  0  0  0  0  0  0  0  0  0  0  0
  2  1  2  0
  3  2  1  0
  4  3  2  0
  5  4  1  0
  6  5  2  0
  6  1  1  0
  7  6  1  0
  8  7  2  0
  9  7  1  0
 10  9  2  0
 11 10  1  0
 11  5  1  0
 12 11  2  0
 13 10  1  0
 14 13  2  0
 15 14  1  0
 16 15  2  0
 16  9  1  0
 17 15  1  0
 18 17  1  0
 19 18  1  0
 20 19  1  0
 20 14  1  0
 21 19  1  0
 22 21  2  0
 23 21  1  0
 25  1  1  0
 25 24  1  0
 26 13  1  0
 27 16  1  0
 19 28  1  1
 29 17  1  0
 30 29  1  0
 31 30  1  0
 32 31  1  0
 33 32  1  0
 34 33  1  0
 35 30  1  0
 35 34  1  0
 36 34  1  0
 37 32  1  0
 38 33  1  0
  2 39  1  0
  3 40  1  0
  4 41  1  0
 17 42  1  6
 18 43  1  0
 18 44  1  0
 20 45  1  0
 20 46  1  0
 23 47  1  0
 23 48  1  0
 23 49  1  0
 24 50  1  0
 24 51  1  0
 24 52  1  0
 26 53  1  0
 27 54  1  0
 28 55  1  0
 30 56  1  1
 31 57  1  0
 31 58  1  0
 32 59  1  6
 33 60  1  6
 34 61  1  6
 36 62  1  0
 36 63  1  0
 36 64  1  0
 37 65  1  0
 37 66  1  0
 37 67  1  0
 38 68  1  0
M  CHG  1  37   1
M  END
>  <score>  (9) 
-6.305

$$$$
