=
     RDKit          3D

 22 23  0  0  0  0  0  0  0  0999 V2000
    4.8890   65.9210   63.1270 O   0  0  0  0  0  0  0  0  0  0  0  0
    4.2510   66.8790   62.7600 C   0  0  0  0  0  0  0  0  0  0  0  0
    4.3570   67.3480   61.4470 N   0  0  0  0  0  4  0  0  0  0  0  0
    3.5640   68.3650   61.2900 C   0  0  0  0  0  0  0  0  0  0  0  0
    2.8550   68.7010   62.3680 O   0  0  0  0  0  0  0  0  0  0  0  0
    3.2500   67.7880   63.4420 C   0  0  2  0  0  0  0  0  0  0  0  0
    3.3930   69.0690   60.2070 N   0  0  0  0  0  0  0  0  0  0  0  0
    3.8090   68.5320   64.6320 C   0  0  0  0  0  0  0  0  0  0  0  0
    5.1200   69.0390   64.6450 C   0  0  0  0  0  0  0  0  0  0  0  0
    5.6060   69.7340   65.7550 C   0  0  0  0  0  0  0  0  0  0  0  0
    4.7900   69.9430   66.8620 C   0  0  0  0  0  0  0  0  0  0  0  0
    3.4830   69.4670   66.8600 C   0  0  0  0  0  0  0  0  0  0  0  0
    2.9930   68.7720   65.7520 C   0  0  0  0  0  0  0  0  0  0  0  0
    4.9675   66.9500   60.7191 H   0  0  0  0  0  0  0  0  0  0  0  0
    2.4138   67.2212   63.8773 H   0  0  0  0  0  0  0  0  0  0  0  0
    2.7312   69.8582   60.2049 H   0  0  0  0  0  0  0  0  0  0  0  0
    3.9197   68.8363   59.3530 H   0  0  0  0  0  0  0  0  0  0  0  0
    5.7706   68.8867   63.7712 H   0  0  0  0  0  0  0  0  0  0  0  0
    6.6371   70.1172   65.7537 H   0  0  0  0  0  0  0  0  0  0  0  0
    5.1778   70.4840   67.7378 H   0  0  0  0  0  0  0  0  0  0  0  0
    2.8346   69.6381   67.7320 H   0  0  0  0  0  0  0  0  0  0  0  0
    1.9551   68.4075   65.7554 H   0  0  0  0  0  0  0  0  0  0  0  0
  2  1  2  0
  3  2  1  0
  4  3  2  0
  5  4  1  0
  6  5  1  0
  6  2  1  0
  7  4  1  0
  8  6  1  0
  9  8  2  0
 10  9  1  0
 11 10  2  0
 12 11  1  0
 13  8  1  0
 13 12  2  0
  3 14  1  0
  6 15  1  1
  7 16  1  0
  7 17  1  0
  9 18  1  0
 10 19  1  0
 11 20  1  0
 12 21  1  0
 13 22  1  0
M  CHG  1   3   1
M  END
>  <score>  (1) 
-8.363

$$$$
=
     RDKit          3D

 22 23  0  0  0  0  0  0  0  0999 V2000
    4.8550   65.9320   63.1760 O   0  0  0  0  0  0  0  0  0  0  0  0
    4.2150   66.8830   62.7930 C   0  0  0  0  0  0  0  0  0  0  0  0
    4.3550   67.3570   61.4860 N   0  0  0  0  0  4  0  0  0  0  0  0
    3.5540   68.3640   61.3080 C   0  0  0  0  0  0  0  0  0  0  0  0
    2.8070   68.6860   62.3640 O   0  0  0  0  0  0  0  0  0  0  0  0
    3.1810   67.7740   63.4470 C   0  0  2  0  0  0  0  0  0  0  0  0
    3.4060   69.0700   60.2220 N   0  0  0  0  0  0  0  0  0  0  0  0
    3.6920   68.5220   64.6560 C   0  0  0  0  0  0  0  0  0  0  0  0
    2.8910   68.7380   65.7910 C   0  0  0  0  0  0  0  0  0  0  0  0
    3.3940   69.4230   66.9000 C   0  0  0  0  0  0  0  0  0  0  0  0
    4.7040   69.8910   66.8980 C   0  0  0  0  0  0  0  0  0  0  0  0
    5.5180   69.6690   65.7920 C   0  0  0  0  0  0  0  0  0  0  0  0
    5.0190   68.9850   64.6810 C   0  0  0  0  0  0  0  0  0  0  0  0
    4.9925   66.9692   60.7760 H   0  0  0  0  0  0  0  0  0  0  0  0
    2.3404   67.1933   63.8545 H   0  0  0  0  0  0  0  0  0  0  0  0
    2.7341   69.8505   60.2027 H   0  0  0  0  0  0  0  0  0  0  0  0
    3.9609   68.8473   59.3833 H   0  0  0  0  0  0  0  0  0  0  0  0
    1.8568   68.3636   65.8061 H   0  0  0  0  0  0  0  0  0  0  0  0
    2.7523   69.5927   67.7772 H   0  0  0  0  0  0  0  0  0  0  0  0
    5.0956   70.4358   67.7697 H   0  0  0  0  0  0  0  0  0  0  0  0
    6.5562   70.0326   65.7923 H   0  0  0  0  0  0  0  0  0  0  0  0
    5.6728   68.8064   63.8146 H   0  0  0  0  0  0  0  0  0  0  0  0
  2  1  2  0
  3  2  1  0
  4  3  2  0
  5  4  1  0
  6  5  1  0
  6  2  1  0
  7  4  1  0
  8  6  1  0
  9  8  2  0
 10  9  1  0
 11 10  2  0
 12 11  1  0
 13  8  1  0
 13 12  2  0
  3 14  1  0
  6 15  1  1
  7 16  1  0
  7 17  1  0
  9 18  1  0
 10 19  1  0
 11 20  1  0
 12 21  1  0
 13 22  1  0
M  CHG  1   3   1
M  END
>  <score>  (2) 
-8.325

$$$$
=
     RDKit          3D

 22 23  0  0  0  0  0  0  0  0999 V2000
    2.6320   69.0820   61.0520 O   0  0  0  0  0  0  0  0  0  0  0  0
    1.9380   68.7940   61.9990 C   0  0  0  0  0  0  0  0  0  0  0  0
    0.5880   69.1560   62.0310 N   0  0  0  0  0  4  0  0  0  0  0  0
    0.0540   68.7190   63.1320 C   0  0  0  0  0  0  0  0  0  0  0  0
    0.8790   68.0440   63.9320 O   0  0  0  0  0  0  0  0  0  0  0  0
    2.1960   68.0490   63.2910 C   0  0  2  0  0  0  0  0  0  0  0  0
   -1.1820   68.8650   63.5190 N   0  0  0  0  0  0  0  0  0  0  0  0
    3.2440   68.6900   64.1700 C   0  0  0  0  0  0  0  0  0  0  0  0
    3.0170   68.9470   65.5330 C   0  0  0  0  0  0  0  0  0  0  0  0
    4.0090   69.5300   66.3250 C   0  0  0  0  0  0  0  0  0  0  0  0
    5.2440   69.8560   65.7730 C   0  0  0  0  0  0  0  0  0  0  0  0
    5.4950   69.5900   64.4310 C   0  0  0  0  0  0  0  0  0  0  0  0
    4.5060   69.0070   63.6360 C   0  0  0  0  0  0  0  0  0  0  0  0
    0.0948   69.6853   61.2979 H   0  0  0  0  0  0  0  0  0  0  0  0
    2.6089   67.0458   63.1087 H   0  0  0  0  0  0  0  0  0  0  0  0
   -1.4897   68.4707   64.4194 H   0  0  0  0  0  0  0  0  0  0  0  0
   -1.8510   69.3746   62.9244 H   0  0  0  0  0  0  0  0  0  0  0  0
    2.0470   68.6860   65.9812 H   0  0  0  0  0  0  0  0  0  0  0  0
    3.8133   69.7320   67.3884 H   0  0  0  0  0  0  0  0  0  0  0  0
    6.0203   70.3232   66.3967 H   0  0  0  0  0  0  0  0  0  0  0  0
    6.4738   69.8392   63.9954 H   0  0  0  0  0  0  0  0  0  0  0  0
    4.7168   68.7928   62.5778 H   0  0  0  0  0  0  0  0  0  0  0  0
  2  1  2  0
  3  2  1  0
  4  3  2  0
  5  4  1  0
  6  5  1  0
  6  2  1  0
  7  4  1  0
  8  6  1  0
  9  8  2  0
 10  9  1  0
 11 10  2  0
 12 11  1  0
 13  8  1  0
 13 12  2  0
  3 14  1  0
  6 15  1  6
  7 16  1  0
  7 17  1  0
  9 18  1  0
 10 19  1  0
 11 20  1  0
 12 21  1  0
 13 22  1  0
M  CHG  1   3   1
M  END
>  <score>  (3) 
-8.12

$$$$
=
     RDKit          3D

 22 23  0  0  0  0  0  0  0  0999 V2000
    1.0940   66.5380   68.2540 O   0  0  0  0  0  0  0  0  0  0  0  0
    0.6830   67.4710   67.6040 C   0  0  0  0  0  0  0  0  0  0  0  0
   -0.2440   67.2720   66.5770 N   0  0  0  0  0  4  0  0  0  0  0  0
   -0.5460   68.4180   66.0450 C   0  0  0  0  0  0  0  0  0  0  0  0
    0.0620   69.4720   66.5900 O   0  0  0  0  0  0  0  0  0  0  0  0
    0.9460   68.9620   67.6400 C   0  0  2  0  0  0  0  0  0  0  0  0
   -1.3700   68.6360   65.0600 N   0  0  0  0  0  0  0  0  0  0  0  0
    2.3880   69.3370   67.3890 C   0  0  0  0  0  0  0  0  0  0  0  0
    3.0210   69.0800   66.1610 C   0  0  0  0  0  0  0  0  0  0  0  0
    4.3530   69.4480   65.9530 C   0  0  0  0  0  0  0  0  0  0  0  0
    5.0680   70.0870   66.9620 C   0  0  0  0  0  0  0  0  0  0  0  0
    4.4510   70.3680   68.1760 C   0  0  0  0  0  0  0  0  0  0  0  0
    3.1200   70.0020   68.3880 C   0  0  0  0  0  0  0  0  0  0  0  0
   -0.6271   66.3607   66.2877 H   0  0  0  0  0  0  0  0  0  0  0  0
    0.7518   69.3879   68.6354 H   0  0  0  0  0  0  0  0  0  0  0  0
   -1.5280   69.5967   64.7237 H   0  0  0  0  0  0  0  0  0  0  0  0
   -1.8636   67.8477   64.6174 H   0  0  0  0  0  0  0  0  0  0  0  0
    2.4617   68.5835   65.3543 H   0  0  0  0  0  0  0  0  0  0  0  0
    4.8377   69.2321   64.9894 H   0  0  0  0  0  0  0  0  0  0  0  0
    6.1187   70.3690   66.7993 H   0  0  0  0  0  0  0  0  0  0  0  0
    5.0126   70.8798   68.9714 H   0  0  0  0  0  0  0  0  0  0  0  0
    2.6385   70.2370   69.3487 H   0  0  0  0  0  0  0  0  0  0  0  0
  2  1  2  0
  3  2  1  0
  4  3  2  0
  5  4  1  0
  6  5  1  0
  6  2  1  0
  7  4  1  0
  8  6  1  0
  9  8  2  0
 10  9  1  0
 11 10  2  0
 12 11  1  0
 13  8  1  0
 13 12  2  0
  3 14  1  0
  6 15  1  1
  7 16  1  0
  7 17  1  0
  9 18  1  0
 10 19  1  0
 11 20  1  0
 12 21  1  0
 13 22  1  0
M  CHG  1   3   1
M  END
>  <score>  (4) 
-7.842

$$$$
=
     RDKit          3D

 22 23  0  0  0  0  0  0  0  0999 V2000
    1.1240   66.6150   68.3380 O   0  0  0  0  0  0  0  0  0  0  0  0
    0.6770   67.6730   67.9610 C   0  0  0  0  0  0  0  0  0  0  0  0
   -0.5560   67.7340   67.3070 N   0  0  0  0  0  4  0  0  0  0  0  0
   -0.8280   68.9720   67.0210 C   0  0  0  0  0  0  0  0  0  0  0  0
    0.0880   69.8570   67.4150 O   0  0  0  0  0  0  0  0  0  0  0  0
    1.1740   69.1010   68.0400 C   0  0  2  0  0  0  0  0  0  0  0  0
   -1.8850   69.4250   66.4090 N   0  0  0  0  0  0  0  0  0  0  0  0
    2.4920   69.3320   67.3390 C   0  0  0  0  0  0  0  0  0  0  0  0
    3.6020   69.8840   68.0030 C   0  0  0  0  0  0  0  0  0  0  0  0
    4.8130   70.0750   67.3320 C   0  0  0  0  0  0  0  0  0  0  0  0
    4.9380   69.7090   65.9960 C   0  0  0  0  0  0  0  0  0  0  0  0
    3.8580   69.1420   65.3280 C   0  0  0  0  0  0  0  0  0  0  0  0
    2.6450   68.9490   65.9950 C   0  0  0  0  0  0  0  0  0  0  0  0
   -1.1548   66.9255   67.0864 H   0  0  0  0  0  0  0  0  0  0  0  0
    1.3912   69.4014   69.0757 H   0  0  0  0  0  0  0  0  0  0  0  0
   -1.9880   70.4356   66.2386 H   0  0  0  0  0  0  0  0  0  0  0  0
   -2.6178   68.7726   66.0955 H   0  0  0  0  0  0  0  0  0  0  0  0
    3.5161   70.1686   69.0621 H   0  0  0  0  0  0  0  0  0  0  0  0
    5.6699   70.5162   67.8621 H   0  0  0  0  0  0  0  0  0  0  0  0
    5.8900   69.8678   65.4683 H   0  0  0  0  0  0  0  0  0  0  0  0
    3.9585   68.8451   64.2736 H   0  0  0  0  0  0  0  0  0  0  0  0
    1.7989   68.4914   65.4613 H   0  0  0  0  0  0  0  0  0  0  0  0
  2  1  2  0
  3  2  1  0
  4  3  2  0
  5  4  1  0
  6  5  1  0
  6  2  1  0
  7  4  1  0
  8  6  1  0
  9  8  2  0
 10  9  1  0
 11 10  2  0
 12 11  1  0
 13  8  1  0
 13 12  2  0
  3 14  1  0
  6 15  1  1
  7 16  1  0
  7 17  1  0
  9 18  1  0
 10 19  1  0
 11 20  1  0
 12 21  1  0
 13 22  1  0
M  CHG  1   3   1
M  END
>  <score>  (5) 
-7.826

$$$$
=
     RDKit          3D

 22 23  0  0  0  0  0  0  0  0999 V2000
    1.4090   66.2070   65.1260 O   0  0  0  0  0  0  0  0  0  0  0  0
    1.2700   67.2630   64.5540 C   0  0  0  0  0  0  0  0  0  0  0  0
    0.9320   67.3000   63.1980 N   0  0  0  0  0  4  0  0  0  0  0  0
    0.8200   68.5380   62.8190 C   0  0  0  0  0  0  0  0  0  0  0  0
    1.0300   69.4430   63.7750 O   0  0  0  0  0  0  0  0  0  0  0  0
    1.3740   68.7080   64.9940 C   0  0  2  0  0  0  0  0  0  0  0  0
    0.5220   68.9720   61.6270 N   0  0  0  0  0  0  0  0  0  0  0  0
    2.7370   69.0950   65.5160 C   0  0  0  0  0  0  0  0  0  0  0  0
    3.8650   69.1570   64.6790 C   0  0  0  0  0  0  0  0  0  0  0  0
    5.1120   69.5300   65.1870 C   0  0  0  0  0  0  0  0  0  0  0  0
    5.2510   69.8550   66.5320 C   0  0  0  0  0  0  0  0  0  0  0  0
    4.1420   69.8190   67.3720 C   0  0  0  0  0  0  0  0  0  0  0  0
    2.8940   69.4480   66.8680 C   0  0  0  0  0  0  0  0  0  0  0  0
    0.7937   66.4766   62.5949 H   0  0  0  0  0  0  0  0  0  0  0  0
    0.7155   68.9236   65.8484 H   0  0  0  0  0  0  0  0  0  0  0  0
    0.4623   69.9845   61.4476 H   0  0  0  0  0  0  0  0  0  0  0  0
    0.3462   68.3026   60.8642 H   0  0  0  0  0  0  0  0  0  0  0  0
    3.7646   68.9090   63.6120 H   0  0  0  0  0  0  0  0  0  0  0  0
    5.9866   69.5667   64.5209 H   0  0  0  0  0  0  0  0  0  0  0  0
    6.2356   70.1400   66.9312 H   0  0  0  0  0  0  0  0  0  0  0  0
    4.2489   70.0832   68.4344 H   0  0  0  0  0  0  0  0  0  0  0  0
    2.0216   69.4316   67.5378 H   0  0  0  0  0  0  0  0  0  0  0  0
  2  1  2  0
  3  2  1  0
  4  3  2  0
  5  4  1  0
  6  5  1  0
  6  2  1  0
  7  4  1  0
  8  6  1  0
  9  8  2  0
 10  9  1  0
 11 10  2  0
 12 11  1  0
 13  8  1  0
 13 12  2  0
  3 14  1  0
  6 15  1  1
  7 16  1  0
  7 17  1  0
  9 18  1  0
 10 19  1  0
 11 20  1  0
 12 21  1  0
 13 22  1  0
M  CHG  1   3   1
M  END
>  <score>  (6) 
-7.219

$$$$
=
     RDKit          3D

 22 23  0  0  0  0  0  0  0  0999 V2000
    4.9980   69.4660   63.1790 O   0  0  0  0  0  0  0  0  0  0  0  0
    4.0800   69.0280   63.8310 C   0  0  0  0  0  0  0  0  0  0  0  0
    2.7770   69.0350   63.3250 N   0  0  0  0  0  4  0  0  0  0  0  0
    1.9770   68.4960   64.1960 C   0  0  0  0  0  0  0  0  0  0  0  0
    2.5630   68.0690   65.3140 O   0  0  0  0  0  0  0  0  0  0  0  0
    3.9860   68.3960   65.2050 C   0  0  2  0  0  0  0  0  0  0  0  0
    0.6890   68.3300   64.0840 N   0  0  0  0  0  0  0  0  0  0  0  0
    4.4410   69.2990   66.3270 C   0  0  0  0  0  0  0  0  0  0  0  0
    5.7330   69.8510   66.3630 C   0  0  0  0  0  0  0  0  0  0  0  0
    6.1220   70.6920   67.4080 C   0  0  0  0  0  0  0  0  0  0  0  0
    5.2260   71.0040   68.4260 C   0  0  0  0  0  0  0  0  0  0  0  0
    3.9370   70.4850   68.3970 C   0  0  0  0  0  0  0  0  0  0  0  0
    3.5430   69.6430   67.3540 C   0  0  0  0  0  0  0  0  0  0  0  0
    2.4955   69.4082   62.4072 H   0  0  0  0  0  0  0  0  0  0  0  0
    4.6538   67.5274   65.3032 H   0  0  0  0  0  0  0  0  0  0  0  0
    0.1586   67.8865   64.8474 H   0  0  0  0  0  0  0  0  0  0  0  0
    0.2016   68.6424   63.2321 H   0  0  0  0  0  0  0  0  0  0  0  0
    6.4462   69.6179   65.5587 H   0  0  0  0  0  0  0  0  0  0  0  0
    7.1397   71.1090   67.4264 H   0  0  0  0  0  0  0  0  0  0  0  0
    5.5373   71.6602   69.2521 H   0  0  0  0  0  0  0  0  0  0  0  0
    3.2255   70.7377   69.1969 H   0  0  0  0  0  0  0  0  0  0  0  0
    2.5180   69.2441   67.3356 H   0  0  0  0  0  0  0  0  0  0  0  0
  2  1  2  0
  3  2  1  0
  4  3  2  0
  5  4  1  0
  6  5  1  0
  6  2  1  0
  7  4  1  0
  8  6  1  0
  9  8  2  0
 10  9  1  0
 11 10  2  0
 12 11  1  0
 13  8  1  0
 13 12  2  0
  3 14  1  0
  6 15  1  6
  7 16  1  0
  7 17  1  0
  9 18  1  0
 10 19  1  0
 11 20  1  0
 12 21  1  0
 13 22  1  0
M  CHG  1   3   1
M  END
>  <score>  (7) 
-7.155

$$$$
=
     RDKit          3D

 22 23  0  0  0  0  0  0  0  0999 V2000
   -0.1280   66.7910   66.4620 O   0  0  0  0  0  0  0  0  0  0  0  0
    0.6210   67.7250   66.6280 C   0  0  0  0  0  0  0  0  0  0  0  0
    0.4200   68.6230   67.6800 N   0  0  0  0  0  4  0  0  0  0  0  0
    1.3600   69.5200   67.6620 C   0  0  0  0  0  0  0  0  0  0  0  0
    2.2650   69.3720   66.6940 O   0  0  0  0  0  0  0  0  0  0  0  0
    1.8610   68.2070   65.9050 C   0  0  2  0  0  0  0  0  0  0  0  0
    1.5060   70.5230   68.4810 N   0  0  0  0  0  0  0  0  0  0  0  0
    1.6270   68.5660   64.4570 C   0  0  0  0  0  0  0  0  0  0  0  0
    2.6190   68.3930   63.4760 C   0  0  0  0  0  0  0  0  0  0  0  0
    2.3690   68.7230   62.1420 C   0  0  0  0  0  0  0  0  0  0  0  0
    1.1260   69.2190   61.7640 C   0  0  0  0  0  0  0  0  0  0  0  0
    0.1250   69.3770   62.7160 C   0  0  0  0  0  0  0  0  0  0  0  0
    0.3690   69.0490   64.0510 C   0  0  0  0  0  0  0  0  0  0  0  0
   -0.3511   68.5805   68.3616 H   0  0  0  0  0  0  0  0  0  0  0  0
    2.6280   67.4210   65.8417 H   0  0  0  0  0  0  0  0  0  0  0  0
    2.2974   71.1719   68.3647 H   0  0  0  0  0  0  0  0  0  0  0  0
    0.8300   70.6669   69.2447 H   0  0  0  0  0  0  0  0  0  0  0  0
    3.6030   67.9933   63.7622 H   0  0  0  0  0  0  0  0  0  0  0  0
    3.1584   68.5900   61.3875 H   0  0  0  0  0  0  0  0  0  0  0  0
    0.9351   69.4858   60.7140 H   0  0  0  0  0  0  0  0  0  0  0  0
   -0.8613   69.7612   62.4167 H   0  0  0  0  0  0  0  0  0  0  0  0
   -0.4322   69.1696   64.7950 H   0  0  0  0  0  0  0  0  0  0  0  0
  2  1  2  0
  3  2  1  0
  4  3  2  0
  5  4  1  0
  6  5  1  0
  6  2  1  0
  7  4  1  0
  8  6  1  0
  9  8  2  0
 10  9  1  0
 11 10  2  0
 12 11  1  0
 13  8  1  0
 13 12  2  0
  3 14  1  0
  6 15  1  6
  7 16  1  0
  7 17  1  0
  9 18  1  0
 10 19  1  0
 11 20  1  0
 12 21  1  0
 13 22  1  0
M  CHG  1   3   1
M  END
>  <score>  (8) 
-7.03

$$$$
=
     RDKit          3D

 22 23  0  0  0  0  0  0  0  0999 V2000
    6.0730   68.9870   63.8630 O   0  0  0  0  0  0  0  0  0  0  0  0
    5.0710   68.6390   63.2840 C   0  0  0  0  0  0  0  0  0  0  0  0
    4.7620   69.1500   62.0210 N   0  0  0  0  0  4  0  0  0  0  0  0
    3.6560   68.6130   61.6000 C   0  0  0  0  0  0  0  0  0  0  0  0
    3.1060   67.7280   62.4310 O   0  0  0  0  0  0  0  0  0  0  0  0
    3.9530   67.6750   63.6240 C   0  0  2  0  0  0  0  0  0  0  0  0
    3.0490   68.8440   60.4710 N   0  0  0  0  0  0  0  0  0  0  0  0
    3.1850   68.0410   64.8730 C   0  0  0  0  0  0  0  0  0  0  0  0
    2.0270   67.3480   65.2640 C   0  0  0  0  0  0  0  0  0  0  0  0
    1.3440   67.7010   66.4310 C   0  0  0  0  0  0  0  0  0  0  0  0
    1.8110   68.7400   67.2280 C   0  0  0  0  0  0  0  0  0  0  0  0
    2.9680   69.4240   66.8680 C   0  0  0  0  0  0  0  0  0  0  0  0
    3.6540   69.0740   65.7030 C   0  0  0  0  0  0  0  0  0  0  0  0
    5.3224   69.8431   61.5049 H   0  0  0  0  0  0  0  0  0  0  0  0
    4.3359   66.6706   63.8577 H   0  0  0  0  0  0  0  0  0  0  0  0
    2.1715   68.3528   60.2482 H   0  0  0  0  0  0  0  0  0  0  0  0
    3.4465   69.5178   59.8010 H   0  0  0  0  0  0  0  0  0  0  0  0
    1.6540   66.5187   64.6449 H   0  0  0  0  0  0  0  0  0  0  0  0
    0.4339   67.1550   66.7199 H   0  0  0  0  0  0  0  0  0  0  0  0
    1.2667   69.0209   68.1417 H   0  0  0  0  0  0  0  0  0  0  0  0
    3.3427   70.2413   67.5017 H   0  0  0  0  0  0  0  0  0  0  0  0
    4.5732   69.6137   65.4314 H   0  0  0  0  0  0  0  0  0  0  0  0
  2  1  2  0
  3  2  1  0
  4  3  2  0
  5  4  1  0
  6  5  1  0
  6  2  1  0
  7  4  1  0
  8  6  1  0
  9  8  2  0
 10  9  1  0
 11 10  2  0
 12 11  1  0
 13  8  1  0
 13 12  2  0
  3 14  1  0
  6 15  1  1
  7 16  1  0
  7 17  1  0
  9 18  1  0
 10 19  1  0
 11 20  1  0
 12 21  1  0
 13 22  1  0
M  CHG  1   3   1
M  END
>  <score>  (9) 
-6.524

$$$$
