=
     RDKit          3D

 95 99  0  0  0  0  0  0  0  0999 V2000
    1.9440   64.2100   70.7090 C   0  0  1  0  0  0  0  0  0  0  0  0
    0.7020   63.3230   70.6900 C   0  0  0  0  0  0  0  0  0  0  0  0
    0.7200   62.2560   71.7840 C   0  0  0  0  0  0  0  0  0  0  0  0
    1.9880   61.3480   71.7830 C   0  0  1  0  0  0  0  0  0  0  0  0
    3.2470   62.3060   71.7710 C   0  0  2  0  0  0  0  0  0  0  0  0
    3.2760   63.3990   70.6390 C   0  0  0  0  0  0  0  0  0  0  0  0
    3.5260   62.8320   69.2270 C   0  0  0  0  0  0  0  0  0  0  0  0
    4.4310   64.4060   70.9030 C   0  0  0  0  0  0  0  0  0  0  0  0
    4.5680   61.5320   71.9550 C   0  0  0  0  0  0  0  0  0  0  0  0
    4.5660   60.7030   73.2460 C   0  0  0  0  0  0  0  0  0  0  0  0
    3.3930   59.6790   73.3400 C   0  0  2  0  0  0  0  0  0  0  0  0
    2.0710   60.5050   73.1350 C   0  0  2  0  0  0  0  0  0  0  0  0
    0.7800   59.8030   73.6270 C   0  0  0  0  0  0  0  0  0  0  0  0
    0.6510   58.3230   73.3550 C   0  0  0  0  0  0  0  0  0  0  0  0
    1.3330   57.3440   74.3500 C   0  0  1  0  0  0  0  0  0  0  0  0
    2.6390   57.7790   75.1210 C   0  0  1  0  0  0  0  0  0  0  0  0
    3.3690   59.1160   74.7900 C   0  0  0  0  0  0  0  0  0  0  0  0
    2.4510   57.7640   76.6500 C   0  0  0  0  0  0  0  0  0  0  0  0
    1.8790   56.4730   77.2310 C   0  0  0  0  0  0  0  0  0  0  0  0
    1.0310   55.6380   76.2550 C   0  0  2  0  0  0  0  0  0  0  0  0
    0.2560   56.5360   75.2350 C   0  0  1  0  0  0  0  0  0  0  0  0
   -0.7100   57.5090   75.9590 C   0  0  0  0  0  0  0  0  0  0  0  0
   -0.6000   55.6500   74.2570 C   0  0  0  0  0  0  0  0  0  0  0  0
   -0.6400   54.1610   74.5950 C   0  0  0  0  0  0  0  0  0  0  0  0
   -0.9400   53.9330   76.0720 C   0  0  1  0  0  0  0  0  0  0  0  0
    0.2170   54.4770   76.9710 C   0  0  0  0  0  0  0  0  0  0  0  0
    1.2090   53.3010   77.2070 C   0  0  0  0  0  0  0  0  0  0  0  0
   -0.3320   54.8520   78.3670 C   0  0  0  0  0  0  0  0  0  0  0  0
    3.7410   58.5450   72.3530 C   0  0  0  0  0  0  0  0  0  0  0  0
    1.8920   60.4170   70.5580 C   0  0  0  0  0  0  0  0  0  0  0  0
    3.6030   56.7290   74.8430 O   0  0  0  0  0  0  0  0  0  0  0  0
    1.8790   65.1230   69.5920 O   0  0  0  0  0  0  0  0  0  0  0  0
    1.3260   67.1760   68.6140 C   0  0  0  0  0  0  0  0  0  0  0  0
    1.1060   66.2310   69.7540 C   0  0  0  0  0  0  0  0  0  0  0  0
    0.3420   66.4400   70.6860 O   0  0  0  0  0  0  0  0  0  0  0  0
   -2.1820   54.5950   76.4040 O   0  0  0  0  0  0  0  0  0  0  0  0
   -3.2350   53.7970   76.7250 C   0  0  0  0  0  0  0  0  0  0  0  0
   -3.5070   52.7250   76.2040 O   0  0  0  0  0  0  0  0  0  0  0  0
   -4.0330   54.4300   77.8240 C   0  0  0  0  0  0  0  0  0  0  0  0
    1.9503   64.7503   71.6672 H   0  0  0  0  0  0  0  0  0  0  0  0
   -0.1853   63.9574   70.8323 H   0  0  0  0  0  0  0  0  0  0  0  0
    0.6807   62.8034   69.7207 H   0  0  0  0  0  0  0  0  0  0  0  0
    0.6613   62.7626   72.7586 H   0  0  0  0  0  0  0  0  0  0  0  0
   -0.1375   61.5950   71.5896 H   0  0  0  0  0  0  0  0  0  0  0  0
    3.1269   62.9313   72.6680 H   0  0  0  0  0  0  0  0  0  0  0  0
    3.9686   61.8282   69.3080 H   0  0  0  0  0  0  0  0  0  0  0  0
    2.5721   62.7693   68.6829 H   0  0  0  0  0  0  0  0  0  0  0  0
    4.2157   63.4940   68.6829 H   0  0  0  0  0  0  0  0  0  0  0  0
    4.5706   64.5277   71.9873 H   0  0  0  0  0  0  0  0  0  0  0  0
    5.3600   64.0243   70.4542 H   0  0  0  0  0  0  0  0  0  0  0  0
    4.1795   65.3783   70.4542 H   0  0  0  0  0  0  0  0  0  0  0  0
    4.7075   60.8566   71.0981 H   0  0  0  0  0  0  0  0  0  0  0  0
    5.3873   62.2632   72.0188 H   0  0  0  0  0  0  0  0  0  0  0  0
    5.5145   60.1488   73.3028 H   0  0  0  0  0  0  0  0  0  0  0  0
    4.4386   61.4105   74.0786 H   0  0  0  0  0  0  0  0  0  0  0  0
    2.1517   61.3253   73.8634 H   0  0  0  0  0  0  0  0  0  0  0  0
    0.7207   59.9454   74.7161 H   0  0  0  0  0  0  0  0  0  0  0  0
   -0.0326   60.2686   73.0501 H   0  0  0  0  0  0  0  0  0  0  0  0
   -0.4226   58.0836   73.3423 H   0  0  0  0  0  0  0  0  0  0  0  0
    1.1818   58.1677   72.4041 H   0  0  0  0  0  0  0  0  0  0  0  0
    1.8196   56.6404   73.6584 H   0  0  0  0  0  0  0  0  0  0  0  0
    2.9038   59.8900   75.4182 H   0  0  0  0  0  0  0  0  0  0  0  0
    4.4250   58.8654   74.9693 H   0  0  0  0  0  0  0  0  0  0  0  0
    3.4333   57.9379   77.1136 H   0  0  0  0  0  0  0  0  0  0  0  0
    1.7108   58.5473   76.8702 H   0  0  0  0  0  0  0  0  0  0  0  0
    2.7197   55.8503   77.5709 H   0  0  0  0  0  0  0  0  0  0  0  0
    1.2021   56.7759   78.0435 H   0  0  0  0  0  0  0  0  0  0  0  0
    1.7119   55.0633   75.6099 H   0  0  0  0  0  0  0  0  0  0  0  0
   -0.5973   57.3954   77.0473 H   0  0  0  0  0  0  0  0  0  0  0  0
   -0.4717   58.5437   75.6717 H   0  0  0  0  0  0  0  0  0  0  0  0
   -1.7464   57.2781   75.6717 H   0  0  0  0  0  0  0  0  0  0  0  0
   -1.6323   56.0296   74.2693 H   0  0  0  0  0  0  0  0  0  0  0  0
   -0.1154   55.7266   73.2725 H   0  0  0  0  0  0  0  0  0  0  0  0
   -1.4233   53.6782   73.9922 H   0  0  0  0  0  0  0  0  0  0  0  0
    0.3467   53.7291   74.3718 H   0  0  0  0  0  0  0  0  0  0  0  0
   -1.0284   52.8524   76.2577 H   0  0  0  0  0  0  0  0  0  0  0  0
    1.3413   53.1442   78.2877 H   0  0  0  0  0  0  0  0  0  0  0  0
    0.8069   52.3848   76.7500 H   0  0  0  0  0  0  0  0  0  0  0  0
    2.1799   53.5430   76.7500 H   0  0  0  0  0  0  0  0  0  0  0  0
    0.3110   54.4128   79.1440 H   0  0  0  0  0  0  0  0  0  0  0  0
   -0.3422   55.9466   78.4751 H   0  0  0  0  0  0  0  0  0  0  0  0
   -1.3554   54.4633   78.4751 H   0  0  0  0  0  0  0  0  0  0  0  0
    4.0183   57.6414   72.9157 H   0  0  0  0  0  0  0  0  0  0  0  0
    2.8678   58.3291   71.7199 H   0  0  0  0  0  0  0  0  0  0  0  0
    4.5850   58.8561   71.7199 H   0  0  0  0  0  0  0  0  0  0  0  0
    1.7846   59.3758   70.8963 H   0  0  0  0  0  0  0  0  0  0  0  0
    1.0180   60.6976   69.9518 H   0  0  0  0  0  0  0  0  0  0  0  0
    2.8048   60.5133   69.9518 H   0  0  0  0  0  0  0  0  0  0  0  0
    3.9429   56.3588   75.6960 H   0  0  0  0  0  0  0  0  0  0  0  0
    1.5590   68.1767   69.0070 H   0  0  0  0  0  0  0  0  0  0  0  0
    2.1651   66.8192   67.9987 H   0  0  0  0  0  0  0  0  0  0  0  0
    0.4156   67.2265   67.9987 H   0  0  0  0  0  0  0  0  0  0  0  0
   -3.6323   54.1122   78.7979 H   0  0  0  0  0  0  0  0  0  0  0  0
   -3.9681   55.5249   77.7404 H   0  0  0  0  0  0  0  0  0  0  0  0
   -5.0844   54.1176   77.7404 H   0  0  0  0  0  0  0  0  0  0  0  0
  2  1  1  0
  3  2  1  0
  4  3  1  0
  5  4  1  0
  6  1  1  0
  6  5  1  0
  7  6  1  0
  8  6  1  0
  9  5  1  0
 10  9  1  0
 11 10  1  0
 12 11  1  0
 12  4  1  0
 13 12  1  0
 14 13  1  0
 15 14  1  0
 16 15  1  0
 17 16  1  0
 17 11  1  0
 18 16  1  0
 19 18  1  0
 20 19  1  0
 21 20  1  0
 21 15  1  0
 21 22  1  1
 23 21  1  0
 24 23  1  0
 25 24  1  0
 26 25  1  0
 26 20  1  0
 27 26  1  0
 28 26  1  0
 11 29  1  6
  4 30  1  6
 16 31  1  1
 32  1  1  0
 34 32  1  0
 34 33  1  0
 35 34  2  0
 36 25  1  0
 37 36  1  0
 38 37  2  0
 39 37  1  0
  1 40  1  1
  2 41  1  0
  2 42  1  0
  3 43  1  0
  3 44  1  0
  5 45  1  1
  7 46  1  0
  7 47  1  0
  7 48  1  0
  8 49  1  0
  8 50  1  0
  8 51  1  0
  9 52  1  0
  9 53  1  0
 10 54  1  0
 10 55  1  0
 12 56  1  1
 13 57  1  0
 13 58  1  0
 14 59  1  0
 14 60  1  0
 15 61  1  6
 17 62  1  0
 17 63  1  0
 18 64  1  0
 18 65  1  0
 19 66  1  0
 19 67  1  0
 20 68  1  6
 22 69  1  0
 22 70  1  0
 22 71  1  0
 23 72  1  0
 23 73  1  0
 24 74  1  0
 24 75  1  0
 25 76  1  6
 27 77  1  0
 27 78  1  0
 27 79  1  0
 28 80  1  0
 28 81  1  0
 28 82  1  0
 29 83  1  0
 29 84  1  0
 29 85  1  0
 30 86  1  0
 30 87  1  0
 30 88  1  0
 31 89  1  0
 33 90  1  0
 33 91  1  0
 33 92  1  0
 39 93  1  0
 39 94  1  0
 39 95  1  0
M  END
>  <score>  (1) 
-8.106

$$$$
=
     RDKit          3D

 95 99  0  0  0  0  0  0  0  0999 V2000
   -2.6020   53.5610   77.5820 C   0  0  1  0  0  0  0  0  0  0  0  0
   -3.0290   55.0270   77.5680 C   0  0  0  0  0  0  0  0  0  0  0  0
   -2.2670   55.8540   76.5320 C   0  0  0  0  0  0  0  0  0  0  0  0
   -0.7140   55.7820   76.6590 C   0  0  1  0  0  0  0  0  0  0  0  0
   -0.3210   54.2500   76.7020 C   0  0  2  0  0  0  0  0  0  0  0  0
   -1.0650   53.3730   77.7770 C   0  0  0  0  0  0  0  0  0  0  0  0
   -0.6330   53.6620   79.2280 C   0  0  0  0  0  0  0  0  0  0  0  0
   -0.7610   51.8670   77.5350 C   0  0  0  0  0  0  0  0  0  0  0  0
    1.2050   54.0400   76.6410 C   0  0  0  0  0  0  0  0  0  0  0  0
    1.8200   54.6940   75.3960 C   0  0  0  0  0  0  0  0  0  0  0  0
    1.5410   56.2240   75.2810 C   0  0  2  0  0  0  0  0  0  0  0  0
   -0.0200   56.3940   75.3600 C   0  0  2  0  0  0  0  0  0  0  0  0
   -0.5580   57.7440   74.8240 C   0  0  0  0  0  0  0  0  0  0  0  0
    0.2330   58.9870   75.1620 C   0  0  0  0  0  0  0  0  0  0  0  0
    1.4510   59.3340   74.2630 C   0  0  1  0  0  0  0  0  0  0  0  0
    2.2670   58.1840   73.5540 C   0  0  1  0  0  0  0  0  0  0  0  0
    1.9870   56.6820   73.8620 C   0  0  0  0  0  0  0  0  0  0  0  0
    2.2530   58.3140   72.0190 C   0  0  0  0  0  0  0  0  0  0  0  0
    2.6490   59.6820   71.4700 C   0  0  0  0  0  0  0  0  0  0  0  0
    2.4220   60.8620   72.4320 C   0  0  2  0  0  0  0  0  0  0  0  0
    1.1780   60.6360   73.3540 C   0  0  1  0  0  0  0  0  0  0  0  0
   -0.1200   60.4710   72.5220 C   0  0  0  0  0  0  0  0  0  0  0  0
    0.9750   61.8610   74.3190 C   0  0  0  0  0  0  0  0  0  0  0  0
    1.8900   63.0550   74.0560 C   0  0  0  0  0  0  0  0  0  0  0  0
    1.9160   63.4210   72.5760 C   0  0  1  0  0  0  0  0  0  0  0  0
    2.5590   62.2790   71.7260 C   0  0  0  0  0  0  0  0  0  0  0  0
    4.0800   62.5880   71.6130 C   0  0  0  0  0  0  0  0  0  0  0  0
    2.0110   62.3250   70.2810 C   0  0  0  0  0  0  0  0  0  0  0  0
    2.4340   56.8980   76.3440 C   0  0  0  0  0  0  0  0  0  0  0  0
   -0.3150   56.5720   77.9220 C   0  0  0  0  0  0  0  0  0  0  0  0
    3.6470   58.4120   73.9460 O   0  0  0  0  0  0  0  0  0  0  0  0
   -3.3070   52.8830   78.6450 O   0  0  0  0  0  0  0  0  0  0  0  0
   -4.3730   51.8340   76.8450 C   0  0  0  0  0  0  0  0  0  0  0  0
   -4.4350   52.2080   78.2940 C   0  0  0  0  0  0  0  0  0  0  0  0
   -5.3690   51.9390   79.0360 O   0  0  0  0  0  0  0  0  0  0  0  0
    0.5630   63.6710   72.1330 O   0  0  0  0  0  0  0  0  0  0  0  0
    0.1530   64.9670   72.1150 C   0  0  0  0  0  0  0  0  0  0  0  0
   -0.3540   65.5720   73.0480 O   0  0  0  0  0  0  0  0  0  0  0  0
    0.4110   65.5590   70.7630 C   0  0  0  0  0  0  0  0  0  0  0  0
   -2.8525   53.1340   76.5997 H   0  0  0  0  0  0  0  0  0  0  0  0
   -4.1035   55.0783   77.3380 H   0  0  0  0  0  0  0  0  0  0  0  0
   -2.8045   55.4478   78.5592 H   0  0  0  0  0  0  0  0  0  0  0  0
   -2.5466   55.4926   75.5314 H   0  0  0  0  0  0  0  0  0  0  0  0
   -2.5457   56.9040   76.7048 H   0  0  0  0  0  0  0  0  0  0  0  0
   -0.7282   53.8336   75.7689 H   0  0  0  0  0  0  0  0  0  0  0  0
   -1.3417   53.1879   79.9229 H   0  0  0  0  0  0  0  0  0  0  0  0
    0.3749   53.2557   79.3983 H   0  0  0  0  0  0  0  0  0  0  0  0
   -0.6239   54.7487   79.3983 H   0  0  0  0  0  0  0  0  0  0  0  0
   -0.6574   51.3538   78.5024 H   0  0  0  0  0  0  0  0  0  0  0  0
   -1.5857   51.4133   76.9657 H   0  0  0  0  0  0  0  0  0  0  0  0
    0.1751   51.7688   76.9657 H   0  0  0  0  0  0  0  0  0  0  0  0
    1.6617   54.4828   77.5384 H   0  0  0  0  0  0  0  0  0  0  0  0
    1.4001   52.9586   76.5914 H   0  0  0  0  0  0  0  0  0  0  0  0
    2.9090   54.5422   75.4276 H   0  0  0  0  0  0  0  0  0  0  0  0
    1.3517   54.2181   74.5218 H   0  0  0  0  0  0  0  0  0  0  0  0
   -0.4039   55.7011   74.5968 H   0  0  0  0  0  0  0  0  0  0  0  0
   -0.6046   57.6696   73.7275 H   0  0  0  0  0  0  0  0  0  0  0  0
   -1.5280   57.8809   75.3243 H   0  0  0  0  0  0  0  0  0  0  0  0
   -0.4606   59.8397   75.1190 H   0  0  0  0  0  0  0  0  0  0  0  0
    0.6674   58.7798   76.1511 H   0  0  0  0  0  0  0  0  0  0  0  0
    2.2102   59.5843   75.0186 H   0  0  0  0  0  0  0  0  0  0  0  0
    1.1961   56.3625   73.1674 H   0  0  0  0  0  0  0  0  0  0  0  0
    2.9827   56.2251   73.7623 H   0  0  0  0  0  0  0  0  0  0  0  0
    2.9520   57.5697   71.6098 H   0  0  0  0  0  0  0  0  0  0  0  0
    1.2081   58.1576   71.7130 H   0  0  0  0  0  0  0  0  0  0  0  0
    3.7187   59.6505   71.2157 H   0  0  0  0  0  0  0  0  0  0  0  0
    1.9978   59.8643   70.6024 H   0  0  0  0  0  0  0  0  0  0  0  0
    3.2577   60.8907   73.1467 H   0  0  0  0  0  0  0  0  0  0  0  0
   -0.9790   60.3618   73.2004 H   0  0  0  0  0  0  0  0  0  0  0  0
   -0.2642   61.3580   71.8877 H   0  0  0  0  0  0  0  0  0  0  0  0
   -0.0377   59.5761   71.8877 H   0  0  0  0  0  0  0  0  0  0  0  0
   -0.0662   62.2022   74.2213 H   0  0  0  0  0  0  0  0  0  0  0  0
    1.2266   61.5001   75.3272 H   0  0  0  0  0  0  0  0  0  0  0  0
    1.5258   63.9186   74.6318 H   0  0  0  0  0  0  0  0  0  0  0  0
    2.9106   62.7831   74.3632 H   0  0  0  0  0  0  0  0  0  0  0  0
    2.5288   64.3243   72.4402 H   0  0  0  0  0  0  0  0  0  0  0  0
    4.5122   62.6758   72.6207 H   0  0  0  0  0  0  0  0  0  0  0  0
    4.5803   61.7731   71.0692 H   0  0  0  0  0  0  0  0  0  0  0  0
    4.2227   63.5335   71.0692 H   0  0  0  0  0  0  0  0  0  0  0  0
    0.9152   62.4170   70.3072 H   0  0  0  0  0  0  0  0  0  0  0  0
    2.4391   63.1904   69.7539 H   0  0  0  0  0  0  0  0  0  0  0  0
    2.2888   61.4004   69.7539 H   0  0  0  0  0  0  0  0  0  0  0  0
    2.0760   56.6278   77.3484 H   0  0  0  0  0  0  0  0  0  0  0  0
    3.4723   56.5564   76.2206 H   0  0  0  0  0  0  0  0  0  0  0  0
    2.3902   57.9902   76.2206 H   0  0  0  0  0  0  0  0  0  0  0  0
   -0.6030   56.0017   78.8174 H   0  0  0  0  0  0  0  0  0  0  0  0
    0.7730   56.7340   77.9247 H   0  0  0  0  0  0  0  0  0  0  0  0
   -0.8304   57.5438   77.9247 H   0  0  0  0  0  0  0  0  0  0  0  0
    3.7120   58.4227   74.9338 H   0  0  0  0  0  0  0  0  0  0  0  0
   -4.1937   50.7526   76.7528 H   0  0  0  0  0  0  0  0  0  0  0  0
   -5.3259   52.0905   76.3590 H   0  0  0  0  0  0  0  0  0  0  0  0
   -3.5538   52.3842   76.3590 H   0  0  0  0  0  0  0  0  0  0  0  0
    0.8480   66.5618   70.8791 H   0  0  0  0  0  0  0  0  0  0  0  0
    1.1106   64.9161   70.2086 H   0  0  0  0  0  0  0  0  0  0  0  0
   -0.5362   65.6338   70.2086 H   0  0  0  0  0  0  0  0  0  0  0  0
  2  1  1  0
  3  2  1  0
  4  3  1  0
  5  4  1  0
  6  1  1  0
  6  5  1  0
  7  6  1  0
  8  6  1  0
  9  5  1  0
 10  9  1  0
 11 10  1  0
 12 11  1  0
 12  4  1  0
 13 12  1  0
 14 13  1  0
 15 14  1  0
 16 15  1  0
 17 16  1  0
 17 11  1  0
 18 16  1  0
 19 18  1  0
 20 19  1  0
 21 20  1  0
 21 15  1  0
 21 22  1  6
 23 21  1  0
 24 23  1  0
 25 24  1  0
 26 25  1  0
 26 20  1  0
 27 26  1  0
 28 26  1  0
 11 29  1  1
  4 30  1  1
 16 31  1  1
 32  1  1  0
 34 32  1  0
 34 33  1  0
 35 34  2  0
 36 25  1  0
 37 36  1  0
 38 37  2  0
 39 37  1  0
  1 40  1  6
  2 41  1  0
  2 42  1  0
  3 43  1  0
  3 44  1  0
  5 45  1  6
  7 46  1  0
  7 47  1  0
  7 48  1  0
  8 49  1  0
  8 50  1  0
  8 51  1  0
  9 52  1  0
  9 53  1  0
 10 54  1  0
 10 55  1  0
 12 56  1  6
 13 57  1  0
 13 58  1  0
 14 59  1  0
 14 60  1  0
 15 61  1  1
 17 62  1  0
 17 63  1  0
 18 64  1  0
 18 65  1  0
 19 66  1  0
 19 67  1  0
 20 68  1  1
 22 69  1  0
 22 70  1  0
 22 71  1  0
 23 72  1  0
 23 73  1  0
 24 74  1  0
 24 75  1  0
 25 76  1  1
 27 77  1  0
 27 78  1  0
 27 79  1  0
 28 80  1  0
 28 81  1  0
 28 82  1  0
 29 83  1  0
 29 84  1  0
 29 85  1  0
 30 86  1  0
 30 87  1  0
 30 88  1  0
 31 89  1  0
 33 90  1  0
 33 91  1  0
 33 92  1  0
 39 93  1  0
 39 94  1  0
 39 95  1  0
M  END
>  <score>  (2) 
-8.1

$$$$
=
     RDKit          3D

 95 99  0  0  0  0  0  0  0  0999 V2000
    2.4570   61.1660   71.0440 C   0  0  1  0  0  0  0  0  0  0  0  0
    3.1360   60.1280   71.9340 C   0  0  0  0  0  0  0  0  0  0  0  0
    2.1360   59.2380   72.6710 C   0  0  0  0  0  0  0  0  0  0  0  0
    1.0780   60.0120   73.5160 C   0  0  1  0  0  0  0  0  0  0  0  0
    0.4240   61.0950   72.5650 C   0  0  2  0  0  0  0  0  0  0  0  0
    1.4240   62.0490   71.8120 C   0  0  0  0  0  0  0  0  0  0  0  0
    2.1190   63.0770   72.7270 C   0  0  0  0  0  0  0  0  0  0  0  0
    0.6590   62.8800   70.7430 C   0  0  0  0  0  0  0  0  0  0  0  0
   -0.7710   61.8060   73.2300 C   0  0  0  0  0  0  0  0  0  0  0  0
   -1.8440   60.8090   73.6870 C   0  0  0  0  0  0  0  0  0  0  0  0
   -1.3200   59.7240   74.6770 C   0  0  2  0  0  0  0  0  0  0  0  0
   -0.0980   59.0340   73.9670 C   0  0  2  0  0  0  0  0  0  0  0  0
    0.2950   57.6510   74.5450 C   0  0  0  0  0  0  0  0  0  0  0  0
    0.2630   57.4940   76.0470 C   0  0  0  0  0  0  0  0  0  0  0  0
   -1.1030   57.1660   76.7090 C   0  0  1  0  0  0  0  0  0  0  0  0
   -2.4450   57.6770   76.0540 C   0  0  1  0  0  0  0  0  0  0  0  0
   -2.4340   58.6490   74.8350 C   0  0  0  0  0  0  0  0  0  0  0  0
   -3.3860   56.5200   75.6670 C   0  0  0  0  0  0  0  0  0  0  0  0
   -3.6710   55.5040   76.7700 C   0  0  0  0  0  0  0  0  0  0  0  0
   -2.5830   55.3980   77.8550 C   0  0  2  0  0  0  0  0  0  0  0  0
   -1.1520   55.6600   77.2790 C   0  0  1  0  0  0  0  0  0  0  0  0
   -0.7920   54.6360   76.1730 C   0  0  0  0  0  0  0  0  0  0  0  0
   -0.0690   55.5410   78.4140 C   0  0  0  0  0  0  0  0  0  0  0  0
   -0.5890   55.0420   79.7600 C   0  0  0  0  0  0  0  0  0  0  0  0
   -1.4630   53.8040   79.5950 C   0  0  1  0  0  0  0  0  0  0  0  0
   -2.7690   54.1380   78.8040 C   0  0  0  0  0  0  0  0  0  0  0  0
   -3.8590   54.5090   79.8510 C   0  0  0  0  0  0  0  0  0  0  0  0
   -3.2880   52.8720   78.0850 C   0  0  0  0  0  0  0  0  0  0  0  0
   -1.1080   60.4470   76.0240 C   0  0  0  0  0  0  0  0  0  0  0  0
    1.8040   60.6030   74.7410 C   0  0  0  0  0  0  0  0  0  0  0  0
   -3.1310   58.3900   77.1160 O   0  0  0  0  0  0  0  0  0  0  0  0
    3.4730   62.0130   70.4620 O   0  0  0  0  0  0  0  0  0  0  0  0
    3.6880   62.7570   68.2540 C   0  0  0  0  0  0  0  0  0  0  0  0
    3.9360   61.6520   69.2350 C   0  0  0  0  0  0  0  0  0  0  0  0
    4.4750   60.5910   68.9560 O   0  0  0  0  0  0  0  0  0  0  0  0
   -0.7050   52.7870   78.8990 O   0  0  0  0  0  0  0  0  0  0  0  0
    0.3120   52.2030   79.5860 C   0  0  0  0  0  0  0  0  0  0  0  0
    0.2720   51.8340   80.7500 O   0  0  0  0  0  0  0  0  0  0  0  0
    1.5130   52.0760   78.6990 C   0  0  0  0  0  0  0  0  0  0  0  0
    1.8968   60.6221   70.2692 H   0  0  0  0  0  0  0  0  0  0  0  0
    3.7773   59.4918   71.3063 H   0  0  0  0  0  0  0  0  0  0  0  0
    3.7190   60.6711   72.6923 H   0  0  0  0  0  0  0  0  0  0  0  0
    1.6020   58.6311   71.9250 H   0  0  0  0  0  0  0  0  0  0  0  0
    2.7203   58.6337   73.3805 H   0  0  0  0  0  0  0  0  0  0  0  0
    0.0104   60.5151   71.7268 H   0  0  0  0  0  0  0  0  0  0  0  0
    1.9396   62.8116   73.7793 H   0  0  0  0  0  0  0  0  0  0  0  0
    3.2007   63.0734   72.5273 H   0  0  0  0  0  0  0  0  0  0  0  0
    1.7126   64.0795   72.5273 H   0  0  0  0  0  0  0  0  0  0  0  0
   -0.0042   63.6004   71.2442 H   0  0  0  0  0  0  0  0  0  0  0  0
    1.3808   63.4220   70.1143 H   0  0  0  0  0  0  0  0  0  0  0  0
    0.0593   62.2054   70.1143 H   0  0  0  0  0  0  0  0  0  0  0  0
   -0.4100   62.3666   74.1049 H   0  0  0  0  0  0  0  0  0  0  0  0
   -1.2240   62.4802   72.4882 H   0  0  0  0  0  0  0  0  0  0  0  0
   -2.6491   61.3705   74.1834 H   0  0  0  0  0  0  0  0  0  0  0  0
   -2.1902   60.2789   72.7875 H   0  0  0  0  0  0  0  0  0  0  0  0
   -0.4880   58.7434   72.9804 H   0  0  0  0  0  0  0  0  0  0  0  0
   -0.3949   56.9070   74.1201 H   0  0  0  0  0  0  0  0  0  0  0  0
    1.3518   57.5195   74.2695 H   0  0  0  0  0  0  0  0  0  0  0  0
    0.9578   56.6820   76.3074 H   0  0  0  0  0  0  0  0  0  0  0  0
    0.5295   58.4877   76.4364 H   0  0  0  0  0  0  0  0  0  0  0  0
   -1.1011   57.8636   77.5595 H   0  0  0  0  0  0  0  0  0  0  0  0
   -2.3915   58.0198   73.9337 H   0  0  0  0  0  0  0  0  0  0  0  0
   -3.3350   59.2573   75.0026 H   0  0  0  0  0  0  0  0  0  0  0  0
   -4.3457   56.9554   75.3518 H   0  0  0  0  0  0  0  0  0  0  0  0
   -2.8674   55.9636   74.8723 H   0  0  0  0  0  0  0  0  0  0  0  0
   -4.6144   55.7875   77.2595 H   0  0  0  0  0  0  0  0  0  0  0  0
   -3.7118   54.5206   76.2788 H   0  0  0  0  0  0  0  0  0  0  0  0
   -2.7188   56.2285   78.5634 H   0  0  0  0  0  0  0  0  0  0  0  0
   -0.4613   53.6954   76.6377 H   0  0  0  0  0  0  0  0  0  0  0  0
   -1.6769   54.4450   75.5481 H   0  0  0  0  0  0  0  0  0  0  0  0
    0.0177   55.0407   75.5481 H   0  0  0  0  0  0  0  0  0  0  0  0
    0.7089   54.8435   78.0701 H   0  0  0  0  0  0  0  0  0  0  0  0
    0.3019   56.5616   78.5898 H   0  0  0  0  0  0  0  0  0  0  0  0
    0.2671   54.7923   80.4040 H   0  0  0  0  0  0  0  0  0  0  0  0
   -1.1988   55.8382   80.2120 H   0  0  0  0  0  0  0  0  0  0  0  0
   -1.7591   53.4387   80.5894 H   0  0  0  0  0  0  0  0  0  0  0  0
   -3.4553   54.3716   80.8650 H   0  0  0  0  0  0  0  0  0  0  0  0
   -4.1567   55.5591   79.7140 H   0  0  0  0  0  0  0  0  0  0  0  0
   -4.7355   53.8586   79.7140 H   0  0  0  0  0  0  0  0  0  0  0  0
   -3.5941   52.1253   78.8325 H   0  0  0  0  0  0  0  0  0  0  0  0
   -4.1506   53.1355   77.4554 H   0  0  0  0  0  0  0  0  0  0  0  0
   -2.4886   52.4542   77.4554 H   0  0  0  0  0  0  0  0  0  0  0  0
   -1.3123   59.7502   76.8503 H   0  0  0  0  0  0  0  0  0  0  0  0
   -0.0684   60.8003   76.0909 H   0  0  0  0  0  0  0  0  0  0  0  0
   -1.7922   61.3058   76.0909 H   0  0  0  0  0  0  0  0  0  0  0  0
    1.3376   60.2233   75.6620 H   0  0  0  0  0  0  0  0  0  0  0  0
    2.8632   60.3071   74.7175 H   0  0  0  0  0  0  0  0  0  0  0  0
    1.7292   61.7002   74.7175 H   0  0  0  0  0  0  0  0  0  0  0  0
   -2.8135   58.0600   77.9937 H   0  0  0  0  0  0  0  0  0  0  0  0
    3.4786   63.6900   68.7978 H   0  0  0  0  0  0  0  0  0  0  0  0
    4.5780   62.8928   67.6220 H   0  0  0  0  0  0  0  0  0  0  0  0
    2.8253   62.4995   67.6220 H   0  0  0  0  0  0  0  0  0  0  0  0
    2.4174   51.9804   79.3178 H   0  0  0  0  0  0  0  0  0  0  0  0
    1.4072   51.1840   78.0640 H   0  0  0  0  0  0  0  0  0  0  0  0
    1.5961   52.9704   78.0640 H   0  0  0  0  0  0  0  0  0  0  0  0
  2  1  1  0
  3  2  1  0
  4  3  1  0
  5  4  1  0
  6  1  1  0
  6  5  1  0
  7  6  1  0
  8  6  1  0
  9  5  1  0
 10  9  1  0
 11 10  1  0
 12 11  1  0
 12  4  1  0
 13 12  1  0
 14 13  1  0
 15 14  1  0
 16 15  1  0
 17 16  1  0
 17 11  1  0
 18 16  1  0
 19 18  1  0
 20 19  1  0
 21 20  1  0
 21 15  1  0
 21 22  1  6
 23 21  1  0
 24 23  1  0
 25 24  1  0
 26 25  1  0
 26 20  1  0
 27 26  1  0
 28 26  1  0
 11 29  1  1
  4 30  1  1
 16 31  1  1
 32  1  1  0
 34 32  1  0
 34 33  1  0
 35 34  2  0
 36 25  1  0
 37 36  1  0
 38 37  2  0
 39 37  1  0
  1 40  1  6
  2 41  1  0
  2 42  1  0
  3 43  1  0
  3 44  1  0
  5 45  1  6
  7 46  1  0
  7 47  1  0
  7 48  1  0
  8 49  1  0
  8 50  1  0
  8 51  1  0
  9 52  1  0
  9 53  1  0
 10 54  1  0
 10 55  1  0
 12 56  1  6
 13 57  1  0
 13 58  1  0
 14 59  1  0
 14 60  1  0
 15 61  1  1
 17 62  1  0
 17 63  1  0
 18 64  1  0
 18 65  1  0
 19 66  1  0
 19 67  1  0
 20 68  1  1
 22 69  1  0
 22 70  1  0
 22 71  1  0
 23 72  1  0
 23 73  1  0
 24 74  1  0
 24 75  1  0
 25 76  1  1
 27 77  1  0
 27 78  1  0
 27 79  1  0
 28 80  1  0
 28 81  1  0
 28 82  1  0
 29 83  1  0
 29 84  1  0
 29 85  1  0
 30 86  1  0
 30 87  1  0
 30 88  1  0
 31 89  1  0
 33 90  1  0
 33 91  1  0
 33 92  1  0
 39 93  1  0
 39 94  1  0
 39 95  1  0
M  END
>  <score>  (3) 
-8.047

$$$$
=
     RDKit          3D

 95 99  0  0  0  0  0  0  0  0999 V2000
   -4.7300   55.2440   78.1120 C   0  0  1  0  0  0  0  0  0  0  0  0
   -4.6090   56.7480   77.8760 C   0  0  0  0  0  0  0  0  0  0  0  0
   -3.5550   57.0980   76.8260 C   0  0  0  0  0  0  0  0  0  0  0  0
   -2.1360   56.5170   77.1100 C   0  0  1  0  0  0  0  0  0  0  0  0
   -2.3140   54.9670   77.3780 C   0  0  2  0  0  0  0  0  0  0  0  0
   -3.3700   54.5700   78.4760 C   0  0  0  0  0  0  0  0  0  0  0  0
   -2.9330   54.9060   79.9160 C   0  0  0  0  0  0  0  0  0  0  0  0
   -3.6080   53.0330   78.4510 C   0  0  0  0  0  0  0  0  0  0  0  0
   -0.9600   54.2390   77.4920 C   0  0  0  0  0  0  0  0  0  0  0  0
   -0.0950   54.4480   76.2420 C   0  0  0  0  0  0  0  0  0  0  0  0
    0.1920   55.9460   75.9130 C   0  0  2  0  0  0  0  0  0  0  0  0
   -1.2100   56.6510   75.8190 C   0  0  2  0  0  0  0  0  0  0  0  0
   -1.2080   58.0090   75.0720 C   0  0  0  0  0  0  0  0  0  0  0  0
   -0.0460   58.9390   75.3300 C   0  0  0  0  0  0  0  0  0  0  0  0
    1.2570   58.7080   74.5170 C   0  0  1  0  0  0  0  0  0  0  0  0
    1.6470   57.2560   74.0380 C   0  0  1  0  0  0  0  0  0  0  0  0
    0.8380   56.0060   74.4990 C   0  0  0  0  0  0  0  0  0  0  0  0
    1.7520   57.1530   72.5040 C   0  0  0  0  0  0  0  0  0  0  0  0
    2.6330   58.2030   71.8320 C   0  0  0  0  0  0  0  0  0  0  0  0
    2.7920   59.5190   72.6150 C   0  0  2  0  0  0  0  0  0  0  0  0
    1.5060   59.8740   73.4330 C   0  0  1  0  0  0  0  0  0  0  0  0
    0.2760   60.0430   72.5060 C   0  0  0  0  0  0  0  0  0  0  0  0
    1.7050   61.2230   74.2170 C   0  0  0  0  0  0  0  0  0  0  0  0
    2.9950   61.9770   73.8980 C   0  0  0  0  0  0  0  0  0  0  0  0
    3.2190   62.0860   72.3950 C   0  0  1  0  0  0  0  0  0  0  0  0
    3.4560   60.6800   71.7570 C   0  0  0  0  0  0  0  0  0  0  0  0
    4.9910   60.4270   71.7550 C   0  0  0  0  0  0  0  0  0  0  0  0
    3.0290   60.6960   70.2710 C   0  0  0  0  0  0  0  0  0  0  0  0
    1.2140   56.4220   76.9670 C   0  0  0  0  0  0  0  0  0  0  0  0
   -1.5440   57.2990   78.2990 C   0  0  0  0  0  0  0  0  0  0  0  0
    2.9970   57.0510   74.5300 O   0  0  0  0  0  0  0  0  0  0  0  0
   -5.6790   55.0160   79.1770 O   0  0  0  0  0  0  0  0  0  0  0  0
   -7.9000   55.7430   79.2960 C   0  0  0  0  0  0  0  0  0  0  0  0
   -6.9480   54.6970   78.8040 C   0  0  0  0  0  0  0  0  0  0  0  0
   -7.2800   53.7090   78.1650 O   0  0  0  0  0  0  0  0  0  0  0  0
    2.0650   62.7170   71.7960 O   0  0  0  0  0  0  0  0  0  0  0  0
    2.2900   63.8440   71.0690 C   0  0  0  0  0  0  0  0  0  0  0  0
    3.3750   64.2280   70.6590 O   0  0  0  0  0  0  0  0  0  0  0  0
    0.9960   64.5650   70.8410 C   0  0  0  0  0  0  0  0  0  0  0  0
   -5.0689   54.7878   77.1702 H   0  0  0  0  0  0  0  0  0  0  0  0
   -5.5833   57.1305   77.5376 H   0  0  0  0  0  0  0  0  0  0  0  0
   -4.2980   57.2090   78.8251 H   0  0  0  0  0  0  0  0  0  0  0  0
   -3.8963   56.7100   75.8550 H   0  0  0  0  0  0  0  0  0  0  0  0
   -3.4518   58.1930   76.8416 H   0  0  0  0  0  0  0  0  0  0  0  0
   -2.7976   54.5821   76.4681 H   0  0  0  0  0  0  0  0  0  0  0  0
   -3.5969   54.3955   80.6292 H   0  0  0  0  0  0  0  0  0  0  0  0
   -1.8977   54.5691   80.0731 H   0  0  0  0  0  0  0  0  0  0  0  0
   -2.9926   55.9931   80.0731 H   0  0  0  0  0  0  0  0  0  0  0  0
   -3.6667   52.6542   79.4821 H   0  0  0  0  0  0  0  0  0  0  0  0
   -4.5504   52.8164   77.9266 H   0  0  0  0  0  0  0  0  0  0  0  0
   -2.7753   52.5415   77.9266 H   0  0  0  0  0  0  0  0  0  0  0  0
   -0.4196   54.6268   78.3681 H   0  0  0  0  0  0  0  0  0  0  0  0
   -1.1580   53.1619   77.5953 H   0  0  0  0  0  0  0  0  0  0  0  0
    0.8668   53.9374   76.3975 H   0  0  0  0  0  0  0  0  0  0  0  0
   -0.6594   54.0375   75.3917 H   0  0  0  0  0  0  0  0  0  0  0  0
   -1.7780   56.0259   75.1142 H   0  0  0  0  0  0  0  0  0  0  0  0
   -1.2255   57.7931   73.9935 H   0  0  0  0  0  0  0  0  0  0  0  0
   -2.0891   58.5441   75.4558 H   0  0  0  0  0  0  0  0  0  0  0  0
   -0.3898   59.9618   75.1161 H   0  0  0  0  0  0  0  0  0  0  0  0
    0.2394   58.7447   76.3744 H   0  0  0  0  0  0  0  0  0  0  0  0
    2.0189   58.7914   75.3060 H   0  0  0  0  0  0  0  0  0  0  0  0
    0.0191   55.8793   73.7755 H   0  0  0  0  0  0  0  0  0  0  0  0
    1.6103   55.2246   74.5527 H   0  0  0  0  0  0  0  0  0  0  0  0
    2.1598   56.1614   72.2584 H   0  0  0  0  0  0  0  0  0  0  0  0
    0.7351   57.3227   72.1204 H   0  0  0  0  0  0  0  0  0  0  0  0
    3.6333   57.7681   71.6895 H   0  0  0  0  0  0  0  0  0  0  0  0
    2.1316   58.4659   70.8889 H   0  0  0  0  0  0  0  0  0  0  0  0
    3.5482   59.3659   73.3990 H   0  0  0  0  0  0  0  0  0  0  0  0
   -0.6298   60.1675   73.1176 H   0  0  0  0  0  0  0  0  0  0  0  0
    0.4145   60.9305   71.8711 H   0  0  0  0  0  0  0  0  0  0  0  0
    0.1700   59.1510   71.8711 H   0  0  0  0  0  0  0  0  0  0  0  0
    0.8576   61.8828   73.9793 H   0  0  0  0  0  0  0  0  0  0  0  0
    1.7656   60.9513   75.2812 H   0  0  0  0  0  0  0  0  0  0  0  0
    2.9327   62.9889   74.3247 H   0  0  0  0  0  0  0  0  0  0  0  0
    3.8377   61.4203   74.3338 H   0  0  0  0  0  0  0  0  0  0  0  0
    4.1181   62.6920   72.2097 H   0  0  0  0  0  0  0  0  0  0  0  0
    5.3541   60.3672   72.7916 H   0  0  0  0  0  0  0  0  0  0  0  0
    5.2061   59.4813   71.2360 H   0  0  0  0  0  0  0  0  0  0  0  0
    5.4982   61.2537   71.2360 H   0  0  0  0  0  0  0  0  0  0  0  0
    1.9317   60.7371   70.2052 H   0  0  0  0  0  0  0  0  0  0  0  0
    3.4594   61.5786   69.7753 H   0  0  0  0  0  0  0  0  0  0  0  0
    3.3921   59.7836   69.7753 H   0  0  0  0  0  0  0  0  0  0  0  0
    0.8148   56.2361   77.9750 H   0  0  0  0  0  0  0  0  0  0  0  0
    2.1570   55.8704   76.8386 H   0  0  0  0  0  0  0  0  0  0  0  0
    1.3986   57.4988   76.8386 H   0  0  0  0  0  0  0  0  0  0  0  0
   -1.8861   56.8472   79.2418 H   0  0  0  0  0  0  0  0  0  0  0  0
   -0.4456   57.2619   78.2519 H   0  0  0  0  0  0  0  0  0  0  0  0
   -1.8778   58.3461   78.2519 H   0  0  0  0  0  0  0  0  0  0  0  0
    2.9911   57.0519   75.5200 H   0  0  0  0  0  0  0  0  0  0  0  0
   -7.9038   55.7471   80.3960 H   0  0  0  0  0  0  0  0  0  0  0  0
   -7.5835   56.7297   78.9267 H   0  0  0  0  0  0  0  0  0  0  0  0
   -8.9120   55.5206   78.9267 H   0  0  0  0  0  0  0  0  0  0  0  0
    0.5416   64.8182   71.8102 H   0  0  0  0  0  0  0  0  0  0  0  0
    1.1855   65.4876   70.2727 H   0  0  0  0  0  0  0  0  0  0  0  0
    0.3112   63.9184   70.2727 H   0  0  0  0  0  0  0  0  0  0  0  0
  2  1  1  0
  3  2  1  0
  4  3  1  0
  5  4  1  0
  6  1  1  0
  6  5  1  0
  7  6  1  0
  8  6  1  0
  9  5  1  0
 10  9  1  0
 11 10  1  0
 12 11  1  0
 12  4  1  0
 13 12  1  0
 14 13  1  0
 15 14  1  0
 16 15  1  0
 17 16  1  0
 17 11  1  0
 18 16  1  0
 19 18  1  0
 20 19  1  0
 21 20  1  0
 21 15  1  0
 21 22  1  6
 23 21  1  0
 24 23  1  0
 25 24  1  0
 26 25  1  0
 26 20  1  0
 27 26  1  0
 28 26  1  0
 11 29  1  1
  4 30  1  1
 16 31  1  1
 32  1  1  0
 34 32  1  0
 34 33  1  0
 35 34  2  0
 36 25  1  0
 37 36  1  0
 38 37  2  0
 39 37  1  0
  1 40  1  6
  2 41  1  0
  2 42  1  0
  3 43  1  0
  3 44  1  0
  5 45  1  6
  7 46  1  0
  7 47  1  0
  7 48  1  0
  8 49  1  0
  8 50  1  0
  8 51  1  0
  9 52  1  0
  9 53  1  0
 10 54  1  0
 10 55  1  0
 12 56  1  6
 13 57  1  0
 13 58  1  0
 14 59  1  0
 14 60  1  0
 15 61  1  1
 17 62  1  0
 17 63  1  0
 18 64  1  0
 18 65  1  0
 19 66  1  0
 19 67  1  0
 20 68  1  1
 22 69  1  0
 22 70  1  0
 22 71  1  0
 23 72  1  0
 23 73  1  0
 24 74  1  0
 24 75  1  0
 25 76  1  1
 27 77  1  0
 27 78  1  0
 27 79  1  0
 28 80  1  0
 28 81  1  0
 28 82  1  0
 29 83  1  0
 29 84  1  0
 29 85  1  0
 30 86  1  0
 30 87  1  0
 30 88  1  0
 31 89  1  0
 33 90  1  0
 33 91  1  0
 33 92  1  0
 39 93  1  0
 39 94  1  0
 39 95  1  0
M  END
>  <score>  (4) 
-7.576

$$$$
=
     RDKit          3D

 95 99  0  0  0  0  0  0  0  0999 V2000
    2.9770   61.7780   71.4910 C   0  0  1  0  0  0  0  0  0  0  0  0
    1.5370   61.6720   70.9930 C   0  0  0  0  0  0  0  0  0  0  0  0
    0.5110   61.8230   72.1170 C   0  0  0  0  0  0  0  0  0  0  0  0
    0.7070   60.8380   73.3100 C   0  0  1  0  0  0  0  0  0  0  0  0
    2.2160   60.9580   73.7710 C   0  0  2  0  0  0  0  0  0  0  0  0
    3.3010   60.7790   72.6450 C   0  0  0  0  0  0  0  0  0  0  0  0
    3.4340   59.3320   72.1280 C   0  0  0  0  0  0  0  0  0  0  0  0
    4.7040   61.1650   73.1940 C   0  0  0  0  0  0  0  0  0  0  0  0
    2.4920   60.1690   75.0660 C   0  0  0  0  0  0  0  0  0  0  0  0
    1.5690   60.6100   76.2090 C   0  0  0  0  0  0  0  0  0  0  0  0
    0.0490   60.4800   75.8830 C   0  0  2  0  0  0  0  0  0  0  0  0
   -0.1860   61.2860   74.5540 C   0  0  2  0  0  0  0  0  0  0  0  0
   -1.6600   61.6760   74.2800 C   0  0  0  0  0  0  0  0  0  0  0  0
   -2.7180   60.6440   74.5920 C   0  0  0  0  0  0  0  0  0  0  0  0
   -3.2190   60.5440   76.0580 C   0  0  1  0  0  0  0  0  0  0  0  0
   -2.2520   60.9030   77.2530 C   0  0  1  0  0  0  0  0  0  0  0  0
   -0.7410   61.2030   77.0110 C   0  0  0  0  0  0  0  0  0  0  0  0
   -2.7860   62.0670   78.1100 C   0  0  0  0  0  0  0  0  0  0  0  0
   -4.2240   61.9190   78.5990 C   0  0  0  0  0  0  0  0  0  0  0  0
   -5.1180   61.0130   77.7320 C   0  0  2  0  0  0  0  0  0  0  0  0
   -4.7290   61.0810   76.2180 C   0  0  1  0  0  0  0  0  0  0  0  0
   -4.8690   62.5210   75.6630 C   0  0  0  0  0  0  0  0  0  0  0  0
   -5.6640   60.1460   75.3650 C   0  0  0  0  0  0  0  0  0  0  0  0
   -6.8290   59.5190   76.1290 C   0  0  0  0  0  0  0  0  0  0  0  0
   -7.5720   60.5570   76.9610 C   0  0  1  0  0  0  0  0  0  0  0  0
   -6.6610   61.1260   78.0960 C   0  0  0  0  0  0  0  0  0  0  0  0
   -6.8980   60.2500   79.3600 C   0  0  0  0  0  0  0  0  0  0  0  0
   -7.1210   62.5510   78.4780 C   0  0  0  0  0  0  0  0  0  0  0  0
   -0.2640   58.9690   75.9220 C   0  0  0  0  0  0  0  0  0  0  0  0
    0.3060   59.4310   72.8220 C   0  0  0  0  0  0  0  0  0  0  0  0
   -2.2850   59.7400   78.1210 O   0  0  0  0  0  0  0  0  0  0  0  0
    3.8690   61.5360   70.3810 O   0  0  0  0  0  0  0  0  0  0  0  0
    5.0100   63.5790   70.3680 C   0  0  0  0  0  0  0  0  0  0  0  0
    4.1710   62.6060   69.5970 C   0  0  0  0  0  0  0  0  0  0  0  0
    3.8190   62.7660   68.4370 O   0  0  0  0  0  0  0  0  0  0  0  0
   -8.0100   61.6260   76.0920 O   0  0  0  0  0  0  0  0  0  0  0  0
   -9.0600   61.3560   75.2710 C   0  0  0  0  0  0  0  0  0  0  0  0
  -10.1190   60.8460   75.6040 O   0  0  0  0  0  0  0  0  0  0  0  0
   -8.7280   61.7780   73.8720 C   0  0  0  0  0  0  0  0  0  0  0  0
    3.1127   62.7899   71.9005 H   0  0  0  0  0  0  0  0  0  0  0  0
    1.3628   62.4632   70.2490 H   0  0  0  0  0  0  0  0  0  0  0  0
    1.4087   60.6696   70.5586 H   0  0  0  0  0  0  0  0  0  0  0  0
    0.5761   62.8500   72.5055 H   0  0  0  0  0  0  0  0  0  0  0  0
   -0.4701   61.5899   71.6776 H   0  0  0  0  0  0  0  0  0  0  0  0
    2.3451   62.0208   74.0234 H   0  0  0  0  0  0  0  0  0  0  0  0
    3.4974   58.6418   72.9822 H   0  0  0  0  0  0  0  0  0  0  0  0
    2.5553   59.0789   71.5165 H   0  0  0  0  0  0  0  0  0  0  0  0
    4.3441   59.2433   71.5165 H   0  0  0  0  0  0  0  0  0  0  0  0
    4.6818   61.1589   74.2938 H   0  0  0  0  0  0  0  0  0  0  0  0
    5.4495   60.4386   72.8383 H   0  0  0  0  0  0  0  0  0  0  0  0
    4.9730   62.1705   72.8383 H   0  0  0  0  0  0  0  0  0  0  0  0
    2.3316   59.0983   74.8717 H   0  0  0  0  0  0  0  0  0  0  0  0
    3.5308   60.3641   75.3706 H   0  0  0  0  0  0  0  0  0  0  0  0
    1.7882   59.9888   77.0899 H   0  0  0  0  0  0  0  0  0  0  0  0
    1.7668   61.6778   76.3840 H   0  0  0  0  0  0  0  0  0  0  0  0
    0.2554   62.2730   74.7564 H   0  0  0  0  0  0  0  0  0  0  0  0
   -1.8827   62.5700   74.8810 H   0  0  0  0  0  0  0  0  0  0  0  0
   -1.7170   61.8192   73.1909 H   0  0  0  0  0  0  0  0  0  0  0  0
   -3.5909   60.8675   73.9611 H   0  0  0  0  0  0  0  0  0  0  0  0
   -2.2291   59.6777   74.3990 H   0  0  0  0  0  0  0  0  0  0  0  0
   -3.2151   59.4547   76.2112 H   0  0  0  0  0  0  0  0  0  0  0  0
   -0.6654   62.2807   76.8043 H   0  0  0  0  0  0  0  0  0  0  0  0
   -0.2680   60.8141   77.9248 H   0  0  0  0  0  0  0  0  0  0  0  0
   -2.1365   62.1635   78.9925 H   0  0  0  0  0  0  0  0  0  0  0  0
   -2.7799   62.9508   77.4552 H   0  0  0  0  0  0  0  0  0  0  0  0
   -4.1970   61.4992   79.6154 H   0  0  0  0  0  0  0  0  0  0  0  0
   -4.6688   62.9240   78.5523 H   0  0  0  0  0  0  0  0  0  0  0  0
   -4.9068   59.9657   77.9937 H   0  0  0  0  0  0  0  0  0  0  0  0
   -4.9381   63.2314   76.5000 H   0  0  0  0  0  0  0  0  0  0  0  0
   -3.9902   62.7638   75.0475 H   0  0  0  0  0  0  0  0  0  0  0  0
   -5.7781   62.5900   75.0475 H   0  0  0  0  0  0  0  0  0  0  0  0
   -6.0800   60.7424   74.5396 H   0  0  0  0  0  0  0  0  0  0  0  0
   -5.0341   59.3093   75.0287 H   0  0  0  0  0  0  0  0  0  0  0  0
   -7.5289   59.0701   75.4088 H   0  0  0  0  0  0  0  0  0  0  0  0
   -6.4251   58.7549   76.8095 H   0  0  0  0  0  0  0  0  0  0  0  0
   -8.4407   60.0790   77.4373 H   0  0  0  0  0  0  0  0  0  0  0  0
   -6.7338   60.8568   80.2627 H   0  0  0  0  0  0  0  0  0  0  0  0
   -7.9308   59.8715   79.3554 H   0  0  0  0  0  0  0  0  0  0  0  0
   -6.1969   59.4024   79.3554 H   0  0  0  0  0  0  0  0  0  0  0  0
   -7.1514   62.6451   79.5735 H   0  0  0  0  0  0  0  0  0  0  0  0
   -6.4148   63.2870   78.0662 H   0  0  0  0  0  0  0  0  0  0  0  0
   -8.1242   62.7352   78.0662 H   0  0  0  0  0  0  0  0  0  0  0  0
   -0.3330   58.6357   76.9680 H   0  0  0  0  0  0  0  0  0  0  0  0
   -1.2205   58.7794   75.4129 H   0  0  0  0  0  0  0  0  0  0  0  0
    0.5385   58.4151   75.4129 H   0  0  0  0  0  0  0  0  0  0  0  0
    0.1207   58.7809   73.6898 H   0  0  0  0  0  0  0  0  0  0  0  0
   -0.6081   59.5005   72.2141 H   0  0  0  0  0  0  0  0  0  0  0  0
    1.1194   59.0081   72.2141 H   0  0  0  0  0  0  0  0  0  0  0  0
   -2.2767   60.0335   79.0665 H   0  0  0  0  0  0  0  0  0  0  0  0
    4.8668   63.4130   71.4459 H   0  0  0  0  0  0  0  0  0  0  0  0
    6.0698   63.4327   70.1120 H   0  0  0  0  0  0  0  0  0  0  0  0
    4.7094   64.6057   70.1120 H   0  0  0  0  0  0  0  0  0  0  0  0
   -8.0481   62.6422   73.9013 H   0  0  0  0  0  0  0  0  0  0  0  0
   -8.2402   60.9454   73.3439 H   0  0  0  0  0  0  0  0  0  0  0  0
   -9.6520   62.0561   73.3439 H   0  0  0  0  0  0  0  0  0  0  0  0
  2  1  1  0
  3  2  1  0
  4  3  1  0
  5  4  1  0
  6  1  1  0
  6  5  1  0
  7  6  1  0
  8  6  1  0
  9  5  1  0
 10  9  1  0
 11 10  1  0
 12 11  1  0
 12  4  1  0
 13 12  1  0
 14 13  1  0
 15 14  1  0
 16 15  1  0
 17 16  1  0
 17 11  1  0
 18 16  1  0
 19 18  1  0
 20 19  1  0
 21 20  1  0
 21 15  1  0
 21 22  1  6
 23 21  1  0
 24 23  1  0
 25 24  1  0
 26 25  1  0
 26 20  1  0
 27 26  1  0
 28 26  1  0
 11 29  1  6
  4 30  1  6
 16 31  1  1
 32  1  1  0
 34 32  1  0
 34 33  1  0
 35 34  2  0
 36 25  1  0
 37 36  1  0
 38 37  2  0
 39 37  1  0
  1 40  1  1
  2 41  1  0
  2 42  1  0
  3 43  1  0
  3 44  1  0
  5 45  1  1
  7 46  1  0
  7 47  1  0
  7 48  1  0
  8 49  1  0
  8 50  1  0
  8 51  1  0
  9 52  1  0
  9 53  1  0
 10 54  1  0
 10 55  1  0
 12 56  1  1
 13 57  1  0
 13 58  1  0
 14 59  1  0
 14 60  1  0
 15 61  1  1
 17 62  1  0
 17 63  1  0
 18 64  1  0
 18 65  1  0
 19 66  1  0
 19 67  1  0
 20 68  1  1
 22 69  1  0
 22 70  1  0
 22 71  1  0
 23 72  1  0
 23 73  1  0
 24 74  1  0
 24 75  1  0
 25 76  1  1
 27 77  1  0
 27 78  1  0
 27 79  1  0
 28 80  1  0
 28 81  1  0
 28 82  1  0
 29 83  1  0
 29 84  1  0
 29 85  1  0
 30 86  1  0
 30 87  1  0
 30 88  1  0
 31 89  1  0
 33 90  1  0
 33 91  1  0
 33 92  1  0
 39 93  1  0
 39 94  1  0
 39 95  1  0
M  END
>  <score>  (5) 
-7.463

$$$$
=
     RDKit          3D

 95 99  0  0  0  0  0  0  0  0999 V2000
    2.8480   59.7630   73.2160 C   0  0  1  0  0  0  0  0  0  0  0  0
    1.6330   60.1820   72.3920 C   0  0  0  0  0  0  0  0  0  0  0  0
    0.4710   60.6700   73.2580 C   0  0  0  0  0  0  0  0  0  0  0  0
    0.0130   59.6620   74.3550 C   0  0  1  0  0  0  0  0  0  0  0  0
    1.3050   59.2320   75.1620 C   0  0  2  0  0  0  0  0  0  0  0  0
    2.5110   58.6970   74.3040 C   0  0  0  0  0  0  0  0  0  0  0  0
    2.2710   57.3050   73.6850 C   0  0  0  0  0  0  0  0  0  0  0  0
    3.7750   58.5510   75.1990 C   0  0  0  0  0  0  0  0  0  0  0  0
    0.9610   58.3760   76.3970 C   0  0  0  0  0  0  0  0  0  0  0  0
   -0.0150   59.0990   77.3360 C   0  0  0  0  0  0  0  0  0  0  0  0
   -1.3540   59.5210   76.6560 C   0  0  2  0  0  0  0  0  0  0  0  0
   -0.9570   60.3780   75.3990 C   0  0  2  0  0  0  0  0  0  0  0  0
   -2.0910   61.2700   74.8340 C   0  0  0  0  0  0  0  0  0  0  0  0
   -3.4800   60.6760   74.7850 C   0  0  0  0  0  0  0  0  0  0  0  0
   -4.3370   60.7370   76.0780 C   0  0  1  0  0  0  0  0  0  0  0  0
   -3.6410   60.7120   77.4940 C   0  0  1  0  0  0  0  0  0  0  0  0
   -2.1090   60.4600   77.6400 C   0  0  0  0  0  0  0  0  0  0  0  0
   -3.9450   61.9750   78.3210 C   0  0  0  0  0  0  0  0  0  0  0  0
   -5.4220   62.3400   78.4470 C   0  0  0  0  0  0  0  0  0  0  0  0
   -6.3210   61.8240   77.3090 C   0  0  2  0  0  0  0  0  0  0  0  0
   -5.5640   61.7720   75.9400 C   0  0  1  0  0  0  0  0  0  0  0  0
   -5.0610   63.1770   75.5200 C   0  0  0  0  0  0  0  0  0  0  0  0
   -6.5130   61.2430   74.8030 C   0  0  0  0  0  0  0  0  0  0  0  0
   -7.9740   61.0580   75.2080 C   0  0  0  0  0  0  0  0  0  0  0  0
   -8.5050   62.2790   75.9490 C   0  0  1  0  0  0  0  0  0  0  0  0
   -7.7720   62.4700   77.3160 C   0  0  0  0  0  0  0  0  0  0  0  0
   -8.6040   61.7160   78.3940 C   0  0  0  0  0  0  0  0  0  0  0  0
   -7.8020   63.9600   77.7270 C   0  0  0  0  0  0  0  0  0  0  0  0
   -2.1600   58.2190   76.4650 C   0  0  0  0  0  0  0  0  0  0  0  0
   -0.7050   58.4960   73.6450 C   0  0  0  0  0  0  0  0  0  0  0  0
   -4.2850   59.6220   78.2070 O   0  0  0  0  0  0  0  0  0  0  0  0
    3.8540   59.2370   72.3230 O   0  0  0  0  0  0  0  0  0  0  0  0
    5.1110   61.2090   72.4190 C   0  0  0  0  0  0  0  0  0  0  0  0
    4.5170   60.1410   71.5520 C   0  0  0  0  0  0  0  0  0  0  0  0
    4.6220   60.1040   70.3340 O   0  0  0  0  0  0  0  0  0  0  0  0
   -8.3200   63.4470   75.1180 O   0  0  0  0  0  0  0  0  0  0  0  0
   -9.3600   63.7990   74.3150 C   0  0  0  0  0  0  0  0  0  0  0  0
  -10.4480   64.2090   74.6900 O   0  0  0  0  0  0  0  0  0  0  0  0
   -8.9770   63.6060   72.8790 C   0  0  0  0  0  0  0  0  0  0  0  0
    3.2118   60.6548   73.7473 H   0  0  0  0  0  0  0  0  0  0  0  0
    1.9315   60.9948   71.7135 H   0  0  0  0  0  0  0  0  0  0  0  0
    1.2858   59.2967   71.8392 H   0  0  0  0  0  0  0  0  0  0  0  0
    0.7807   61.6011   73.7551 H   0  0  0  0  0  0  0  0  0  0  0  0
   -0.3861   60.8069   72.5822 H   0  0  0  0  0  0  0  0  0  0  0  0
    1.7185   60.1761   75.5464 H   0  0  0  0  0  0  0  0  0  0  0  0
    2.1432   56.5638   74.4877 H   0  0  0  0  0  0  0  0  0  0  0  0
    1.3642   57.3317   73.0629 H   0  0  0  0  0  0  0  0  0  0  0  0
    3.1344   57.0265   73.0629 H   0  0  0  0  0  0  0  0  0  0  0  0
    3.4802   58.5851   76.2582 H   0  0  0  0  0  0  0  0  0  0  0  0
    4.2662   57.5901   74.9858 H   0  0  0  0  0  0  0  0  0  0  0  0
    4.4723   59.3746   74.9858 H   0  0  0  0  0  0  0  0  0  0  0  0
    0.5013   57.4347   76.0613 H   0  0  0  0  0  0  0  0  0  0  0  0
    1.8917   58.1849   76.9514 H   0  0  0  0  0  0  0  0  0  0  0  0
   -0.2497   58.4273   78.1749 H   0  0  0  0  0  0  0  0  0  0  0  0
    0.4826   60.0246   77.6611 H   0  0  0  0  0  0  0  0  0  0  0  0
   -0.2719   61.1399   75.7993 H   0  0  0  0  0  0  0  0  0  0  0  0
   -2.1405   62.1756   75.4565 H   0  0  0  0  0  0  0  0  0  0  0  0
   -1.8191   61.4404   73.7818 H   0  0  0  0  0  0  0  0  0  0  0  0
   -4.0360   61.2052   73.9971 H   0  0  0  0  0  0  0  0  0  0  0  0
   -3.3172   59.6023   74.6098 H   0  0  0  0  0  0  0  0  0  0  0  0
   -4.7402   59.7142   76.1149 H   0  0  0  0  0  0  0  0  0  0  0  0
   -1.6221   61.4438   77.5691 H   0  0  0  0  0  0  0  0  0  0  0  0
   -2.0434   59.9147   78.5931 H   0  0  0  0  0  0  0  0  0  0  0  0
   -3.5468   61.8200   79.3346 H   0  0  0  0  0  0  0  0  0  0  0  0
   -3.4733   62.8094   77.7813 H   0  0  0  0  0  0  0  0  0  0  0  0
   -5.7967   61.9227   79.3933 H   0  0  0  0  0  0  0  0  0  0  0  0
   -5.4713   63.4380   78.4027 H   0  0  0  0  0  0  0  0  0  0  0  0
   -6.5510   60.7662   77.5044 H   0  0  0  0  0  0  0  0  0  0  0  0
   -4.8473   63.7738   76.4190 H   0  0  0  0  0  0  0  0  0  0  0  0
   -4.1438   63.0743   74.9215 H   0  0  0  0  0  0  0  0  0  0  0  0
   -5.8350   63.6798   74.9215 H   0  0  0  0  0  0  0  0  0  0  0  0
   -6.4791   61.9609   73.9703 H   0  0  0  0  0  0  0  0  0  0  0  0
   -6.1414   60.2425   74.5366 H   0  0  0  0  0  0  0  0  0  0  0  0
   -8.5786   60.8977   74.3031 H   0  0  0  0  0  0  0  0  0  0  0  0
   -8.0394   60.1898   75.8803 H   0  0  0  0  0  0  0  0  0  0  0  0
   -9.5746   62.1330   76.1600 H   0  0  0  0  0  0  0  0  0  0  0  0
   -8.2678   62.0207   79.3961 H   0  0  0  0  0  0  0  0  0  0  0  0
   -9.6692   61.9627   78.2739 H   0  0  0  0  0  0  0  0  0  0  0  0
   -8.4630   60.6317   78.2739 H   0  0  0  0  0  0  0  0  0  0  0  0
   -7.8036   64.0377   78.8242 H   0  0  0  0  0  0  0  0  0  0  0  0
   -6.9139   64.4693   77.3246 H   0  0  0  0  0  0  0  0  0  0  0  0
   -8.7099   64.4332   77.3246 H   0  0  0  0  0  0  0  0  0  0  0  0
   -2.4191   57.8005   77.4487 H   0  0  0  0  0  0  0  0  0  0  0  0
   -3.0814   58.4369   75.9051 H   0  0  0  0  0  0  0  0  0  0  0  0
   -1.5541   57.4915   75.9051 H   0  0  0  0  0  0  0  0  0  0  0  0
   -1.1260   57.8123   74.3969 H   0  0  0  0  0  0  0  0  0  0  0  0
   -1.5153   58.8930   73.0159 H   0  0  0  0  0  0  0  0  0  0  0  0
    0.0143   57.9511   73.0159 H   0  0  0  0  0  0  0  0  0  0  0  0
   -4.1983   59.7688   79.1822 H   0  0  0  0  0  0  0  0  0  0  0  0
    4.9647   60.9459   73.4770 H   0  0  0  0  0  0  0  0  0  0  0  0
    6.1871   61.2960   72.2082 H   0  0  0  0  0  0  0  0  0  0  0  0
    4.6173   62.1691   72.2082 H   0  0  0  0  0  0  0  0  0  0  0  0
   -7.9959   63.1116   72.8245 H   0  0  0  0  0  0  0  0  0  0  0  0
   -9.7312   62.9803   72.3793 H   0  0  0  0  0  0  0  0  0  0  0  0
   -8.9228   64.5844   72.3793 H   0  0  0  0  0  0  0  0  0  0  0  0
  2  1  1  0
  3  2  1  0
  4  3  1  0
  5  4  1  0
  6  1  1  0
  6  5  1  0
  7  6  1  0
  8  6  1  0
  9  5  1  0
 10  9  1  0
 11 10  1  0
 12 11  1  0
 12  4  1  0
 13 12  1  0
 14 13  1  0
 15 14  1  0
 16 15  1  0
 17 16  1  0
 17 11  1  0
 18 16  1  0
 19 18  1  0
 20 19  1  0
 21 20  1  0
 21 15  1  0
 21 22  1  6
 23 21  1  0
 24 23  1  0
 25 24  1  0
 26 25  1  0
 26 20  1  0
 27 26  1  0
 28 26  1  0
 11 29  1  6
  4 30  1  6
 16 31  1  1
 32  1  1  0
 34 32  1  0
 34 33  1  0
 35 34  2  0
 36 25  1  0
 37 36  1  0
 38 37  2  0
 39 37  1  0
  1 40  1  1
  2 41  1  0
  2 42  1  0
  3 43  1  0
  3 44  1  0
  5 45  1  1
  7 46  1  0
  7 47  1  0
  7 48  1  0
  8 49  1  0
  8 50  1  0
  8 51  1  0
  9 52  1  0
  9 53  1  0
 10 54  1  0
 10 55  1  0
 12 56  1  1
 13 57  1  0
 13 58  1  0
 14 59  1  0
 14 60  1  0
 15 61  1  1
 17 62  1  0
 17 63  1  0
 18 64  1  0
 18 65  1  0
 19 66  1  0
 19 67  1  0
 20 68  1  1
 22 69  1  0
 22 70  1  0
 22 71  1  0
 23 72  1  0
 23 73  1  0
 24 74  1  0
 24 75  1  0
 25 76  1  1
 27 77  1  0
 27 78  1  0
 27 79  1  0
 28 80  1  0
 28 81  1  0
 28 82  1  0
 29 83  1  0
 29 84  1  0
 29 85  1  0
 30 86  1  0
 30 87  1  0
 30 88  1  0
 31 89  1  0
 33 90  1  0
 33 91  1  0
 33 92  1  0
 39 93  1  0
 39 94  1  0
 39 95  1  0
M  END
>  <score>  (6) 
-7.253

$$$$
=
     RDKit          3D

 95 99  0  0  0  0  0  0  0  0999 V2000
   -7.0410   57.5870   77.4720 C   0  0  1  0  0  0  0  0  0  0  0  0
   -6.6380   58.9910   77.0300 C   0  0  0  0  0  0  0  0  0  0  0  0
   -5.3440   59.0050   76.2150 C   0  0  0  0  0  0  0  0  0  0  0  0
   -4.1270   58.3290   76.9190 C   0  0  1  0  0  0  0  0  0  0  0  0
   -4.6000   56.8930   77.3880 C   0  0  2  0  0  0  0  0  0  0  0  0
   -5.9130   56.8430   78.2530 C   0  0  0  0  0  0  0  0  0  0  0  0
   -5.7440   57.4000   79.6810 C   0  0  0  0  0  0  0  0  0  0  0  0
   -6.3800   55.3700   78.4250 C   0  0  0  0  0  0  0  0  0  0  0  0
   -3.4330   56.0480   77.9360 C   0  0  0  0  0  0  0  0  0  0  0  0
   -2.3010   55.9080   76.9100 C   0  0  0  0  0  0  0  0  0  0  0  0
   -1.7180   57.2680   76.4180 C   0  0  2  0  0  0  0  0  0  0  0  0
   -2.9390   58.1000   75.8810 C   0  0  2  0  0  0  0  0  0  0  0  0
   -2.5650   59.2760   74.9430 C   0  0  0  0  0  0  0  0  0  0  0  0
   -1.3520   60.0970   75.3130 C   0  0  0  0  0  0  0  0  0  0  0  0
    0.0410   59.5620   74.8810 C   0  0  1  0  0  0  0  0  0  0  0  0
    0.2890   58.0090   74.7520 C   0  0  1  0  0  0  0  0  0  0  0  0
   -0.7860   56.9750   75.2070 C   0  0  0  0  0  0  0  0  0  0  0  0
    0.6980   57.5970   73.3250 C   0  0  0  0  0  0  0  0  0  0  0  0
    1.8560   58.3850   72.7180 C   0  0  0  0  0  0  0  0  0  0  0  0
    2.0520   59.8010   73.2910 C   0  0  2  0  0  0  0  0  0  0  0  0
    0.6940   60.4570   73.7120 C   0  0  1  0  0  0  0  0  0  0  0  0
   -0.2700   60.5840   72.5050 C   0  0  0  0  0  0  0  0  0  0  0  0
    0.9330   61.9000   74.2880 C   0  0  0  0  0  0  0  0  0  0  0  0
    2.3630   62.4220   74.1660 C   0  0  0  0  0  0  0  0  0  0  0  0
    2.9150   62.2090   72.7610 C   0  0  1  0  0  0  0  0  0  0  0  0
    3.0560   60.6870   72.4360 C   0  0  0  0  0  0  0  0  0  0  0  0
    4.4980   60.2610   72.8390 C   0  0  0  0  0  0  0  0  0  0  0  0
    2.9610   60.4620   70.9100 C   0  0  0  0  0  0  0  0  0  0  0  0
   -0.8800   57.8190   77.5920 C   0  0  0  0  0  0  0  0  0  0  0  0
   -3.6840   59.2540   78.0700 C   0  0  0  0  0  0  0  0  0  0  0  0
    1.4550   57.7480   75.5770 O   0  0  0  0  0  0  0  0  0  0  0  0
   -8.2180   57.6830   78.3050 O   0  0  0  0  0  0  0  0  0  0  0  0
   -9.7160   56.4540   76.9930 C   0  0  0  0  0  0  0  0  0  0  0  0
   -9.4150   57.7600   77.6610 C   0  0  0  0  0  0  0  0  0  0  0  0
  -10.1460   58.7390   77.6230 O   0  0  0  0  0  0  0  0  0  0  0  0
    2.0280   62.8410   71.8100 O   0  0  0  0  0  0  0  0  0  0  0  0
    2.5630   63.8130   71.0250 C   0  0  0  0  0  0  0  0  0  0  0  0
    3.7300   63.8890   70.6730 O   0  0  0  0  0  0  0  0  0  0  0  0
    1.5000   64.8000   70.6480 C   0  0  0  0  0  0  0  0  0  0  0  0
   -7.2398   56.9990   76.5639 H   0  0  0  0  0  0  0  0  0  0  0  0
   -7.4464   59.4115   76.4139 H   0  0  0  0  0  0  0  0  0  0  0  0
   -6.4653   59.5881   77.9376 H   0  0  0  0  0  0  0  0  0  0  0  0
   -5.5292   58.4774   75.2677 H   0  0  0  0  0  0  0  0  0  0  0  0
   -5.0753   60.0623   76.0739 H   0  0  0  0  0  0  0  0  0  0  0  0
   -4.9352   56.3972   76.4651 H   0  0  0  0  0  0  0  0  0  0  0  0
   -5.9827   56.6134   80.4120 H   0  0  0  0  0  0  0  0  0  0  0  0
   -4.7049   57.7312   79.8248 H   0  0  0  0  0  0  0  0  0  0  0  0
   -6.4239   58.2527   79.8248 H   0  0  0  0  0  0  0  0  0  0  0  0
   -6.4555   55.1320   79.4963 H   0  0  0  0  0  0  0  0  0  0  0  0
   -7.3636   55.2394   77.9502 H   0  0  0  0  0  0  0  0  0  0  0  0
   -5.6513   54.6965   77.9502 H   0  0  0  0  0  0  0  0  0  0  0  0
   -3.0362   56.5326   78.8403 H   0  0  0  0  0  0  0  0  0  0  0  0
   -3.8158   55.0420   78.1627 H   0  0  0  0  0  0  0  0  0  0  0  0
   -1.4868   55.3291   77.3704 H   0  0  0  0  0  0  0  0  0  0  0  0
   -2.7305   55.4089   76.0289 H   0  0  0  0  0  0  0  0  0  0  0  0
   -3.4364   57.4196   75.1741 H   0  0  0  0  0  0  0  0  0  0  0  0
   -2.3876   58.8567   73.9416 H   0  0  0  0  0  0  0  0  0  0  0  0
   -3.4118   59.9746   75.0136 H   0  0  0  0  0  0  0  0  0  0  0  0
   -1.4773   61.0912   74.8593 H   0  0  0  0  0  0  0  0  0  0  0  0
   -1.3283   60.0782   76.4126 H   0  0  0  0  0  0  0  0  0  0  0  0
    0.6228   59.7084   75.8030 H   0  0  0  0  0  0  0  0  0  0  0  0
   -1.4426   56.8050   74.3410 H   0  0  0  0  0  0  0  0  0  0  0  0
   -0.1753   56.1350   75.5695 H   0  0  0  0  0  0  0  0  0  0  0  0
    0.9862   56.5357   73.3485 H   0  0  0  0  0  0  0  0  0  0  0  0
   -0.1749   57.8064   72.6892 H   0  0  0  0  0  0  0  0  0  0  0  0
    2.7821   57.8166   72.8891 H   0  0  0  0  0  0  0  0  0  0  0  0
    1.6136   58.5156   71.6530 H   0  0  0  0  0  0  0  0  0  0  0  0
    2.5917   59.7159   74.2457 H   0  0  0  0  0  0  0  0  0  0  0  0
   -1.2988   60.7195   72.8701 H   0  0  0  0  0  0  0  0  0  0  0  0
    0.0196   61.4518   71.8942 H   0  0  0  0  0  0  0  0  0  0  0  0
   -0.2150   59.6708   71.8942 H   0  0  0  0  0  0  0  0  0  0  0  0
    0.2705   62.5946   73.7507 H   0  0  0  0  0  0  0  0  0  0  0  0
    0.7230   61.8362   75.3659 H   0  0  0  0  0  0  0  0  0  0  0  0
    2.3720   63.4979   74.3947 H   0  0  0  0  0  0  0  0  0  0  0  0
    2.9957   61.8670   74.8743 H   0  0  0  0  0  0  0  0  0  0  0  0
    3.9170   62.6585   72.6977 H   0  0  0  0  0  0  0  0  0  0  0  0
    4.5802   60.2367   73.9357 H   0  0  0  0  0  0  0  0  0  0  0  0
    4.7119   59.2613   72.4331 H   0  0  0  0  0  0  0  0  0  0  0  0
    5.2209   60.9840   72.4331 H   0  0  0  0  0  0  0  0  0  0  0  0
    2.5401   59.4652   70.7118 H   0  0  0  0  0  0  0  0  0  0  0  0
    2.3102   61.2297   70.4660 H   0  0  0  0  0  0  0  0  0  0  0  0
    3.9650   60.5310   70.4660 H   0  0  0  0  0  0  0  0  0  0  0  0
   -1.3399   57.5166   78.5444 H   0  0  0  0  0  0  0  0  0  0  0  0
    0.1419   57.4160   77.5340 H   0  0  0  0  0  0  0  0  0  0  0  0
   -0.8450   58.9169   77.5340 H   0  0  0  0  0  0  0  0  0  0  0  0
   -3.9131   58.7757   79.0337 H   0  0  0  0  0  0  0  0  0  0  0  0
   -2.6014   59.4352   77.9988 H   0  0  0  0  0  0  0  0  0  0  0  0
   -4.2215   60.2111   77.9988 H   0  0  0  0  0  0  0  0  0  0  0  0
    1.2025   57.8045   76.5326 H   0  0  0  0  0  0  0  0  0  0  0  0
   -9.8936   55.6834   77.7576 H   0  0  0  0  0  0  0  0  0  0  0  0
  -10.6130   56.5613   76.3653 H   0  0  0  0  0  0  0  0  0  0  0  0
   -8.8626   56.1579   76.3653 H   0  0  0  0  0  0  0  0  0  0  0  0
    1.0488   65.2190   71.5595 H   0  0  0  0  0  0  0  0  0  0  0  0
    1.9466   65.6109   70.0539 H   0  0  0  0  0  0  0  0  0  0  0  0
    0.7244   64.2945   70.0539 H   0  0  0  0  0  0  0  0  0  0  0  0
  2  1  1  0
  3  2  1  0
  4  3  1  0
  5  4  1  0
  6  1  1  0
  6  5  1  0
  7  6  1  0
  8  6  1  0
  9  5  1  0
 10  9  1  0
 11 10  1  0
 12 11  1  0
 12  4  1  0
 13 12  1  0
 14 13  1  0
 15 14  1  0
 16 15  1  0
 17 16  1  0
 17 11  1  0
 18 16  1  0
 19 18  1  0
 20 19  1  0
 21 20  1  0
 21 15  1  0
 21 22  1  6
 23 21  1  0
 24 23  1  0
 25 24  1  0
 26 25  1  0
 26 20  1  0
 27 26  1  0
 28 26  1  0
 11 29  1  1
  4 30  1  1
 16 31  1  1
 32  1  1  0
 34 32  1  0
 34 33  1  0
 35 34  2  0
 36 25  1  0
 37 36  1  0
 38 37  2  0
 39 37  1  0
  1 40  1  6
  2 41  1  0
  2 42  1  0
  3 43  1  0
  3 44  1  0
  5 45  1  6
  7 46  1  0
  7 47  1  0
  7 48  1  0
  8 49  1  0
  8 50  1  0
  8 51  1  0
  9 52  1  0
  9 53  1  0
 10 54  1  0
 10 55  1  0
 12 56  1  6
 13 57  1  0
 13 58  1  0
 14 59  1  0
 14 60  1  0
 15 61  1  1
 17 62  1  0
 17 63  1  0
 18 64  1  0
 18 65  1  0
 19 66  1  0
 19 67  1  0
 20 68  1  1
 22 69  1  0
 22 70  1  0
 22 71  1  0
 23 72  1  0
 23 73  1  0
 24 74  1  0
 24 75  1  0
 25 76  1  1
 27 77  1  0
 27 78  1  0
 27 79  1  0
 28 80  1  0
 28 81  1  0
 28 82  1  0
 29 83  1  0
 29 84  1  0
 29 85  1  0
 30 86  1  0
 30 87  1  0
 30 88  1  0
 31 89  1  0
 33 90  1  0
 33 91  1  0
 33 92  1  0
 39 93  1  0
 39 94  1  0
 39 95  1  0
M  END
>  <score>  (7) 
-7.207

$$$$
=
     RDKit          3D

 95 99  0  0  0  0  0  0  0  0999 V2000
    3.3090   62.1300   71.7810 C   0  0  1  0  0  0  0  0  0  0  0  0
    1.9420   62.7550   71.5130 C   0  0  0  0  0  0  0  0  0  0  0  0
    1.1730   63.0690   72.7960 C   0  0  0  0  0  0  0  0  0  0  0  0
    0.9930   61.8540   73.7570 C   0  0  1  0  0  0  0  0  0  0  0  0
    2.4260   61.2210   73.9810 C   0  0  2  0  0  0  0  0  0  0  0  0
    3.2340   60.8580   72.6810 C   0  0  0  0  0  0  0  0  0  0  0  0
    2.6720   59.6460   71.9110 C   0  0  0  0  0  0  0  0  0  0  0  0
    4.6970   60.4820   73.0530 C   0  0  0  0  0  0  0  0  0  0  0  0
    2.4120   60.1200   75.0610 C   0  0  0  0  0  0  0  0  0  0  0  0
    1.8650   60.6420   76.3970 C   0  0  0  0  0  0  0  0  0  0  0  0
    0.4280   61.2400   76.3040 C   0  0  2  0  0  0  0  0  0  0  0  0
    0.4840   62.3450   75.1870 C   0  0  2  0  0  0  0  0  0  0  0  0
   -0.6760   63.3710   75.2250 C   0  0  0  0  0  0  0  0  0  0  0  0
   -2.0590   62.8400   75.5250 C   0  0  0  0  0  0  0  0  0  0  0  0
   -2.4470   62.6350   77.0140 C   0  0  1  0  0  0  0  0  0  0  0  0
   -1.3400   62.2760   78.0800 C   0  0  1  0  0  0  0  0  0  0  0  0
    0.1250   61.9570   77.6520 C   0  0  0  0  0  0  0  0  0  0  0  0
   -1.2360   63.3310   79.1970 C   0  0  0  0  0  0  0  0  0  0  0  0
   -2.5510   63.6990   79.8800 C   0  0  0  0  0  0  0  0  0  0  0  0
   -3.8140   63.4730   79.0290 C   0  0  2  0  0  0  0  0  0  0  0  0
   -3.5440   63.7080   77.5050 C   0  0  1  0  0  0  0  0  0  0  0  0
   -3.0650   65.1560   77.2330 C   0  0  0  0  0  0  0  0  0  0  0  0
   -4.8550   63.4710   76.6690 C   0  0  0  0  0  0  0  0  0  0  0  0
   -6.1200   63.2400   77.4930 C   0  0  0  0  0  0  0  0  0  0  0  0
   -6.2610   64.2790   78.5990 C   0  0  1  0  0  0  0  0  0  0  0  0
   -5.1140   64.1410   79.6510 C   0  0  0  0  0  0  0  0  0  0  0  0
   -5.6270   63.1880   80.7700 C   0  0  0  0  0  0  0  0  0  0  0  0
   -4.8630   65.5020   80.3390 C   0  0  0  0  0  0  0  0  0  0  0  0
   -0.5220   60.0360   76.1360 C   0  0  0  0  0  0  0  0  0  0  0  0
   -0.0270   60.8960   73.1090 C   0  0  0  0  0  0  0  0  0  0  0  0
   -1.8270   61.0730   78.7320 O   0  0  0  0  0  0  0  0  0  0  0  0
    3.9190   61.7890   70.5170 O   0  0  0  0  0  0  0  0  0  0  0  0
    3.7590   62.8100   68.4170 C   0  0  0  0  0  0  0  0  0  0  0  0
    4.3960   62.8230   69.7720 C   0  0  0  0  0  0  0  0  0  0  0  0
    5.2230   63.6470   70.1370 O   0  0  0  0  0  0  0  0  0  0  0  0
   -6.2370   65.5980   78.0070 O   0  0  0  0  0  0  0  0  0  0  0  0
   -7.4090   66.0610   77.4950 C   0  0  0  0  0  0  0  0  0  0  0  0
   -7.5870   66.4530   76.3510 O   0  0  0  0  0  0  0  0  0  0  0  0
   -8.4700   66.0270   78.5520 C   0  0  0  0  0  0  0  0  0  0  0  0
    3.9104   62.8711   72.3278 H   0  0  0  0  0  0  0  0  0  0  0  0
    2.0869   63.6901   70.9522 H   0  0  0  0  0  0  0  0  0  0  0  0
    1.3499   62.0246   70.9421 H   0  0  0  0  0  0  0  0  0  0  0  0
    1.7160   63.8576   73.3375 H   0  0  0  0  0  0  0  0  0  0  0  0
    0.1627   63.3757   72.4876 H   0  0  0  0  0  0  0  0  0  0  0  0
    3.0324   62.0446   74.3859 H   0  0  0  0  0  0  0  0  0  0  0  0
    2.3205   58.8880   72.6264 H   0  0  0  0  0  0  0  0  0  0  0  0
    1.8325   59.9705   71.2786 H   0  0  0  0  0  0  0  0  0  0  0  0
    3.4621   59.2149   71.2786 H   0  0  0  0  0  0  0  0  0  0  0  0
    4.8016   60.4551   74.1477 H   0  0  0  0  0  0  0  0  0  0  0  0
    4.9384   59.4926   72.6372 H   0  0  0  0  0  0  0  0  0  0  0  0
    5.3855   61.2324   72.6372 H   0  0  0  0  0  0  0  0  0  0  0  0
    1.7777   59.2902   74.7159 H   0  0  0  0  0  0  0  0  0  0  0  0
    3.4471   59.7844   75.2220 H   0  0  0  0  0  0  0  0  0  0  0  0
    1.8465   59.8071   77.1130 H   0  0  0  0  0  0  0  0  0  0  0  0
    2.5295   61.4587   76.7155 H   0  0  0  0  0  0  0  0  0  0  0  0
    1.3326   62.9801   75.4813 H   0  0  0  0  0  0  0  0  0  0  0  0
   -0.4332   64.1164   75.9967 H   0  0  0  0  0  0  0  0  0  0  0  0
   -0.7399   63.7645   74.1998 H   0  0  0  0  0  0  0  0  0  0  0  0
   -2.7828   63.5456   75.0912 H   0  0  0  0  0  0  0  0  0  0  0  0
   -2.0672   61.8279   75.0942 H   0  0  0  0  0  0  0  0  0  0  0  0
   -2.9180   61.6416   76.9774 H   0  0  0  0  0  0  0  0  0  0  0  0
    0.6584   62.9185   77.6217 H   0  0  0  0  0  0  0  0  0  0  0  0
    0.4384   61.2120   78.3982 H   0  0  0  0  0  0  0  0  0  0  0  0
   -0.5518   62.9434   79.9662 H   0  0  0  0  0  0  0  0  0  0  0  0
   -0.8814   64.2514   78.7101 H   0  0  0  0  0  0  0  0  0  0  0  0
   -2.6422   63.0925   80.7931 H   0  0  0  0  0  0  0  0  0  0  0  0
   -2.5027   64.7804   80.0757 H   0  0  0  0  0  0  0  0  0  0  0  0
   -4.0736   62.4050   79.0725 H   0  0  0  0  0  0  0  0  0  0  0  0
   -2.8944   65.6716   78.1896 H   0  0  0  0  0  0  0  0  0  0  0  0
   -2.1275   65.1302   76.6581 H   0  0  0  0  0  0  0  0  0  0  0  0
   -3.8329   65.6943   76.6581 H   0  0  0  0  0  0  0  0  0  0  0  0
   -5.0187   64.3550   76.0352 H   0  0  0  0  0  0  0  0  0  0  0  0
   -4.6895   62.5452   76.0985 H   0  0  0  0  0  0  0  0  0  0  0  0
   -6.9954   63.3023   76.8298 H   0  0  0  0  0  0  0  0  0  0  0  0
   -6.0529   62.2457   77.9587 H   0  0  0  0  0  0  0  0  0  0  0  0
   -7.2154   64.1181   79.1217 H   0  0  0  0  0  0  0  0  0  0  0  0
   -5.3945   63.6199   81.7546 H   0  0  0  0  0  0  0  0  0  0  0  0
   -6.7153   63.0611   80.6731 H   0  0  0  0  0  0  0  0  0  0  0  0
   -5.1337   62.2096   80.6731 H   0  0  0  0  0  0  0  0  0  0  0  0
   -4.8872   65.3709   81.4309 H   0  0  0  0  0  0  0  0  0  0  0  0
   -3.8783   65.8890   80.0379 H   0  0  0  0  0  0  0  0  0  0  0  0
   -5.6448   66.2148   80.0379 H   0  0  0  0  0  0  0  0  0  0  0  0
   -0.8177   59.6612   77.1270 H   0  0  0  0  0  0  0  0  0  0  0  0
   -1.4179   60.3505   75.5806 H   0  0  0  0  0  0  0  0  0  0  0  0
   -0.0077   59.2378   75.5806 H   0  0  0  0  0  0  0  0  0  0  0  0
   -0.5872   60.3699   73.8960 H   0  0  0  0  0  0  0  0  0  0  0  0
   -0.7256   61.4721   72.4844 H   0  0  0  0  0  0  0  0  0  0  0  0
    0.5042   60.1627   72.4844 H   0  0  0  0  0  0  0  0  0  0  0  0
   -1.7804   61.1881   79.7142 H   0  0  0  0  0  0  0  0  0  0  0  0
    2.6647   62.7877   68.5265 H   0  0  0  0  0  0  0  0  0  0  0  0
    4.0538   63.7143   67.8645 H   0  0  0  0  0  0  0  0  0  0  0  0
    4.0905   61.9184   67.8645 H   0  0  0  0  0  0  0  0  0  0  0  0
   -7.9983   66.0421   79.5456 H   0  0  0  0  0  0  0  0  0  0  0  0
   -9.1242   66.9046   78.4433 H   0  0  0  0  0  0  0  0  0  0  0  0
   -9.0666   65.1093   78.4433 H   0  0  0  0  0  0  0  0  0  0  0  0
  2  1  1  0
  3  2  1  0
  4  3  1  0
  5  4  1  0
  6  1  1  0
  6  5  1  0
  7  6  1  0
  8  6  1  0
  9  5  1  0
 10  9  1  0
 11 10  1  0
 12 11  1  0
 12  4  1  0
 13 12  1  0
 14 13  1  0
 15 14  1  0
 16 15  1  0
 17 16  1  0
 17 11  1  0
 18 16  1  0
 19 18  1  0
 20 19  1  0
 21 20  1  0
 21 15  1  0
 21 22  1  1
 23 21  1  0
 24 23  1  0
 25 24  1  0
 26 25  1  0
 26 20  1  0
 27 26  1  0
 28 26  1  0
 11 29  1  6
  4 30  1  6
 16 31  1  1
 32  1  1  0
 34 32  1  0
 34 33  1  0
 35 34  2  0
 36 25  1  0
 37 36  1  0
 38 37  2  0
 39 37  1  0
  1 40  1  1
  2 41  1  0
  2 42  1  0
  3 43  1  0
  3 44  1  0
  5 45  1  1
  7 46  1  0
  7 47  1  0
  7 48  1  0
  8 49  1  0
  8 50  1  0
  8 51  1  0
  9 52  1  0
  9 53  1  0
 10 54  1  0
 10 55  1  0
 12 56  1  1
 13 57  1  0
 13 58  1  0
 14 59  1  0
 14 60  1  0
 15 61  1  6
 17 62  1  0
 17 63  1  0
 18 64  1  0
 18 65  1  0
 19 66  1  0
 19 67  1  0
 20 68  1  6
 22 69  1  0
 22 70  1  0
 22 71  1  0
 23 72  1  0
 23 73  1  0
 24 74  1  0
 24 75  1  0
 25 76  1  1
 27 77  1  0
 27 78  1  0
 27 79  1  0
 28 80  1  0
 28 81  1  0
 28 82  1  0
 29 83  1  0
 29 84  1  0
 29 85  1  0
 30 86  1  0
 30 87  1  0
 30 88  1  0
 31 89  1  0
 33 90  1  0
 33 91  1  0
 33 92  1  0
 39 93  1  0
 39 94  1  0
 39 95  1  0
M  END
>  <score>  (8) 
-7.041

$$$$
=
     RDKit          3D

 95 99  0  0  0  0  0  0  0  0999 V2000
    2.4360   59.6430   72.1480 C   0  0  1  0  0  0  0  0  0  0  0  0
    1.8850   58.3780   72.8010 C   0  0  0  0  0  0  0  0  0  0  0  0
    0.4480   58.5450   73.2950 C   0  0  0  0  0  0  0  0  0  0  0  0
    0.2310   59.7490   74.2630 C   0  0  1  0  0  0  0  0  0  0  0  0
    0.8430   61.0280   73.5600 C   0  0  2  0  0  0  0  0  0  0  0  0
    2.3310   60.9010   73.0650 C   0  0  0  0  0  0  0  0  0  0  0  0
    3.3700   60.8660   74.2050 C   0  0  0  0  0  0  0  0  0  0  0  0
    2.7050   62.1310   72.1890 C   0  0  0  0  0  0  0  0  0  0  0  0
    0.5280   62.3230   74.3360 C   0  0  0  0  0  0  0  0  0  0  0  0
   -0.9820   62.5160   74.5310 C   0  0  0  0  0  0  0  0  0  0  0  0
   -1.6830   61.3330   75.2680 C   0  0  2  0  0  0  0  0  0  0  0  0
   -1.3260   60.0360   74.4540 C   0  0  2  0  0  0  0  0  0  0  0  0
   -2.2550   58.8240   74.7190 C   0  0  0  0  0  0  0  0  0  0  0  0
   -2.6840   58.5800   76.1470 C   0  0  0  0  0  0  0  0  0  0  0  0
   -3.8990   59.3840   76.6830 C   0  0  1  0  0  0  0  0  0  0  0  0
   -4.2050   60.8270   76.1230 C   0  0  1  0  0  0  0  0  0  0  0  0
   -3.2200   61.5460   75.1520 C   0  0  0  0  0  0  0  0  0  0  0  0
   -5.5950   60.9180   75.4630 C   0  0  0  0  0  0  0  0  0  0  0  0
   -6.7590   60.4030   76.3050 C   0  0  0  0  0  0  0  0  0  0  0  0
   -6.3820   59.3540   77.3670 C   0  0  2  0  0  0  0  0  0  0  0  0
   -5.1930   58.4490   76.9010 C   0  0  1  0  0  0  0  0  0  0  0  0
   -5.5450   57.6760   75.6050 C   0  0  0  0  0  0  0  0  0  0  0  0
   -4.8380   57.3900   78.0090 C   0  0  0  0  0  0  0  0  0  0  0  0
   -5.7980   57.3430   79.1960 C   0  0  0  0  0  0  0  0  0  0  0  0
   -7.2500   57.3060   78.7360 C   0  0  1  0  0  0  0  0  0  0  0  0
   -7.6430   58.6300   78.0060 C   0  0  0  0  0  0  0  0  0  0  0  0
   -8.2280   59.5920   79.0800 C   0  0  0  0  0  0  0  0  0  0  0  0
   -8.7940   58.3610   77.0090 C   0  0  0  0  0  0  0  0  0  0  0  0
   -1.2560   61.4440   76.7470 C   0  0  0  0  0  0  0  0  0  0  0  0
    0.8940   59.3890   75.6080 C   0  0  0  0  0  0  0  0  0  0  0  0
   -4.2830   61.6750   77.3000 O   0  0  0  0  0  0  0  0  0  0  0  0
    3.8190   59.4190   71.7960 O   0  0  0  0  0  0  0  0  0  0  0  0
    5.2570   60.8020   70.5730 C   0  0  0  0  0  0  0  0  0  0  0  0
    4.1870   59.7540   70.5300 C   0  0  0  0  0  0  0  0  0  0  0  0
    3.7250   59.2830   69.5010 O   0  0  0  0  0  0  0  0  0  0  0  0
   -7.4310   56.1760   77.8510 O   0  0  0  0  0  0  0  0  0  0  0  0
   -7.9140   55.0330   78.4070 C   0  0  0  0  0  0  0  0  0  0  0  0
   -7.5550   53.8970   78.1370 O   0  0  0  0  0  0  0  0  0  0  0  0
   -8.9730   55.3690   79.4140 C   0  0  0  0  0  0  0  0  0  0  0  0
    1.8249   59.8480   71.2566 H   0  0  0  0  0  0  0  0  0  0  0  0
    1.9108   57.5620   72.0638 H   0  0  0  0  0  0  0  0  0  0  0  0
    2.5129   58.1564   73.6766 H   0  0  0  0  0  0  0  0  0  0  0  0
   -0.2018   58.6874   72.4190 H   0  0  0  0  0  0  0  0  0  0  0  0
    0.2070   57.6370   73.8672 H   0  0  0  0  0  0  0  0  0  0  0  0
    0.3062   61.1024   72.6027 H   0  0  0  0  0  0  0  0  0  0  0  0
    2.8511   60.8835   75.1747 H   0  0  0  0  0  0  0  0  0  0  0  0
    3.9696   59.9471   74.1265 H   0  0  0  0  0  0  0  0  0  0  0  0
    4.0301   61.7424   74.1265 H   0  0  0  0  0  0  0  0  0  0  0  0
    2.9630   62.9796   72.8396 H   0  0  0  0  0  0  0  0  0  0  0  0
    3.5675   61.8803   71.5540 H   0  0  0  0  0  0  0  0  0  0  0  0
    1.8489   62.4028   71.5540 H   0  0  0  0  0  0  0  0  0  0  0  0
    1.0113   62.2735   75.3229 H   0  0  0  0  0  0  0  0  0  0  0  0
    0.9094   63.1736   73.7520 H   0  0  0  0  0  0  0  0  0  0  0  0
   -1.1406   63.4322   75.1187 H   0  0  0  0  0  0  0  0  0  0  0  0
   -1.4277   62.5743   73.5270 H   0  0  0  0  0  0  0  0  0  0  0  0
   -1.5990   60.2856   73.4181 H   0  0  0  0  0  0  0  0  0  0  0  0
   -3.1663   58.9688   74.1202 H   0  0  0  0  0  0  0  0  0  0  0  0
   -1.6540   57.9429   74.4498 H   0  0  0  0  0  0  0  0  0  0  0  0
   -2.9310   57.5119   76.2379 H   0  0  0  0  0  0  0  0  0  0  0  0
   -1.8338   58.9227   76.7551 H   0  0  0  0  0  0  0  0  0  0  0  0
   -3.5256   59.7039   77.6670 H   0  0  0  0  0  0  0  0  0  0  0  0
   -3.5027   61.2377   74.1346 H   0  0  0  0  0  0  0  0  0  0  0  0
   -3.3392   62.6046   75.4261 H   0  0  0  0  0  0  0  0  0  0  0  0
   -5.7893   61.9747   75.2271 H   0  0  0  0  0  0  0  0  0  0  0  0
   -5.5516   60.2659   74.5782 H   0  0  0  0  0  0  0  0  0  0  0  0
   -7.2131   61.2621   76.8205 H   0  0  0  0  0  0  0  0  0  0  0  0
   -7.4437   59.8998   75.6065 H   0  0  0  0  0  0  0  0  0  0  0  0
   -5.9659   59.8796   78.2391 H   0  0  0  0  0  0  0  0  0  0  0  0
   -5.9878   56.7037   75.8668 H   0  0  0  0  0  0  0  0  0  0  0  0
   -6.2659   58.2600   75.0141 H   0  0  0  0  0  0  0  0  0  0  0  0
   -4.6312   57.5156   75.0141 H   0  0  0  0  0  0  0  0  0  0  0  0
   -4.8295   56.3956   77.5388 H   0  0  0  0  0  0  0  0  0  0  0  0
   -3.8623   57.6916   78.4177 H   0  0  0  0  0  0  0  0  0  0  0  0
   -5.5880   56.4417   79.7906 H   0  0  0  0  0  0  0  0  0  0  0  0
   -5.6488   58.2515   79.7979 H   0  0  0  0  0  0  0  0  0  0  0  0
   -7.9024   57.2033   79.6157 H   0  0  0  0  0  0  0  0  0  0  0  0
   -7.9939   59.2071   80.0835 H   0  0  0  0  0  0  0  0  0  0  0  0
   -7.7844   60.5912   78.9579 H   0  0  0  0  0  0  0  0  0  0  0  0
   -9.3192   59.6578   78.9579 H   0  0  0  0  0  0  0  0  0  0  0  0
   -9.7180   58.1450   77.5653 H   0  0  0  0  0  0  0  0  0  0  0  0
   -8.9458   59.2479   76.3762 H   0  0  0  0  0  0  0  0  0  0  0  0
   -8.5370   57.4987   76.3762 H   0  0  0  0  0  0  0  0  0  0  0  0
   -2.1164   61.2203   77.3948 H   0  0  0  0  0  0  0  0  0  0  0  0
   -0.4477   60.7261   76.9501 H   0  0  0  0  0  0  0  0  0  0  0  0
   -0.8996   62.4646   76.9501 H   0  0  0  0  0  0  0  0  0  0  0  0
    0.2567   59.7350   76.4351 H   0  0  0  0  0  0  0  0  0  0  0  0
    1.0205   58.2983   75.6741 H   0  0  0  0  0  0  0  0  0  0  0  0
    1.8777   59.8769   75.6741 H   0  0  0  0  0  0  0  0  0  0  0  0
   -4.2315   61.1146   78.1145 H   0  0  0  0  0  0  0  0  0  0  0  0
    5.4976   61.0376   71.6202 H   0  0  0  0  0  0  0  0  0  0  0  0
    6.1579   60.4272   70.0652 H   0  0  0  0  0  0  0  0  0  0  0  0
    4.9010   61.7105   70.0652 H   0  0  0  0  0  0  0  0  0  0  0  0
   -8.5681   55.2405   80.4287 H   0  0  0  0  0  0  0  0  0  0  0  0
   -9.2923   56.4126   79.2760 H   0  0  0  0  0  0  0  0  0  0  0  0
   -9.8355   54.7004   79.2760 H   0  0  0  0  0  0  0  0  0  0  0  0
  2  1  1  0
  3  2  1  0
  4  3  1  0
  5  4  1  0
  6  1  1  0
  6  5  1  0
  7  6  1  0
  8  6  1  0
  9  5  1  0
 10  9  1  0
 11 10  1  0
 12 11  1  0
 12  4  1  0
 13 12  1  0
 14 13  1  0
 15 14  1  0
 16 15  1  0
 17 16  1  0
 17 11  1  0
 18 16  1  0
 19 18  1  0
 20 19  1  0
 21 20  1  0
 21 15  1  0
 21 22  1  6
 23 21  1  0
 24 23  1  0
 25 24  1  0
 26 25  1  0
 26 20  1  0
 27 26  1  0
 28 26  1  0
 11 29  1  1
  4 30  1  1
 16 31  1  1
 32  1  1  0
 34 32  1  0
 34 33  1  0
 35 34  2  0
 36 25  1  0
 37 36  1  0
 38 37  2  0
 39 37  1  0
  1 40  1  6
  2 41  1  0
  2 42  1  0
  3 43  1  0
  3 44  1  0
  5 45  1  6
  7 46  1  0
  7 47  1  0
  7 48  1  0
  8 49  1  0
  8 50  1  0
  8 51  1  0
  9 52  1  0
  9 53  1  0
 10 54  1  0
 10 55  1  0
 12 56  1  6
 13 57  1  0
 13 58  1  0
 14 59  1  0
 14 60  1  0
 15 61  1  1
 17 62  1  0
 17 63  1  0
 18 64  1  0
 18 65  1  0
 19 66  1  0
 19 67  1  0
 20 68  1  1
 22 69  1  0
 22 70  1  0
 22 71  1  0
 23 72  1  0
 23 73  1  0
 24 74  1  0
 24 75  1  0
 25 76  1  1
 27 77  1  0
 27 78  1  0
 27 79  1  0
 28 80  1  0
 28 81  1  0
 28 82  1  0
 29 83  1  0
 29 84  1  0
 29 85  1  0
 30 86  1  0
 30 87  1  0
 30 88  1  0
 31 89  1  0
 33 90  1  0
 33 91  1  0
 33 92  1  0
 39 93  1  0
 39 94  1  0
 39 95  1  0
M  END
>  <score>  (9) 
-6.888

$$$$
