=
     RDKit          3D

 31 33  0  0  0  0  0  0  0  0999 V2000
    5.9970   70.6970   68.1160 C   0  0  0  0  0  0  0  0  0  0  0  0
    6.6550   70.6710   66.8900 C   0  0  0  0  0  0  0  0  0  0  0  0
    5.9940   70.1890   65.7610 C   0  0  0  0  0  0  0  0  0  0  0  0
    4.6770   69.7380   65.8790 C   0  0  0  0  0  0  0  0  0  0  0  0
    4.0230   69.7650   67.1030 C   0  0  0  0  0  0  0  0  0  0  0  0
    4.6840   70.2470   68.2350 C   0  0  0  0  0  0  0  0  0  0  0  0
    2.7340   69.3340   67.2680 O   0  0  0  0  0  0  0  0  0  0  0  0
    2.0130   68.8380   66.1760 C   0  0  0  0  0  0  0  0  0  0  0  0
    2.5500   68.7670   64.9390 C   0  0  0  0  0  0  0  0  0  0  0  0
    3.9480   69.2250   64.7210 C   0  0  0  0  0  0  0  0  0  0  0  0
    4.4380   69.1610   63.5970 O   0  0  0  0  0  0  0  0  0  0  0  0
    0.6230   68.4200   66.5680 C   0  0  0  0  0  0  0  0  0  0  0  0
    0.3430   67.4060   67.5040 C   0  0  0  0  0  0  0  0  0  0  0  0
   -0.9700   67.0450   67.8410 C   0  0  0  0  0  0  0  0  0  0  0  0
   -2.0290   67.6990   67.2420 C   0  0  0  0  0  0  0  0  0  0  0  0
   -1.7940   68.7030   66.3140 C   0  0  0  0  0  0  0  0  0  0  0  0
   -0.4900   69.0630   65.9770 C   0  0  0  0  0  0  0  0  0  0  0  0
   -2.8830   69.3150   65.7530 O   0  0  0  0  0  0  0  0  0  0  0  0
   -3.3060   67.3500   67.5680 O   0  0  0  0  0  0  0  0  0  0  0  0
    6.6840   71.1760   69.1910 O   0  0  0  0  0  0  0  0  0  0  0  0
    1.9090   68.2920   63.8100 O   0  0  0  0  0  0  0  0  0  0  0  0
    7.6921   71.0292   66.8120 H   0  0  0  0  0  0  0  0  0  0  0  0
    6.5044   70.1641   64.7869 H   0  0  0  0  0  0  0  0  0  0  0  0
    4.1737   70.2710   69.2092 H   0  0  0  0  0  0  0  0  0  0  0  0
    1.1803   66.8803   67.9862 H   0  0  0  0  0  0  0  0  0  0  0  0
   -1.1547   66.2478   68.5761 H   0  0  0  0  0  0  0  0  0  0  0  0
   -0.3236   69.8611   65.2385 H   0  0  0  0  0  0  0  0  0  0  0  0
   -2.7569   70.0362   65.0866 H   0  0  0  0  0  0  0  0  0  0  0  0
   -4.0700   67.8144   67.1427 H   0  0  0  0  0  0  0  0  0  0  0  0
    6.2503   71.2106   70.0803 H   0  0  0  0  0  0  0  0  0  0  0  0
    2.3830   68.2772   62.9410 H   0  0  0  0  0  0  0  0  0  0  0  0
  2  1  2  0
  3  2  1  0
  4  3  2  0
  5  4  1  0
  6  5  2  0
  6  1  1  0
  7  5  1  0
  8  7  1  0
  9  8  2  0
 10  9  1  0
 10  4  1  0
 11 10  2  0
 12  8  1  0
 13 12  2  0
 14 13  1  0
 15 14  2  0
 16 15  1  0
 17 16  2  0
 17 12  1  0
 18 16  1  0
 19 15  1  0
 20  1  1  0
 21  9  1  0
  2 22  1  0
  3 23  1  0
  6 24  1  0
 13 25  1  0
 14 26  1  0
 17 27  1  0
 18 28  1  0
 19 29  1  0
 20 30  1  0
 21 31  1  0
M  END
>  <score>  (1) 
-10.386

$$$$
=
     RDKit          3D

 31 33  0  0  0  0  0  0  0  0999 V2000
    5.0850   69.1130   63.1070 C   0  0  0  0  0  0  0  0  0  0  0  0
    6.0390   69.6820   63.9460 C   0  0  0  0  0  0  0  0  0  0  0  0
    5.7270   69.9230   65.2840 C   0  0  0  0  0  0  0  0  0  0  0  0
    4.4570   69.5890   65.7620 C   0  0  0  0  0  0  0  0  0  0  0  0
    3.5080   69.0220   64.9220 C   0  0  0  0  0  0  0  0  0  0  0  0
    3.8190   68.7790   63.5830 C   0  0  0  0  0  0  0  0  0  0  0  0
    2.2520   68.6770   65.3450 O   0  0  0  0  0  0  0  0  0  0  0  0
    1.8730   68.8930   66.6750 C   0  0  0  0  0  0  0  0  0  0  0  0
    2.7170   69.4380   67.5780 C   0  0  0  0  0  0  0  0  0  0  0  0
    4.0890   69.8250   67.1560 C   0  0  0  0  0  0  0  0  0  0  0  0
    4.8570   70.3200   67.9750 O   0  0  0  0  0  0  0  0  0  0  0  0
    0.4600   68.4480   66.9330 C   0  0  0  0  0  0  0  0  0  0  0  0
    0.1120   67.4160   67.8250 C   0  0  0  0  0  0  0  0  0  0  0  0
   -1.2200   67.0310   68.0360 C   0  0  0  0  0  0  0  0  0  0  0  0
   -2.2300   67.6800   67.3520 C   0  0  0  0  0  0  0  0  0  0  0  0
   -1.9280   68.7020   66.4650 C   0  0  0  0  0  0  0  0  0  0  0  0
   -0.6040   69.0850   66.2520 C   0  0  0  0  0  0  0  0  0  0  0  0
   -2.9700   69.3070   65.8160 O   0  0  0  0  0  0  0  0  0  0  0  0
   -3.5260   67.3070   67.5560 O   0  0  0  0  0  0  0  0  0  0  0  0
    5.4360   68.8960   61.8080 O   0  0  0  0  0  0  0  0  0  0  0  0
    2.4240   69.6830   68.9050 O   0  0  0  0  0  0  0  0  0  0  0  0
    7.0344   69.9404   63.5556 H   0  0  0  0  0  0  0  0  0  0  0  0
    6.4732   70.3715   65.9563 H   0  0  0  0  0  0  0  0  0  0  0  0
    3.0730   68.3290   62.9114 H   0  0  0  0  0  0  0  0  0  0  0  0
    0.9102   66.8950   68.3740 H   0  0  0  0  0  0  0  0  0  0  0  0
   -1.4585   66.2198   68.7396 H   0  0  0  0  0  0  0  0  0  0  0  0
   -0.3832   69.8961   65.5425 H   0  0  0  0  0  0  0  0  0  0  0  0
   -2.7948   70.0408   65.1749 H   0  0  0  0  0  0  0  0  0  0  0  0
   -4.2558   67.7667   67.0700 H   0  0  0  0  0  0  0  0  0  0  0  0
    4.7852   68.4931   61.1801 H   0  0  0  0  0  0  0  0  0  0  0  0
    3.1074   70.0873   69.4963 H   0  0  0  0  0  0  0  0  0  0  0  0
  2  1  2  0
  3  2  1  0
  4  3  2  0
  5  4  1  0
  6  5  2  0
  6  1  1  0
  7  5  1  0
  8  7  1  0
  9  8  2  0
 10  9  1  0
 10  4  1  0
 11 10  2  0
 12  8  1  0
 13 12  2  0
 14 13  1  0
 15 14  2  0
 16 15  1  0
 17 16  2  0
 17 12  1  0
 18 16  1  0
 19 15  1  0
 20  1  1  0
 21  9  1  0
  2 22  1  0
  3 23  1  0
  6 24  1  0
 13 25  1  0
 14 26  1  0
 17 27  1  0
 18 28  1  0
 19 29  1  0
 20 30  1  0
 21 31  1  0
M  END
>  <score>  (2) 
-9.772

$$$$
=
     RDKit          3D

 31 33  0  0  0  0  0  0  0  0999 V2000
    5.7340   69.7080   65.5300 C   0  0  0  0  0  0  0  0  0  0  0  0
    6.0270   69.5820   64.1750 C   0  0  0  0  0  0  0  0  0  0  0  0
    5.0210   69.2100   63.2830 C   0  0  0  0  0  0  0  0  0  0  0  0
    3.7320   68.9670   63.7670 C   0  0  0  0  0  0  0  0  0  0  0  0
    3.4450   69.0930   65.1180 C   0  0  0  0  0  0  0  0  0  0  0  0
    4.4500   69.4660   66.0130 C   0  0  0  0  0  0  0  0  0  0  0  0
    2.1980   68.8660   65.6380 O   0  0  0  0  0  0  0  0  0  0  0  0
    1.1440   68.4890   64.7980 C   0  0  0  0  0  0  0  0  0  0  0  0
    1.3110   68.3370   63.4670 C   0  0  0  0  0  0  0  0  0  0  0  0
    2.6500   68.5740   62.8660 C   0  0  0  0  0  0  0  0  0  0  0  0
    2.8040   68.4370   61.6560 O   0  0  0  0  0  0  0  0  0  0  0  0
   -0.1350   68.2890   65.5630 C   0  0  0  0  0  0  0  0  0  0  0  0
   -0.2450   67.4850   66.7140 C   0  0  0  0  0  0  0  0  0  0  0  0
   -1.4590   67.3240   67.3980 C   0  0  0  0  0  0  0  0  0  0  0  0
   -2.5880   67.9720   66.9370 C   0  0  0  0  0  0  0  0  0  0  0  0
   -2.5210   68.7730   65.8060 C   0  0  0  0  0  0  0  0  0  0  0  0
   -1.3150   68.9340   65.1240 C   0  0  0  0  0  0  0  0  0  0  0  0
   -3.6730   69.3890   65.3970 O   0  0  0  0  0  0  0  0  0  0  0  0
   -3.7690   67.8180   67.6000 O   0  0  0  0  0  0  0  0  0  0  0  0
    6.7490   70.0730   66.3630 O   0  0  0  0  0  0  0  0  0  0  0  0
    0.3270   67.9690   62.5700 O   0  0  0  0  0  0  0  0  0  0  0  0
    7.0465   69.7748   63.8095 H   0  0  0  0  0  0  0  0  0  0  0  0
    5.2397   69.1089   62.2097 H   0  0  0  0  0  0  0  0  0  0  0  0
    4.2304   69.5675   67.0861 H   0  0  0  0  0  0  0  0  0  0  0  0
    0.6499   66.9666   67.0887 H   0  0  0  0  0  0  0  0  0  0  0  0
   -1.5112   66.6873   68.2935 H   0  0  0  0  0  0  0  0  0  0  0  0
   -1.2809   69.5734   64.2296 H   0  0  0  0  0  0  0  0  0  0  0  0
   -3.6663   69.9687   64.5945 H   0  0  0  0  0  0  0  0  0  0  0  0
   -4.5826   68.2793   67.2755 H   0  0  0  0  0  0  0  0  0  0  0  0
    6.5811   70.1733   67.3335 H   0  0  0  0  0  0  0  0  0  0  0  0
    0.5420   67.8819   61.6076 H   0  0  0  0  0  0  0  0  0  0  0  0
  2  1  2  0
  3  2  1  0
  4  3  2  0
  5  4  1  0
  6  5  2  0
  6  1  1  0
  7  5  1  0
  8  7  1  0
  9  8  2  0
 10  9  1  0
 10  4  1  0
 11 10  2  0
 12  8  1  0
 13 12  2  0
 14 13  1  0
 15 14  2  0
 16 15  1  0
 17 16  2  0
 17 12  1  0
 18 16  1  0
 19 15  1  0
 20  1  1  0
 21  9  1  0
  2 22  1  0
  3 23  1  0
  6 24  1  0
 13 25  1  0
 14 26  1  0
 17 27  1  0
 18 28  1  0
 19 29  1  0
 20 30  1  0
 21 31  1  0
M  END
>  <score>  (3) 
-9.583

$$$$
=
     RDKit          3D

 31 33  0  0  0  0  0  0  0  0999 V2000
   -2.7600   68.7350   65.7390 C   0  0  0  0  0  0  0  0  0  0  0  0
   -3.2140   67.6440   66.4760 C   0  0  0  0  0  0  0  0  0  0  0  0
   -2.3770   67.0530   67.4210 C   0  0  0  0  0  0  0  0  0  0  0  0
   -1.0910   67.5660   67.6140 C   0  0  0  0  0  0  0  0  0  0  0  0
   -0.6420   68.6530   66.8770 C   0  0  0  0  0  0  0  0  0  0  0  0
   -1.4800   69.2470   65.9300 C   0  0  0  0  0  0  0  0  0  0  0  0
    0.6080   69.1910   67.0310 O   0  0  0  0  0  0  0  0  0  0  0  0
    1.4990   68.6450   67.9620 C   0  0  0  0  0  0  0  0  0  0  0  0
    1.1670   67.5870   68.7320 C   0  0  0  0  0  0  0  0  0  0  0  0
   -0.1820   66.9760   68.5940 C   0  0  0  0  0  0  0  0  0  0  0  0
   -0.4860   66.0140   69.2930 O   0  0  0  0  0  0  0  0  0  0  0  0
    2.8120   69.3780   67.9750 C   0  0  0  0  0  0  0  0  0  0  0  0
    3.2710   70.1480   69.0610 C   0  0  0  0  0  0  0  0  0  0  0  0
    4.5040   70.8160   69.0320 C   0  0  0  0  0  0  0  0  0  0  0  0
    5.3000   70.7230   67.9070 C   0  0  0  0  0  0  0  0  0  0  0  0
    4.8820   69.9740   66.8160 C   0  0  0  0  0  0  0  0  0  0  0  0
    3.6570   69.3090   66.8430 C   0  0  0  0  0  0  0  0  0  0  0  0
    5.7130   69.9190   65.7300 O   0  0  0  0  0  0  0  0  0  0  0  0
    6.4990   71.3720   67.8760 O   0  0  0  0  0  0  0  0  0  0  0  0
   -3.6150   69.2780   64.8270 O   0  0  0  0  0  0  0  0  0  0  0  0
    1.9840   66.9890   69.6730 O   0  0  0  0  0  0  0  0  0  0  0  0
   -4.2282   67.2506   66.3131 H   0  0  0  0  0  0  0  0  0  0  0  0
   -2.7251   66.1912   68.0093 H   0  0  0  0  0  0  0  0  0  0  0  0
   -1.1322   70.1093   65.3422 H   0  0  0  0  0  0  0  0  0  0  0  0
    2.6428   70.2281   69.9604 H   0  0  0  0  0  0  0  0  0  0  0  0
    4.8342   71.4088   69.8977 H   0  0  0  0  0  0  0  0  0  0  0  0
    3.3422   68.7204   65.9687 H   0  0  0  0  0  0  0  0  0  0  0  0
    5.4506   69.3952   64.9320 H   0  0  0  0  0  0  0  0  0  0  0  0
    7.0749   71.3099   67.0731 H   0  0  0  0  0  0  0  0  0  0  0  0
   -3.3305   70.0546   64.2829 H   0  0  0  0  0  0  0  0  0  0  0  0
    1.6546   66.2140   70.1936 H   0  0  0  0  0  0  0  0  0  0  0  0
  2  1  2  0
  3  2  1  0
  4  3  2  0
  5  4  1  0
  6  5  2  0
  6  1  1  0
  7  5  1  0
  8  7  1  0
  9  8  2  0
 10  9  1  0
 10  4  1  0
 11 10  2  0
 12  8  1  0
 13 12  2  0
 14 13  1  0
 15 14  2  0
 16 15  1  0
 17 16  2  0
 17 12  1  0
 18 16  1  0
 19 15  1  0
 20  1  1  0
 21  9  1  0
  2 22  1  0
  3 23  1  0
  6 24  1  0
 13 25  1  0
 14 26  1  0
 17 27  1  0
 18 28  1  0
 19 29  1  0
 20 30  1  0
 21 31  1  0
M  END
>  <score>  (4) 
-9.418

$$$$
=
     RDKit          3D

 31 33  0  0  0  0  0  0  0  0999 V2000
    3.8170   68.8740   61.2350 C   0  0  0  0  0  0  0  0  0  0  0  0
    5.0260   69.2810   61.7920 C   0  0  0  0  0  0  0  0  0  0  0  0
    5.1350   69.4290   63.1740 C   0  0  0  0  0  0  0  0  0  0  0  0
    4.0240   69.1650   63.9810 C   0  0  0  0  0  0  0  0  0  0  0  0
    2.8210   68.7600   63.4220 C   0  0  0  0  0  0  0  0  0  0  0  0
    2.7100   68.6110   62.0380 C   0  0  0  0  0  0  0  0  0  0  0  0
    1.7060   68.4890   64.1710 O   0  0  0  0  0  0  0  0  0  0  0  0
    1.7470   68.6180   65.5640 C   0  0  0  0  0  0  0  0  0  0  0  0
    2.8660   69.0060   66.2130 C   0  0  0  0  0  0  0  0  0  0  0  0
    4.0960   69.3080   65.4330 C   0  0  0  0  0  0  0  0  0  0  0  0
    5.1140   69.6600   66.0210 O   0  0  0  0  0  0  0  0  0  0  0  0
    0.4250   68.2770   66.1960 C   0  0  0  0  0  0  0  0  0  0  0  0
   -0.8030   68.8390   65.7980 C   0  0  0  0  0  0  0  0  0  0  0  0
   -2.0140   68.4930   66.4150 C   0  0  0  0  0  0  0  0  0  0  0  0
   -2.0130   67.5730   67.4450 C   0  0  0  0  0  0  0  0  0  0  0  0
   -0.8240   66.9970   67.8650 C   0  0  0  0  0  0  0  0  0  0  0  0
    0.3820   67.3390   67.2540 C   0  0  0  0  0  0  0  0  0  0  0  0
   -0.8850   66.0920   68.8900 O   0  0  0  0  0  0  0  0  0  0  0  0
   -3.1900   67.2360   68.0460 O   0  0  0  0  0  0  0  0  0  0  0  0
    3.7590   68.7440   59.8800 O   0  0  0  0  0  0  0  0  0  0  0  0
    2.9910   69.1570   67.5810 O   0  0  0  0  0  0  0  0  0  0  0  0
    5.8916   69.4850   61.1446 H   0  0  0  0  0  0  0  0  0  0  0  0
    6.0855   69.7502   63.6250 H   0  0  0  0  0  0  0  0  0  0  0  0
    1.7594   68.2897   61.5874 H   0  0  0  0  0  0  0  0  0  0  0  0
   -0.8129   69.5720   64.9779 H   0  0  0  0  0  0  0  0  0  0  0  0
   -2.9569   68.9507   66.0813 H   0  0  0  0  0  0  0  0  0  0  0  0
    1.3155   66.8715   67.6006 H   0  0  0  0  0  0  0  0  0  0  0  0
   -0.0573   65.6591   69.2181 H   0  0  0  0  0  0  0  0  0  0  0  0
   -3.1976   66.5773   68.7850 H   0  0  0  0  0  0  0  0  0  0  0  0
    2.9169   68.4567   59.4459 H   0  0  0  0  0  0  0  0  0  0  0  0
    3.8539   69.4469   67.9702 H   0  0  0  0  0  0  0  0  0  0  0  0
  2  1  2  0
  3  2  1  0
  4  3  2  0
  5  4  1  0
  6  5  2  0
  6  1  1  0
  7  5  1  0
  8  7  1  0
  9  8  2  0
 10  9  1  0
 10  4  1  0
 11 10  2  0
 12  8  1  0
 13 12  2  0
 14 13  1  0
 15 14  2  0
 16 15  1  0
 17 16  2  0
 17 12  1  0
 18 16  1  0
 19 15  1  0
 20  1  1  0
 21  9  1  0
  2 22  1  0
  3 23  1  0
  6 24  1  0
 13 25  1  0
 14 26  1  0
 17 27  1  0
 18 28  1  0
 19 29  1  0
 20 30  1  0
 21 31  1  0
M  END
>  <score>  (5) 
-9.311

$$$$
=
     RDKit          3D

 31 33  0  0  0  0  0  0  0  0999 V2000
    1.9070   68.7320   62.0300 C   0  0  0  0  0  0  0  0  0  0  0  0
    0.6060   68.3520   62.3490 C   0  0  0  0  0  0  0  0  0  0  0  0
    0.2000   68.3340   63.6830 C   0  0  0  0  0  0  0  0  0  0  0  0
    1.1090   68.6970   64.6810 C   0  0  0  0  0  0  0  0  0  0  0  0
    2.4050   69.0750   64.3590 C   0  0  0  0  0  0  0  0  0  0  0  0
    2.8130   69.0950   63.0230 C   0  0  0  0  0  0  0  0  0  0  0  0
    3.3290   69.4400   65.3010 O   0  0  0  0  0  0  0  0  0  0  0  0
    2.9880   69.4420   66.6580 C   0  0  0  0  0  0  0  0  0  0  0  0
    1.7550   69.0920   67.0840 C   0  0  0  0  0  0  0  0  0  0  0  0
    0.7240   68.6910   66.0910 C   0  0  0  0  0  0  0  0  0  0  0  0
   -0.3970   68.3730   66.4760 O   0  0  0  0  0  0  0  0  0  0  0  0
    4.1400   69.8710   67.5240 C   0  0  0  0  0  0  0  0  0  0  0  0
    4.0100   70.2460   68.8750 C   0  0  0  0  0  0  0  0  0  0  0  0
    5.1120   70.6410   69.6470 C   0  0  0  0  0  0  0  0  0  0  0  0
    6.3690   70.6650   69.0750 C   0  0  0  0  0  0  0  0  0  0  0  0
    6.5380   70.3030   67.7470 C   0  0  0  0  0  0  0  0  0  0  0  0
    5.4440   69.9110   66.9760 C   0  0  0  0  0  0  0  0  0  0  0  0
    7.8060   70.3470   67.2340 O   0  0  0  0  0  0  0  0  0  0  0  0
    7.4420   71.0490   69.8240 O   0  0  0  0  0  0  0  0  0  0  0  0
    2.2570   68.7350   60.7130 O   0  0  0  0  0  0  0  0  0  0  0  0
    1.3370   69.0680   68.4010 O   0  0  0  0  0  0  0  0  0  0  0  0
   -0.0978   68.0675   61.5530 H   0  0  0  0  0  0  0  0  0  0  0  0
   -0.8256   68.0370   63.9474 H   0  0  0  0  0  0  0  0  0  0  0  0
    3.8380   69.3940   62.7587 H   0  0  0  0  0  0  0  0  0  0  0  0
    3.0129   70.2286   69.3393 H   0  0  0  0  0  0  0  0  0  0  0  0
    4.9765   70.9295   70.6998 H   0  0  0  0  0  0  0  0  0  0  0  0
    5.5974   69.6281   65.9241 H   0  0  0  0  0  0  0  0  0  0  0  0
    7.9670   70.0959   66.2900 H   0  0  0  0  0  0  0  0  0  0  0  0
    8.3458   71.0685   69.4205 H   0  0  0  0  0  0  0  0  0  0  0  0
    3.1727   68.9989   60.4448 H   0  0  0  0  0  0  0  0  0  0  0  0
    0.4107   68.7970   68.6215 H   0  0  0  0  0  0  0  0  0  0  0  0
  2  1  2  0
  3  2  1  0
  4  3  2  0
  5  4  1  0
  6  5  2  0
  6  1  1  0
  7  5  1  0
  8  7  1  0
  9  8  2  0
 10  9  1  0
 10  4  1  0
 11 10  2  0
 12  8  1  0
 13 12  2  0
 14 13  1  0
 15 14  2  0
 16 15  1  0
 17 16  2  0
 17 12  1  0
 18 16  1  0
 19 15  1  0
 20  1  1  0
 21  9  1  0
  2 22  1  0
  3 23  1  0
  6 24  1  0
 13 25  1  0
 14 26  1  0
 17 27  1  0
 18 28  1  0
 19 29  1  0
 20 30  1  0
 21 31  1  0
M  END
>  <score>  (6) 
-8.659

$$$$
=
     RDKit          3D

 31 33  0  0  0  0  0  0  0  0999 V2000
    2.7400   61.1220   70.8900 C   0  0  0  0  0  0  0  0  0  0  0  0
    2.3690   61.0420   72.2300 C   0  0  0  0  0  0  0  0  0  0  0  0
    1.5960   62.0570   72.7930 C   0  0  0  0  0  0  0  0  0  0  0  0
    1.2050   63.1410   72.0020 C   0  0  0  0  0  0  0  0  0  0  0  0
    1.5770   63.2160   70.6670 C   0  0  0  0  0  0  0  0  0  0  0  0
    2.3510   62.2010   70.1010 C   0  0  0  0  0  0  0  0  0  0  0  0
    1.2180   64.2570   69.8530 O   0  0  0  0  0  0  0  0  0  0  0  0
    0.4430   65.3090   70.3550 C   0  0  0  0  0  0  0  0  0  0  0  0
    0.0250   65.3370   71.6390 C   0  0  0  0  0  0  0  0  0  0  0  0
    0.3950   64.2250   72.5530 C   0  0  0  0  0  0  0  0  0  0  0  0
    0.0160   64.2490   73.7200 O   0  0  0  0  0  0  0  0  0  0  0  0
    0.1610   66.3460   69.3040 C   0  0  0  0  0  0  0  0  0  0  0  0
    1.0920   67.3190   68.8910 C   0  0  0  0  0  0  0  0  0  0  0  0
    0.7870   68.2700   67.9060 C   0  0  0  0  0  0  0  0  0  0  0  0
   -0.4620   68.2610   67.3170 C   0  0  0  0  0  0  0  0  0  0  0  0
   -1.4060   67.3190   67.6970 C   0  0  0  0  0  0  0  0  0  0  0  0
   -1.1070   66.3730   68.6760 C   0  0  0  0  0  0  0  0  0  0  0  0
   -2.6270   67.3600   67.0780 O   0  0  0  0  0  0  0  0  0  0  0  0
   -0.7600   69.1860   66.3590 O   0  0  0  0  0  0  0  0  0  0  0  0
    3.4960   60.1070   70.3850 O   0  0  0  0  0  0  0  0  0  0  0  0
   -0.7410   66.3340   72.2130 O   0  0  0  0  0  0  0  0  0  0  0  0
    2.6839   60.1831   72.8408 H   0  0  0  0  0  0  0  0  0  0  0  0
    1.2966   62.0050   73.8502 H   0  0  0  0  0  0  0  0  0  0  0  0
    2.6500   62.2534   69.0437 H   0  0  0  0  0  0  0  0  0  0  0  0
    2.0891   67.3335   69.3553 H   0  0  0  0  0  0  0  0  0  0  0  0
    1.5366   69.0168   67.6052 H   0  0  0  0  0  0  0  0  0  0  0  0
   -1.8695   65.6349   68.9654 H   0  0  0  0  0  0  0  0  0  0  0  0
   -3.3277   66.7044   67.3216 H   0  0  0  0  0  0  0  0  0  0  0  0
   -1.6532   69.1862   65.9319 H   0  0  0  0  0  0  0  0  0  0  0  0
    3.7806   60.1261   69.4370 H   0  0  0  0  0  0  0  0  0  0  0  0
   -1.0020   66.2711   73.1659 H   0  0  0  0  0  0  0  0  0  0  0  0
  2  1  2  0
  3  2  1  0
  4  3  2  0
  5  4  1  0
  6  5  2  0
  6  1  1  0
  7  5  1  0
  8  7  1  0
  9  8  2  0
 10  9  1  0
 10  4  1  0
 11 10  2  0
 12  8  1  0
 13 12  2  0
 14 13  1  0
 15 14  2  0
 16 15  1  0
 17 16  2  0
 17 12  1  0
 18 16  1  0
 19 15  1  0
 20  1  1  0
 21  9  1  0
  2 22  1  0
  3 23  1  0
  6 24  1  0
 13 25  1  0
 14 26  1  0
 17 27  1  0
 18 28  1  0
 19 29  1  0
 20 30  1  0
 21 31  1  0
M  END
>  <score>  (7) 
-8.39

$$$$
=
     RDKit          3D

 31 33  0  0  0  0  0  0  0  0999 V2000
    2.1810   63.2980   70.8070 C   0  0  0  0  0  0  0  0  0  0  0  0
    2.9340   63.0120   69.6710 C   0  0  0  0  0  0  0  0  0  0  0  0
    3.3540   61.7040   69.4320 C   0  0  0  0  0  0  0  0  0  0  0  0
    3.0120   60.6980   70.3400 C   0  0  0  0  0  0  0  0  0  0  0  0
    2.2610   60.9870   71.4710 C   0  0  0  0  0  0  0  0  0  0  0  0
    1.8400   62.2960   71.7120 C   0  0  0  0  0  0  0  0  0  0  0  0
    1.9010   60.0350   72.3880 O   0  0  0  0  0  0  0  0  0  0  0  0
    2.2900   58.7030   72.2090 C   0  0  0  0  0  0  0  0  0  0  0  0
    3.0220   58.3100   71.1440 C   0  0  0  0  0  0  0  0  0  0  0  0
    3.4310   59.3140   70.1280 C   0  0  0  0  0  0  0  0  0  0  0  0
    4.0960   58.9590   69.1590 O   0  0  0  0  0  0  0  0  0  0  0  0
    1.7950   57.8220   73.3230 C   0  0  0  0  0  0  0  0  0  0  0  0
    2.3320   57.8260   74.6250 C   0  0  0  0  0  0  0  0  0  0  0  0
    1.8420   56.9870   75.6360 C   0  0  0  0  0  0  0  0  0  0  0  0
    0.7980   56.1260   75.3560 C   0  0  0  0  0  0  0  0  0  0  0  0
    0.2430   56.0920   74.0860 C   0  0  0  0  0  0  0  0  0  0  0  0
    0.7290   56.9250   73.0790 C   0  0  0  0  0  0  0  0  0  0  0  0
   -0.7880   55.2180   73.8680 O   0  0  0  0  0  0  0  0  0  0  0  0
    0.3200   55.3090   76.3380 O   0  0  0  0  0  0  0  0  0  0  0  0
    1.7950   64.5900   70.9970 O   0  0  0  0  0  0  0  0  0  0  0  0
    3.4460   57.0190   70.8930 O   0  0  0  0  0  0  0  0  0  0  0  0
    3.1962   63.8142   68.9655 H   0  0  0  0  0  0  0  0  0  0  0  0
    3.9486   61.4663   68.5376 H   0  0  0  0  0  0  0  0  0  0  0  0
    1.2456   62.5333   72.6067 H   0  0  0  0  0  0  0  0  0  0  0  0
    3.1625   58.5093   74.8562 H   0  0  0  0  0  0  0  0  0  0  0  0
    2.2845   57.0139   76.6427 H   0  0  0  0  0  0  0  0  0  0  0  0
    0.2756   56.8838   72.0776 H   0  0  0  0  0  0  0  0  0  0  0  0
   -1.2107   55.1642   72.9744 H   0  0  0  0  0  0  0  0  0  0  0  0
   -0.4277   54.6892   76.1459 H   0  0  0  0  0  0  0  0  0  0  0  0
    1.2586   64.8345   71.7923 H   0  0  0  0  0  0  0  0  0  0  0  0
    3.9810   56.8222   70.0836 H   0  0  0  0  0  0  0  0  0  0  0  0
  2  1  2  0
  3  2  1  0
  4  3  2  0
  5  4  1  0
  6  5  2  0
  6  1  1  0
  7  5  1  0
  8  7  1  0
  9  8  2  0
 10  9  1  0
 10  4  1  0
 11 10  2  0
 12  8  1  0
 13 12  2  0
 14 13  1  0
 15 14  2  0
 16 15  1  0
 17 16  2  0
 17 12  1  0
 18 16  1  0
 19 15  1  0
 20  1  1  0
 21  9  1  0
  2 22  1  0
  3 23  1  0
  6 24  1  0
 13 25  1  0
 14 26  1  0
 17 27  1  0
 18 28  1  0
 19 29  1  0
 20 30  1  0
 21 31  1  0
M  END
>  <score>  (8) 
-7.903

$$$$
=
     RDKit          3D

 31 33  0  0  0  0  0  0  0  0999 V2000
   -3.3750   68.7570   65.8620 C   0  0  0  0  0  0  0  0  0  0  0  0
   -3.3850   68.0270   67.0480 C   0  0  0  0  0  0  0  0  0  0  0  0
   -2.1950   67.4860   67.5350 C   0  0  0  0  0  0  0  0  0  0  0  0
   -1.0090   67.6860   66.8220 C   0  0  0  0  0  0  0  0  0  0  0  0
   -1.0050   68.4130   65.6410 C   0  0  0  0  0  0  0  0  0  0  0  0
   -2.1950   68.9560   65.1520 C   0  0  0  0  0  0  0  0  0  0  0  0
    0.1320   68.6350   64.9090 O   0  0  0  0  0  0  0  0  0  0  0  0
    1.3590   68.1200   65.3410 C   0  0  0  0  0  0  0  0  0  0  0  0
    1.4700   67.3980   66.4760 C   0  0  0  0  0  0  0  0  0  0  0  0
    0.2580   67.1360   67.2970 C   0  0  0  0  0  0  0  0  0  0  0  0
    0.3570   66.4790   68.3300 O   0  0  0  0  0  0  0  0  0  0  0  0
    2.4760   68.4750   64.3990 C   0  0  0  0  0  0  0  0  0  0  0  0
    3.6780   69.0900   64.8020 C   0  0  0  0  0  0  0  0  0  0  0  0
    4.6960   69.4050   63.8900 C   0  0  0  0  0  0  0  0  0  0  0  0
    4.5250   69.1060   62.5530 C   0  0  0  0  0  0  0  0  0  0  0  0
    3.3560   68.5010   62.1160 C   0  0  0  0  0  0  0  0  0  0  0  0
    2.3410   68.1870   63.0210 C   0  0  0  0  0  0  0  0  0  0  0  0
    3.2430   68.2300   60.7790 O   0  0  0  0  0  0  0  0  0  0  0  0
    5.5130   69.4110   61.6640 O   0  0  0  0  0  0  0  0  0  0  0  0
   -4.5620   69.2650   65.4260 O   0  0  0  0  0  0  0  0  0  0  0  0
    2.6390   66.8550   66.9720 O   0  0  0  0  0  0  0  0  0  0  0  0
   -4.3261   67.8778   67.5977 H   0  0  0  0  0  0  0  0  0  0  0  0
   -2.1897   66.9078   68.4707 H   0  0  0  0  0  0  0  0  0  0  0  0
   -2.1995   69.5344   64.2163 H   0  0  0  0  0  0  0  0  0  0  0  0
    3.8226   69.3307   65.8656 H   0  0  0  0  0  0  0  0  0  0  0  0
    5.6224   69.8860   64.2369 H   0  0  0  0  0  0  0  0  0  0  0  0
    1.4206   67.7075   62.6564 H   0  0  0  0  0  0  0  0  0  0  0  0
    2.4235   67.7987   60.4289 H   0  0  0  0  0  0  0  0  0  0  0  0
    5.3974   69.1996   60.7038 H   0  0  0  0  0  0  0  0  0  0  0  0
   -4.5976   69.7898   64.5873 H   0  0  0  0  0  0  0  0  0  0  0  0
    2.6254   66.3377   67.8160 H   0  0  0  0  0  0  0  0  0  0  0  0
  2  1  2  0
  3  2  1  0
  4  3  2  0
  5  4  1  0
  6  5  2  0
  6  1  1  0
  7  5  1  0
  8  7  1  0
  9  8  2  0
 10  9  1  0
 10  4  1  0
 11 10  2  0
 12  8  1  0
 13 12  2  0
 14 13  1  0
 15 14  2  0
 16 15  1  0
 17 16  2  0
 17 12  1  0
 18 16  1  0
 19 15  1  0
 20  1  1  0
 21  9  1  0
  2 22  1  0
  3 23  1  0
  6 24  1  0
 13 25  1  0
 14 26  1  0
 17 27  1  0
 18 28  1  0
 19 29  1  0
 20 30  1  0
 21 31  1  0
M  END
>  <score>  (9) 
-7.635

$$$$
