=
     RDKit          3D

 60 62  0  0  0  0  0  0  0  0999 V2000
    0.1400   66.5300   69.1230 C   0  0  0  0  0  0  0  0  0  0  0  0
    1.2140   67.3570   68.7700 C   0  0  0  0  0  0  0  0  0  0  0  0
    1.1020   68.2430   67.6900 C   0  0  0  0  0  0  0  0  0  0  0  0
   -0.0850   68.3160   66.9600 C   0  0  0  0  0  0  0  0  0  0  0  0
   -1.1610   67.5040   67.3230 C   0  0  0  0  0  0  0  0  0  0  0  0
   -1.0540   66.6200   68.3990 C   0  0  0  0  0  0  0  0  0  0  0  0
   -0.1240   65.9830   71.3790 O   0  0  0  0  0  0  0  0  0  0  0  0
    0.2030   65.5750   70.2710 C   0  0  0  0  0  0  0  0  0  0  0  0
    0.6030   64.2940   69.9520 N   0  0  0  0  0  0  0  0  0  0  0  0
    0.8050   63.1860   70.8140 C   0  0  0  0  0  0  0  0  0  0  0  0
   -0.1760   62.7620   71.7180 C   0  0  0  0  0  0  0  0  0  0  0  0
    0.0450   61.6710   72.5620 C   0  0  0  0  0  0  0  0  0  0  0  0
    1.2540   60.9880   72.5190 C   0  0  0  0  0  0  0  0  0  0  0  0
    2.2490   61.3950   71.6310 C   0  0  0  0  0  0  0  0  0  0  0  0
    2.0400   62.4890   70.7710 C   0  0  0  0  0  0  0  0  0  0  0  0
    3.1330   62.9060   69.8250 C   0  0  0  0  0  0  0  0  0  0  0  0
    2.9390   62.8950   68.6070 O   0  0  0  0  0  0  0  0  0  0  0  0
    4.4660   63.3390   70.3800 C   0  0  0  0  0  0  0  0  0  0  0  0
   -0.3250   69.1350   65.8910 O   0  0  0  0  0  0  0  0  0  0  0  0
   -0.3560   68.5290   64.6000 C   0  0  0  0  0  0  0  0  0  0  0  0
    0.7360   69.1690   63.7400 C   0  0  0  0  0  0  0  0  0  0  0  0
    1.8810   68.1950   63.4410 C   0  0  0  0  0  0  0  0  0  0  0  0
    2.8740   68.0470   64.5980 C   0  0  0  0  0  0  0  0  0  0  0  0
    3.5810   69.3530   64.9710 C   0  0  0  0  0  0  0  0  0  0  0  0
    5.0320   69.1420   65.3990 C   0  0  0  0  0  0  0  0  0  0  0  0
    5.3010   69.7800   66.7110 N   0  0  0  0  0  4  0  0  0  0  0  0
    4.2890   69.9620   67.5920 C   0  0  0  0  0  0  0  0  0  0  0  0
    4.5250   70.5440   68.8320 C   0  0  0  0  0  0  0  0  0  0  0  0
    5.8160   70.9330   69.1680 C   0  0  0  0  0  0  0  0  0  0  0  0
    6.8460   70.7310   68.2590 C   0  0  0  0  0  0  0  0  0  0  0  0
    6.5650   70.1470   67.0300 C   0  0  0  0  0  0  0  0  0  0  0  0
    2.1512   67.3107   69.3441 H   0  0  0  0  0  0  0  0  0  0  0  0
    1.9534   68.8836   67.4166 H   0  0  0  0  0  0  0  0  0  0  0  0
   -2.1020   67.5610   66.7562 H   0  0  0  0  0  0  0  0  0  0  0  0
   -1.9124   65.9916   68.6786 H   0  0  0  0  0  0  0  0  0  0  0  0
    0.7788   64.1183   68.9524 H   0  0  0  0  0  0  0  0  0  0  0  0
   -1.1363   63.2964   71.7646 H   0  0  0  0  0  0  0  0  0  0  0  0
   -0.7406   61.3518   73.2627 H   0  0  0  0  0  0  0  0  0  0  0  0
    1.4258   60.1285   73.1836 H   0  0  0  0  0  0  0  0  0  0  0  0
    3.2071   60.8554   71.6024 H   0  0  0  0  0  0  0  0  0  0  0  0
    4.4271   63.3264   71.4792 H   0  0  0  0  0  0  0  0  0  0  0  0
    5.2493   62.6491   70.0329 H   0  0  0  0  0  0  0  0  0  0  0  0
    4.6943   64.3575   70.0329 H   0  0  0  0  0  0  0  0  0  0  0  0
   -0.1709   67.4486   64.6921 H   0  0  0  0  0  0  0  0  0  0  0  0
   -1.3411   68.6807   64.1347 H   0  0  0  0  0  0  0  0  0  0  0  0
    0.2915   69.4964   62.7885 H   0  0  0  0  0  0  0  0  0  0  0  0
    1.1527   70.0192   64.3000 H   0  0  0  0  0  0  0  0  0  0  0  0
    1.4498   67.2067   63.2235 H   0  0  0  0  0  0  0  0  0  0  0  0
    2.4389   68.6037   62.5856 H   0  0  0  0  0  0  0  0  0  0  0  0
    2.3276   67.6832   65.4806 H   0  0  0  0  0  0  0  0  0  0  0  0
    3.6516   67.3428   64.2672 H   0  0  0  0  0  0  0  0  0  0  0  0
    3.5663   70.0219   64.0978 H   0  0  0  0  0  0  0  0  0  0  0  0
    3.0438   69.7863   65.8276 H   0  0  0  0  0  0  0  0  0  0  0  0
    5.2300   68.0628   65.4772 H   0  0  0  0  0  0  0  0  0  0  0  0
    5.6884   69.6024   64.6459 H   0  0  0  0  0  0  0  0  0  0  0  0
    3.2700   69.6461   67.3237 H   0  0  0  0  0  0  0  0  0  0  0  0
    3.6975   70.6952   69.5408 H   0  0  0  0  0  0  0  0  0  0  0  0
    6.0200   71.3964   70.1445 H   0  0  0  0  0  0  0  0  0  0  0  0
    7.8744   71.0304   68.5094 H   0  0  0  0  0  0  0  0  0  0  0  0
    7.3782   69.9809   66.3081 H   0  0  0  0  0  0  0  0  0  0  0  0
  2  1  2  0
  3  2  1  0
  4  3  2  0
  5  4  1  0
  6  5  2  0
  6  1  1  0
  8  1  1  0
  8  7  2  0
  9  8  1  0
 10  9  1  0
 11 10  2  0
 12 11  1  0
 13 12  2  0
 14 13  1  0
 15 10  1  0
 15 14  2  0
 16 15  1  0
 17 16  2  0
 18 16  1  0
 19  4  1  0
 20 19  1  0
 21 20  1  0
 22 21  1  0
 23 22  1  0
 24 23  1  0
 25 24  1  0
 26 25  1  0
 27 26  2  0
 28 27  1  0
 29 28  2  0
 30 29  1  0
 31 26  1  0
 31 30  2  0
  2 32  1  0
  3 33  1  0
  5 34  1  0
  6 35  1  0
  9 36  1  0
 11 37  1  0
 12 38  1  0
 13 39  1  0
 14 40  1  0
 18 41  1  0
 18 42  1  0
 18 43  1  0
 20 44  1  0
 20 45  1  0
 21 46  1  0
 21 47  1  0
 22 48  1  0
 22 49  1  0
 23 50  1  0
 23 51  1  0
 24 52  1  0
 24 53  1  0
 25 54  1  0
 25 55  1  0
 27 56  1  0
 28 57  1  0
 29 58  1  0
 30 59  1  0
 31 60  1  0
M  CHG  1  26   1
M  END
>  <score>  (1) 
-10.427

$$$$
=
     RDKit          3D

 60 62  0  0  0  0  0  0  0  0999 V2000
    0.7220   67.5160   67.1430 C   0  0  0  0  0  0  0  0  0  0  0  0
   -0.6220   67.1390   67.2590 C   0  0  0  0  0  0  0  0  0  0  0  0
   -1.1050   66.5950   68.4570 C   0  0  0  0  0  0  0  0  0  0  0  0
   -0.2520   66.4310   69.5500 C   0  0  0  0  0  0  0  0  0  0  0  0
    1.0840   66.8230   69.4380 C   0  0  0  0  0  0  0  0  0  0  0  0
    1.5690   67.3650   68.2470 C   0  0  0  0  0  0  0  0  0  0  0  0
    0.5210   68.7000   65.1390 O   0  0  0  0  0  0  0  0  0  0  0  0
    1.2860   68.1080   65.8920 C   0  0  0  0  0  0  0  0  0  0  0  0
    2.6470   67.9520   65.7250 N   0  0  0  0  0  0  0  0  0  0  0  0
    3.4590   68.3550   64.6350 C   0  0  0  0  0  0  0  0  0  0  0  0
    3.2300   67.9000   63.3310 C   0  0  0  0  0  0  0  0  0  0  0  0
    4.0460   68.3050   62.2720 C   0  0  0  0  0  0  0  0  0  0  0  0
    5.1080   69.1700   62.5000 C   0  0  0  0  0  0  0  0  0  0  0  0
    5.3610   69.6340   63.7910 C   0  0  0  0  0  0  0  0  0  0  0  0
    4.5450   69.2390   64.8670 C   0  0  0  0  0  0  0  0  0  0  0  0
    4.8430   69.7530   66.2490 C   0  0  0  0  0  0  0  0  0  0  0  0
    3.9230   69.9880   67.0370 O   0  0  0  0  0  0  0  0  0  0  0  0
    6.2750   69.9790   66.6620 C   0  0  0  0  0  0  0  0  0  0  0  0
   -0.5950   65.9180   70.7700 O   0  0  0  0  0  0  0  0  0  0  0  0
    0.3940   65.1520   71.4560 C   0  0  0  0  0  0  0  0  0  0  0  0
   -0.0110   63.6770   71.3970 C   0  0  0  0  0  0  0  0  0  0  0  0
    0.7090   62.8380   72.4580 C   0  0  0  0  0  0  0  0  0  0  0  0
    0.6180   61.3290   72.2080 C   0  0  0  0  0  0  0  0  0  0  0  0
    1.8170   60.5440   72.7470 C   0  0  0  0  0  0  0  0  0  0  0  0
    2.7320   60.0220   71.6410 C   0  0  0  0  0  0  0  0  0  0  0  0
    3.3120   61.1390   70.8570 N   0  0  0  0  0  4  0  0  0  0  0  0
    2.9330   61.3300   69.5710 C   0  0  0  0  0  0  0  0  0  0  0  0
    3.4540   62.3820   68.8270 C   0  0  0  0  0  0  0  0  0  0  0  0
    4.3670   63.2470   69.4160 C   0  0  0  0  0  0  0  0  0  0  0  0
    4.7400   63.0460   70.7380 C   0  0  0  0  0  0  0  0  0  0  0  0
    4.1950   61.9820   71.4460 C   0  0  0  0  0  0  0  0  0  0  0  0
   -1.3025   67.2707   66.4048 H   0  0  0  0  0  0  0  0  0  0  0  0
   -2.1606   66.2960   68.5364 H   0  0  0  0  0  0  0  0  0  0  0  0
    1.7605   66.7033   70.2971 H   0  0  0  0  0  0  0  0  0  0  0  0
    2.6220   67.6750   68.1755 H   0  0  0  0  0  0  0  0  0  0  0  0
    3.1392   67.4790   66.4963 H   0  0  0  0  0  0  0  0  0  0  0  0
    2.3937   67.2122   63.1371 H   0  0  0  0  0  0  0  0  0  0  0  0
    3.8467   67.9376   61.2545 H   0  0  0  0  0  0  0  0  0  0  0  0
    5.7485   69.4887   61.6644 H   0  0  0  0  0  0  0  0  0  0  0  0
    6.2062   70.3150   63.9694 H   0  0  0  0  0  0  0  0  0  0  0  0
    6.3427   69.9897   67.7599 H   0  0  0  0  0  0  0  0  0  0  0  0
    6.9037   69.1690   66.2638 H   0  0  0  0  0  0  0  0  0  0  0  0
    6.6236   70.9433   66.2638 H   0  0  0  0  0  0  0  0  0  0  0  0
    1.3719   65.2885   70.9712 H   0  0  0  0  0  0  0  0  0  0  0  0
    0.4689   65.4819   72.5027 H   0  0  0  0  0  0  0  0  0  0  0  0
   -1.0961   63.6004   71.5607 H   0  0  0  0  0  0  0  0  0  0  0  0
    0.2722   63.2875   70.4080 H   0  0  0  0  0  0  0  0  0  0  0  0
    1.7706   63.1260   72.4684 H   0  0  0  0  0  0  0  0  0  0  0  0
    0.2137   63.0375   73.4197 H   0  0  0  0  0  0  0  0  0  0  0  0
   -0.2927   60.9503   72.6950 H   0  0  0  0  0  0  0  0  0  0  0  0
    0.6014   61.1835   71.1178 H   0  0  0  0  0  0  0  0  0  0  0  0
    2.4021   61.2043   73.4040 H   0  0  0  0  0  0  0  0  0  0  0  0
    1.4234   59.6714   73.2888 H   0  0  0  0  0  0  0  0  0  0  0  0
    3.5477   59.4397   72.0944 H   0  0  0  0  0  0  0  0  0  0  0  0
    2.1372   59.3915   70.9638 H   0  0  0  0  0  0  0  0  0  0  0  0
    2.2054   60.6455   69.1105 H   0  0  0  0  0  0  0  0  0  0  0  0
    3.1460   62.5281   67.7812 H   0  0  0  0  0  0  0  0  0  0  0  0
    4.7905   64.0834   68.8405 H   0  0  0  0  0  0  0  0  0  0  0  0
    5.4604   63.7229   71.2205 H   0  0  0  0  0  0  0  0  0  0  0  0
    4.4831   61.8221   72.4955 H   0  0  0  0  0  0  0  0  0  0  0  0
  2  1  2  0
  3  2  1  0
  4  3  2  0
  5  4  1  0
  6  5  2  0
  6  1  1  0
  8  1  1  0
  8  7  2  0
  9  8  1  0
 10  9  1  0
 11 10  2  0
 12 11  1  0
 13 12  2  0
 14 13  1  0
 15 10  1  0
 15 14  2  0
 16 15  1  0
 17 16  2  0
 18 16  1  0
 19  4  1  0
 20 19  1  0
 21 20  1  0
 22 21  1  0
 23 22  1  0
 24 23  1  0
 25 24  1  0
 26 25  1  0
 27 26  2  0
 28 27  1  0
 29 28  2  0
 30 29  1  0
 31 26  1  0
 31 30  2  0
  2 32  1  0
  3 33  1  0
  5 34  1  0
  6 35  1  0
  9 36  1  0
 11 37  1  0
 12 38  1  0
 13 39  1  0
 14 40  1  0
 18 41  1  0
 18 42  1  0
 18 43  1  0
 20 44  1  0
 20 45  1  0
 21 46  1  0
 21 47  1  0
 22 48  1  0
 22 49  1  0
 23 50  1  0
 23 51  1  0
 24 52  1  0
 24 53  1  0
 25 54  1  0
 25 55  1  0
 27 56  1  0
 28 57  1  0
 29 58  1  0
 30 59  1  0
 31 60  1  0
M  CHG  1  26   1
M  END
>  <score>  (2) 
-9.49

$$$$
=
     RDKit          3D

 60 62  0  0  0  0  0  0  0  0999 V2000
    0.2110   67.6000   67.8470 C   0  0  0  0  0  0  0  0  0  0  0  0
    1.3520   67.6060   68.6600 C   0  0  0  0  0  0  0  0  0  0  0  0
    1.4050   66.8110   69.8130 C   0  0  0  0  0  0  0  0  0  0  0  0
    0.3250   65.9980   70.1580 C   0  0  0  0  0  0  0  0  0  0  0  0
   -0.8040   65.9790   69.3370 C   0  0  0  0  0  0  0  0  0  0  0  0
   -0.8620   66.7700   68.1870 C   0  0  0  0  0  0  0  0  0  0  0  0
   -0.5650   69.4470   66.6450 O   0  0  0  0  0  0  0  0  0  0  0  0
    0.1060   68.4220   66.6030 C   0  0  0  0  0  0  0  0  0  0  0  0
    0.8160   67.9480   65.5190 N   0  0  0  0  0  0  0  0  0  0  0  0
    0.8800   68.4700   64.2030 C   0  0  0  0  0  0  0  0  0  0  0  0
   -0.2420   69.0130   63.5650 C   0  0  0  0  0  0  0  0  0  0  0  0
   -0.1600   69.5170   62.2650 C   0  0  0  0  0  0  0  0  0  0  0  0
    1.0470   69.4830   61.5790 C   0  0  0  0  0  0  0  0  0  0  0  0
    2.1780   68.9430   62.1900 C   0  0  0  0  0  0  0  0  0  0  0  0
    2.1120   68.4350   63.5000 C   0  0  0  0  0  0  0  0  0  0  0  0
    3.3480   67.8560   64.1330 C   0  0  0  0  0  0  0  0  0  0  0  0
    3.4580   66.6360   64.2800 O   0  0  0  0  0  0  0  0  0  0  0  0
    4.4500   68.7790   64.5850 C   0  0  0  0  0  0  0  0  0  0  0  0
    0.2500   65.1760   71.2480 O   0  0  0  0  0  0  0  0  0  0  0  0
    0.2450   63.7700   71.0060 C   0  0  0  0  0  0  0  0  0  0  0  0
    1.0510   63.0870   72.1130 C   0  0  0  0  0  0  0  0  0  0  0  0
    0.5400   61.6740   72.4120 C   0  0  0  0  0  0  0  0  0  0  0  0
    1.5670   60.7920   73.1280 C   0  0  0  0  0  0  0  0  0  0  0  0
    2.1790   59.7120   72.2310 C   0  0  0  0  0  0  0  0  0  0  0  0
    3.6480   59.9730   71.9040 C   0  0  0  0  0  0  0  0  0  0  0  0
    3.7910   61.1090   70.9610 N   0  0  0  0  0  4  0  0  0  0  0  0
    3.1360   61.0890   69.7760 C   0  0  0  0  0  0  0  0  0  0  0  0
    3.2450   62.1520   68.8880 C   0  0  0  0  0  0  0  0  0  0  0  0
    4.0300   63.2470   69.2270 C   0  0  0  0  0  0  0  0  0  0  0  0
    4.6880   63.2590   70.4500 C   0  0  0  0  0  0  0  0  0  0  0  0
    4.5520   62.1750   71.3080 C   0  0  0  0  0  0  0  0  0  0  0  0
    2.2112   68.2383   68.3918 H   0  0  0  0  0  0  0  0  0  0  0  0
    2.3024   66.8281   70.4489 H   0  0  0  0  0  0  0  0  0  0  0  0
   -1.6564   65.3347   69.5983 H   0  0  0  0  0  0  0  0  0  0  0  0
   -1.7555   66.7399   67.5461 H   0  0  0  0  0  0  0  0  0  0  0  0
    1.3752   67.1000   65.6893 H   0  0  0  0  0  0  0  0  0  0  0  0
   -1.2045   69.0431   64.0968 H   0  0  0  0  0  0  0  0  0  0  0  0
   -1.0532   69.9417   61.7836 H   0  0  0  0  0  0  0  0  0  0  0  0
    1.1106   69.8813   60.5556 H   0  0  0  0  0  0  0  0  0  0  0  0
    3.1314   68.9140   61.6421 H   0  0  0  0  0  0  0  0  0  0  0  0
    4.4797   68.8038   65.6843 H   0  0  0  0  0  0  0  0  0  0  0  0
    5.4141   68.4149   64.2003 H   0  0  0  0  0  0  0  0  0  0  0  0
    4.2607   69.7920   64.2003 H   0  0  0  0  0  0  0  0  0  0  0  0
   -0.7892   63.3952   71.0141 H   0  0  0  0  0  0  0  0  0  0  0  0
    0.6919   63.5536   70.0244 H   0  0  0  0  0  0  0  0  0  0  0  0
    2.1031   63.0241   71.7981 H   0  0  0  0  0  0  0  0  0  0  0  0
    0.9428   63.6865   73.0289 H   0  0  0  0  0  0  0  0  0  0  0  0
   -0.3538   61.7543   73.0482 H   0  0  0  0  0  0  0  0  0  0  0  0
    0.3222   61.1972   71.4449 H   0  0  0  0  0  0  0  0  0  0  0  0
    2.3779   61.4350   73.5008 H   0  0  0  0  0  0  0  0  0  0  0  0
    1.0366   60.2740   73.9407 H   0  0  0  0  0  0  0  0  0  0  0  0
    2.1008   58.7428   72.7453 H   0  0  0  0  0  0  0  0  0  0  0  0
    1.6235   59.7177   71.2816 H   0  0  0  0  0  0  0  0  0  0  0  0
    4.1869   60.2078   72.8338 H   0  0  0  0  0  0  0  0  0  0  0  0
    4.0665   59.0719   71.4318 H   0  0  0  0  0  0  0  0  0  0  0  0
    2.5113   60.2224   69.5138 H   0  0  0  0  0  0  0  0  0  0  0  0
    2.7143   62.1268   67.9248 H   0  0  0  0  0  0  0  0  0  0  0  0
    4.1293   64.0955   68.5341 H   0  0  0  0  0  0  0  0  0  0  0  0
    5.3111   64.1190   70.7366 H   0  0  0  0  0  0  0  0  0  0  0  0
    5.0677   62.1821   72.2796 H   0  0  0  0  0  0  0  0  0  0  0  0
  2  1  2  0
  3  2  1  0
  4  3  2  0
  5  4  1  0
  6  5  2  0
  6  1  1  0
  8  1  1  0
  8  7  2  0
  9  8  1  0
 10  9  1  0
 11 10  2  0
 12 11  1  0
 13 12  2  0
 14 13  1  0
 15 10  1  0
 15 14  2  0
 16 15  1  0
 17 16  2  0
 18 16  1  0
 19  4  1  0
 20 19  1  0
 21 20  1  0
 22 21  1  0
 23 22  1  0
 24 23  1  0
 25 24  1  0
 26 25  1  0
 27 26  2  0
 28 27  1  0
 29 28  2  0
 30 29  1  0
 31 26  1  0
 31 30  2  0
  2 32  1  0
  3 33  1  0
  5 34  1  0
  6 35  1  0
  9 36  1  0
 11 37  1  0
 12 38  1  0
 13 39  1  0
 14 40  1  0
 18 41  1  0
 18 42  1  0
 18 43  1  0
 20 44  1  0
 20 45  1  0
 21 46  1  0
 21 47  1  0
 22 48  1  0
 22 49  1  0
 23 50  1  0
 23 51  1  0
 24 52  1  0
 24 53  1  0
 25 54  1  0
 25 55  1  0
 27 56  1  0
 28 57  1  0
 29 58  1  0
 30 59  1  0
 31 60  1  0
M  CHG  1  26   1
M  END
>  <score>  (3) 
-9.223

$$$$
=
     RDKit          3D

 60 62  0  0  0  0  0  0  0  0999 V2000
    1.4770   63.6620   71.6640 C   0  0  0  0  0  0  0  0  0  0  0  0
    2.3510   64.1160   70.6680 C   0  0  0  0  0  0  0  0  0  0  0  0
    2.0630   65.2840   69.9490 C   0  0  0  0  0  0  0  0  0  0  0  0
    0.9050   66.0120   70.2250 C   0  0  0  0  0  0  0  0  0  0  0  0
    0.0430   65.5690   71.2300 C   0  0  0  0  0  0  0  0  0  0  0  0
    0.3260   64.4050   71.9490 C   0  0  0  0  0  0  0  0  0  0  0  0
    2.2600   62.5570   73.5680 O   0  0  0  0  0  0  0  0  0  0  0  0
    1.7410   62.4280   72.4650 C   0  0  0  0  0  0  0  0  0  0  0  0
    1.3340   61.2460   71.8810 N   0  0  0  0  0  0  0  0  0  0  0  0
    1.4850   59.9210   72.3620 C   0  0  0  0  0  0  0  0  0  0  0  0
    0.5930   59.3610   73.2840 C   0  0  0  0  0  0  0  0  0  0  0  0
    0.7620   58.0540   73.7490 C   0  0  0  0  0  0  0  0  0  0  0  0
    1.8300   57.2870   73.3020 C   0  0  0  0  0  0  0  0  0  0  0  0
    2.7350   57.8240   72.3870 C   0  0  0  0  0  0  0  0  0  0  0  0
    2.5750   59.1360   71.9060 C   0  0  0  0  0  0  0  0  0  0  0  0
    3.5700   59.6890   70.9210 C   0  0  0  0  0  0  0  0  0  0  0  0
    3.3640   59.5940   69.7090 O   0  0  0  0  0  0  0  0  0  0  0  0
    4.8190   60.3620   71.4300 C   0  0  0  0  0  0  0  0  0  0  0  0
    0.5100   67.1640   69.6030 O   0  0  0  0  0  0  0  0  0  0  0  0
    0.1880   67.0780   68.2160 C   0  0  0  0  0  0  0  0  0  0  0  0
    1.2420   67.8600   67.4280 C   0  0  0  0  0  0  0  0  0  0  0  0
    1.3670   67.3650   65.9820 C   0  0  0  0  0  0  0  0  0  0  0  0
    2.7320   67.6580   65.3530 C   0  0  0  0  0  0  0  0  0  0  0  0
    3.1560   69.1260   65.4640 C   0  0  0  0  0  0  0  0  0  0  0  0
    4.6730   69.3040   65.5040 C   0  0  0  0  0  0  0  0  0  0  0  0
    5.1100   69.8540   66.8110 N   0  0  0  0  0  4  0  0  0  0  0  0
    6.4160   70.1470   67.0160 C   0  0  0  0  0  0  0  0  0  0  0  0
    6.8420   70.6790   68.2280 C   0  0  0  0  0  0  0  0  0  0  0  0
    5.9120   70.9170   69.2310 C   0  0  0  0  0  0  0  0  0  0  0  0
    4.5740   70.6220   69.0040 C   0  0  0  0  0  0  0  0  0  0  0  0
    4.1920   70.0920   67.7780 C   0  0  0  0  0  0  0  0  0  0  0  0
    3.2696   63.5520   70.4487 H   0  0  0  0  0  0  0  0  0  0  0  0
    2.7525   65.6282   69.1641 H   0  0  0  0  0  0  0  0  0  0  0  0
   -0.8679   66.1420   71.4579 H   0  0  0  0  0  0  0  0  0  0  0  0
   -0.3589   64.0712   72.7425 H   0  0  0  0  0  0  0  0  0  0  0  0
    0.8561   61.3388   70.9733 H   0  0  0  0  0  0  0  0  0  0  0  0
   -0.2549   59.9595   73.6485 H   0  0  0  0  0  0  0  0  0  0  0  0
    0.0474   57.6317   74.4708 H   0  0  0  0  0  0  0  0  0  0  0  0
    1.9617   56.2584   73.6688 H   0  0  0  0  0  0  0  0  0  0  0  0
    3.5823   57.2155   72.0380 H   0  0  0  0  0  0  0  0  0  0  0  0
    4.8145   60.3596   72.5300 H   0  0  0  0  0  0  0  0  0  0  0  0
    5.7030   59.8181   71.0657 H   0  0  0  0  0  0  0  0  0  0  0  0
    4.8509   61.3994   71.0657 H   0  0  0  0  0  0  0  0  0  0  0  0
    0.1915   66.0250   67.8980 H   0  0  0  0  0  0  0  0  0  0  0  0
   -0.8116   67.4988   68.0324 H   0  0  0  0  0  0  0  0  0  0  0  0
    0.9591   68.9229   67.4157 H   0  0  0  0  0  0  0  0  0  0  0  0
    2.2135   67.7109   67.9219 H   0  0  0  0  0  0  0  0  0  0  0  0
    1.2046   66.2771   65.9709 H   0  0  0  0  0  0  0  0  0  0  0  0
    0.6143   67.9047   65.3886 H   0  0  0  0  0  0  0  0  0  0  0  0
    3.4878   67.0386   65.8580 H   0  0  0  0  0  0  0  0  0  0  0  0
    2.6496   67.4262   64.2809 H   0  0  0  0  0  0  0  0  0  0  0  0
    2.7611   69.6723   64.5948 H   0  0  0  0  0  0  0  0  0  0  0  0
    2.7522   69.5162   66.4099 H   0  0  0  0  0  0  0  0  0  0  0  0
    5.1540   68.3275   65.3458 H   0  0  0  0  0  0  0  0  0  0  0  0
    4.9639   70.0099   64.7121 H   0  0  0  0  0  0  0  0  0  0  0  0
    7.1475   69.9623   66.2155 H   0  0  0  0  0  0  0  0  0  0  0  0
    7.9053   70.9090   68.3905 H   0  0  0  0  0  0  0  0  0  0  0  0
    6.2320   71.3354   70.1967 H   0  0  0  0  0  0  0  0  0  0  0  0
    3.8240   70.8062   69.7873 H   0  0  0  0  0  0  0  0  0  0  0  0
    3.1325   69.8632   67.5906 H   0  0  0  0  0  0  0  0  0  0  0  0
  2  1  2  0
  3  2  1  0
  4  3  2  0
  5  4  1  0
  6  5  2  0
  6  1  1  0
  8  1  1  0
  8  7  2  0
  9  8  1  0
 10  9  1  0
 11 10  2  0
 12 11  1  0
 13 12  2  0
 14 13  1  0
 15 10  1  0
 15 14  2  0
 16 15  1  0
 17 16  2  0
 18 16  1  0
 19  4  1  0
 20 19  1  0
 21 20  1  0
 22 21  1  0
 23 22  1  0
 24 23  1  0
 25 24  1  0
 26 25  1  0
 27 26  2  0
 28 27  1  0
 29 28  2  0
 30 29  1  0
 31 26  1  0
 31 30  2  0
  2 32  1  0
  3 33  1  0
  5 34  1  0
  6 35  1  0
  9 36  1  0
 11 37  1  0
 12 38  1  0
 13 39  1  0
 14 40  1  0
 18 41  1  0
 18 42  1  0
 18 43  1  0
 20 44  1  0
 20 45  1  0
 21 46  1  0
 21 47  1  0
 22 48  1  0
 22 49  1  0
 23 50  1  0
 23 51  1  0
 24 52  1  0
 24 53  1  0
 25 54  1  0
 25 55  1  0
 27 56  1  0
 28 57  1  0
 29 58  1  0
 30 59  1  0
 31 60  1  0
M  CHG  1  26   1
M  END
>  <score>  (4) 
-9.209

$$$$
=
     RDKit          3D

 60 62  0  0  0  0  0  0  0  0999 V2000
    0.2670   67.5120   67.9150 C   0  0  0  0  0  0  0  0  0  0  0  0
   -0.8840   66.8310   68.3330 C   0  0  0  0  0  0  0  0  0  0  0  0
   -0.8530   66.0190   69.4750 C   0  0  0  0  0  0  0  0  0  0  0  0
    0.3240   65.8870   70.2120 C   0  0  0  0  0  0  0  0  0  0  0  0
    1.4670   66.5790   69.8050 C   0  0  0  0  0  0  0  0  0  0  0  0
    1.4410   67.3900   68.6680 C   0  0  0  0  0  0  0  0  0  0  0  0
   -0.0260   69.5730   66.8550 O   0  0  0  0  0  0  0  0  0  0  0  0
    0.2870   68.3970   66.7110 C   0  0  0  0  0  0  0  0  0  0  0  0
    0.6940   67.7920   65.5400 N   0  0  0  0  0  0  0  0  0  0  0  0
    0.7720   68.3450   64.2370 C   0  0  0  0  0  0  0  0  0  0  0  0
   -0.3610   68.8140   63.5610 C   0  0  0  0  0  0  0  0  0  0  0  0
   -0.2620   69.3500   62.2750 C   0  0  0  0  0  0  0  0  0  0  0  0
    0.9710   69.4230   61.6400 C   0  0  0  0  0  0  0  0  0  0  0  0
    2.1140   68.9570   62.2900 C   0  0  0  0  0  0  0  0  0  0  0  0
    2.0320   68.4190   63.5870 C   0  0  0  0  0  0  0  0  0  0  0  0
    3.2810   67.9220   64.2630 C   0  0  0  0  0  0  0  0  0  0  0  0
    3.5310   66.7150   64.3000 O   0  0  0  0  0  0  0  0  0  0  0  0
    4.2250   68.9140   64.8940 C   0  0  0  0  0  0  0  0  0  0  0  0
    0.4880   65.1320   71.3410 O   0  0  0  0  0  0  0  0  0  0  0  0
    0.8170   63.7550   71.1620 C   0  0  0  0  0  0  0  0  0  0  0  0
    2.1870   63.5010   71.7960 C   0  0  0  0  0  0  0  0  0  0  0  0
    3.3210   63.5760   70.7690 C   0  0  0  0  0  0  0  0  0  0  0  0
    2.9260   63.0550   69.3840 C   0  0  0  0  0  0  0  0  0  0  0  0
    3.2500   61.5730   69.1700 C   0  0  0  0  0  0  0  0  0  0  0  0
    4.4530   61.1040   69.9870 C   0  0  0  0  0  0  0  0  0  0  0  0
    4.0290   60.2250   71.1040 N   0  0  0  0  0  4  0  0  0  0  0  0
    3.2860   59.1220   70.8490 C   0  0  0  0  0  0  0  0  0  0  0  0
    2.8950   58.2770   71.8820 C   0  0  0  0  0  0  0  0  0  0  0  0
    3.2800   58.5680   73.1840 C   0  0  0  0  0  0  0  0  0  0  0  0
    4.0510   59.6970   73.4300 C   0  0  0  0  0  0  0  0  0  0  0  0
    4.4200   60.5140   72.3680 C   0  0  0  0  0  0  0  0  0  0  0  0
   -1.8180   66.9343   67.7612 H   0  0  0  0  0  0  0  0  0  0  0  0
   -1.7604   65.4837   69.7914 H   0  0  0  0  0  0  0  0  0  0  0  0
    2.3966   66.4844   70.3854 H   0  0  0  0  0  0  0  0  0  0  0  0
    2.3465   67.9350   68.3630 H   0  0  0  0  0  0  0  0  0  0  0  0
    0.9796   66.8059   65.6236 H   0  0  0  0  0  0  0  0  0  0  0  0
   -1.3446   68.7595   64.0505 H   0  0  0  0  0  0  0  0  0  0  0  0
   -1.1643   69.7158   61.7631 H   0  0  0  0  0  0  0  0  0  0  0  0
    1.0461   69.8469   60.6277 H   0  0  0  0  0  0  0  0  0  0  0  0
    3.0889   69.0108   61.7833 H   0  0  0  0  0  0  0  0  0  0  0  0
    4.1554   68.8408   65.9894 H   0  0  0  0  0  0  0  0  0  0  0  0
    5.2548   68.6933   64.5765 H   0  0  0  0  0  0  0  0  0  0  0  0
    3.9535   69.9316   64.5765 H   0  0  0  0  0  0  0  0  0  0  0  0
    0.0588   63.1251   71.6502 H   0  0  0  0  0  0  0  0  0  0  0  0
    0.8441   63.5083   70.0904 H   0  0  0  0  0  0  0  0  0  0  0  0
    2.3632   64.2578   72.5746 H   0  0  0  0  0  0  0  0  0  0  0  0
    2.1808   62.4859   72.2197 H   0  0  0  0  0  0  0  0  0  0  0  0
    3.6324   64.6264   70.6701 H   0  0  0  0  0  0  0  0  0  0  0  0
    4.1340   62.9329   71.1370 H   0  0  0  0  0  0  0  0  0  0  0  0
    1.8427   63.1961   69.2555 H   0  0  0  0  0  0  0  0  0  0  0  0
    3.5126   63.6228   68.6468 H   0  0  0  0  0  0  0  0  0  0  0  0
    2.3732   60.9762   69.4618 H   0  0  0  0  0  0  0  0  0  0  0  0
    3.5002   61.4397   68.1072 H   0  0  0  0  0  0  0  0  0  0  0  0
    5.1377   60.5465   69.3309 H   0  0  0  0  0  0  0  0  0  0  0  0
    4.9554   61.9872   70.4083 H   0  0  0  0  0  0  0  0  0  0  0  0
    2.9889   58.8922   69.8151 H   0  0  0  0  0  0  0  0  0  0  0  0
    2.2861   57.3859   71.6695 H   0  0  0  0  0  0  0  0  0  0  0  0
    2.9774   57.9109   74.0126 H   0  0  0  0  0  0  0  0  0  0  0  0
    4.3663   59.9419   74.4550 H   0  0  0  0  0  0  0  0  0  0  0  0
    5.0365   61.4053   72.5562 H   0  0  0  0  0  0  0  0  0  0  0  0
  2  1  2  0
  3  2  1  0
  4  3  2  0
  5  4  1  0
  6  5  2  0
  6  1  1  0
  8  1  1  0
  8  7  2  0
  9  8  1  0
 10  9  1  0
 11 10  2  0
 12 11  1  0
 13 12  2  0
 14 13  1  0
 15 10  1  0
 15 14  2  0
 16 15  1  0
 17 16  2  0
 18 16  1  0
 19  4  1  0
 20 19  1  0
 21 20  1  0
 22 21  1  0
 23 22  1  0
 24 23  1  0
 25 24  1  0
 26 25  1  0
 27 26  2  0
 28 27  1  0
 29 28  2  0
 30 29  1  0
 31 26  1  0
 31 30  2  0
  2 32  1  0
  3 33  1  0
  5 34  1  0
  6 35  1  0
  9 36  1  0
 11 37  1  0
 12 38  1  0
 13 39  1  0
 14 40  1  0
 18 41  1  0
 18 42  1  0
 18 43  1  0
 20 44  1  0
 20 45  1  0
 21 46  1  0
 21 47  1  0
 22 48  1  0
 22 49  1  0
 23 50  1  0
 23 51  1  0
 24 52  1  0
 24 53  1  0
 25 54  1  0
 25 55  1  0
 27 56  1  0
 28 57  1  0
 29 58  1  0
 30 59  1  0
 31 60  1  0
M  CHG  1  26   1
M  END
>  <score>  (5) 
-8.695

$$$$
=
     RDKit          3D

 60 62  0  0  0  0  0  0  0  0999 V2000
    0.5720   61.1720   72.4650 C   0  0  0  0  0  0  0  0  0  0  0  0
   -0.4510   62.1110   72.2760 C   0  0  0  0  0  0  0  0  0  0  0  0
   -0.2310   63.2500   71.4880 C   0  0  0  0  0  0  0  0  0  0  0  0
    1.0070   63.4540   70.8770 C   0  0  0  0  0  0  0  0  0  0  0  0
    2.0190   62.5090   71.0520 C   0  0  0  0  0  0  0  0  0  0  0  0
    1.8050   61.3730   71.8360 C   0  0  0  0  0  0  0  0  0  0  0  0
   -0.5600   59.8980   74.0640 O   0  0  0  0  0  0  0  0  0  0  0  0
    0.3880   59.9380   73.2880 C   0  0  0  0  0  0  0  0  0  0  0  0
    1.3070   58.9340   73.0620 N   0  0  0  0  0  0  0  0  0  0  0  0
    1.4270   57.6790   73.7090 C   0  0  0  0  0  0  0  0  0  0  0  0
    0.5900   56.6000   73.3950 C   0  0  0  0  0  0  0  0  0  0  0  0
    0.7220   55.3720   74.0480 C   0  0  0  0  0  0  0  0  0  0  0  0
    1.6910   55.2030   75.0280 C   0  0  0  0  0  0  0  0  0  0  0  0
    2.5340   56.2630   75.3620 C   0  0  0  0  0  0  0  0  0  0  0  0
    2.4160   57.5040   74.7110 C   0  0  0  0  0  0  0  0  0  0  0  0
    3.3370   58.6310   75.0930 C   0  0  0  0  0  0  0  0  0  0  0  0
    4.1960   59.0290   74.3020 O   0  0  0  0  0  0  0  0  0  0  0  0
    3.2010   59.2690   76.4520 C   0  0  0  0  0  0  0  0  0  0  0  0
    1.3490   64.5150   70.0850 O   0  0  0  0  0  0  0  0  0  0  0  0
    0.7840   65.7830   70.4150 C   0  0  0  0  0  0  0  0  0  0  0  0
    1.2720   66.8090   69.3880 C   0  0  0  0  0  0  0  0  0  0  0  0
    0.1750   67.1920   68.3890 C   0  0  0  0  0  0  0  0  0  0  0  0
    0.4570   68.5010   67.6450 C   0  0  0  0  0  0  0  0  0  0  0  0
    1.9460   68.7540   67.3910 C   0  0  0  0  0  0  0  0  0  0  0  0
    2.5030   69.9090   68.2220 C   0  0  0  0  0  0  0  0  0  0  0  0
    3.9500   70.1040   67.9620 N   0  0  0  0  0  4  0  0  0  0  0  0
    4.4770   69.7380   66.7690 C   0  0  0  0  0  0  0  0  0  0  0  0
    5.8280   69.9300   66.5020 C   0  0  0  0  0  0  0  0  0  0  0  0
    6.6380   70.5090   67.4700 C   0  0  0  0  0  0  0  0  0  0  0  0
    6.0830   70.8890   68.6850 C   0  0  0  0  0  0  0  0  0  0  0  0
    4.7280   70.6790   68.9100 C   0  0  0  0  0  0  0  0  0  0  0  0
   -1.4319   61.9538   72.7483 H   0  0  0  0  0  0  0  0  0  0  0  0
   -1.0374   63.9855   71.3510 H   0  0  0  0  0  0  0  0  0  0  0  0
    2.9950   62.6603   70.5676 H   0  0  0  0  0  0  0  0  0  0  0  0
    2.6097   60.6332   71.9593 H   0  0  0  0  0  0  0  0  0  0  0  0
    1.9995   59.1221   72.3231 H   0  0  0  0  0  0  0  0  0  0  0  0
   -0.1832   56.7218   72.6221 H   0  0  0  0  0  0  0  0  0  0  0  0
    0.0564   54.5367   73.7850 H   0  0  0  0  0  0  0  0  0  0  0  0
    1.7937   54.2349   75.5401 H   0  0  0  0  0  0  0  0  0  0  0  0
    3.2980   56.1270   76.1416 H   0  0  0  0  0  0  0  0  0  0  0  0
    3.3628   58.5098   77.2313 H   0  0  0  0  0  0  0  0  0  0  0  0
    3.9489   60.0686   76.5582 H   0  0  0  0  0  0  0  0  0  0  0  0
    2.1920   59.6941   76.5582 H   0  0  0  0  0  0  0  0  0  0  0  0
   -0.3138   65.7201   70.3852 H   0  0  0  0  0  0  0  0  0  0  0  0
    1.0927   66.0836   71.4271 H   0  0  0  0  0  0  0  0  0  0  0  0
    1.5994   67.7147   69.9196 H   0  0  0  0  0  0  0  0  0  0  0  0
    2.1003   66.3556   68.8238 H   0  0  0  0  0  0  0  0  0  0  0  0
    0.0806   66.3839   67.6486 H   0  0  0  0  0  0  0  0  0  0  0  0
   -0.7504   67.3398   68.9651 H   0  0  0  0  0  0  0  0  0  0  0  0
   -0.0605   68.4679   66.6749 H   0  0  0  0  0  0  0  0  0  0  0  0
    0.0955   69.3196   68.2846 H   0  0  0  0  0  0  0  0  0  0  0  0
    2.5050   67.8402   67.6410 H   0  0  0  0  0  0  0  0  0  0  0  0
    2.0586   69.0256   66.3310 H   0  0  0  0  0  0  0  0  0  0  0  0
    1.9636   70.8317   67.9618 H   0  0  0  0  0  0  0  0  0  0  0  0
    2.3683   69.6700   69.2872 H   0  0  0  0  0  0  0  0  0  0  0  0
    3.8298   69.2844   66.0039 H   0  0  0  0  0  0  0  0  0  0  0  0
    6.2511   69.6261   65.5332 H   0  0  0  0  0  0  0  0  0  0  0  0
    7.7095   70.6652   67.2762 H   0  0  0  0  0  0  0  0  0  0  0  0
    6.7099   71.3516   69.4615 H   0  0  0  0  0  0  0  0  0  0  0  0
    4.2822   70.9831   69.8686 H   0  0  0  0  0  0  0  0  0  0  0  0
  2  1  2  0
  3  2  1  0
  4  3  2  0
  5  4  1  0
  6  5  2  0
  6  1  1  0
  8  1  1  0
  8  7  2  0
  9  8  1  0
 10  9  1  0
 11 10  2  0
 12 11  1  0
 13 12  2  0
 14 13  1  0
 15 10  1  0
 15 14  2  0
 16 15  1  0
 17 16  2  0
 18 16  1  0
 19  4  1  0
 20 19  1  0
 21 20  1  0
 22 21  1  0
 23 22  1  0
 24 23  1  0
 25 24  1  0
 26 25  1  0
 27 26  2  0
 28 27  1  0
 29 28  2  0
 30 29  1  0
 31 26  1  0
 31 30  2  0
  2 32  1  0
  3 33  1  0
  5 34  1  0
  6 35  1  0
  9 36  1  0
 11 37  1  0
 12 38  1  0
 13 39  1  0
 14 40  1  0
 18 41  1  0
 18 42  1  0
 18 43  1  0
 20 44  1  0
 20 45  1  0
 21 46  1  0
 21 47  1  0
 22 48  1  0
 22 49  1  0
 23 50  1  0
 23 51  1  0
 24 52  1  0
 24 53  1  0
 25 54  1  0
 25 55  1  0
 27 56  1  0
 28 57  1  0
 29 58  1  0
 30 59  1  0
 31 60  1  0
M  CHG  1  26   1
M  END
>  <score>  (6) 
-8.685

$$$$
=
     RDKit          3D

 60 62  0  0  0  0  0  0  0  0999 V2000
    3.1680   61.4120   71.8430 C   0  0  0  0  0  0  0  0  0  0  0  0
    4.0910   62.2700   71.2310 C   0  0  0  0  0  0  0  0  0  0  0  0
    3.6580   63.4430   70.5970 C   0  0  0  0  0  0  0  0  0  0  0  0
    2.3020   63.7720   70.5770 C   0  0  0  0  0  0  0  0  0  0  0  0
    1.3840   62.9260   71.2030 C   0  0  0  0  0  0  0  0  0  0  0  0
    1.8110   61.7560   71.8350 C   0  0  0  0  0  0  0  0  0  0  0  0
    4.4780   59.4880   72.0420 O   0  0  0  0  0  0  0  0  0  0  0  0
    3.5770   60.1550   72.5380 C   0  0  0  0  0  0  0  0  0  0  0  0
    2.9040   59.8820   73.7110 N   0  0  0  0  0  0  0  0  0  0  0  0
    3.0280   58.7580   74.5660 C   0  0  0  0  0  0  0  0  0  0  0  0
    4.1820   58.5280   75.3250 C   0  0  0  0  0  0  0  0  0  0  0  0
    4.2860   57.4100   76.1570 C   0  0  0  0  0  0  0  0  0  0  0  0
    3.2390   56.5010   76.2410 C   0  0  0  0  0  0  0  0  0  0  0  0
    2.0810   56.7060   75.4910 C   0  0  0  0  0  0  0  0  0  0  0  0
    1.9600   57.8280   74.6520 C   0  0  0  0  0  0  0  0  0  0  0  0
    0.7000   58.0210   73.8530 C   0  0  0  0  0  0  0  0  0  0  0  0
    0.2330   59.1510   73.6890 O   0  0  0  0  0  0  0  0  0  0  0  0
    0.0130   56.8210   73.2520 C   0  0  0  0  0  0  0  0  0  0  0  0
    1.7510   64.8820   70.0000 O   0  0  0  0  0  0  0  0  0  0  0  0
    0.3910   65.1750   70.3170 C   0  0  0  0  0  0  0  0  0  0  0  0
   -0.0030   66.4680   69.5990 C   0  0  0  0  0  0  0  0  0  0  0  0
    1.2070   67.1780   68.9830 C   0  0  0  0  0  0  0  0  0  0  0  0
    0.9920   67.5970   67.5250 C   0  0  0  0  0  0  0  0  0  0  0  0
    1.4160   69.0390   67.2320 C   0  0  0  0  0  0  0  0  0  0  0  0
    2.7020   69.1260   66.4120 C   0  0  0  0  0  0  0  0  0  0  0  0
    3.8070   69.7070   67.2130 N   0  0  0  0  0  4  0  0  0  0  0  0
    5.0370   69.8450   66.6640 C   0  0  0  0  0  0  0  0  0  0  0  0
    6.0800   70.4030   67.3940 C   0  0  0  0  0  0  0  0  0  0  0  0
    5.8500   70.8280   68.6960 C   0  0  0  0  0  0  0  0  0  0  0  0
    4.5810   70.6900   69.2430 C   0  0  0  0  0  0  0  0  0  0  0  0
    3.5670   70.1270   68.4780 C   0  0  0  0  0  0  0  0  0  0  0  0
    5.1625   62.0217   71.2480 H   0  0  0  0  0  0  0  0  0  0  0  0
    4.3900   64.1066   70.1134 H   0  0  0  0  0  0  0  0  0  0  0  0
    0.3146   63.1835   71.1983 H   0  0  0  0  0  0  0  0  0  0  0  0
    1.0775   61.1017   72.3288 H   0  0  0  0  0  0  0  0  0  0  0  0
    2.2180   60.5915   74.0057 H   0  0  0  0  0  0  0  0  0  0  0  0
    5.0197   59.2384   75.2654 H   0  0  0  0  0  0  0  0  0  0  0  0
    5.2001   57.2493   76.7474 H   0  0  0  0  0  0  0  0  0  0  0  0
    3.3229   55.6221   76.8971 H   0  0  0  0  0  0  0  0  0  0  0  0
    1.2545   55.9831   75.5564 H   0  0  0  0  0  0  0  0  0  0  0  0
   -0.3595   56.1704   74.0570 H   0  0  0  0  0  0  0  0  0  0  0  0
   -0.8308   57.1548   72.6303 H   0  0  0  0  0  0  0  0  0  0  0  0
    0.7281   56.2623   72.6303 H   0  0  0  0  0  0  0  0  0  0  0  0
   -0.2551   64.3510   69.9801 H   0  0  0  0  0  0  0  0  0  0  0  0
    0.2729   65.2945   71.4041 H   0  0  0  0  0  0  0  0  0  0  0  0
   -0.7172   66.2254   68.7983 H   0  0  0  0  0  0  0  0  0  0  0  0
   -0.4503   67.1447   70.3419 H   0  0  0  0  0  0  0  0  0  0  0  0
    1.4214   68.0791   69.5764 H   0  0  0  0  0  0  0  0  0  0  0  0
    2.0426   66.4627   68.9945 H   0  0  0  0  0  0  0  0  0  0  0  0
    1.5771   66.9248   66.8802 H   0  0  0  0  0  0  0  0  0  0  0  0
   -0.0881   67.5321   67.3269 H   0  0  0  0  0  0  0  0  0  0  0  0
    0.6091   69.5353   66.6729 H   0  0  0  0  0  0  0  0  0  0  0  0
    1.6068   69.5295   68.1979 H   0  0  0  0  0  0  0  0  0  0  0  0
    2.9883   68.1157   66.0843 H   0  0  0  0  0  0  0  0  0  0  0  0
    2.5198   69.7766   65.5439 H   0  0  0  0  0  0  0  0  0  0  0  0
    5.2126   69.5123   65.6303 H   0  0  0  0  0  0  0  0  0  0  0  0
    7.0786   70.5070   66.9445 H   0  0  0  0  0  0  0  0  0  0  0  0
    6.6650   71.2696   69.2882 H   0  0  0  0  0  0  0  0  0  0  0  0
    4.3806   71.0232   70.2720 H   0  0  0  0  0  0  0  0  0  0  0  0
    2.5585   70.0213   68.9043 H   0  0  0  0  0  0  0  0  0  0  0  0
  2  1  2  0
  3  2  1  0
  4  3  2  0
  5  4  1  0
  6  5  2  0
  6  1  1  0
  8  1  1  0
  8  7  2  0
  9  8  1  0
 10  9  1  0
 11 10  2  0
 12 11  1  0
 13 12  2  0
 14 13  1  0
 15 10  1  0
 15 14  2  0
 16 15  1  0
 17 16  2  0
 18 16  1  0
 19  4  1  0
 20 19  1  0
 21 20  1  0
 22 21  1  0
 23 22  1  0
 24 23  1  0
 25 24  1  0
 26 25  1  0
 27 26  2  0
 28 27  1  0
 29 28  2  0
 30 29  1  0
 31 26  1  0
 31 30  2  0
  2 32  1  0
  3 33  1  0
  5 34  1  0
  6 35  1  0
  9 36  1  0
 11 37  1  0
 12 38  1  0
 13 39  1  0
 14 40  1  0
 18 41  1  0
 18 42  1  0
 18 43  1  0
 20 44  1  0
 20 45  1  0
 21 46  1  0
 21 47  1  0
 22 48  1  0
 22 49  1  0
 23 50  1  0
 23 51  1  0
 24 52  1  0
 24 53  1  0
 25 54  1  0
 25 55  1  0
 27 56  1  0
 28 57  1  0
 29 58  1  0
 30 59  1  0
 31 60  1  0
M  CHG  1  26   1
M  END
>  <score>  (7) 
-8.621

$$$$
=
     RDKit          3D

 60 62  0  0  0  0  0  0  0  0999 V2000
    1.5740   62.8400   71.9370 C   0  0  0  0  0  0  0  0  0  0  0  0
    2.7010   63.1520   71.1650 C   0  0  0  0  0  0  0  0  0  0  0  0
    2.6810   64.2470   70.2910 C   0  0  0  0  0  0  0  0  0  0  0  0
    1.5400   65.0440   70.1870 C   0  0  0  0  0  0  0  0  0  0  0  0
    0.4230   64.7420   70.9700 C   0  0  0  0  0  0  0  0  0  0  0  0
    0.4380   63.6520   71.8420 C   0  0  0  0  0  0  0  0  0  0  0  0
    2.3270   61.7030   73.8350 O   0  0  0  0  0  0  0  0  0  0  0  0
    1.5450   61.6890   72.8900 C   0  0  0  0  0  0  0  0  0  0  0  0
    0.5990   60.7220   72.6220 N   0  0  0  0  0  0  0  0  0  0  0  0
    0.3570   59.5030   73.3030 C   0  0  0  0  0  0  0  0  0  0  0  0
    1.1000   58.3460   73.0400 C   0  0  0  0  0  0  0  0  0  0  0  0
    0.8420   57.1530   73.7190 C   0  0  0  0  0  0  0  0  0  0  0  0
   -0.1670   57.0960   74.6720 C   0  0  0  0  0  0  0  0  0  0  0  0
   -0.9250   58.2330   74.9490 C   0  0  0  0  0  0  0  0  0  0  0  0
   -0.6740   59.4430   74.2760 C   0  0  0  0  0  0  0  0  0  0  0  0
   -1.5100   60.6530   74.5940 C   0  0  0  0  0  0  0  0  0  0  0  0
   -1.0620   61.5460   75.3190 O   0  0  0  0  0  0  0  0  0  0  0  0
   -2.8980   60.7660   74.0180 C   0  0  0  0  0  0  0  0  0  0  0  0
    1.3900   66.1360   69.3800 O   0  0  0  0  0  0  0  0  0  0  0  0
    0.1740   66.8730   69.4980 C   0  0  0  0  0  0  0  0  0  0  0  0
   -0.5160   66.8840   68.1320 C   0  0  0  0  0  0  0  0  0  0  0  0
   -0.2080   68.1600   67.3400 C   0  0  0  0  0  0  0  0  0  0  0  0
    0.7270   67.9280   66.1480 C   0  0  0  0  0  0  0  0  0  0  0  0
    2.1960   68.2350   66.4530 C   0  0  0  0  0  0  0  0  0  0  0  0
    2.3700   69.3990   67.4270 C   0  0  0  0  0  0  0  0  0  0  0  0
    3.7800   69.8590   67.4610 N   0  0  0  0  0  4  0  0  0  0  0  0
    4.2790   70.4210   68.5880 C   0  0  0  0  0  0  0  0  0  0  0  0
    5.6020   70.8420   68.6440 C   0  0  0  0  0  0  0  0  0  0  0  0
    6.4180   70.6760   67.5320 C   0  0  0  0  0  0  0  0  0  0  0  0
    5.8970   70.0900   66.3860 C   0  0  0  0  0  0  0  0  0  0  0  0
    4.5680   69.6830   66.3740 C   0  0  0  0  0  0  0  0  0  0  0  0
    3.6070   62.5335   71.2456 H   0  0  0  0  0  0  0  0  0  0  0  0
    3.5685   64.4795   69.6841 H   0  0  0  0  0  0  0  0  0  0  0  0
   -0.4776   65.3696   70.8986 H   0  0  0  0  0  0  0  0  0  0  0  0
   -0.4467   63.4304   72.4570 H   0  0  0  0  0  0  0  0  0  0  0  0
   -0.0153   60.9116   71.8173 H   0  0  0  0  0  0  0  0  0  0  0  0
    1.9003   58.3770   72.2860 H   0  0  0  0  0  0  0  0  0  0  0  0
    1.4395   56.2561   73.4985 H   0  0  0  0  0  0  0  0  0  0  0  0
   -0.3676   56.1560   75.2069 H   0  0  0  0  0  0  0  0  0  0  0  0
   -1.7267   58.1837   75.7006 H   0  0  0  0  0  0  0  0  0  0  0  0
   -3.6308   60.8257   74.8362 H   0  0  0  0  0  0  0  0  0  0  0  0
   -2.9653   61.6726   73.3987 H   0  0  0  0  0  0  0  0  0  0  0  0
   -3.1110   59.8822   73.3987 H   0  0  0  0  0  0  0  0  0  0  0  0
   -0.4804   66.3943   70.2414 H   0  0  0  0  0  0  0  0  0  0  0  0
    0.3848   67.9021   69.8243 H   0  0  0  0  0  0  0  0  0  0  0  0
   -0.1700   66.0151   67.5530 H   0  0  0  0  0  0  0  0  0  0  0  0
   -1.6022   66.8444   68.3011 H   0  0  0  0  0  0  0  0  0  0  0  0
   -1.1553   68.5739   66.9642 H   0  0  0  0  0  0  0  0  0  0  0  0
    0.3058   68.8504   68.0251 H   0  0  0  0  0  0  0  0  0  0  0  0
    0.6478   66.8739   65.8438 H   0  0  0  0  0  0  0  0  0  0  0  0
    0.4117   68.6179   65.3513 H   0  0  0  0  0  0  0  0  0  0  0  0
    2.6583   67.3383   66.8914 H   0  0  0  0  0  0  0  0  0  0  0  0
    2.6768   68.5220   65.5062 H   0  0  0  0  0  0  0  0  0  0  0  0
    1.7273   70.2331   67.1089 H   0  0  0  0  0  0  0  0  0  0  0  0
    2.0889   69.0576   68.4342 H   0  0  0  0  0  0  0  0  0  0  0  0
    3.6303   70.5453   69.4677 H   0  0  0  0  0  0  0  0  0  0  0  0
    5.9996   71.3025   69.5604 H   0  0  0  0  0  0  0  0  0  0  0  0
    7.4671   71.0057   67.5591 H   0  0  0  0  0  0  0  0  0  0  0  0
    6.5294   69.9494   65.4970 H   0  0  0  0  0  0  0  0  0  0  0  0
    4.1516   69.2125   65.4711 H   0  0  0  0  0  0  0  0  0  0  0  0
  2  1  2  0
  3  2  1  0
  4  3  2  0
  5  4  1  0
  6  5  2  0
  6  1  1  0
  8  1  1  0
  8  7  2  0
  9  8  1  0
 10  9  1  0
 11 10  2  0
 12 11  1  0
 13 12  2  0
 14 13  1  0
 15 10  1  0
 15 14  2  0
 16 15  1  0
 17 16  2  0
 18 16  1  0
 19  4  1  0
 20 19  1  0
 21 20  1  0
 22 21  1  0
 23 22  1  0
 24 23  1  0
 25 24  1  0
 26 25  1  0
 27 26  2  0
 28 27  1  0
 29 28  2  0
 30 29  1  0
 31 26  1  0
 31 30  2  0
  2 32  1  0
  3 33  1  0
  5 34  1  0
  6 35  1  0
  9 36  1  0
 11 37  1  0
 12 38  1  0
 13 39  1  0
 14 40  1  0
 18 41  1  0
 18 42  1  0
 18 43  1  0
 20 44  1  0
 20 45  1  0
 21 46  1  0
 21 47  1  0
 22 48  1  0
 22 49  1  0
 23 50  1  0
 23 51  1  0
 24 52  1  0
 24 53  1  0
 25 54  1  0
 25 55  1  0
 27 56  1  0
 28 57  1  0
 29 58  1  0
 30 59  1  0
 31 60  1  0
M  CHG  1  26   1
M  END
>  <score>  (8) 
-8.552

$$$$
=
     RDKit          3D

 60 62  0  0  0  0  0  0  0  0999 V2000
    1.3070   63.8120   71.7740 C   0  0  0  0  0  0  0  0  0  0  0  0
    0.2110   64.6480   72.0210 C   0  0  0  0  0  0  0  0  0  0  0  0
    0.0100   65.8020   71.2500 C   0  0  0  0  0  0  0  0  0  0  0  0
    0.8970   66.1240   70.2230 C   0  0  0  0  0  0  0  0  0  0  0  0
    1.9800   65.2810   69.9660 C   0  0  0  0  0  0  0  0  0  0  0  0
    2.1840   64.1310   70.7310 C   0  0  0  0  0  0  0  0  0  0  0  0
    1.9730   62.6840   73.7080 O   0  0  0  0  0  0  0  0  0  0  0  0
    1.5630   62.5670   72.5590 C   0  0  0  0  0  0  0  0  0  0  0  0
    1.2740   61.3860   71.9070 N   0  0  0  0  0  0  0  0  0  0  0  0
    1.4500   60.0550   72.3600 C   0  0  0  0  0  0  0  0  0  0  0  0
    0.5620   59.4540   73.2600 C   0  0  0  0  0  0  0  0  0  0  0  0
    0.7560   58.1420   73.6990 C   0  0  0  0  0  0  0  0  0  0  0  0
    1.8470   57.4090   73.2470 C   0  0  0  0  0  0  0  0  0  0  0  0
    2.7490   57.9870   72.3540 C   0  0  0  0  0  0  0  0  0  0  0  0
    2.5630   59.3050   71.9000 C   0  0  0  0  0  0  0  0  0  0  0  0
    3.5540   59.9030   70.9380 C   0  0  0  0  0  0  0  0  0  0  0  0
    3.3360   59.8800   69.7240 O   0  0  0  0  0  0  0  0  0  0  0  0
    4.8170   60.5300   71.4710 C   0  0  0  0  0  0  0  0  0  0  0  0
    0.8150   67.2130   69.4000 O   0  0  0  0  0  0  0  0  0  0  0  0
   -0.1680   67.1760   68.3660 C   0  0  0  0  0  0  0  0  0  0  0  0
    0.4280   67.8180   67.1110 C   0  0  0  0  0  0  0  0  0  0  0  0
    1.9600   67.8600   67.1560 C   0  0  0  0  0  0  0  0  0  0  0  0
    2.5520   69.1550   66.5910 C   0  0  0  0  0  0  0  0  0  0  0  0
    3.4180   68.9420   65.3470 C   0  0  0  0  0  0  0  0  0  0  0  0
    2.8600   67.8730   64.4090 C   0  0  0  0  0  0  0  0  0  0  0  0
    2.0000   68.4780   63.3630 N   0  0  0  0  0  4  0  0  0  0  0  0
    2.5090   68.7320   62.1340 C   0  0  0  0  0  0  0  0  0  0  0  0
    1.7130   69.2820   61.1370 C   0  0  0  0  0  0  0  0  0  0  0  0
    0.3800   69.5670   61.4070 C   0  0  0  0  0  0  0  0  0  0  0  0
   -0.1320   69.2920   62.6680 C   0  0  0  0  0  0  0  0  0  0  0  0
    0.6990   68.7410   63.6360 C   0  0  0  0  0  0  0  0  0  0  0  0
   -0.4968   64.3978   72.8250 H   0  0  0  0  0  0  0  0  0  0  0  0
   -0.8504   66.4556   71.4560 H   0  0  0  0  0  0  0  0  0  0  0  0
    2.6793   65.5253   69.1528 H   0  0  0  0  0  0  0  0  0  0  0  0
    3.0379   63.4727   70.5130 H   0  0  0  0  0  0  0  0  0  0  0  0
    0.8761   61.4854   70.9622 H   0  0  0  0  0  0  0  0  0  0  0  0
   -0.3035   60.0247   73.6279 H   0  0  0  0  0  0  0  0  0  0  0  0
    0.0438   57.6881   74.4038 H   0  0  0  0  0  0  0  0  0  0  0  0
    1.9986   56.3758   73.5927 H   0  0  0  0  0  0  0  0  0  0  0  0
    3.6142   57.4064   72.0014 H   0  0  0  0  0  0  0  0  0  0  0  0
    4.7958   60.5195   72.5707 H   0  0  0  0  0  0  0  0  0  0  0  0
    5.6878   59.9596   71.1156 H   0  0  0  0  0  0  0  0  0  0  0  0
    4.8891   61.5685   71.1156 H   0  0  0  0  0  0  0  0  0  0  0  0
   -0.4453   66.1329   68.1540 H   0  0  0  0  0  0  0  0  0  0  0  0
   -1.0684   67.7242   68.6802 H   0  0  0  0  0  0  0  0  0  0  0  0
    0.1149   67.2356   66.2319 H   0  0  0  0  0  0  0  0  0  0  0  0
    0.0625   68.8540   67.0546 H   0  0  0  0  0  0  0  0  0  0  0  0
    2.2806   67.7584   68.2033 H   0  0  0  0  0  0  0  0  0  0  0  0
    2.3252   67.0353   66.5264 H   0  0  0  0  0  0  0  0  0  0  0  0
    1.7241   69.8295   66.3269 H   0  0  0  0  0  0  0  0  0  0  0  0
    3.2044   69.5776   67.3693 H   0  0  0  0  0  0  0  0  0  0  0  0
    3.4819   69.8925   64.7971 H   0  0  0  0  0  0  0  0  0  0  0  0
    4.4058   68.5985   65.6878 H   0  0  0  0  0  0  0  0  0  0  0  0
    3.6964   67.3463   63.9263 H   0  0  0  0  0  0  0  0  0  0  0  0
    2.2518   67.1722   64.9997 H   0  0  0  0  0  0  0  0  0  0  0  0
    3.5635   68.5005   61.9230 H   0  0  0  0  0  0  0  0  0  0  0  0
    2.1343   69.4901   60.1424 H   0  0  0  0  0  0  0  0  0  0  0  0
   -0.2629   70.0059   60.6298 H   0  0  0  0  0  0  0  0  0  0  0  0
   -1.1856   69.5083   62.8986 H   0  0  0  0  0  0  0  0  0  0  0  0
    0.2964   68.5159   64.6346 H   0  0  0  0  0  0  0  0  0  0  0  0
  2  1  2  0
  3  2  1  0
  4  3  2  0
  5  4  1  0
  6  5  2  0
  6  1  1  0
  8  1  1  0
  8  7  2  0
  9  8  1  0
 10  9  1  0
 11 10  2  0
 12 11  1  0
 13 12  2  0
 14 13  1  0
 15 10  1  0
 15 14  2  0
 16 15  1  0
 17 16  2  0
 18 16  1  0
 19  4  1  0
 20 19  1  0
 21 20  1  0
 22 21  1  0
 23 22  1  0
 24 23  1  0
 25 24  1  0
 26 25  1  0
 27 26  2  0
 28 27  1  0
 29 28  2  0
 30 29  1  0
 31 26  1  0
 31 30  2  0
  2 32  1  0
  3 33  1  0
  5 34  1  0
  6 35  1  0
  9 36  1  0
 11 37  1  0
 12 38  1  0
 13 39  1  0
 14 40  1  0
 18 41  1  0
 18 42  1  0
 18 43  1  0
 20 44  1  0
 20 45  1  0
 21 46  1  0
 21 47  1  0
 22 48  1  0
 22 49  1  0
 23 50  1  0
 23 51  1  0
 24 52  1  0
 24 53  1  0
 25 54  1  0
 25 55  1  0
 27 56  1  0
 28 57  1  0
 29 58  1  0
 30 59  1  0
 31 60  1  0
M  CHG  1  26   1
M  END
>  <score>  (9) 
-8.496

$$$$
