=
     RDKit          3D

 39 41  0  0  0  0  0  0  0  0999 V2000
   -0.7170   67.0160   67.7130 C   0  0  0  0  0  0  0  0  0  0  0  0
   -2.0270   67.4960   67.6810 C   0  0  0  0  0  0  0  0  0  0  0  0
   -2.4490   68.3420   66.6500 C   0  0  0  0  0  0  0  0  0  0  0  0
   -1.5660   68.7190   65.6400 C   0  0  0  0  0  0  0  0  0  0  0  0
   -0.2510   68.2470   65.6610 C   0  0  0  0  0  0  0  0  0  0  0  0
    0.1660   67.3940   66.6950 C   0  0  0  0  0  0  0  0  0  0  0  0
    1.5560   67.3830   69.6010 O   0  0  0  0  0  0  0  0  0  0  0  0
    0.8270   66.3990   69.5840 C   0  0  0  0  0  0  0  0  0  0  0  0
   -0.2160   66.1520   68.7120 N   0  0  0  0  0  0  0  0  0  0  0  0
    1.0970   65.3150   70.5720 C   0  0  0  0  0  0  0  0  0  0  0  0
    0.1520   65.0870   71.5870 C   0  0  0  0  0  0  0  0  0  0  0  0
    0.3590   64.0760   72.5290 C   0  0  0  0  0  0  0  0  0  0  0  0
    1.5030   63.2910   72.4470 C   0  0  0  0  0  0  0  0  0  0  0  0
    2.4320   63.5030   71.4330 C   0  0  0  0  0  0  0  0  0  0  0  0
    2.2370   64.5080   70.4880 C   0  0  0  0  0  0  0  0  0  0  0  0
    3.5250   62.7350   71.3510 F   0  0  0  0  0  0  0  0  0  0  0  0
    1.7030   62.3220   73.3510 F   0  0  0  0  0  0  0  0  0  0  0  0
    0.7360   68.6160   64.6150 C   0  0  0  0  0  0  0  0  0  0  0  0
    0.4890   69.4570   63.7570 O   0  0  0  0  0  0  0  0  0  0  0  0
    2.0890   67.9550   64.6040 C   0  0  0  0  0  0  0  0  0  0  0  0
    2.2010   66.8250   64.1470 O   0  0  0  0  0  0  0  0  0  0  0  0
    3.2320   68.7280   65.1390 C   0  0  0  0  0  0  0  0  0  0  0  0
    3.2030   69.1710   66.4560 C   0  0  0  0  0  0  0  0  0  0  0  0
    4.3030   69.8750   66.9370 C   0  0  0  0  0  0  0  0  0  0  0  0
    5.3850   70.1070   66.0940 C   0  0  0  0  0  0  0  0  0  0  0  0
    5.3280   69.6210   64.7980 C   0  0  0  0  0  0  0  0  0  0  0  0
    4.2790   68.9290   64.3000 N   0  0  0  0  0  0  0  0  0  0  0  0
   -2.7335   67.2067   68.4730 H   0  0  0  0  0  0  0  0  0  0  0  0
   -3.4848   68.7121   66.6364 H   0  0  0  0  0  0  0  0  0  0  0  0
   -1.9022   69.3842   64.8310 H   0  0  0  0  0  0  0  0  0  0  0  0
    1.1997   67.0180   66.7053 H   0  0  0  0  0  0  0  0  0  0  0  0
   -0.6796   65.2364   68.8002 H   0  0  0  0  0  0  0  0  0  0  0  0
   -0.7548   65.7074   71.6401 H   0  0  0  0  0  0  0  0  0  0  0  0
   -0.3767   63.9030   73.3282 H   0  0  0  0  0  0  0  0  0  0  0  0
    2.9714   64.6654   69.6844 H   0  0  0  0  0  0  0  0  0  0  0  0
    2.3344   68.9707   67.1006 H   0  0  0  0  0  0  0  0  0  0  0  0
    4.3167   70.2442   67.9731 H   0  0  0  0  0  0  0  0  0  0  0  0
    6.2653   70.6634   66.4482 H   0  0  0  0  0  0  0  0  0  0  0  0
    6.1860   69.8091   64.1358 H   0  0  0  0  0  0  0  0  0  0  0  0
  2  1  2  0
  3  2  1  0
  4  3  2  0
  5  4  1  0
  6  5  2  0
  6  1  1  0
  8  7  2  0
  9  8  1  0
  9  1  1  0
 10  8  1  0
 11 10  2  0
 12 11  1  0
 13 12  2  0
 14 13  1  0
 15 10  1  0
 15 14  2  0
 16 14  1  0
 17 13  1  0
 18  5  1  0
 19 18  2  0
 20 18  1  0
 21 20  2  0
 22 20  1  0
 23 22  2  0
 24 23  1  0
 25 24  2  0
 26 25  1  0
 27 26  2  0
 27 22  1  0
  2 28  1  0
  3 29  1  0
  4 30  1  0
  6 31  1  0
  9 32  1  0
 11 33  1  0
 12 34  1  0
 15 35  1  0
 23 36  1  0
 24 37  1  0
 25 38  1  0
 26 39  1  0
M  END
>  <score>  (1) 
-10.623

$$$$
=
     RDKit          3D

 39 41  0  0  0  0  0  0  0  0999 V2000
    0.1440   66.5540   68.7840 C   0  0  0  0  0  0  0  0  0  0  0  0
   -1.0990   66.7260   68.1730 C   0  0  0  0  0  0  0  0  0  0  0  0
   -1.3740   67.8820   67.4350 C   0  0  0  0  0  0  0  0  0  0  0  0
   -0.4100   68.8800   67.3000 C   0  0  0  0  0  0  0  0  0  0  0  0
    0.8370   68.7210   67.9080 C   0  0  0  0  0  0  0  0  0  0  0  0
    1.1110   67.5570   68.6430 C   0  0  0  0  0  0  0  0  0  0  0  0
   -0.1940   65.9900   71.6880 O   0  0  0  0  0  0  0  0  0  0  0  0
    0.2860   65.2000   70.8840 C   0  0  0  0  0  0  0  0  0  0  0  0
    0.5040   65.4150   69.5360 N   0  0  0  0  0  0  0  0  0  0  0  0
    0.7290   63.8710   71.3940 C   0  0  0  0  0  0  0  0  0  0  0  0
    2.1070   63.6120   71.4760 C   0  0  0  0  0  0  0  0  0  0  0  0
    2.5680   62.3830   71.9560 C   0  0  0  0  0  0  0  0  0  0  0  0
    1.6500   61.4220   72.3620 C   0  0  0  0  0  0  0  0  0  0  0  0
    0.2840   61.6820   72.2990 C   0  0  0  0  0  0  0  0  0  0  0  0
   -0.1870   62.9030   71.8220 C   0  0  0  0  0  0  0  0  0  0  0  0
   -0.5960   60.7580   72.7050 F   0  0  0  0  0  0  0  0  0  0  0  0
    2.0900   60.2430   72.8210 F   0  0  0  0  0  0  0  0  0  0  0  0
    1.9020   69.7500   67.8020 C   0  0  0  0  0  0  0  0  0  0  0  0
    1.8410   70.8140   68.4100 O   0  0  0  0  0  0  0  0  0  0  0  0
    3.1070   69.4860   66.9360 C   0  0  0  0  0  0  0  0  0  0  0  0
    2.9580   68.9330   65.8540 O   0  0  0  0  0  0  0  0  0  0  0  0
    4.4230   69.9330   67.4420 C   0  0  0  0  0  0  0  0  0  0  0  0
    5.5270   69.9060   66.5980 C   0  0  0  0  0  0  0  0  0  0  0  0
    6.7470   70.3540   67.0970 C   0  0  0  0  0  0  0  0  0  0  0  0
    6.8200   70.8150   68.4070 C   0  0  0  0  0  0  0  0  0  0  0  0
    5.6650   70.8130   69.1720 C   0  0  0  0  0  0  0  0  0  0  0  0
    4.4640   70.3890   68.7190 N   0  0  0  0  0  0  0  0  0  0  0  0
   -1.8685   65.9463   68.2726 H   0  0  0  0  0  0  0  0  0  0  0  0
   -2.3576   68.0044   66.9579 H   0  0  0  0  0  0  0  0  0  0  0  0
   -0.6303   69.7871   66.7181 H   0  0  0  0  0  0  0  0  0  0  0  0
    2.0971   67.4312   69.1139 H   0  0  0  0  0  0  0  0  0  0  0  0
    0.9822   64.6603   69.0234 H   0  0  0  0  0  0  0  0  0  0  0  0
    2.8276   64.3809   71.1606 H   0  0  0  0  0  0  0  0  0  0  0  0
    3.6473   62.1783   72.0119 H   0  0  0  0  0  0  0  0  0  0  0  0
   -1.2677   63.1044   71.7821 H   0  0  0  0  0  0  0  0  0  0  0  0
    5.4392   69.5407   65.5642 H   0  0  0  0  0  0  0  0  0  0  0  0
    7.6446   70.3434   66.4612 H   0  0  0  0  0  0  0  0  0  0  0  0
    7.7722   71.1727   68.8258 H   0  0  0  0  0  0  0  0  0  0  0  0
    5.7289   71.1775   70.2079 H   0  0  0  0  0  0  0  0  0  0  0  0
  2  1  2  0
  3  2  1  0
  4  3  2  0
  5  4  1  0
  6  5  2  0
  6  1  1  0
  8  7  2  0
  9  8  1  0
  9  1  1  0
 10  8  1  0
 11 10  2  0
 12 11  1  0
 13 12  2  0
 14 13  1  0
 15 10  1  0
 15 14  2  0
 16 14  1  0
 17 13  1  0
 18  5  1  0
 19 18  2  0
 20 18  1  0
 21 20  2  0
 22 20  1  0
 23 22  2  0
 24 23  1  0
 25 24  2  0
 26 25  1  0
 27 26  2  0
 27 22  1  0
  2 28  1  0
  3 29  1  0
  4 30  1  0
  6 31  1  0
  9 32  1  0
 11 33  1  0
 12 34  1  0
 15 35  1  0
 23 36  1  0
 24 37  1  0
 25 38  1  0
 26 39  1  0
M  END
>  <score>  (2) 
-10.448

$$$$
=
     RDKit          3D

 39 41  0  0  0  0  0  0  0  0999 V2000
    0.7610   64.4960   70.8670 C   0  0  0  0  0  0  0  0  0  0  0  0
    0.1940   64.3380   72.1320 C   0  0  0  0  0  0  0  0  0  0  0  0
    0.8140   63.5340   73.0940 C   0  0  0  0  0  0  0  0  0  0  0  0
    2.0080   62.8770   72.8010 C   0  0  0  0  0  0  0  0  0  0  0  0
    2.5850   63.0250   71.5380 C   0  0  0  0  0  0  0  0  0  0  0  0
    1.9620   63.8380   70.5780 C   0  0  0  0  0  0  0  0  0  0  0  0
    1.5890   67.1750   69.8660 O   0  0  0  0  0  0  0  0  0  0  0  0
    0.6610   66.5240   69.4030 C   0  0  0  0  0  0  0  0  0  0  0  0
    0.2040   65.2970   69.8460 N   0  0  0  0  0  0  0  0  0  0  0  0
   -0.1030   67.1120   68.2650 C   0  0  0  0  0  0  0  0  0  0  0  0
   -1.4980   66.9480   68.2420 C   0  0  0  0  0  0  0  0  0  0  0  0
   -2.2550   67.4900   67.2000 C   0  0  0  0  0  0  0  0  0  0  0  0
   -1.6170   68.2020   66.1910 C   0  0  0  0  0  0  0  0  0  0  0  0
   -0.2370   68.3800   66.2210 C   0  0  0  0  0  0  0  0  0  0  0  0
    0.5280   67.8450   67.2540 C   0  0  0  0  0  0  0  0  0  0  0  0
    0.3720   69.0790   65.2540 F   0  0  0  0  0  0  0  0  0  0  0  0
   -2.3420   68.7200   65.1920 F   0  0  0  0  0  0  0  0  0  0  0  0
    3.8540   62.3490   71.1670 C   0  0  0  0  0  0  0  0  0  0  0  0
    4.5090   62.6900   70.1870 O   0  0  0  0  0  0  0  0  0  0  0  0
    4.3710   61.2190   72.0180 C   0  0  0  0  0  0  0  0  0  0  0  0
    5.2520   61.4410   72.8390 O   0  0  0  0  0  0  0  0  0  0  0  0
    3.7640   59.8840   71.8250 C   0  0  0  0  0  0  0  0  0  0  0  0
    2.9130   59.3710   72.7970 C   0  0  0  0  0  0  0  0  0  0  0  0
    2.3400   58.1220   72.5760 C   0  0  0  0  0  0  0  0  0  0  0  0
    2.6290   57.4380   71.4000 C   0  0  0  0  0  0  0  0  0  0  0  0
    3.4840   58.0320   70.4840 C   0  0  0  0  0  0  0  0  0  0  0  0
    4.0540   59.2440   70.6650 N   0  0  0  0  0  0  0  0  0  0  0  0
   -0.7487   64.8502   72.3748 H   0  0  0  0  0  0  0  0  0  0  0  0
    0.3566   63.4194   74.0878 H   0  0  0  0  0  0  0  0  0  0  0  0
    2.4928   62.2457   73.5602 H   0  0  0  0  0  0  0  0  0  0  0  0
    2.4233   63.9594   69.5868 H   0  0  0  0  0  0  0  0  0  0  0  0
   -0.6360   64.9257   69.3797 H   0  0  0  0  0  0  0  0  0  0  0  0
   -1.9969   66.3902   69.0482 H   0  0  0  0  0  0  0  0  0  0  0  0
   -3.3464   67.3544   67.1784 H   0  0  0  0  0  0  0  0  0  0  0  0
    1.6172   67.9970   67.2751 H   0  0  0  0  0  0  0  0  0  0  0  0
    2.6983   59.9366   73.7157 H   0  0  0  0  0  0  0  0  0  0  0  0
    1.6653   57.6802   73.3240 H   0  0  0  0  0  0  0  0  0  0  0  0
    2.1898   56.4493   71.2012 H   0  0  0  0  0  0  0  0  0  0  0  0
    3.7114   57.4854   69.5569 H   0  0  0  0  0  0  0  0  0  0  0  0
  2  1  2  0
  3  2  1  0
  4  3  2  0
  5  4  1  0
  6  5  2  0
  6  1  1  0
  8  7  2  0
  9  8  1  0
  9  1  1  0
 10  8  1  0
 11 10  2  0
 12 11  1  0
 13 12  2  0
 14 13  1  0
 15 10  1  0
 15 14  2  0
 16 14  1  0
 17 13  1  0
 18  5  1  0
 19 18  2  0
 20 18  1  0
 21 20  2  0
 22 20  1  0
 23 22  2  0
 24 23  1  0
 25 24  2  0
 26 25  1  0
 27 26  2  0
 27 22  1  0
  2 28  1  0
  3 29  1  0
  4 30  1  0
  6 31  1  0
  9 32  1  0
 11 33  1  0
 12 34  1  0
 15 35  1  0
 23 36  1  0
 24 37  1  0
 25 38  1  0
 26 39  1  0
M  END
>  <score>  (3) 
-10.201

$$$$
=
     RDKit          3D

 39 41  0  0  0  0  0  0  0  0999 V2000
    1.8640   69.1000   66.5130 C   0  0  0  0  0  0  0  0  0  0  0  0
    0.7160   68.8840   67.2760 C   0  0  0  0  0  0  0  0  0  0  0  0
   -0.4830   68.5030   66.6640 C   0  0  0  0  0  0  0  0  0  0  0  0
   -0.5480   68.3340   65.2820 C   0  0  0  0  0  0  0  0  0  0  0  0
    0.5940   68.5480   64.5070 C   0  0  0  0  0  0  0  0  0  0  0  0
    1.7960   68.9250   65.1260 C   0  0  0  0  0  0  0  0  0  0  0  0
    2.4970   70.8390   68.8450 O   0  0  0  0  0  0  0  0  0  0  0  0
    3.3390   70.2640   68.1670 C   0  0  0  0  0  0  0  0  0  0  0  0
    3.1130   69.4770   67.0540 N   0  0  0  0  0  0  0  0  0  0  0  0
    4.7720   70.4470   68.5340 C   0  0  0  0  0  0  0  0  0  0  0  0
    5.6920   70.7320   67.5110 C   0  0  0  0  0  0  0  0  0  0  0  0
    7.0440   70.9200   67.8100 C   0  0  0  0  0  0  0  0  0  0  0  0
    7.4700   70.8330   69.1310 C   0  0  0  0  0  0  0  0  0  0  0  0
    6.5580   70.5680   70.1480 C   0  0  0  0  0  0  0  0  0  0  0  0
    5.2080   70.3780   69.8620 C   0  0  0  0  0  0  0  0  0  0  0  0
    6.9710   70.4980   71.4200 F   0  0  0  0  0  0  0  0  0  0  0  0
    8.7650   71.0120   69.4180 F   0  0  0  0  0  0  0  0  0  0  0  0
    0.5860   68.3850   63.0310 C   0  0  0  0  0  0  0  0  0  0  0  0
   -0.4090   67.9990   62.4250 O   0  0  0  0  0  0  0  0  0  0  0  0
    1.8250   68.7140   62.2400 C   0  0  0  0  0  0  0  0  0  0  0  0
    1.7250   69.3830   61.2190 O   0  0  0  0  0  0  0  0  0  0  0  0
    3.1190   68.2180   62.7580 C   0  0  0  0  0  0  0  0  0  0  0  0
    4.0860   69.1260   63.1710 C   0  0  0  0  0  0  0  0  0  0  0  0
    5.2840   68.6280   63.6750 C   0  0  0  0  0  0  0  0  0  0  0  0
    5.4700   67.2520   63.7530 C   0  0  0  0  0  0  0  0  0  0  0  0
    4.4460   66.4220   63.3240 C   0  0  0  0  0  0  0  0  0  0  0  0
    3.2700   66.8710   62.8340 N   0  0  0  0  0  0  0  0  0  0  0  0
    0.7540   69.0143   68.3676 H   0  0  0  0  0  0  0  0  0  0  0  0
   -1.3805   68.3357   67.2776 H   0  0  0  0  0  0  0  0  0  0  0  0
   -1.4926   68.0340   64.8048 H   0  0  0  0  0  0  0  0  0  0  0  0
    2.6956   69.0849   64.5135 H   0  0  0  0  0  0  0  0  0  0  0  0
    3.9485   69.1262   66.5643 H   0  0  0  0  0  0  0  0  0  0  0  0
    5.3462   70.8075   66.4695 H   0  0  0  0  0  0  0  0  0  0  0  0
    7.7650   71.1349   67.0075 H   0  0  0  0  0  0  0  0  0  0  0  0
    4.4917   70.1757   70.6720 H   0  0  0  0  0  0  0  0  0  0  0  0
    3.9096   70.2095   63.1015 H   0  0  0  0  0  0  0  0  0  0  0  0
    6.0754   69.3156   64.0081 H   0  0  0  0  0  0  0  0  0  0  0  0
    6.4077   66.8321   64.1459 H   0  0  0  0  0  0  0  0  0  0  0  0
    4.6000   65.3346   63.3862 H   0  0  0  0  0  0  0  0  0  0  0  0
  2  1  2  0
  3  2  1  0
  4  3  2  0
  5  4  1  0
  6  5  2  0
  6  1  1  0
  8  7  2  0
  9  8  1  0
  9  1  1  0
 10  8  1  0
 11 10  2  0
 12 11  1  0
 13 12  2  0
 14 13  1  0
 15 10  1  0
 15 14  2  0
 16 14  1  0
 17 13  1  0
 18  5  1  0
 19 18  2  0
 20 18  1  0
 21 20  2  0
 22 20  1  0
 23 22  2  0
 24 23  1  0
 25 24  2  0
 26 25  1  0
 27 26  2  0
 27 22  1  0
  2 28  1  0
  3 29  1  0
  4 30  1  0
  6 31  1  0
  9 32  1  0
 11 33  1  0
 12 34  1  0
 15 35  1  0
 23 36  1  0
 24 37  1  0
 25 38  1  0
 26 39  1  0
M  END
>  <score>  (4) 
-9.67

$$$$
=
     RDKit          3D

 39 41  0  0  0  0  0  0  0  0999 V2000
    0.1340   65.0410   72.4420 C   0  0  0  0  0  0  0  0  0  0  0  0
   -0.2130   65.4760   73.7220 C   0  0  0  0  0  0  0  0  0  0  0  0
    0.0440   64.6740   74.8390 C   0  0  0  0  0  0  0  0  0  0  0  0
    0.6500   63.4280   74.6890 C   0  0  0  0  0  0  0  0  0  0  0  0
    1.0000   62.9800   73.4130 C   0  0  0  0  0  0  0  0  0  0  0  0
    0.7460   63.7910   72.2960 C   0  0  0  0  0  0  0  0  0  0  0  0
    1.9530   65.5700   70.1450 O   0  0  0  0  0  0  0  0  0  0  0  0
    0.7990   65.9720   70.2150 C   0  0  0  0  0  0  0  0  0  0  0  0
   -0.0810   65.7930   71.2660 N   0  0  0  0  0  0  0  0  0  0  0  0
    0.2710   66.7770   69.0770 C   0  0  0  0  0  0  0  0  0  0  0  0
    1.0930   67.7750   68.5270 C   0  0  0  0  0  0  0  0  0  0  0  0
    0.6420   68.5480   67.4530 C   0  0  0  0  0  0  0  0  0  0  0  0
   -0.6220   68.3140   66.9270 C   0  0  0  0  0  0  0  0  0  0  0  0
   -1.4320   67.3140   67.4580 C   0  0  0  0  0  0  0  0  0  0  0  0
   -0.9950   66.5380   68.5280 C   0  0  0  0  0  0  0  0  0  0  0  0
   -2.6440   67.0840   66.9380 F   0  0  0  0  0  0  0  0  0  0  0  0
   -1.0550   69.0550   65.8980 F   0  0  0  0  0  0  0  0  0  0  0  0
    1.6460   61.6620   73.1910 C   0  0  0  0  0  0  0  0  0  0  0  0
    1.0490   60.6060   73.3780 O   0  0  0  0  0  0  0  0  0  0  0  0
    3.0710   61.6040   72.7070 C   0  0  0  0  0  0  0  0  0  0  0  0
    3.9450   61.1960   73.4610 O   0  0  0  0  0  0  0  0  0  0  0  0
    3.3390   62.0340   71.3160 C   0  0  0  0  0  0  0  0  0  0  0  0
    4.3540   62.9490   71.0660 C   0  0  0  0  0  0  0  0  0  0  0  0
    4.5970   63.3160   69.7450 C   0  0  0  0  0  0  0  0  0  0  0  0
    3.8280   62.7570   68.7300 C   0  0  0  0  0  0  0  0  0  0  0  0
    2.8420   61.8460   69.0750 C   0  0  0  0  0  0  0  0  0  0  0  0
    2.5820   61.4640   70.3450 N   0  0  0  0  0  0  0  0  0  0  0  0
   -0.6924   66.4573   73.8535 H   0  0  0  0  0  0  0  0  0  0  0  0
   -0.2340   65.0291   75.8423 H   0  0  0  0  0  0  0  0  0  0  0  0
    0.8515   62.8011   75.5701 H   0  0  0  0  0  0  0  0  0  0  0  0
    1.0315   63.4397   71.2935 H   0  0  0  0  0  0  0  0  0  0  0  0
   -0.9952   66.2600   71.1821 H   0  0  0  0  0  0  0  0  0  0  0  0
    2.0962   67.9489   68.9435 H   0  0  0  0  0  0  0  0  0  0  0  0
    1.2827   69.3348   67.0282 H   0  0  0  0  0  0  0  0  0  0  0  0
   -1.6377   65.7451   68.9381 H   0  0  0  0  0  0  0  0  0  0  0  0
    4.9492   63.3718   71.8888 H   0  0  0  0  0  0  0  0  0  0  0  0
    5.3893   64.0408   69.5066 H   0  0  0  0  0  0  0  0  0  0  0  0
    3.9982   63.0313   67.6784 H   0  0  0  0  0  0  0  0  0  0  0  0
    2.2358   61.4085   68.2681 H   0  0  0  0  0  0  0  0  0  0  0  0
  2  1  2  0
  3  2  1  0
  4  3  2  0
  5  4  1  0
  6  5  2  0
  6  1  1  0
  8  7  2  0
  9  8  1  0
  9  1  1  0
 10  8  1  0
 11 10  2  0
 12 11  1  0
 13 12  2  0
 14 13  1  0
 15 10  1  0
 15 14  2  0
 16 14  1  0
 17 13  1  0
 18  5  1  0
 19 18  2  0
 20 18  1  0
 21 20  2  0
 22 20  1  0
 23 22  2  0
 24 23  1  0
 25 24  2  0
 26 25  1  0
 27 26  2  0
 27 22  1  0
  2 28  1  0
  3 29  1  0
  4 30  1  0
  6 31  1  0
  9 32  1  0
 11 33  1  0
 12 34  1  0
 15 35  1  0
 23 36  1  0
 24 37  1  0
 25 38  1  0
 26 39  1  0
M  END
>  <score>  (5) 
-9.438

$$$$
=
     RDKit          3D

 39 41  0  0  0  0  0  0  0  0999 V2000
    2.7420   69.0200   64.5190 C   0  0  0  0  0  0  0  0  0  0  0  0
    3.2120   68.6950   63.2460 C   0  0  0  0  0  0  0  0  0  0  0  0
    2.3180   68.3930   62.2130 C   0  0  0  0  0  0  0  0  0  0  0  0
    0.9430   68.4110   62.4410 C   0  0  0  0  0  0  0  0  0  0  0  0
    0.4590   68.7340   63.7110 C   0  0  0  0  0  0  0  0  0  0  0  0
    1.3600   69.0420   64.7430 C   0  0  0  0  0  0  0  0  0  0  0  0
    5.5690   69.9530   64.5580 O   0  0  0  0  0  0  0  0  0  0  0  0
    4.8770   69.8100   65.5580 C   0  0  0  0  0  0  0  0  0  0  0  0
    3.5760   69.3470   65.6100 N   0  0  0  0  0  0  0  0  0  0  0  0
    5.4910   70.1240   66.8800 C   0  0  0  0  0  0  0  0  0  0  0  0
    6.8840   70.2980   66.9450 C   0  0  0  0  0  0  0  0  0  0  0  0
    7.5010   70.6020   68.1620 C   0  0  0  0  0  0  0  0  0  0  0  0
    6.7230   70.7410   69.3050 C   0  0  0  0  0  0  0  0  0  0  0  0
    5.3420   70.5870   69.2400 C   0  0  0  0  0  0  0  0  0  0  0  0
    4.7150   70.2830   68.0340 C   0  0  0  0  0  0  0  0  0  0  0  0
    4.5960   70.7360   70.3430 F   0  0  0  0  0  0  0  0  0  0  0  0
    7.3140   71.0320   70.4720 F   0  0  0  0  0  0  0  0  0  0  0  0
   -0.9930   68.7680   64.0150 C   0  0  0  0  0  0  0  0  0  0  0  0
   -1.8430   68.7680   63.1300 O   0  0  0  0  0  0  0  0  0  0  0  0
   -1.4530   68.7900   65.4490 C   0  0  0  0  0  0  0  0  0  0  0  0
   -2.6140   69.0850   65.7030 O   0  0  0  0  0  0  0  0  0  0  0  0
   -0.4640   68.4300   66.4890 C   0  0  0  0  0  0  0  0  0  0  0  0
    0.1200   69.4310   67.2560 C   0  0  0  0  0  0  0  0  0  0  0  0
    1.0290   69.0590   68.2420 C   0  0  0  0  0  0  0  0  0  0  0  0
    1.3170   67.7110   68.4300 C   0  0  0  0  0  0  0  0  0  0  0  0
    0.6800   66.7820   67.6220 C   0  0  0  0  0  0  0  0  0  0  0  0
   -0.2100   67.1080   66.6590 N   0  0  0  0  0  0  0  0  0  0  0  0
    4.2948   68.6761   63.0529 H   0  0  0  0  0  0  0  0  0  0  0  0
    2.7028   68.1396   61.2141 H   0  0  0  0  0  0  0  0  0  0  0  0
    0.2436   68.1724   61.6262 H   0  0  0  0  0  0  0  0  0  0  0  0
    0.9754   69.3038   65.7398 H   0  0  0  0  0  0  0  0  0  0  0  0
    3.1698   69.2272   66.5489 H   0  0  0  0  0  0  0  0  0  0  0  0
    7.4917   70.1945   66.0340 H   0  0  0  0  0  0  0  0  0  0  0  0
    8.5923   70.7300   68.2144 H   0  0  0  0  0  0  0  0  0  0  0  0
    3.6218   70.1691   67.9889 H   0  0  0  0  0  0  0  0  0  0  0  0
   -0.1296   70.4891   67.0882 H   0  0  0  0  0  0  0  0  0  0  0  0
    1.5149   69.8232   68.8664 H   0  0  0  0  0  0  0  0  0  0  0  0
    2.0328   67.3901   69.2011 H   0  0  0  0  0  0  0  0  0  0  0  0
    0.9126   65.7176   67.7736 H   0  0  0  0  0  0  0  0  0  0  0  0
  2  1  2  0
  3  2  1  0
  4  3  2  0
  5  4  1  0
  6  5  2  0
  6  1  1  0
  8  7  2  0
  9  8  1  0
  9  1  1  0
 10  8  1  0
 11 10  2  0
 12 11  1  0
 13 12  2  0
 14 13  1  0
 15 10  1  0
 15 14  2  0
 16 14  1  0
 17 13  1  0
 18  5  1  0
 19 18  2  0
 20 18  1  0
 21 20  2  0
 22 20  1  0
 23 22  2  0
 24 23  1  0
 25 24  2  0
 26 25  1  0
 27 26  2  0
 27 22  1  0
  2 28  1  0
  3 29  1  0
  4 30  1  0
  6 31  1  0
  9 32  1  0
 11 33  1  0
 12 34  1  0
 15 35  1  0
 23 36  1  0
 24 37  1  0
 25 38  1  0
 26 39  1  0
M  END
>  <score>  (6) 
-9.29

$$$$
=
     RDKit          3D

 39 41  0  0  0  0  0  0  0  0999 V2000
    1.6150   68.2590   68.3160 C   0  0  0  0  0  0  0  0  0  0  0  0
    1.0700   67.2990   69.1700 C   0  0  0  0  0  0  0  0  0  0  0  0
   -0.1900   66.7490   68.9090 C   0  0  0  0  0  0  0  0  0  0  0  0
   -0.9190   67.1530   67.7920 C   0  0  0  0  0  0  0  0  0  0  0  0
   -0.3860   68.1140   66.9300 C   0  0  0  0  0  0  0  0  0  0  0  0
    0.8810   68.6590   67.1930 C   0  0  0  0  0  0  0  0  0  0  0  0
    2.3570   71.1240   68.6390 O   0  0  0  0  0  0  0  0  0  0  0  0
    3.1560   70.1970   68.6820 C   0  0  0  0  0  0  0  0  0  0  0  0
    2.8820   68.8540   68.5020 N   0  0  0  0  0  0  0  0  0  0  0  0
    4.5920   70.5260   68.9110 C   0  0  0  0  0  0  0  0  0  0  0  0
    5.3020   71.1690   67.8840 C   0  0  0  0  0  0  0  0  0  0  0  0
    6.6480   71.5040   68.0580 C   0  0  0  0  0  0  0  0  0  0  0  0
    7.2750   71.2040   69.2610 C   0  0  0  0  0  0  0  0  0  0  0  0
    6.5700   70.5830   70.2870 C   0  0  0  0  0  0  0  0  0  0  0  0
    5.2280   70.2440   70.1250 C   0  0  0  0  0  0  0  0  0  0  0  0
    7.1750   70.3080   71.4490 F   0  0  0  0  0  0  0  0  0  0  0  0
    8.5650   71.5240   69.4280 F   0  0  0  0  0  0  0  0  0  0  0  0
   -1.1160   68.5850   65.7260 C   0  0  0  0  0  0  0  0  0  0  0  0
   -2.2290   69.0960   65.8000 O   0  0  0  0  0  0  0  0  0  0  0  0
   -0.4770   68.4510   64.3690 C   0  0  0  0  0  0  0  0  0  0  0  0
   -1.1320   68.7120   63.3690 O   0  0  0  0  0  0  0  0  0  0  0  0
    0.9380   68.0190   64.3190 C   0  0  0  0  0  0  0  0  0  0  0  0
    1.9230   68.9390   63.9800 C   0  0  0  0  0  0  0  0  0  0  0  0
    3.2470   68.5090   63.9640 C   0  0  0  0  0  0  0  0  0  0  0  0
    3.5380   67.1880   64.2890 C   0  0  0  0  0  0  0  0  0  0  0  0
    2.4900   66.3440   64.6230 C   0  0  0  0  0  0  0  0  0  0  0  0
    1.1950   66.7300   64.6530 N   0  0  0  0  0  0  0  0  0  0  0  0
    1.6353   66.9722   70.0552 H   0  0  0  0  0  0  0  0  0  0  0  0
   -0.6078   65.9928   69.5899 H   0  0  0  0  0  0  0  0  0  0  0  0
   -1.9087   66.7174   67.5904 H   0  0  0  0  0  0  0  0  0  0  0  0
    1.3021   69.4097   66.5081 H   0  0  0  0  0  0  0  0  0  0  0  0
    3.6914   68.2170   68.5038 H   0  0  0  0  0  0  0  0  0  0  0  0
    4.7962   71.4104   66.9375 H   0  0  0  0  0  0  0  0  0  0  0  0
    7.2055   72.0005   67.2501 H   0  0  0  0  0  0  0  0  0  0  0  0
    4.6745   69.7598   70.9430 H   0  0  0  0  0  0  0  0  0  0  0  0
    1.6635   69.9786   63.7311 H   0  0  0  0  0  0  0  0  0  0  0  0
    4.0546   69.2065   63.6972 H   0  0  0  0  0  0  0  0  0  0  0  0
    4.5752   66.8217   64.2812 H   0  0  0  0  0  0  0  0  0  0  0  0
    2.7260   65.3004   64.8782 H   0  0  0  0  0  0  0  0  0  0  0  0
  2  1  2  0
  3  2  1  0
  4  3  2  0
  5  4  1  0
  6  5  2  0
  6  1  1  0
  8  7  2  0
  9  8  1  0
  9  1  1  0
 10  8  1  0
 11 10  2  0
 12 11  1  0
 13 12  2  0
 14 13  1  0
 15 10  1  0
 15 14  2  0
 16 14  1  0
 17 13  1  0
 18  5  1  0
 19 18  2  0
 20 18  1  0
 21 20  2  0
 22 20  1  0
 23 22  2  0
 24 23  1  0
 25 24  2  0
 26 25  1  0
 27 26  2  0
 27 22  1  0
  2 28  1  0
  3 29  1  0
  4 30  1  0
  6 31  1  0
  9 32  1  0
 11 33  1  0
 12 34  1  0
 15 35  1  0
 23 36  1  0
 24 37  1  0
 25 38  1  0
 26 39  1  0
M  END
>  <score>  (7) 
-9.278

$$$$
=
     RDKit          3D

 39 41  0  0  0  0  0  0  0  0999 V2000
    3.8510   63.8700   65.9440 C   0  0  0  0  0  0  0  0  0  0  0  0
    4.5460   63.7090   64.7440 C   0  0  0  0  0  0  0  0  0  0  0  0
    4.3690   64.6150   63.6930 C   0  0  0  0  0  0  0  0  0  0  0  0
    3.4950   65.6920   63.8290 C   0  0  0  0  0  0  0  0  0  0  0  0
    2.7930   65.8640   65.0240 C   0  0  0  0  0  0  0  0  0  0  0  0
    2.9770   64.9560   66.0780 C   0  0  0  0  0  0  0  0  0  0  0  0
    2.9850   64.2390   68.7690 O   0  0  0  0  0  0  0  0  0  0  0  0
    3.5230   63.2260   68.3410 C   0  0  0  0  0  0  0  0  0  0  0  0
    3.9810   63.0070   67.0550 N   0  0  0  0  0  0  0  0  0  0  0  0
    3.7580   62.1050   69.2960 C   0  0  0  0  0  0  0  0  0  0  0  0
    3.1360   60.8710   69.0430 C   0  0  0  0  0  0  0  0  0  0  0  0
    3.3350   59.7900   69.9070 C   0  0  0  0  0  0  0  0  0  0  0  0
    4.1640   59.9440   71.0120 C   0  0  0  0  0  0  0  0  0  0  0  0
    4.7950   61.1600   71.2550 C   0  0  0  0  0  0  0  0  0  0  0  0
    4.6040   62.2450   70.4020 C   0  0  0  0  0  0  0  0  0  0  0  0
    5.6030   61.2990   72.3140 F   0  0  0  0  0  0  0  0  0  0  0  0
    4.3550   58.9100   71.8410 F   0  0  0  0  0  0  0  0  0  0  0  0
    1.8470   66.9900   65.2270 C   0  0  0  0  0  0  0  0  0  0  0  0
    0.7170   66.8180   65.6730 O   0  0  0  0  0  0  0  0  0  0  0  0
    2.2800   68.3940   64.8930 C   0  0  0  0  0  0  0  0  0  0  0  0
    1.7720   68.9670   63.9360 O   0  0  0  0  0  0  0  0  0  0  0  0
    3.2980   69.0210   65.7630 C   0  0  0  0  0  0  0  0  0  0  0  0
    4.5720   69.2620   65.2630 C   0  0  0  0  0  0  0  0  0  0  0  0
    5.5020   69.8750   66.0990 C   0  0  0  0  0  0  0  0  0  0  0  0
    5.1280   70.2250   67.3920 C   0  0  0  0  0  0  0  0  0  0  0  0
    3.8330   69.9520   67.8020 C   0  0  0  0  0  0  0  0  0  0  0  0
    2.9040   69.3640   67.0150 N   0  0  0  0  0  0  0  0  0  0  0  0
    5.2385   62.8628   64.6240 H   0  0  0  0  0  0  0  0  0  0  0  0
    4.9233   64.4765   62.7530 H   0  0  0  0  0  0  0  0  0  0  0  0
    3.3589   66.4023   63.0001 H   0  0  0  0  0  0  0  0  0  0  0  0
    2.4283   65.0990   67.0206 H   0  0  0  0  0  0  0  0  0  0  0  0
    4.4710   62.1165   66.8886 H   0  0  0  0  0  0  0  0  0  0  0  0
    2.4893   60.7547   68.1608 H   0  0  0  0  0  0  0  0  0  0  0  0
    2.8402   58.8267   69.7141 H   0  0  0  0  0  0  0  0  0  0  0  0
    5.1125   63.2010   70.5957 H   0  0  0  0  0  0  0  0  0  0  0  0
    4.8387   68.9763   64.2348 H   0  0  0  0  0  0  0  0  0  0  0  0
    6.5215   70.0802   65.7405 H   0  0  0  0  0  0  0  0  0  0  0  0
    5.8440   70.7075   68.0736 H   0  0  0  0  0  0  0  0  0  0  0  0
    3.5441   70.2295   68.8265 H   0  0  0  0  0  0  0  0  0  0  0  0
  2  1  2  0
  3  2  1  0
  4  3  2  0
  5  4  1  0
  6  5  2  0
  6  1  1  0
  8  7  2  0
  9  8  1  0
  9  1  1  0
 10  8  1  0
 11 10  2  0
 12 11  1  0
 13 12  2  0
 14 13  1  0
 15 10  1  0
 15 14  2  0
 16 14  1  0
 17 13  1  0
 18  5  1  0
 19 18  2  0
 20 18  1  0
 21 20  2  0
 22 20  1  0
 23 22  2  0
 24 23  1  0
 25 24  2  0
 26 25  1  0
 27 26  2  0
 27 22  1  0
  2 28  1  0
  3 29  1  0
  4 30  1  0
  6 31  1  0
  9 32  1  0
 11 33  1  0
 12 34  1  0
 15 35  1  0
 23 36  1  0
 24 37  1  0
 25 38  1  0
 26 39  1  0
M  END
>  <score>  (8) 
-9.263

$$$$
=
     RDKit          3D

 39 41  0  0  0  0  0  0  0  0999 V2000
    4.7160   69.3190   64.1010 C   0  0  0  0  0  0  0  0  0  0  0  0
    5.3140   69.3750   62.8410 C   0  0  0  0  0  0  0  0  0  0  0  0
    4.6090   68.9730   61.7020 C   0  0  0  0  0  0  0  0  0  0  0  0
    3.2980   68.5100   61.8090 C   0  0  0  0  0  0  0  0  0  0  0  0
    2.6890   68.4480   63.0640 C   0  0  0  0  0  0  0  0  0  0  0  0
    3.3980   68.8580   64.2040 C   0  0  0  0  0  0  0  0  0  0  0  0
    3.5820   69.7890   66.8140 O   0  0  0  0  0  0  0  0  0  0  0  0
    4.7720   69.8820   66.5400 C   0  0  0  0  0  0  0  0  0  0  0  0
    5.3540   69.7150   65.2970 N   0  0  0  0  0  0  0  0  0  0  0  0
    5.7120   70.2550   67.6350 C   0  0  0  0  0  0  0  0  0  0  0  0
    6.9950   70.7110   67.2880 C   0  0  0  0  0  0  0  0  0  0  0  0
    7.9060   71.0790   68.2820 C   0  0  0  0  0  0  0  0  0  0  0  0
    7.5280   71.0010   69.6160 C   0  0  0  0  0  0  0  0  0  0  0  0
    6.2520   70.5670   69.9630 C   0  0  0  0  0  0  0  0  0  0  0  0
    5.3360   70.1960   68.9820 C   0  0  0  0  0  0  0  0  0  0  0  0
    5.8890   70.5060   71.2500 F   0  0  0  0  0  0  0  0  0  0  0  0
    8.4010   71.3540   70.5690 F   0  0  0  0  0  0  0  0  0  0  0  0
    1.2970   67.9630   63.2410 C   0  0  0  0  0  0  0  0  0  0  0  0
    0.4460   68.0970   62.3670 O   0  0  0  0  0  0  0  0  0  0  0  0
    0.9080   67.2710   64.5200 C   0  0  0  0  0  0  0  0  0  0  0  0
    1.2160   66.0970   64.6850 O   0  0  0  0  0  0  0  0  0  0  0  0
    0.1780   68.0650   65.5330 C   0  0  0  0  0  0  0  0  0  0  0  0
    0.8070   68.3980   66.7270 C   0  0  0  0  0  0  0  0  0  0  0  0
    0.1030   69.1660   67.6500 C   0  0  0  0  0  0  0  0  0  0  0  0
   -1.1920   69.5740   67.3490 C   0  0  0  0  0  0  0  0  0  0  0  0
   -1.7350   69.2010   66.1300 C   0  0  0  0  0  0  0  0  0  0  0  0
   -1.0780   68.4600   65.2090 N   0  0  0  0  0  0  0  0  0  0  0  0
    6.3477   69.7381   62.7431 H   0  0  0  0  0  0  0  0  0  0  0  0
    5.0920   69.0224   60.7149 H   0  0  0  0  0  0  0  0  0  0  0  0
    2.7470   68.1956   60.9103 H   0  0  0  0  0  0  0  0  0  0  0  0
    2.9123   68.8166   65.1901 H   0  0  0  0  0  0  0  0  0  0  0  0
    6.3654   69.9000   65.2366 H   0  0  0  0  0  0  0  0  0  0  0  0
    7.2838   70.7787   66.2288 H   0  0  0  0  0  0  0  0  0  0  0  0
    8.9134   71.4273   68.0101 H   0  0  0  0  0  0  0  0  0  0  0  0
    4.3270   69.8599   69.2628 H   0  0  0  0  0  0  0  0  0  0  0  0
    1.8337   68.0635   66.9368 H   0  0  0  0  0  0  0  0  0  0  0  0
    0.5660   69.4472   68.6074 H   0  0  0  0  0  0  0  0  0  0  0  0
   -1.7717   70.1787   68.0620 H   0  0  0  0  0  0  0  0  0  0  0  0
   -2.7598   69.5264   65.8979 H   0  0  0  0  0  0  0  0  0  0  0  0
  2  1  2  0
  3  2  1  0
  4  3  2  0
  5  4  1  0
  6  5  2  0
  6  1  1  0
  8  7  2  0
  9  8  1  0
  9  1  1  0
 10  8  1  0
 11 10  2  0
 12 11  1  0
 13 12  2  0
 14 13  1  0
 15 10  1  0
 15 14  2  0
 16 14  1  0
 17 13  1  0
 18  5  1  0
 19 18  2  0
 20 18  1  0
 21 20  2  0
 22 20  1  0
 23 22  2  0
 24 23  1  0
 25 24  2  0
 26 25  1  0
 27 26  2  0
 27 22  1  0
  2 28  1  0
  3 29  1  0
  4 30  1  0
  6 31  1  0
  9 32  1  0
 11 33  1  0
 12 34  1  0
 15 35  1  0
 23 36  1  0
 24 37  1  0
 25 38  1  0
 26 39  1  0
M  END
>  <score>  (9) 
-9.146

$$$$
