=
     RDKit          3D

 40 43  0  0  0  0  0  0  0  0999 V2000
    4.2030   70.7440   68.7320 Cl  0  0  0  0  0  0  0  0  0  0  0  0
    3.0230   69.5940   68.2480 C   0  0  0  0  0  0  0  0  0  0  0  0
    2.4520   68.7360   69.1820 C   0  0  0  0  0  0  0  0  0  0  0  0
    1.4850   67.8200   68.7720 C   0  0  0  0  0  0  0  0  0  0  0  0
    1.1150   67.7660   67.4260 C   0  0  0  0  0  0  0  0  0  0  0  0
    1.7320   68.5610   66.4620 C   0  0  0  0  0  0  0  0  0  0  0  0
    2.6590   69.5220   66.9010 C   0  0  0  0  0  0  0  0  0  0  0  0
    1.3850   68.4310   65.0250 C   0  0  0  0  0  0  0  0  0  0  0  0
    0.1160   68.5410   64.6300 N   0  0  0  0  0  4  0  0  0  0  0  0
   -0.9830   68.4080   65.4500 C   0  0  0  0  0  0  0  0  0  0  0  0
   -1.0130   67.6230   66.6170 C   0  0  0  0  0  0  0  0  0  0  0  0
    0.0930   66.9300   67.0670 O   0  0  0  0  0  0  0  0  0  0  0  0
   -2.1940   67.4340   67.3380 C   0  0  0  0  0  0  0  0  0  0  0  0
   -3.3690   68.0460   66.9100 C   0  0  0  0  0  0  0  0  0  0  0  0
   -3.3660   68.8220   65.7540 C   0  0  0  0  0  0  0  0  0  0  0  0
   -2.1850   68.9890   65.0220 C   0  0  0  0  0  0  0  0  0  0  0  0
    2.3860   68.3050   64.1120 N   0  0  0  0  0  0  0  0  0  0  0  0
    2.1330   68.4330   62.6360 C   0  0  0  0  0  0  0  0  0  0  0  0
    3.4390   68.3870   61.8040 C   0  0  0  0  0  0  0  0  0  0  0  0
    4.5420   69.1540   62.4910 N   0  0  0  0  0  4  0  0  0  0  0  0
    4.8660   68.6820   63.8940 C   0  0  0  0  0  0  0  0  0  0  0  0
    3.7550   67.7840   64.4820 C   0  0  0  0  0  0  0  0  0  0  0  0
    2.7614   68.7801   70.2367 H   0  0  0  0  0  0  0  0  0  0  0  0
    1.0165   67.1445   69.5029 H   0  0  0  0  0  0  0  0  0  0  0  0
    3.1015   70.2232   66.1781 H   0  0  0  0  0  0  0  0  0  0  0  0
   -0.0558   68.7410   63.6343 H   0  0  0  0  0  0  0  0  0  0  0  0
   -2.1959   66.8044   68.2400 H   0  0  0  0  0  0  0  0  0  0  0  0
   -4.2983   67.9167   67.4842 H   0  0  0  0  0  0  0  0  0  0  0  0
   -4.2943   69.3051   65.4152 H   0  0  0  0  0  0  0  0  0  0  0  0
   -2.2000   69.5848   64.0974 H   0  0  0  0  0  0  0  0  0  0  0  0
    1.4820   67.6058   62.3167 H   0  0  0  0  0  0  0  0  0  0  0  0
    1.6599   69.4106   62.4616 H   0  0  0  0  0  0  0  0  0  0  0  0
    3.7512   67.3394   61.6812 H   0  0  0  0  0  0  0  0  0  0  0  0
    3.2479   68.8482   60.8238 H   0  0  0  0  0  0  0  0  0  0  0  0
    5.3948   69.0696   61.9196 H   0  0  0  0  0  0  0  0  0  0  0  0
    4.2076   70.1240   62.5815 H   0  0  0  0  0  0  0  0  0  0  0  0
    5.8054   68.1104   63.8667 H   0  0  0  0  0  0  0  0  0  0  0  0
    4.9549   69.5709   64.5358 H   0  0  0  0  0  0  0  0  0  0  0  0
    3.8705   66.7637   64.0874 H   0  0  0  0  0  0  0  0  0  0  0  0
    3.8463   67.7855   65.5782 H   0  0  0  0  0  0  0  0  0  0  0  0
  2  1  1  0
  3  2  2  0
  4  3  1  0
  5  4  2  0
  6  5  1  0
  7  6  2  0
  7  2  1  0
  8  6  1  0
  9  8  2  0
 10  9  1  0
 11 10  2  0
 12 11  1  0
 12  5  1  0
 13 11  1  0
 14 13  2  0
 15 14  1  0
 16 15  2  0
 16 10  1  0
 17  8  1  0
 18 17  1  0
 19 18  1  0
 20 19  1  0
 21 20  1  0
 22 21  1  0
 22 17  1  0
  3 23  1  0
  4 24  1  0
  7 25  1  0
  9 26  1  0
 13 27  1  0
 14 28  1  0
 15 29  1  0
 16 30  1  0
 18 31  1  0
 18 32  1  0
 19 33  1  0
 19 34  1  0
 20 35  1  0
 20 36  1  0
 21 37  1  0
 21 38  1  0
 22 39  1  0
 22 40  1  0
M  CHG  2   9   1  20   1
M  END
>  <score>  (1) 
-9.572

$$$$
=
     RDKit          3D

 40 43  0  0  0  0  0  0  0  0999 V2000
    4.7050   70.7970   68.4080 Cl  0  0  0  0  0  0  0  0  0  0  0  0
    4.3690   69.8870   66.9910 C   0  0  0  0  0  0  0  0  0  0  0  0
    5.1730   70.0180   65.8630 C   0  0  0  0  0  0  0  0  0  0  0  0
    4.8910   69.2590   64.7280 C   0  0  0  0  0  0  0  0  0  0  0  0
    3.7970   68.3920   64.7330 C   0  0  0  0  0  0  0  0  0  0  0  0
    2.9320   68.3070   65.8230 C   0  0  0  0  0  0  0  0  0  0  0  0
    3.2650   69.0290   66.9820 C   0  0  0  0  0  0  0  0  0  0  0  0
    1.7270   67.4420   65.7800 C   0  0  0  0  0  0  0  0  0  0  0  0
    1.8420   66.1470   65.4810 N   0  0  0  0  0  4  0  0  0  0  0  0
    2.9230   65.5730   64.8490 C   0  0  0  0  0  0  0  0  0  0  0  0
    3.7690   66.2500   63.9510 C   0  0  0  0  0  0  0  0  0  0  0  0
    3.6020   67.5850   63.6450 O   0  0  0  0  0  0  0  0  0  0  0  0
    4.7750   65.5790   63.2520 C   0  0  0  0  0  0  0  0  0  0  0  0
    4.9650   64.2140   63.4540 C   0  0  0  0  0  0  0  0  0  0  0  0
    4.1360   63.5220   64.3330 C   0  0  0  0  0  0  0  0  0  0  0  0
    3.1140   64.1940   65.0130 C   0  0  0  0  0  0  0  0  0  0  0  0
    0.5260   67.9620   66.1510 N   0  0  0  0  0  0  0  0  0  0  0  0
   -0.6770   67.0920   66.3850 C   0  0  0  0  0  0  0  0  0  0  0  0
   -1.8890   67.8900   66.9280 C   0  0  0  0  0  0  0  0  0  0  0  0
   -1.4470   68.9210   67.9350 N   0  0  0  0  0  4  0  0  0  0  0  0
   -0.4270   69.9170   67.4200 C   0  0  0  0  0  0  0  0  0  0  0  0
    0.2420   69.4460   66.1100 C   0  0  0  0  0  0  0  0  0  0  0  0
    6.0242   70.7147   65.8667 H   0  0  0  0  0  0  0  0  0  0  0  0
    5.5266   69.3429   63.8342 H   0  0  0  0  0  0  0  0  0  0  0  0
    2.6524   68.9182   67.8889 H   0  0  0  0  0  0  0  0  0  0  0  0
    1.0616   65.5280   65.7432 H   0  0  0  0  0  0  0  0  0  0  0  0
    5.4150   66.1266   62.5445 H   0  0  0  0  0  0  0  0  0  0  0  0
    5.7679   63.6841   62.9205 H   0  0  0  0  0  0  0  0  0  0  0  0
    4.2848   62.4440   64.4934 H   0  0  0  0  0  0  0  0  0  0  0  0
    2.4505   63.6316   65.6864 H   0  0  0  0  0  0  0  0  0  0  0  0
   -0.9625   66.6211   65.4328 H   0  0  0  0  0  0  0  0  0  0  0  0
   -0.4048   66.3412   67.1415 H   0  0  0  0  0  0  0  0  0  0  0  0
   -2.3909   68.3967   66.0905 H   0  0  0  0  0  0  0  0  0  0  0  0
   -2.5782   67.1893   67.4220 H   0  0  0  0  0  0  0  0  0  0  0  0
   -2.2786   69.4446   68.2434 H   0  0  0  0  0  0  0  0  0  0  0  0
   -0.9869   68.4029   68.6971 H   0  0  0  0  0  0  0  0  0  0  0  0
   -0.9319   70.8765   67.2343 H   0  0  0  0  0  0  0  0  0  0  0  0
    0.3596   70.0180   68.1823 H   0  0  0  0  0  0  0  0  0  0  0  0
   -0.4295   69.6607   65.2656 H   0  0  0  0  0  0  0  0  0  0  0  0
    1.1949   69.9824   65.9901 H   0  0  0  0  0  0  0  0  0  0  0  0
  2  1  1  0
  3  2  2  0
  4  3  1  0
  5  4  2  0
  6  5  1  0
  7  6  2  0
  7  2  1  0
  8  6  1  0
  9  8  2  0
 10  9  1  0
 11 10  2  0
 12 11  1  0
 12  5  1  0
 13 11  1  0
 14 13  2  0
 15 14  1  0
 16 15  2  0
 16 10  1  0
 17  8  1  0
 18 17  1  0
 19 18  1  0
 20 19  1  0
 21 20  1  0
 22 21  1  0
 22 17  1  0
  3 23  1  0
  4 24  1  0
  7 25  1  0
  9 26  1  0
 13 27  1  0
 14 28  1  0
 15 29  1  0
 16 30  1  0
 18 31  1  0
 18 32  1  0
 19 33  1  0
 19 34  1  0
 20 35  1  0
 20 36  1  0
 21 37  1  0
 21 38  1  0
 22 39  1  0
 22 40  1  0
M  CHG  2   9   1  20   1
M  END
>  <score>  (2) 
-9.219

$$$$
=
     RDKit          3D

 40 43  0  0  0  0  0  0  0  0999 V2000
    4.9450   66.8180   62.6180 Cl  0  0  0  0  0  0  0  0  0  0  0  0
    3.6400   67.5720   63.4390 C   0  0  0  0  0  0  0  0  0  0  0  0
    2.4530   67.8500   62.7690 C   0  0  0  0  0  0  0  0  0  0  0  0
    1.3990   68.4480   63.4580 C   0  0  0  0  0  0  0  0  0  0  0  0
    1.5560   68.7760   64.8060 C   0  0  0  0  0  0  0  0  0  0  0  0
    2.7630   68.5800   65.4740 C   0  0  0  0  0  0  0  0  0  0  0  0
    3.7940   67.9190   64.7840 C   0  0  0  0  0  0  0  0  0  0  0  0
    2.9390   69.0110   66.8840 C   0  0  0  0  0  0  0  0  0  0  0  0
    2.0900   68.5910   67.8220 N   0  0  0  0  0  4  0  0  0  0  0  0
    0.8350   68.0750   67.5830 C   0  0  0  0  0  0  0  0  0  0  0  0
    0.0400   68.4060   66.4690 C   0  0  0  0  0  0  0  0  0  0  0  0
    0.4740   69.2690   65.4850 O   0  0  0  0  0  0  0  0  0  0  0  0
   -1.2710   67.9410   66.3480 C   0  0  0  0  0  0  0  0  0  0  0  0
   -1.8070   67.1180   67.3350 C   0  0  0  0  0  0  0  0  0  0  0  0
   -1.0420   66.7830   68.4490 C   0  0  0  0  0  0  0  0  0  0  0  0
    0.2630   67.2700   68.5780 C   0  0  0  0  0  0  0  0  0  0  0  0
    4.0310   69.7500   67.2180 N   0  0  0  0  0  0  0  0  0  0  0  0
    4.4120   69.9970   68.6510 C   0  0  0  0  0  0  0  0  0  0  0  0
    5.7610   70.7470   68.7850 C   0  0  0  0  0  0  0  0  0  0  0  0
    6.7590   70.2440   67.7720 N   0  0  0  0  0  4  0  0  0  0  0  0
    6.3090   70.3490   66.3290 C   0  0  0  0  0  0  0  0  0  0  0  0
    4.7870   70.5770   66.2050 C   0  0  0  0  0  0  0  0  0  0  0  0
    2.3469   67.5997   61.7031 H   0  0  0  0  0  0  0  0  0  0  0  0
    0.4503   68.6600   62.9433 H   0  0  0  0  0  0  0  0  0  0  0  0
    4.7298   67.6728   65.3071 H   0  0  0  0  0  0  0  0  0  0  0  0
    2.3965   68.6575   68.8031 H   0  0  0  0  0  0  0  0  0  0  0  0
   -1.8785   68.2239   65.4757 H   0  0  0  0  0  0  0  0  0  0  0  0
   -2.8327   66.7333   67.2348 H   0  0  0  0  0  0  0  0  0  0  0  0
   -1.4649   66.1337   69.2297 H   0  0  0  0  0  0  0  0  0  0  0  0
    0.8493   67.0175   69.4738 H   0  0  0  0  0  0  0  0  0  0  0  0
    3.6244   70.5998   69.1266 H   0  0  0  0  0  0  0  0  0  0  0  0
    4.5234   69.0184   69.1409 H   0  0  0  0  0  0  0  0  0  0  0  0
    5.5932   71.8219   68.6224 H   0  0  0  0  0  0  0  0  0  0  0  0
    6.1634   70.5694   69.7932 H   0  0  0  0  0  0  0  0  0  0  0  0
    7.6257   70.7904   67.8777 H   0  0  0  0  0  0  0  0  0  0  0  0
    6.8851   69.2399   67.9637 H   0  0  0  0  0  0  0  0  0  0  0  0
    6.8328   71.1925   65.8556 H   0  0  0  0  0  0  0  0  0  0  0  0
    6.5484   69.3974   65.8318 H   0  0  0  0  0  0  0  0  0  0  0  0
    4.5679   71.6416   66.3743 H   0  0  0  0  0  0  0  0  0  0  0  0
    4.4683   70.2733   65.1969 H   0  0  0  0  0  0  0  0  0  0  0  0
  2  1  1  0
  3  2  2  0
  4  3  1  0
  5  4  2  0
  6  5  1  0
  7  6  2  0
  7  2  1  0
  8  6  1  0
  9  8  2  0
 10  9  1  0
 11 10  2  0
 12 11  1  0
 12  5  1  0
 13 11  1  0
 14 13  2  0
 15 14  1  0
 16 15  2  0
 16 10  1  0
 17  8  1  0
 18 17  1  0
 19 18  1  0
 20 19  1  0
 21 20  1  0
 22 21  1  0
 22 17  1  0
  3 23  1  0
  4 24  1  0
  7 25  1  0
  9 26  1  0
 13 27  1  0
 14 28  1  0
 15 29  1  0
 16 30  1  0
 18 31  1  0
 18 32  1  0
 19 33  1  0
 19 34  1  0
 20 35  1  0
 20 36  1  0
 21 37  1  0
 21 38  1  0
 22 39  1  0
 22 40  1  0
M  CHG  2   9   1  20   1
M  END
>  <score>  (3) 
-8.106

$$$$
=
     RDKit          3D

 40 43  0  0  0  0  0  0  0  0999 V2000
   -0.3530   69.8330   62.3440 Cl  0  0  0  0  0  0  0  0  0  0  0  0
    1.0410   69.3330   63.2130 C   0  0  0  0  0  0  0  0  0  0  0  0
    2.2300   69.0680   62.5420 C   0  0  0  0  0  0  0  0  0  0  0  0
    3.3550   68.6770   63.2670 C   0  0  0  0  0  0  0  0  0  0  0  0
    3.2670   68.5410   64.6540 C   0  0  0  0  0  0  0  0  0  0  0  0
    2.0650   68.7230   65.3350 C   0  0  0  0  0  0  0  0  0  0  0  0
    0.9570   69.1770   64.6000 C   0  0  0  0  0  0  0  0  0  0  0  0
    1.9700   68.4930   66.7990 C   0  0  0  0  0  0  0  0  0  0  0  0
    2.7990   69.1240   67.6310 N   0  0  0  0  0  4  0  0  0  0  0  0
    3.9910   69.7110   67.2670 C   0  0  0  0  0  0  0  0  0  0  0  0
    4.7840   69.2920   66.1820 C   0  0  0  0  0  0  0  0  0  0  0  0
    4.4090   68.2550   65.3530 O   0  0  0  0  0  0  0  0  0  0  0  0
    6.0410   69.8510   65.9400 C   0  0  0  0  0  0  0  0  0  0  0  0
    6.5220   70.8580   66.7740 C   0  0  0  0  0  0  0  0  0  0  0  0
    5.7580   71.2840   67.8580 C   0  0  0  0  0  0  0  0  0  0  0  0
    4.5100   70.7040   68.1100 C   0  0  0  0  0  0  0  0  0  0  0  0
    0.9640   67.7160   67.2820 N   0  0  0  0  0  0  0  0  0  0  0  0
    0.6470   67.6510   68.7500 C   0  0  0  0  0  0  0  0  0  0  0  0
   -0.6200   66.8100   69.0470 C   0  0  0  0  0  0  0  0  0  0  0  0
   -1.6880   67.0630   68.0140 N   0  0  0  0  0  4  0  0  0  0  0  0
   -1.2700   66.7860   66.5840 C   0  0  0  0  0  0  0  0  0  0  0  0
    0.2630   66.6810   66.4320 C   0  0  0  0  0  0  0  0  0  0  0  0
    2.2825   69.1661   61.4476 H   0  0  0  0  0  0  0  0  0  0  0  0
    4.3051   68.4771   62.7500 H   0  0  0  0  0  0  0  0  0  0  0  0
    0.0163   69.4115   65.1196 H   0  0  0  0  0  0  0  0  0  0  0  0
    2.5271   69.1767   68.6231 H   0  0  0  0  0  0  0  0  0  0  0  0
    6.6488   69.4975   65.0941 H   0  0  0  0  0  0  0  0  0  0  0  0
    7.5027   71.3156   66.5769 H   0  0  0  0  0  0  0  0  0  0  0  0
    6.1369   72.0785   68.5177 H   0  0  0  0  0  0  0  0  0  0  0  0
    3.9268   71.0321   68.9831 H   0  0  0  0  0  0  0  0  0  0  0  0
    1.5013   67.1995   69.2757 H   0  0  0  0  0  0  0  0  0  0  0  0
    0.4555   68.6774   69.0962 H   0  0  0  0  0  0  0  0  0  0  0  0
   -0.3544   65.7426   69.0364 H   0  0  0  0  0  0  0  0  0  0  0  0
   -1.0103   67.0991   70.0340 H   0  0  0  0  0  0  0  0  0  0  0  0
   -2.4948   66.4616   68.2338 H   0  0  0  0  0  0  0  0  0  0  0  0
   -1.9045   68.0688   68.0623 H   0  0  0  0  0  0  0  0  0  0  0  0
   -1.7235   65.8376   66.2602 H   0  0  0  0  0  0  0  0  0  0  0  0
   -1.6130   67.6273   65.9639 H   0  0  0  0  0  0  0  0  0  0  0  0
    0.5877   65.6780   66.7459 H   0  0  0  0  0  0  0  0  0  0  0  0
    0.5236   66.8583   65.3781 H   0  0  0  0  0  0  0  0  0  0  0  0
  2  1  1  0
  3  2  2  0
  4  3  1  0
  5  4  2  0
  6  5  1  0
  7  6  2  0
  7  2  1  0
  8  6  1  0
  9  8  2  0
 10  9  1  0
 11 10  2  0
 12 11  1  0
 12  5  1  0
 13 11  1  0
 14 13  2  0
 15 14  1  0
 16 15  2  0
 16 10  1  0
 17  8  1  0
 18 17  1  0
 19 18  1  0
 20 19  1  0
 21 20  1  0
 22 21  1  0
 22 17  1  0
  3 23  1  0
  4 24  1  0
  7 25  1  0
  9 26  1  0
 13 27  1  0
 14 28  1  0
 15 29  1  0
 16 30  1  0
 18 31  1  0
 18 32  1  0
 19 33  1  0
 19 34  1  0
 20 35  1  0
 20 36  1  0
 21 37  1  0
 21 38  1  0
 22 39  1  0
 22 40  1  0
M  CHG  2   9   1  20   1
M  END
>  <score>  (4) 
-8.091

$$$$
=
     RDKit          3D

 40 43  0  0  0  0  0  0  0  0999 V2000
    2.6640   56.8740   71.0640 Cl  0  0  0  0  0  0  0  0  0  0  0  0
    3.0320   58.5360   71.2880 C   0  0  0  0  0  0  0  0  0  0  0  0
    3.9250   59.1800   70.4380 C   0  0  0  0  0  0  0  0  0  0  0  0
    4.1990   60.5340   70.6280 C   0  0  0  0  0  0  0  0  0  0  0  0
    3.5860   61.2200   71.6780 C   0  0  0  0  0  0  0  0  0  0  0  0
    2.7510   60.5750   72.5880 C   0  0  0  0  0  0  0  0  0  0  0  0
    2.4350   59.2270   72.3470 C   0  0  0  0  0  0  0  0  0  0  0  0
    2.1730   61.3010   73.7470 C   0  0  0  0  0  0  0  0  0  0  0  0
    1.4760   62.4210   73.5550 N   0  0  0  0  0  4  0  0  0  0  0  0
    1.5210   63.1980   72.4180 C   0  0  0  0  0  0  0  0  0  0  0  0
    2.6360   63.2900   71.5640 C   0  0  0  0  0  0  0  0  0  0  0  0
    3.7920   62.5690   71.7810 O   0  0  0  0  0  0  0  0  0  0  0  0
    2.6610   64.1890   70.4940 C   0  0  0  0  0  0  0  0  0  0  0  0
    1.5580   65.0010   70.2490 C   0  0  0  0  0  0  0  0  0  0  0  0
    0.4460   64.9320   71.0840 C   0  0  0  0  0  0  0  0  0  0  0  0
    0.4350   64.0480   72.1680 C   0  0  0  0  0  0  0  0  0  0  0  0
    2.2750   60.7540   74.9880 N   0  0  0  0  0  0  0  0  0  0  0  0
    1.4970   61.2890   76.1570 C   0  0  0  0  0  0  0  0  0  0  0  0
    1.6720   60.4250   77.4310 C   0  0  0  0  0  0  0  0  0  0  0  0
    1.6810   58.9570   77.0890 N   0  0  0  0  0  4  0  0  0  0  0  0
    2.7470   58.5420   76.0950 C   0  0  0  0  0  0  0  0  0  0  0  0
    3.3470   59.7490   75.3410 C   0  0  0  0  0  0  0  0  0  0  0  0
    4.4114   58.6254   69.6220 H   0  0  0  0  0  0  0  0  0  0  0  0
    4.8936   61.0581   69.9550 H   0  0  0  0  0  0  0  0  0  0  0  0
    1.7123   58.7114   72.9965 H   0  0  0  0  0  0  0  0  0  0  0  0
    0.8550   62.7298   74.3165 H   0  0  0  0  0  0  0  0  0  0  0  0
    3.5491   64.2543   69.8482 H   0  0  0  0  0  0  0  0  0  0  0  0
    1.5645   65.6965   69.3968 H   0  0  0  0  0  0  0  0  0  0  0  0
   -0.4259   65.5742   70.8908 H   0  0  0  0  0  0  0  0  0  0  0  0
   -0.4396   64.0195   72.8346 H   0  0  0  0  0  0  0  0  0  0  0  0
    1.8429   62.3106   76.3732 H   0  0  0  0  0  0  0  0  0  0  0  0
    0.4312   61.2721   75.8853 H   0  0  0  0  0  0  0  0  0  0  0  0
    2.6237   60.6875   77.9161 H   0  0  0  0  0  0  0  0  0  0  0  0
    0.8279   60.6227   78.1081 H   0  0  0  0  0  0  0  0  0  0  0  0
    1.8303   58.4263   77.9590 H   0  0  0  0  0  0  0  0  0  0  0  0
    0.7747   58.7582   76.6418 H   0  0  0  0  0  0  0  0  0  0  0  0
    3.5539   58.0264   76.6363 H   0  0  0  0  0  0  0  0  0  0  0  0
    2.2757   57.8816   75.3522 H   0  0  0  0  0  0  0  0  0  0  0  0
    4.0991   60.2347   75.9801 H   0  0  0  0  0  0  0  0  0  0  0  0
    3.8082   59.3869   74.4103 H   0  0  0  0  0  0  0  0  0  0  0  0
  2  1  1  0
  3  2  2  0
  4  3  1  0
  5  4  2  0
  6  5  1  0
  7  6  2  0
  7  2  1  0
  8  6  1  0
  9  8  2  0
 10  9  1  0
 11 10  2  0
 12 11  1  0
 12  5  1  0
 13 11  1  0
 14 13  2  0
 15 14  1  0
 16 15  2  0
 16 10  1  0
 17  8  1  0
 18 17  1  0
 19 18  1  0
 20 19  1  0
 21 20  1  0
 22 21  1  0
 22 17  1  0
  3 23  1  0
  4 24  1  0
  7 25  1  0
  9 26  1  0
 13 27  1  0
 14 28  1  0
 15 29  1  0
 16 30  1  0
 18 31  1  0
 18 32  1  0
 19 33  1  0
 19 34  1  0
 20 35  1  0
 20 36  1  0
 21 37  1  0
 21 38  1  0
 22 39  1  0
 22 40  1  0
M  CHG  2   9   1  20   1
M  END
>  <score>  (5) 
-7.883

$$$$
=
     RDKit          3D

 40 43  0  0  0  0  0  0  0  0999 V2000
   -1.1020   57.3640   74.0530 Cl  0  0  0  0  0  0  0  0  0  0  0  0
    0.3110   58.2640   73.6770 C   0  0  0  0  0  0  0  0  0  0  0  0
    1.5320   57.6190   73.5110 C   0  0  0  0  0  0  0  0  0  0  0  0
    2.6650   58.3660   73.1910 C   0  0  0  0  0  0  0  0  0  0  0  0
    2.5600   59.7520   73.0570 C   0  0  0  0  0  0  0  0  0  0  0  0
    1.3640   60.4250   73.2980 C   0  0  0  0  0  0  0  0  0  0  0  0
    0.2190   59.6540   73.5580 C   0  0  0  0  0  0  0  0  0  0  0  0
    1.2900   61.9070   73.2330 C   0  0  0  0  0  0  0  0  0  0  0  0
    1.6950   62.5490   72.1370 N   0  0  0  0  0  4  0  0  0  0  0  0
    2.5180   62.0210   71.1670 C   0  0  0  0  0  0  0  0  0  0  0  0
    3.4810   61.0220   71.4010 C   0  0  0  0  0  0  0  0  0  0  0  0
    3.6630   60.4500   72.6440 O   0  0  0  0  0  0  0  0  0  0  0  0
    4.3670   60.6150   70.4000 C   0  0  0  0  0  0  0  0  0  0  0  0
    4.2920   61.1930   69.1350 C   0  0  0  0  0  0  0  0  0  0  0  0
    3.3520   62.1880   68.8830 C   0  0  0  0  0  0  0  0  0  0  0  0
    2.4830   62.6090   69.8950 C   0  0  0  0  0  0  0  0  0  0  0  0
    0.7110   62.5860   74.2600 N   0  0  0  0  0  0  0  0  0  0  0  0
    0.3650   64.0440   74.1500 C   0  0  0  0  0  0  0  0  0  0  0  0
   -0.4060   64.5650   75.3890 C   0  0  0  0  0  0  0  0  0  0  0  0
   -1.4080   63.5450   75.8680 N   0  0  0  0  0  4  0  0  0  0  0  0
   -0.8210   62.1930   76.2200 C   0  0  0  0  0  0  0  0  0  0  0  0
    0.6030   62.0070   75.6520 C   0  0  0  0  0  0  0  0  0  0  0  0
    1.6033   56.5279   73.6312 H   0  0  0  0  0  0  0  0  0  0  0  0
    3.6345   57.8672   73.0452 H   0  0  0  0  0  0  0  0  0  0  0  0
   -0.7577   60.1477   73.6689 H   0  0  0  0  0  0  0  0  0  0  0  0
    1.3665   63.5163   72.0052 H   0  0  0  0  0  0  0  0  0  0  0  0
    5.1204   59.8415   70.6102 H   0  0  0  0  0  0  0  0  0  0  0  0
    4.9740   60.8639   68.3371 H   0  0  0  0  0  0  0  0  0  0  0  0
    3.2922   62.6450   67.8842 H   0  0  0  0  0  0  0  0  0  0  0  0
    1.7614   63.4135   69.6896 H   0  0  0  0  0  0  0  0  0  0  0  0
    1.2958   64.6207   74.0453 H   0  0  0  0  0  0  0  0  0  0  0  0
   -0.2877   64.1678   73.2733 H   0  0  0  0  0  0  0  0  0  0  0  0
    0.3103   64.7733   76.1974 H   0  0  0  0  0  0  0  0  0  0  0  0
   -0.9451   65.4815   75.1074 H   0  0  0  0  0  0  0  0  0  0  0  0
   -1.8717   63.9212   76.7073 H   0  0  0  0  0  0  0  0  0  0  0  0
   -2.0553   63.3842   75.0831 H   0  0  0  0  0  0  0  0  0  0  0  0
   -0.7801   62.0993   77.3152 H   0  0  0  0  0  0  0  0  0  0  0  0
   -1.4647   61.4202   75.7747 H   0  0  0  0  0  0  0  0  0  0  0  0
    1.3222   62.5164   76.3102 H   0  0  0  0  0  0  0  0  0  0  0  0
    0.8222   60.9303   75.6016 H   0  0  0  0  0  0  0  0  0  0  0  0
  2  1  1  0
  3  2  2  0
  4  3  1  0
  5  4  2  0
  6  5  1  0
  7  6  2  0
  7  2  1  0
  8  6  1  0
  9  8  2  0
 10  9  1  0
 11 10  2  0
 12 11  1  0
 12  5  1  0
 13 11  1  0
 14 13  2  0
 15 14  1  0
 16 15  2  0
 16 10  1  0
 17  8  1  0
 18 17  1  0
 19 18  1  0
 20 19  1  0
 21 20  1  0
 22 21  1  0
 22 17  1  0
  3 23  1  0
  4 24  1  0
  7 25  1  0
  9 26  1  0
 13 27  1  0
 14 28  1  0
 15 29  1  0
 16 30  1  0
 18 31  1  0
 18 32  1  0
 19 33  1  0
 19 34  1  0
 20 35  1  0
 20 36  1  0
 21 37  1  0
 21 38  1  0
 22 39  1  0
 22 40  1  0
M  CHG  2   9   1  20   1
M  END
>  <score>  (6) 
-7.858

$$$$
=
     RDKit          3D

 40 43  0  0  0  0  0  0  0  0999 V2000
    0.2440   62.9420   77.3340 Cl  0  0  0  0  0  0  0  0  0  0  0  0
    0.5000   62.8660   75.6380 C   0  0  0  0  0  0  0  0  0  0  0  0
    0.2200   63.9660   74.8340 C   0  0  0  0  0  0  0  0  0  0  0  0
    0.4490   63.8890   73.4610 C   0  0  0  0  0  0  0  0  0  0  0  0
    0.9400   62.7040   72.9100 C   0  0  0  0  0  0  0  0  0  0  0  0
    1.1510   61.5660   73.6860 C   0  0  0  0  0  0  0  0  0  0  0  0
    0.9760   61.6780   75.0760 C   0  0  0  0  0  0  0  0  0  0  0  0
    1.5950   60.2900   73.0710 C   0  0  0  0  0  0  0  0  0  0  0  0
    2.6950   60.2570   72.3170 N   0  0  0  0  0  4  0  0  0  0  0  0
    3.2910   61.3550   71.7370 C   0  0  0  0  0  0  0  0  0  0  0  0
    2.6050   62.5250   71.3620 C   0  0  0  0  0  0  0  0  0  0  0  0
    1.2520   62.6870   71.5780 O   0  0  0  0  0  0  0  0  0  0  0  0
    3.2460   63.5550   70.6680 C   0  0  0  0  0  0  0  0  0  0  0  0
    4.5970   63.4370   70.3530 C   0  0  0  0  0  0  0  0  0  0  0  0
    5.2950   62.2860   70.7080 C   0  0  0  0  0  0  0  0  0  0  0  0
    4.6430   61.2480   71.3810 C   0  0  0  0  0  0  0  0  0  0  0  0
    0.9280   59.1430   73.3720 N   0  0  0  0  0  0  0  0  0  0  0  0
    1.4700   57.7910   73.0040 C   0  0  0  0  0  0  0  0  0  0  0  0
    0.6070   56.6330   73.5660 C   0  0  0  0  0  0  0  0  0  0  0  0
    0.1310   56.9450   74.9620 N   0  0  0  0  0  4  0  0  0  0  0  0
   -0.6680   58.2270   75.0910 C   0  0  0  0  0  0  0  0  0  0  0  0
   -0.5020   59.1460   73.8610 C   0  0  0  0  0  0  0  0  0  0  0  0
   -0.1791   64.8898   75.2782 H   0  0  0  0  0  0  0  0  0  0  0  0
    0.2442   64.7562   72.8161 H   0  0  0  0  0  0  0  0  0  0  0  0
    1.2155   60.8241   75.7267 H   0  0  0  0  0  0  0  0  0  0  0  0
    3.1328   59.3387   72.1560 H   0  0  0  0  0  0  0  0  0  0  0  0
    2.6859   64.4543   70.3722 H   0  0  0  0  0  0  0  0  0  0  0  0
    5.1123   64.2524   69.8242 H   0  0  0  0  0  0  0  0  0  0  0  0
    6.3623   62.1928   70.4584 H   0  0  0  0  0  0  0  0  0  0  0  0
    5.1992   60.3336   71.6350 H   0  0  0  0  0  0  0  0  0  0  0  0
    1.4993   57.7092   71.9074 H   0  0  0  0  0  0  0  0  0  0  0  0
    2.4747   57.7027   73.4430 H   0  0  0  0  0  0  0  0  0  0  0  0
   -0.2655   56.4843   72.9128 H   0  0  0  0  0  0  0  0  0  0  0  0
    1.2215   55.7213   73.5999 H   0  0  0  0  0  0  0  0  0  0  0  0
   -0.4617   56.1649   75.2800 H   0  0  0  0  0  0  0  0  0  0  0  0
    0.9776   57.0727   75.5346 H   0  0  0  0  0  0  0  0  0  0  0  0
   -1.7322   57.9713   75.2007 H   0  0  0  0  0  0  0  0  0  0  0  0
   -0.2933   58.7706   75.9708 H   0  0  0  0  0  0  0  0  0  0  0  0
   -1.1589   58.7892   73.0541 H   0  0  0  0  0  0  0  0  0  0  0  0
   -0.7710   60.1723   74.1514 H   0  0  0  0  0  0  0  0  0  0  0  0
  2  1  1  0
  3  2  2  0
  4  3  1  0
  5  4  2  0
  6  5  1  0
  7  6  2  0
  7  2  1  0
  8  6  1  0
  9  8  2  0
 10  9  1  0
 11 10  2  0
 12 11  1  0
 12  5  1  0
 13 11  1  0
 14 13  2  0
 15 14  1  0
 16 15  2  0
 16 10  1  0
 17  8  1  0
 18 17  1  0
 19 18  1  0
 20 19  1  0
 21 20  1  0
 22 21  1  0
 22 17  1  0
  3 23  1  0
  4 24  1  0
  7 25  1  0
  9 26  1  0
 13 27  1  0
 14 28  1  0
 15 29  1  0
 16 30  1  0
 18 31  1  0
 18 32  1  0
 19 33  1  0
 19 34  1  0
 20 35  1  0
 20 36  1  0
 21 37  1  0
 21 38  1  0
 22 39  1  0
 22 40  1  0
M  CHG  2   9   1  20   1
M  END
>  <score>  (7) 
-7.545

$$$$
=
     RDKit          3D

 40 43  0  0  0  0  0  0  0  0999 V2000
   -0.6540   66.1010   73.7960 Cl  0  0  0  0  0  0  0  0  0  0  0  0
    0.0180   64.8840   72.7890 C   0  0  0  0  0  0  0  0  0  0  0  0
    0.3800   65.1770   71.4780 C   0  0  0  0  0  0  0  0  0  0  0  0
    0.9380   64.1790   70.6810 C   0  0  0  0  0  0  0  0  0  0  0  0
    1.1110   62.8950   71.2040 C   0  0  0  0  0  0  0  0  0  0  0  0
    0.6810   62.5620   72.4870 C   0  0  0  0  0  0  0  0  0  0  0  0
    0.1790   63.5930   73.2990 C   0  0  0  0  0  0  0  0  0  0  0  0
    0.7970   61.1720   72.9970 C   0  0  0  0  0  0  0  0  0  0  0  0
    1.9770   60.5510   72.9850 N   0  0  0  0  0  4  0  0  0  0  0  0
    3.0590   60.9200   72.2160 C   0  0  0  0  0  0  0  0  0  0  0  0
    2.9640   61.5850   70.9800 C   0  0  0  0  0  0  0  0  0  0  0  0
    1.7530   61.9620   70.4360 O   0  0  0  0  0  0  0  0  0  0  0  0
    4.0940   61.8240   70.1930 C   0  0  0  0  0  0  0  0  0  0  0  0
    5.3470   61.4140   70.6410 C   0  0  0  0  0  0  0  0  0  0  0  0
    5.4640   60.7480   71.8580 C   0  0  0  0  0  0  0  0  0  0  0  0
    4.3270   60.4900   72.6320 C   0  0  0  0  0  0  0  0  0  0  0  0
   -0.2880   60.5860   73.5710 N   0  0  0  0  0  0  0  0  0  0  0  0
   -0.1800   59.2980   74.3380 C   0  0  0  0  0  0  0  0  0  0  0  0
   -1.5170   58.8960   75.0110 C   0  0  0  0  0  0  0  0  0  0  0  0
   -2.2190   60.1030   75.5790 N   0  0  0  0  0  4  0  0  0  0  0  0
   -2.5150   61.1990   74.5750 C   0  0  0  0  0  0  0  0  0  0  0  0
   -1.7000   61.0350   73.2730 C   0  0  0  0  0  0  0  0  0  0  0  0
    0.2270   66.1885   71.0736 H   0  0  0  0  0  0  0  0  0  0  0  0
    1.2402   64.4008   69.6469 H   0  0  0  0  0  0  0  0  0  0  0  0
   -0.0895   63.3822   74.3447 H   0  0  0  0  0  0  0  0  0  0  0  0
    2.0883   59.7313   73.5987 H   0  0  0  0  0  0  0  0  0  0  0  0
    3.9939   62.3340   69.2235 H   0  0  0  0  0  0  0  0  0  0  0  0
    6.2424   61.6158   70.0348 H   0  0  0  0  0  0  0  0  0  0  0  0
    6.4535   60.4235   72.2124 H   0  0  0  0  0  0  0  0  0  0  0  0
    4.4296   59.9420   73.5803 H   0  0  0  0  0  0  0  0  0  0  0  0
    0.1208   58.4985   73.6449 H   0  0  0  0  0  0  0  0  0  0  0  0
    0.5651   59.4436   75.1340 H   0  0  0  0  0  0  0  0  0  0  0  0
   -2.1678   58.4201   74.2627 H   0  0  0  0  0  0  0  0  0  0  0  0
   -1.3002   58.1973   75.8325 H   0  0  0  0  0  0  0  0  0  0  0  0
   -3.1126   59.7917   75.9858 H   0  0  0  0  0  0  0  0  0  0  0  0
   -1.5763   60.5117   76.2724 H   0  0  0  0  0  0  0  0  0  0  0  0
   -3.5865   61.1726   74.3276 H   0  0  0  0  0  0  0  0  0  0  0  0
   -2.2323   62.1593   75.0310 H   0  0  0  0  0  0  0  0  0  0  0  0
   -2.1890   60.2844   72.6346 H   0  0  0  0  0  0  0  0  0  0  0  0
   -1.6578   62.0077   72.7610 H   0  0  0  0  0  0  0  0  0  0  0  0
  2  1  1  0
  3  2  2  0
  4  3  1  0
  5  4  2  0
  6  5  1  0
  7  6  2  0
  7  2  1  0
  8  6  1  0
  9  8  2  0
 10  9  1  0
 11 10  2  0
 12 11  1  0
 12  5  1  0
 13 11  1  0
 14 13  2  0
 15 14  1  0
 16 15  2  0
 16 10  1  0
 17  8  1  0
 18 17  1  0
 19 18  1  0
 20 19  1  0
 21 20  1  0
 22 21  1  0
 22 17  1  0
  3 23  1  0
  4 24  1  0
  7 25  1  0
  9 26  1  0
 13 27  1  0
 14 28  1  0
 15 29  1  0
 16 30  1  0
 18 31  1  0
 18 32  1  0
 19 33  1  0
 19 34  1  0
 20 35  1  0
 20 36  1  0
 21 37  1  0
 21 38  1  0
 22 39  1  0
 22 40  1  0
M  CHG  2   9   1  20   1
M  END
>  <score>  (8) 
-7.415

$$$$
=
     RDKit          3D

 40 43  0  0  0  0  0  0  0  0999 V2000
    0.1150   65.2970   75.1420 Cl  0  0  0  0  0  0  0  0  0  0  0  0
    0.4930   63.9220   74.1860 C   0  0  0  0  0  0  0  0  0  0  0  0
   -0.1020   63.7440   72.9420 C   0  0  0  0  0  0  0  0  0  0  0  0
    0.2310   62.6290   72.1740 C   0  0  0  0  0  0  0  0  0  0  0  0
    1.1430   61.6970   72.6740 C   0  0  0  0  0  0  0  0  0  0  0  0
    1.6890   61.8140   73.9510 C   0  0  0  0  0  0  0  0  0  0  0  0
    1.3930   62.9750   74.6850 C   0  0  0  0  0  0  0  0  0  0  0  0
    2.5930   60.7710   74.4980 C   0  0  0  0  0  0  0  0  0  0  0  0
    3.6810   60.4070   73.8200 N   0  0  0  0  0  4  0  0  0  0  0  0
    3.8910   60.6320   72.4770 C   0  0  0  0  0  0  0  0  0  0  0  0
    2.8640   60.7420   71.5200 C   0  0  0  0  0  0  0  0  0  0  0  0
    1.5290   60.6660   71.8610 O   0  0  0  0  0  0  0  0  0  0  0  0
    3.1480   60.8510   70.1570 C   0  0  0  0  0  0  0  0  0  0  0  0
    4.4720   60.8680   69.7260 C   0  0  0  0  0  0  0  0  0  0  0  0
    5.5040   60.7530   70.6530 C   0  0  0  0  0  0  0  0  0  0  0  0
    5.2150   60.6210   72.0150 C   0  0  0  0  0  0  0  0  0  0  0  0
    2.3520   60.2730   75.7410 N   0  0  0  0  0  0  0  0  0  0  0  0
    3.3580   59.4200   76.4610 C   0  0  0  0  0  0  0  0  0  0  0  0
    2.9220   59.0840   77.9090 C   0  0  0  0  0  0  0  0  0  0  0  0
    2.2750   60.2770   78.5670 N   0  0  0  0  0  4  0  0  0  0  0  0
    1.0700   60.8320   77.8340 C   0  0  0  0  0  0  0  0  0  0  0  0
    0.9830   60.3230   76.3790 C   0  0  0  0  0  0  0  0  0  0  0  0
   -0.8304   64.4777   72.5664 H   0  0  0  0  0  0  0  0  0  0  0  0
   -0.2212   62.4845   71.1817 H   0  0  0  0  0  0  0  0  0  0  0  0
    1.8734   63.1405   75.6606 H   0  0  0  0  0  0  0  0  0  0  0  0
    4.4235   59.9190   74.3410 H   0  0  0  0  0  0  0  0  0  0  0  0
    2.3287   60.9232   69.4265 H   0  0  0  0  0  0  0  0  0  0  0  0
    4.7019   60.9721   68.6553 H   0  0  0  0  0  0  0  0  0  0  0  0
    6.5501   60.7660   70.3132 H   0  0  0  0  0  0  0  0  0  0  0  0
    6.0389   60.5068   72.7349 H   0  0  0  0  0  0  0  0  0  0  0  0
    3.4867   58.4801   75.9042 H   0  0  0  0  0  0  0  0  0  0  0  0
    4.2983   59.9879   76.5181 H   0  0  0  0  0  0  0  0  0  0  0  0
    2.2027   58.2521   77.8846 H   0  0  0  0  0  0  0  0  0  0  0  0
    3.8140   58.8039   78.4885 H   0  0  0  0  0  0  0  0  0  0  0  0
    1.9746   59.9979   79.5119 H   0  0  0  0  0  0  0  0  0  0  0  0
    2.9825   61.0255   78.5697 H   0  0  0  0  0  0  0  0  0  0  0  0
    0.1589   60.5278   78.3701 H   0  0  0  0  0  0  0  0  0  0  0  0
    1.1709   61.9269   77.8018 H   0  0  0  0  0  0  0  0  0  0  0  0
    0.5477   59.3128   76.3765 H   0  0  0  0  0  0  0  0  0  0  0  0
    0.3522   61.0154   75.8022 H   0  0  0  0  0  0  0  0  0  0  0  0
  2  1  1  0
  3  2  2  0
  4  3  1  0
  5  4  2  0
  6  5  1  0
  7  6  2  0
  7  2  1  0
  8  6  1  0
  9  8  2  0
 10  9  1  0
 11 10  2  0
 12 11  1  0
 12  5  1  0
 13 11  1  0
 14 13  2  0
 15 14  1  0
 16 15  2  0
 16 10  1  0
 17  8  1  0
 18 17  1  0
 19 18  1  0
 20 19  1  0
 21 20  1  0
 22 21  1  0
 22 17  1  0
  3 23  1  0
  4 24  1  0
  7 25  1  0
  9 26  1  0
 13 27  1  0
 14 28  1  0
 15 29  1  0
 16 30  1  0
 18 31  1  0
 18 32  1  0
 19 33  1  0
 19 34  1  0
 20 35  1  0
 20 36  1  0
 21 37  1  0
 21 38  1  0
 22 39  1  0
 22 40  1  0
M  CHG  2   9   1  20   1
M  END
>  <score>  (9) 
-7.294

$$$$
