=
     RDKit          3D

 90 96  0  0  0  0  0  0  0  0999 V2000
    3.4100   62.9570   69.6190 C   0  0  0  0  0  0  0  0  0  0  0  0
    4.5290   63.1470   70.0790 O   0  0  0  0  0  0  0  0  0  0  0  0
    3.1330   62.8970   68.2690 N   0  0  0  0  0  0  0  0  0  0  0  0
   -1.1920   61.1680   73.7770 C   0  0  0  0  0  0  0  0  0  0  0  0
   -0.9900   62.3340   73.1110 N   0  0  0  0  0  0  0  0  0  0  0  0
    0.0610   62.4440   72.2870 C   0  0  0  0  0  0  0  0  0  0  0  0
    0.2490   63.6400   71.6080 C   0  0  0  0  0  0  0  0  0  0  0  0
    1.3240   63.8370   70.7340 C   0  0  0  0  0  0  0  0  0  0  0  0
    2.2470   62.8110   70.5360 C   0  0  0  0  0  0  0  0  0  0  0  0
    2.0640   61.5920   71.1970 C   0  0  0  0  0  0  0  0  0  0  0  0
    0.9770   61.3980   72.0810 C   0  0  0  0  0  0  0  0  0  0  0  0
    0.7490   60.1970   72.7830 C   0  0  0  0  0  0  0  0  0  0  0  0
   -0.3600   60.0570   73.6250 C   0  0  0  0  0  0  0  0  0  0  0  0
   -0.6280   58.7570   74.3310 C   0  0  0  0  0  0  0  0  0  0  0  0
    0.1690   57.6200   73.7090 C   0  0  0  0  0  0  0  0  0  0  0  0
    1.5910   58.0920   73.4920 C   0  0  0  0  0  0  0  0  0  0  0  0
    1.6430   59.1750   72.5620 O   0  0  0  0  0  0  0  0  0  0  0  0
   -5.9880   61.2810   77.3860 Cl  0  0  0  0  0  0  0  0  0  0  0  0
   -4.6150   61.2450   76.3520 C   0  0  0  0  0  0  0  0  0  0  0  0
   -3.4510   61.9130   76.7210 C   0  0  0  0  0  0  0  0  0  0  0  0
   -2.3360   61.8810   75.8780 C   0  0  0  0  0  0  0  0  0  0  0  0
   -2.3740   61.1920   74.6530 C   0  0  0  0  0  0  0  0  0  0  0  0
   -3.5550   60.5130   74.3090 C   0  0  0  0  0  0  0  0  0  0  0  0
   -4.6720   60.5430   75.1500 C   0  0  0  0  0  0  0  0  0  0  0  0
    4.1570   63.0820   67.2590 C   0  0  0  0  0  0  0  0  0  0  0  0
    3.6310   63.8420   66.0410 C   0  0  0  0  0  0  0  0  0  0  0  0
    4.2130   63.3970   64.6960 C   0  0  0  0  0  0  0  0  0  0  0  0
    4.8740   64.4990   63.8620 C   0  0  0  0  0  0  0  0  0  0  0  0
    4.1530   65.8520   63.8430 C   0  0  0  0  0  0  0  0  0  0  0  0
    4.4430   66.6760   62.5870 C   0  0  0  0  0  0  0  0  0  0  0  0
    5.3670   67.8760   62.8330 C   0  0  0  0  0  0  0  0  0  0  0  0
    5.4300   68.3400   64.2910 C   0  0  0  0  0  0  0  0  0  0  0  0
    4.5190   69.4660   64.5200 N   0  0  0  0  0  0  0  0  0  0  0  0
    4.0410   69.4950   65.8600 C   0  0  0  0  0  0  0  0  0  0  0  0
    4.7590   70.1440   66.8750 C   0  0  0  0  0  0  0  0  0  0  0  0
    6.0910   70.8270   66.6990 C   0  0  0  0  0  0  0  0  0  0  0  0
    7.0380   70.5380   67.8680 C   0  0  0  0  0  0  0  0  0  0  0  0
    6.3750   70.5580   69.2530 C   0  0  0  0  0  0  0  0  0  0  0  0
    4.9050   70.9620   69.2300 C   0  0  0  0  0  0  0  0  0  0  0  0
    4.1710   70.2250   68.1400 C   0  0  0  0  0  0  0  0  0  0  0  0
    2.9570   69.7160   68.4430 N   0  0  0  0  0  0  0  0  0  0  0  0
    2.2730   69.0880   67.4770 C   0  0  0  0  0  0  0  0  0  0  0  0
    2.7630   68.9490   66.1600 C   0  0  0  0  0  0  0  0  0  0  0  0
    1.9700   68.2620   65.2110 C   0  0  0  0  0  0  0  0  0  0  0  0
    0.7240   67.7380   65.5520 C   0  0  0  0  0  0  0  0  0  0  0  0
    0.2600   67.8940   66.8490 C   0  0  0  0  0  0  0  0  0  0  0  0
    1.0310   68.5610   67.7980 C   0  0  0  0  0  0  0  0  0  0  0  0
   -1.2770   67.2550   67.2890 Cl  0  0  0  0  0  0  0  0  0  0  0  0
    2.1651   62.7144   67.9678 H   0  0  0  0  0  0  0  0  0  0  0  0
   -0.4695   64.4586   71.7618 H   0  0  0  0  0  0  0  0  0  0  0  0
    1.4400   64.7953   70.2065 H   0  0  0  0  0  0  0  0  0  0  0  0
    2.7765   60.7714   71.0267 H   0  0  0  0  0  0  0  0  0  0  0  0
   -0.3440   58.8578   75.3889 H   0  0  0  0  0  0  0  0  0  0  0  0
   -1.6990   58.5239   74.2381 H   0  0  0  0  0  0  0  0  0  0  0  0
    0.1653   56.7516   74.3842 H   0  0  0  0  0  0  0  0  0  0  0  0
   -0.2808   57.3257   72.7493 H   0  0  0  0  0  0  0  0  0  0  0  0
    2.0084   58.4253   74.4536 H   0  0  0  0  0  0  0  0  0  0  0  0
    2.1756   57.2550   73.0827 H   0  0  0  0  0  0  0  0  0  0  0  0
   -3.4085   62.4639   77.6721 H   0  0  0  0  0  0  0  0  0  0  0  0
   -1.4152   62.4028   76.1777 H   0  0  0  0  0  0  0  0  0  0  0  0
   -3.6017   59.9500   73.3651 H   0  0  0  0  0  0  0  0  0  0  0  0
   -5.5928   60.0139   74.8633 H   0  0  0  0  0  0  0  0  0  0  0  0
    4.9907   63.6493   67.6985 H   0  0  0  0  0  0  0  0  0  0  0  0
    4.4854   62.0875   66.9226 H   0  0  0  0  0  0  0  0  0  0  0  0
    2.5399   63.7083   66.0011 H   0  0  0  0  0  0  0  0  0  0  0  0
    3.9395   64.8891   66.1767 H   0  0  0  0  0  0  0  0  0  0  0  0
    4.9693   62.6233   64.8942 H   0  0  0  0  0  0  0  0  0  0  0  0
    3.3581   63.0425   64.1015 H   0  0  0  0  0  0  0  0  0  0  0  0
    5.8857   64.6624   64.2617 H   0  0  0  0  0  0  0  0  0  0  0  0
    4.8531   64.1374   62.8233 H   0  0  0  0  0  0  0  0  0  0  0  0
    3.0695   65.6708   63.8989 H   0  0  0  0  0  0  0  0  0  0  0  0
    4.5223   66.4295   64.7033 H   0  0  0  0  0  0  0  0  0  0  0  0
    4.9181   66.0192   61.8434 H   0  0  0  0  0  0  0  0  0  0  0  0
    3.4804   67.0790   62.2390 H   0  0  0  0  0  0  0  0  0  0  0  0
    6.3831   67.5978   62.5167 H   0  0  0  0  0  0  0  0  0  0  0  0
    4.9514   68.7147   62.2552 H   0  0  0  0  0  0  0  0  0  0  0  0
    5.1435   67.5053   64.9476 H   0  0  0  0  0  0  0  0  0  0  0  0
    6.4567   68.6670   64.5124 H   0  0  0  0  0  0  0  0  0  0  0  0
    4.2569   70.1527   63.7984 H   0  0  0  0  0  0  0  0  0  0  0  0
    6.5547   70.4683   65.7682 H   0  0  0  0  0  0  0  0  0  0  0  0
    5.9161   71.9124   66.6612 H   0  0  0  0  0  0  0  0  0  0  0  0
    7.4784   69.5419   67.7136 H   0  0  0  0  0  0  0  0  0  0  0  0
    7.7840   71.3464   67.8697 H   0  0  0  0  0  0  0  0  0  0  0  0
    6.4502   69.5501   69.6873 H   0  0  0  0  0  0  0  0  0  0  0  0
    6.9045   71.3160   69.8489 H   0  0  0  0  0  0  0  0  0  0  0  0
    4.4482   70.7204   70.2011 H   0  0  0  0  0  0  0  0  0  0  0  0
    4.8366   72.0427   69.0364 H   0  0  0  0  0  0  0  0  0  0  0  0
    2.3439   68.1389   64.1839 H   0  0  0  0  0  0  0  0  0  0  0  0
    0.1176   67.2083   64.8026 H   0  0  0  0  0  0  0  0  0  0  0  0
    0.6470   68.6720   68.8228 H   0  0  0  0  0  0  0  0  0  0  0  0
  2  1  2  0
  3  1  1  0
  5  4  2  0
  6  5  1  0
  7  6  2  0
  8  7  1  0
  9  8  2  0
  9  1  1  0
 10  9  1  0
 11 10  2  0
 11  6  1  0
 12 11  1  0
 13 12  2  0
 13  4  1  0
 14 13  1  0
 15 14  1  0
 16 15  1  0
 17 16  1  0
 17 12  1  0
 19 18  1  0
 20 19  2  0
 21 20  1  0
 22 21  2  0
 22  4  1  0
 23 22  1  0
 24 23  2  0
 24 19  1  0
 25  3  1  0
 26 25  1  0
 27 26  1  0
 28 27  1  0
 29 28  1  0
 30 29  1  0
 31 30  1  0
 32 31  1  0
 33 32  1  0
 34 33  1  0
 35 34  1  0
 36 35  1  0
 37 36  1  0
 38 37  1  0
 39 38  1  0
 40 35  2  0
 40 39  1  0
 41 40  1  0
 42 41  2  0
 43 42  1  0
 43 34  2  0
 44 43  1  0
 45 44  2  0
 46 45  1  0
 47 46  2  0
 47 42  1  0
 48 46  1  0
  3 49  1  0
  7 50  1  0
  8 51  1  0
 10 52  1  0
 14 53  1  0
 14 54  1  0
 15 55  1  0
 15 56  1  0
 16 57  1  0
 16 58  1  0
 20 59  1  0
 21 60  1  0
 23 61  1  0
 24 62  1  0
 25 63  1  0
 25 64  1  0
 26 65  1  0
 26 66  1  0
 27 67  1  0
 27 68  1  0
 28 69  1  0
 28 70  1  0
 29 71  1  0
 29 72  1  0
 30 73  1  0
 30 74  1  0
 31 75  1  0
 31 76  1  0
 32 77  1  0
 32 78  1  0
 33 79  1  0
 36 80  1  0
 36 81  1  0
 37 82  1  0
 37 83  1  0
 38 84  1  0
 38 85  1  0
 39 86  1  0
 39 87  1  0
 44 88  1  0
 45 89  1  0
 47 90  1  0
M  END
>  <score>  (1) 
-12.71

$$$$
=
     RDKit          3D

 90 96  0  0  0  0  0  0  0  0999 V2000
    3.1830   63.0230   70.6180 C   0  0  0  0  0  0  0  0  0  0  0  0
    4.3330   63.4090   70.4530 O   0  0  0  0  0  0  0  0  0  0  0  0
    2.0680   63.7990   70.3750 N   0  0  0  0  0  0  0  0  0  0  0  0
    1.0450   57.5950   73.3800 C   0  0  0  0  0  0  0  0  0  0  0  0
    2.1620   57.8500   72.6510 N   0  0  0  0  0  0  0  0  0  0  0  0
    2.3740   59.0890   72.1890 C   0  0  0  0  0  0  0  0  0  0  0  0
    3.5240   59.3350   71.4520 C   0  0  0  0  0  0  0  0  0  0  0  0
    3.8160   60.6000   70.9310 C   0  0  0  0  0  0  0  0  0  0  0  0
    2.9290   61.6540   71.1440 C   0  0  0  0  0  0  0  0  0  0  0  0
    1.7750   61.4310   71.9000 C   0  0  0  0  0  0  0  0  0  0  0  0
    1.4810   60.1500   72.4240 C   0  0  0  0  0  0  0  0  0  0  0  0
    0.3280   59.8640   73.1820 C   0  0  0  0  0  0  0  0  0  0  0  0
    0.1070   58.5800   73.6960 C   0  0  0  0  0  0  0  0  0  0  0  0
   -1.0990   58.2920   74.5470 C   0  0  0  0  0  0  0  0  0  0  0  0
   -1.7290   59.5780   75.0580 C   0  0  0  0  0  0  0  0  0  0  0  0
   -1.8240   60.5580   73.9070 C   0  0  0  0  0  0  0  0  0  0  0  0
   -0.5290   60.9130   73.4180 O   0  0  0  0  0  0  0  0  0  0  0  0
    0.6420   51.8700   75.1440 Cl  0  0  0  0  0  0  0  0  0  0  0  0
    0.7560   53.5090   74.6350 C   0  0  0  0  0  0  0  0  0  0  0  0
    1.9380   54.2160   74.8320 C   0  0  0  0  0  0  0  0  0  0  0  0
    2.0280   55.5480   74.4170 C   0  0  0  0  0  0  0  0  0  0  0  0
    0.9350   56.1920   73.8110 C   0  0  0  0  0  0  0  0  0  0  0  0
   -0.2440   55.4540   73.6100 C   0  0  0  0  0  0  0  0  0  0  0  0
   -0.3360   54.1220   74.0230 C   0  0  0  0  0  0  0  0  0  0  0  0
    2.1640   65.1720   69.9180 C   0  0  0  0  0  0  0  0  0  0  0  0
    0.9190   65.9840   70.2740 C   0  0  0  0  0  0  0  0  0  0  0  0
   -0.3240   65.6660   69.4390 C   0  0  0  0  0  0  0  0  0  0  0  0
   -1.1030   66.8800   68.9210 C   0  0  0  0  0  0  0  0  0  0  0  0
   -1.5570   66.8130   67.4580 C   0  0  0  0  0  0  0  0  0  0  0  0
   -0.7580   67.7350   66.5330 C   0  0  0  0  0  0  0  0  0  0  0  0
    0.6870   67.2770   66.3000 C   0  0  0  0  0  0  0  0  0  0  0  0
    1.7270   67.9910   67.1680 C   0  0  0  0  0  0  0  0  0  0  0  0
    2.0210   69.3260   66.6370 N   0  0  0  0  0  0  0  0  0  0  0  0
    3.3530   69.4180   66.1460 C   0  0  0  0  0  0  0  0  0  0  0  0
    3.6530   69.1630   64.8000 C   0  0  0  0  0  0  0  0  0  0  0  0
    2.6590   68.7350   63.7530 C   0  0  0  0  0  0  0  0  0  0  0  0
    3.2280   67.6450   62.8390 C   0  0  0  0  0  0  0  0  0  0  0  0
    4.6920   67.8510   62.4260 C   0  0  0  0  0  0  0  0  0  0  0  0
    5.2950   69.1620   62.9190 C   0  0  0  0  0  0  0  0  0  0  0  0
    4.9650   69.3830   64.3720 C   0  0  0  0  0  0  0  0  0  0  0  0
    5.9580   69.8240   65.1750 N   0  0  0  0  0  0  0  0  0  0  0  0
    5.6760   70.0600   66.4630 C   0  0  0  0  0  0  0  0  0  0  0  0
    4.3860   69.8800   67.0080 C   0  0  0  0  0  0  0  0  0  0  0  0
    4.1880   70.1490   68.3830 C   0  0  0  0  0  0  0  0  0  0  0  0
    5.2320   70.5940   69.1920 C   0  0  0  0  0  0  0  0  0  0  0  0
    6.4880   70.7720   68.6320 C   0  0  0  0  0  0  0  0  0  0  0  0
    6.7030   70.5050   67.2820 C   0  0  0  0  0  0  0  0  0  0  0  0
    7.7900   71.3230   69.6140 Cl  0  0  0  0  0  0  0  0  0  0  0  0
    1.1350   63.3887   70.5234 H   0  0  0  0  0  0  0  0  0  0  0  0
    4.2280   58.5092   71.2719 H   0  0  0  0  0  0  0  0  0  0  0  0
    4.7401   60.7620   70.3567 H   0  0  0  0  0  0  0  0  0  0  0  0
    1.0838   62.2652   72.0908 H   0  0  0  0  0  0  0  0  0  0  0  0
   -1.8395   57.7432   73.9465 H   0  0  0  0  0  0  0  0  0  0  0  0
   -0.7806   57.6916   75.4119 H   0  0  0  0  0  0  0  0  0  0  0  0
   -2.7350   59.3679   75.4502 H   0  0  0  0  0  0  0  0  0  0  0  0
   -1.1146   60.0035   75.8651 H   0  0  0  0  0  0  0  0  0  0  0  0
   -2.4010   60.0977   73.0914 H   0  0  0  0  0  0  0  0  0  0  0  0
   -2.3203   61.4706   74.2686 H   0  0  0  0  0  0  0  0  0  0  0  0
    2.7989   53.7285   75.3127 H   0  0  0  0  0  0  0  0  0  0  0  0
    2.9675   56.1001   74.5668 H   0  0  0  0  0  0  0  0  0  0  0  0
   -1.1061   55.9312   73.1210 H   0  0  0  0  0  0  0  0  0  0  0  0
   -1.2677   53.5589   73.8655 H   0  0  0  0  0  0  0  0  0  0  0  0
    3.0405   65.6419   70.3880 H   0  0  0  0  0  0  0  0  0  0  0  0
    2.2583   65.1588   68.8221 H   0  0  0  0  0  0  0  0  0  0  0  0
    0.6781   65.7931   71.3302 H   0  0  0  0  0  0  0  0  0  0  0  0
    1.1682   67.0348   70.0647 H   0  0  0  0  0  0  0  0  0  0  0  0
   -0.0047   65.0728   68.5694 H   0  0  0  0  0  0  0  0  0  0  0  0
   -1.0109   65.1334   70.1132 H   0  0  0  0  0  0  0  0  0  0  0  0
   -2.0001   66.9962   69.5468 H   0  0  0  0  0  0  0  0  0  0  0  0
   -0.4031   67.7269   68.9758 H   0  0  0  0  0  0  0  0  0  0  0  0
   -1.4418   65.7780   67.1037 H   0  0  0  0  0  0  0  0  0  0  0  0
   -2.6043   67.1478   67.4263 H   0  0  0  0  0  0  0  0  0  0  0  0
   -1.2694   67.7779   65.5600 H   0  0  0  0  0  0  0  0  0  0  0  0
   -0.7072   68.7172   67.0256 H   0  0  0  0  0  0  0  0  0  0  0  0
    0.7442   66.1991   66.5119 H   0  0  0  0  0  0  0  0  0  0  0  0
    0.9288   67.5234   65.2556 H   0  0  0  0  0  0  0  0  0  0  0  0
    1.3367   68.0881   68.1918 H   0  0  0  0  0  0  0  0  0  0  0  0
    2.6541   67.3989   67.1660 H   0  0  0  0  0  0  0  0  0  0  0  0
    1.3450   70.1029   66.6214 H   0  0  0  0  0  0  0  0  0  0  0  0
    1.7600   68.3462   64.2536 H   0  0  0  0  0  0  0  0  0  0  0  0
    2.4188   69.6105   63.1319 H   0  0  0  0  0  0  0  0  0  0  0  0
    3.1534   66.6827   63.3666 H   0  0  0  0  0  0  0  0  0  0  0  0
    2.6370   67.6786   61.9119 H   0  0  0  0  0  0  0  0  0  0  0  0
    5.2871   67.0209   62.8345 H   0  0  0  0  0  0  0  0  0  0  0  0
    4.7118   67.8842   61.3267 H   0  0  0  0  0  0  0  0  0  0  0  0
    6.3877   69.1257   62.7977 H   0  0  0  0  0  0  0  0  0  0  0  0
    4.8745   69.9900   62.3295 H   0  0  0  0  0  0  0  0  0  0  0  0
    3.1900   70.0040   68.8223 H   0  0  0  0  0  0  0  0  0  0  0  0
    5.0622   70.8009   70.2589 H   0  0  0  0  0  0  0  0  0  0  0  0
    7.7072   70.6499   66.8570 H   0  0  0  0  0  0  0  0  0  0  0  0
  2  1  2  0
  3  1  1  0
  5  4  2  0
  6  5  1  0
  7  6  2  0
  8  7  1  0
  9  8  2  0
  9  1  1  0
 10  9  1  0
 11 10  2  0
 11  6  1  0
 12 11  1  0
 13 12  2  0
 13  4  1  0
 14 13  1  0
 15 14  1  0
 16 15  1  0
 17 16  1  0
 17 12  1  0
 19 18  1  0
 20 19  2  0
 21 20  1  0
 22 21  2  0
 22  4  1  0
 23 22  1  0
 24 23  2  0
 24 19  1  0
 25  3  1  0
 26 25  1  0
 27 26  1  0
 28 27  1  0
 29 28  1  0
 30 29  1  0
 31 30  1  0
 32 31  1  0
 33 32  1  0
 34 33  1  0
 35 34  1  0
 36 35  1  0
 37 36  1  0
 38 37  1  0
 39 38  1  0
 40 35  2  0
 40 39  1  0
 41 40  1  0
 42 41  2  0
 43 42  1  0
 43 34  2  0
 44 43  1  0
 45 44  2  0
 46 45  1  0
 47 46  2  0
 47 42  1  0
 48 46  1  0
  3 49  1  0
  7 50  1  0
  8 51  1  0
 10 52  1  0
 14 53  1  0
 14 54  1  0
 15 55  1  0
 15 56  1  0
 16 57  1  0
 16 58  1  0
 20 59  1  0
 21 60  1  0
 23 61  1  0
 24 62  1  0
 25 63  1  0
 25 64  1  0
 26 65  1  0
 26 66  1  0
 27 67  1  0
 27 68  1  0
 28 69  1  0
 28 70  1  0
 29 71  1  0
 29 72  1  0
 30 73  1  0
 30 74  1  0
 31 75  1  0
 31 76  1  0
 32 77  1  0
 32 78  1  0
 33 79  1  0
 36 80  1  0
 36 81  1  0
 37 82  1  0
 37 83  1  0
 38 84  1  0
 38 85  1  0
 39 86  1  0
 39 87  1  0
 44 88  1  0
 45 89  1  0
 47 90  1  0
M  END
>  <score>  (2) 
-12.518

$$$$
=
     RDKit          3D

 90 96  0  0  0  0  0  0  0  0999 V2000
    2.4250   63.4790   70.6930 C   0  0  0  0  0  0  0  0  0  0  0  0
    3.5080   63.8230   70.2360 O   0  0  0  0  0  0  0  0  0  0  0  0
    1.3130   64.2950   70.7330 N   0  0  0  0  0  0  0  0  0  0  0  0
    0.6370   58.0300   73.6530 C   0  0  0  0  0  0  0  0  0  0  0  0
    1.7590   58.3450   72.9580 N   0  0  0  0  0  0  0  0  0  0  0  0
    1.8850   59.5740   72.4390 C   0  0  0  0  0  0  0  0  0  0  0  0
    3.0430   59.8820   71.7370 C   0  0  0  0  0  0  0  0  0  0  0  0
    3.2490   61.1400   71.1600 C   0  0  0  0  0  0  0  0  0  0  0  0
    2.2660   62.1220   71.2810 C   0  0  0  0  0  0  0  0  0  0  0  0
    1.1020   61.8360   72.0000 C   0  0  0  0  0  0  0  0  0  0  0  0
    0.8960   60.5620   72.5800 C   0  0  0  0  0  0  0  0  0  0  0  0
   -0.2620   60.2140   73.3050 C   0  0  0  0  0  0  0  0  0  0  0  0
   -0.3960   58.9440   73.8770 C   0  0  0  0  0  0  0  0  0  0  0  0
   -1.6090   58.5940   74.6930 C   0  0  0  0  0  0  0  0  0  0  0  0
   -2.3700   59.8440   75.1090 C   0  0  0  0  0  0  0  0  0  0  0  0
   -2.4960   60.7520   73.9040 C   0  0  0  0  0  0  0  0  0  0  0  0
   -1.2160   61.1950   73.4490 O   0  0  0  0  0  0  0  0  0  0  0  0
    0.5630   52.3770   75.6740 Cl  0  0  0  0  0  0  0  0  0  0  0  0
    0.5840   53.9980   75.0990 C   0  0  0  0  0  0  0  0  0  0  0  0
   -0.1780   54.3500   73.9890 C   0  0  0  0  0  0  0  0  0  0  0  0
   -0.1600   55.6680   73.5240 C   0  0  0  0  0  0  0  0  0  0  0  0
    0.6280   56.6460   74.1550 C   0  0  0  0  0  0  0  0  0  0  0  0
    1.3780   56.2710   75.2830 C   0  0  0  0  0  0  0  0  0  0  0  0
    1.3600   54.9540   75.7500 C   0  0  0  0  0  0  0  0  0  0  0  0
    1.3380   65.6630   70.2510 C   0  0  0  0  0  0  0  0  0  0  0  0
   -0.0670   66.1970   69.9660 C   0  0  0  0  0  0  0  0  0  0  0  0
   -0.3480   66.5300   68.4980 C   0  0  0  0  0  0  0  0  0  0  0  0
   -1.7930   66.9240   68.1720 C   0  0  0  0  0  0  0  0  0  0  0  0
   -2.0070   67.6530   66.8410 C   0  0  0  0  0  0  0  0  0  0  0  0
   -0.8230   68.5340   66.4350 C   0  0  0  0  0  0  0  0  0  0  0  0
   -0.6280   69.7620   67.3340 C   0  0  0  0  0  0  0  0  0  0  0  0
    0.8340   70.0970   67.6420 C   0  0  0  0  0  0  0  0  0  0  0  0
    1.6950   68.9310   67.4150 N   0  0  0  0  0  0  0  0  0  0  0  0
    2.8890   69.2820   66.7270 C   0  0  0  0  0  0  0  0  0  0  0  0
    4.0100   69.7690   67.4150 C   0  0  0  0  0  0  0  0  0  0  0  0
    4.0810   70.0150   68.9000 C   0  0  0  0  0  0  0  0  0  0  0  0
    4.8110   71.3220   69.2250 C   0  0  0  0  0  0  0  0  0  0  0  0
    6.0580   71.5930   68.3720 C   0  0  0  0  0  0  0  0  0  0  0  0
    6.4100   70.4600   67.4140 C   0  0  0  0  0  0  0  0  0  0  0  0
    5.1810   69.9850   66.6830 C   0  0  0  0  0  0  0  0  0  0  0  0
    5.2960   69.7550   65.3570 N   0  0  0  0  0  0  0  0  0  0  0  0
    4.2240   69.2980   64.6960 C   0  0  0  0  0  0  0  0  0  0  0  0
    2.9900   69.0370   65.3300 C   0  0  0  0  0  0  0  0  0  0  0  0
    1.9120   68.5630   64.5450 C   0  0  0  0  0  0  0  0  0  0  0  0
    2.0550   68.3420   63.1760 C   0  0  0  0  0  0  0  0  0  0  0  0
    3.2790   68.5980   62.5770 C   0  0  0  0  0  0  0  0  0  0  0  0
    4.3490   69.0720   63.3340 C   0  0  0  0  0  0  0  0  0  0  0  0
    3.4760   68.3300   60.8880 Cl  0  0  0  0  0  0  0  0  0  0  0  0
    0.4347   63.9197   71.1185 H   0  0  0  0  0  0  0  0  0  0  0  0
    3.8225   59.1131   71.6313 H   0  0  0  0  0  0  0  0  0  0  0  0
    4.1802   61.3531   70.6145 H   0  0  0  0  0  0  0  0  0  0  0  0
    0.3334   62.6142   72.1169 H   0  0  0  0  0  0  0  0  0  0  0  0
   -2.2721   57.9528   74.0937 H   0  0  0  0  0  0  0  0  0  0  0  0
   -1.2788   58.0682   75.6010 H   0  0  0  0  0  0  0  0  0  0  0  0
   -3.3710   59.5661   75.4706 H   0  0  0  0  0  0  0  0  0  0  0  0
   -1.8322   60.3617   75.9169 H   0  0  0  0  0  0  0  0  0  0  0  0
   -2.9938   60.2019   73.0919 H   0  0  0  0  0  0  0  0  0  0  0  0
   -3.0843   61.6346   74.1955 H   0  0  0  0  0  0  0  0  0  0  0  0
   -0.7925   53.5934   73.4792 H   0  0  0  0  0  0  0  0  0  0  0  0
   -0.7711   55.9437   72.6519 H   0  0  0  0  0  0  0  0  0  0  0  0
    1.9870   57.0238   75.8049 H   0  0  0  0  0  0  0  0  0  0  0  0
    1.9574   54.6730   76.6298 H   0  0  0  0  0  0  0  0  0  0  0  0
    1.8117   66.2993   71.0131 H   0  0  0  0  0  0  0  0  0  0  0  0
    1.9053   65.6805   69.3087 H   0  0  0  0  0  0  0  0  0  0  0  0
   -0.7930   65.4360   70.2882 H   0  0  0  0  0  0  0  0  0  0  0  0
   -0.1532   67.1447   70.5178 H   0  0  0  0  0  0  0  0  0  0  0  0
    0.3041   67.3679   68.2104 H   0  0  0  0  0  0  0  0  0  0  0  0
   -0.1556   65.6032   67.9376 H   0  0  0  0  0  0  0  0  0  0  0  0
   -2.3963   66.0044   68.1528 H   0  0  0  0  0  0  0  0  0  0  0  0
   -2.0883   67.6401   68.9530 H   0  0  0  0  0  0  0  0  0  0  0  0
   -2.1692   66.9019   66.0539 H   0  0  0  0  0  0  0  0  0  0  0  0
   -2.8764   68.3148   66.9685 H   0  0  0  0  0  0  0  0  0  0  0  0
    0.0923   67.9253   66.4760 H   0  0  0  0  0  0  0  0  0  0  0  0
   -1.0346   68.9085   65.4226 H   0  0  0  0  0  0  0  0  0  0  0  0
   -1.0813   70.6301   66.8331 H   0  0  0  0  0  0  0  0  0  0  0  0
   -1.1042   69.5241   68.2966 H   0  0  0  0  0  0  0  0  0  0  0  0
    1.1609   70.9193   66.9885 H   0  0  0  0  0  0  0  0  0  0  0  0
    0.9127   70.3929   68.6985 H   0  0  0  0  0  0  0  0  0  0  0  0
    1.4628   67.9741   67.7173 H   0  0  0  0  0  0  0  0  0  0  0  0
    3.0583   70.0689   69.3014 H   0  0  0  0  0  0  0  0  0  0  0  0
    4.6418   69.1868   69.3577 H   0  0  0  0  0  0  0  0  0  0  0  0
    4.1067   72.1536   69.0751 H   0  0  0  0  0  0  0  0  0  0  0  0
    5.1608   71.2308   70.2639 H   0  0  0  0  0  0  0  0  0  0  0  0
    5.8821   72.5040   67.7811 H   0  0  0  0  0  0  0  0  0  0  0  0
    6.9039   71.6972   69.0675 H   0  0  0  0  0  0  0  0  0  0  0  0
    7.1490   70.8204   66.6833 H   0  0  0  0  0  0  0  0  0  0  0  0
    6.8257   69.6218   67.9924 H   0  0  0  0  0  0  0  0  0  0  0  0
    0.9421   68.3650   65.0246 H   0  0  0  0  0  0  0  0  0  0  0  0
    1.2090   67.9699   62.5796 H   0  0  0  0  0  0  0  0  0  0  0  0
    5.3119   69.2707   62.8408 H   0  0  0  0  0  0  0  0  0  0  0  0
  2  1  2  0
  3  1  1  0
  5  4  2  0
  6  5  1  0
  7  6  2  0
  8  7  1  0
  9  8  2  0
  9  1  1  0
 10  9  1  0
 11 10  2  0
 11  6  1  0
 12 11  1  0
 13 12  2  0
 13  4  1  0
 14 13  1  0
 15 14  1  0
 16 15  1  0
 17 16  1  0
 17 12  1  0
 19 18  1  0
 20 19  2  0
 21 20  1  0
 22 21  2  0
 22  4  1  0
 23 22  1  0
 24 23  2  0
 24 19  1  0
 25  3  1  0
 26 25  1  0
 27 26  1  0
 28 27  1  0
 29 28  1  0
 30 29  1  0
 31 30  1  0
 32 31  1  0
 33 32  1  0
 34 33  1  0
 35 34  1  0
 36 35  1  0
 37 36  1  0
 38 37  1  0
 39 38  1  0
 40 35  2  0
 40 39  1  0
 41 40  1  0
 42 41  2  0
 43 42  1  0
 43 34  2  0
 44 43  1  0
 45 44  2  0
 46 45  1  0
 47 46  2  0
 47 42  1  0
 48 46  1  0
  3 49  1  0
  7 50  1  0
  8 51  1  0
 10 52  1  0
 14 53  1  0
 14 54  1  0
 15 55  1  0
 15 56  1  0
 16 57  1  0
 16 58  1  0
 20 59  1  0
 21 60  1  0
 23 61  1  0
 24 62  1  0
 25 63  1  0
 25 64  1  0
 26 65  1  0
 26 66  1  0
 27 67  1  0
 27 68  1  0
 28 69  1  0
 28 70  1  0
 29 71  1  0
 29 72  1  0
 30 73  1  0
 30 74  1  0
 31 75  1  0
 31 76  1  0
 32 77  1  0
 32 78  1  0
 33 79  1  0
 36 80  1  0
 36 81  1  0
 37 82  1  0
 37 83  1  0
 38 84  1  0
 38 85  1  0
 39 86  1  0
 39 87  1  0
 44 88  1  0
 45 89  1  0
 47 90  1  0
M  END
>  <score>  (3) 
-12.497

$$$$
=
     RDKit          3D

 90 96  0  0  0  0  0  0  0  0999 V2000
    3.9250   62.6150   69.3620 C   0  0  0  0  0  0  0  0  0  0  0  0
    4.6260   63.4780   69.8730 O   0  0  0  0  0  0  0  0  0  0  0  0
    3.4440   62.6780   68.0700 N   0  0  0  0  0  0  0  0  0  0  0  0
    1.2020   58.1940   73.1970 C   0  0  0  0  0  0  0  0  0  0  0  0
    2.3100   58.1420   72.4150 N   0  0  0  0  0  0  0  0  0  0  0  0
    2.6660   59.2230   71.7090 C   0  0  0  0  0  0  0  0  0  0  0  0
    3.8070   59.1550   70.9210 C   0  0  0  0  0  0  0  0  0  0  0  0
    4.2420   60.2380   70.1490 C   0  0  0  0  0  0  0  0  0  0  0  0
    3.5130   61.4270   70.1580 C   0  0  0  0  0  0  0  0  0  0  0  0
    2.3720   61.5210   70.9610 C   0  0  0  0  0  0  0  0  0  0  0  0
    1.9340   60.4220   71.7380 C   0  0  0  0  0  0  0  0  0  0  0  0
    0.7860   60.4560   72.5550 C   0  0  0  0  0  0  0  0  0  0  0  0
    0.4180   59.3430   73.3210 C   0  0  0  0  0  0  0  0  0  0  0  0
   -0.7780   59.4010   74.2300 C   0  0  0  0  0  0  0  0  0  0  0  0
   -1.2100   60.8380   74.4800 C   0  0  0  0  0  0  0  0  0  0  0  0
   -1.2220   61.5720   73.1560 C   0  0  0  0  0  0  0  0  0  0  0  0
    0.0860   61.6400   72.5860 O   0  0  0  0  0  0  0  0  0  0  0  0
    0.1100   53.0590   76.1100 Cl  0  0  0  0  0  0  0  0  0  0  0  0
    0.4230   54.5280   75.2720 C   0  0  0  0  0  0  0  0  0  0  0  0
    1.4040   55.3980   75.7390 C   0  0  0  0  0  0  0  0  0  0  0  0
    1.6560   56.5910   75.0560 C   0  0  0  0  0  0  0  0  0  0  0  0
    0.9250   56.9340   73.9060 C   0  0  0  0  0  0  0  0  0  0  0  0
   -0.0510   56.0340   73.4440 C   0  0  0  0  0  0  0  0  0  0  0  0
   -0.3040   54.8400   74.1250 C   0  0  0  0  0  0  0  0  0  0  0  0
    3.7130   63.8050   67.1970 C   0  0  0  0  0  0  0  0  0  0  0  0
    3.9480   63.3690   65.7510 C   0  0  0  0  0  0  0  0  0  0  0  0
    3.4740   64.3640   64.6880 C   0  0  0  0  0  0  0  0  0  0  0  0
    4.5830   65.0630   63.8930 C   0  0  0  0  0  0  0  0  0  0  0  0
    4.1180   65.9910   62.7640 C   0  0  0  0  0  0  0  0  0  0  0  0
    5.0560   67.1780   62.5310 C   0  0  0  0  0  0  0  0  0  0  0  0
    4.3300   68.5230   62.3980 C   0  0  0  0  0  0  0  0  0  0  0  0
    4.4020   69.4090   63.6450 C   0  0  0  0  0  0  0  0  0  0  0  0
    4.9020   68.6500   64.7960 N   0  0  0  0  0  0  0  0  0  0  0  0
    4.2500   69.0280   66.0020 C   0  0  0  0  0  0  0  0  0  0  0  0
    4.8560   69.9030   66.9150 C   0  0  0  0  0  0  0  0  0  0  0  0
    6.2320   70.4980   66.7680 C   0  0  0  0  0  0  0  0  0  0  0  0
    6.9960   70.5030   68.0960 C   0  0  0  0  0  0  0  0  0  0  0  0
    6.1540   70.8850   69.3210 C   0  0  0  0  0  0  0  0  0  0  0  0
    4.7230   71.2920   68.9860 C   0  0  0  0  0  0  0  0  0  0  0  0
    4.1060   70.3130   68.0210 C   0  0  0  0  0  0  0  0  0  0  0  0
    2.8390   69.9160   68.2630 N   0  0  0  0  0  0  0  0  0  0  0  0
    2.2600   69.0730   67.3980 C   0  0  0  0  0  0  0  0  0  0  0  0
    2.9160   68.5960   66.2420 C   0  0  0  0  0  0  0  0  0  0  0  0
    2.2250   67.7010   65.3910 C   0  0  0  0  0  0  0  0  0  0  0  0
    0.9190   67.3010   65.6690 C   0  0  0  0  0  0  0  0  0  0  0  0
    0.2930   67.7890   66.8050 C   0  0  0  0  0  0  0  0  0  0  0  0
    0.9610   68.6650   67.6580 C   0  0  0  0  0  0  0  0  0  0  0  0
   -1.3200   67.3070   67.1640 Cl  0  0  0  0  0  0  0  0  0  0  0  0
    2.8742   61.8977   67.7131 H   0  0  0  0  0  0  0  0  0  0  0  0
    4.3872   58.2206   70.9030 H   0  0  0  0  0  0  0  0  0  0  0  0
    5.1532   60.1521   69.5388 H   0  0  0  0  0  0  0  0  0  0  0  0
    1.8060   62.4638   70.9892 H   0  0  0  0  0  0  0  0  0  0  0  0
   -1.6097   58.8522   73.7641 H   0  0  0  0  0  0  0  0  0  0  0  0
   -0.5052   58.9467   75.1939 H   0  0  0  0  0  0  0  0  0  0  0  0
   -2.2176   60.8514   74.9211 H   0  0  0  0  0  0  0  0  0  0  0  0
   -0.5119   61.3263   75.1759 H   0  0  0  0  0  0  0  0  0  0  0  0
   -1.8889   61.0428   72.4594 H   0  0  0  0  0  0  0  0  0  0  0  0
   -1.5766   62.5982   73.3323 H   0  0  0  0  0  0  0  0  0  0  0  0
    1.9790   55.1474   76.6426 H   0  0  0  0  0  0  0  0  0  0  0  0
    2.4380   57.2714   75.4241 H   0  0  0  0  0  0  0  0  0  0  0  0
   -0.6228   56.2725   72.5351 H   0  0  0  0  0  0  0  0  0  0  0  0
   -1.0755   54.1480   73.7562 H   0  0  0  0  0  0  0  0  0  0  0  0
    2.8522   64.4893   67.2257 H   0  0  0  0  0  0  0  0  0  0  0  0
    4.6281   64.2996   67.5546 H   0  0  0  0  0  0  0  0  0  0  0  0
    5.0280   63.2120   65.6135 H   0  0  0  0  0  0  0  0  0  0  0  0
    3.3510   62.4567   65.6050 H   0  0  0  0  0  0  0  0  0  0  0  0
    2.8380   63.8195   63.9745 H   0  0  0  0  0  0  0  0  0  0  0  0
    2.9482   65.1606   65.2348 H   0  0  0  0  0  0  0  0  0  0  0  0
    5.1762   65.6628   64.5989 H   0  0  0  0  0  0  0  0  0  0  0  0
    5.1481   64.2576   63.4011 H   0  0  0  0  0  0  0  0  0  0  0  0
    4.0571   65.4064   61.8342 H   0  0  0  0  0  0  0  0  0  0  0  0
    3.1412   66.4009   63.0606 H   0  0  0  0  0  0  0  0  0  0  0  0
    5.7522   67.2420   63.3802 H   0  0  0  0  0  0  0  0  0  0  0  0
    5.5722   66.9964   61.5768 H   0  0  0  0  0  0  0  0  0  0  0  0
    4.7787   69.0742   61.5584 H   0  0  0  0  0  0  0  0  0  0  0  0
    3.2665   68.2904   62.2402 H   0  0  0  0  0  0  0  0  0  0  0  0
    5.0789   70.2535   63.4486 H   0  0  0  0  0  0  0  0  0  0  0  0
    3.3905   69.7742   63.8764 H   0  0  0  0  0  0  0  0  0  0  0  0
    5.6365   67.9303   64.7379 H   0  0  0  0  0  0  0  0  0  0  0  0
    6.7987   69.9067   66.0337 H   0  0  0  0  0  0  0  0  0  0  0  0
    6.1194   71.5403   66.4351 H   0  0  0  0  0  0  0  0  0  0  0  0
    7.4022   69.4942   68.2610 H   0  0  0  0  0  0  0  0  0  0  0  0
    7.7747   71.2743   68.0026 H   0  0  0  0  0  0  0  0  0  0  0  0
    6.1180   70.0200   69.9996 H   0  0  0  0  0  0  0  0  0  0  0  0
    6.6360   71.7616   69.7784 H   0  0  0  0  0  0  0  0  0  0  0  0
    4.1272   71.3129   69.9104 H   0  0  0  0  0  0  0  0  0  0  0  0
    4.7372   72.2884   68.5202 H   0  0  0  0  0  0  0  0  0  0  0  0
    2.7282   67.3135   64.4929 H   0  0  0  0  0  0  0  0  0  0  0  0
    0.3927   66.6078   64.9963 H   0  0  0  0  0  0  0  0  0  0  0  0
    0.4474   69.0402   68.5555 H   0  0  0  0  0  0  0  0  0  0  0  0
  2  1  2  0
  3  1  1  0
  5  4  2  0
  6  5  1  0
  7  6  2  0
  8  7  1  0
  9  8  2  0
  9  1  1  0
 10  9  1  0
 11 10  2  0
 11  6  1  0
 12 11  1  0
 13 12  2  0
 13  4  1  0
 14 13  1  0
 15 14  1  0
 16 15  1  0
 17 16  1  0
 17 12  1  0
 19 18  1  0
 20 19  2  0
 21 20  1  0
 22 21  2  0
 22  4  1  0
 23 22  1  0
 24 23  2  0
 24 19  1  0
 25  3  1  0
 26 25  1  0
 27 26  1  0
 28 27  1  0
 29 28  1  0
 30 29  1  0
 31 30  1  0
 32 31  1  0
 33 32  1  0
 34 33  1  0
 35 34  1  0
 36 35  1  0
 37 36  1  0
 38 37  1  0
 39 38  1  0
 40 35  2  0
 40 39  1  0
 41 40  1  0
 42 41  2  0
 43 42  1  0
 43 34  2  0
 44 43  1  0
 45 44  2  0
 46 45  1  0
 47 46  2  0
 47 42  1  0
 48 46  1  0
  3 49  1  0
  7 50  1  0
  8 51  1  0
 10 52  1  0
 14 53  1  0
 14 54  1  0
 15 55  1  0
 15 56  1  0
 16 57  1  0
 16 58  1  0
 20 59  1  0
 21 60  1  0
 23 61  1  0
 24 62  1  0
 25 63  1  0
 25 64  1  0
 26 65  1  0
 26 66  1  0
 27 67  1  0
 27 68  1  0
 28 69  1  0
 28 70  1  0
 29 71  1  0
 29 72  1  0
 30 73  1  0
 30 74  1  0
 31 75  1  0
 31 76  1  0
 32 77  1  0
 32 78  1  0
 33 79  1  0
 36 80  1  0
 36 81  1  0
 37 82  1  0
 37 83  1  0
 38 84  1  0
 38 85  1  0
 39 86  1  0
 39 87  1  0
 44 88  1  0
 45 89  1  0
 47 90  1  0
M  END
>  <score>  (4) 
-12.493

$$$$
=
     RDKit          3D

 90 96  0  0  0  0  0  0  0  0999 V2000
    3.8050   60.5380   70.3180 C   0  0  0  0  0  0  0  0  0  0  0  0
    4.9900   60.4480   70.0230 O   0  0  0  0  0  0  0  0  0  0  0  0
    3.0160   61.6260   70.0090 N   0  0  0  0  0  0  0  0  0  0  0  0
    0.4500   56.7360   74.3130 C   0  0  0  0  0  0  0  0  0  0  0  0
    1.2810   56.4400   73.2800 N   0  0  0  0  0  0  0  0  0  0  0  0
    1.8660   57.4370   72.6030 C   0  0  0  0  0  0  0  0  0  0  0  0
    2.7180   57.1170   71.5550 C   0  0  0  0  0  0  0  0  0  0  0  0
    3.3640   58.0990   70.7960 C   0  0  0  0  0  0  0  0  0  0  0  0
    3.1480   59.4460   71.0860 C   0  0  0  0  0  0  0  0  0  0  0  0
    2.3070   59.7880   72.1500 C   0  0  0  0  0  0  0  0  0  0  0  0
    1.6550   58.7920   72.9140 C   0  0  0  0  0  0  0  0  0  0  0  0
    0.7890   59.0780   73.9880 C   0  0  0  0  0  0  0  0  0  0  0  0
    0.1920   58.0460   74.7230 C   0  0  0  0  0  0  0  0  0  0  0  0
   -0.6900   58.3550   75.9010 C   0  0  0  0  0  0  0  0  0  0  0  0
   -0.4970   59.7880   76.3710 C   0  0  0  0  0  0  0  0  0  0  0  0
   -0.4970   60.6960   75.1590 C   0  0  0  0  0  0  0  0  0  0  0  0
    0.6010   60.4060   74.2920 O   0  0  0  0  0  0  0  0  0  0  0  0
   -1.9590   51.9050   76.9380 Cl  0  0  0  0  0  0  0  0  0  0  0  0
   -1.2660   53.2900   76.1890 C   0  0  0  0  0  0  0  0  0  0  0  0
   -2.0850   54.2130   75.5470 C   0  0  0  0  0  0  0  0  0  0  0  0
   -1.5200   55.3380   74.9390 C   0  0  0  0  0  0  0  0  0  0  0  0
   -0.1300   55.5470   74.9570 C   0  0  0  0  0  0  0  0  0  0  0  0
    0.6760   54.6100   75.6240 C   0  0  0  0  0  0  0  0  0  0  0  0
    0.1120   53.4840   76.2330 C   0  0  0  0  0  0  0  0  0  0  0  0
    3.5360   62.7900   69.3160 C   0  0  0  0  0  0  0  0  0  0  0  0
    3.0250   64.0960   69.9250 C   0  0  0  0  0  0  0  0  0  0  0  0
    1.8840   63.9390   70.9340 C   0  0  0  0  0  0  0  0  0  0  0  0
    0.5570   64.5970   70.5410 C   0  0  0  0  0  0  0  0  0  0  0  0
    0.6190   66.0920   70.2100 C   0  0  0  0  0  0  0  0  0  0  0  0
   -0.3980   66.5200   69.1490 C   0  0  0  0  0  0  0  0  0  0  0  0
    0.1890   67.4250   68.0570 C   0  0  0  0  0  0  0  0  0  0  0  0
    1.5410   68.0520   68.4120 C   0  0  0  0  0  0  0  0  0  0  0  0
    1.7050   69.3480   67.7440 N   0  0  0  0  0  0  0  0  0  0  0  0
    2.9230   69.4140   67.0120 C   0  0  0  0  0  0  0  0  0  0  0  0
    2.9660   69.1170   65.6420 C   0  0  0  0  0  0  0  0  0  0  0  0
    1.7930   68.6670   64.8110 C   0  0  0  0  0  0  0  0  0  0  0  0
    2.1780   67.5460   63.8410 C   0  0  0  0  0  0  0  0  0  0  0  0
    3.5410   67.7270   63.1570 C   0  0  0  0  0  0  0  0  0  0  0  0
    4.2290   69.0470   63.4880 C   0  0  0  0  0  0  0  0  0  0  0  0
    4.1760   69.3130   64.9710 C   0  0  0  0  0  0  0  0  0  0  0  0
    5.3030   69.7680   65.5610 N   0  0  0  0  0  0  0  0  0  0  0  0
    5.2660   70.0440   66.8710 C   0  0  0  0  0  0  0  0  0  0  0  0
    4.1000   69.8910   67.6520 C   0  0  0  0  0  0  0  0  0  0  0  0
    4.1620   70.2010   69.0310 C   0  0  0  0  0  0  0  0  0  0  0  0
    5.3400   70.6610   69.6180 C   0  0  0  0  0  0  0  0  0  0  0  0
    6.4700   70.8110   68.8290 C   0  0  0  0  0  0  0  0  0  0  0  0
    6.4290   70.5030   67.4710 C   0  0  0  0  0  0  0  0  0  0  0  0
    7.9340   71.3790   69.5350 Cl  0  0  0  0  0  0  0  0  0  0  0  0
    2.0223   61.6119   70.2797 H   0  0  0  0  0  0  0  0  0  0  0  0
    2.8908   56.0578   71.3135 H   0  0  0  0  0  0  0  0  0  0  0  0
    4.0379   57.8105   69.9759 H   0  0  0  0  0  0  0  0  0  0  0  0
    2.1501   60.8485   72.3966 H   0  0  0  0  0  0  0  0  0  0  0  0
   -1.7410   58.2113   75.6099 H   0  0  0  0  0  0  0  0  0  0  0  0
   -0.4201   57.6785   76.7254 H   0  0  0  0  0  0  0  0  0  0  0  0
   -1.3180   60.0707   77.0463 H   0  0  0  0  0  0  0  0  0  0  0  0
    0.4562   59.8818   76.9119 H   0  0  0  0  0  0  0  0  0  0  0  0
   -1.4372   60.5548   74.6057 H   0  0  0  0  0  0  0  0  0  0  0  0
   -0.4007   61.7358   75.5047 H   0  0  0  0  0  0  0  0  0  0  0  0
   -3.1737   54.0582   75.5178 H   0  0  0  0  0  0  0  0  0  0  0  0
   -2.1721   56.0697   74.4397 H   0  0  0  0  0  0  0  0  0  0  0  0
    1.7644   54.7635   75.6681 H   0  0  0  0  0  0  0  0  0  0  0  0
    0.7556   52.7537   76.7453 H   0  0  0  0  0  0  0  0  0  0  0  0
    4.6344   62.7768   69.3747 H   0  0  0  0  0  0  0  0  0  0  0  0
    3.1923   62.7450   68.2720 H   0  0  0  0  0  0  0  0  0  0  0  0
    3.8668   64.5861   70.4360 H   0  0  0  0  0  0  0  0  0  0  0  0
    2.6170   64.6845   69.0900 H   0  0  0  0  0  0  0  0  0  0  0  0
    1.7004   62.8633   71.0725 H   0  0  0  0  0  0  0  0  0  0  0  0
    2.2167   64.4547   71.8469 H   0  0  0  0  0  0  0  0  0  0  0  0
    0.1708   64.0721   69.6548 H   0  0  0  0  0  0  0  0  0  0  0  0
   -0.0874   64.5169   71.4289 H   0  0  0  0  0  0  0  0  0  0  0  0
    0.4239   66.6618   71.1305 H   0  0  0  0  0  0  0  0  0  0  0  0
    1.6203   66.2940   69.8018 H   0  0  0  0  0  0  0  0  0  0  0  0
   -0.8009   65.6154   68.6701 H   0  0  0  0  0  0  0  0  0  0  0  0
   -1.1736   67.1040   69.6661 H   0  0  0  0  0  0  0  0  0  0  0  0
    0.3177   66.8239   67.1448 H   0  0  0  0  0  0  0  0  0  0  0  0
   -0.5179   68.2576   67.9265 H   0  0  0  0  0  0  0  0  0  0  0  0
    1.5962   68.1978   69.5009 H   0  0  0  0  0  0  0  0  0  0  0  0
    2.3421   67.3776   68.0752 H   0  0  0  0  0  0  0  0  0  0  0  0
    1.0214   70.1165   67.7984 H   0  0  0  0  0  0  0  0  0  0  0  0
    1.0015   68.3011   65.4815 H   0  0  0  0  0  0  0  0  0  0  0  0
    1.4447   69.5261   64.2188 H   0  0  0  0  0  0  0  0  0  0  0  0
    2.1995   66.6001   64.4021 H   0  0  0  0  0  0  0  0  0  0  0  0
    1.4249   67.5576   63.0393 H   0  0  0  0  0  0  0  0  0  0  0  0
    4.1992   66.9046   63.4738 H   0  0  0  0  0  0  0  0  0  0  0  0
    3.3561   67.7269   62.0726 H   0  0  0  0  0  0  0  0  0  0  0  0
    5.2798   68.9981   63.1664 H   0  0  0  0  0  0  0  0  0  0  0  0
    3.7087   69.8610   62.9619 H   0  0  0  0  0  0  0  0  0  0  0  0
    3.2629   70.0766   69.6524 H   0  0  0  0  0  0  0  0  0  0  0  0
    5.3723   70.9013   70.6910 H   0  0  0  0  0  0  0  0  0  0  0  0
    7.3371   70.6263   66.8626 H   0  0  0  0  0  0  0  0  0  0  0  0
  2  1  2  0
  3  1  1  0
  5  4  2  0
  6  5  1  0
  7  6  2  0
  8  7  1  0
  9  8  2  0
  9  1  1  0
 10  9  1  0
 11 10  2  0
 11  6  1  0
 12 11  1  0
 13 12  2  0
 13  4  1  0
 14 13  1  0
 15 14  1  0
 16 15  1  0
 17 16  1  0
 17 12  1  0
 19 18  1  0
 20 19  2  0
 21 20  1  0
 22 21  2  0
 22  4  1  0
 23 22  1  0
 24 23  2  0
 24 19  1  0
 25  3  1  0
 26 25  1  0
 27 26  1  0
 28 27  1  0
 29 28  1  0
 30 29  1  0
 31 30  1  0
 32 31  1  0
 33 32  1  0
 34 33  1  0
 35 34  1  0
 36 35  1  0
 37 36  1  0
 38 37  1  0
 39 38  1  0
 40 35  2  0
 40 39  1  0
 41 40  1  0
 42 41  2  0
 43 42  1  0
 43 34  2  0
 44 43  1  0
 45 44  2  0
 46 45  1  0
 47 46  2  0
 47 42  1  0
 48 46  1  0
  3 49  1  0
  7 50  1  0
  8 51  1  0
 10 52  1  0
 14 53  1  0
 14 54  1  0
 15 55  1  0
 15 56  1  0
 16 57  1  0
 16 58  1  0
 20 59  1  0
 21 60  1  0
 23 61  1  0
 24 62  1  0
 25 63  1  0
 25 64  1  0
 26 65  1  0
 26 66  1  0
 27 67  1  0
 27 68  1  0
 28 69  1  0
 28 70  1  0
 29 71  1  0
 29 72  1  0
 30 73  1  0
 30 74  1  0
 31 75  1  0
 31 76  1  0
 32 77  1  0
 32 78  1  0
 33 79  1  0
 36 80  1  0
 36 81  1  0
 37 82  1  0
 37 83  1  0
 38 84  1  0
 38 85  1  0
 39 86  1  0
 39 87  1  0
 44 88  1  0
 45 89  1  0
 47 90  1  0
M  END
>  <score>  (5) 
-12.468

$$$$
=
     RDKit          3D

 90 96  0  0  0  0  0  0  0  0999 V2000
    0.2570   64.9080   71.9680 C   0  0  0  0  0  0  0  0  0  0  0  0
   -0.3840   65.7440   72.5920 O   0  0  0  0  0  0  0  0  0  0  0  0
    0.9000   65.1650   70.7750 N   0  0  0  0  0  0  0  0  0  0  0  0
    1.4740   58.7000   73.2480 C   0  0  0  0  0  0  0  0  0  0  0  0
    0.6270   59.5860   73.8320 N   0  0  0  0  0  0  0  0  0  0  0  0
    0.5620   60.8380   73.3600 C   0  0  0  0  0  0  0  0  0  0  0  0
   -0.3160   61.7290   73.9630 C   0  0  0  0  0  0  0  0  0  0  0  0
   -0.4390   63.0550   73.5340 C   0  0  0  0  0  0  0  0  0  0  0  0
    0.3420   63.5110   72.4730 C   0  0  0  0  0  0  0  0  0  0  0  0
    1.2180   62.6230   71.8400 C   0  0  0  0  0  0  0  0  0  0  0  0
    1.3420   61.2840   72.2790 C   0  0  0  0  0  0  0  0  0  0  0  0
    2.2150   60.3480   71.6880 C   0  0  0  0  0  0  0  0  0  0  0  0
    2.2740   59.0290   72.1510 C   0  0  0  0  0  0  0  0  0  0  0  0
    3.1690   58.0210   71.4850 C   0  0  0  0  0  0  0  0  0  0  0  0
    3.6160   58.5060   70.1150 C   0  0  0  0  0  0  0  0  0  0  0  0
    4.0510   59.9520   70.2340 C   0  0  0  0  0  0  0  0  0  0  0  0
    2.9620   60.7920   70.6210 O   0  0  0  0  0  0  0  0  0  0  0  0
    1.3380   53.2610   75.7860 Cl  0  0  0  0  0  0  0  0  0  0  0  0
    1.3770   54.8210   75.0620 C   0  0  0  0  0  0  0  0  0  0  0  0
    0.4590   55.1480   74.0690 C   0  0  0  0  0  0  0  0  0  0  0  0
    0.4930   56.4170   73.4840 C   0  0  0  0  0  0  0  0  0  0  0  0
    1.4510   57.3690   73.8750 C   0  0  0  0  0  0  0  0  0  0  0  0
    2.3590   57.0210   74.8890 C   0  0  0  0  0  0  0  0  0  0  0  0
    2.3260   55.7520   75.4770 C   0  0  0  0  0  0  0  0  0  0  0  0
    0.8520   66.4650   70.1330 C   0  0  0  0  0  0  0  0  0  0  0  0
    0.2060   66.3990   68.7480 C   0  0  0  0  0  0  0  0  0  0  0  0
   -1.2760   66.7830   68.7050 C   0  0  0  0  0  0  0  0  0  0  0  0
   -1.9130   66.8110   67.3120 C   0  0  0  0  0  0  0  0  0  0  0  0
   -2.2310   68.1990   66.7450 C   0  0  0  0  0  0  0  0  0  0  0  0
   -0.9920   68.9500   66.2510 C   0  0  0  0  0  0  0  0  0  0  0  0
    0.0200   68.0610   65.5180 C   0  0  0  0  0  0  0  0  0  0  0  0
    1.4130   68.0280   66.1530 C   0  0  0  0  0  0  0  0  0  0  0  0
    1.9840   69.3770   66.2270 N   0  0  0  0  0  0  0  0  0  0  0  0
    3.3530   69.3940   65.8410 C   0  0  0  0  0  0  0  0  0  0  0  0
    3.7450   69.0930   64.5290 C   0  0  0  0  0  0  0  0  0  0  0  0
    2.8140   68.6870   63.4150 C   0  0  0  0  0  0  0  0  0  0  0  0
    3.3990   67.5500   62.5710 C   0  0  0  0  0  0  0  0  0  0  0  0
    4.8990   67.6760   62.2710 C   0  0  0  0  0  0  0  0  0  0  0  0
    5.5260   68.9680   62.7830 C   0  0  0  0  0  0  0  0  0  0  0  0
    5.0950   69.2390   64.2020 C   0  0  0  0  0  0  0  0  0  0  0  0
    6.0430   69.6510   65.0710 N   0  0  0  0  0  0  0  0  0  0  0  0
    5.6730   69.9310   66.3280 C   0  0  0  0  0  0  0  0  0  0  0  0
    4.3370   69.8250   66.7730 C   0  0  0  0  0  0  0  0  0  0  0  0
    4.0460   70.1360   68.1220 C   0  0  0  0  0  0  0  0  0  0  0  0
    5.0450   70.5500   69.0020 C   0  0  0  0  0  0  0  0  0  0  0  0
    6.3480   70.6540   68.5400 C   0  0  0  0  0  0  0  0  0  0  0  0
    6.6540   70.3450   67.2170 C   0  0  0  0  0  0  0  0  0  0  0  0
    7.5950   71.1660   69.6110 Cl  0  0  0  0  0  0  0  0  0  0  0  0
    1.4328   64.4075   70.3243 H   0  0  0  0  0  0  0  0  0  0  0  0
   -0.9340   61.3815   74.8040 H   0  0  0  0  0  0  0  0  0  0  0  0
   -1.1478   63.7338   74.0309 H   0  0  0  0  0  0  0  0  0  0  0  0
    1.8198   62.9713   70.9876 H   0  0  0  0  0  0  0  0  0  0  0  0
    4.0558   57.8565   72.1147 H   0  0  0  0  0  0  0  0  0  0  0  0
    2.6061   57.0846   71.3574 H   0  0  0  0  0  0  0  0  0  0  0  0
    4.4583   57.8933   69.7614 H   0  0  0  0  0  0  0  0  0  0  0  0
    2.7875   58.4201   69.3966 H   0  0  0  0  0  0  0  0  0  0  0  0
    4.8465   60.0257   70.9901 H   0  0  0  0  0  0  0  0  0  0  0  0
    4.4153   60.2867   69.2515 H   0  0  0  0  0  0  0  0  0  0  0  0
   -0.2906   54.4108   73.7456 H   0  0  0  0  0  0  0  0  0  0  0  0
   -0.2407   56.6747   72.7061 H   0  0  0  0  0  0  0  0  0  0  0  0
    3.1055   57.7558   75.2249 H   0  0  0  0  0  0  0  0  0  0  0  0
    3.0476   55.4903   76.2649 H   0  0  0  0  0  0  0  0  0  0  0  0
    0.2683   67.1511   70.7643 H   0  0  0  0  0  0  0  0  0  0  0  0
    1.8858   66.8196   70.0082 H   0  0  0  0  0  0  0  0  0  0  0  0
    0.7547   67.0820   68.0828 H   0  0  0  0  0  0  0  0  0  0  0  0
    0.2595   65.3461   68.4342 H   0  0  0  0  0  0  0  0  0  0  0  0
   -1.8315   66.0568   69.3165 H   0  0  0  0  0  0  0  0  0  0  0  0
   -1.3301   67.8153   69.0811 H   0  0  0  0  0  0  0  0  0  0  0  0
   -1.2215   66.3137   66.6159 H   0  0  0  0  0  0  0  0  0  0  0  0
   -2.8842   66.3060   67.4204 H   0  0  0  0  0  0  0  0  0  0  0  0
   -2.9268   68.0804   65.9013 H   0  0  0  0  0  0  0  0  0  0  0  0
   -2.6673   68.7924   67.5620 H   0  0  0  0  0  0  0  0  0  0  0  0
   -1.3190   69.7433   65.5627 H   0  0  0  0  0  0  0  0  0  0  0  0
   -0.4828   69.3479   67.1412 H   0  0  0  0  0  0  0  0  0  0  0  0
   -0.3740   67.0342   65.5005 H   0  0  0  0  0  0  0  0  0  0  0  0
    0.1443   68.4911   64.5132 H   0  0  0  0  0  0  0  0  0  0  0  0
    1.3365   67.6126   67.1687 H   0  0  0  0  0  0  0  0  0  0  0  0
    2.0691   67.4012   65.5312 H   0  0  0  0  0  0  0  0  0  0  0  0
    1.4573   70.2113   66.5228 H   0  0  0  0  0  0  0  0  0  0  0  0
    1.8611   68.3528   63.8512 H   0  0  0  0  0  0  0  0  0  0  0  0
    2.6647   69.5577   62.7595 H   0  0  0  0  0  0  0  0  0  0  0  0
    3.2362   66.6051   63.1102 H   0  0  0  0  0  0  0  0  0  0  0  0
    2.8848   67.5900   61.5994 H   0  0  0  0  0  0  0  0  0  0  0  0
    5.4186   66.8286   62.7421 H   0  0  0  0  0  0  0  0  0  0  0  0
    5.0058   67.6817   61.1762 H   0  0  0  0  0  0  0  0  0  0  0  0
    6.6217   68.8768   62.7488 H   0  0  0  0  0  0  0  0  0  0  0  0
    5.1943   69.8009   62.1456 H   0  0  0  0  0  0  0  0  0  0  0  0
    3.0108   70.0495   68.4839 H   0  0  0  0  0  0  0  0  0  0  0  0
    4.8029   70.7906   70.0477 H   0  0  0  0  0  0  0  0  0  0  0  0
    7.6943   70.4309   66.8701 H   0  0  0  0  0  0  0  0  0  0  0  0
  2  1  2  0
  3  1  1  0
  5  4  2  0
  6  5  1  0
  7  6  2  0
  8  7  1  0
  9  8  2  0
  9  1  1  0
 10  9  1  0
 11 10  2  0
 11  6  1  0
 12 11  1  0
 13 12  2  0
 13  4  1  0
 14 13  1  0
 15 14  1  0
 16 15  1  0
 17 16  1  0
 17 12  1  0
 19 18  1  0
 20 19  2  0
 21 20  1  0
 22 21  2  0
 22  4  1  0
 23 22  1  0
 24 23  2  0
 24 19  1  0
 25  3  1  0
 26 25  1  0
 27 26  1  0
 28 27  1  0
 29 28  1  0
 30 29  1  0
 31 30  1  0
 32 31  1  0
 33 32  1  0
 34 33  1  0
 35 34  1  0
 36 35  1  0
 37 36  1  0
 38 37  1  0
 39 38  1  0
 40 35  2  0
 40 39  1  0
 41 40  1  0
 42 41  2  0
 43 42  1  0
 43 34  2  0
 44 43  1  0
 45 44  2  0
 46 45  1  0
 47 46  2  0
 47 42  1  0
 48 46  1  0
  3 49  1  0
  7 50  1  0
  8 51  1  0
 10 52  1  0
 14 53  1  0
 14 54  1  0
 15 55  1  0
 15 56  1  0
 16 57  1  0
 16 58  1  0
 20 59  1  0
 21 60  1  0
 23 61  1  0
 24 62  1  0
 25 63  1  0
 25 64  1  0
 26 65  1  0
 26 66  1  0
 27 67  1  0
 27 68  1  0
 28 69  1  0
 28 70  1  0
 29 71  1  0
 29 72  1  0
 30 73  1  0
 30 74  1  0
 31 75  1  0
 31 76  1  0
 32 77  1  0
 32 78  1  0
 33 79  1  0
 36 80  1  0
 36 81  1  0
 37 82  1  0
 37 83  1  0
 38 84  1  0
 38 85  1  0
 39 86  1  0
 39 87  1  0
 44 88  1  0
 45 89  1  0
 47 90  1  0
M  END
>  <score>  (6) 
-12.395

$$$$
=
     RDKit          3D

 90 96  0  0  0  0  0  0  0  0999 V2000
    3.0540   60.1490   71.6740 C   0  0  0  0  0  0  0  0  0  0  0  0
    4.1570   59.8300   72.1010 O   0  0  0  0  0  0  0  0  0  0  0  0
    2.8540   60.8460   70.5010 N   0  0  0  0  0  0  0  0  0  0  0  0
   -1.7880   57.5290   75.0460 C   0  0  0  0  0  0  0  0  0  0  0  0
   -1.5670   58.8050   74.6370 N   0  0  0  0  0  0  0  0  0  0  0  0
   -0.4640   59.0860   73.9320 C   0  0  0  0  0  0  0  0  0  0  0  0
   -0.2570   60.3950   73.5160 C   0  0  0  0  0  0  0  0  0  0  0  0
    0.8720   60.7710   72.7810 C   0  0  0  0  0  0  0  0  0  0  0  0
    1.8320   59.8130   72.4550 C   0  0  0  0  0  0  0  0  0  0  0  0
    1.6330   58.4870   72.8500 C   0  0  0  0  0  0  0  0  0  0  0  0
    0.4910   58.1100   73.5950 C   0  0  0  0  0  0  0  0  0  0  0  0
    0.2440   56.7930   74.0290 C   0  0  0  0  0  0  0  0  0  0  0  0
   -0.9190   56.4780   74.7420 C   0  0  0  0  0  0  0  0  0  0  0  0
   -1.2040   55.0620   75.1590 C   0  0  0  0  0  0  0  0  0  0  0  0
   -0.3370   54.0780   74.3880 C   0  0  0  0  0  0  0  0  0  0  0  0
    1.0850   54.5990   74.3750 C   0  0  0  0  0  0  0  0  0  0  0  0
    1.1760   55.8440   73.6800 O   0  0  0  0  0  0  0  0  0  0  0  0
   -6.8330   56.8410   78.2260 Cl  0  0  0  0  0  0  0  0  0  0  0  0
   -5.3890   57.0370   77.3120 C   0  0  0  0  0  0  0  0  0  0  0  0
   -4.1790   56.5710   77.8170 C   0  0  0  0  0  0  0  0  0  0  0  0
   -3.0080   56.7310   77.0710 C   0  0  0  0  0  0  0  0  0  0  0  0
   -3.0290   57.3680   75.8190 C   0  0  0  0  0  0  0  0  0  0  0  0
   -4.2650   57.8180   75.3220 C   0  0  0  0  0  0  0  0  0  0  0  0
   -5.4380   57.6580   76.0660 C   0  0  0  0  0  0  0  0  0  0  0  0
    3.9550   61.2920   69.6680 C   0  0  0  0  0  0  0  0  0  0  0  0
    3.7540   62.7230   69.1690 C   0  0  0  0  0  0  0  0  0  0  0  0
    3.3450   63.7340   70.2440 C   0  0  0  0  0  0  0  0  0  0  0  0
    1.8440   64.0280   70.3410 C   0  0  0  0  0  0  0  0  0  0  0  0
    1.4610   65.4870   70.6140 C   0  0  0  0  0  0  0  0  0  0  0  0
    0.7930   66.1720   69.4200 C   0  0  0  0  0  0  0  0  0  0  0  0
    1.4070   67.5310   69.0620 C   0  0  0  0  0  0  0  0  0  0  0  0
    1.2570   67.9270   67.5900 C   0  0  0  0  0  0  0  0  0  0  0  0
    1.6810   69.3160   67.3780 N   0  0  0  0  0  0  0  0  0  0  0  0
    2.9410   69.3900   66.7220 C   0  0  0  0  0  0  0  0  0  0  0  0
    3.0680   69.1090   65.3540 C   0  0  0  0  0  0  0  0  0  0  0  0
    1.9460   68.6700   64.4480 C   0  0  0  0  0  0  0  0  0  0  0  0
    2.3900   67.5610   63.4900 C   0  0  0  0  0  0  0  0  0  0  0  0
    3.7920   67.7490   62.8920 C   0  0  0  0  0  0  0  0  0  0  0  0
    4.4590   69.0640   63.2810 C   0  0  0  0  0  0  0  0  0  0  0  0
    4.3160   69.3120   64.7600 C   0  0  0  0  0  0  0  0  0  0  0  0
    5.4040   69.7590   65.4230 N   0  0  0  0  0  0  0  0  0  0  0  0
    5.2890   70.0190   66.7320 C   0  0  0  0  0  0  0  0  0  0  0  0
    4.0770   69.8580   67.4390 C   0  0  0  0  0  0  0  0  0  0  0  0
    4.0550   70.1520   68.8230 C   0  0  0  0  0  0  0  0  0  0  0  0
    5.1950   70.6030   69.4850 C   0  0  0  0  0  0  0  0  0  0  0  0
    6.3720   70.7620   68.7680 C   0  0  0  0  0  0  0  0  0  0  0  0
    6.4130   70.4700   67.4070 C   0  0  0  0  0  0  0  0  0  0  0  0
    7.7900   71.3200   69.5680 Cl  0  0  0  0  0  0  0  0  0  0  0  0
    1.8900   61.0572   70.2062 H   0  0  0  0  0  0  0  0  0  0  0  0
   -1.0046   61.1600   73.7727 H   0  0  0  0  0  0  0  0  0  0  0  0
    1.0020   61.8157   72.4620 H   0  0  0  0  0  0  0  0  0  0  0  0
    2.3768   57.7239   72.5770 H   0  0  0  0  0  0  0  0  0  0  0  0
   -0.9981   54.9560   76.2343 H   0  0  0  0  0  0  0  0  0  0  0  0
   -2.2596   54.8404   74.9433 H   0  0  0  0  0  0  0  0  0  0  0  0
   -0.3672   53.0936   74.8780 H   0  0  0  0  0  0  0  0  0  0  0  0
   -0.7097   53.9733   73.3584 H   0  0  0  0  0  0  0  0  0  0  0  0
    1.4236   54.7419   75.4118 H   0  0  0  0  0  0  0  0  0  0  0  0
    1.7187   53.8648   73.8560 H   0  0  0  0  0  0  0  0  0  0  0  0
   -4.1442   56.0784   78.7999 H   0  0  0  0  0  0  0  0  0  0  0  0
   -2.0555   56.3524   77.4702 H   0  0  0  0  0  0  0  0  0  0  0  0
   -4.3097   58.3021   74.3353 H   0  0  0  0  0  0  0  0  0  0  0  0
   -6.3970   58.0216   75.6684 H   0  0  0  0  0  0  0  0  0  0  0  0
    4.8844   61.2480   70.2547 H   0  0  0  0  0  0  0  0  0  0  0  0
    4.0060   60.6307   68.7904 H   0  0  0  0  0  0  0  0  0  0  0  0
    4.6996   63.0642   68.7224 H   0  0  0  0  0  0  0  0  0  0  0  0
    2.9204   62.6835   68.4524 H   0  0  0  0  0  0  0  0  0  0  0  0
    3.6771   63.3452   71.2179 H   0  0  0  0  0  0  0  0  0  0  0  0
    3.8196   64.6845   69.9587 H   0  0  0  0  0  0  0  0  0  0  0  0
    1.3807   63.7311   69.3885 H   0  0  0  0  0  0  0  0  0  0  0  0
    1.4863   63.4596   71.2122 H   0  0  0  0  0  0  0  0  0  0  0  0
    0.7644   65.5115   71.4650 H   0  0  0  0  0  0  0  0  0  0  0  0
    2.3920   66.0340   70.8239 H   0  0  0  0  0  0  0  0  0  0  0  0
    0.8825   65.5101   68.5460 H   0  0  0  0  0  0  0  0  0  0  0  0
   -0.2537   66.3581   69.7023 H   0  0  0  0  0  0  0  0  0  0  0  0
    0.9186   68.3015   69.6767 H   0  0  0  0  0  0  0  0  0  0  0  0
    2.4866   67.4476   69.2554 H   0  0  0  0  0  0  0  0  0  0  0  0
    1.8786   67.2620   66.9725 H   0  0  0  0  0  0  0  0  0  0  0  0
    0.1983   67.8344   67.3062 H   0  0  0  0  0  0  0  0  0  0  0  0
    1.1325   70.1378   67.6690 H   0  0  0  0  0  0  0  0  0  0  0  0
    1.1155   68.2963   65.0650 H   0  0  0  0  0  0  0  0  0  0  0  0
    1.6329   69.5363   63.8468 H   0  0  0  0  0  0  0  0  0  0  0  0
    2.3776   66.6085   64.0401 H   0  0  0  0  0  0  0  0  0  0  0  0
    1.6872   67.5831   62.6440 H   0  0  0  0  0  0  0  0  0  0  0  0
    4.4296   66.9219   63.2375 H   0  0  0  0  0  0  0  0  0  0  0  0
    3.6733   67.7627   61.7985 H   0  0  0  0  0  0  0  0  0  0  0  0
    5.5274   69.0178   63.0235 H   0  0  0  0  0  0  0  0  0  0  0  0
    3.9718   69.8849   62.7343 H   0  0  0  0  0  0  0  0  0  0  0  0
    3.1197   70.0220   69.3872 H   0  0  0  0  0  0  0  0  0  0  0  0
    5.1623   70.8298   70.5609 H   0  0  0  0  0  0  0  0  0  0  0  0
    7.3563   70.5998   66.8563 H   0  0  0  0  0  0  0  0  0  0  0  0
  2  1  2  0
  3  1  1  0
  5  4  2  0
  6  5  1  0
  7  6  2  0
  8  7  1  0
  9  8  2  0
  9  1  1  0
 10  9  1  0
 11 10  2  0
 11  6  1  0
 12 11  1  0
 13 12  2  0
 13  4  1  0
 14 13  1  0
 15 14  1  0
 16 15  1  0
 17 16  1  0
 17 12  1  0
 19 18  1  0
 20 19  2  0
 21 20  1  0
 22 21  2  0
 22  4  1  0
 23 22  1  0
 24 23  2  0
 24 19  1  0
 25  3  1  0
 26 25  1  0
 27 26  1  0
 28 27  1  0
 29 28  1  0
 30 29  1  0
 31 30  1  0
 32 31  1  0
 33 32  1  0
 34 33  1  0
 35 34  1  0
 36 35  1  0
 37 36  1  0
 38 37  1  0
 39 38  1  0
 40 35  2  0
 40 39  1  0
 41 40  1  0
 42 41  2  0
 43 42  1  0
 43 34  2  0
 44 43  1  0
 45 44  2  0
 46 45  1  0
 47 46  2  0
 47 42  1  0
 48 46  1  0
  3 49  1  0
  7 50  1  0
  8 51  1  0
 10 52  1  0
 14 53  1  0
 14 54  1  0
 15 55  1  0
 15 56  1  0
 16 57  1  0
 16 58  1  0
 20 59  1  0
 21 60  1  0
 23 61  1  0
 24 62  1  0
 25 63  1  0
 25 64  1  0
 26 65  1  0
 26 66  1  0
 27 67  1  0
 27 68  1  0
 28 69  1  0
 28 70  1  0
 29 71  1  0
 29 72  1  0
 30 73  1  0
 30 74  1  0
 31 75  1  0
 31 76  1  0
 32 77  1  0
 32 78  1  0
 33 79  1  0
 36 80  1  0
 36 81  1  0
 37 82  1  0
 37 83  1  0
 38 84  1  0
 38 85  1  0
 39 86  1  0
 39 87  1  0
 44 88  1  0
 45 89  1  0
 47 90  1  0
M  END
>  <score>  (7) 
-11.998

$$$$
=
     RDKit          3D

 90 96  0  0  0  0  0  0  0  0999 V2000
    3.8220   62.6400   69.1520 C   0  0  0  0  0  0  0  0  0  0  0  0
    4.3600   63.5710   69.7380 O   0  0  0  0  0  0  0  0  0  0  0  0
    3.5120   62.6530   67.8080 N   0  0  0  0  0  0  0  0  0  0  0  0
    1.5020   58.1330   73.1480 C   0  0  0  0  0  0  0  0  0  0  0  0
    2.3060   58.0370   72.0580 N   0  0  0  0  0  0  0  0  0  0  0  0
    2.6490   59.1500   71.3970 C   0  0  0  0  0  0  0  0  0  0  0  0
    3.4780   59.0340   70.2890 C   0  0  0  0  0  0  0  0  0  0  0  0
    3.8780   60.1470   69.5410 C   0  0  0  0  0  0  0  0  0  0  0  0
    3.4320   61.4170   69.9040 C   0  0  0  0  0  0  0  0  0  0  0  0
    2.6110   61.5560   71.0280 C   0  0  0  0  0  0  0  0  0  0  0  0
    2.2070   60.4280   71.7810 C   0  0  0  0  0  0  0  0  0  0  0  0
    1.3730   60.5060   72.9140 C   0  0  0  0  0  0  0  0  0  0  0  0
    1.0290   59.3550   73.6320 C   0  0  0  0  0  0  0  0  0  0  0  0
    0.1810   59.4490   74.8700 C   0  0  0  0  0  0  0  0  0  0  0  0
    0.1310   60.8750   75.3950 C   0  0  0  0  0  0  0  0  0  0  0  0
   -0.1160   61.8080   74.2280 C   0  0  0  0  0  0  0  0  0  0  0  0
    0.9590   61.7630   73.2890 O   0  0  0  0  0  0  0  0  0  0  0  0
    0.2160   52.8370   75.6650 Cl  0  0  0  0  0  0  0  0  0  0  0  0
    0.5850   54.3550   74.9480 C   0  0  0  0  0  0  0  0  0  0  0  0
   -0.3230   54.9520   74.0780 C   0  0  0  0  0  0  0  0  0  0  0  0
   -0.0200   56.1860   73.4970 C   0  0  0  0  0  0  0  0  0  0  0  0
    1.1980   56.8340   73.7680 C   0  0  0  0  0  0  0  0  0  0  0  0
    2.0930   56.2200   74.6600 C   0  0  0  0  0  0  0  0  0  0  0  0
    1.7920   54.9860   75.2440 C   0  0  0  0  0  0  0  0  0  0  0  0
    3.7790   63.8010   66.9620 C   0  0  0  0  0  0  0  0  0  0  0  0
    3.7780   63.4340   65.4780 C   0  0  0  0  0  0  0  0  0  0  0  0
    3.5000   64.5970   64.5210 C   0  0  0  0  0  0  0  0  0  0  0  0
    4.7350   65.2260   63.8660 C   0  0  0  0  0  0  0  0  0  0  0  0
    4.4690   66.1190   62.6490 C   0  0  0  0  0  0  0  0  0  0  0  0
    5.1970   67.4640   62.7140 C   0  0  0  0  0  0  0  0  0  0  0  0
    4.3400   68.6550   62.2670 C   0  0  0  0  0  0  0  0  0  0  0  0
    3.2070   69.0190   63.2310 C   0  0  0  0  0  0  0  0  0  0  0  0
    3.1530   68.0740   64.3520 N   0  0  0  0  0  0  0  0  0  0  0  0
    2.8260   68.7230   65.5750 C   0  0  0  0  0  0  0  0  0  0  0  0
    1.5280   68.6700   66.1040 C   0  0  0  0  0  0  0  0  0  0  0  0
    0.3520   67.9890   65.4550 C   0  0  0  0  0  0  0  0  0  0  0  0
   -0.9270   68.8240   65.5750 C   0  0  0  0  0  0  0  0  0  0  0  0
   -1.1260   69.5050   66.9360 C   0  0  0  0  0  0  0  0  0  0  0  0
   -0.0630   69.1470   67.9690 C   0  0  0  0  0  0  0  0  0  0  0  0
    1.3140   69.2380   67.3630 C   0  0  0  0  0  0  0  0  0  0  0  0
    2.2780   69.8320   68.0980 N   0  0  0  0  0  0  0  0  0  0  0  0
    3.5170   69.8920   67.5910 C   0  0  0  0  0  0  0  0  0  0  0  0
    3.8550   69.3480   66.3330 C   0  0  0  0  0  0  0  0  0  0  0  0
    5.1900   69.4670   65.8800 C   0  0  0  0  0  0  0  0  0  0  0  0
    6.1650   70.0940   66.6540 C   0  0  0  0  0  0  0  0  0  0  0  0
    5.8110   70.6120   67.8900 C   0  0  0  0  0  0  0  0  0  0  0  0
    4.5000   70.5110   68.3490 C   0  0  0  0  0  0  0  0  0  0  0  0
    7.0010   71.3890   68.8620 Cl  0  0  0  0  0  0  0  0  0  0  0  0
    3.0757   61.8186   67.3904 H   0  0  0  0  0  0  0  0  0  0  0  0
    3.8313   58.0361   69.9900 H   0  0  0  0  0  0  0  0  0  0  0  0
    4.5403   60.0206   68.6719 H   0  0  0  0  0  0  0  0  0  0  0  0
    2.2740   62.5582   71.3314 H   0  0  0  0  0  0  0  0  0  0  0  0
   -0.8406   59.1185   74.6311 H   0  0  0  0  0  0  0  0  0  0  0  0
    0.6246   58.8075   75.6457 H   0  0  0  0  0  0  0  0  0  0  0  0
   -0.6842   60.9726   76.1271 H   0  0  0  0  0  0  0  0  0  0  0  0
    1.0817   61.1294   75.8864 H   0  0  0  0  0  0  0  0  0  0  0  0
   -1.0461   61.5099   73.7220 H   0  0  0  0  0  0  0  0  0  0  0  0
   -0.1946   62.8344   74.6157 H   0  0  0  0  0  0  0  0  0  0  0  0
   -1.2764   54.4536   73.8486 H   0  0  0  0  0  0  0  0  0  0  0  0
   -0.7451   56.6576   72.8175 H   0  0  0  0  0  0  0  0  0  0  0  0
    3.0439   56.7171   74.9023 H   0  0  0  0  0  0  0  0  0  0  0  0
    2.5059   54.5143   75.9353 H   0  0  0  0  0  0  0  0  0  0  0  0
    3.0038   64.5608   67.1400 H   0  0  0  0  0  0  0  0  0  0  0  0
    4.7786   64.1838   67.2157 H   0  0  0  0  0  0  0  0  0  0  0  0
    4.7650   63.0168   65.2295 H   0  0  0  0  0  0  0  0  0  0  0  0
    2.9529   62.7198   65.3398 H   0  0  0  0  0  0  0  0  0  0  0  0
    2.8438   64.2264   63.7197 H   0  0  0  0  0  0  0  0  0  0  0  0
    3.0483   65.3902   65.1349 H   0  0  0  0  0  0  0  0  0  0  0  0
    5.2450   65.8361   64.6260 H   0  0  0  0  0  0  0  0  0  0  0  0
    5.3330   64.3828   63.4899 H   0  0  0  0  0  0  0  0  0  0  0  0
    4.8005   65.5859   61.7457 H   0  0  0  0  0  0  0  0  0  0  0  0
    3.3902   66.3331   62.6316 H   0  0  0  0  0  0  0  0  0  0  0  0
    5.5149   67.6362   63.7529 H   0  0  0  0  0  0  0  0  0  0  0  0
    6.0466   67.4020   62.0180 H   0  0  0  0  0  0  0  0  0  0  0  0
    4.9970   69.5310   62.1624 H   0  0  0  0  0  0  0  0  0  0  0  0
    3.8631   68.3598   61.3207 H   0  0  0  0  0  0  0  0  0  0  0  0
    3.3779   70.0329   63.6219 H   0  0  0  0  0  0  0  0  0  0  0  0
    2.2525   68.9746   62.6861 H   0  0  0  0  0  0  0  0  0  0  0  0
    3.3303   67.0632   64.2642 H   0  0  0  0  0  0  0  0  0  0  0  0
    0.5755   67.8313   64.3896 H   0  0  0  0  0  0  0  0  0  0  0  0
    0.1846   67.0316   65.9701 H   0  0  0  0  0  0  0  0  0  0  0  0
   -0.8988   69.6061   64.8020 H   0  0  0  0  0  0  0  0  0  0  0  0
   -1.7665   68.1236   65.4536 H   0  0  0  0  0  0  0  0  0  0  0  0
   -1.1078   70.5943   66.7839 H   0  0  0  0  0  0  0  0  0  0  0  0
   -2.0883   69.1492   67.3326 H   0  0  0  0  0  0  0  0  0  0  0  0
   -0.1323   69.8448   68.8165 H   0  0  0  0  0  0  0  0  0  0  0  0
   -0.2333   68.1158   68.3119 H   0  0  0  0  0  0  0  0  0  0  0  0
    5.4641   69.0564   64.8970 H   0  0  0  0  0  0  0  0  0  0  0  0
    7.1996   70.1765   66.2895 H   0  0  0  0  0  0  0  0  0  0  0  0
    4.2390   70.9303   69.3319 H   0  0  0  0  0  0  0  0  0  0  0  0
  2  1  2  0
  3  1  1  0
  5  4  2  0
  6  5  1  0
  7  6  2  0
  8  7  1  0
  9  8  2  0
  9  1  1  0
 10  9  1  0
 11 10  2  0
 11  6  1  0
 12 11  1  0
 13 12  2  0
 13  4  1  0
 14 13  1  0
 15 14  1  0
 16 15  1  0
 17 16  1  0
 17 12  1  0
 19 18  1  0
 20 19  2  0
 21 20  1  0
 22 21  2  0
 22  4  1  0
 23 22  1  0
 24 23  2  0
 24 19  1  0
 25  3  1  0
 26 25  1  0
 27 26  1  0
 28 27  1  0
 29 28  1  0
 30 29  1  0
 31 30  1  0
 32 31  1  0
 33 32  1  0
 34 33  1  0
 35 34  1  0
 36 35  1  0
 37 36  1  0
 38 37  1  0
 39 38  1  0
 40 35  2  0
 40 39  1  0
 41 40  1  0
 42 41  2  0
 43 42  1  0
 43 34  2  0
 44 43  1  0
 45 44  2  0
 46 45  1  0
 47 46  2  0
 47 42  1  0
 48 46  1  0
  3 49  1  0
  7 50  1  0
  8 51  1  0
 10 52  1  0
 14 53  1  0
 14 54  1  0
 15 55  1  0
 15 56  1  0
 16 57  1  0
 16 58  1  0
 20 59  1  0
 21 60  1  0
 23 61  1  0
 24 62  1  0
 25 63  1  0
 25 64  1  0
 26 65  1  0
 26 66  1  0
 27 67  1  0
 27 68  1  0
 28 69  1  0
 28 70  1  0
 29 71  1  0
 29 72  1  0
 30 73  1  0
 30 74  1  0
 31 75  1  0
 31 76  1  0
 32 77  1  0
 32 78  1  0
 33 79  1  0
 36 80  1  0
 36 81  1  0
 37 82  1  0
 37 83  1  0
 38 84  1  0
 38 85  1  0
 39 86  1  0
 39 87  1  0
 44 88  1  0
 45 89  1  0
 47 90  1  0
M  END
>  <score>  (8) 
-11.779

$$$$
=
     RDKit          3D

 90 96  0  0  0  0  0  0  0  0999 V2000
    0.1750   64.0580   72.4160 C   0  0  0  0  0  0  0  0  0  0  0  0
   -0.2730   64.9350   73.1440 O   0  0  0  0  0  0  0  0  0  0  0  0
    0.6830   64.2900   71.1540 N   0  0  0  0  0  0  0  0  0  0  0  0
    1.0110   57.7560   73.5310 C   0  0  0  0  0  0  0  0  0  0  0  0
    0.1550   58.6570   74.0770 N   0  0  0  0  0  0  0  0  0  0  0  0
    0.1840   59.9280   73.6550 C   0  0  0  0  0  0  0  0  0  0  0  0
   -0.7030   60.8340   74.2190 C   0  0  0  0  0  0  0  0  0  0  0  0
   -0.7320   62.1800   73.8370 C   0  0  0  0  0  0  0  0  0  0  0  0
    0.1570   62.6400   72.8670 C   0  0  0  0  0  0  0  0  0  0  0  0
    1.0450   61.7380   72.2740 C   0  0  0  0  0  0  0  0  0  0  0  0
    1.0740   60.3780   72.6640 C   0  0  0  0  0  0  0  0  0  0  0  0
    1.9540   59.4270   72.1100 C   0  0  0  0  0  0  0  0  0  0  0  0
    1.9160   58.0890   72.5210 C   0  0  0  0  0  0  0  0  0  0  0  0
    2.8220   57.0680   71.8910 C   0  0  0  0  0  0  0  0  0  0  0  0
    3.4070   57.5840   70.5850 C   0  0  0  0  0  0  0  0  0  0  0  0
    3.8910   59.0020   70.8030 C   0  0  0  0  0  0  0  0  0  0  0  0
    2.8090   59.8760   71.1310 O   0  0  0  0  0  0  0  0  0  0  0  0
    0.4200   52.2380   75.8230 Cl  0  0  0  0  0  0  0  0  0  0  0  0
    0.5900   53.8200   75.1700 C   0  0  0  0  0  0  0  0  0  0  0  0
   -0.3850   54.3270   74.3160 C   0  0  0  0  0  0  0  0  0  0  0  0
   -0.2440   55.6130   73.7870 C   0  0  0  0  0  0  0  0  0  0  0  0
    0.8770   56.4030   74.0960 C   0  0  0  0  0  0  0  0  0  0  0  0
    1.8410   55.8770   74.9710 C   0  0  0  0  0  0  0  0  0  0  0  0
    1.7020   54.5910   75.5020 C   0  0  0  0  0  0  0  0  0  0  0  0
    0.7090   65.6130   70.5600 C   0  0  0  0  0  0  0  0  0  0  0  0
   -0.6310   65.9830   69.9240 C   0  0  0  0  0  0  0  0  0  0  0  0
   -0.5390   66.5780   68.5160 C   0  0  0  0  0  0  0  0  0  0  0  0
   -1.8060   67.2730   68.0050 C   0  0  0  0  0  0  0  0  0  0  0  0
   -1.7790   67.7310   66.5420 C   0  0  0  0  0  0  0  0  0  0  0  0
   -0.8010   68.8790   66.2850 C   0  0  0  0  0  0  0  0  0  0  0  0
   -0.5300   69.7500   67.5180 C   0  0  0  0  0  0  0  0  0  0  0  0
    0.9470   70.0870   67.7450 C   0  0  0  0  0  0  0  0  0  0  0  0
    1.7960   68.9250   67.4630 N   0  0  0  0  0  0  0  0  0  0  0  0
    2.9730   69.2900   66.7520 C   0  0  0  0  0  0  0  0  0  0  0  0
    4.1000   69.7920   67.4180 C   0  0  0  0  0  0  0  0  0  0  0  0
    4.1960   70.0400   68.9010 C   0  0  0  0  0  0  0  0  0  0  0  0
    4.9150   71.3560   69.2130 C   0  0  0  0  0  0  0  0  0  0  0  0
    6.1420   71.6420   68.3360 C   0  0  0  0  0  0  0  0  0  0  0  0
    6.4900   70.5140   67.3710 C   0  0  0  0  0  0  0  0  0  0  0  0
    5.2540   70.0220   66.6640 C   0  0  0  0  0  0  0  0  0  0  0  0
    5.3470   69.7930   65.3360 N   0  0  0  0  0  0  0  0  0  0  0  0
    4.2690   69.3230   64.6960 C   0  0  0  0  0  0  0  0  0  0  0  0
    3.0500   69.0460   65.3530 C   0  0  0  0  0  0  0  0  0  0  0  0
    1.9640   68.5580   64.5890 C   0  0  0  0  0  0  0  0  0  0  0  0
    2.0830   68.3390   63.2180 C   0  0  0  0  0  0  0  0  0  0  0  0
    3.2920   68.6100   62.5960 C   0  0  0  0  0  0  0  0  0  0  0  0
    4.3700   69.0980   63.3310 C   0  0  0  0  0  0  0  0  0  0  0  0
    3.4610   68.3440   60.9030 Cl  0  0  0  0  0  0  0  0  0  0  0  0
    1.0568   63.4958   70.6150 H   0  0  0  0  0  0  0  0  0  0  0  0
   -1.4049   60.4834   74.9900 H   0  0  0  0  0  0  0  0  0  0  0  0
   -1.4522   62.8709   74.2996 H   0  0  0  0  0  0  0  0  0  0  0  0
    1.7326   62.0911   71.4913 H   0  0  0  0  0  0  0  0  0  0  0  0
    3.6430   56.8390   72.5863 H   0  0  0  0  0  0  0  0  0  0  0  0
    2.2327   56.1644   71.6761 H   0  0  0  0  0  0  0  0  0  0  0  0
    4.2499   56.9471   70.2786 H   0  0  0  0  0  0  0  0  0  0  0  0
    2.6417   57.5640   69.7951 H   0  0  0  0  0  0  0  0  0  0  0  0
    4.6196   59.0091   71.6271 H   0  0  0  0  0  0  0  0  0  0  0  0
    4.3539   59.3577   69.8707 H   0  0  0  0  0  0  0  0  0  0  0  0
   -1.2637   53.7176   74.0582 H   0  0  0  0  0  0  0  0  0  0  0  0
   -1.0214   56.0127   73.1193 H   0  0  0  0  0  0  0  0  0  0  0  0
    2.7170   56.4845   75.2423 H   0  0  0  0  0  0  0  0  0  0  0  0
    2.4689   54.1889   76.1804 H   0  0  0  0  0  0  0  0  0  0  0  0
    0.9456   66.3488   71.3427 H   0  0  0  0  0  0  0  0  0  0  0  0
    1.4723   65.6143   69.7679 H   0  0  0  0  0  0  0  0  0  0  0  0
   -1.2455   65.0723   69.8697 H   0  0  0  0  0  0  0  0  0  0  0  0
   -1.0662   66.7675   70.5605 H   0  0  0  0  0  0  0  0  0  0  0  0
    0.2762   67.3166   68.5136 H   0  0  0  0  0  0  0  0  0  0  0  0
   -0.3706   65.7263   67.8406 H   0  0  0  0  0  0  0  0  0  0  0  0
   -2.6451   66.5715   68.1224 H   0  0  0  0  0  0  0  0  0  0  0  0
   -1.9004   68.1924   68.6014 H   0  0  0  0  0  0  0  0  0  0  0  0
   -1.4870   66.8764   65.9140 H   0  0  0  0  0  0  0  0  0  0  0  0
   -2.7860   68.1001   66.2976 H   0  0  0  0  0  0  0  0  0  0  0  0
    0.1541   68.4514   65.9459 H   0  0  0  0  0  0  0  0  0  0  0  0
   -1.2634   69.5301   65.5285 H   0  0  0  0  0  0  0  0  0  0  0  0
   -1.0836   70.6933   67.4008 H   0  0  0  0  0  0  0  0  0  0  0  0
   -0.8557   69.1660   68.3915 H   0  0  0  0  0  0  0  0  0  0  0  0
    1.2347   70.9138   67.0790 H   0  0  0  0  0  0  0  0  0  0  0  0
    1.0846   70.3770   68.7971 H   0  0  0  0  0  0  0  0  0  0  0  0
    1.5678   67.9612   67.7455 H   0  0  0  0  0  0  0  0  0  0  0  0
    3.1804   70.0809   69.3215 H   0  0  0  0  0  0  0  0  0  0  0  0
    4.7765   69.2193   69.3477 H   0  0  0  0  0  0  0  0  0  0  0  0
    4.1976   72.1787   69.0768 H   0  0  0  0  0  0  0  0  0  0  0  0
    5.2851   71.2698   70.2453 H   0  0  0  0  0  0  0  0  0  0  0  0
    5.9435   72.5508   67.7489 H   0  0  0  0  0  0  0  0  0  0  0  0
    6.9996   71.7561   69.0154 H   0  0  0  0  0  0  0  0  0  0  0  0
    7.2095   70.8845   66.6260 H   0  0  0  0  0  0  0  0  0  0  0  0
    6.9280   69.6815   67.9412 H   0  0  0  0  0  0  0  0  0  0  0  0
    1.0063   68.3472   65.0873 H   0  0  0  0  0  0  0  0  0  0  0  0
    1.2302   67.9567   62.6378 H   0  0  0  0  0  0  0  0  0  0  0  0
    5.3203   69.3091   62.8187 H   0  0  0  0  0  0  0  0  0  0  0  0
  2  1  2  0
  3  1  1  0
  5  4  2  0
  6  5  1  0
  7  6  2  0
  8  7  1  0
  9  8  2  0
  9  1  1  0
 10  9  1  0
 11 10  2  0
 11  6  1  0
 12 11  1  0
 13 12  2  0
 13  4  1  0
 14 13  1  0
 15 14  1  0
 16 15  1  0
 17 16  1  0
 17 12  1  0
 19 18  1  0
 20 19  2  0
 21 20  1  0
 22 21  2  0
 22  4  1  0
 23 22  1  0
 24 23  2  0
 24 19  1  0
 25  3  1  0
 26 25  1  0
 27 26  1  0
 28 27  1  0
 29 28  1  0
 30 29  1  0
 31 30  1  0
 32 31  1  0
 33 32  1  0
 34 33  1  0
 35 34  1  0
 36 35  1  0
 37 36  1  0
 38 37  1  0
 39 38  1  0
 40 35  2  0
 40 39  1  0
 41 40  1  0
 42 41  2  0
 43 42  1  0
 43 34  2  0
 44 43  1  0
 45 44  2  0
 46 45  1  0
 47 46  2  0
 47 42  1  0
 48 46  1  0
  3 49  1  0
  7 50  1  0
  8 51  1  0
 10 52  1  0
 14 53  1  0
 14 54  1  0
 15 55  1  0
 15 56  1  0
 16 57  1  0
 16 58  1  0
 20 59  1  0
 21 60  1  0
 23 61  1  0
 24 62  1  0
 25 63  1  0
 25 64  1  0
 26 65  1  0
 26 66  1  0
 27 67  1  0
 27 68  1  0
 28 69  1  0
 28 70  1  0
 29 71  1  0
 29 72  1  0
 30 73  1  0
 30 74  1  0
 31 75  1  0
 31 76  1  0
 32 77  1  0
 32 78  1  0
 33 79  1  0
 36 80  1  0
 36 81  1  0
 37 82  1  0
 37 83  1  0
 38 84  1  0
 38 85  1  0
 39 86  1  0
 39 87  1  0
 44 88  1  0
 45 89  1  0
 47 90  1  0
M  END
>  <score>  (9) 
-11.727

$$$$
