=
     RDKit          3D

 37 39  0  0  0  0  0  0  0  0999 V2000
    1.9830   68.0120   66.4560 C   0  0  0  0  0  0  0  0  0  0  0  0
    1.4210   68.2370   65.1550 N   0  0  0  0  0  0  0  0  0  0  0  0
    2.1600   68.4280   63.9740 C   0  0  0  0  0  0  0  0  0  0  0  0
    3.5280   68.3700   63.7880 C   0  0  0  0  0  0  0  0  0  0  0  0
    4.0260   68.5990   62.4980 C   0  0  0  0  0  0  0  0  0  0  0  0
    3.1600   68.8800   61.4230 C   0  0  0  0  0  0  0  0  0  0  0  0
    1.7800   68.9360   61.6180 C   0  0  0  0  0  0  0  0  0  0  0  0
    1.3180   68.7060   62.8990 C   0  0  0  0  0  0  0  0  0  0  0  0
   -0.0520   68.7060   63.4090 C   0  0  0  0  0  0  0  0  0  0  0  0
   -1.0660   68.9020   62.7790 O   0  0  0  0  0  0  0  0  0  0  0  0
    0.0690   68.4090   64.9250 C   0  0  0  0  0  0  0  0  0  0  0  0
   -0.8580   68.3600   65.7040 O   0  0  0  0  0  0  0  0  0  0  0  0
    2.0570   69.2930   67.1260 N   0  0  0  0  0  0  0  0  0  0  0  0
    5.8310   70.7000   68.4370 C   0  0  0  0  0  0  0  0  0  0  0  0
    4.7100   70.7280   69.2690 C   0  0  0  0  0  0  0  0  0  0  0  0
    3.4730   70.2680   68.8080 C   0  0  0  0  0  0  0  0  0  0  0  0
    3.3070   69.8010   67.4960 C   0  0  0  0  0  0  0  0  0  0  0  0
    4.4440   69.7420   66.6830 C   0  0  0  0  0  0  0  0  0  0  0  0
    5.6870   70.2010   67.1390 C   0  0  0  0  0  0  0  0  0  0  0  0
    7.5220   70.6410   70.2860 C   0  0  0  0  0  0  0  0  0  0  0  0
    7.1630   71.2090   68.9220 C   0  0  0  0  0  0  0  0  0  0  0  0
    1.3419   67.3254   67.0283 H   0  0  0  0  0  0  0  0  0  0  0  0
    2.9824   67.5600   66.3732 H   0  0  0  0  0  0  0  0  0  0  0  0
    4.2054   68.1508   64.6265 H   0  0  0  0  0  0  0  0  0  0  0  0
    5.1111   68.5586   62.3221 H   0  0  0  0  0  0  0  0  0  0  0  0
    3.5761   69.0569   60.4202 H   0  0  0  0  0  0  0  0  0  0  0  0
    1.0907   69.1536   60.7888 H   0  0  0  0  0  0  0  0  0  0  0  0
    1.1985   69.8249   67.3282 H   0  0  0  0  0  0  0  0  0  0  0  0
    4.8009   71.1149   70.2947 H   0  0  0  0  0  0  0  0  0  0  0  0
    2.6100   70.2724   69.4900 H   0  0  0  0  0  0  0  0  0  0  0  0
    4.3607   69.3278   65.6674 H   0  0  0  0  0  0  0  0  0  0  0  0
    6.5585   70.1683   66.4687 H   0  0  0  0  0  0  0  0  0  0  0  0
    7.1115   71.2905   71.0732 H   0  0  0  0  0  0  0  0  0  0  0  0
    7.0979   69.6310   70.3858 H   0  0  0  0  0  0  0  0  0  0  0  0
    8.6163   70.5907   70.3858 H   0  0  0  0  0  0  0  0  0  0  0  0
    7.1206   72.3059   68.9930 H   0  0  0  0  0  0  0  0  0  0  0  0
    7.9331   70.8887   68.2048 H   0  0  0  0  0  0  0  0  0  0  0  0
  2  1  1  0
  3  2  1  0
  4  3  2  0
  5  4  1  0
  6  5  2  0
  7  6  1  0
  8  7  2  0
  8  3  1  0
  9  8  1  0
 10  9  2  0
 11  9  1  0
 11  2  1  0
 12 11  2  0
 13  1  1  0
 15 14  2  0
 16 15  1  0
 17 16  2  0
 17 13  1  0
 18 17  1  0
 19 18  2  0
 19 14  1  0
 21 20  1  0
 21 14  1  0
  1 22  1  0
  1 23  1  0
  4 24  1  0
  5 25  1  0
  6 26  1  0
  7 27  1  0
 13 28  1  0
 15 29  1  0
 16 30  1  0
 18 31  1  0
 19 32  1  0
 20 33  1  0
 20 34  1  0
 20 35  1  0
 21 36  1  0
 21 37  1  0
M  END
>  <score>  (1) 
-10.677

$$$$
=
     RDKit          3D

 37 39  0  0  0  0  0  0  0  0999 V2000
    3.4990   68.0380   65.0190 C   0  0  0  0  0  0  0  0  0  0  0  0
    3.0830   68.4470   63.7080 N   0  0  0  0  0  0  0  0  0  0  0  0
    1.7640   68.7560   63.3340 C   0  0  0  0  0  0  0  0  0  0  0  0
    0.6280   68.8060   64.1220 C   0  0  0  0  0  0  0  0  0  0  0  0
   -0.5840   69.1440   63.5060 C   0  0  0  0  0  0  0  0  0  0  0  0
   -0.6470   69.4220   62.1260 C   0  0  0  0  0  0  0  0  0  0  0  0
    0.5030   69.3700   61.3370 C   0  0  0  0  0  0  0  0  0  0  0  0
    1.6840   69.0350   61.9720 C   0  0  0  0  0  0  0  0  0  0  0  0
    3.0300   68.8920   61.4200 C   0  0  0  0  0  0  0  0  0  0  0  0
    3.3700   69.0580   60.2710 O   0  0  0  0  0  0  0  0  0  0  0  0
    3.9270   68.4770   62.6140 C   0  0  0  0  0  0  0  0  0  0  0  0
    5.1120   68.2320   62.5460 O   0  0  0  0  0  0  0  0  0  0  0  0
    3.2070   69.1260   65.9280 N   0  0  0  0  0  0  0  0  0  0  0  0
    6.3310   70.7090   68.3110 C   0  0  0  0  0  0  0  0  0  0  0  0
    6.5730   70.1960   67.0350 C   0  0  0  0  0  0  0  0  0  0  0  0
    5.5250   69.6680   66.2730 C   0  0  0  0  0  0  0  0  0  0  0  0
    4.2160   69.6030   66.7720 C   0  0  0  0  0  0  0  0  0  0  0  0
    3.9790   70.1540   68.0360 C   0  0  0  0  0  0  0  0  0  0  0  0
    5.0240   70.6850   68.8040 C   0  0  0  0  0  0  0  0  0  0  0  0
    7.5540   70.5740   70.4950 C   0  0  0  0  0  0  0  0  0  0  0  0
    7.4580   71.2640   69.1430 C   0  0  0  0  0  0  0  0  0  0  0  0
    2.9477   67.1361   65.3235 H   0  0  0  0  0  0  0  0  0  0  0  0
    4.5736   67.8033   65.0286 H   0  0  0  0  0  0  0  0  0  0  0  0
    0.6749   68.5871   65.1990 H   0  0  0  0  0  0  0  0  0  0  0  0
   -1.5021   69.1932   64.1099 H   0  0  0  0  0  0  0  0  0  0  0  0
   -1.6118   69.6825   61.6662 H   0  0  0  0  0  0  0  0  0  0  0  0
    0.4709   69.5858   60.2589 H   0  0  0  0  0  0  0  0  0  0  0  0
    2.2663   69.5447   65.9533 H   0  0  0  0  0  0  0  0  0  0  0  0
    7.5942   70.2071   66.6262 H   0  0  0  0  0  0  0  0  0  0  0  0
    5.7326   69.2953   65.2591 H   0  0  0  0  0  0  0  0  0  0  0  0
    2.9537   70.1707   68.4342 H   0  0  0  0  0  0  0  0  0  0  0  0
    4.8129   71.0873   69.8058 H   0  0  0  0  0  0  0  0  0  0  0  0
    7.4501   71.3208   71.2960 H   0  0  0  0  0  0  0  0  0  0  0  0
    6.7511   69.8273   70.5834 H   0  0  0  0  0  0  0  0  0  0  0  0
    8.5302   70.0749   70.5834 H   0  0  0  0  0  0  0  0  0  0  0  0
    7.2868   72.3388   69.3030 H   0  0  0  0  0  0  0  0  0  0  0  0
    8.4001   71.0902   68.6025 H   0  0  0  0  0  0  0  0  0  0  0  0
  2  1  1  0
  3  2  1  0
  4  3  2  0
  5  4  1  0
  6  5  2  0
  7  6  1  0
  8  7  2  0
  8  3  1  0
  9  8  1  0
 10  9  2  0
 11  9  1  0
 11  2  1  0
 12 11  2  0
 13  1  1  0
 15 14  2  0
 16 15  1  0
 17 16  2  0
 17 13  1  0
 18 17  1  0
 19 18  2  0
 19 14  1  0
 21 20  1  0
 21 14  1  0
  1 22  1  0
  1 23  1  0
  4 24  1  0
  5 25  1  0
  6 26  1  0
  7 27  1  0
 13 28  1  0
 15 29  1  0
 16 30  1  0
 18 31  1  0
 19 32  1  0
 20 33  1  0
 20 34  1  0
 20 35  1  0
 21 36  1  0
 21 37  1  0
M  END
>  <score>  (2) 
-10.021

$$$$
=
     RDKit          3D

 37 39  0  0  0  0  0  0  0  0999 V2000
    2.9420   67.8590   64.5480 C   0  0  0  0  0  0  0  0  0  0  0  0
    1.5900   68.2940   64.3490 N   0  0  0  0  0  0  0  0  0  0  0  0
    0.5710   68.2470   65.3170 C   0  0  0  0  0  0  0  0  0  0  0  0
    0.6500   67.8590   66.6420 C   0  0  0  0  0  0  0  0  0  0  0  0
   -0.5200   67.9020   67.4100 C   0  0  0  0  0  0  0  0  0  0  0  0
   -1.7430   68.3250   66.8520 C   0  0  0  0  0  0  0  0  0  0  0  0
   -1.8160   68.7150   65.5140 C   0  0  0  0  0  0  0  0  0  0  0  0
   -0.6460   68.6630   64.7810 C   0  0  0  0  0  0  0  0  0  0  0  0
   -0.4110   68.9950   63.3770 C   0  0  0  0  0  0  0  0  0  0  0  0
   -1.2220   69.4000   62.5770 O   0  0  0  0  0  0  0  0  0  0  0  0
    1.0930   68.7120   63.1290 C   0  0  0  0  0  0  0  0  0  0  0  0
    1.6610   68.8370   62.0660 O   0  0  0  0  0  0  0  0  0  0  0  0
    3.7760   69.0410   64.5990 N   0  0  0  0  0  0  0  0  0  0  0  0
    5.5850   70.3970   68.1820 C   0  0  0  0  0  0  0  0  0  0  0  0
    6.3310   70.1860   67.0200 C   0  0  0  0  0  0  0  0  0  0  0  0
    5.7110   69.7260   65.8530 C   0  0  0  0  0  0  0  0  0  0  0  0
    4.3410   69.4300   65.8190 C   0  0  0  0  0  0  0  0  0  0  0  0
    3.5970   69.6810   66.9770 C   0  0  0  0  0  0  0  0  0  0  0  0
    4.2110   70.1410   68.1500 C   0  0  0  0  0  0  0  0  0  0  0  0
    7.7250   71.1740   69.2310 C   0  0  0  0  0  0  0  0  0  0  0  0
    6.2490   70.8750   69.4460 C   0  0  0  0  0  0  0  0  0  0  0  0
    3.0221   67.3017   65.4930 H   0  0  0  0  0  0  0  0  0  0  0  0
    3.2599   67.1953   63.7304 H   0  0  0  0  0  0  0  0  0  0  0  0
    1.6031   67.5267   67.0793 H   0  0  0  0  0  0  0  0  0  0  0  0
   -0.4839   67.6004   68.4672 H   0  0  0  0  0  0  0  0  0  0  0  0
   -2.6482   68.3480   67.4766 H   0  0  0  0  0  0  0  0  0  0  0  0
   -2.7623   69.0487   65.0633 H   0  0  0  0  0  0  0  0  0  0  0  0
    3.9519   69.5905   63.7458 H   0  0  0  0  0  0  0  0  0  0  0  0
    7.4132   70.3828   67.0224 H   0  0  0  0  0  0  0  0  0  0  0  0
    6.3122   69.5936   64.9414 H   0  0  0  0  0  0  0  0  0  0  0  0
    2.5098   69.5142   66.9667 H   0  0  0  0  0  0  0  0  0  0  0  0
    3.6058   70.3022   69.0543 H   0  0  0  0  0  0  0  0  0  0  0  0
    8.2244   71.2752   70.2059 H   0  0  0  0  0  0  0  0  0  0  0  0
    8.1873   70.3513   68.6658 H   0  0  0  0  0  0  0  0  0  0  0  0
    7.8306   72.1118   68.6658 H   0  0  0  0  0  0  0  0  0  0  0  0
    6.1522   70.0952   70.2158 H   0  0  0  0  0  0  0  0  0  0  0  0
    5.7542   71.8055   69.7611 H   0  0  0  0  0  0  0  0  0  0  0  0
  2  1  1  0
  3  2  1  0
  4  3  2  0
  5  4  1  0
  6  5  2  0
  7  6  1  0
  8  7  2  0
  8  3  1  0
  9  8  1  0
 10  9  2  0
 11  9  1  0
 11  2  1  0
 12 11  2  0
 13  1  1  0
 15 14  2  0
 16 15  1  0
 17 16  2  0
 17 13  1  0
 18 17  1  0
 19 18  2  0
 19 14  1  0
 21 20  1  0
 21 14  1  0
  1 22  1  0
  1 23  1  0
  4 24  1  0
  5 25  1  0
  6 26  1  0
  7 27  1  0
 13 28  1  0
 15 29  1  0
 16 30  1  0
 18 31  1  0
 19 32  1  0
 20 33  1  0
 20 34  1  0
 20 35  1  0
 21 36  1  0
 21 37  1  0
M  END
>  <score>  (3) 
-9.984

$$$$
=
     RDKit          3D

 37 39  0  0  0  0  0  0  0  0999 V2000
    2.0440   68.8140   67.0320 C   0  0  0  0  0  0  0  0  0  0  0  0
    0.9350   68.7550   66.1230 N   0  0  0  0  0  0  0  0  0  0  0  0
    1.0310   68.8010   64.7210 C   0  0  0  0  0  0  0  0  0  0  0  0
    2.1640   68.8370   63.9300 C   0  0  0  0  0  0  0  0  0  0  0  0
    1.9930   68.8790   62.5400 C   0  0  0  0  0  0  0  0  0  0  0  0
    0.7070   68.8870   61.9640 C   0  0  0  0  0  0  0  0  0  0  0  0
   -0.4320   68.8500   62.7690 C   0  0  0  0  0  0  0  0  0  0  0  0
   -0.2330   68.8090   64.1350 C   0  0  0  0  0  0  0  0  0  0  0  0
   -1.2140   68.7740   65.2190 C   0  0  0  0  0  0  0  0  0  0  0  0
   -2.4190   68.7630   65.1130 O   0  0  0  0  0  0  0  0  0  0  0  0
   -0.3860   68.7610   66.5290 C   0  0  0  0  0  0  0  0  0  0  0  0
   -0.8490   68.7650   67.6490 O   0  0  0  0  0  0  0  0  0  0  0  0
    3.1620   69.3950   66.3180 N   0  0  0  0  0  0  0  0  0  0  0  0
    6.4630   70.6380   68.6630 C   0  0  0  0  0  0  0  0  0  0  0  0
    5.1690   70.5940   69.1870 C   0  0  0  0  0  0  0  0  0  0  0  0
    4.0940   70.1910   68.3870 C   0  0  0  0  0  0  0  0  0  0  0  0
    4.2700   69.8550   67.0370 C   0  0  0  0  0  0  0  0  0  0  0  0
    5.5760   69.8670   66.5340 C   0  0  0  0  0  0  0  0  0  0  0  0
    6.6570   70.2690   67.3300 C   0  0  0  0  0  0  0  0  0  0  0  0
    7.5290   70.5380   70.9300 C   0  0  0  0  0  0  0  0  0  0  0  0
    7.6220   71.0870   69.5150 C   0  0  0  0  0  0  0  0  0  0  0  0
    1.7860   69.4399   67.8990 H   0  0  0  0  0  0  0  0  0  0  0  0
    2.2987   67.8084   67.3981 H   0  0  0  0  0  0  0  0  0  0  0  0
    3.1687   68.8328   64.3779 H   0  0  0  0  0  0  0  0  0  0  0  0
    2.8779   68.9062   61.8871 H   0  0  0  0  0  0  0  0  0  0  0  0
    0.6001   68.9227   60.8698 H   0  0  0  0  0  0  0  0  0  0  0  0
   -1.4428   68.8533   62.3352 H   0  0  0  0  0  0  0  0  0  0  0  0
    3.1414   69.4687   65.2908 H   0  0  0  0  0  0  0  0  0  0  0  0
    4.9939   70.8779   70.2352 H   0  0  0  0  0  0  0  0  0  0  0  0
    3.0875   70.1365   68.8273 H   0  0  0  0  0  0  0  0  0  0  0  0
    5.7572   69.5552   65.4948 H   0  0  0  0  0  0  0  0  0  0  0  0
    7.6693   70.2942   66.9003 H   0  0  0  0  0  0  0  0  0  0  0  0
    7.6678   71.3571   71.6510 H   0  0  0  0  0  0  0  0  0  0  0  0
    6.5405   70.0799   71.0813 H   0  0  0  0  0  0  0  0  0  0  0  0
    8.3115   69.7799   71.0813 H   0  0  0  0  0  0  0  0  0  0  0  0
    7.6266   72.1861   69.5592 H   0  0  0  0  0  0  0  0  0  0  0  0
    8.5483   70.7056   69.0606 H   0  0  0  0  0  0  0  0  0  0  0  0
  2  1  1  0
  3  2  1  0
  4  3  2  0
  5  4  1  0
  6  5  2  0
  7  6  1  0
  8  7  2  0
  8  3  1  0
  9  8  1  0
 10  9  2  0
 11  9  1  0
 11  2  1  0
 12 11  2  0
 13  1  1  0
 15 14  2  0
 16 15  1  0
 17 16  2  0
 17 13  1  0
 18 17  1  0
 19 18  2  0
 19 14  1  0
 21 20  1  0
 21 14  1  0
  1 22  1  0
  1 23  1  0
  4 24  1  0
  5 25  1  0
  6 26  1  0
  7 27  1  0
 13 28  1  0
 15 29  1  0
 16 30  1  0
 18 31  1  0
 19 32  1  0
 20 33  1  0
 20 34  1  0
 20 35  1  0
 21 36  1  0
 21 37  1  0
M  END
>  <score>  (4) 
-9.294

$$$$
=
     RDKit          3D

 37 39  0  0  0  0  0  0  0  0999 V2000
    1.1420   69.7470   67.2700 C   0  0  0  0  0  0  0  0  0  0  0  0
    0.2220   68.6860   67.5640 N   0  0  0  0  0  0  0  0  0  0  0  0
    0.4360   67.6620   68.5040 C   0  0  0  0  0  0  0  0  0  0  0  0
    1.4980   67.4910   69.3730 C   0  0  0  0  0  0  0  0  0  0  0  0
    1.4790   66.3770   70.2220 C   0  0  0  0  0  0  0  0  0  0  0  0
    0.4120   65.4570   70.1920 C   0  0  0  0  0  0  0  0  0  0  0  0
   -0.6570   65.6360   69.3130 C   0  0  0  0  0  0  0  0  0  0  0  0
   -0.6110   66.7440   68.4880 C   0  0  0  0  0  0  0  0  0  0  0  0
   -1.5630   67.1880   67.4720 C   0  0  0  0  0  0  0  0  0  0  0  0
   -2.6060   66.6570   67.1660 O   0  0  0  0  0  0  0  0  0  0  0  0
   -0.9540   68.4780   66.8670 C   0  0  0  0  0  0  0  0  0  0  0  0
   -1.4400   69.1250   65.9650 O   0  0  0  0  0  0  0  0  0  0  0  0
    2.3820   69.1400   66.8350 N   0  0  0  0  0  0  0  0  0  0  0  0
    6.0680   70.7000   68.2190 C   0  0  0  0  0  0  0  0  0  0  0  0
    5.9270   70.1970   66.9240 C   0  0  0  0  0  0  0  0  0  0  0  0
    4.7010   69.6760   66.4960 C   0  0  0  0  0  0  0  0  0  0  0  0
    3.5940   69.6090   67.3530 C   0  0  0  0  0  0  0  0  0  0  0  0
    3.7360   70.1500   68.6360 C   0  0  0  0  0  0  0  0  0  0  0  0
    4.9610   70.6720   69.0710 C   0  0  0  0  0  0  0  0  0  0  0  0
    7.7160   70.7920   70.1060 C   0  0  0  0  0  0  0  0  0  0  0  0
    7.3900   71.2460   68.6920 C   0  0  0  0  0  0  0  0  0  0  0  0
    0.7361   70.3855   66.4715 H   0  0  0  0  0  0  0  0  0  0  0  0
    1.3082   70.3730   68.1591 H   0  0  0  0  0  0  0  0  0  0  0  0
    2.3321   68.2078   69.3968 H   0  0  0  0  0  0  0  0  0  0  0  0
    2.3109   66.2177   70.9239 H   0  0  0  0  0  0  0  0  0  0  0  0
    0.4218   64.5893   70.8680 H   0  0  0  0  0  0  0  0  0  0  0  0
   -1.4978   64.9276   69.2783 H   0  0  0  0  0  0  0  0  0  0  0  0
    2.3721   68.3702   66.1507 H   0  0  0  0  0  0  0  0  0  0  0  0
    6.7852   70.2104   66.2360 H   0  0  0  0  0  0  0  0  0  0  0  0
    4.6037   69.3105   65.4631 H   0  0  0  0  0  0  0  0  0  0  0  0
    2.8705   70.1656   69.3147 H   0  0  0  0  0  0  0  0  0  0  0  0
    5.0524   71.0642   70.0946 H   0  0  0  0  0  0  0  0  0  0  0  0
    7.2321   71.4659   70.8282 H   0  0  0  0  0  0  0  0  0  0  0  0
    7.3463   69.7669   70.2564 H   0  0  0  0  0  0  0  0  0  0  0  0
    8.8054   70.8147   70.2564 H   0  0  0  0  0  0  0  0  0  0  0  0
    7.3489   72.3450   68.6717 H   0  0  0  0  0  0  0  0  0  0  0  0
    8.1756   70.8668   68.0219 H   0  0  0  0  0  0  0  0  0  0  0  0
  2  1  1  0
  3  2  1  0
  4  3  2  0
  5  4  1  0
  6  5  2  0
  7  6  1  0
  8  7  2  0
  8  3  1  0
  9  8  1  0
 10  9  2  0
 11  9  1  0
 11  2  1  0
 12 11  2  0
 13  1  1  0
 15 14  2  0
 16 15  1  0
 17 16  2  0
 17 13  1  0
 18 17  1  0
 19 18  2  0
 19 14  1  0
 21 20  1  0
 21 14  1  0
  1 22  1  0
  1 23  1  0
  4 24  1  0
  5 25  1  0
  6 26  1  0
  7 27  1  0
 13 28  1  0
 15 29  1  0
 16 30  1  0
 18 31  1  0
 19 32  1  0
 20 33  1  0
 20 34  1  0
 20 35  1  0
 21 36  1  0
 21 37  1  0
M  END
>  <score>  (5) 
-9.175

$$$$
=
     RDKit          3D

 37 39  0  0  0  0  0  0  0  0999 V2000
    1.4300   69.8530   67.8830 C   0  0  0  0  0  0  0  0  0  0  0  0
    0.6060   68.6830   67.9910 N   0  0  0  0  0  0  0  0  0  0  0  0
   -0.6270   68.4960   67.3430 C   0  0  0  0  0  0  0  0  0  0  0  0
   -1.2660   69.3230   66.4370 C   0  0  0  0  0  0  0  0  0  0  0  0
   -2.5020   68.9070   65.9270 C   0  0  0  0  0  0  0  0  0  0  0  0
   -3.0810   67.6850   66.3240 C   0  0  0  0  0  0  0  0  0  0  0  0
   -2.4310   66.8550   67.2380 C   0  0  0  0  0  0  0  0  0  0  0  0
   -1.2130   67.2900   67.7240 C   0  0  0  0  0  0  0  0  0  0  0  0
   -0.3130   66.6550   68.6850 C   0  0  0  0  0  0  0  0  0  0  0  0
   -0.4690   65.5920   69.2400 O   0  0  0  0  0  0  0  0  0  0  0  0
    0.8790   67.6330   68.8480 C   0  0  0  0  0  0  0  0  0  0  0  0
    1.8210   67.4690   69.5920 O   0  0  0  0  0  0  0  0  0  0  0  0
    2.8050   69.4100   67.7850 N   0  0  0  0  0  0  0  0  0  0  0  0
    4.8210   69.0610   64.0760 C   0  0  0  0  0  0  0  0  0  0  0  0
    5.4210   69.6690   65.1810 C   0  0  0  0  0  0  0  0  0  0  0  0
    4.7290   69.7820   66.3910 C   0  0  0  0  0  0  0  0  0  0  0  0
    3.4100   69.3260   66.5260 C   0  0  0  0  0  0  0  0  0  0  0  0
    2.8320   68.6850   65.4240 C   0  0  0  0  0  0  0  0  0  0  0  0
    3.5200   68.5690   64.2090 C   0  0  0  0  0  0  0  0  0  0  0  0
    4.6360   69.2020   61.5800 C   0  0  0  0  0  0  0  0  0  0  0  0
    5.5550   68.9520   62.7650 C   0  0  0  0  0  0  0  0  0  0  0  0
    1.1547   70.4245   66.9843 H   0  0  0  0  0  0  0  0  0  0  0  0
    1.2945   70.5043   68.7591 H   0  0  0  0  0  0  0  0  0  0  0  0
   -0.8171   70.2781   66.1267 H   0  0  0  0  0  0  0  0  0  0  0  0
   -3.0304   69.5454   65.2036 H   0  0  0  0  0  0  0  0  0  0  0  0
   -4.0541   67.3828   65.9096 H   0  0  0  0  0  0  0  0  0  0  0  0
   -2.8685   65.8976   67.5572 H   0  0  0  0  0  0  0  0  0  0  0  0
    3.3325   69.1592   68.6334 H   0  0  0  0  0  0  0  0  0  0  0  0
    6.4452   70.0618   65.0989 H   0  0  0  0  0  0  0  0  0  0  0  0
    5.2309   70.2390   67.2566 H   0  0  0  0  0  0  0  0  0  0  0  0
    1.8194   68.2648   65.5135 H   0  0  0  0  0  0  0  0  0  0  0  0
    3.0307   68.0854   63.3506 H   0  0  0  0  0  0  0  0  0  0  0  0
    3.6343   69.4745   61.9439 H   0  0  0  0  0  0  0  0  0  0  0  0
    5.0401   70.0228   60.9694 H   0  0  0  0  0  0  0  0  0  0  0  0
    4.5686   68.2895   60.9694 H   0  0  0  0  0  0  0  0  0  0  0  0
    5.9806   67.9414   62.6783 H   0  0  0  0  0  0  0  0  0  0  0  0
    6.3455   69.7168   62.7515 H   0  0  0  0  0  0  0  0  0  0  0  0
  2  1  1  0
  3  2  1  0
  4  3  2  0
  5  4  1  0
  6  5  2  0
  7  6  1  0
  8  7  2  0
  8  3  1  0
  9  8  1  0
 10  9  2  0
 11  9  1  0
 11  2  1  0
 12 11  2  0
 13  1  1  0
 15 14  2  0
 16 15  1  0
 17 16  2  0
 17 13  1  0
 18 17  1  0
 19 18  2  0
 19 14  1  0
 21 20  1  0
 21 14  1  0
  1 22  1  0
  1 23  1  0
  4 24  1  0
  5 25  1  0
  6 26  1  0
  7 27  1  0
 13 28  1  0
 15 29  1  0
 16 30  1  0
 18 31  1  0
 19 32  1  0
 20 33  1  0
 20 34  1  0
 20 35  1  0
 21 36  1  0
 21 37  1  0
M  END
>  <score>  (6) 
-8.963

$$$$
=
     RDKit          3D

 37 39  0  0  0  0  0  0  0  0999 V2000
    0.7400   66.9290   69.1390 C   0  0  0  0  0  0  0  0  0  0  0  0
    0.1920   67.3600   67.8850 N   0  0  0  0  0  0  0  0  0  0  0  0
    0.9380   67.8370   66.7930 C   0  0  0  0  0  0  0  0  0  0  0  0
    2.3110   67.9270   66.6540 C   0  0  0  0  0  0  0  0  0  0  0  0
    2.8170   68.4430   65.4540 C   0  0  0  0  0  0  0  0  0  0  0  0
    1.9560   68.8600   64.4200 C   0  0  0  0  0  0  0  0  0  0  0  0
    0.5710   68.7660   64.5670 C   0  0  0  0  0  0  0  0  0  0  0  0
    0.1010   68.2530   65.7600 C   0  0  0  0  0  0  0  0  0  0  0  0
   -1.2750   68.0440   66.2060 C   0  0  0  0  0  0  0  0  0  0  0  0
   -2.2870   68.2780   65.5860 O   0  0  0  0  0  0  0  0  0  0  0  0
   -1.1650   67.4660   67.6390 C   0  0  0  0  0  0  0  0  0  0  0  0
   -2.1020   67.1910   68.3560 O   0  0  0  0  0  0  0  0  0  0  0  0
    0.0500   65.7150   69.5210 N   0  0  0  0  0  0  0  0  0  0  0  0
    2.3270   62.7590   71.5250 C   0  0  0  0  0  0  0  0  0  0  0  0
    2.9320   63.8610   70.9160 C   0  0  0  0  0  0  0  0  0  0  0  0
    2.1580   64.8160   70.2500 C   0  0  0  0  0  0  0  0  0  0  0  0
    0.7660   64.6860   70.1410 C   0  0  0  0  0  0  0  0  0  0  0  0
    0.1670   63.5990   70.7870 C   0  0  0  0  0  0  0  0  0  0  0  0
    0.9370   62.6380   71.4560 C   0  0  0  0  0  0  0  0  0  0  0  0
    4.5990   61.7240   71.7470 C   0  0  0  0  0  0  0  0  0  0  0  0
    3.1570   61.7170   72.2290 C   0  0  0  0  0  0  0  0  0  0  0  0
    1.8165   66.7308   69.0302 H   0  0  0  0  0  0  0  0  0  0  0  0
    0.6100   67.7064   69.9063 H   0  0  0  0  0  0  0  0  0  0  0  0
    2.9850   67.6034   67.4609 H   0  0  0  0  0  0  0  0  0  0  0  0
    3.9054   68.5240   65.3168 H   0  0  0  0  0  0  0  0  0  0  0  0
    2.3789   69.2634   63.4881 H   0  0  0  0  0  0  0  0  0  0  0  0
   -0.1149   69.0860   63.7688 H   0  0  0  0  0  0  0  0  0  0  0  0
   -0.9582   65.6102   69.3380 H   0  0  0  0  0  0  0  0  0  0  0  0
    4.0248   63.9782   70.9607 H   0  0  0  0  0  0  0  0  0  0  0  0
    2.6526   65.6899   69.8009 H   0  0  0  0  0  0  0  0  0  0  0  0
   -0.9281   63.4969   70.7694 H   0  0  0  0  0  0  0  0  0  0  0  0
    0.4414   61.7790   71.9320 H   0  0  0  0  0  0  0  0  0  0  0  0
    5.2755   61.7273   72.6144 H   0  0  0  0  0  0  0  0  0  0  0  0
    4.7867   60.8268   71.1390 H   0  0  0  0  0  0  0  0  0  0  0  0
    4.7780   62.6230   71.1390 H   0  0  0  0  0  0  0  0  0  0  0  0
    2.7219   60.7253   72.0363 H   0  0  0  0  0  0  0  0  0  0  0  0
    3.1547   61.9473   73.3046 H   0  0  0  0  0  0  0  0  0  0  0  0
  2  1  1  0
  3  2  1  0
  4  3  2  0
  5  4  1  0
  6  5  2  0
  7  6  1  0
  8  7  2  0
  8  3  1  0
  9  8  1  0
 10  9  2  0
 11  9  1  0
 11  2  1  0
 12 11  2  0
 13  1  1  0
 15 14  2  0
 16 15  1  0
 17 16  2  0
 17 13  1  0
 18 17  1  0
 19 18  2  0
 19 14  1  0
 21 20  1  0
 21 14  1  0
  1 22  1  0
  1 23  1  0
  4 24  1  0
  5 25  1  0
  6 26  1  0
  7 27  1  0
 13 28  1  0
 15 29  1  0
 16 30  1  0
 18 31  1  0
 19 32  1  0
 20 33  1  0
 20 34  1  0
 20 35  1  0
 21 36  1  0
 21 37  1  0
M  END
>  <score>  (7) 
-8.238

$$$$
=
     RDKit          3D

 37 39  0  0  0  0  0  0  0  0999 V2000
    0.8730   63.0110   72.7410 C   0  0  0  0  0  0  0  0  0  0  0  0
    1.7740   62.7190   71.6630 N   0  0  0  0  0  0  0  0  0  0  0  0
    3.0190   62.0770   71.7960 C   0  0  0  0  0  0  0  0  0  0  0  0
    3.6010   61.5400   72.9290 C   0  0  0  0  0  0  0  0  0  0  0  0
    4.8630   60.9470   72.8010 C   0  0  0  0  0  0  0  0  0  0  0  0
    5.5220   60.9000   71.5560 C   0  0  0  0  0  0  0  0  0  0  0  0
    4.9280   61.4430   70.4160 C   0  0  0  0  0  0  0  0  0  0  0  0
    3.6830   62.0210   70.5730 C   0  0  0  0  0  0  0  0  0  0  0  0
    2.8270   62.6720   69.5830 C   0  0  0  0  0  0  0  0  0  0  0  0
    3.0540   62.8170   68.4040 O   0  0  0  0  0  0  0  0  0  0  0  0
    1.5720   63.1400   70.3620 C   0  0  0  0  0  0  0  0  0  0  0  0
    0.6420   63.7540   69.8860 O   0  0  0  0  0  0  0  0  0  0  0  0
   -0.4110   62.4370   72.4030 N   0  0  0  0  0  0  0  0  0  0  0  0
   -1.4540   58.8630   74.4230 C   0  0  0  0  0  0  0  0  0  0  0  0
   -0.2100   59.0190   73.8070 C   0  0  0  0  0  0  0  0  0  0  0  0
    0.1040   60.2060   73.1360 C   0  0  0  0  0  0  0  0  0  0  0  0
   -0.8200   61.2540   73.0290 C   0  0  0  0  0  0  0  0  0  0  0  0
   -2.0480   61.1020   73.6810 C   0  0  0  0  0  0  0  0  0  0  0  0
   -2.3700   59.9160   74.3550 C   0  0  0  0  0  0  0  0  0  0  0  0
   -1.0110   56.4020   74.5940 C   0  0  0  0  0  0  0  0  0  0  0  0
   -1.8050   57.5810   75.1330 C   0  0  0  0  0  0  0  0  0  0  0  0
    1.2485   62.5672   73.6748 H   0  0  0  0  0  0  0  0  0  0  0  0
    0.7847   64.0975   72.8882 H   0  0  0  0  0  0  0  0  0  0  0  0
    3.0884   61.5774   73.9015 H   0  0  0  0  0  0  0  0  0  0  0  0
    5.3480   60.5107   73.6866 H   0  0  0  0  0  0  0  0  0  0  0  0
    6.5142   60.4307   71.4823 H   0  0  0  0  0  0  0  0  0  0  0  0
    5.4283   61.4122   69.4368 H   0  0  0  0  0  0  0  0  0  0  0  0
   -1.0184   62.8945   71.7083 H   0  0  0  0  0  0  0  0  0  0  0  0
    0.5272   58.2037   73.8497 H   0  0  0  0  0  0  0  0  0  0  0  0
    1.0995   60.3191   72.6819 H   0  0  0  0  0  0  0  0  0  0  0  0
   -2.7742   61.9281   73.6645 H   0  0  0  0  0  0  0  0  0  0  0  0
   -3.3542   59.8131   74.8355 H   0  0  0  0  0  0  0  0  0  0  0  0
   -0.6141   55.8126   75.4337 H   0  0  0  0  0  0  0  0  0  0  0  0
   -1.6671   55.7684   73.9791 H   0  0  0  0  0  0  0  0  0  0  0  0
   -0.1772   56.7718   73.9791 H   0  0  0  0  0  0  0  0  0  0  0  0
   -2.8778   57.3803   74.9961 H   0  0  0  0  0  0  0  0  0  0  0  0
   -1.5583   57.7013   76.1982 H   0  0  0  0  0  0  0  0  0  0  0  0
  2  1  1  0
  3  2  1  0
  4  3  2  0
  5  4  1  0
  6  5  2  0
  7  6  1  0
  8  7  2  0
  8  3  1  0
  9  8  1  0
 10  9  2  0
 11  9  1  0
 11  2  1  0
 12 11  2  0
 13  1  1  0
 15 14  2  0
 16 15  1  0
 17 16  2  0
 17 13  1  0
 18 17  1  0
 19 18  2  0
 19 14  1  0
 21 20  1  0
 21 14  1  0
  1 22  1  0
  1 23  1  0
  4 24  1  0
  5 25  1  0
  6 26  1  0
  7 27  1  0
 13 28  1  0
 15 29  1  0
 16 30  1  0
 18 31  1  0
 19 32  1  0
 20 33  1  0
 20 34  1  0
 20 35  1  0
 21 36  1  0
 21 37  1  0
M  END
>  <score>  (8) 
-8.035

$$$$
=
     RDKit          3D

 37 39  0  0  0  0  0  0  0  0999 V2000
    2.3110   59.8690   73.3620 C   0  0  0  0  0  0  0  0  0  0  0  0
    2.8430   60.1080   72.0510 N   0  0  0  0  0  0  0  0  0  0  0  0
    2.8670   61.3530   71.3990 C   0  0  0  0  0  0  0  0  0  0  0  0
    2.4720   62.5890   71.8760 C   0  0  0  0  0  0  0  0  0  0  0  0
    2.5970   63.6930   71.0220 C   0  0  0  0  0  0  0  0  0  0  0  0
    3.1090   63.5490   69.7170 C   0  0  0  0  0  0  0  0  0  0  0  0
    3.5070   62.2990   69.2430 C   0  0  0  0  0  0  0  0  0  0  0  0
    3.3720   61.2290   70.1070 C   0  0  0  0  0  0  0  0  0  0  0  0
    3.6890   59.8180   69.8980 C   0  0  0  0  0  0  0  0  0  0  0  0
    4.1540   59.3130   68.9020 O   0  0  0  0  0  0  0  0  0  0  0  0
    3.2990   59.1040   71.2170 C   0  0  0  0  0  0  0  0  0  0  0  0
    3.3850   57.9120   71.4190 O   0  0  0  0  0  0  0  0  0  0  0  0
    1.1690   58.9910   73.2160 N   0  0  0  0  0  0  0  0  0  0  0  0
   -2.6730   60.4440   74.2500 C   0  0  0  0  0  0  0  0  0  0  0  0
   -2.2130   59.2060   74.7030 C   0  0  0  0  0  0  0  0  0  0  0  0
   -0.9440   58.7440   74.3370 C   0  0  0  0  0  0  0  0  0  0  0  0
   -0.1130   59.4830   73.4830 C   0  0  0  0  0  0  0  0  0  0  0  0
   -0.5680   60.7380   73.0660 C   0  0  0  0  0  0  0  0  0  0  0  0
   -1.8380   61.2070   73.4290 C   0  0  0  0  0  0  0  0  0  0  0  0
   -5.0620   59.8110   74.6640 C   0  0  0  0  0  0  0  0  0  0  0  0
   -4.0450   60.9400   74.6270 C   0  0  0  0  0  0  0  0  0  0  0  0
    3.0732   59.3913   73.9951 H   0  0  0  0  0  0  0  0  0  0  0  0
    2.0133   60.8153   73.8372 H   0  0  0  0  0  0  0  0  0  0  0  0
    2.0720   62.7023   72.8944 H   0  0  0  0  0  0  0  0  0  0  0  0
    2.2904   64.6883   71.3761 H   0  0  0  0  0  0  0  0  0  0  0  0
    3.1956   64.4312   69.0657 H   0  0  0  0  0  0  0  0  0  0  0  0
    3.9100   62.1708   68.2276 H   0  0  0  0  0  0  0  0  0  0  0  0
    1.2993   58.0136   72.9184 H   0  0  0  0  0  0  0  0  0  0  0  0
   -2.8525   58.5897   75.3520 H   0  0  0  0  0  0  0  0  0  0  0  0
   -0.5901   57.7788   74.7283 H   0  0  0  0  0  0  0  0  0  0  0  0
    0.0825   61.3684   72.4419 H   0  0  0  0  0  0  0  0  0  0  0  0
   -2.1812   62.1862   73.0638 H   0  0  0  0  0  0  0  0  0  0  0  0
   -5.2904   59.5574   75.7097 H   0  0  0  0  0  0  0  0  0  0  0  0
   -5.9831   60.1304   74.1545 H   0  0  0  0  0  0  0  0  0  0  0  0
   -4.6485   58.9281   74.1545 H   0  0  0  0  0  0  0  0  0  0  0  0
   -4.3692   61.6873   73.8878 H   0  0  0  0  0  0  0  0  0  0  0  0
   -3.9853   61.3800   75.6334 H   0  0  0  0  0  0  0  0  0  0  0  0
  2  1  1  0
  3  2  1  0
  4  3  2  0
  5  4  1  0
  6  5  2  0
  7  6  1  0
  8  7  2  0
  8  3  1  0
  9  8  1  0
 10  9  2  0
 11  9  1  0
 11  2  1  0
 12 11  2  0
 13  1  1  0
 15 14  2  0
 16 15  1  0
 17 16  2  0
 17 13  1  0
 18 17  1  0
 19 18  2  0
 19 14  1  0
 21 20  1  0
 21 14  1  0
  1 22  1  0
  1 23  1  0
  4 24  1  0
  5 25  1  0
  6 26  1  0
  7 27  1  0
 13 28  1  0
 15 29  1  0
 16 30  1  0
 18 31  1  0
 19 32  1  0
 20 33  1  0
 20 34  1  0
 20 35  1  0
 21 36  1  0
 21 37  1  0
M  END
>  <score>  (9) 
-7.992

$$$$
