=
     RDKit          3D

 26 29  0  0  0  0  0  0  0  0999 V2000
    1.0170   69.0290   67.6360 O   0  0  0  0  0  0  0  0  0  0  0  0
    1.6750   68.9830   66.6230 C   0  0  0  0  0  0  0  0  0  0  0  0
    3.0900   69.3580   66.4240 C   0  0  0  0  0  0  0  0  0  0  0  0
    4.0470   69.8560   67.3110 C   0  0  0  0  0  0  0  0  0  0  0  0
    3.7970   70.1080   68.6750 C   0  0  0  0  0  0  0  0  0  0  0  0
    4.8030   70.6070   69.5030 C   0  0  0  0  0  0  0  0  0  0  0  0
    6.0690   70.8610   68.9850 C   0  0  0  0  0  0  0  0  0  0  0  0
    6.3370   70.6180   67.6370 C   0  0  0  0  0  0  0  0  0  0  0  0
    5.3420   70.1170   66.7810 C   0  0  0  0  0  0  0  0  0  0  0  0
    5.6240   69.8730   65.4120 C   0  0  0  0  0  0  0  0  0  0  0  0
    4.6400   69.3700   64.5380 C   0  0  0  0  0  0  0  0  0  0  0  0
    3.3880   69.1280   65.0920 C   0  0  0  0  0  0  0  0  0  0  0  0
    2.3340   68.6350   64.3490 C   0  0  0  0  0  0  0  0  0  0  0  0
    1.1770   68.5030   65.2390 C   0  0  0  0  0  0  0  0  0  0  0  0
    0.0730   68.1040   64.9520 O   0  0  0  0  0  0  0  0  0  0  0  0
    2.4610   68.3510   63.0030 C   0  0  0  0  0  0  0  0  0  0  0  0
    3.7090   68.5820   62.4100 C   0  0  0  0  0  0  0  0  0  0  0  0
    4.7900   69.0850   63.1640 C   0  0  0  0  0  0  0  0  0  0  0  0
    2.7983   69.9092   69.0911 H   0  0  0  0  0  0  0  0  0  0  0  0
    4.5951   70.7997   70.5658 H   0  0  0  0  0  0  0  0  0  0  0  0
    6.8608   71.2543   69.6395 H   0  0  0  0  0  0  0  0  0  0  0  0
    7.3420   70.8217   67.2390 H   0  0  0  0  0  0  0  0  0  0  0  0
    6.6324   70.0810   65.0248 H   0  0  0  0  0  0  0  0  0  0  0  0
    1.6150   67.9587   62.4195 H   0  0  0  0  0  0  0  0  0  0  0  0
    3.8482   68.3679   61.3401 H   0  0  0  0  0  0  0  0  0  0  0  0
    5.7605   69.2570   62.6756 H   0  0  0  0  0  0  0  0  0  0  0  0
  2  1  2  0
  3  2  1  0
  4  3  2  0
  5  4  1  0
  6  5  2  0
  7  6  1  0
  8  7  2  0
  9  4  1  0
  9  8  1  0
 10  9  2  0
 11 10  1  0
 12 11  2  0
 12  3  1  0
 13 12  1  0
 14 13  1  0
 14  2  1  0
 15 14  2  0
 16 13  2  0
 17 16  1  0
 18 17  2  0
 18 11  1  0
  5 19  1  0
  6 20  1  0
  7 21  1  0
  8 22  1  0
 10 23  1  0
 16 24  1  0
 17 25  1  0
 18 26  1  0
M  END
>  <score>  (1) 
-12.272

$$$$
=
     RDKit          3D

 26 29  0  0  0  0  0  0  0  0999 V2000
    5.5370   69.2860   63.9160 O   0  0  0  0  0  0  0  0  0  0  0  0
    4.4750   69.1770   64.4830 C   0  0  0  0  0  0  0  0  0  0  0  0
    4.1490   69.4770   65.8930 C   0  0  0  0  0  0  0  0  0  0  0  0
    4.9370   69.9540   66.9430 C   0  0  0  0  0  0  0  0  0  0  0  0
    6.3080   70.2580   66.8200 C   0  0  0  0  0  0  0  0  0  0  0  0
    7.0330   70.7320   67.9130 C   0  0  0  0  0  0  0  0  0  0  0  0
    6.4050   70.9080   69.1420 C   0  0  0  0  0  0  0  0  0  0  0  0
    5.0480   70.6120   69.2840 C   0  0  0  0  0  0  0  0  0  0  0  0
    4.2950   70.1340   68.2000 C   0  0  0  0  0  0  0  0  0  0  0  0
    2.9160   69.8370   68.3550 C   0  0  0  0  0  0  0  0  0  0  0  0
    2.1430   69.3570   67.2790 C   0  0  0  0  0  0  0  0  0  0  0  0
    2.8050   69.1940   66.0680 C   0  0  0  0  0  0  0  0  0  0  0  0
    2.1680   68.7310   64.9340 C   0  0  0  0  0  0  0  0  0  0  0  0
    3.1540   68.6820   63.8510 C   0  0  0  0  0  0  0  0  0  0  0  0
    2.9720   68.3290   62.7090 O   0  0  0  0  0  0  0  0  0  0  0  0
    0.8260   68.4010   64.9350 C   0  0  0  0  0  0  0  0  0  0  0  0
    0.1260   68.5530   66.1380 C   0  0  0  0  0  0  0  0  0  0  0  0
    0.7710   69.0250   67.3010 C   0  0  0  0  0  0  0  0  0  0  0  0
    6.8113   70.1199   65.8517 H   0  0  0  0  0  0  0  0  0  0  0  0
    8.1020   70.9669   67.8034 H   0  0  0  0  0  0  0  0  0  0  0  0
    6.9786   71.2810   70.0033 H   0  0  0  0  0  0  0  0  0  0  0  0
    4.5615   70.7555   70.2601 H   0  0  0  0  0  0  0  0  0  0  0  0
    2.4404   69.9846   69.3358 H   0  0  0  0  0  0  0  0  0  0  0  0
    0.3273   68.0333   64.0261 H   0  0  0  0  0  0  0  0  0  0  0  0
   -0.9439   68.3004   66.1772 H   0  0  0  0  0  0  0  0  0  0  0  0
    0.1990   69.1354   68.2341 H   0  0  0  0  0  0  0  0  0  0  0  0
  2  1  2  0
  3  2  1  0
  4  3  2  0
  5  4  1  0
  6  5  2  0
  7  6  1  0
  8  7  2  0
  9  4  1  0
  9  8  1  0
 10  9  2  0
 11 10  1  0
 12 11  2  0
 12  3  1  0
 13 12  1  0
 14 13  1  0
 14  2  1  0
 15 14  2  0
 16 13  2  0
 17 16  1  0
 18 17  2  0
 18 11  1  0
  5 19  1  0
  6 20  1  0
  7 21  1  0
  8 22  1  0
 10 23  1  0
 16 24  1  0
 17 25  1  0
 18 26  1  0
M  END
>  <score>  (2) 
-11.976

$$$$
=
     RDKit          3D

 26 29  0  0  0  0  0  0  0  0999 V2000
    0.5440   68.1200   65.1180 O   0  0  0  0  0  0  0  0  0  0  0  0
    1.3800   68.5840   65.8580 C   0  0  0  0  0  0  0  0  0  0  0  0
    2.7650   68.9920   65.5460 C   0  0  0  0  0  0  0  0  0  0  0  0
    3.4900   68.9640   64.3520 C   0  0  0  0  0  0  0  0  0  0  0  0
    2.9690   68.4950   63.1290 C   0  0  0  0  0  0  0  0  0  0  0  0
    3.7520   68.4960   61.9740 C   0  0  0  0  0  0  0  0  0  0  0  0
    5.0620   68.9620   62.0220 C   0  0  0  0  0  0  0  0  0  0  0  0
    5.5960   69.4300   63.2240 C   0  0  0  0  0  0  0  0  0  0  0  0
    4.8300   69.4390   64.4000 C   0  0  0  0  0  0  0  0  0  0  0  0
    5.3820   69.9170   65.6170 C   0  0  0  0  0  0  0  0  0  0  0  0
    4.6290   69.9350   66.8080 C   0  0  0  0  0  0  0  0  0  0  0  0
    3.3250   69.4620   66.7210 C   0  0  0  0  0  0  0  0  0  0  0  0
    2.4790   69.4240   67.8100 C   0  0  0  0  0  0  0  0  0  0  0  0
    1.1950   68.8750   67.3670 C   0  0  0  0  0  0  0  0  0  0  0  0
    0.2060   68.6880   68.0350 O   0  0  0  0  0  0  0  0  0  0  0  0
    2.8790   69.8570   69.0600 C   0  0  0  0  0  0  0  0  0  0  0  0
    4.1880   70.3410   69.1870 C   0  0  0  0  0  0  0  0  0  0  0  0
    5.0580   70.3820   68.0760 C   0  0  0  0  0  0  0  0  0  0  0  0
    1.9343   68.1243   63.0847 H   0  0  0  0  0  0  0  0  0  0  0  0
    3.3335   68.1283   61.0255 H   0  0  0  0  0  0  0  0  0  0  0  0
    5.6783   68.9617   61.1109 H   0  0  0  0  0  0  0  0  0  0  0  0
    6.6326   69.7972   63.2498 H   0  0  0  0  0  0  0  0  0  0  0  0
    6.4199   70.2812   65.6309 H   0  0  0  0  0  0  0  0  0  0  0  0
    2.1963   69.8230   69.9219 H   0  0  0  0  0  0  0  0  0  0  0  0
    4.5427   70.6941   70.1666 H   0  0  0  0  0  0  0  0  0  0  0  0
    6.0812   70.7664   68.2000 H   0  0  0  0  0  0  0  0  0  0  0  0
  2  1  2  0
  3  2  1  0
  4  3  2  0
  5  4  1  0
  6  5  2  0
  7  6  1  0
  8  7  2  0
  9  4  1  0
  9  8  1  0
 10  9  2  0
 11 10  1  0
 12 11  2  0
 12  3  1  0
 13 12  1  0
 14 13  1  0
 14  2  1  0
 15 14  2  0
 16 13  2  0
 17 16  1  0
 18 17  2  0
 18 11  1  0
  5 19  1  0
  6 20  1  0
  7 21  1  0
  8 22  1  0
 10 23  1  0
 16 24  1  0
 17 25  1  0
 18 26  1  0
M  END
>  <score>  (3) 
-11.681

$$$$
=
     RDKit          3D

 26 29  0  0  0  0  0  0  0  0999 V2000
    1.0980   69.3410   67.6060 O   0  0  0  0  0  0  0  0  0  0  0  0
    2.2800   69.5850   67.5380 C   0  0  0  0  0  0  0  0  0  0  0  0
    3.1790   69.4760   66.3710 C   0  0  0  0  0  0  0  0  0  0  0  0
    2.9380   69.0760   65.0540 C   0  0  0  0  0  0  0  0  0  0  0  0
    1.6760   68.6700   64.5750 C   0  0  0  0  0  0  0  0  0  0  0  0
    1.5100   68.2840   63.2450 C   0  0  0  0  0  0  0  0  0  0  0  0
    2.5950   68.2950   62.3760 C   0  0  0  0  0  0  0  0  0  0  0  0
    3.8540   68.6930   62.8300 C   0  0  0  0  0  0  0  0  0  0  0  0
    4.0490   69.0870   64.1640 C   0  0  0  0  0  0  0  0  0  0  0  0
    5.3320   69.4900   64.6160 C   0  0  0  0  0  0  0  0  0  0  0  0
    5.5470   69.8900   65.9510 C   0  0  0  0  0  0  0  0  0  0  0  0
    4.4390   69.8660   66.7890 C   0  0  0  0  0  0  0  0  0  0  0  0
    4.5100   70.2310   68.1180 C   0  0  0  0  0  0  0  0  0  0  0  0
    3.1720   70.0880   68.6980 C   0  0  0  0  0  0  0  0  0  0  0  0
    2.8380   70.3140   69.8370 O   0  0  0  0  0  0  0  0  0  0  0  0
    5.6940   70.6460   68.6980 C   0  0  0  0  0  0  0  0  0  0  0  0
    6.8330   70.6830   67.8840 C   0  0  0  0  0  0  0  0  0  0  0  0
    6.7660   70.3110   66.5240 C   0  0  0  0  0  0  0  0  0  0  0  0
    0.8132   68.6575   65.2572 H   0  0  0  0  0  0  0  0  0  0  0  0
    0.5196   67.9706   62.8834 H   0  0  0  0  0  0  0  0  0  0  0  0
    2.4613   67.9893   61.3278 H   0  0  0  0  0  0  0  0  0  0  0  0
    4.7051   68.6981   62.1331 H   0  0  0  0  0  0  0  0  0  0  0  0
    6.1762   69.4904   63.9107 H   0  0  0  0  0  0  0  0  0  0  0  0
    5.7399   70.9360   69.7581 H   0  0  0  0  0  0  0  0  0  0  0  0
    7.7938   71.0067   68.3107 H   0  0  0  0  0  0  0  0  0  0  0  0
    7.6738   70.3497   65.9041 H   0  0  0  0  0  0  0  0  0  0  0  0
  2  1  2  0
  3  2  1  0
  4  3  2  0
  5  4  1  0
  6  5  2  0
  7  6  1  0
  8  7  2  0
  9  4  1  0
  9  8  1  0
 10  9  2  0
 11 10  1  0
 12 11  2  0
 12  3  1  0
 13 12  1  0
 14 13  1  0
 14  2  1  0
 15 14  2  0
 16 13  2  0
 17 16  1  0
 18 17  2  0
 18 11  1  0
  5 19  1  0
  6 20  1  0
  7 21  1  0
  8 22  1  0
 10 23  1  0
 16 24  1  0
 17 25  1  0
 18 26  1  0
M  END
>  <score>  (4) 
-11.639

$$$$
=
     RDKit          3D

 26 29  0  0  0  0  0  0  0  0999 V2000
    3.0570   68.5410   63.1420 O   0  0  0  0  0  0  0  0  0  0  0  0
    3.6150   68.9620   64.1280 C   0  0  0  0  0  0  0  0  0  0  0  0
    3.0820   69.1060   65.4990 C   0  0  0  0  0  0  0  0  0  0  0  0
    1.8270   68.8100   66.0380 C   0  0  0  0  0  0  0  0  0  0  0  0
    0.7590   68.2740   65.2920 C   0  0  0  0  0  0  0  0  0  0  0  0
   -0.4680   68.0040   65.8980 C   0  0  0  0  0  0  0  0  0  0  0  0
   -0.6470   68.2630   67.2530 C   0  0  0  0  0  0  0  0  0  0  0  0
    0.3980   68.7950   68.0090 C   0  0  0  0  0  0  0  0  0  0  0  0
    1.6430   69.0770   67.4240 C   0  0  0  0  0  0  0  0  0  0  0  0
    2.7000   69.6160   68.2020 C   0  0  0  0  0  0  0  0  0  0  0  0
    3.9560   69.9060   67.6330 C   0  0  0  0  0  0  0  0  0  0  0  0
    4.0980   69.6320   66.2770 C   0  0  0  0  0  0  0  0  0  0  0  0
    5.2740   69.8680   65.5950 C   0  0  0  0  0  0  0  0  0  0  0  0
    5.0740   69.4700   64.1990 C   0  0  0  0  0  0  0  0  0  0  0  0
    5.8770   69.5270   63.2970 O   0  0  0  0  0  0  0  0  0  0  0  0
    6.3890   70.3910   66.2220 C   0  0  0  0  0  0  0  0  0  0  0  0
    6.2840   70.6800   67.5890 C   0  0  0  0  0  0  0  0  0  0  0  0
    5.0840   70.4410   68.2920 C   0  0  0  0  0  0  0  0  0  0  0  0
    0.8941   68.0662   64.2203 H   0  0  0  0  0  0  0  0  0  0  0  0
   -1.2943   67.5861   65.3042 H   0  0  0  0  0  0  0  0  0  0  0  0
   -1.6148   68.0478   67.7296 H   0  0  0  0  0  0  0  0  0  0  0  0
    0.2443   68.9966   69.0794 H   0  0  0  0  0  0  0  0  0  0  0  0
    2.5355   69.8116   69.2719 H   0  0  0  0  0  0  0  0  0  0  0  0
    7.3225   70.5733   65.6694 H   0  0  0  0  0  0  0  0  0  0  0  0
    7.1499   71.0995   68.1222 H   0  0  0  0  0  0  0  0  0  0  0  0
    5.0269   70.6742   69.3655 H   0  0  0  0  0  0  0  0  0  0  0  0
  2  1  2  0
  3  2  1  0
  4  3  2  0
  5  4  1  0
  6  5  2  0
  7  6  1  0
  8  7  2  0
  9  4  1  0
  9  8  1  0
 10  9  2  0
 11 10  1  0
 12 11  2  0
 12  3  1  0
 13 12  1  0
 14 13  1  0
 14  2  1  0
 15 14  2  0
 16 13  2  0
 17 16  1  0
 18 17  2  0
 18 11  1  0
  5 19  1  0
  6 20  1  0
  7 21  1  0
  8 22  1  0
 10 23  1  0
 16 24  1  0
 17 25  1  0
 18 26  1  0
M  END
>  <score>  (5) 
-10.975

$$$$
=
     RDKit          3D

 26 29  0  0  0  0  0  0  0  0999 V2000
    0.3640   68.5540   62.0720 O   0  0  0  0  0  0  0  0  0  0  0  0
    1.4400   68.7070   62.6020 C   0  0  0  0  0  0  0  0  0  0  0  0
    1.7490   68.8390   64.0410 C   0  0  0  0  0  0  0  0  0  0  0  0
    0.9230   68.8260   65.1690 C   0  0  0  0  0  0  0  0  0  0  0  0
   -0.4770   68.6700   65.1150 C   0  0  0  0  0  0  0  0  0  0  0  0
   -1.2380   68.6670   66.2830 C   0  0  0  0  0  0  0  0  0  0  0  0
   -0.6180   68.8180   67.5190 C   0  0  0  0  0  0  0  0  0  0  0  0
    0.7670   68.9740   67.5940 C   0  0  0  0  0  0  0  0  0  0  0  0
    1.5570   68.9820   66.4330 C   0  0  0  0  0  0  0  0  0  0  0  0
    2.9650   69.1400   66.5200 C   0  0  0  0  0  0  0  0  0  0  0  0
    3.7750   69.1500   65.3660 C   0  0  0  0  0  0  0  0  0  0  0  0
    3.1190   68.9950   64.1500 C   0  0  0  0  0  0  0  0  0  0  0  0
    3.7910   68.9860   62.9450 C   0  0  0  0  0  0  0  0  0  0  0  0
    2.8030   68.8050   61.8780 C   0  0  0  0  0  0  0  0  0  0  0  0
    3.0100   68.7470   60.6890 O   0  0  0  0  0  0  0  0  0  0  0  0
    5.1640   69.1300   62.8740 C   0  0  0  0  0  0  0  0  0  0  0  0
    5.8590   69.2890   64.0800 C   0  0  0  0  0  0  0  0  0  0  0  0
    5.1770   69.2990   65.3150 C   0  0  0  0  0  0  0  0  0  0  0  0
   -0.9741   68.5494   64.1412 H   0  0  0  0  0  0  0  0  0  0  0  0
   -2.3298   68.5451   66.2272 H   0  0  0  0  0  0  0  0  0  0  0  0
   -1.2205   68.8145   68.4393 H   0  0  0  0  0  0  0  0  0  0  0  0
    1.2467   69.0924   68.5768 H   0  0  0  0  0  0  0  0  0  0  0  0
    3.4338   69.2571   67.5082 H   0  0  0  0  0  0  0  0  0  0  0  0
    5.6904   69.1201   61.9082 H   0  0  0  0  0  0  0  0  0  0  0  0
    6.9524   69.4078   64.0638 H   0  0  0  0  0  0  0  0  0  0  0  0
    5.7448   69.4244   66.2487 H   0  0  0  0  0  0  0  0  0  0  0  0
  2  1  2  0
  3  2  1  0
  4  3  2  0
  5  4  1  0
  6  5  2  0
  7  6  1  0
  8  7  2  0
  9  4  1  0
  9  8  1  0
 10  9  2  0
 11 10  1  0
 12 11  2  0
 12  3  1  0
 13 12  1  0
 14 13  1  0
 14  2  1  0
 15 14  2  0
 16 13  2  0
 17 16  1  0
 18 17  2  0
 18 11  1  0
  5 19  1  0
  6 20  1  0
  7 21  1  0
  8 22  1  0
 10 23  1  0
 16 24  1  0
 17 25  1  0
 18 26  1  0
M  END
>  <score>  (6) 
-10.603

$$$$
=
     RDKit          3D

 26 29  0  0  0  0  0  0  0  0999 V2000
    6.4280   70.4980   66.2830 O   0  0  0  0  0  0  0  0  0  0  0  0
    5.3120   70.1300   66.5640 C   0  0  0  0  0  0  0  0  0  0  0  0
    4.2830   69.5460   65.6790 C   0  0  0  0  0  0  0  0  0  0  0  0
    4.2950   69.2580   64.3120 C   0  0  0  0  0  0  0  0  0  0  0  0
    5.3980   69.5010   63.4690 C   0  0  0  0  0  0  0  0  0  0  0  0
    5.3390   69.1880   62.1110 C   0  0  0  0  0  0  0  0  0  0  0  0
    4.1830   68.6290   61.5750 C   0  0  0  0  0  0  0  0  0  0  0  0
    3.0800   68.3810   62.3930 C   0  0  0  0  0  0  0  0  0  0  0  0
    3.1120   68.6870   63.7630 C   0  0  0  0  0  0  0  0  0  0  0  0
    1.9860   68.4300   64.5870 C   0  0  0  0  0  0  0  0  0  0  0  0
    2.0000   68.7300   65.9640 C   0  0  0  0  0  0  0  0  0  0  0  0
    3.1720   69.2860   66.4630 C   0  0  0  0  0  0  0  0  0  0  0  0
    3.3210   69.6280   67.7920 C   0  0  0  0  0  0  0  0  0  0  0  0
    4.6650   70.1810   67.9690 C   0  0  0  0  0  0  0  0  0  0  0  0
    5.1620   70.5910   68.9920 O   0  0  0  0  0  0  0  0  0  0  0  0
    2.3070   69.4350   68.7120 C   0  0  0  0  0  0  0  0  0  0  0  0
    1.1100   68.8760   68.2460 C   0  0  0  0  0  0  0  0  0  0  0  0
    0.9530   68.5260   66.8880 C   0  0  0  0  0  0  0  0  0  0  0  0
    6.3151   69.9422   63.8864 H   0  0  0  0  0  0  0  0  0  0  0  0
    6.2066   69.3831   61.4636 H   0  0  0  0  0  0  0  0  0  0  0  0
    4.1385   68.3820   60.5040 H   0  0  0  0  0  0  0  0  0  0  0  0
    2.1715   67.9390   61.9579 H   0  0  0  0  0  0  0  0  0  0  0  0
    1.0829   67.9872   64.1417 H   0  0  0  0  0  0  0  0  0  0  0  0
    2.4353   69.7099   69.7693 H   0  0  0  0  0  0  0  0  0  0  0  0
    0.2806   68.7075   68.9487 H   0  0  0  0  0  0  0  0  0  0  0  0
    0.0034   68.0890   66.5456 H   0  0  0  0  0  0  0  0  0  0  0  0
  2  1  2  0
  3  2  1  0
  4  3  2  0
  5  4  1  0
  6  5  2  0
  7  6  1  0
  8  7  2  0
  9  4  1  0
  9  8  1  0
 10  9  2  0
 11 10  1  0
 12 11  2  0
 12  3  1  0
 13 12  1  0
 14 13  1  0
 14  2  1  0
 15 14  2  0
 16 13  2  0
 17 16  1  0
 18 17  2  0
 18 11  1  0
  5 19  1  0
  6 20  1  0
  7 21  1  0
  8 22  1  0
 10 23  1  0
 16 24  1  0
 17 25  1  0
 18 26  1  0
M  END
>  <score>  (7) 
-10.563

$$$$
=
     RDKit          3D

 26 29  0  0  0  0  0  0  0  0999 V2000
    3.0230   70.0140   69.2320 O   0  0  0  0  0  0  0  0  0  0  0  0
    3.4420   69.8620   68.1080 C   0  0  0  0  0  0  0  0  0  0  0  0
    2.7080   69.4300   66.9010 C   0  0  0  0  0  0  0  0  0  0  0  0
    1.3670   69.0860   66.7080 C   0  0  0  0  0  0  0  0  0  0  0  0
    0.4000   69.0930   67.7330 C   0  0  0  0  0  0  0  0  0  0  0  0
   -0.9220   68.7370   67.4670 C   0  0  0  0  0  0  0  0  0  0  0  0
   -1.2980   68.3690   66.1790 C   0  0  0  0  0  0  0  0  0  0  0  0
   -0.3550   68.3550   65.1500 C   0  0  0  0  0  0  0  0  0  0  0  0
    0.9820   68.7080   65.3910 C   0  0  0  0  0  0  0  0  0  0  0  0
    1.9330   68.6910   64.3380 C   0  0  0  0  0  0  0  0  0  0  0  0
    3.2800   69.0430   64.5590 C   0  0  0  0  0  0  0  0  0  0  0  0
    3.6180   69.4060   65.8580 C   0  0  0  0  0  0  0  0  0  0  0  0
    4.9000   69.7730   66.2130 C   0  0  0  0  0  0  0  0  0  0  0  0
    4.9000   70.0880   67.6440 C   0  0  0  0  0  0  0  0  0  0  0  0
    5.8380   70.4480   68.3160 O   0  0  0  0  0  0  0  0  0  0  0  0
    5.9310   69.8030   65.2930 C   0  0  0  0  0  0  0  0  0  0  0  0
    5.6280   69.4430   63.9730 C   0  0  0  0  0  0  0  0  0  0  0  0
    4.3190   69.0670   63.6050 C   0  0  0  0  0  0  0  0  0  0  0  0
    0.6909   69.3823   68.7536 H   0  0  0  0  0  0  0  0  0  0  0  0
   -1.6676   68.7472   68.2757 H   0  0  0  0  0  0  0  0  0  0  0  0
   -2.3411   68.0884   65.9711 H   0  0  0  0  0  0  0  0  0  0  0  0
   -0.6641   68.0631   64.1355 H   0  0  0  0  0  0  0  0  0  0  0  0
    1.6123   68.3969   63.3277 H   0  0  0  0  0  0  0  0  0  0  0  0
    6.9496   70.0979   65.5855 H   0  0  0  0  0  0  0  0  0  0  0  0
    6.4226   69.4538   63.2125 H   0  0  0  0  0  0  0  0  0  0  0  0
    4.1060   68.7893   62.5621 H   0  0  0  0  0  0  0  0  0  0  0  0
  2  1  2  0
  3  2  1  0
  4  3  2  0
  5  4  1  0
  6  5  2  0
  7  6  1  0
  8  7  2  0
  9  4  1  0
  9  8  1  0
 10  9  2  0
 11 10  1  0
 12 11  2  0
 12  3  1  0
 13 12  1  0
 14 13  1  0
 14  2  1  0
 15 14  2  0
 16 13  2  0
 17 16  1  0
 18 17  2  0
 18 11  1  0
  5 19  1  0
  6 20  1  0
  7 21  1  0
  8 22  1  0
 10 23  1  0
 16 24  1  0
 17 25  1  0
 18 26  1  0
M  END
>  <score>  (8) 
-10.314

$$$$
=
     RDKit          3D

 26 29  0  0  0  0  0  0  0  0999 V2000
    0.2060   68.6710   61.8390 O   0  0  0  0  0  0  0  0  0  0  0  0
    0.3320   68.7300   63.0400 C   0  0  0  0  0  0  0  0  0  0  0  0
    1.5750   68.8280   63.8330 C   0  0  0  0  0  0  0  0  0  0  0  0
    2.9170   68.8810   63.4460 C   0  0  0  0  0  0  0  0  0  0  0  0
    3.3480   68.8440   62.1050 C   0  0  0  0  0  0  0  0  0  0  0  0
    4.7060   68.9000   61.7920 C   0  0  0  0  0  0  0  0  0  0  0  0
    5.6510   68.9940   62.8080 C   0  0  0  0  0  0  0  0  0  0  0  0
    5.2440   69.0300   64.1430 C   0  0  0  0  0  0  0  0  0  0  0  0
    3.8840   68.9750   64.4850 C   0  0  0  0  0  0  0  0  0  0  0  0
    3.4800   69.0140   65.8450 C   0  0  0  0  0  0  0  0  0  0  0  0
    2.1200   68.9600   66.2090 C   0  0  0  0  0  0  0  0  0  0  0  0
    1.2050   68.8680   65.1660 C   0  0  0  0  0  0  0  0  0  0  0  0
   -0.1570   68.8070   65.3810 C   0  0  0  0  0  0  0  0  0  0  0  0
   -0.8170   68.7160   64.0760 C   0  0  0  0  0  0  0  0  0  0  0  0
   -2.0030   68.6460   63.8570 O   0  0  0  0  0  0  0  0  0  0  0  0
   -0.6960   68.8350   66.6530 C   0  0  0  0  0  0  0  0  0  0  0  0
    0.1950   68.9270   67.7300 C   0  0  0  0  0  0  0  0  0  0  0  0
    1.5890   68.9900   67.5160 C   0  0  0  0  0  0  0  0  0  0  0  0
    2.6057   68.7702   61.2966 H   0  0  0  0  0  0  0  0  0  0  0  0
    5.0297   68.8698   60.7411 H   0  0  0  0  0  0  0  0  0  0  0  0
    6.7215   69.0401   62.5592 H   0  0  0  0  0  0  0  0  0  0  0  0
    6.0004   69.1025   64.9384 H   0  0  0  0  0  0  0  0  0  0  0  0
    4.2452   69.0880   66.6318 H   0  0  0  0  0  0  0  0  0  0  0  0
   -1.7831   68.7869   66.8137 H   0  0  0  0  0  0  0  0  0  0  0  0
   -0.1972   68.9505   68.7574 H   0  0  0  0  0  0  0  0  0  0  0  0
    2.2688   69.0633   68.3777 H   0  0  0  0  0  0  0  0  0  0  0  0
  2  1  2  0
  3  2  1  0
  4  3  2  0
  5  4  1  0
  6  5  2  0
  7  6  1  0
  8  7  2  0
  9  4  1  0
  9  8  1  0
 10  9  2  0
 11 10  1  0
 12 11  2  0
 12  3  1  0
 13 12  1  0
 14 13  1  0
 14  2  1  0
 15 14  2  0
 16 13  2  0
 17 16  1  0
 18 17  2  0
 18 11  1  0
  5 19  1  0
  6 20  1  0
  7 21  1  0
  8 22  1  0
 10 23  1  0
 16 24  1  0
 17 25  1  0
 18 26  1  0
M  END
>  <score>  (9) 
-10.083

$$$$
