=
     RDKit          3D

 80 84  0  0  0  0  0  0  0  0999 V2000
    2.5410   64.2910   71.0520 O   0  0  0  0  0  0  0  0  0  0  0  0
    1.3560   64.2810   70.7260 C   0  0  0  0  0  0  0  0  0  0  0  0
    0.7750   65.3430   70.0490 N   0  0  0  0  0  0  0  0  0  0  0  0
   -0.6410   65.4000   69.6620 C   0  0  0  0  0  0  0  0  0  0  0  0
   -0.9800   66.5990   68.7530 C   0  0  0  0  0  0  0  0  0  0  0  0
    0.1720   66.8530   67.8120 N   0  0  0  0  0  4  0  0  0  0  0  0
    1.4530   67.2390   68.5270 C   0  0  0  0  0  0  0  0  0  0  0  0
    1.5350   66.5990   69.9270 C   0  0  0  0  0  0  0  0  0  0  0  0
   -0.1850   67.7360   66.6310 C   0  0  0  0  0  0  0  0  0  0  0  0
    1.0470   67.9810   65.7340 C   0  0  0  0  0  0  0  0  0  0  0  0
    1.8710   69.1350   66.1530 N   0  0  0  0  0  0  0  0  0  0  0  0
    3.2270   69.2730   65.7910 C   0  0  0  0  0  0  0  0  0  0  0  0
    3.7430   69.0400   64.5140 C   0  0  0  0  0  0  0  0  0  0  0  0
    2.9610   68.8680   63.2380 C   0  0  0  0  0  0  0  0  0  0  0  0
    3.4840   67.6930   62.4100 C   0  0  0  0  0  0  0  0  0  0  0  0
    5.0160   67.5960   62.3630 C   0  0  0  0  0  0  0  0  0  0  0  0
    5.7250   68.7910   62.9990 C   0  0  0  0  0  0  0  0  0  0  0  0
    5.1350   69.0840   64.3590 C   0  0  0  0  0  0  0  0  0  0  0  0
    5.9930   69.4090   65.3480 N   0  0  0  0  0  0  0  0  0  0  0  0
    5.4920   69.8140   66.5150 C   0  0  0  0  0  0  0  0  0  0  0  0
    4.1130   69.7680   66.8000 C   0  0  0  0  0  0  0  0  0  0  0  0
    3.6780   70.2060   68.0770 C   0  0  0  0  0  0  0  0  0  0  0  0
    4.5750   70.6940   69.0270 C   0  0  0  0  0  0  0  0  0  0  0  0
    5.9260   70.7460   68.7230 C   0  0  0  0  0  0  0  0  0  0  0  0
    6.3710   70.2940   67.4790 C   0  0  0  0  0  0  0  0  0  0  0  0
    0.4790   63.0870   71.0680 C   0  0  0  0  0  0  0  0  0  0  0  0
    1.0140   62.4230   72.3410 C   0  0  0  0  0  0  0  0  0  0  0  0
    1.2100   60.9200   72.1570 N   0  0  2  0  0  4  0  0  0  0  0  0
    0.4720   60.1110   73.2010 C   0  0  0  0  0  0  0  0  0  0  0  0
    2.6810   60.4740   72.0420 C   0  0  0  0  0  0  0  0  0  0  0  0
    3.0960   60.3750   70.5620 C   0  0  0  0  0  0  0  0  0  0  0  0
    4.2020   61.3570   70.1860 C   0  0  0  0  0  0  0  0  0  0  0  0
    5.4190   61.2410   71.1020 C   0  0  0  0  0  0  0  0  0  0  0  0
    5.0690   61.0160   72.5750 C   0  0  0  0  0  0  0  0  0  0  0  0
    3.6140   61.3450   72.8920 C   0  0  0  0  0  0  0  0  0  0  0  0
   -0.8934   64.4735   69.1255 H   0  0  0  0  0  0  0  0  0  0  0  0
   -1.2257   65.5178   70.5863 H   0  0  0  0  0  0  0  0  0  0  0  0
   -1.8866   66.3747   68.1718 H   0  0  0  0  0  0  0  0  0  0  0  0
   -1.1547   67.4921   69.3710 H   0  0  0  0  0  0  0  0  0  0  0  0
    0.3824   65.9418   67.3803 H   0  0  0  0  0  0  0  0  0  0  0  0
    2.3119   66.9007   67.9287 H   0  0  0  0  0  0  0  0  0  0  0  0
    1.4647   68.3324   68.6468 H   0  0  0  0  0  0  0  0  0  0  0  0
    1.1397   67.3169   70.6608 H   0  0  0  0  0  0  0  0  0  0  0  0
    2.5921   66.3541   70.1072 H   0  0  0  0  0  0  0  0  0  0  0  0
   -0.9701   67.2442   66.0380 H   0  0  0  0  0  0  0  0  0  0  0  0
   -0.5409   68.7048   67.0115 H   0  0  0  0  0  0  0  0  0  0  0  0
    1.6766   67.0793   65.7559 H   0  0  0  0  0  0  0  0  0  0  0  0
    0.6692   68.2067   64.7259 H   0  0  0  0  0  0  0  0  0  0  0  0
    1.4372   69.8676   66.7326 H   0  0  0  0  0  0  0  0  0  0  0  0
    1.9054   68.6863   63.4882 H   0  0  0  0  0  0  0  0  0  0  0  0
    3.0715   69.7852   62.6410 H   0  0  0  0  0  0  0  0  0  0  0  0
    3.0914   66.7617   62.8443 H   0  0  0  0  0  0  0  0  0  0  0  0
    3.1431   67.8546   61.3767 H   0  0  0  0  0  0  0  0  0  0  0  0
    5.3232   66.6848   62.8972 H   0  0  0  0  0  0  0  0  0  0  0  0
    5.3054   67.5769   61.3019 H   0  0  0  0  0  0  0  0  0  0  0  0
    6.7953   68.5623   63.1088 H   0  0  0  0  0  0  0  0  0  0  0  0
    5.5937   69.6718   62.3533 H   0  0  0  0  0  0  0  0  0  0  0  0
    2.6071   70.1597   68.3241 H   0  0  0  0  0  0  0  0  0  0  0  0
    4.2134   71.0345   70.0085 H   0  0  0  0  0  0  0  0  0  0  0  0
    6.6436   71.1410   69.4572 H   0  0  0  0  0  0  0  0  0  0  0  0
    7.4478   70.3185   67.2555 H   0  0  0  0  0  0  0  0  0  0  0  0
   -0.5546   63.4244   71.2346 H   0  0  0  0  0  0  0  0  0  0  0  0
    0.4940   62.3652   70.2381 H   0  0  0  0  0  0  0  0  0  0  0  0
    1.9807   62.8789   72.6011 H   0  0  0  0  0  0  0  0  0  0  0  0
    0.2763   62.5761   73.1425 H   0  0  0  0  0  0  0  0  0  0  0  0
    0.7881   60.7200   71.2389 H   0  0  0  0  0  0  0  0  0  0  0  0
    0.7754   60.4436   74.2046 H   0  0  0  0  0  0  0  0  0  0  0  0
   -0.6115   60.2559   73.0787 H   0  0  0  0  0  0  0  0  0  0  0  0
    0.7155   59.0453   73.0787 H   0  0  0  0  0  0  0  0  0  0  0  0
    2.7785   59.4633   72.4651 H   0  0  0  0  0  0  0  0  0  0  0  0
    3.4528   59.3532   70.3656 H   0  0  0  0  0  0  0  0  0  0  0  0
    2.2133   60.6254   69.9552 H   0  0  0  0  0  0  0  0  0  0  0  0
    4.5176   61.1548   69.1518 H   0  0  0  0  0  0  0  0  0  0  0  0
    3.7978   62.3745   70.2921 H   0  0  0  0  0  0  0  0  0  0  0  0
    6.0313   60.3942   70.7585 H   0  0  0  0  0  0  0  0  0  0  0  0
    5.9538   62.2005   71.0445 H   0  0  0  0  0  0  0  0  0  0  0  0
    5.2530   59.9602   72.8230 H   0  0  0  0  0  0  0  0  0  0  0  0
    5.6996   61.6906   73.1727 H   0  0  0  0  0  0  0  0  0  0  0  0
    3.4211   61.1526   73.9577 H   0  0  0  0  0  0  0  0  0  0  0  0
    3.4258   62.4044   72.6636 H   0  0  0  0  0  0  0  0  0  0  0  0
  2  1  2  0
  3  2  1  0
  4  3  1  0
  5  4  1  0
  6  5  1  0
  7  6  1  0
  8  3  1  0
  8  7  1  0
  9  6  1  0
 10  9  1  0
 11 10  1  0
 12 11  1  0
 13 12  1  0
 14 13  1  0
 15 14  1  0
 16 15  1  0
 17 16  1  0
 18 13  2  0
 18 17  1  0
 19 18  1  0
 20 19  2  0
 21 12  2  0
 21 20  1  0
 22 21  1  0
 23 22  2  0
 24 23  1  0
 25 24  2  0
 25 20  1  0
 26  2  1  0
 27 26  1  0
 28 27  1  0
 29 28  1  0
 30 28  1  0
 31 30  1  0
 32 31  1  0
 33 32  1  0
 34 33  1  0
 35 34  1  0
 35 30  1  0
  4 36  1  0
  4 37  1  0
  5 38  1  0
  5 39  1  0
  6 40  1  0
  7 41  1  0
  7 42  1  0
  8 43  1  0
  8 44  1  0
  9 45  1  0
  9 46  1  0
 10 47  1  0
 10 48  1  0
 11 49  1  0
 14 50  1  0
 14 51  1  0
 15 52  1  0
 15 53  1  0
 16 54  1  0
 16 55  1  0
 17 56  1  0
 17 57  1  0
 22 58  1  0
 23 59  1  0
 24 60  1  0
 25 61  1  0
 26 62  1  0
 26 63  1  0
 27 64  1  0
 27 65  1  0
 28 66  1  6
 29 67  1  0
 29 68  1  0
 29 69  1  0
 30 70  1  0
 31 71  1  0
 31 72  1  0
 32 73  1  0
 32 74  1  0
 33 75  1  0
 33 76  1  0
 34 77  1  0
 34 78  1  0
 35 79  1  0
 35 80  1  0
M  CHG  2   6   1  28   1
M  END
>  <score>  (1) 
-11.599

$$$$
=
     RDKit          3D

 80 84  0  0  0  0  0  0  0  0999 V2000
    0.4570   67.7180   64.2000 O   0  0  0  0  0  0  0  0  0  0  0  0
    1.2810   67.7320   65.1120 C   0  0  0  0  0  0  0  0  0  0  0  0
    0.8970   67.6840   66.4440 N   0  0  0  0  0  0  0  0  0  0  0  0
    1.8340   67.7280   67.5760 C   0  0  0  0  0  0  0  0  0  0  0  0
    1.1630   67.4630   68.9390 C   0  0  0  0  0  0  0  0  0  0  0  0
    0.0800   66.4250   68.7680 N   0  0  0  0  0  4  0  0  0  0  0  0
   -1.0390   66.8770   67.8480 C   0  0  0  0  0  0  0  0  0  0  0  0
   -0.5280   67.8560   66.7720 C   0  0  0  0  0  0  0  0  0  0  0  0
   -0.3830   65.8040   70.0720 C   0  0  0  0  0  0  0  0  0  0  0  0
    0.7450   64.9690   70.7150 C   0  0  0  0  0  0  0  0  0  0  0  0
    0.5250   63.5090   70.6390 N   0  0  0  0  0  0  0  0  0  0  0  0
    1.2210   62.5920   71.4530 C   0  0  0  0  0  0  0  0  0  0  0  0
    2.6130   62.4930   71.5410 C   0  0  0  0  0  0  0  0  0  0  0  0
    3.6250   63.4810   71.0220 C   0  0  0  0  0  0  0  0  0  0  0  0
    4.7730   62.7800   70.2910 C   0  0  0  0  0  0  0  0  0  0  0  0
    5.2660   61.5020   70.9850 C   0  0  0  0  0  0  0  0  0  0  0  0
    4.6420   61.2730   72.3620 C   0  0  0  0  0  0  0  0  0  0  0  0
    3.1420   61.4320   72.2870 C   0  0  0  0  0  0  0  0  0  0  0  0
    2.3910   60.5520   72.9810 N   0  0  0  0  0  0  0  0  0  0  0  0
    1.0750   60.7570   73.0520 C   0  0  0  0  0  0  0  0  0  0  0  0
    0.4280   61.7620   72.3080 C   0  0  0  0  0  0  0  0  0  0  0  0
   -0.9780   61.8920   72.4380 C   0  0  0  0  0  0  0  0  0  0  0  0
   -1.7120   61.0700   73.2940 C   0  0  0  0  0  0  0  0  0  0  0  0
   -1.0550   60.0960   74.0290 C   0  0  0  0  0  0  0  0  0  0  0  0
    0.3260   59.9410   73.8910 C   0  0  0  0  0  0  0  0  0  0  0  0
    2.7660   67.8090   64.7990 C   0  0  0  0  0  0  0  0  0  0  0  0
    3.1690   69.2800   64.6520 C   0  0  0  0  0  0  0  0  0  0  0  0
    4.6450   69.4990   64.9730 N   0  0  2  0  0  4  0  0  0  0  0  0
    5.5510   68.6030   64.1570 C   0  0  0  0  0  0  0  0  0  0  0  0
    4.9940   69.4280   66.4720 C   0  0  0  0  0  0  0  0  0  0  0  0
    6.4650   69.8240   66.6990 C   0  0  0  0  0  0  0  0  0  0  0  0
    6.6190   71.0870   67.5440 C   0  0  0  0  0  0  0  0  0  0  0  0
    5.8700   70.9920   68.8710 C   0  0  0  0  0  0  0  0  0  0  0  0
    4.5050   70.3080   68.7680 C   0  0  0  0  0  0  0  0  0  0  0  0
    3.9990   70.2170   67.3320 C   0  0  0  0  0  0  0  0  0  0  0  0
    2.6102   66.9653   67.4156 H   0  0  0  0  0  0  0  0  0  0  0  0
    2.2509   68.7453   67.6123 H   0  0  0  0  0  0  0  0  0  0  0  0
    1.9145   67.0958   69.6534 H   0  0  0  0  0  0  0  0  0  0  0  0
    0.7226   68.3959   69.3208 H   0  0  0  0  0  0  0  0  0  0  0  0
    0.5231   65.6407   68.2685 H   0  0  0  0  0  0  0  0  0  0  0  0
   -1.4716   65.9955   67.3522 H   0  0  0  0  0  0  0  0  0  0  0  0
   -1.7950   67.3966   68.4550 H   0  0  0  0  0  0  0  0  0  0  0  0
   -0.6789   68.8827   67.1369 H   0  0  0  0  0  0  0  0  0  0  0  0
   -1.0965   67.6492   65.8533 H   0  0  0  0  0  0  0  0  0  0  0  0
   -0.6799   66.6038   70.7665 H   0  0  0  0  0  0  0  0  0  0  0  0
   -1.2356   65.1412   69.8627 H   0  0  0  0  0  0  0  0  0  0  0  0
    1.6878   65.2048   70.1997 H   0  0  0  0  0  0  0  0  0  0  0  0
    0.7706   65.2337   71.7824 H   0  0  0  0  0  0  0  0  0  0  0  0
   -0.1642   63.1473   69.9645 H   0  0  0  0  0  0  0  0  0  0  0  0
    3.1260   64.1704   70.3250 H   0  0  0  0  0  0  0  0  0  0  0  0
    4.0453   64.0261   71.8801 H   0  0  0  0  0  0  0  0  0  0  0  0
    4.4289   62.5144   69.2805 H   0  0  0  0  0  0  0  0  0  0  0  0
    5.6192   63.4827   70.2786 H   0  0  0  0  0  0  0  0  0  0  0  0
    5.0206   60.6419   70.3447 H   0  0  0  0  0  0  0  0  0  0  0  0
    6.3496   61.6151   71.1369 H   0  0  0  0  0  0  0  0  0  0  0  0
    4.8830   60.2563   72.7058 H   0  0  0  0  0  0  0  0  0  0  0  0
    5.0469   62.0134   73.0675 H   0  0  0  0  0  0  0  0  0  0  0  0
   -1.5027   62.6593   71.8499 H   0  0  0  0  0  0  0  0  0  0  0  0
   -2.8012   61.1939   73.3845 H   0  0  0  0  0  0  0  0  0  0  0  0
   -1.6182   59.4486   74.7173 H   0  0  0  0  0  0  0  0  0  0  0  0
    0.8351   59.1509   74.4624 H   0  0  0  0  0  0  0  0  0  0  0  0
    3.3397   67.3494   65.6173 H   0  0  0  0  0  0  0  0  0  0  0  0
    2.9771   67.2705   63.8634 H   0  0  0  0  0  0  0  0  0  0  0  0
    2.9787   69.5994   63.6167 H   0  0  0  0  0  0  0  0  0  0  0  0
    2.5734   69.8701   65.3641 H   0  0  0  0  0  0  0  0  0  0  0  0
    4.8219   70.4747   64.6943 H   0  0  0  0  0  0  0  0  0  0  0  0
    6.1682   67.9926   64.8326 H   0  0  0  0  0  0  0  0  0  0  0  0
    4.9402   67.9439   63.5226 H   0  0  0  0  0  0  0  0  0  0  0  0
    6.2033   69.2211   63.5226 H   0  0  0  0  0  0  0  0  0  0  0  0
    4.8923   68.3860   66.8094 H   0  0  0  0  0  0  0  0  0  0  0  0
    6.9762   68.9953   67.2107 H   0  0  0  0  0  0  0  0  0  0  0  0
    6.9059   70.0318   65.7129 H   0  0  0  0  0  0  0  0  0  0  0  0
    7.6875   71.2455   67.7516 H   0  0  0  0  0  0  0  0  0  0  0  0
    6.1911   71.9260   66.9757 H   0  0  0  0  0  0  0  0  0  0  0  0
    6.4902   70.4216   69.5781 H   0  0  0  0  0  0  0  0  0  0  0  0
    5.6846   72.0232   69.2062 H   0  0  0  0  0  0  0  0  0  0  0  0
    4.5897   69.2902   69.1764 H   0  0  0  0  0  0  0  0  0  0  0  0
    3.7852   70.9157   69.3360 H   0  0  0  0  0  0  0  0  0  0  0  0
    3.0244   69.7070   67.3212 H   0  0  0  0  0  0  0  0  0  0  0  0
    3.8945   71.2323   66.9219 H   0  0  0  0  0  0  0  0  0  0  0  0
  2  1  2  0
  3  2  1  0
  4  3  1  0
  5  4  1  0
  6  5  1  0
  7  6  1  0
  8  3  1  0
  8  7  1  0
  9  6  1  0
 10  9  1  0
 11 10  1  0
 12 11  1  0
 13 12  1  0
 14 13  1  0
 15 14  1  0
 16 15  1  0
 17 16  1  0
 18 13  2  0
 18 17  1  0
 19 18  1  0
 20 19  2  0
 21 12  2  0
 21 20  1  0
 22 21  1  0
 23 22  2  0
 24 23  1  0
 25 24  2  0
 25 20  1  0
 26  2  1  0
 27 26  1  0
 28 27  1  0
 29 28  1  0
 30 28  1  0
 31 30  1  0
 32 31  1  0
 33 32  1  0
 34 33  1  0
 35 34  1  0
 35 30  1  0
  4 36  1  0
  4 37  1  0
  5 38  1  0
  5 39  1  0
  6 40  1  0
  7 41  1  0
  7 42  1  0
  8 43  1  0
  8 44  1  0
  9 45  1  0
  9 46  1  0
 10 47  1  0
 10 48  1  0
 11 49  1  0
 14 50  1  0
 14 51  1  0
 15 52  1  0
 15 53  1  0
 16 54  1  0
 16 55  1  0
 17 56  1  0
 17 57  1  0
 22 58  1  0
 23 59  1  0
 24 60  1  0
 25 61  1  0
 26 62  1  0
 26 63  1  0
 27 64  1  0
 27 65  1  0
 28 66  1  6
 29 67  1  0
 29 68  1  0
 29 69  1  0
 30 70  1  0
 31 71  1  0
 31 72  1  0
 32 73  1  0
 32 74  1  0
 33 75  1  0
 33 76  1  0
 34 77  1  0
 34 78  1  0
 35 79  1  0
 35 80  1  0
M  CHG  2   6   1  28   1
M  END
>  <score>  (2) 
-11.179

$$$$
=
     RDKit          3D

 80 84  0  0  0  0  0  0  0  0999 V2000
    0.3690   67.6720   64.4830 O   0  0  0  0  0  0  0  0  0  0  0  0
    1.2190   67.6620   65.3710 C   0  0  0  0  0  0  0  0  0  0  0  0
    0.8720   67.6100   66.7140 N   0  0  0  0  0  0  0  0  0  0  0  0
    1.8410   67.6270   67.8180 C   0  0  0  0  0  0  0  0  0  0  0  0
    1.2040   67.3630   69.1970 C   0  0  0  0  0  0  0  0  0  0  0  0
    0.0970   66.3480   69.0490 N   0  0  0  0  0  4  0  0  0  0  0  0
   -1.0390   66.8280   68.1650 C   0  0  0  0  0  0  0  0  0  0  0  0
   -0.5400   67.8060   67.0830 C   0  0  0  0  0  0  0  0  0  0  0  0
   -0.3410   65.7240   70.3610 C   0  0  0  0  0  0  0  0  0  0  0  0
    0.1100   64.2510   70.4480 C   0  0  0  0  0  0  0  0  0  0  0  0
    0.9110   63.9420   71.6510 N   0  0  0  0  0  0  0  0  0  0  0  0
    1.3270   62.6320   71.9720 C   0  0  0  0  0  0  0  0  0  0  0  0
    0.4970   61.6290   72.4780 C   0  0  0  0  0  0  0  0  0  0  0  0
   -1.0090   61.6390   72.5290 C   0  0  0  0  0  0  0  0  0  0  0  0
   -1.5300   61.1590   73.8850 C   0  0  0  0  0  0  0  0  0  0  0  0
   -0.7740   59.9480   74.4510 C   0  0  0  0  0  0  0  0  0  0  0  0
    0.2340   59.3430   73.4730 C   0  0  0  0  0  0  0  0  0  0  0  0
    1.1000   60.4300   72.8790 C   0  0  0  0  0  0  0  0  0  0  0  0
    2.4150   60.1630   72.7360 N   0  0  0  0  0  0  0  0  0  0  0  0
    3.1730   61.0430   72.0820 C   0  0  0  0  0  0  0  0  0  0  0  0
    2.6870   62.3000   71.6740 C   0  0  0  0  0  0  0  0  0  0  0  0
    3.5760   63.1750   70.9980 C   0  0  0  0  0  0  0  0  0  0  0  0
    4.8910   62.8070   70.7160 C   0  0  0  0  0  0  0  0  0  0  0  0
    5.3470   61.5590   71.1120 C   0  0  0  0  0  0  0  0  0  0  0  0
    4.4890   60.6980   71.8000 C   0  0  0  0  0  0  0  0  0  0  0  0
    2.6960   67.7140   65.0180 C   0  0  0  0  0  0  0  0  0  0  0  0
    3.0620   69.1460   64.6120 C   0  0  0  0  0  0  0  0  0  0  0  0
    4.5190   69.4700   64.9290 N   0  0  2  0  0  4  0  0  0  0  0  0
    5.4850   68.6470   64.1050 C   0  0  0  0  0  0  0  0  0  0  0  0
    4.8780   69.4170   66.4270 C   0  0  0  0  0  0  0  0  0  0  0  0
    6.3370   69.8620   66.6440 C   0  0  0  0  0  0  0  0  0  0  0  0
    6.4540   71.1320   67.4830 C   0  0  0  0  0  0  0  0  0  0  0  0
    5.7150   71.0180   68.8150 C   0  0  0  0  0  0  0  0  0  0  0  0
    4.3730   70.2900   68.7220 C   0  0  0  0  0  0  0  0  0  0  0  0
    3.8620   70.1760   67.2890 C   0  0  0  0  0  0  0  0  0  0  0  0
    2.5978   66.8513   67.6294 H   0  0  0  0  0  0  0  0  0  0  0  0
    2.2781   68.6359   67.8504 H   0  0  0  0  0  0  0  0  0  0  0  0
    1.9683   66.9753   69.8866 H   0  0  0  0  0  0  0  0  0  0  0  0
    0.7927   68.3009   69.5985 H   0  0  0  0  0  0  0  0  0  0  0  0
    0.5113   65.5602   68.5307 H   0  0  0  0  0  0  0  0  0  0  0  0
   -1.5019   65.9589   67.6748 H   0  0  0  0  0  0  0  0  0  0  0  0
   -1.7680   67.3562   68.7971 H   0  0  0  0  0  0  0  0  0  0  0  0
   -0.6612   68.8323   67.4599 H   0  0  0  0  0  0  0  0  0  0  0  0
   -1.1377   67.6176   66.1790 H   0  0  0  0  0  0  0  0  0  0  0  0
    0.1050   66.2870   71.1941 H   0  0  0  0  0  0  0  0  0  0  0  0
   -1.4390   65.7592   70.4176 H   0  0  0  0  0  0  0  0  0  0  0  0
   -0.7866   63.6137   70.4553 H   0  0  0  0  0  0  0  0  0  0  0  0
    0.7544   64.0615   69.5769 H   0  0  0  0  0  0  0  0  0  0  0  0
    1.1762   64.7132   72.2801 H   0  0  0  0  0  0  0  0  0  0  0  0
   -1.3653   62.6646   72.3524 H   0  0  0  0  0  0  0  0  0  0  0  0
   -1.3839   60.9539   71.7544 H   0  0  0  0  0  0  0  0  0  0  0  0
   -1.4421   61.9880   74.6026 H   0  0  0  0  0  0  0  0  0  0  0  0
   -2.5717   60.8407   73.7314 H   0  0  0  0  0  0  0  0  0  0  0  0
   -0.2335   60.2668   75.3544 H   0  0  0  0  0  0  0  0  0  0  0  0
   -1.5231   59.1710   74.6636 H   0  0  0  0  0  0  0  0  0  0  0  0
    0.8706   58.6219   74.0067 H   0  0  0  0  0  0  0  0  0  0  0  0
   -0.3108   58.8350   72.6636 H   0  0  0  0  0  0  0  0  0  0  0  0
    3.2190   64.1684   70.6887 H   0  0  0  0  0  0  0  0  0  0  0  0
    5.5600   63.4999   70.1846 H   0  0  0  0  0  0  0  0  0  0  0  0
    6.3779   61.2489   70.8858 H   0  0  0  0  0  0  0  0  0  0  0  0
    4.8662   59.7182   72.1282 H   0  0  0  0  0  0  0  0  0  0  0  0
    3.2945   67.4137   65.8907 H   0  0  0  0  0  0  0  0  0  0  0  0
    2.9032   67.0269   64.1844 H   0  0  0  0  0  0  0  0  0  0  0  0
    2.8986   69.2622   63.5304 H   0  0  0  0  0  0  0  0  0  0  0  0
    2.4257   69.8369   65.1845 H   0  0  0  0  0  0  0  0  0  0  0  0
    4.6233   70.4573   64.6548 H   0  0  0  0  0  0  0  0  0  0  0  0
    6.1490   68.0813   64.7751 H   0  0  0  0  0  0  0  0  0  0  0  0
    4.9217   67.9470   63.4704 H   0  0  0  0  0  0  0  0  0  0  0  0
    6.0866   69.3144   63.4704 H   0  0  0  0  0  0  0  0  0  0  0  0
    4.8124   68.3739   66.7698 H   0  0  0  0  0  0  0  0  0  0  0  0
    6.8781   69.0525   67.1558 H   0  0  0  0  0  0  0  0  0  0  0  0
    6.7654   70.0803   65.6546 H   0  0  0  0  0  0  0  0  0  0  0  0
    7.5179   71.3260   67.6844 H   0  0  0  0  0  0  0  0  0  0  0  0
    5.9960   71.9543   66.9138 H   0  0  0  0  0  0  0  0  0  0  0  0
    6.3571   70.4709   69.5210 H   0  0  0  0  0  0  0  0  0  0  0  0
    5.4980   72.0439   69.1472 H   0  0  0  0  0  0  0  0  0  0  0  0
    4.4929   69.2773   69.1343 H   0  0  0  0  0  0  0  0  0  0  0  0
    3.6370   70.8769   69.2911 H   0  0  0  0  0  0  0  0  0  0  0  0
    2.9049   69.6338   67.2859 H   0  0  0  0  0  0  0  0  0  0  0  0
    3.7211   71.1854   66.8752 H   0  0  0  0  0  0  0  0  0  0  0  0
  2  1  2  0
  3  2  1  0
  4  3  1  0
  5  4  1  0
  6  5  1  0
  7  6  1  0
  8  3  1  0
  8  7  1  0
  9  6  1  0
 10  9  1  0
 11 10  1  0
 12 11  1  0
 13 12  1  0
 14 13  1  0
 15 14  1  0
 16 15  1  0
 17 16  1  0
 18 13  2  0
 18 17  1  0
 19 18  1  0
 20 19  2  0
 21 12  2  0
 21 20  1  0
 22 21  1  0
 23 22  2  0
 24 23  1  0
 25 24  2  0
 25 20  1  0
 26  2  1  0
 27 26  1  0
 28 27  1  0
 29 28  1  0
 30 28  1  0
 31 30  1  0
 32 31  1  0
 33 32  1  0
 34 33  1  0
 35 34  1  0
 35 30  1  0
  4 36  1  0
  4 37  1  0
  5 38  1  0
  5 39  1  0
  6 40  1  0
  7 41  1  0
  7 42  1  0
  8 43  1  0
  8 44  1  0
  9 45  1  0
  9 46  1  0
 10 47  1  0
 10 48  1  0
 11 49  1  0
 14 50  1  0
 14 51  1  0
 15 52  1  0
 15 53  1  0
 16 54  1  0
 16 55  1  0
 17 56  1  0
 17 57  1  0
 22 58  1  0
 23 59  1  0
 24 60  1  0
 25 61  1  0
 26 62  1  0
 26 63  1  0
 27 64  1  0
 27 65  1  0
 28 66  1  6
 29 67  1  0
 29 68  1  0
 29 69  1  0
 30 70  1  0
 31 71  1  0
 31 72  1  0
 32 73  1  0
 32 74  1  0
 33 75  1  0
 33 76  1  0
 34 77  1  0
 34 78  1  0
 35 79  1  0
 35 80  1  0
M  CHG  2   6   1  28   1
M  END
>  <score>  (3) 
-11.074

$$$$
=
     RDKit          3D

 80 84  0  0  0  0  0  0  0  0999 V2000
    0.4450   68.2140   63.7910 O   0  0  0  0  0  0  0  0  0  0  0  0
    1.2690   68.0750   64.6920 C   0  0  0  0  0  0  0  0  0  0  0  0
    0.8890   67.9900   66.0240 N   0  0  0  0  0  0  0  0  0  0  0  0
    1.8300   67.8530   67.1440 C   0  0  0  0  0  0  0  0  0  0  0  0
    1.1390   67.5840   68.4960 C   0  0  0  0  0  0  0  0  0  0  0  0
   -0.0580   66.6930   68.2750 N   0  0  0  0  0  4  0  0  0  0  0  0
   -1.1220   67.3270   67.3990 C   0  0  0  0  0  0  0  0  0  0  0  0
   -0.5050   68.3050   66.3790 C   0  0  0  0  0  0  0  0  0  0  0  0
   -0.5850   66.0500   69.5440 C   0  0  0  0  0  0  0  0  0  0  0  0
    0.5720   65.4880   70.3980 C   0  0  0  0  0  0  0  0  0  0  0  0
    0.6910   64.0150   70.3470 N   0  0  0  0  0  0  0  0  0  0  0  0
    1.3870   63.2740   71.3250 C   0  0  0  0  0  0  0  0  0  0  0  0
    1.0770   63.2560   72.6880 C   0  0  0  0  0  0  0  0  0  0  0  0
   -0.1770   63.7790   73.3390 C   0  0  0  0  0  0  0  0  0  0  0  0
    0.1380   64.5920   74.5970 C   0  0  0  0  0  0  0  0  0  0  0  0
    1.2340   63.9760   75.4790 C   0  0  0  0  0  0  0  0  0  0  0  0
    1.6730   62.5830   75.0280 C   0  0  0  0  0  0  0  0  0  0  0  0
    1.9570   62.5810   73.5440 C   0  0  0  0  0  0  0  0  0  0  0  0
    3.0370   61.8900   73.1220 N   0  0  0  0  0  0  0  0  0  0  0  0
    3.2270   61.7490   71.8100 C   0  0  0  0  0  0  0  0  0  0  0  0
    2.4350   62.4190   70.8570 C   0  0  0  0  0  0  0  0  0  0  0  0
    2.7250   62.2180   69.4840 C   0  0  0  0  0  0  0  0  0  0  0  0
    3.7480   61.3640   69.0700 C   0  0  0  0  0  0  0  0  0  0  0  0
    4.5070   60.7020   70.0220 C   0  0  0  0  0  0  0  0  0  0  0  0
    4.2480   60.9110   71.3780 C   0  0  0  0  0  0  0  0  0  0  0  0
    2.7520   67.9980   64.3670 C   0  0  0  0  0  0  0  0  0  0  0  0
    3.3570   69.4030   64.4630 C   0  0  0  0  0  0  0  0  0  0  0  0
    4.8320   69.3590   64.8520 N   0  0  2  0  0  4  0  0  0  0  0  0
    5.5710   68.2200   64.1830 C   0  0  0  0  0  0  0  0  0  0  0  0
    5.0980   69.3800   66.3700 C   0  0  0  0  0  0  0  0  0  0  0  0
    6.5110   69.9190   66.6590 C   0  0  0  0  0  0  0  0  0  0  0  0
    6.5020   71.2230   67.4530 C   0  0  0  0  0  0  0  0  0  0  0  0
    5.6880   71.1130   68.7400 C   0  0  0  0  0  0  0  0  0  0  0  0
    4.3980   70.3030   68.5930 C   0  0  0  0  0  0  0  0  0  0  0  0
    3.9870   70.1080   67.1370 C   0  0  0  0  0  0  0  0  0  0  0  0
    2.5100   67.0159   66.9275 H   0  0  0  0  0  0  0  0  0  0  0  0
    2.3645   68.8099   67.2376 H   0  0  0  0  0  0  0  0  0  0  0  0
    1.8456   67.0879   69.1776 H   0  0  0  0  0  0  0  0  0  0  0  0
    0.8128   68.5364   68.9393 H   0  0  0  0  0  0  0  0  0  0  0  0
    0.2897   65.8963   67.7225 H   0  0  0  0  0  0  0  0  0  0  0  0
   -1.6568   66.5341   66.8556 H   0  0  0  0  0  0  0  0  0  0  0  0
   -1.8102   67.8912   68.0455 H   0  0  0  0  0  0  0  0  0  0  0  0
   -0.5337   69.3176   66.8078 H   0  0  0  0  0  0  0  0  0  0  0  0
   -1.0978   68.2226   65.4561 H   0  0  0  0  0  0  0  0  0  0  0  0
   -1.1317   66.8038   70.1295 H   0  0  0  0  0  0  0  0  0  0  0  0
   -1.2525   65.2207   69.2669 H   0  0  0  0  0  0  0  0  0  0  0  0
    1.5143   65.9247   70.0356 H   0  0  0  0  0  0  0  0  0  0  0  0
    0.3580   65.7560   71.4432 H   0  0  0  0  0  0  0  0  0  0  0  0
    0.2481   63.5099   69.5663 H   0  0  0  0  0  0  0  0  0  0  0  0
   -0.7096   64.4218   72.6227 H   0  0  0  0  0  0  0  0  0  0  0  0
   -0.7971   62.9189   73.6316 H   0  0  0  0  0  0  0  0  0  0  0  0
    0.4659   65.5954   74.2876 H   0  0  0  0  0  0  0  0  0  0  0  0
   -0.7815   64.6149   75.2004 H   0  0  0  0  0  0  0  0  0  0  0  0
    2.1106   64.6402   75.4588 H   0  0  0  0  0  0  0  0  0  0  0  0
    0.8124   63.8695   76.4894 H   0  0  0  0  0  0  0  0  0  0  0  0
    2.5842   62.2949   75.5728 H   0  0  0  0  0  0  0  0  0  0  0  0
    0.8663   61.8659   75.2403 H   0  0  0  0  0  0  0  0  0  0  0  0
    2.1291   62.7482   68.7265 H   0  0  0  0  0  0  0  0  0  0  0  0
    3.9500   61.2177   67.9986 H   0  0  0  0  0  0  0  0  0  0  0  0
    5.3087   60.0160   69.7112 H   0  0  0  0  0  0  0  0  0  0  0  0
    4.8701   60.3975   72.1259 H   0  0  0  0  0  0  0  0  0  0  0  0
    3.2527   67.3310   65.0842 H   0  0  0  0  0  0  0  0  0  0  0  0
    2.8897   67.6026   63.3498 H   0  0  0  0  0  0  0  0  0  0  0  0
    3.2609   69.8996   63.4862 H   0  0  0  0  0  0  0  0  0  0  0  0
    2.8139   69.9568   65.2429 H   0  0  0  0  0  0  0  0  0  0  0  0
    5.2137   70.2455   64.4924 H   0  0  0  0  0  0  0  0  0  0  0  0
    5.9995   67.5595   64.9512 H   0  0  0  0  0  0  0  0  0  0  0  0
    4.8718   67.6475   63.5558 H   0  0  0  0  0  0  0  0  0  0  0  0
    6.3787   68.6252   63.5558 H   0  0  0  0  0  0  0  0  0  0  0  0
    5.0715   68.3474   66.7483 H   0  0  0  0  0  0  0  0  0  0  0  0
    7.0638   69.1620   67.2347 H   0  0  0  0  0  0  0  0  0  0  0  0
    6.9879   70.1275   65.6899 H   0  0  0  0  0  0  0  0  0  0  0  0
    7.5382   71.4868   67.7114 H   0  0  0  0  0  0  0  0  0  0  0  0
    6.0350   71.9959   66.8249 H   0  0  0  0  0  0  0  0  0  0  0  0
    6.3140   70.6307   69.5051 H   0  0  0  0  0  0  0  0  0  0  0  0
    5.3920   72.1354   69.0178 H   0  0  0  0  0  0  0  0  0  0  0  0
    4.5492   69.3145   69.0512 H   0  0  0  0  0  0  0  0  0  0  0  0
    3.5947   70.8647   69.0922 H   0  0  0  0  0  0  0  0  0  0  0  0
    3.0645   69.5103   67.0961 H   0  0  0  0  0  0  0  0  0  0  0  0
    3.8156   71.0919   66.6759 H   0  0  0  0  0  0  0  0  0  0  0  0
  2  1  2  0
  3  2  1  0
  4  3  1  0
  5  4  1  0
  6  5  1  0
  7  6  1  0
  8  3  1  0
  8  7  1  0
  9  6  1  0
 10  9  1  0
 11 10  1  0
 12 11  1  0
 13 12  1  0
 14 13  1  0
 15 14  1  0
 16 15  1  0
 17 16  1  0
 18 13  2  0
 18 17  1  0
 19 18  1  0
 20 19  2  0
 21 12  2  0
 21 20  1  0
 22 21  1  0
 23 22  2  0
 24 23  1  0
 25 24  2  0
 25 20  1  0
 26  2  1  0
 27 26  1  0
 28 27  1  0
 29 28  1  0
 30 28  1  0
 31 30  1  0
 32 31  1  0
 33 32  1  0
 34 33  1  0
 35 34  1  0
 35 30  1  0
  4 36  1  0
  4 37  1  0
  5 38  1  0
  5 39  1  0
  6 40  1  0
  7 41  1  0
  7 42  1  0
  8 43  1  0
  8 44  1  0
  9 45  1  0
  9 46  1  0
 10 47  1  0
 10 48  1  0
 11 49  1  0
 14 50  1  0
 14 51  1  0
 15 52  1  0
 15 53  1  0
 16 54  1  0
 16 55  1  0
 17 56  1  0
 17 57  1  0
 22 58  1  0
 23 59  1  0
 24 60  1  0
 25 61  1  0
 26 62  1  0
 26 63  1  0
 27 64  1  0
 27 65  1  0
 28 66  1  6
 29 67  1  0
 29 68  1  0
 29 69  1  0
 30 70  1  0
 31 71  1  0
 31 72  1  0
 32 73  1  0
 32 74  1  0
 33 75  1  0
 33 76  1  0
 34 77  1  0
 34 78  1  0
 35 79  1  0
 35 80  1  0
M  CHG  2   6   1  28   1
M  END
>  <score>  (4) 
-10.769

$$$$
=
     RDKit          3D

 80 84  0  0  0  0  0  0  0  0999 V2000
    2.8630   63.9970   70.9830 O   0  0  0  0  0  0  0  0  0  0  0  0
    1.6750   63.9530   70.6690 C   0  0  0  0  0  0  0  0  0  0  0  0
    1.0030   65.0680   70.1900 N   0  0  0  0  0  0  0  0  0  0  0  0
   -0.4210   65.0820   69.8290 C   0  0  0  0  0  0  0  0  0  0  0  0
   -0.8660   66.3900   69.1430 C   0  0  0  0  0  0  0  0  0  0  0  0
    0.2450   66.8890   68.2510 N   0  0  0  0  0  4  0  0  0  0  0  0
    1.5080   67.2440   69.0140 C   0  0  0  0  0  0  0  0  0  0  0  0
    1.6650   66.3800   70.2810 C   0  0  0  0  0  0  0  0  0  0  0  0
   -0.2010   67.9320   67.2440 C   0  0  0  0  0  0  0  0  0  0  0  0
    0.8330   69.0730   67.1380 C   0  0  0  0  0  0  0  0  0  0  0  0
    1.5440   69.1170   65.8430 N   0  0  0  0  0  0  0  0  0  0  0  0
    2.9430   69.2690   65.7480 C   0  0  0  0  0  0  0  0  0  0  0  0
    3.7830   69.6400   66.8020 C   0  0  0  0  0  0  0  0  0  0  0  0
    3.4310   69.6870   68.2660 C   0  0  0  0  0  0  0  0  0  0  0  0
    3.9430   70.9680   68.9280 C   0  0  0  0  0  0  0  0  0  0  0  0
    5.3560   71.3760   68.4870 C   0  0  0  0  0  0  0  0  0  0  0  0
    6.0510   70.3320   67.6130 C   0  0  0  0  0  0  0  0  0  0  0  0
    5.1290   69.8860   66.5030 C   0  0  0  0  0  0  0  0  0  0  0  0
    5.6720   69.7130   65.2790 N   0  0  0  0  0  0  0  0  0  0  0  0
    4.9170   69.1800   64.3190 C   0  0  0  0  0  0  0  0  0  0  0  0
    3.5410   68.9360   64.4910 C   0  0  0  0  0  0  0  0  0  0  0  0
    2.8180   68.3810   63.4040 C   0  0  0  0  0  0  0  0  0  0  0  0
    3.4420   68.0580   62.1990 C   0  0  0  0  0  0  0  0  0  0  0  0
    4.8010   68.2920   62.0540 C   0  0  0  0  0  0  0  0  0  0  0  0
    5.5190   68.8610   63.1080 C   0  0  0  0  0  0  0  0  0  0  0  0
    0.8960   62.6550   70.8060 C   0  0  0  0  0  0  0  0  0  0  0  0
    1.1330   62.0760   72.2040 C   0  0  0  0  0  0  0  0  0  0  0  0
    1.4030   60.5740   72.1580 N   0  0  2  0  0  4  0  0  0  0  0  0
    0.6840   59.8250   73.2590 C   0  0  0  0  0  0  0  0  0  0  0  0
    2.8950   60.1910   72.1070 C   0  0  0  0  0  0  0  0  0  0  0  0
    3.3240   59.9010   70.6570 C   0  0  0  0  0  0  0  0  0  0  0  0
    4.3810   60.8740   70.1400 C   0  0  0  0  0  0  0  0  0  0  0  0
    5.5960   60.9530   71.0620 C   0  0  0  0  0  0  0  0  0  0  0  0
    5.2500   60.9260   72.5520 C   0  0  0  0  0  0  0  0  0  0  0  0
    3.7780   61.2220   72.8210 C   0  0  0  0  0  0  0  0  0  0  0  0
   -0.6150   64.2447   69.1425 H   0  0  0  0  0  0  0  0  0  0  0  0
   -0.9940   64.9943   70.7639 H   0  0  0  0  0  0  0  0  0  0  0  0
   -1.7653   66.2003   68.5386 H   0  0  0  0  0  0  0  0  0  0  0  0
   -1.0933   67.1478   69.9072 H   0  0  0  0  0  0  0  0  0  0  0  0
    0.5141   66.0849   67.6663 H   0  0  0  0  0  0  0  0  0  0  0  0
    2.3778   67.0814   68.3606 H   0  0  0  0  0  0  0  0  0  0  0  0
    1.4404   68.2980   69.3215 H   0  0  0  0  0  0  0  0  0  0  0  0
    1.2328   66.9286   71.1309 H   0  0  0  0  0  0  0  0  0  0  0  0
    2.7408   66.1885   70.4075 H   0  0  0  0  0  0  0  0  0  0  0  0
   -0.3144   67.4561   66.2588 H   0  0  0  0  0  0  0  0  0  0  0  0
   -1.1593   68.3561   67.5784 H   0  0  0  0  0  0  0  0  0  0  0  0
    0.3088   70.0299   67.2782 H   0  0  0  0  0  0  0  0  0  0  0  0
    1.5916   68.8901   67.9133 H   0  0  0  0  0  0  0  0  0  0  0  0
    0.9958   69.0333   64.9750 H   0  0  0  0  0  0  0  0  0  0  0  0
    2.3369   69.6434   68.3716 H   0  0  0  0  0  0  0  0  0  0  0  0
    3.9083   68.8291   68.7622 H   0  0  0  0  0  0  0  0  0  0  0  0
    3.2524   71.7868   68.6777 H   0  0  0  0  0  0  0  0  0  0  0  0
    3.9911   70.7707   70.0091 H   0  0  0  0  0  0  0  0  0  0  0  0
    5.2849   72.3144   67.9174 H   0  0  0  0  0  0  0  0  0  0  0  0
    5.9595   71.4848   69.4002 H   0  0  0  0  0  0  0  0  0  0  0  0
    6.9603   70.7706   67.1762 H   0  0  0  0  0  0  0  0  0  0  0  0
    6.3147   69.4623   68.2327 H   0  0  0  0  0  0  0  0  0  0  0  0
    1.7384   68.2009   63.5141 H   0  0  0  0  0  0  0  0  0  0  0  0
    2.8619   67.6221   61.3723 H   0  0  0  0  0  0  0  0  0  0  0  0
    5.3104   68.0311   61.1146 H   0  0  0  0  0  0  0  0  0  0  0  0
    6.5923   69.0625   62.9757 H   0  0  0  0  0  0  0  0  0  0  0  0
   -0.1770   62.8524   70.6657 H   0  0  0  0  0  0  0  0  0  0  0  0
    1.2338   61.9369   70.0443 H   0  0  0  0  0  0  0  0  0  0  0  0
    2.0003   62.5799   72.6556 H   0  0  0  0  0  0  0  0  0  0  0  0
    0.2240   62.2416   72.8010 H   0  0  0  0  0  0  0  0  0  0  0  0
    1.0089   60.2744   71.2548 H   0  0  0  0  0  0  0  0  0  0  0  0
    1.0323   60.1878   74.2373 H   0  0  0  0  0  0  0  0  0  0  0  0
   -0.3994   59.9933   73.1700 H   0  0  0  0  0  0  0  0  0  0  0  0
    0.8965   58.7494   73.1700 H   0  0  0  0  0  0  0  0  0  0  0  0
    3.0399   59.2581   72.6715 H   0  0  0  0  0  0  0  0  0  0  0  0
    3.7339   58.8813   70.6103 H   0  0  0  0  0  0  0  0  0  0  0  0
    2.4333   60.0159   70.0218 H   0  0  0  0  0  0  0  0  0  0  0  0
    4.7126   60.5406   69.1456 H   0  0  0  0  0  0  0  0  0  0  0  0
    3.9254   61.8743   70.0969 H   0  0  0  0  0  0  0  0  0  0  0  0
    6.2519   60.0973   70.8438 H   0  0  0  0  0  0  0  0  0  0  0  0
    6.0817   61.9203   70.8658 H   0  0  0  0  0  0  0  0  0  0  0  0
    5.4866   59.9282   72.9500 H   0  0  0  0  0  0  0  0  0  0  0  0
    5.8418   61.7117   73.0444 H   0  0  0  0  0  0  0  0  0  0  0  0
    3.5893   61.1753   73.9037 H   0  0  0  0  0  0  0  0  0  0  0  0
    3.5373   62.2264   72.4425 H   0  0  0  0  0  0  0  0  0  0  0  0
  2  1  2  0
  3  2  1  0
  4  3  1  0
  5  4  1  0
  6  5  1  0
  7  6  1  0
  8  3  1  0
  8  7  1  0
  9  6  1  0
 10  9  1  0
 11 10  1  0
 12 11  1  0
 13 12  1  0
 14 13  1  0
 15 14  1  0
 16 15  1  0
 17 16  1  0
 18 13  2  0
 18 17  1  0
 19 18  1  0
 20 19  2  0
 21 12  2  0
 21 20  1  0
 22 21  1  0
 23 22  2  0
 24 23  1  0
 25 24  2  0
 25 20  1  0
 26  2  1  0
 27 26  1  0
 28 27  1  0
 29 28  1  0
 30 28  1  0
 31 30  1  0
 32 31  1  0
 33 32  1  0
 34 33  1  0
 35 34  1  0
 35 30  1  0
  4 36  1  0
  4 37  1  0
  5 38  1  0
  5 39  1  0
  6 40  1  0
  7 41  1  0
  7 42  1  0
  8 43  1  0
  8 44  1  0
  9 45  1  0
  9 46  1  0
 10 47  1  0
 10 48  1  0
 11 49  1  0
 14 50  1  0
 14 51  1  0
 15 52  1  0
 15 53  1  0
 16 54  1  0
 16 55  1  0
 17 56  1  0
 17 57  1  0
 22 58  1  0
 23 59  1  0
 24 60  1  0
 25 61  1  0
 26 62  1  0
 26 63  1  0
 27 64  1  0
 27 65  1  0
 28 66  1  6
 29 67  1  0
 29 68  1  0
 29 69  1  0
 30 70  1  0
 31 71  1  0
 31 72  1  0
 32 73  1  0
 32 74  1  0
 33 75  1  0
 33 76  1  0
 34 77  1  0
 34 78  1  0
 35 79  1  0
 35 80  1  0
M  CHG  2   6   1  28   1
M  END
>  <score>  (5) 
-10.738

$$$$
=
     RDKit          3D

 80 84  0  0  0  0  0  0  0  0999 V2000
   -1.0640   68.3830   64.5600 O   0  0  0  0  0  0  0  0  0  0  0  0
    0.0250   68.6110   65.0810 C   0  0  0  0  0  0  0  0  0  0  0  0
    0.2400   68.4200   66.4380 N   0  0  0  0  0  0  0  0  0  0  0  0
    1.5100   68.7050   67.1210 C   0  0  0  0  0  0  0  0  0  0  0  0
    1.5400   68.2210   68.5850 C   0  0  0  0  0  0  0  0  0  0  0  0
    0.7850   66.9190   68.6960 N   0  0  0  0  0  4  0  0  0  0  0  0
   -0.6850   67.0500   68.3450 C   0  0  0  0  0  0  0  0  0  0  0  0
   -0.9220   68.1630   67.3050 C   0  0  0  0  0  0  0  0  0  0  0  0
    1.0650   66.1570   69.9770 C   0  0  0  0  0  0  0  0  0  0  0  0
    0.3270   64.8010   69.9840 C   0  0  0  0  0  0  0  0  0  0  0  0
    0.3300   64.1260   71.2990 N   0  0  0  0  0  0  0  0  0  0  0  0
    0.9970   62.9030   71.5250 C   0  0  0  0  0  0  0  0  0  0  0  0
    2.3110   62.6230   71.1390 C   0  0  0  0  0  0  0  0  0  0  0  0
    3.3470   63.6110   70.6680 C   0  0  0  0  0  0  0  0  0  0  0  0
    4.0950   63.0990   69.4360 C   0  0  0  0  0  0  0  0  0  0  0  0
    4.4620   61.6090   69.5040 C   0  0  0  0  0  0  0  0  0  0  0  0
    4.1720   60.9680   70.8610 C   0  0  0  0  0  0  0  0  0  0  0  0
    2.7710   61.3120   71.3100 C   0  0  0  0  0  0  0  0  0  0  0  0
    2.0500   60.3300   71.8900 N   0  0  0  0  0  0  0  0  0  0  0  0
    0.8700   60.6420   72.4280 C   0  0  0  0  0  0  0  0  0  0  0  0
    0.2870   61.9150   72.2780 C   0  0  0  0  0  0  0  0  0  0  0  0
   -0.9790   62.1460   72.8730 C   0  0  0  0  0  0  0  0  0  0  0  0
   -1.6320   61.1580   73.6110 C   0  0  0  0  0  0  0  0  0  0  0  0
   -1.0350   59.9160   73.7600 C   0  0  0  0  0  0  0  0  0  0  0  0
    0.2010   59.6680   73.1580 C   0  0  0  0  0  0  0  0  0  0  0  0
    1.1830   69.1240   64.2400 C   0  0  0  0  0  0  0  0  0  0  0  0
    1.7130   67.9800   63.3710 C   0  0  0  0  0  0  0  0  0  0  0  0
    3.2380   67.9770   63.3040 N   0  0  2  0  0  4  0  0  0  0  0  0
    3.7540   68.0700   61.8850 C   0  0  0  0  0  0  0  0  0  0  0  0
    3.9120   66.8200   64.0670 C   0  0  0  0  0  0  0  0  0  0  0  0
    2.9250   66.1910   65.0680 C   0  0  0  0  0  0  0  0  0  0  0  0
    2.6030   64.7330   64.7520 C   0  0  0  0  0  0  0  0  0  0  0  0
    3.8610   63.8770   64.6180 C   0  0  0  0  0  0  0  0  0  0  0  0
    5.0140   64.5750   63.8950 C   0  0  0  0  0  0  0  0  0  0  0  0
    4.5630   65.8070   63.1170 C   0  0  0  0  0  0  0  0  0  0  0  0
    2.3212   68.2049   66.5717 H   0  0  0  0  0  0  0  0  0  0  0  0
    1.6316   69.7981   67.1378 H   0  0  0  0  0  0  0  0  0  0  0  0
    2.5828   68.0690   68.9004 H   0  0  0  0  0  0  0  0  0  0  0  0
    1.0695   68.9759   69.2321 H   0  0  0  0  0  0  0  0  0  0  0  0
    1.1721   66.3105   67.9606 H   0  0  0  0  0  0  0  0  0  0  0  0
   -1.0403   66.0942   67.9325 H   0  0  0  0  0  0  0  0  0  0  0  0
   -1.2359   67.3111   69.2606 H   0  0  0  0  0  0  0  0  0  0  0  0
   -1.1681   69.0919   67.8404 H   0  0  0  0  0  0  0  0  0  0  0  0
   -1.7410   67.8248   66.6531 H   0  0  0  0  0  0  0  0  0  0  0  0
    2.1472   65.9785   70.0606 H   0  0  0  0  0  0  0  0  0  0  0  0
    0.7075   66.7560   70.8275 H   0  0  0  0  0  0  0  0  0  0  0  0
   -0.7175   64.9733   69.6852 H   0  0  0  0  0  0  0  0  0  0  0  0
    0.8622   64.1418   69.2847 H   0  0  0  0  0  0  0  0  0  0  0  0
   -0.1749   64.5658   72.0817 H   0  0  0  0  0  0  0  0  0  0  0  0
    2.8479   64.5579   70.4145 H   0  0  0  0  0  0  0  0  0  0  0  0
    4.0771   63.7560   71.4779 H   0  0  0  0  0  0  0  0  0  0  0  0
    3.4583   63.2587   68.5533 H   0  0  0  0  0  0  0  0  0  0  0  0
    5.0407   63.6581   69.3820 H   0  0  0  0  0  0  0  0  0  0  0  0
    3.8847   61.0734   68.7360 H   0  0  0  0  0  0  0  0  0  0  0  0
    5.5471   61.5365   69.3386 H   0  0  0  0  0  0  0  0  0  0  0  0
    4.2684   59.8756   70.7752 H   0  0  0  0  0  0  0  0  0  0  0  0
    4.8908   61.3508   71.6005 H   0  0  0  0  0  0  0  0  0  0  0  0
   -1.4583   63.1284   72.7498 H   0  0  0  0  0  0  0  0  0  0  0  0
   -2.6105   61.3627   74.0698 H   0  0  0  0  0  0  0  0  0  0  0  0
   -1.5314   59.1304   74.3486 H   0  0  0  0  0  0  0  0  0  0  0  0
    0.6574   58.6729   73.2652 H   0  0  0  0  0  0  0  0  0  0  0  0
    0.8358   69.9457   63.5964 H   0  0  0  0  0  0  0  0  0  0  0  0
    1.9842   69.4938   64.8968 H   0  0  0  0  0  0  0  0  0  0  0  0
    1.3736   67.0238   63.7958 H   0  0  0  0  0  0  0  0  0  0  0  0
    1.3267   68.1193   62.3505 H   0  0  0  0  0  0  0  0  0  0  0  0
    3.5135   68.8353   63.8023 H   0  0  0  0  0  0  0  0  0  0  0  0
    4.8365   68.2651   61.9005 H   0  0  0  0  0  0  0  0  0  0  0  0
    3.5597   67.1224   61.3613 H   0  0  0  0  0  0  0  0  0  0  0  0
    3.2411   68.8902   61.3613 H   0  0  0  0  0  0  0  0  0  0  0  0
    4.7455   67.2256   64.6592 H   0  0  0  0  0  0  0  0  0  0  0  0
    3.3660   66.2424   66.0744 H   0  0  0  0  0  0  0  0  0  0  0  0
    1.9843   66.7573   65.0024 H   0  0  0  0  0  0  0  0  0  0  0  0
    1.9818   64.3243   65.5626 H   0  0  0  0  0  0  0  0  0  0  0  0
    2.0740   64.7067   63.7879 H   0  0  0  0  0  0  0  0  0  0  0  0
    4.2014   63.6020   65.6272 H   0  0  0  0  0  0  0  0  0  0  0  0
    3.5874   63.0019   64.0103 H   0  0  0  0  0  0  0  0  0  0  0  0
    5.7611   64.8841   64.6409 H   0  0  0  0  0  0  0  0  0  0  0  0
    5.4325   63.8604   63.1710 H   0  0  0  0  0  0  0  0  0  0  0  0
    5.4348   66.2707   62.6323 H   0  0  0  0  0  0  0  0  0  0  0  0
    3.8293   65.5038   62.3556 H   0  0  0  0  0  0  0  0  0  0  0  0
  2  1  2  0
  3  2  1  0
  4  3  1  0
  5  4  1  0
  6  5  1  0
  7  6  1  0
  8  3  1  0
  8  7  1  0
  9  6  1  0
 10  9  1  0
 11 10  1  0
 12 11  1  0
 13 12  1  0
 14 13  1  0
 15 14  1  0
 16 15  1  0
 17 16  1  0
 18 13  2  0
 18 17  1  0
 19 18  1  0
 20 19  2  0
 21 12  2  0
 21 20  1  0
 22 21  1  0
 23 22  2  0
 24 23  1  0
 25 24  2  0
 25 20  1  0
 26  2  1  0
 27 26  1  0
 28 27  1  0
 29 28  1  0
 30 28  1  0
 31 30  1  0
 32 31  1  0
 33 32  1  0
 34 33  1  0
 35 34  1  0
 35 30  1  0
  4 36  1  0
  4 37  1  0
  5 38  1  0
  5 39  1  0
  6 40  1  0
  7 41  1  0
  7 42  1  0
  8 43  1  0
  8 44  1  0
  9 45  1  0
  9 46  1  0
 10 47  1  0
 10 48  1  0
 11 49  1  0
 14 50  1  0
 14 51  1  0
 15 52  1  0
 15 53  1  0
 16 54  1  0
 16 55  1  0
 17 56  1  0
 17 57  1  0
 22 58  1  0
 23 59  1  0
 24 60  1  0
 25 61  1  0
 26 62  1  0
 26 63  1  0
 27 64  1  0
 27 65  1  0
 28 66  1  1
 29 67  1  0
 29 68  1  0
 29 69  1  0
 30 70  1  0
 31 71  1  0
 31 72  1  0
 32 73  1  0
 32 74  1  0
 33 75  1  0
 33 76  1  0
 34 77  1  0
 34 78  1  0
 35 79  1  0
 35 80  1  0
M  CHG  2   6   1  28   1
M  END
>  <score>  (6) 
-10.719

$$$$
=
     RDKit          3D

 80 84  0  0  0  0  0  0  0  0999 V2000
    1.9700   61.8910   71.0520 O   0  0  0  0  0  0  0  0  0  0  0  0
    1.1070   62.6670   71.4560 C   0  0  0  0  0  0  0  0  0  0  0  0
    1.0860   64.0000   71.0740 N   0  0  0  0  0  0  0  0  0  0  0  0
    0.0980   64.9800   71.5480 C   0  0  0  0  0  0  0  0  0  0  0  0
    0.1820   66.3370   70.8200 C   0  0  0  0  0  0  0  0  0  0  0  0
    0.5220   66.1030   69.3680 N   0  0  0  0  0  4  0  0  0  0  0  0
    1.8790   65.4550   69.1700 C   0  0  0  0  0  0  0  0  0  0  0  0
    2.2510   64.5450   70.3570 C   0  0  0  0  0  0  0  0  0  0  0  0
    0.2560   67.3020   68.4770 C   0  0  0  0  0  0  0  0  0  0  0  0
    1.3350   67.4220   67.3800 C   0  0  0  0  0  0  0  0  0  0  0  0
    1.6780   68.8170   67.0300 N   0  0  0  0  0  0  0  0  0  0  0  0
    2.9320   69.1810   66.4950 C   0  0  0  0  0  0  0  0  0  0  0  0
    3.2800   69.1040   65.1440 C   0  0  0  0  0  0  0  0  0  0  0  0
    2.3480   68.8880   63.9800 C   0  0  0  0  0  0  0  0  0  0  0  0
    2.9040   67.8560   62.9970 C   0  0  0  0  0  0  0  0  0  0  0  0
    4.4100   67.9960   62.7300 C   0  0  0  0  0  0  0  0  0  0  0  0
    5.0290   69.2470   63.3540 C   0  0  0  0  0  0  0  0  0  0  0  0
    4.6120   69.3670   64.8010 C   0  0  0  0  0  0  0  0  0  0  0  0
    5.5530   69.7610   65.6840 N   0  0  0  0  0  0  0  0  0  0  0  0
    5.1790   70.0170   66.9380 C   0  0  0  0  0  0  0  0  0  0  0  0
    3.8790   69.7460   67.4070 C   0  0  0  0  0  0  0  0  0  0  0  0
    3.5810   70.0380   68.7630 C   0  0  0  0  0  0  0  0  0  0  0  0
    4.5310   70.6010   69.6150 C   0  0  0  0  0  0  0  0  0  0  0  0
    5.8010   70.8750   69.1310 C   0  0  0  0  0  0  0  0  0  0  0  0
    6.1140   70.5690   67.8050 C   0  0  0  0  0  0  0  0  0  0  0  0
    0.0260   62.1800   72.4080 C   0  0  0  0  0  0  0  0  0  0  0  0
    0.2040   60.6760   72.6360 C   0  0  0  0  0  0  0  0  0  0  0  0
    0.6100   60.3640   74.0740 N   0  0  2  0  0  4  0  0  0  0  0  0
    1.6850   61.2990   74.5840 C   0  0  0  0  0  0  0  0  0  0  0  0
    0.9850   58.8910   74.3300 C   0  0  0  0  0  0  0  0  0  0  0  0
   -0.2120   58.1300   74.9300 C   0  0  0  0  0  0  0  0  0  0  0  0
   -0.7190   57.0090   74.0270 C   0  0  0  0  0  0  0  0  0  0  0  0
    0.3920   56.0420   73.6220 C   0  0  0  0  0  0  0  0  0  0  0  0
    1.7270   56.7230   73.3120 C   0  0  0  0  0  0  0  0  0  0  0  0
    1.5830   58.2250   73.0850 C   0  0  0  0  0  0  0  0  0  0  0  0
   -0.9082   64.5632   71.3933 H   0  0  0  0  0  0  0  0  0  0  0  0
    0.3118   65.1682   72.6105 H   0  0  0  0  0  0  0  0  0  0  0  0
   -0.7865   66.8534   70.8921 H   0  0  0  0  0  0  0  0  0  0  0  0
    0.9614   66.9579   71.2859 H   0  0  0  0  0  0  0  0  0  0  0  0
   -0.1509   65.3976   69.0355 H   0  0  0  0  0  0  0  0  0  0  0  0
    1.8557   64.8513   68.2508 H   0  0  0  0  0  0  0  0  0  0  0  0
    2.6338   66.2519   69.0972 H   0  0  0  0  0  0  0  0  0  0  0  0
    2.8533   65.1301   71.0675 H   0  0  0  0  0  0  0  0  0  0  0  0
    2.8034   63.6882   69.9439 H   0  0  0  0  0  0  0  0  0  0  0  0
   -0.7294   67.1864   68.0020 H   0  0  0  0  0  0  0  0  0  0  0  0
    0.2798   68.2117   69.0949 H   0  0  0  0  0  0  0  0  0  0  0  0
    2.2470   66.9191   67.7341 H   0  0  0  0  0  0  0  0  0  0  0  0
    0.9225   66.9564   66.4728 H   0  0  0  0  0  0  0  0  0  0  0  0
    0.9734   69.5526   67.1828 H   0  0  0  0  0  0  0  0  0  0  0  0
    1.3787   68.5329   64.3600 H   0  0  0  0  0  0  0  0  0  0  0  0
    2.2351   69.8440   63.4478 H   0  0  0  0  0  0  0  0  0  0  0  0
    2.7171   66.8523   63.4066 H   0  0  0  0  0  0  0  0  0  0  0  0
    2.3936   68.0234   62.0371 H   0  0  0  0  0  0  0  0  0  0  0  0
    4.9198   67.1130   63.1427 H   0  0  0  0  0  0  0  0  0  0  0  0
    4.5377   68.0821   61.6408 H   0  0  0  0  0  0  0  0  0  0  0  0
    6.1253   69.1779   63.2960 H   0  0  0  0  0  0  0  0  0  0  0  0
    4.6798   70.1335   62.8043 H   0  0  0  0  0  0  0  0  0  0  0  0
    2.5765   69.8150   69.1518 H   0  0  0  0  0  0  0  0  0  0  0  0
    4.2751   70.8255   70.6610 H   0  0  0  0  0  0  0  0  0  0  0  0
    6.5572   71.3305   69.7873 H   0  0  0  0  0  0  0  0  0  0  0  0
    7.1304   70.7708   67.4361 H   0  0  0  0  0  0  0  0  0  0  0  0
    0.1125   62.7113   73.3673 H   0  0  0  0  0  0  0  0  0  0  0  0
   -0.9663   62.3757   71.9755 H   0  0  0  0  0  0  0  0  0  0  0  0
   -0.7465   60.1678   72.4163 H   0  0  0  0  0  0  0  0  0  0  0  0
    1.0051   60.3221   71.9704 H   0  0  0  0  0  0  0  0  0  0  0  0
   -0.2468   60.5302   74.6209 H   0  0  0  0  0  0  0  0  0  0  0  0
    1.6817   61.2962   75.6840 H   0  0  0  0  0  0  0  0  0  0  0  0
    2.6668   60.9626   74.2194 H   0  0  0  0  0  0  0  0  0  0  0  0
    1.4879   62.3179   74.2194 H   0  0  0  0  0  0  0  0  0  0  0  0
    1.7888   58.8564   75.0802 H   0  0  0  0  0  0  0  0  0  0  0  0
    0.0964   57.6933   75.8914 H   0  0  0  0  0  0  0  0  0  0  0  0
   -1.0333   58.8516   75.0515 H   0  0  0  0  0  0  0  0  0  0  0  0
   -1.4980   56.4477   74.5637 H   0  0  0  0  0  0  0  0  0  0  0  0
   -1.1147   57.4694   73.1097 H   0  0  0  0  0  0  0  0  0  0  0  0
    0.5495   55.3311   74.4465 H   0  0  0  0  0  0  0  0  0  0  0  0
    0.0631   55.5493   72.6952 H   0  0  0  0  0  0  0  0  0  0  0  0
    2.4106   56.5589   74.1580 H   0  0  0  0  0  0  0  0  0  0  0  0
    2.1169   56.2823   72.3826 H   0  0  0  0  0  0  0  0  0  0  0  0
    2.5730   58.6586   72.8804 H   0  0  0  0  0  0  0  0  0  0  0  0
    0.9148   58.3973   72.2284 H   0  0  0  0  0  0  0  0  0  0  0  0
  2  1  2  0
  3  2  1  0
  4  3  1  0
  5  4  1  0
  6  5  1  0
  7  6  1  0
  8  3  1  0
  8  7  1  0
  9  6  1  0
 10  9  1  0
 11 10  1  0
 12 11  1  0
 13 12  1  0
 14 13  1  0
 15 14  1  0
 16 15  1  0
 17 16  1  0
 18 13  2  0
 18 17  1  0
 19 18  1  0
 20 19  2  0
 21 12  2  0
 21 20  1  0
 22 21  1  0
 23 22  2  0
 24 23  1  0
 25 24  2  0
 25 20  1  0
 26  2  1  0
 27 26  1  0
 28 27  1  0
 29 28  1  0
 30 28  1  0
 31 30  1  0
 32 31  1  0
 33 32  1  0
 34 33  1  0
 35 34  1  0
 35 30  1  0
  4 36  1  0
  4 37  1  0
  5 38  1  0
  5 39  1  0
  6 40  1  0
  7 41  1  0
  7 42  1  0
  8 43  1  0
  8 44  1  0
  9 45  1  0
  9 46  1  0
 10 47  1  0
 10 48  1  0
 11 49  1  0
 14 50  1  0
 14 51  1  0
 15 52  1  0
 15 53  1  0
 16 54  1  0
 16 55  1  0
 17 56  1  0
 17 57  1  0
 22 58  1  0
 23 59  1  0
 24 60  1  0
 25 61  1  0
 26 62  1  0
 26 63  1  0
 27 64  1  0
 27 65  1  0
 28 66  1  1
 29 67  1  0
 29 68  1  0
 29 69  1  0
 30 70  1  0
 31 71  1  0
 31 72  1  0
 32 73  1  0
 32 74  1  0
 33 75  1  0
 33 76  1  0
 34 77  1  0
 34 78  1  0
 35 79  1  0
 35 80  1  0
M  CHG  2   6   1  28   1
M  END
>  <score>  (7) 
-10.549

$$$$
=
     RDKit          3D

 80 84  0  0  0  0  0  0  0  0999 V2000
   -2.0350   67.8730   65.9090 O   0  0  0  0  0  0  0  0  0  0  0  0
   -0.9070   68.2500   66.2210 C   0  0  0  0  0  0  0  0  0  0  0  0
   -0.3300   67.9050   67.4340 N   0  0  0  0  0  0  0  0  0  0  0  0
    1.0000   68.3500   67.8730 C   0  0  0  0  0  0  0  0  0  0  0  0
    1.4780   67.6670   69.1700 C   0  0  0  0  0  0  0  0  0  0  0  0
    1.0130   66.2310   69.1780 N   0  0  0  0  0  4  0  0  0  0  0  0
   -0.4970   66.0920   69.1830 C   0  0  0  0  0  0  0  0  0  0  0  0
   -1.1770   67.2730   68.4600 C   0  0  0  0  0  0  0  0  0  0  0  0
    1.7320   65.3610   70.1920 C   0  0  0  0  0  0  0  0  0  0  0  0
    0.8210   64.2140   70.6780 C   0  0  0  0  0  0  0  0  0  0  0  0
    1.1850   63.6850   72.0100 N   0  0  0  0  0  0  0  0  0  0  0  0
    1.4340   62.3160   72.2430 C   0  0  0  0  0  0  0  0  0  0  0  0
    0.4770   61.3880   72.6630 C   0  0  0  0  0  0  0  0  0  0  0  0
   -1.0180   61.5770   72.6890 C   0  0  0  0  0  0  0  0  0  0  0  0
   -1.6270   61.0710   73.9980 C   0  0  0  0  0  0  0  0  0  0  0  0
   -1.0350   59.7410   74.4890 C   0  0  0  0  0  0  0  0  0  0  0  0
   -0.0830   59.0880   73.4870 C   0  0  0  0  0  0  0  0  0  0  0  0
    0.9210   60.1000   72.9870 C   0  0  0  0  0  0  0  0  0  0  0  0
    2.1980   59.6860   72.8460 N   0  0  0  0  0  0  0  0  0  0  0  0
    3.0730   60.5120   72.2700 C   0  0  0  0  0  0  0  0  0  0  0  0
    2.7510   61.8440   71.9450 C   0  0  0  0  0  0  0  0  0  0  0  0
    3.7550   62.6490   71.3480 C   0  0  0  0  0  0  0  0  0  0  0  0
    5.0230   62.1440   71.0620 C   0  0  0  0  0  0  0  0  0  0  0  0
    5.3160   60.8260   71.3760 C   0  0  0  0  0  0  0  0  0  0  0  0
    4.3450   60.0300   71.9860 C   0  0  0  0  0  0  0  0  0  0  0  0
   -0.1030   69.1230   65.2710 C   0  0  0  0  0  0  0  0  0  0  0  0
    0.3510   68.2760   64.0780 C   0  0  0  0  0  0  0  0  0  0  0  0
    1.4440   68.9720   63.2710 N   0  0  2  0  0  4  0  0  0  0  0  0
    1.0800   69.1140   61.8090 C   0  0  0  0  0  0  0  0  0  0  0  0
    2.8510   68.3650   63.4380 C   0  0  0  0  0  0  0  0  0  0  0  0
    3.5820   68.3280   62.0840 C   0  0  0  0  0  0  0  0  0  0  0  0
    4.8360   69.1980   62.0580 C   0  0  0  0  0  0  0  0  0  0  0  0
    5.7930   68.8720   63.2020 C   0  0  0  0  0  0  0  0  0  0  0  0
    5.0960   68.5820   64.5330 C   0  0  0  0  0  0  0  0  0  0  0  0
    3.6460   69.0550   64.5540 C   0  0  0  0  0  0  0  0  0  0  0  0
    1.7232   68.1270   67.0747 H   0  0  0  0  0  0  0  0  0  0  0  0
    0.9290   69.4278   68.0812 H   0  0  0  0  0  0  0  0  0  0  0  0
    2.5765   67.6978   69.2182 H   0  0  0  0  0  0  0  0  0  0  0  0
    1.0600   68.1946   70.0400 H   0  0  0  0  0  0  0  0  0  0  0  0
    1.3043   65.8410   68.2703 H   0  0  0  0  0  0  0  0  0  0  0  0
   -0.7713   65.1560   68.6743 H   0  0  0  0  0  0  0  0  0  0  0  0
   -0.8390   66.0849   70.2285 H   0  0  0  0  0  0  0  0  0  0  0  0
   -1.4409   68.0337   69.2095 H   0  0  0  0  0  0  0  0  0  0  0  0
   -2.0603   66.8688   67.9438 H   0  0  0  0  0  0  0  0  0  0  0  0
    2.6319   64.9333   69.7258 H   0  0  0  0  0  0  0  0  0  0  0  0
    2.0059   65.9828   71.0571 H   0  0  0  0  0  0  0  0  0  0  0  0
   -0.2124   64.5880   70.7241 H   0  0  0  0  0  0  0  0  0  0  0  0
    0.9385   63.3870   69.9623 H   0  0  0  0  0  0  0  0  0  0  0  0
    1.2598   64.3424   72.7994 H   0  0  0  0  0  0  0  0  0  0  0  0
   -1.2443   62.6480   72.5805 H   0  0  0  0  0  0  0  0  0  0  0  0
   -1.4524   60.9978   71.8609 H   0  0  0  0  0  0  0  0  0  0  0  0
   -1.4594   61.8319   74.7745 H   0  0  0  0  0  0  0  0  0  0  0  0
   -2.6949   60.8920   73.8042 H   0  0  0  0  0  0  0  0  0  0  0  0
   -0.4828   59.9293   75.4215 H   0  0  0  0  0  0  0  0  0  0  0  0
   -1.8763   59.0473   74.6339 H   0  0  0  0  0  0  0  0  0  0  0  0
    0.4492   58.2598   73.9778 H   0  0  0  0  0  0  0  0  0  0  0  0
   -0.6645   58.7072   72.6344 H   0  0  0  0  0  0  0  0  0  0  0  0
    3.5277   63.6974   71.1047 H   0  0  0  0  0  0  0  0  0  0  0  0
    5.7832   62.7852   70.5919 H   0  0  0  0  0  0  0  0  0  0  0  0
    6.3079   60.4098   71.1458 H   0  0  0  0  0  0  0  0  0  0  0  0
    4.5939   58.9914   72.2494 H   0  0  0  0  0  0  0  0  0  0  0  0
   -0.7289   69.9548   64.9157 H   0  0  0  0  0  0  0  0  0  0  0  0
    0.7754   69.5295   65.7936 H   0  0  0  0  0  0  0  0  0  0  0  0
    0.7396   67.3165   64.4500 H   0  0  0  0  0  0  0  0  0  0  0  0
   -0.5157   68.1228   63.4182 H   0  0  0  0  0  0  0  0  0  0  0  0
    1.4986   69.9150   63.6816 H   0  0  0  0  0  0  0  0  0  0  0  0
    0.0584   69.5125   61.7225 H   0  0  0  0  0  0  0  0  0  0  0  0
    1.7849   69.8031   61.3209 H   0  0  0  0  0  0  0  0  0  0  0  0
    1.1321   68.1296   61.3209 H   0  0  0  0  0  0  0  0  0  0  0  0
    2.7487   67.3213   63.7699 H   0  0  0  0  0  0  0  0  0  0  0  0
    3.8722   67.2886   61.8709 H   0  0  0  0  0  0  0  0  0  0  0  0
    2.8906   68.7255   61.3264 H   0  0  0  0  0  0  0  0  0  0  0  0
    5.3583   69.0368   61.1034 H   0  0  0  0  0  0  0  0  0  0  0  0
    4.5204   70.2456   62.1723 H   0  0  0  0  0  0  0  0  0  0  0  0
    6.3810   67.9864   62.9193 H   0  0  0  0  0  0  0  0  0  0  0  0
    6.4182   69.7635   63.3578 H   0  0  0  0  0  0  0  0  0  0  0  0
    5.1146   67.4966   64.7107 H   0  0  0  0  0  0  0  0  0  0  0  0
    5.6362   69.1322   65.3175 H   0  0  0  0  0  0  0  0  0  0  0  0
    3.1966   68.8080   65.5272 H   0  0  0  0  0  0  0  0  0  0  0  0
    3.6196   70.1432   64.3954 H   0  0  0  0  0  0  0  0  0  0  0  0
  2  1  2  0
  3  2  1  0
  4  3  1  0
  5  4  1  0
  6  5  1  0
  7  6  1  0
  8  3  1  0
  8  7  1  0
  9  6  1  0
 10  9  1  0
 11 10  1  0
 12 11  1  0
 13 12  1  0
 14 13  1  0
 15 14  1  0
 16 15  1  0
 17 16  1  0
 18 13  2  0
 18 17  1  0
 19 18  1  0
 20 19  2  0
 21 12  2  0
 21 20  1  0
 22 21  1  0
 23 22  2  0
 24 23  1  0
 25 24  2  0
 25 20  1  0
 26  2  1  0
 27 26  1  0
 28 27  1  0
 29 28  1  0
 30 28  1  0
 31 30  1  0
 32 31  1  0
 33 32  1  0
 34 33  1  0
 35 34  1  0
 35 30  1  0
  4 36  1  0
  4 37  1  0
  5 38  1  0
  5 39  1  0
  6 40  1  0
  7 41  1  0
  7 42  1  0
  8 43  1  0
  8 44  1  0
  9 45  1  0
  9 46  1  0
 10 47  1  0
 10 48  1  0
 11 49  1  0
 14 50  1  0
 14 51  1  0
 15 52  1  0
 15 53  1  0
 16 54  1  0
 16 55  1  0
 17 56  1  0
 17 57  1  0
 22 58  1  0
 23 59  1  0
 24 60  1  0
 25 61  1  0
 26 62  1  0
 26 63  1  0
 27 64  1  0
 27 65  1  0
 28 66  1  1
 29 67  1  0
 29 68  1  0
 29 69  1  0
 30 70  1  0
 31 71  1  0
 31 72  1  0
 32 73  1  0
 32 74  1  0
 33 75  1  0
 33 76  1  0
 34 77  1  0
 34 78  1  0
 35 79  1  0
 35 80  1  0
M  CHG  2   6   1  28   1
M  END
>  <score>  (8) 
-10.333

$$$$
=
     RDKit          3D

 80 84  0  0  0  0  0  0  0  0999 V2000
    2.6020   62.0310   70.6530 O   0  0  0  0  0  0  0  0  0  0  0  0
    1.5920   62.5850   71.0820 C   0  0  0  0  0  0  0  0  0  0  0  0
    1.3380   63.9270   70.8440 N   0  0  0  0  0  0  0  0  0  0  0  0
    0.1640   64.6490   71.3560 C   0  0  0  0  0  0  0  0  0  0  0  0
    0.0250   66.0750   70.7850 C   0  0  0  0  0  0  0  0  0  0  0  0
    0.4670   66.0800   69.3420 N   0  0  0  0  0  4  0  0  0  0  0  0
    1.9290   65.7170   69.1650 C   0  0  0  0  0  0  0  0  0  0  0  0
    2.4120   64.7550   70.2690 C   0  0  0  0  0  0  0  0  0  0  0  0
    0.0210   67.3070   68.5700 C   0  0  0  0  0  0  0  0  0  0  0  0
    0.8950   67.5160   67.3150 C   0  0  0  0  0  0  0  0  0  0  0  0
    1.4010   68.8960   67.1610 N   0  0  0  0  0  0  0  0  0  0  0  0
    2.6350   69.1890   66.5430 C   0  0  0  0  0  0  0  0  0  0  0  0
    2.8970   69.0620   65.1760 C   0  0  0  0  0  0  0  0  0  0  0  0
    1.8880   68.8570   64.0760 C   0  0  0  0  0  0  0  0  0  0  0  0
    2.3390   67.7760   63.0920 C   0  0  0  0  0  0  0  0  0  0  0  0
    3.8310   67.8420   62.7330 C   0  0  0  0  0  0  0  0  0  0  0  0
    4.5390   69.0800   63.2830 C   0  0  0  0  0  0  0  0  0  0  0  0
    4.2160   69.2560   64.7480 C   0  0  0  0  0  0  0  0  0  0  0  0
    5.2250   69.6310   65.5620 N   0  0  0  0  0  0  0  0  0  0  0  0
    4.9380   69.9370   66.8280 C   0  0  0  0  0  0  0  0  0  0  0  0
    3.6590   69.7350   67.3810 C   0  0  0  0  0  0  0  0  0  0  0  0
    3.4560   70.0760   68.7430 C   0  0  0  0  0  0  0  0  0  0  0  0
    4.4780   70.6190   69.5210 C   0  0  0  0  0  0  0  0  0  0  0  0
    5.7270   70.8230   68.9550 C   0  0  0  0  0  0  0  0  0  0  0  0
    5.9470   70.4690   67.6220 C   0  0  0  0  0  0  0  0  0  0  0  0
    0.5800   61.8010   71.9020 C   0  0  0  0  0  0  0  0  0  0  0  0
    1.2980   61.1470   73.0870 C   0  0  0  0  0  0  0  0  0  0  0  0
    0.3220   60.7480   74.1910 N   0  0  2  0  0  4  0  0  0  0  0  0
   -1.0140   60.2960   73.6430 C   0  0  0  0  0  0  0  0  0  0  0  0
    0.1420   61.8020   75.3010 C   0  0  0  0  0  0  0  0  0  0  0  0
    1.1240   62.9700   75.0940 C   0  0  0  0  0  0  0  0  0  0  0  0
    0.4230   64.2990   74.8260 C   0  0  0  0  0  0  0  0  0  0  0  0
   -0.6080   64.6390   75.9010 C   0  0  0  0  0  0  0  0  0  0  0  0
   -1.4190   63.4350   76.3880 C   0  0  0  0  0  0  0  0  0  0  0  0
   -1.3210   62.2390   75.4460 C   0  0  0  0  0  0  0  0  0  0  0  0
   -0.7387   64.0783   71.0924 H   0  0  0  0  0  0  0  0  0  0  0  0
    0.2915   64.7459   72.4443 H   0  0  0  0  0  0  0  0  0  0  0  0
   -1.0254   66.3955   70.8486 H   0  0  0  0  0  0  0  0  0  0  0  0
    0.6532   66.7670   71.3651 H   0  0  0  0  0  0  0  0  0  0  0  0
   -0.0464   65.3087   68.8920 H   0  0  0  0  0  0  0  0  0  0  0  0
    2.0606   65.2323   68.1863 H   0  0  0  0  0  0  0  0  0  0  0  0
    2.5232   66.6405   69.2288 H   0  0  0  0  0  0  0  0  0  0  0  0
    2.8614   65.3511   71.0769 H   0  0  0  0  0  0  0  0  0  0  0  0
    3.1337   64.0677   69.8035 H   0  0  0  0  0  0  0  0  0  0  0  0
   -1.0269   67.1772   68.2616 H   0  0  0  0  0  0  0  0  0  0  0  0
    0.1238   68.1881   69.2205 H   0  0  0  0  0  0  0  0  0  0  0  0
    1.7572   66.8357   67.3761 H   0  0  0  0  0  0  0  0  0  0  0  0
    0.2563   67.3108   66.4432 H   0  0  0  0  0  0  0  0  0  0  0  0
    0.8300   69.6749   67.5191 H   0  0  0  0  0  0  0  0  0  0  0  0
    0.9292   68.5553   64.5228 H   0  0  0  0  0  0  0  0  0  0  0  0
    1.7841   69.8028   63.5240 H   0  0  0  0  0  0  0  0  0  0  0  0
    2.1342   66.7927   63.5405 H   0  0  0  0  0  0  0  0  0  0  0  0
    1.7794   67.9407   62.1594 H   0  0  0  0  0  0  0  0  0  0  0  0
    4.3265   66.9484   63.1404 H   0  0  0  0  0  0  0  0  0  0  0  0
    3.8967   67.8937   61.6362 H   0  0  0  0  0  0  0  0  0  0  0  0
    5.6258   68.9612   63.1620 H   0  0  0  0  0  0  0  0  0  0  0  0
    4.1950   69.9664   62.7299 H   0  0  0  0  0  0  0  0  0  0  0  0
    2.4681   69.9079   69.1966 H   0  0  0  0  0  0  0  0  0  0  0  0
    4.2950   70.8828   70.5731 H   0  0  0  0  0  0  0  0  0  0  0  0
    6.5401   71.2612   69.5524 H   0  0  0  0  0  0  0  0  0  0  0  0
    6.9472   70.6154   67.1883 H   0  0  0  0  0  0  0  0  0  0  0  0
   -0.2003   62.4815   72.2735 H   0  0  0  0  0  0  0  0  0  0  0  0
    0.1145   61.0258   71.2756 H   0  0  0  0  0  0  0  0  0  0  0  0
    1.8224   60.2472   72.7330 H   0  0  0  0  0  0  0  0  0  0  0  0
    2.0057   61.8786   73.5041 H   0  0  0  0  0  0  0  0  0  0  0  0
    0.7718   59.9412   74.6467 H   0  0  0  0  0  0  0  0  0  0  0  0
   -1.6935   60.0661   74.4769 H   0  0  0  0  0  0  0  0  0  0  0  0
   -1.4477   61.0974   73.0269 H   0  0  0  0  0  0  0  0  0  0  0  0
   -0.8720   59.3959   73.0269 H   0  0  0  0  0  0  0  0  0  0  0  0
    0.3958   61.3443   76.2685 H   0  0  0  0  0  0  0  0  0  0  0  0
    1.7396   63.0749   75.9996 H   0  0  0  0  0  0  0  0  0  0  0  0
    1.7325   62.7348   74.2083 H   0  0  0  0  0  0  0  0  0  0  0  0
    1.1788   65.0976   74.7958 H   0  0  0  0  0  0  0  0  0  0  0  0
   -0.1081   64.2114   73.8667 H   0  0  0  0  0  0  0  0  0  0  0  0
   -0.0792   65.0716   76.7631 H   0  0  0  0  0  0  0  0  0  0  0  0
   -1.3222   65.3415   75.4466 H   0  0  0  0  0  0  0  0  0  0  0  0
   -1.0439   63.1351   77.3776 H   0  0  0  0  0  0  0  0  0  0  0  0
   -2.4750   63.7403   76.4285 H   0  0  0  0  0  0  0  0  0  0  0  0
   -1.9112   61.4051   75.8538 H   0  0  0  0  0  0  0  0  0  0  0  0
   -1.7112   62.5253   74.4582 H   0  0  0  0  0  0  0  0  0  0  0  0
  2  1  2  0
  3  2  1  0
  4  3  1  0
  5  4  1  0
  6  5  1  0
  7  6  1  0
  8  3  1  0
  8  7  1  0
  9  6  1  0
 10  9  1  0
 11 10  1  0
 12 11  1  0
 13 12  1  0
 14 13  1  0
 15 14  1  0
 16 15  1  0
 17 16  1  0
 18 13  2  0
 18 17  1  0
 19 18  1  0
 20 19  2  0
 21 12  2  0
 21 20  1  0
 22 21  1  0
 23 22  2  0
 24 23  1  0
 25 24  2  0
 25 20  1  0
 26  2  1  0
 27 26  1  0
 28 27  1  0
 29 28  1  0
 30 28  1  0
 31 30  1  0
 32 31  1  0
 33 32  1  0
 34 33  1  0
 35 34  1  0
 35 30  1  0
  4 36  1  0
  4 37  1  0
  5 38  1  0
  5 39  1  0
  6 40  1  0
  7 41  1  0
  7 42  1  0
  8 43  1  0
  8 44  1  0
  9 45  1  0
  9 46  1  0
 10 47  1  0
 10 48  1  0
 11 49  1  0
 14 50  1  0
 14 51  1  0
 15 52  1  0
 15 53  1  0
 16 54  1  0
 16 55  1  0
 17 56  1  0
 17 57  1  0
 22 58  1  0
 23 59  1  0
 24 60  1  0
 25 61  1  0
 26 62  1  0
 26 63  1  0
 27 64  1  0
 27 65  1  0
 28 66  1  1
 29 67  1  0
 29 68  1  0
 29 69  1  0
 30 70  1  0
 31 71  1  0
 31 72  1  0
 32 73  1  0
 32 74  1  0
 33 75  1  0
 33 76  1  0
 34 77  1  0
 34 78  1  0
 35 79  1  0
 35 80  1  0
M  CHG  2   6   1  28   1
M  END
>  <score>  (9) 
-10.048

$$$$
