=
     RDKit          3D

 36 36  0  0  0  0  0  0  0  0999 V2000
    2.3870   68.1310   64.4160 C   0  0  1  0  0  0  0  0  0  0  0  0
    3.3290   68.8800   65.3440 C   0  0  0  0  0  0  0  0  0  0  0  0
    2.9140   69.1940   66.6490 C   0  0  0  0  0  0  0  0  0  0  0  0
    3.7680   69.8640   67.5270 C   0  0  0  0  0  0  0  0  0  0  0  0
    5.0510   70.2130   67.1050 C   0  0  0  0  0  0  0  0  0  0  0  0
    5.4820   69.9210   65.8100 C   0  0  0  0  0  0  0  0  0  0  0  0
    4.6230   69.2500   64.9360 C   0  0  0  0  0  0  0  0  0  0  0  0
    6.1420   71.0730   68.2130 S   0  0  0  0  0  6  0  0  0  0  0  0
    5.9470   72.4950   68.0030 O   0  0  0  0  0  0  0  0  0  0  0  0
    7.4560   70.4750   68.0820 O   0  0  0  0  0  0  0  0  0  0  0  0
    5.5000   70.6610   69.8150 C   0  0  0  0  0  0  0  0  0  0  0  0
    2.4570   66.7230   64.6910 O   0  0  0  0  0  0  0  0  0  0  0  0
    0.9170   68.6120   64.5440 C   0  0  2  0  0  0  0  0  0  0  0  0
    0.1250   67.6690   65.3360 N   0  0  0  0  0  0  0  0  0  0  0  0
   -0.5100   68.0250   66.5080 C   0  0  0  0  0  0  0  0  0  0  0  0
   -0.3980   69.1540   66.9880 O   0  0  0  0  0  0  0  0  0  0  0  0
   -1.3340   66.9310   67.1880 C   0  0  0  0  0  0  0  0  0  0  0  0
   -0.6090   66.5330   68.7610 Cl  0  0  0  0  0  0  0  0  0  0  0  0
   -3.0020   67.5070   67.3950 Cl  0  0  0  0  0  0  0  0  0  0  0  0
    0.2950   68.8090   63.1490 C   0  0  0  0  0  0  0  0  0  0  0  0
   -1.1290   68.7990   63.2290 O   0  0  0  0  0  0  0  0  0  0  0  0
    2.7115   68.3378   63.3855 H   0  0  0  0  0  0  0  0  0  0  0  0
    1.9053   68.9089   66.9826 H   0  0  0  0  0  0  0  0  0  0  0  0
    3.4317   70.1148   68.5439 H   0  0  0  0  0  0  0  0  0  0  0  0
    6.4890   70.2165   65.4804 H   0  0  0  0  0  0  0  0  0  0  0  0
    4.9624   69.0085   63.9179 H   0  0  0  0  0  0  0  0  0  0  0  0
    6.1554   71.0816   70.5919 H   0  0  0  0  0  0  0  0  0  0  0  0
    4.4882   71.0789   69.9231 H   0  0  0  0  0  0  0  0  0  0  0  0
    5.4584   69.5671   69.9231 H   0  0  0  0  0  0  0  0  0  0  0  0
    2.4642   66.5780   65.6703 H   0  0  0  0  0  0  0  0  0  0  0  0
    0.9142   69.5793   65.0678 H   0  0  0  0  0  0  0  0  0  0  0  0
    0.0382   66.6979   65.0039 H   0  0  0  0  0  0  0  0  0  0  0  0
   -1.3429   66.0226   66.5678 H   0  0  0  0  0  0  0  0  0  0  0  0
    0.6273   69.7736   62.7378 H   0  0  0  0  0  0  0  0  0  0  0  0
    0.6196   67.9853   62.4962 H   0  0  0  0  0  0  0  0  0  0  0  0
   -1.4061   68.7971   64.1794 H   0  0  0  0  0  0  0  0  0  0  0  0
  2  1  1  0
  3  2  2  0
  4  3  1  0
  5  4  2  0
  6  5  1  0
  7  2  1  0
  7  6  2  0
  8  5  1  0
  9  8  2  0
 10  8  2  0
 11  8  1  0
 12  1  1  0
 13  1  1  0
 14 13  1  0
 15 14  1  0
 16 15  2  0
 17 15  1  0
 18 17  1  0
 19 17  1  0
 20 13  1  0
 21 20  1  0
  1 22  1  6
  3 23  1  0
  4 24  1  0
  6 25  1  0
  7 26  1  0
 11 27  1  0
 11 28  1  0
 11 29  1  0
 12 30  1  0
 13 31  1  1
 14 32  1  0
 17 33  1  0
 20 34  1  0
 20 35  1  0
 21 36  1  0
M  END
>  <score>  (1) 
-8.772

$$$$
=
     RDKit          3D

 36 36  0  0  0  0  0  0  0  0999 V2000
    0.6840   68.9010   67.9310 C   0  0  1  0  0  0  0  0  0  0  0  0
    2.1010   69.4510   67.9550 C   0  0  0  0  0  0  0  0  0  0  0  0
    2.5470   70.1710   69.0750 C   0  0  0  0  0  0  0  0  0  0  0  0
    3.8500   70.6710   69.1300 C   0  0  0  0  0  0  0  0  0  0  0  0
    4.7190   70.4380   68.0640 C   0  0  0  0  0  0  0  0  0  0  0  0
    4.2950   69.7350   66.9360 C   0  0  0  0  0  0  0  0  0  0  0  0
    2.9900   69.2380   66.8880 C   0  0  0  0  0  0  0  0  0  0  0  0
    6.3760   71.0770   68.1210 S   0  0  0  0  0  6  0  0  0  0  0  0
    6.2930   72.5220   68.0200 O   0  0  0  0  0  0  0  0  0  0  0  0
    7.1710   70.3100   67.1810 O   0  0  0  0  0  0  0  0  0  0  0  0
    6.9110   70.6700   69.7630 C   0  0  0  0  0  0  0  0  0  0  0  0
   -0.2410   69.9620   67.6470 O   0  0  0  0  0  0  0  0  0  0  0  0
    0.5050   67.7640   66.8900 C   0  0  2  0  0  0  0  0  0  0  0  0
    0.7720   68.2490   65.5340 N   0  0  0  0  0  0  0  0  0  0  0  0
    1.2330   67.4300   64.5250 C   0  0  0  0  0  0  0  0  0  0  0  0
    1.5030   66.2450   64.7250 O   0  0  0  0  0  0  0  0  0  0  0  0
    1.4170   68.0850   63.1560 C   0  0  0  0  0  0  0  0  0  0  0  0
    0.2400   69.4030   62.9650 Cl  0  0  0  0  0  0  0  0  0  0  0  0
    3.0770   68.7050   63.0290 Cl  0  0  0  0  0  0  0  0  0  0  0  0
   -0.9130   67.1700   66.9860 C   0  0  0  0  0  0  0  0  0  0  0  0
   -1.8240   67.9130   66.1800 O   0  0  0  0  0  0  0  0  0  0  0  0
    0.4830   68.4725   68.9240 H   0  0  0  0  0  0  0  0  0  0  0  0
    1.8624   70.3432   69.9186 H   0  0  0  0  0  0  0  0  0  0  0  0
    4.1880   71.2435   70.0063 H   0  0  0  0  0  0  0  0  0  0  0  0
    4.9818   69.5734   66.0921 H   0  0  0  0  0  0  0  0  0  0  0  0
    2.6549   68.6738   66.0052 H   0  0  0  0  0  0  0  0  0  0  0  0
    6.2577   71.1670   70.4952 H   0  0  0  0  0  0  0  0  0  0  0  0
    6.8597   69.5805   69.9059 H   0  0  0  0  0  0  0  0  0  0  0  0
    7.9473   71.0101   69.9059 H   0  0  0  0  0  0  0  0  0  0  0  0
   -0.5749   70.3450   68.4967 H   0  0  0  0  0  0  0  0  0  0  0  0
    1.2333   66.9711   67.1153 H   0  0  0  0  0  0  0  0  0  0  0  0
    0.6084   69.2443   65.3252 H   0  0  0  0  0  0  0  0  0  0  0  0
    1.2479   67.3474   62.3577 H   0  0  0  0  0  0  0  0  0  0  0  0
   -0.8919   66.1263   66.6393 H   0  0  0  0  0  0  0  0  0  0  0  0
   -1.2467   67.2166   68.0331 H   0  0  0  0  0  0  0  0  0  0  0  0
   -2.4439   68.4186   66.7632 H   0  0  0  0  0  0  0  0  0  0  0  0
  2  1  1  0
  3  2  2  0
  4  3  1  0
  5  4  2  0
  6  5  1  0
  7  2  1  0
  7  6  2  0
  8  5  1  0
  9  8  2  0
 10  8  2  0
 11  8  1  0
 12  1  1  0
 13  1  1  0
 14 13  1  0
 15 14  1  0
 16 15  2  0
 17 15  1  0
 18 17  1  0
 19 17  1  0
 20 13  1  0
 21 20  1  0
  1 22  1  1
  3 23  1  0
  4 24  1  0
  6 25  1  0
  7 26  1  0
 11 27  1  0
 11 28  1  0
 11 29  1  0
 12 30  1  0
 13 31  1  1
 14 32  1  0
 17 33  1  0
 20 34  1  0
 20 35  1  0
 21 36  1  0
M  END
>  <score>  (2) 
-7.995

$$$$
=
     RDKit          3D

 36 36  0  0  0  0  0  0  0  0999 V2000
    3.4010   58.6760   72.8440 C   0  0  1  0  0  0  0  0  0  0  0  0
    2.5280   59.8670   73.2040 C   0  0  0  0  0  0  0  0  0  0  0  0
    3.1100   61.0040   73.7860 C   0  0  0  0  0  0  0  0  0  0  0  0
    2.3330   62.1180   74.1080 C   0  0  0  0  0  0  0  0  0  0  0  0
    0.9650   62.1030   73.8340 C   0  0  0  0  0  0  0  0  0  0  0  0
    0.3620   60.9800   73.2660 C   0  0  0  0  0  0  0  0  0  0  0  0
    1.1460   59.8690   72.9470 C   0  0  0  0  0  0  0  0  0  0  0  0
   -0.0340   63.5130   74.2480 S   0  0  0  0  0  6  0  0  0  0  0  0
   -1.2690   63.0210   74.8270 O   0  0  0  0  0  0  0  0  0  0  0  0
   -0.0520   64.3880   73.0920 O   0  0  0  0  0  0  0  0  0  0  0  0
    0.8980   64.3070   75.5320 C   0  0  0  0  0  0  0  0  0  0  0  0
    2.7330   57.4580   73.2110 O   0  0  0  0  0  0  0  0  0  0  0  0
    3.7600   58.6350   71.3340 C   0  0  2  0  0  0  0  0  0  0  0  0
    3.4840   59.9240   70.6960 N   0  0  0  0  0  0  0  0  0  0  0  0
    4.4730   60.8400   70.4020 C   0  0  0  0  0  0  0  0  0  0  0  0
    5.6490   60.6470   70.7150 O   0  0  0  0  0  0  0  0  0  0  0  0
    4.0210   62.1170   69.6940 C   0  0  0  0  0  0  0  0  0  0  0  0
    2.2730   62.3380   69.9260 Cl  0  0  0  0  0  0  0  0  0  0  0  0
    4.9200   63.4970   70.3590 Cl  0  0  0  0  0  0  0  0  0  0  0  0
    2.9880   57.5030   70.6310 C   0  0  0  0  0  0  0  0  0  0  0  0
    3.7680   56.3110   70.5950 O   0  0  0  0  0  0  0  0  0  0  0  0
    4.3422   58.7815   73.4034 H   0  0  0  0  0  0  0  0  0  0  0  0
    4.1907   61.0173   73.9907 H   0  0  0  0  0  0  0  0  0  0  0  0
    2.7955   63.0006   74.5740 H   0  0  0  0  0  0  0  0  0  0  0  0
   -0.7206   60.9699   73.0713 H   0  0  0  0  0  0  0  0  0  0  0  0
    0.6767   58.9856   72.4895 H   0  0  0  0  0  0  0  0  0  0  0  0
    0.5193   63.9844   76.5131 H   0  0  0  0  0  0  0  0  0  0  0  0
    1.9587   64.0308   75.4395 H   0  0  0  0  0  0  0  0  0  0  0  0
    0.7938   65.3981   75.4395 H   0  0  0  0  0  0  0  0  0  0  0  0
    2.6942   57.3873   74.1977 H   0  0  0  0  0  0  0  0  0  0  0  0
    4.8374   58.4343   71.2399 H   0  0  0  0  0  0  0  0  0  0  0  0
    2.5097   60.1568   70.4565 H   0  0  0  0  0  0  0  0  0  0  0  0
    4.2235   62.0436   68.6153 H   0  0  0  0  0  0  0  0  0  0  0  0
    2.0544   57.3077   71.1789 H   0  0  0  0  0  0  0  0  0  0  0  0
    2.7660   57.8128   69.5991 H   0  0  0  0  0  0  0  0  0  0  0  0
    3.9615   56.0152   71.5197 H   0  0  0  0  0  0  0  0  0  0  0  0
  2  1  1  0
  3  2  2  0
  4  3  1  0
  5  4  2  0
  6  5  1  0
  7  2  1  0
  7  6  2  0
  8  5  1  0
  9  8  2  0
 10  8  2  0
 11  8  1  0
 12  1  1  0
 13  1  1  0
 14 13  1  0
 15 14  1  0
 16 15  2  0
 17 15  1  0
 18 17  1  0
 19 17  1  0
 20 13  1  0
 21 20  1  0
  1 22  1  1
  3 23  1  0
  4 24  1  0
  6 25  1  0
  7 26  1  0
 11 27  1  0
 11 28  1  0
 11 29  1  0
 12 30  1  0
 13 31  1  1
 14 32  1  0
 17 33  1  0
 20 34  1  0
 20 35  1  0
 21 36  1  0
M  END
>  <score>  (3) 
-7.137

$$$$
=
     RDKit          3D

 36 36  0  0  0  0  0  0  0  0999 V2000
    1.6200   68.5010   68.0920 C   0  0  1  0  0  0  0  0  0  0  0  0
    2.2590   68.2180   66.7420 C   0  0  0  0  0  0  0  0  0  0  0  0
    3.1010   69.1780   66.1570 C   0  0  0  0  0  0  0  0  0  0  0  0
    3.7150   68.9350   64.9270 C   0  0  0  0  0  0  0  0  0  0  0  0
    3.4980   67.7180   64.2810 C   0  0  0  0  0  0  0  0  0  0  0  0
    2.6570   66.7530   64.8370 C   0  0  0  0  0  0  0  0  0  0  0  0
    2.0460   67.0030   66.0670 C   0  0  0  0  0  0  0  0  0  0  0  0
    4.2690   67.4030   62.7110 S   0  0  0  0  0  6  0  0  0  0  0  0
    3.3260   67.7830   61.6760 O   0  0  0  0  0  0  0  0  0  0  0  0
    4.8210   66.0630   62.7580 O   0  0  0  0  0  0  0  0  0  0  0  0
    5.6150   68.5580   62.6810 C   0  0  0  0  0  0  0  0  0  0  0  0
    1.1650   69.8620   68.1350 O   0  0  0  0  0  0  0  0  0  0  0  0
    0.4350   67.5470   68.4010 C   0  0  2  0  0  0  0  0  0  0  0  0
    0.9160   66.2690   68.9290 N   0  0  0  0  0  0  0  0  0  0  0  0
    0.5220   65.7700   70.1530 C   0  0  0  0  0  0  0  0  0  0  0  0
   -0.2200   66.4060   70.9030 O   0  0  0  0  0  0  0  0  0  0  0  0
    1.0820   64.4000   70.5350 C   0  0  0  0  0  0  0  0  0  0  0  0
    2.8580   64.4560   70.5130 Cl  0  0  0  0  0  0  0  0  0  0  0  0
    0.4890   63.9630   72.1520 Cl  0  0  0  0  0  0  0  0  0  0  0  0
   -0.4180   67.3280   67.1370 C   0  0  0  0  0  0  0  0  0  0  0  0
   -1.2570   68.4550   66.8970 O   0  0  0  0  0  0  0  0  0  0  0  0
    2.3888   68.3294   68.8598 H   0  0  0  0  0  0  0  0  0  0  0  0
    3.2787   70.1325   66.6741 H   0  0  0  0  0  0  0  0  0  0  0  0
    4.3644   69.6969   64.4711 H   0  0  0  0  0  0  0  0  0  0  0  0
    2.4772   65.8039   64.3108 H   0  0  0  0  0  0  0  0  0  0  0  0
    1.3904   66.2408   66.5133 H   0  0  0  0  0  0  0  0  0  0  0  0
    5.9065   68.8082   63.7117 H   0  0  0  0  0  0  0  0  0  0  0  0
    6.4714   68.1094   62.1563 H   0  0  0  0  0  0  0  0  0  0  0  0
    5.3017   69.4726   62.1563 H   0  0  0  0  0  0  0  0  0  0  0  0
    1.0693   70.1483   69.0778 H   0  0  0  0  0  0  0  0  0  0  0  0
   -0.1946   68.0155   69.1718 H   0  0  0  0  0  0  0  0  0  0  0  0
    1.5770   65.7189   68.3621 H   0  0  0  0  0  0  0  0  0  0  0  0
    0.7484   63.6400   69.8131 H   0  0  0  0  0  0  0  0  0  0  0  0
    0.2469   67.1817   66.2730 H   0  0  0  0  0  0  0  0  0  0  0  0
   -1.0502   66.4401   67.2851 H   0  0  0  0  0  0  0  0  0  0  0  0
   -1.5451   68.8420   67.7615 H   0  0  0  0  0  0  0  0  0  0  0  0
  2  1  1  0
  3  2  2  0
  4  3  1  0
  5  4  2  0
  6  5  1  0
  7  2  1  0
  7  6  2  0
  8  5  1  0
  9  8  2  0
 10  8  2  0
 11  8  1  0
 12  1  1  0
 13  1  1  0
 14 13  1  0
 15 14  1  0
 16 15  2  0
 17 15  1  0
 18 17  1  0
 19 17  1  0
 20 13  1  0
 21 20  1  0
  1 22  1  1
  3 23  1  0
  4 24  1  0
  6 25  1  0
  7 26  1  0
 11 27  1  0
 11 28  1  0
 11 29  1  0
 12 30  1  0
 13 31  1  1
 14 32  1  0
 17 33  1  0
 20 34  1  0
 20 35  1  0
 21 36  1  0
M  END
>  <score>  (4) 
-7.122

$$$$
=
     RDKit          3D

 36 36  0  0  0  0  0  0  0  0999 V2000
    2.4490   68.8020   67.9310 C   0  0  1  0  0  0  0  0  0  0  0  0
    3.0210   68.6820   66.5280 C   0  0  0  0  0  0  0  0  0  0  0  0
    4.0400   69.5560   66.1170 C   0  0  0  0  0  0  0  0  0  0  0  0
    4.5960   69.4540   64.8400 C   0  0  0  0  0  0  0  0  0  0  0  0
    4.1390   68.4630   63.9700 C   0  0  0  0  0  0  0  0  0  0  0  0
    3.1200   67.5910   64.3520 C   0  0  0  0  0  0  0  0  0  0  0  0
    2.5690   67.6980   65.6310 C   0  0  0  0  0  0  0  0  0  0  0  0
    4.8350   68.3320   62.3400 S   0  0  0  0  0  6  0  0  0  0  0  0
    5.2740   66.9610   62.1600 O   0  0  0  0  0  0  0  0  0  0  0  0
    5.7580   69.4370   62.1700 O   0  0  0  0  0  0  0  0  0  0  0  0
    3.4380   68.6060   61.2800 C   0  0  0  0  0  0  0  0  0  0  0  0
    1.8920   70.1130   68.1150 O   0  0  0  0  0  0  0  0  0  0  0  0
    1.3640   67.7320   68.2250 C   0  0  2  0  0  0  0  0  0  0  0  0
    0.0250   68.2500   67.9350 N   0  0  0  0  0  0  0  0  0  0  0  0
   -0.7720   67.7410   66.9310 C   0  0  0  0  0  0  0  0  0  0  0  0
   -0.3760   66.8510   66.1770 O   0  0  0  0  0  0  0  0  0  0  0  0
   -2.1600   68.3660   66.7900 C   0  0  0  0  0  0  0  0  0  0  0  0
   -2.4200   68.8650   65.1050 Cl  0  0  0  0  0  0  0  0  0  0  0  0
   -3.3830   67.1760   67.2860 Cl  0  0  0  0  0  0  0  0  0  0  0  0
    1.4600   67.2600   69.6880 C   0  0  0  0  0  0  0  0  0  0  0  0
    0.3380   66.4500   70.0280 O   0  0  0  0  0  0  0  0  0  0  0  0
    3.2764   68.6339   68.6361 H   0  0  0  0  0  0  0  0  0  0  0  0
    4.4045   70.3298   66.8086 H   0  0  0  0  0  0  0  0  0  0  0  0
    5.3874   70.1489   64.5225 H   0  0  0  0  0  0  0  0  0  0  0  0
    2.7534   66.8256   63.6522 H   0  0  0  0  0  0  0  0  0  0  0  0
    1.7727   67.0049   65.9400 H   0  0  0  0  0  0  0  0  0  0  0  0
    2.5416   68.7818   61.8929 H   0  0  0  0  0  0  0  0  0  0  0  0
    3.6262   69.4844   60.6451 H   0  0  0  0  0  0  0  0  0  0  0  0
    3.2804   67.7216   60.6451 H   0  0  0  0  0  0  0  0  0  0  0  0
    1.8108   70.3042   69.0830 H   0  0  0  0  0  0  0  0  0  0  0  0
    1.5429   66.8693   67.5664 H   0  0  0  0  0  0  0  0  0  0  0  0
   -0.3369   69.0277   68.5052 H   0  0  0  0  0  0  0  0  0  0  0  0
   -2.2417   69.2547   67.4331 H   0  0  0  0  0  0  0  0  0  0  0  0
    2.3818   66.6743   69.8192 H   0  0  0  0  0  0  0  0  0  0  0  0
    1.4730   68.1420   70.3452 H   0  0  0  0  0  0  0  0  0  0  0  0
    0.2587   66.3928   71.0132 H   0  0  0  0  0  0  0  0  0  0  0  0
  2  1  1  0
  3  2  2  0
  4  3  1  0
  5  4  2  0
  6  5  1  0
  7  2  1  0
  7  6  2  0
  8  5  1  0
  9  8  2  0
 10  8  2  0
 11  8  1  0
 12  1  1  0
 13  1  1  0
 14 13  1  0
 15 14  1  0
 16 15  2  0
 17 15  1  0
 18 17  1  0
 19 17  1  0
 20 13  1  0
 21 20  1  0
  1 22  1  1
  3 23  1  0
  4 24  1  0
  6 25  1  0
  7 26  1  0
 11 27  1  0
 11 28  1  0
 11 29  1  0
 12 30  1  0
 13 31  1  6
 14 32  1  0
 17 33  1  0
 20 34  1  0
 20 35  1  0
 21 36  1  0
M  END
>  <score>  (5) 
-6.922

$$$$
=
     RDKit          3D

 36 36  0  0  0  0  0  0  0  0999 V2000
    3.9950   60.3010   71.6100 C   0  0  1  0  0  0  0  0  0  0  0  0
    3.1900   61.5520   71.2960 C   0  0  0  0  0  0  0  0  0  0  0  0
    1.8190   61.5890   71.5980 C   0  0  0  0  0  0  0  0  0  0  0  0
    1.0620   62.7330   71.3370 C   0  0  0  0  0  0  0  0  0  0  0  0
    1.6800   63.8530   70.7810 C   0  0  0  0  0  0  0  0  0  0  0  0
    3.0380   63.8350   70.4630 C   0  0  0  0  0  0  0  0  0  0  0  0
    3.7900   62.6880   70.7270 C   0  0  0  0  0  0  0  0  0  0  0  0
    0.7220   65.3100   70.4370 S   0  0  0  0  0  6  0  0  0  0  0  0
   -0.2930   64.9490   69.4680 O   0  0  0  0  0  0  0  0  0  0  0  0
    1.6540   66.3900   70.1720 O   0  0  0  0  0  0  0  0  0  0  0  0
   -0.0840   65.6390   71.9830 C   0  0  0  0  0  0  0  0  0  0  0  0
    4.7720   60.5130   72.7990 O   0  0  0  0  0  0  0  0  0  0  0  0
    3.0990   59.0470   71.7930 C   0  0  2  0  0  0  0  0  0  0  0  0
    3.2550   58.4840   73.1370 N   0  0  0  0  0  0  0  0  0  0  0  0
    2.2000   57.9580   73.8540 C   0  0  0  0  0  0  0  0  0  0  0  0
    1.0470   57.9850   73.4220 O   0  0  0  0  0  0  0  0  0  0  0  0
    2.5420   57.3700   75.2220 C   0  0  0  0  0  0  0  0  0  0  0  0
    2.5520   55.5950   75.1210 Cl  0  0  0  0  0  0  0  0  0  0  0  0
    4.1330   57.9760   75.7320 Cl  0  0  0  0  0  0  0  0  0  0  0  0
    3.4290   57.9930   70.7200 C   0  0  0  0  0  0  0  0  0  0  0  0
    3.8110   58.6220   69.4990 O   0  0  0  0  0  0  0  0  0  0  0  0
    4.6535   60.1119   70.7494 H   0  0  0  0  0  0  0  0  0  0  0  0
    1.3363   60.7074   72.0449 H   0  0  0  0  0  0  0  0  0  0  0  0
   -0.0133   62.7508   71.5681 H   0  0  0  0  0  0  0  0  0  0  0  0
    3.5128   64.7168   70.0081 H   0  0  0  0  0  0  0  0  0  0  0  0
    4.8634   62.6739   70.4869 H   0  0  0  0  0  0  0  0  0  0  0  0
    0.5861   65.3655   72.8114 H   0  0  0  0  0  0  0  0  0  0  0  0
   -0.3295   66.7093   72.0481 H   0  0  0  0  0  0  0  0  0  0  0  0
   -1.0083   65.0462   72.0481 H   0  0  0  0  0  0  0  0  0  0  0  0
    4.2050   60.3583   73.5957 H   0  0  0  0  0  0  0  0  0  0  0  0
    2.0489   59.3518   71.6733 H   0  0  0  0  0  0  0  0  0  0  0  0
    4.1921   58.4808   73.5646 H   0  0  0  0  0  0  0  0  0  0  0  0
    1.7879   57.6736   75.9631 H   0  0  0  0  0  0  0  0  0  0  0  0
    4.2567   57.3619   71.0758 H   0  0  0  0  0  0  0  0  0  0  0  0
    2.5339   57.3801   70.5381 H   0  0  0  0  0  0  0  0  0  0  0  0
    4.3144   59.4509   69.6982 H   0  0  0  0  0  0  0  0  0  0  0  0
  2  1  1  0
  3  2  2  0
  4  3  1  0
  5  4  2  0
  6  5  1  0
  7  2  1  0
  7  6  2  0
  8  5  1  0
  9  8  2  0
 10  8  2  0
 11  8  1  0
 12  1  1  0
 13  1  1  0
 14 13  1  0
 15 14  1  0
 16 15  2  0
 17 15  1  0
 18 17  1  0
 19 17  1  0
 20 13  1  0
 21 20  1  0
  1 22  1  6
  3 23  1  0
  4 24  1  0
  6 25  1  0
  7 26  1  0
 11 27  1  0
 11 28  1  0
 11 29  1  0
 12 30  1  0
 13 31  1  6
 14 32  1  0
 17 33  1  0
 20 34  1  0
 20 35  1  0
 21 36  1  0
M  END
>  <score>  (6) 
-6.601

$$$$
=
     RDKit          3D

 36 36  0  0  0  0  0  0  0  0999 V2000
    1.6200   67.4590   65.1990 C   0  0  1  0  0  0  0  0  0  0  0  0
    2.4860   68.3550   66.0690 C   0  0  0  0  0  0  0  0  0  0  0  0
    1.9820   68.8370   67.2870 C   0  0  0  0  0  0  0  0  0  0  0  0
    2.7650   69.6460   68.1130 C   0  0  0  0  0  0  0  0  0  0  0  0
    4.0670   69.9650   67.7270 C   0  0  0  0  0  0  0  0  0  0  0  0
    4.5860   69.5050   66.5160 C   0  0  0  0  0  0  0  0  0  0  0  0
    3.7980   68.6970   65.6940 C   0  0  0  0  0  0  0  0  0  0  0  0
    5.0680   71.0000   68.7680 S   0  0  0  0  0  6  0  0  0  0  0  0
    4.8880   70.5530   70.1360 O   0  0  0  0  0  0  0  0  0  0  0  0
    4.8050   72.3770   68.3950 O   0  0  0  0  0  0  0  0  0  0  0  0
    6.7230   70.5970   68.2710 C   0  0  0  0  0  0  0  0  0  0  0  0
    0.4000   67.1470   65.8910 O   0  0  0  0  0  0  0  0  0  0  0  0
    1.2870   68.1030   63.8270 C   0  0  2  0  0  0  0  0  0  0  0  0
    2.5000   68.6020   63.1740 N   0  0  0  0  0  0  0  0  0  0  0  0
    3.4200   67.7700   62.5710 C   0  0  0  0  0  0  0  0  0  0  0  0
    3.3000   66.5440   62.5970 O   0  0  0  0  0  0  0  0  0  0  0  0
    4.6080   68.4550   61.8960 C   0  0  0  0  0  0  0  0  0  0  0  0
    4.0320   69.4340   60.5290 Cl  0  0  0  0  0  0  0  0  0  0  0  0
    5.4420   69.4750   63.0890 Cl  0  0  0  0  0  0  0  0  0  0  0  0
    0.2590   69.2360   64.0030 C   0  0  0  0  0  0  0  0  0  0  0  0
   -1.0480   68.7020   64.2020 O   0  0  0  0  0  0  0  0  0  0  0  0
    2.1949   66.5423   65.0012 H   0  0  0  0  0  0  0  0  0  0  0  0
    0.9589   68.5746   67.5943 H   0  0  0  0  0  0  0  0  0  0  0  0
    2.3583   70.0288   69.0607 H   0  0  0  0  0  0  0  0  0  0  0  0
    5.6075   69.7767   66.2115 H   0  0  0  0  0  0  0  0  0  0  0  0
    4.2073   68.3241   64.7435 H   0  0  0  0  0  0  0  0  0  0  0  0
    7.3472   70.4450   69.1639 H   0  0  0  0  0  0  0  0  0  0  0  0
    6.7114   69.6754   67.6705 H   0  0  0  0  0  0  0  0  0  0  0  0
    7.1364   71.4207   67.6705 H   0  0  0  0  0  0  0  0  0  0  0  0
    0.5553   67.1867   66.8679 H   0  0  0  0  0  0  0  0  0  0  0  0
    0.8482   67.3291   63.1801 H   0  0  0  0  0  0  0  0  0  0  0  0
    2.6730   69.6173   63.1649 H   0  0  0  0  0  0  0  0  0  0  0  0
    5.3120   67.7015   61.5132 H   0  0  0  0  0  0  0  0  0  0  0  0
    0.5376   69.8444   64.8761 H   0  0  0  0  0  0  0  0  0  0  0  0
    0.2543   69.8547   63.0935 H   0  0  0  0  0  0  0  0  0  0  0  0
   -1.2299   68.6277   65.1723 H   0  0  0  0  0  0  0  0  0  0  0  0
  2  1  1  0
  3  2  2  0
  4  3  1  0
  5  4  2  0
  6  5  1  0
  7  2  1  0
  7  6  2  0
  8  5  1  0
  9  8  2  0
 10  8  2  0
 11  8  1  0
 12  1  1  0
 13  1  1  0
 14 13  1  0
 15 14  1  0
 16 15  2  0
 17 15  1  0
 18 17  1  0
 19 17  1  0
 20 13  1  0
 21 20  1  0
  1 22  1  6
  3 23  1  0
  4 24  1  0
  6 25  1  0
  7 26  1  0
 11 27  1  0
 11 28  1  0
 11 29  1  0
 12 30  1  0
 13 31  1  6
 14 32  1  0
 17 33  1  0
 20 34  1  0
 20 35  1  0
 21 36  1  0
M  END
>  <score>  (7) 
-6.523

$$$$
=
     RDKit          3D

 36 36  0  0  0  0  0  0  0  0999 V2000
    4.5720   60.2200   71.3380 C   0  0  1  0  0  0  0  0  0  0  0  0
    3.7000   59.1960   72.0440 C   0  0  0  0  0  0  0  0  0  0  0  0
    3.5240   59.2760   73.4350 C   0  0  0  0  0  0  0  0  0  0  0  0
    2.7110   58.3590   74.1050 C   0  0  0  0  0  0  0  0  0  0  0  0
    2.0590   57.3620   73.3800 C   0  0  0  0  0  0  0  0  0  0  0  0
    2.2270   57.2570   71.9990 C   0  0  0  0  0  0  0  0  0  0  0  0
    3.0410   58.1770   71.3350 C   0  0  0  0  0  0  0  0  0  0  0  0
    1.0300   56.1850   74.2250 S   0  0  0  0  0  6  0  0  0  0  0  0
   -0.1820   56.0220   73.4460 O   0  0  0  0  0  0  0  0  0  0  0  0
    0.9700   56.5820   75.6190 O   0  0  0  0  0  0  0  0  0  0  0  0
    1.9610   54.6790   74.1150 C   0  0  0  0  0  0  0  0  0  0  0  0
    4.4690   60.0440   69.9160 O   0  0  0  0  0  0  0  0  0  0  0  0
    4.1960   61.6800   71.7070 C   0  0  2  0  0  0  0  0  0  0  0  0
    2.8100   61.9730   71.3340 N   0  0  0  0  0  0  0  0  0  0  0  0
    1.8840   62.4710   72.2280 C   0  0  0  0  0  0  0  0  0  0  0  0
    2.1600   62.6440   73.4160 O   0  0  0  0  0  0  0  0  0  0  0  0
    0.4940   62.7650   71.6650 C   0  0  0  0  0  0  0  0  0  0  0  0
   -0.7310   61.9120   72.6310 Cl  0  0  0  0  0  0  0  0  0  0  0  0
    0.2120   64.5190   71.7060 Cl  0  0  0  0  0  0  0  0  0  0  0  0
    5.1620   62.6700   71.0300 C   0  0  0  0  0  0  0  0  0  0  0  0
    4.5870   63.1970   69.8370 O   0  0  0  0  0  0  0  0  0  0  0  0
    5.6063   60.0523   71.6727 H   0  0  0  0  0  0  0  0  0  0  0  0
    4.0319   60.0694   74.0030 H   0  0  0  0  0  0  0  0  0  0  0  0
    2.5860   58.4227   75.1960 H   0  0  0  0  0  0  0  0  0  0  0  0
    1.7226   56.4564   71.4381 H   0  0  0  0  0  0  0  0  0  0  0  0
    3.1679   58.1034   70.2448 H   0  0  0  0  0  0  0  0  0  0  0  0
    2.1872   54.3130   75.1274 H   0  0  0  0  0  0  0  0  0  0  0  0
    1.3726   53.9228   73.5747 H   0  0  0  0  0  0  0  0  0  0  0  0
    2.9005   54.8673   73.5747 H   0  0  0  0  0  0  0  0  0  0  0  0
    3.9787   59.2062   69.7218 H   0  0  0  0  0  0  0  0  0  0  0  0
    4.2856   61.7944   72.7974 H   0  0  0  0  0  0  0  0  0  0  0  0
    2.5138   61.7999   70.3628 H   0  0  0  0  0  0  0  0  0  0  0  0
    0.4251   62.4145   70.6246 H   0  0  0  0  0  0  0  0  0  0  0  0
    5.3768   63.4966   71.7233 H   0  0  0  0  0  0  0  0  0  0  0  0
    6.0898   62.1388   70.7713 H   0  0  0  0  0  0  0  0  0  0  0  0
    3.8779   63.8469   70.0716 H   0  0  0  0  0  0  0  0  0  0  0  0
  2  1  1  0
  3  2  2  0
  4  3  1  0
  5  4  2  0
  6  5  1  0
  7  2  1  0
  7  6  2  0
  8  5  1  0
  9  8  2  0
 10  8  2  0
 11  8  1  0
 12  1  1  0
 13  1  1  0
 14 13  1  0
 15 14  1  0
 16 15  2  0
 17 15  1  0
 18 17  1  0
 19 17  1  0
 20 13  1  0
 21 20  1  0
  1 22  1  1
  3 23  1  0
  4 24  1  0
  6 25  1  0
  7 26  1  0
 11 27  1  0
 11 28  1  0
 11 29  1  0
 12 30  1  0
 13 31  1  1
 14 32  1  0
 17 33  1  0
 20 34  1  0
 20 35  1  0
 21 36  1  0
M  END
>  <score>  (8) 
-6.439

$$$$
=
     RDKit          3D

 36 36  0  0  0  0  0  0  0  0999 V2000
    4.0940   59.9510   70.4870 C   0  0  1  0  0  0  0  0  0  0  0  0
    3.6050   59.2960   71.7680 C   0  0  0  0  0  0  0  0  0  0  0  0
    2.6310   58.2860   71.7040 C   0  0  0  0  0  0  0  0  0  0  0  0
    2.1790   57.6560   72.8650 C   0  0  0  0  0  0  0  0  0  0  0  0
    2.7140   58.0260   74.1000 C   0  0  0  0  0  0  0  0  0  0  0  0
    3.6740   59.0340   74.1890 C   0  0  0  0  0  0  0  0  0  0  0  0
    4.1220   59.6610   73.0240 C   0  0  0  0  0  0  0  0  0  0  0  0
    2.1390   57.2350   75.5840 S   0  0  0  0  0  6  0  0  0  0  0  0
    2.1500   55.8040   75.3500 O   0  0  0  0  0  0  0  0  0  0  0  0
    0.9240   57.9120   75.9950 O   0  0  0  0  0  0  0  0  0  0  0  0
    3.4100   57.6110   76.7620 C   0  0  0  0  0  0  0  0  0  0  0  0
    3.7800   59.1110   69.3650 O   0  0  0  0  0  0  0  0  0  0  0  0
    3.4810   61.3600   70.2670 C   0  0  2  0  0  0  0  0  0  0  0  0
    2.1910   61.4820   70.9490 N   0  0  0  0  0  0  0  0  0  0  0  0
    1.7120   62.6820   71.4330 C   0  0  0  0  0  0  0  0  0  0  0  0
    2.3760   63.7170   71.3690 O   0  0  0  0  0  0  0  0  0  0  0  0
    0.3270   62.6430   72.0790 C   0  0  0  0  0  0  0  0  0  0  0  0
   -0.0330   60.9880   72.6160 Cl  0  0  0  0  0  0  0  0  0  0  0  0
    0.2980   63.7680   73.4540 Cl  0  0  0  0  0  0  0  0  0  0  0  0
    3.3310   61.6480   68.7610 C   0  0  0  0  0  0  0  0  0  0  0  0
    3.4430   63.0460   68.5050 O   0  0  0  0  0  0  0  0  0  0  0  0
    5.1828   60.0769   70.5800 H   0  0  0  0  0  0  0  0  0  0  0  0
    2.2198   57.9881   70.7282 H   0  0  0  0  0  0  0  0  0  0  0  0
    1.4074   56.8742   72.8070 H   0  0  0  0  0  0  0  0  0  0  0  0
    4.0750   59.3328   75.1688 H   0  0  0  0  0  0  0  0  0  0  0  0
    4.8872   60.4485   73.0896 H   0  0  0  0  0  0  0  0  0  0  0  0
    3.0122   57.4933   77.7808 H   0  0  0  0  0  0  0  0  0  0  0  0
    4.2579   56.9252   76.6180 H   0  0  0  0  0  0  0  0  0  0  0  0
    3.7484   58.6477   76.6180 H   0  0  0  0  0  0  0  0  0  0  0  0
    3.4526   58.2351   69.6900 H   0  0  0  0  0  0  0  0  0  0  0  0
    4.1637   62.1059   70.7000 H   0  0  0  0  0  0  0  0  0  0  0  0
    1.6167   60.6360   71.0727 H   0  0  0  0  0  0  0  0  0  0  0  0
   -0.4390   62.9471   71.3504 H   0  0  0  0  0  0  0  0  0  0  0  0
    4.1202   61.1151   68.2104 H   0  0  0  0  0  0  0  0  0  0  0  0
    2.3394   61.3048   68.4308 H   0  0  0  0  0  0  0  0  0  0  0  0
    3.4823   63.5367   69.3640 H   0  0  0  0  0  0  0  0  0  0  0  0
  2  1  1  0
  3  2  2  0
  4  3  1  0
  5  4  2  0
  6  5  1  0
  7  2  1  0
  7  6  2  0
  8  5  1  0
  9  8  2  0
 10  8  2  0
 11  8  1  0
 12  1  1  0
 13  1  1  0
 14 13  1  0
 15 14  1  0
 16 15  2  0
 17 15  1  0
 18 17  1  0
 19 17  1  0
 20 13  1  0
 21 20  1  0
  1 22  1  1
  3 23  1  0
  4 24  1  0
  6 25  1  0
  7 26  1  0
 11 27  1  0
 11 28  1  0
 11 29  1  0
 12 30  1  0
 13 31  1  1
 14 32  1  0
 17 33  1  0
 20 34  1  0
 20 35  1  0
 21 36  1  0
M  END
>  <score>  (9) 
-6.343

$$$$
