=
     RDKit          3D

 67 68  0  0  0  0  0  0  0  0999 V2000
    0.0380   59.0040   74.8290 C   0  0  2  0  0  0  0  0  0  0  0  0
    1.2690   58.0960   74.5580 C   0  0  2  0  0  0  0  0  0  0  0  0
    2.2560   58.7450   73.5190 C   0  0  2  0  0  0  0  0  0  0  0  0
    2.0520   60.2840   73.3120 C   0  0  1  0  0  0  0  0  0  0  0  0
    1.8260   60.8760   74.7150 C   0  0  2  0  0  0  0  0  0  0  0  0
    0.4770   60.4140   75.3040 C   0  0  2  0  0  0  0  0  0  0  0  0
    1.8870   62.3700   74.7710 N   0  0  0  0  0  4  0  0  0  0  0  0
    0.9680   56.6590   74.2510 N   0  0  0  0  0  0  0  0  0  0  0  0
    1.6590   55.6940   74.9880 C   0  0  0  0  0  0  0  0  0  0  0  0
    2.7440   55.9620   75.5130 O   0  0  0  0  0  0  0  0  0  0  0  0
   -0.2360   56.3190   73.4830 C   0  0  0  0  0  0  0  0  0  0  0  0
    1.0590   54.2800   75.1530 C   0  0  0  0  0  0  0  0  0  0  0  0
    1.5860   53.3400   74.1120 N   0  0  0  0  0  4  0  0  0  0  0  0
   -2.1800   58.5890   75.6470 C   0  0  0  0  0  0  0  0  0  0  0  0
   -0.7760   58.4000   75.8400 O   0  0  0  0  0  0  0  0  0  0  0  0
    2.2310   58.1000   72.2300 O   0  0  0  0  0  0  0  0  0  0  0  0
    0.6450   60.4880   76.7180 O   0  0  0  0  0  0  0  0  0  0  0  0
    3.2230   60.8640   72.6700 O   0  0  0  0  0  0  0  0  0  0  0  0
    3.0710   61.0510   71.2420 C   0  0  1  0  0  0  0  0  0  0  0  0
    1.9290   61.8970   70.9720 O   0  0  0  0  0  0  0  0  0  0  0  0
    2.1030   63.2870   71.3220 C   0  0  1  0  0  0  0  0  0  0  0  0
    3.3100   63.8730   70.5810 C   0  0  0  0  0  0  0  0  0  0  0  0
    4.5770   63.0790   70.8940 C   0  0  0  0  0  0  0  0  0  0  0  0
    4.3660   61.6070   70.5570 C   0  0  1  0  0  0  0  0  0  0  0  0
    5.5890   60.8450   70.9270 N   0  0  0  0  0  4  0  0  0  0  0  0
    0.7880   64.0950   71.0460 C   0  0  2  0  0  0  0  0  0  0  0  0
    1.0890   65.4360   70.3860 C   0  0  0  0  0  0  0  0  0  0  0  0
    0.0290   64.3780   72.3040 N   0  0  0  0  0  4  0  0  0  0  0  0
   -0.5285   59.1129   73.8924 H   0  0  0  0  0  0  0  0  0  0  0  0
    1.7831   58.0412   75.5289 H   0  0  0  0  0  0  0  0  0  0  0  0
    3.2407   58.5891   73.9839 H   0  0  0  0  0  0  0  0  0  0  0  0
    1.1955   60.5012   72.6568 H   0  0  0  0  0  0  0  0  0  0  0  0
    2.6640   60.4923   75.3155 H   0  0  0  0  0  0  0  0  0  0  0  0
   -0.3426   61.0583   74.9531 H   0  0  0  0  0  0  0  0  0  0  0  0
    1.8995   62.6765   75.7543 H   0  0  0  0  0  0  0  0  0  0  0  0
    2.7420   62.6967   74.2986 H   0  0  0  0  0  0  0  0  0  0  0  0
    1.0614   62.7653   74.2986 H   0  0  0  0  0  0  0  0  0  0  0  0
   -1.0589   56.0866   74.1750 H   0  0  0  0  0  0  0  0  0  0  0  0
   -0.5197   57.1721   72.8493 H   0  0  0  0  0  0  0  0  0  0  0  0
   -0.0316   55.4435   72.8493 H   0  0  0  0  0  0  0  0  0  0  0  0
    1.3201   53.8940   76.1494 H   0  0  0  0  0  0  0  0  0  0  0  0
   -0.0326   54.3503   75.0366 H   0  0  0  0  0  0  0  0  0  0  0  0
    2.0367   52.5361   74.5719 H   0  0  0  0  0  0  0  0  0  0  0  0
    0.8082   53.0076   73.5242 H   0  0  0  0  0  0  0  0  0  0  0  0
    2.2754   53.8301   73.5242 H   0  0  0  0  0  0  0  0  0  0  0  0
   -2.6788   58.6561   76.6251 H   0  0  0  0  0  0  0  0  0  0  0  0
   -2.3509   59.5182   75.0837 H   0  0  0  0  0  0  0  0  0  0  0  0
   -2.5905   57.7380   75.0837 H   0  0  0  0  0  0  0  0  0  0  0  0
    2.1930   57.1184   72.3529 H   0  0  0  0  0  0  0  0  0  0  0  0
   -0.1632   60.1320   77.1654 H   0  0  0  0  0  0  0  0  0  0  0  0
    2.8973   60.0594   70.7988 H   0  0  0  0  0  0  0  0  0  0  0  0
    2.3083   63.3647   72.3999 H   0  0  0  0  0  0  0  0  0  0  0  0
    3.1204   63.8372   69.4981 H   0  0  0  0  0  0  0  0  0  0  0  0
    3.4551   64.9124   70.9104 H   0  0  0  0  0  0  0  0  0  0  0  0
    5.4115   63.4737   70.2958 H   0  0  0  0  0  0  0  0  0  0  0  0
    4.8080   63.1749   71.9652 H   0  0  0  0  0  0  0  0  0  0  0  0
    4.2061   61.4896   69.4750 H   0  0  0  0  0  0  0  0  0  0  0  0
    5.6663   60.7969   71.9530 H   0  0  0  0  0  0  0  0  0  0  0  0
    5.5290   59.8915   70.5421 H   0  0  0  0  0  0  0  0  0  0  0  0
    6.4185   61.3191   70.5421 H   0  0  0  0  0  0  0  0  0  0  0  0
    0.1837   63.4627   70.3788 H   0  0  0  0  0  0  0  0  0  0  0  0
    1.2597   66.1966   71.1622 H   0  0  0  0  0  0  0  0  0  0  0  0
    1.9886   65.3428   69.7598 H   0  0  0  0  0  0  0  0  0  0  0  0
    0.2359   65.7362   69.7598 H   0  0  0  0  0  0  0  0  0  0  0  0
    0.6199   64.1577   73.1184 H   0  0  0  0  0  0  0  0  0  0  0  0
   -0.2339   65.3736   72.3298 H   0  0  0  0  0  0  0  0  0  0  0  0
   -0.8215   63.7976   72.3298 H   0  0  0  0  0  0  0  0  0  0  0  0
  2  1  1  0
  3  2  1  0
  4  3  1  0
  5  4  1  0
  6  1  1  0
  6  5  1  0
  7  5  1  0
  8  2  1  0
  9  8  1  0
 10  9  2  0
 11  8  1  0
 12  9  1  0
 13 12  1  0
 15 14  1  0
 15  1  1  0
 16  3  1  0
 17  6  1  0
 18  4  1  0
 19 18  1  0
 20 19  1  0
 21 20  1  0
 22 21  1  0
 23 22  1  0
 24 23  1  0
 24 19  1  0
 25 24  1  0
 26 21  1  0
 27 26  1  0
 28 26  1  0
  1 29  1  6
  2 30  1  1
  3 31  1  1
  4 32  1  6
  5 33  1  1
  6 34  1  6
  7 35  1  0
  7 36  1  0
  7 37  1  0
 11 38  1  0
 11 39  1  0
 11 40  1  0
 12 41  1  0
 12 42  1  0
 13 43  1  0
 13 44  1  0
 13 45  1  0
 14 46  1  0
 14 47  1  0
 14 48  1  0
 16 49  1  0
 17 50  1  0
 19 51  1  6
 21 52  1  1
 22 53  1  0
 22 54  1  0
 23 55  1  0
 23 56  1  0
 24 57  1  6
 25 58  1  0
 25 59  1  0
 25 60  1  0
 26 61  1  6
 27 62  1  0
 27 63  1  0
 27 64  1  0
 28 65  1  0
 28 66  1  0
 28 67  1  0
M  CHG  4   7   1  13   1  25   1  28   1
M  END
>  <score>  (1) 
-6.374

$$$$
=
     RDKit          3D

 67 68  0  0  0  0  0  0  0  0999 V2000
    1.2110   59.5380   75.9560 C   0  0  2  0  0  0  0  0  0  0  0  0
    0.5650   60.7010   75.1520 C   0  0  2  0  0  0  0  0  0  0  0  0
    1.6470   61.5740   74.4170 C   0  0  2  0  0  0  0  0  0  0  0  0
    3.0440   60.8810   74.2730 C   0  0  1  0  0  0  0  0  0  0  0  0
    2.7580   59.4210   73.8800 C   0  0  2  0  0  0  0  0  0  0  0  0
    2.0960   58.6510   75.0420 C   0  0  2  0  0  0  0  0  0  0  0  0
    3.9610   58.6580   73.4230 N   0  0  0  0  0  4  0  0  0  0  0  0
   -0.4410   61.5300   75.8940 N   0  0  0  0  0  0  0  0  0  0  0  0
   -1.6110   61.8720   75.2100 C   0  0  0  0  0  0  0  0  0  0  0  0
   -1.6310   61.8970   73.9750 O   0  0  0  0  0  0  0  0  0  0  0  0
   -0.3450   61.6510   77.3530 C   0  0  0  0  0  0  0  0  0  0  0  0
   -2.8910   62.2150   76.0030 C   0  0  0  0  0  0  0  0  0  0  0  0
   -3.1310   63.6940   76.0360 N   0  0  0  0  0  4  0  0  0  0  0  0
    0.5390   58.1120   77.7660 C   0  0  0  0  0  0  0  0  0  0  0  0
    0.1750   58.7350   76.5310 O   0  0  0  0  0  0  0  0  0  0  0  0
    1.8360   62.8710   75.0160 O   0  0  0  0  0  0  0  0  0  0  0  0
    1.3590   57.6010   74.4190 O   0  0  0  0  0  0  0  0  0  0  0  0
    3.8400   61.5610   73.2600 O   0  0  0  0  0  0  0  0  0  0  0  0
    3.4440   61.2500   71.9030 C   0  0  1  0  0  0  0  0  0  0  0  0
    2.1950   61.9090   71.5880 O   0  0  0  0  0  0  0  0  0  0  0  0
    2.2850   63.3420   71.4300 C   0  0  1  0  0  0  0  0  0  0  0  0
    3.2940   63.6920   70.3300 C   0  0  0  0  0  0  0  0  0  0  0  0
    4.6670   63.1010   70.6450 C   0  0  0  0  0  0  0  0  0  0  0  0
    4.5520   61.5940   70.8490 C   0  0  1  0  0  0  0  0  0  0  0  0
    5.8880   61.0510   71.2160 N   0  0  0  0  0  4  0  0  0  0  0  0
    0.8690   63.9550   71.1530 C   0  0  2  0  0  0  0  0  0  0  0  0
    0.9780   65.3320   70.5050 C   0  0  0  0  0  0  0  0  0  0  0  0
    0.0720   64.1160   72.4080 N   0  0  0  0  0  4  0  0  0  0  0  0
    1.8468   59.9681   76.7439 H   0  0  0  0  0  0  0  0  0  0  0  0
   -0.0431   60.1958   74.3871 H   0  0  0  0  0  0  0  0  0  0  0  0
    1.2206   61.6982   73.4106 H   0  0  0  0  0  0  0  0  0  0  0  0
    3.6224   60.9240   75.2077 H   0  0  0  0  0  0  0  0  0  0  0  0
    2.0734   59.4944   73.0222 H   0  0  0  0  0  0  0  0  0  0  0  0
    2.8569   58.2643   75.7359 H   0  0  0  0  0  0  0  0  0  0  0  0
    4.4876   58.3240   74.2428 H   0  0  0  0  0  0  0  0  0  0  0  0
    3.6614   57.8521   72.8558 H   0  0  0  0  0  0  0  0  0  0  0  0
    4.5623   59.2725   72.8558 H   0  0  0  0  0  0  0  0  0  0  0  0
   -0.9620   60.8733   77.8268 H   0  0  0  0  0  0  0  0  0  0  0  0
    0.7031   61.5270   77.6630 H   0  0  0  0  0  0  0  0  0  0  0  0
   -0.7041   62.6434   77.6630 H   0  0  0  0  0  0  0  0  0  0  0  0
   -3.7511   61.7230   75.5254 H   0  0  0  0  0  0  0  0  0  0  0  0
   -2.7646   61.8605   77.0366 H   0  0  0  0  0  0  0  0  0  0  0  0
   -3.1826   64.0117   77.0144 H   0  0  0  0  0  0  0  0  0  0  0  0
   -2.3576   64.1781   75.5581 H   0  0  0  0  0  0  0  0  0  0  0  0
   -4.0178   63.9087   75.5581 H   0  0  0  0  0  0  0  0  0  0  0  0
    0.1806   58.7255   78.6058 H   0  0  0  0  0  0  0  0  0  0  0  0
    0.0827   57.1126   77.8210 H   0  0  0  0  0  0  0  0  0  0  0  0
    1.6337   58.0188   77.8210 H   0  0  0  0  0  0  0  0  0  0  0  0
    1.8233   62.7841   76.0021 H   0  0  0  0  0  0  0  0  0  0  0  0
    0.9542   57.0243   75.1144 H   0  0  0  0  0  0  0  0  0  0  0  0
    3.3005   60.1609   71.8450 H   0  0  0  0  0  0  0  0  0  0  0  0
    2.6520   63.7869   72.3667 H   0  0  0  0  0  0  0  0  0  0  0  0
    2.9379   63.2861   69.3716 H   0  0  0  0  0  0  0  0  0  0  0  0
    3.3863   64.7866   70.2717 H   0  0  0  0  0  0  0  0  0  0  0  0
    5.3517   63.3041   69.8083 H   0  0  0  0  0  0  0  0  0  0  0  0
    5.0557   63.5613   71.5654 H   0  0  0  0  0  0  0  0  0  0  0  0
    4.2344   61.1124   69.9124 H   0  0  0  0  0  0  0  0  0  0  0  0
    5.9744   61.0159   72.2418 H   0  0  0  0  0  0  0  0  0  0  0  0
    5.9905   60.1015   70.8301 H   0  0  0  0  0  0  0  0  0  0  0  0
    6.6238   61.6597   70.8301 H   0  0  0  0  0  0  0  0  0  0  0  0
    0.3646   63.2480   70.4779 H   0  0  0  0  0  0  0  0  0  0  0  0
    1.0390   66.1020   71.2882 H   0  0  0  0  0  0  0  0  0  0  0  0
    1.8822   65.3725   69.8798 H   0  0  0  0  0  0  0  0  0  0  0  0
    0.0915   65.5142   69.8798 H   0  0  0  0  0  0  0  0  0  0  0  0
    0.6879   63.9916   73.2242 H   0  0  0  0  0  0  0  0  0  0  0  0
   -0.3439   65.0580   72.4321 H   0  0  0  0  0  0  0  0  0  0  0  0
   -0.6769   63.4093   72.4321 H   0  0  0  0  0  0  0  0  0  0  0  0
  2  1  1  0
  3  2  1  0
  4  3  1  0
  5  4  1  0
  6  1  1  0
  6  5  1  0
  7  5  1  0
  8  2  1  0
  9  8  1  0
 10  9  2  0
 11  8  1  0
 12  9  1  0
 13 12  1  0
 15 14  1  0
 15  1  1  0
 16  3  1  0
 17  6  1  0
 18  4  1  0
 19 18  1  0
 20 19  1  0
 21 20  1  0
 22 21  1  0
 23 22  1  0
 24 23  1  0
 24 19  1  0
 25 24  1  0
 26 21  1  0
 27 26  1  0
 28 26  1  0
  1 29  1  1
  2 30  1  6
  3 31  1  6
  4 32  1  1
  5 33  1  6
  6 34  1  1
  7 35  1  0
  7 36  1  0
  7 37  1  0
 11 38  1  0
 11 39  1  0
 11 40  1  0
 12 41  1  0
 12 42  1  0
 13 43  1  0
 13 44  1  0
 13 45  1  0
 14 46  1  0
 14 47  1  0
 14 48  1  0
 16 49  1  0
 17 50  1  0
 19 51  1  1
 21 52  1  1
 22 53  1  0
 22 54  1  0
 23 55  1  0
 23 56  1  0
 24 57  1  6
 25 58  1  0
 25 59  1  0
 25 60  1  0
 26 61  1  6
 27 62  1  0
 27 63  1  0
 27 64  1  0
 28 65  1  0
 28 66  1  0
 28 67  1  0
M  CHG  4   7   1  13   1  25   1  28   1
M  END
>  <score>  (2) 
-6.327

$$$$
=
     RDKit          3D

 67 68  0  0  0  0  0  0  0  0999 V2000
    1.6090   57.9800   76.0580 C   0  0  2  0  0  0  0  0  0  0  0  0
    0.4860   57.6360   75.0410 C   0  0  2  0  0  0  0  0  0  0  0  0
    0.2700   58.7920   73.9970 C   0  0  2  0  0  0  0  0  0  0  0  0
    1.4580   59.8090   73.9080 C   0  0  1  0  0  0  0  0  0  0  0  0
    2.7450   58.9660   73.9490 C   0  0  2  0  0  0  0  0  0  0  0  0
    2.9390   58.3120   75.3320 C   0  0  2  0  0  0  0  0  0  0  0  0
    3.9880   59.7210   73.5960 N   0  0  0  0  0  4  0  0  0  0  0  0
   -0.8010   57.1390   75.6290 N   0  0  0  0  0  0  0  0  0  0  0  0
   -1.2330   55.8710   75.2320 C   0  0  0  0  0  0  0  0  0  0  0  0
   -0.8560   55.3860   74.1600 O   0  0  0  0  0  0  0  0  0  0  0  0
   -1.3600   57.8010   76.8130 C   0  0  0  0  0  0  0  0  0  0  0  0
   -2.1840   55.0640   76.1430 C   0  0  0  0  0  0  0  0  0  0  0  0
   -3.1070   54.2000   75.3380 N   0  0  0  0  0  4  0  0  0  0  0  0
    2.1560   57.2160   78.2670 C   0  0  0  0  0  0  0  0  0  0  0  0
    1.8140   56.8590   76.9250 O   0  0  0  0  0  0  0  0  0  0  0  0
   -0.9510   59.5280   74.2060 O   0  0  0  0  0  0  0  0  0  0  0  0
    3.7340   57.1540   75.0880 O   0  0  0  0  0  0  0  0  0  0  0  0
    1.3650   60.5840   72.6780 O   0  0  0  0  0  0  0  0  0  0  0  0
    1.7750   61.9640   72.8270 C   0  0  1  0  0  0  0  0  0  0  0  0
    2.9160   62.2360   71.9800 O   0  0  0  0  0  0  0  0  0  0  0  0
    2.6300   62.2810   70.5660 C   0  0  1  0  0  0  0  0  0  0  0  0
    1.5630   63.3430   70.2750 C   0  0  0  0  0  0  0  0  0  0  0  0
    0.2890   63.0640   71.0700 C   0  0  0  0  0  0  0  0  0  0  0  0
    0.6120   62.9790   72.5580 C   0  0  1  0  0  0  0  0  0  0  0  0
   -0.6310   62.6460   73.3060 N   0  0  0  0  0  4  0  0  0  0  0  0
    3.9430   62.5200   69.7450 C   0  0  2  0  0  0  0  0  0  0  0  0
    4.8750   63.4940   70.4590 C   0  0  0  0  0  0  0  0  0  0  0  0
    3.6630   63.0870   68.3890 N   0  0  0  0  0  4  0  0  0  0  0  0
    1.2986   58.8630   76.6359 H   0  0  0  0  0  0  0  0  0  0  0  0
    0.8695   56.7568   74.5026 H   0  0  0  0  0  0  0  0  0  0  0  0
    0.2085   58.2517   73.0408 H   0  0  0  0  0  0  0  0  0  0  0  0
    1.4428   60.5328   74.7362 H   0  0  0  0  0  0  0  0  0  0  0  0
    2.5983   58.1989   73.1744 H   0  0  0  0  0  0  0  0  0  0  0  0
    3.4314   59.0088   76.0262 H   0  0  0  0  0  0  0  0  0  0  0  0
    4.4689   60.0131   74.4587 H   0  0  0  0  0  0  0  0  0  0  0  0
    4.6119   59.1160   73.0432 H   0  0  0  0  0  0  0  0  0  0  0  0
    3.7387   60.5535   73.0432 H   0  0  0  0  0  0  0  0  0  0  0  0
   -0.9597   57.3270   77.7214 H   0  0  0  0  0  0  0  0  0  0  0  0
   -1.0835   58.8656   76.8027 H   0  0  0  0  0  0  0  0  0  0  0  0
   -2.4559   57.7067   76.8027 H   0  0  0  0  0  0  0  0  0  0  0  0
   -1.5856   54.4253   76.8093 H   0  0  0  0  0  0  0  0  0  0  0  0
   -2.7915   55.7727   76.7250 H   0  0  0  0  0  0  0  0  0  0  0  0
   -3.6992   53.6457   75.9727 H   0  0  0  0  0  0  0  0  0  0  0  0
   -3.7028   54.7943   74.7440 H   0  0  0  0  0  0  0  0  0  0  0  0
   -2.5533   53.5663   74.7440 H   0  0  0  0  0  0  0  0  0  0  0  0
    1.5705   56.6048   78.9696 H   0  0  0  0  0  0  0  0  0  0  0  0
    3.2288   57.0376   78.4318 H   0  0  0  0  0  0  0  0  0  0  0  0
    1.9317   58.2802   78.4318 H   0  0  0  0  0  0  0  0  0  0  0  0
   -1.1147   59.6267   75.1774 H   0  0  0  0  0  0  0  0  0  0  0  0
    4.0084   56.7543   75.9511 H   0  0  0  0  0  0  0  0  0  0  0  0
    2.0646   62.1079   73.8784 H   0  0  0  0  0  0  0  0  0  0  0  0
    2.2238   61.3093   70.2485 H   0  0  0  0  0  0  0  0  0  0  0  0
    1.9533   64.3326   70.5550 H   0  0  0  0  0  0  0  0  0  0  0  0
    1.3221   63.3160   69.2021 H   0  0  0  0  0  0  0  0  0  0  0  0
   -0.4323   63.8768   70.8995 H   0  0  0  0  0  0  0  0  0  0  0  0
   -0.1419   62.1078   70.7384 H   0  0  0  0  0  0  0  0  0  0  0  0
    0.9757   63.9528   72.9179 H   0  0  0  0  0  0  0  0  0  0  0  0
   -0.4463   62.6955   74.3181 H   0  0  0  0  0  0  0  0  0  0  0  0
   -1.3710   63.3184   73.0588 H   0  0  0  0  0  0  0  0  0  0  0  0
   -0.9358   61.6937   73.0588 H   0  0  0  0  0  0  0  0  0  0  0  0
    4.4162   61.5318   69.6471 H   0  0  0  0  0  0  0  0  0  0  0  0
    4.7634   63.3774   71.5471 H   0  0  0  0  0  0  0  0  0  0  0  0
    5.9157   63.2825   70.1724 H   0  0  0  0  0  0  0  0  0  0  0  0
    4.6179   64.5244   70.1724 H   0  0  0  0  0  0  0  0  0  0  0  0
    3.2091   64.0062   68.4883 H   0  0  0  0  0  0  0  0  0  0  0  0
    4.5477   63.1949   67.8726 H   0  0  0  0  0  0  0  0  0  0  0  0
    3.0395   62.4502   67.8726 H   0  0  0  0  0  0  0  0  0  0  0  0
  2  1  1  0
  3  2  1  0
  4  3  1  0
  5  4  1  0
  6  1  1  0
  6  5  1  0
  7  5  1  0
  8  2  1  0
  9  8  1  0
 10  9  2  0
 11  8  1  0
 12  9  1  0
 13 12  1  0
 15 14  1  0
 15  1  1  0
 16  3  1  0
 17  6  1  0
 18  4  1  0
 19 18  1  0
 20 19  1  0
 21 20  1  0
 22 21  1  0
 23 22  1  0
 24 23  1  0
 24 19  1  0
 25 24  1  0
 26 21  1  0
 27 26  1  0
 28 26  1  0
  1 29  1  1
  2 30  1  6
  3 31  1  6
  4 32  1  1
  5 33  1  6
  6 34  1  1
  7 35  1  0
  7 36  1  0
  7 37  1  0
 11 38  1  0
 11 39  1  0
 11 40  1  0
 12 41  1  0
 12 42  1  0
 13 43  1  0
 13 44  1  0
 13 45  1  0
 14 46  1  0
 14 47  1  0
 14 48  1  0
 16 49  1  0
 17 50  1  0
 19 51  1  1
 21 52  1  6
 22 53  1  0
 22 54  1  0
 23 55  1  0
 23 56  1  0
 24 57  1  1
 25 58  1  0
 25 59  1  0
 25 60  1  0
 26 61  1  6
 27 62  1  0
 27 63  1  0
 27 64  1  0
 28 65  1  0
 28 66  1  0
 28 67  1  0
M  CHG  4   7   1  13   1  25   1  28   1
M  END
>  <score>  (3) 
-6.22

$$$$
=
     RDKit          3D

 67 68  0  0  0  0  0  0  0  0999 V2000
    2.5140   62.7970   70.6880 C   0  0  2  0  0  0  0  0  0  0  0  0
    2.3400   61.5640   71.6170 C   0  0  2  0  0  0  0  0  0  0  0  0
    2.1300   61.9890   73.1170 C   0  0  2  0  0  0  0  0  0  0  0  0
    1.7100   63.4850   73.3090 C   0  0  1  0  0  0  0  0  0  0  0  0
    0.6680   63.7800   72.2160 C   0  0  2  0  0  0  0  0  0  0  0  0
    1.3120   63.7680   70.8140 C   0  0  2  0  0  0  0  0  0  0  0  0
   -0.0660   65.0710   72.3950 N   0  0  0  0  0  4  0  0  0  0  0  0
    3.3600   60.4760   71.4610 N   0  0  0  0  0  0  0  0  0  0  0  0
    2.9040   59.1580   71.5580 C   0  0  0  0  0  0  0  0  0  0  0  0
    1.8630   58.8980   72.1700 O   0  0  0  0  0  0  0  0  0  0  0  0
    4.6720   60.7910   70.8850 C   0  0  0  0  0  0  0  0  0  0  0  0
    3.7040   58.0180   70.8910 C   0  0  0  0  0  0  0  0  0  0  0  0
    3.0410   56.6910   71.1020 N   0  0  0  0  0  4  0  0  0  0  0  0
    3.6070   63.0400   68.5640 C   0  0  0  0  0  0  0  0  0  0  0  0
    2.6180   62.3490   69.3320 O   0  0  0  0  0  0  0  0  0  0  0  0
    3.2740   61.7210   73.9510 O   0  0  0  0  0  0  0  0  0  0  0  0
    0.2490   63.4430   69.9200 O   0  0  0  0  0  0  0  0  0  0  0  0
    1.1570   63.6850   74.6420 O   0  0  0  0  0  0  0  0  0  0  0  0
    0.0280   62.8280   74.9380 C   0  0  1  0  0  0  0  0  0  0  0  0
    0.4880   61.4950   75.2610 O   0  0  0  0  0  0  0  0  0  0  0  0
    1.1530   61.3710   76.5360 C   0  0  1  0  0  0  0  0  0  0  0  0
    0.2250   61.8350   77.6650 C   0  0  0  0  0  0  0  0  0  0  0  0
   -0.2290   63.2760   77.4360 C   0  0  0  0  0  0  0  0  0  0  0  0
   -0.8940   63.4020   76.0690 C   0  0  1  0  0  0  0  0  0  0  0  0
   -1.2710   64.8230   75.8430 N   0  0  0  0  0  4  0  0  0  0  0  0
    1.6610   59.9040   76.7520 C   0  0  2  0  0  0  0  0  0  0  0  0
    2.9760   59.8810   77.5260 C   0  0  0  0  0  0  0  0  0  0  0  0
    1.8950   59.1940   75.4570 N   0  0  0  0  0  4  0  0  0  0  0  0
    3.4258   63.3344   70.9877 H   0  0  0  0  0  0  0  0  0  0  0  0
    1.4134   61.0882   71.2632 H   0  0  0  0  0  0  0  0  0  0  0  0
    1.2913   61.3537   73.4377 H   0  0  0  0  0  0  0  0  0  0  0  0
    2.5684   64.1670   73.2198 H   0  0  0  0  0  0  0  0  0  0  0  0
   -0.0696   62.9696   72.3121 H   0  0  0  0  0  0  0  0  0  0  0  0
    1.7594   64.7458   70.5821 H   0  0  0  0  0  0  0  0  0  0  0  0
   -0.1770   65.2663   73.4002 H   0  0  0  0  0  0  0  0  0  0  0  0
    0.4679   65.8335   71.9540 H   0  0  0  0  0  0  0  0  0  0  0  0
   -0.9943   65.0022   71.9540 H   0  0  0  0  0  0  0  0  0  0  0  0
    5.3958   60.9648   71.6949 H   0  0  0  0  0  0  0  0  0  0  0  0
    5.0116   59.9489   70.2641 H   0  0  0  0  0  0  0  0  0  0  0  0
    4.5923   61.6955   70.2641 H   0  0  0  0  0  0  0  0  0  0  0  0
    3.7757   58.2149   69.8111 H   0  0  0  0  0  0  0  0  0  0  0  0
    4.7041   57.9827   71.3477 H   0  0  0  0  0  0  0  0  0  0  0  0
    2.9502   56.5093   72.1118 H   0  0  0  0  0  0  0  0  0  0  0  0
    2.1062   56.7016   70.6696 H   0  0  0  0  0  0  0  0  0  0  0  0
    3.6108   55.9499   70.6696 H   0  0  0  0  0  0  0  0  0  0  0  0
    4.3171   63.5361   69.2420 H   0  0  0  0  0  0  0  0  0  0  0  0
    4.1467   62.3214   67.9297 H   0  0  0  0  0  0  0  0  0  0  0  0
    3.1179   63.7939   67.9297 H   0  0  0  0  0  0  0  0  0  0  0  0
    3.0100   61.7828   74.9031 H   0  0  0  0  0  0  0  0  0  0  0  0
   -0.5563   63.1968   70.4405 H   0  0  0  0  0  0  0  0  0  0  0  0
   -0.5954   62.7834   74.0328 H   0  0  0  0  0  0  0  0  0  0  0  0
    2.0381   62.0241   76.5470 H   0  0  0  0  0  0  0  0  0  0  0  0
   -0.6579   61.1797   77.6985 H   0  0  0  0  0  0  0  0  0  0  0  0
    0.7748   61.7853   78.6164 H   0  0  0  0  0  0  0  0  0  0  0  0
   -0.9480   63.5602   78.2185 H   0  0  0  0  0  0  0  0  0  0  0  0
    0.6464   63.9410   77.4746 H   0  0  0  0  0  0  0  0  0  0  0  0
   -1.8128   62.7978   76.0416 H   0  0  0  0  0  0  0  0  0  0  0  0
   -1.3959   65.2936   76.7507 H   0  0  0  0  0  0  0  0  0  0  0  0
   -0.5262   65.2954   75.3109 H   0  0  0  0  0  0  0  0  0  0  0  0
   -2.1520   64.8640   75.3109 H   0  0  0  0  0  0  0  0  0  0  0  0
    0.8682   59.3945   77.3193 H   0  0  0  0  0  0  0  0  0  0  0  0
    2.7660   59.8847   78.6058 H   0  0  0  0  0  0  0  0  0  0  0  0
    3.5392   58.9729   77.2651 H   0  0  0  0  0  0  0  0  0  0  0  0
    3.5706   60.7689   77.2651 H   0  0  0  0  0  0  0  0  0  0  0  0
    2.2120   58.2322   75.6452 H   0  0  0  0  0  0  0  0  0  0  0  0
    1.0184   59.1671   74.9169 H   0  0  0  0  0  0  0  0  0  0  0  0
    2.6158   59.6936   74.9169 H   0  0  0  0  0  0  0  0  0  0  0  0
  2  1  1  0
  3  2  1  0
  4  3  1  0
  5  4  1  0
  6  1  1  0
  6  5  1  0
  7  5  1  0
  8  2  1  0
  9  8  1  0
 10  9  2  0
 11  8  1  0
 12  9  1  0
 13 12  1  0
 15 14  1  0
 15  1  1  0
 16  3  1  0
 17  6  1  0
 18  4  1  0
 19 18  1  0
 20 19  1  0
 21 20  1  0
 22 21  1  0
 23 22  1  0
 24 23  1  0
 24 19  1  0
 25 24  1  0
 26 21  1  0
 27 26  1  0
 28 26  1  0
  1 29  1  1
  2 30  1  6
  3 31  1  1
  4 32  1  6
  5 33  1  6
  6 34  1  6
  7 35  1  0
  7 36  1  0
  7 37  1  0
 11 38  1  0
 11 39  1  0
 11 40  1  0
 12 41  1  0
 12 42  1  0
 13 43  1  0
 13 44  1  0
 13 45  1  0
 14 46  1  0
 14 47  1  0
 14 48  1  0
 16 49  1  0
 17 50  1  0
 19 51  1  6
 21 52  1  6
 22 53  1  0
 22 54  1  0
 23 55  1  0
 23 56  1  0
 24 57  1  1
 25 58  1  0
 25 59  1  0
 25 60  1  0
 26 61  1  1
 27 62  1  0
 27 63  1  0
 27 64  1  0
 28 65  1  0
 28 66  1  0
 28 67  1  0
M  CHG  4   7   1  13   1  25   1  28   1
M  END
>  <score>  (4) 
-6.172

$$$$
=
     RDKit          3D

 67 68  0  0  0  0  0  0  0  0999 V2000
    1.2940   60.9700   73.5180 C   0  0  2  0  0  0  0  0  0  0  0  0
    2.0300   60.0610   72.4940 C   0  0  2  0  0  0  0  0  0  0  0  0
    2.0980   58.5680   72.9830 C   0  0  2  0  0  0  0  0  0  0  0  0
    1.0820   58.2160   74.1220 C   0  0  1  0  0  0  0  0  0  0  0  0
   -0.2430   58.8970   73.7350 C   0  0  2  0  0  0  0  0  0  0  0  0
   -0.1280   60.4320   73.8230 C   0  0  2  0  0  0  0  0  0  0  0  0
   -1.4210   58.4570   74.5470 N   0  0  0  0  0  4  0  0  0  0  0  0
    3.3510   60.5690   71.9970 N   0  0  0  0  0  0  0  0  0  0  0  0
    3.5560   60.5600   70.6150 C   0  0  0  0  0  0  0  0  0  0  0  0
    2.9180   59.7890   69.8910 O   0  0  0  0  0  0  0  0  0  0  0  0
    4.2080   61.3540   72.8930 C   0  0  0  0  0  0  0  0  0  0  0  0
    4.5840   61.5250   69.9850 C   0  0  0  0  0  0  0  0  0  0  0  0
    3.9050   62.6040   69.1970 N   0  0  0  0  0  4  0  0  0  0  0  0
    1.2160   63.3260   73.9680 C   0  0  0  0  0  0  0  0  0  0  0  0
    1.1920   62.2930   72.9800 O   0  0  0  0  0  0  0  0  0  0  0  0
    3.4170   58.1650   73.4030 O   0  0  0  0  0  0  0  0  0  0  0  0
   -1.1080   60.9310   72.9160 O   0  0  0  0  0  0  0  0  0  0  0  0
    0.9300   56.7710   74.2300 O   0  0  0  0  0  0  0  0  0  0  0  0
    0.9690   56.2830   75.5940 C   0  0  1  0  0  0  0  0  0  0  0  0
   -0.3430   55.8190   75.9910 O   0  0  0  0  0  0  0  0  0  0  0  0
   -0.7690   54.5890   75.3670 C   0  0  1  0  0  0  0  0  0  0  0  0
    0.2360   53.4690   75.6590 C   0  0  0  0  0  0  0  0  0  0  0  0
    1.6340   53.8560   75.1790 C   0  0  0  0  0  0  0  0  0  0  0  0
    2.0560   55.1770   75.8150 C   0  0  1  0  0  0  0  0  0  0  0  0
    3.3920   55.5640   75.2850 N   0  0  0  0  0  4  0  0  0  0  0  0
   -2.2220   54.2150   75.8220 C   0  0  2  0  0  0  0  0  0  0  0  0
   -2.5630   52.7730   75.4590 C   0  0  0  0  0  0  0  0  0  0  0  0
   -3.2530   55.0900   75.1820 N   0  0  0  0  0  4  0  0  0  0  0  0
    1.8699   60.9786   74.4552 H   0  0  0  0  0  0  0  0  0  0  0  0
    1.3962   60.0976   71.5957 H   0  0  0  0  0  0  0  0  0  0  0  0
    1.8145   58.0020   72.0834 H   0  0  0  0  0  0  0  0  0  0  0  0
    1.4261   58.5689   75.1054 H   0  0  0  0  0  0  0  0  0  0  0  0
   -0.4241   58.5809   72.6971 H   0  0  0  0  0  0  0  0  0  0  0  0
   -0.3071   60.7772   74.8520 H   0  0  0  0  0  0  0  0  0  0  0  0
   -1.1977   58.5404   75.5490 H   0  0  0  0  0  0  0  0  0  0  0  0
   -2.2322   59.0517   74.3253 H   0  0  0  0  0  0  0  0  0  0  0  0
   -1.6437   57.4761   74.3253 H   0  0  0  0  0  0  0  0  0  0  0  0
    3.9552   61.1224   73.9382 H   0  0  0  0  0  0  0  0  0  0  0  0
    5.2623   61.1017   72.7062 H   0  0  0  0  0  0  0  0  0  0  0  0
    4.0489   62.4263   72.7062 H   0  0  0  0  0  0  0  0  0  0  0  0
    5.1798   61.9870   70.7860 H   0  0  0  0  0  0  0  0  0  0  0  0
    5.2283   60.9500   69.3036 H   0  0  0  0  0  0  0  0  0  0  0  0
    3.4775   63.2833   69.8425 H   0  0  0  0  0  0  0  0  0  0  0  0
    4.5972   63.0830   68.6035 H   0  0  0  0  0  0  0  0  0  0  0  0
    3.1736   62.1872   68.6035 H   0  0  0  0  0  0  0  0  0  0  0  0
    1.2055   62.8744   74.9710 H   0  0  0  0  0  0  0  0  0  0  0  0
    2.1284   63.9283   73.8466 H   0  0  0  0  0  0  0  0  0  0  0  0
    0.3326   63.9701   73.8466 H   0  0  0  0  0  0  0  0  0  0  0  0
    3.4589   58.1522   74.3920 H   0  0  0  0  0  0  0  0  0  0  0  0
   -1.8641   61.3160   73.4261 H   0  0  0  0  0  0  0  0  0  0  0  0
    1.2618   57.1263   76.2367 H   0  0  0  0  0  0  0  0  0  0  0  0
   -0.7977   54.7289   74.2763 H   0  0  0  0  0  0  0  0  0  0  0  0
    0.2652   53.2841   76.7430 H   0  0  0  0  0  0  0  0  0  0  0  0
   -0.0819   52.5617   75.1244 H   0  0  0  0  0  0  0  0  0  0  0  0
    2.3481   53.0695   75.4646 H   0  0  0  0  0  0  0  0  0  0  0  0
    1.6221   53.9691   74.0849 H   0  0  0  0  0  0  0  0  0  0  0  0
    2.1430   55.0575   76.9050 H   0  0  0  0  0  0  0  0  0  0  0  0
    4.0323   55.7495   76.0702 H   0  0  0  0  0  0  0  0  0  0  0  0
    3.7681   54.7974   74.7090 H   0  0  0  0  0  0  0  0  0  0  0  0
    3.3001   56.4129   74.7090 H   0  0  0  0  0  0  0  0  0  0  0  0
   -2.2381   54.3540   76.9131 H   0  0  0  0  0  0  0  0  0  0  0  0
   -2.7017   52.1863   76.3791 H   0  0  0  0  0  0  0  0  0  0  0  0
   -3.4906   52.7532   74.8681 H   0  0  0  0  0  0  0  0  0  0  0  0
   -1.7425   52.3398   74.8681 H   0  0  0  0  0  0  0  0  0  0  0  0
   -3.8063   55.5596   75.9129 H   0  0  0  0  0  0  0  0  0  0  0  0
   -2.7871   55.7976   74.5962 H   0  0  0  0  0  0  0  0  0  0  0  0
   -3.8754   54.5152   74.5962 H   0  0  0  0  0  0  0  0  0  0  0  0
  2  1  1  0
  3  2  1  0
  4  3  1  0
  5  4  1  0
  6  1  1  0
  6  5  1  0
  7  5  1  0
  8  2  1  0
  9  8  1  0
 10  9  2  0
 11  8  1  0
 12  9  1  0
 13 12  1  0
 15 14  1  0
 15  1  1  0
 16  3  1  0
 17  6  1  0
 18  4  1  0
 19 18  1  0
 20 19  1  0
 21 20  1  0
 22 21  1  0
 23 22  1  0
 24 23  1  0
 24 19  1  0
 25 24  1  0
 26 21  1  0
 27 26  1  0
 28 26  1  0
  1 29  1  1
  2 30  1  6
  3 31  1  6
  4 32  1  1
  5 33  1  6
  6 34  1  1
  7 35  1  0
  7 36  1  0
  7 37  1  0
 11 38  1  0
 11 39  1  0
 11 40  1  0
 12 41  1  0
 12 42  1  0
 13 43  1  0
 13 44  1  0
 13 45  1  0
 14 46  1  0
 14 47  1  0
 14 48  1  0
 16 49  1  0
 17 50  1  0
 19 51  1  1
 21 52  1  6
 22 53  1  0
 22 54  1  0
 23 55  1  0
 23 56  1  0
 24 57  1  1
 25 58  1  0
 25 59  1  0
 25 60  1  0
 26 61  1  1
 27 62  1  0
 27 63  1  0
 27 64  1  0
 28 65  1  0
 28 66  1  0
 28 67  1  0
M  CHG  4   7   1  13   1  25   1  28   1
M  END
>  <score>  (5) 
-6.062

$$$$
=
     RDKit          3D

 67 68  0  0  0  0  0  0  0  0999 V2000
    2.4990   60.5600   77.3880 C   0  0  2  0  0  0  0  0  0  0  0  0
    1.4480   60.8720   76.2860 C   0  0  2  0  0  0  0  0  0  0  0  0
    2.0920   60.8820   74.8510 C   0  0  2  0  0  0  0  0  0  0  0  0
    3.4850   60.1720   74.7670 C   0  0  1  0  0  0  0  0  0  0  0  0
    3.3630   58.8890   75.6070 C   0  0  2  0  0  0  0  0  0  0  0  0
    3.2200   59.2160   77.1070 C   0  0  2  0  0  0  0  0  0  0  0  0
    4.4950   57.9260   75.4310 N   0  0  0  0  0  4  0  0  0  0  0  0
    0.5720   62.0650   76.5360 N   0  0  0  0  0  0  0  0  0  0  0  0
   -0.8050   61.8820   76.3890 C   0  0  0  0  0  0  0  0  0  0  0  0
   -1.2470   60.9730   75.6790 O   0  0  0  0  0  0  0  0  0  0  0  0
    1.1200   63.2310   77.2380 C   0  0  0  0  0  0  0  0  0  0  0  0
   -1.7860   62.8210   77.1270 C   0  0  0  0  0  0  0  0  0  0  0  0
   -2.4390   63.7800   76.1780 N   0  0  0  0  0  4  0  0  0  0  0  0
    2.6370   60.9290   79.7550 C   0  0  0  0  0  0  0  0  0  0  0  0
    1.8390   60.4840   78.6560 O   0  0  0  0  0  0  0  0  0  0  0  0
    2.2120   62.2030   74.2890 O   0  0  0  0  0  0  0  0  0  0  0  0
    2.5330   58.0990   77.6680 O   0  0  0  0  0  0  0  0  0  0  0  0
    3.8140   59.8740   73.3790 O   0  0  0  0  0  0  0  0  0  0  0  0
    2.6620   59.8400   72.5030 C   0  0  1  0  0  0  0  0  0  0  0  0
    2.7020   60.9600   71.5880 O   0  0  0  0  0  0  0  0  0  0  0  0
    3.7160   60.8740   70.5630 C   0  0  1  0  0  0  0  0  0  0  0  0
    3.5280   59.5970   69.7370 C   0  0  0  0  0  0  0  0  0  0  0  0
    3.5670   58.3600   70.6340 C   0  0  0  0  0  0  0  0  0  0  0  0
    2.5190   58.4820   71.7350 C   0  0  1  0  0  0  0  0  0  0  0  0
    2.6180   57.2970   72.6300 N   0  0  0  0  0  4  0  0  0  0  0  0
    3.7090   62.1630   69.6710 C   0  0  2  0  0  0  0  0  0  0  0  0
    4.5390   63.2780   70.3000 C   0  0  0  0  0  0  0  0  0  0  0  0
    2.3270   62.6980   69.4680 N   0  0  0  0  0  4  0  0  0  0  0  0
    3.2503   61.3635   77.3928 H   0  0  0  0  0  0  0  0  0  0  0  0
    0.7433   60.0290   76.3377 H   0  0  0  0  0  0  0  0  0  0  0  0
    1.3744   60.2998   74.2543 H   0  0  0  0  0  0  0  0  0  0  0  0
    4.2948   60.8095   75.1514 H   0  0  0  0  0  0  0  0  0  0  0  0
    2.4548   58.3968   75.2290 H   0  0  0  0  0  0  0  0  0  0  0  0
    4.2077   59.3648   77.5678 H   0  0  0  0  0  0  0  0  0  0  0  0
    4.8417   57.6311   76.3550 H   0  0  0  0  0  0  0  0  0  0  0  0
    4.1663   57.1015   74.9084 H   0  0  0  0  0  0  0  0  0  0  0  0
    5.2561   58.3826   74.9084 H   0  0  0  0  0  0  0  0  0  0  0  0
    1.0459   63.0733   78.3241 H   0  0  0  0  0  0  0  0  0  0  0  0
    2.1753   63.3649   76.9581 H   0  0  0  0  0  0  0  0  0  0  0  0
    0.5496   64.1290   76.9581 H   0  0  0  0  0  0  0  0  0  0  0  0
   -2.5632   62.2150   77.6156 H   0  0  0  0  0  0  0  0  0  0  0  0
   -1.2194   63.4000   77.8711 H   0  0  0  0  0  0  0  0  0  0  0  0
   -2.9346   64.5079   76.7123 H   0  0  0  0  0  0  0  0  0  0  0  0
   -1.7204   64.2189   75.5848 H   0  0  0  0  0  0  0  0  0  0  0  0
   -3.1107   63.2722   75.5848 H   0  0  0  0  0  0  0  0  0  0  0  0
    2.1452   60.6548   80.7000 H   0  0  0  0  0  0  0  0  0  0  0  0
    3.6274   60.4529   79.7054 H   0  0  0  0  0  0  0  0  0  0  0  0
    2.7526   62.0218   79.7054 H   0  0  0  0  0  0  0  0  0  0  0  0
    2.2724   62.8682   75.0197 H   0  0  0  0  0  0  0  0  0  0  0  0
    2.5664   58.1533   78.6559 H   0  0  0  0  0  0  0  0  0  0  0  0
    1.7664   59.9246   73.1360 H   0  0  0  0  0  0  0  0  0  0  0  0
    4.7061   60.8161   71.0387 H   0  0  0  0  0  0  0  0  0  0  0  0
    2.5562   59.6395   69.2233 H   0  0  0  0  0  0  0  0  0  0  0  0
    4.3455   59.5273   69.0044 H   0  0  0  0  0  0  0  0  0  0  0  0
    3.3582   57.4649   70.0297 H   0  0  0  0  0  0  0  0  0  0  0  0
    4.5639   58.2765   71.0915 H   0  0  0  0  0  0  0  0  0  0  0  0
    1.5112   58.4932   71.2943 H   0  0  0  0  0  0  0  0  0  0  0  0
    2.5922   57.6056   73.6123 H   0  0  0  0  0  0  0  0  0  0  0  0
    1.8271   56.6626   72.4485 H   0  0  0  0  0  0  0  0  0  0  0  0
    3.5032   56.8027   72.4485 H   0  0  0  0  0  0  0  0  0  0  0  0
    4.1380   61.8589   68.7048 H   0  0  0  0  0  0  0  0  0  0  0  0
    4.4832   63.2030   71.3960 H   0  0  0  0  0  0  0  0  0  0  0  0
    5.5866   63.1812   69.9787 H   0  0  0  0  0  0  0  0  0  0  0  0
    4.1457   64.2537   69.9787 H   0  0  0  0  0  0  0  0  0  0  0  0
    1.8869   62.8684   70.3835 H   0  0  0  0  0  0  0  0  0  0  0  0
    2.3748   63.5813   68.9403 H   0  0  0  0  0  0  0  0  0  0  0  0
    1.7676   62.0127   68.9403 H   0  0  0  0  0  0  0  0  0  0  0  0
  2  1  1  0
  3  2  1  0
  4  3  1  0
  5  4  1  0
  6  1  1  0
  6  5  1  0
  7  5  1  0
  8  2  1  0
  9  8  1  0
 10  9  2  0
 11  8  1  0
 12  9  1  0
 13 12  1  0
 15 14  1  0
 15  1  1  0
 16  3  1  0
 17  6  1  0
 18  4  1  0
 19 18  1  0
 20 19  1  0
 21 20  1  0
 22 21  1  0
 23 22  1  0
 24 23  1  0
 24 19  1  0
 25 24  1  0
 26 21  1  0
 27 26  1  0
 28 26  1  0
  1 29  1  1
  2 30  1  6
  3 31  1  6
  4 32  1  1
  5 33  1  6
  6 34  1  1
  7 35  1  0
  7 36  1  0
  7 37  1  0
 11 38  1  0
 11 39  1  0
 11 40  1  0
 12 41  1  0
 12 42  1  0
 13 43  1  0
 13 44  1  0
 13 45  1  0
 14 46  1  0
 14 47  1  0
 14 48  1  0
 16 49  1  0
 17 50  1  0
 19 51  1  1
 21 52  1  1
 22 53  1  0
 22 54  1  0
 23 55  1  0
 23 56  1  0
 24 57  1  6
 25 58  1  0
 25 59  1  0
 25 60  1  0
 26 61  1  6
 27 62  1  0
 27 63  1  0
 27 64  1  0
 28 65  1  0
 28 66  1  0
 28 67  1  0
M  CHG  4   7   1  13   1  25   1  28   1
M  END
>  <score>  (6) 
-6.033

$$$$
=
     RDKit          3D

 67 68  0  0  0  0  0  0  0  0999 V2000
    1.1180   57.1930   75.3390 C   0  0  2  0  0  0  0  0  0  0  0  0
   -0.3070   57.5000   74.8010 C   0  0  2  0  0  0  0  0  0  0  0  0
   -0.3510   58.8560   74.0050 C   0  0  2  0  0  0  0  0  0  0  0  0
    1.0520   59.3790   73.5470 C   0  0  1  0  0  0  0  0  0  0  0  0
    1.8200   58.1480   73.0360 C   0  0  2  0  0  0  0  0  0  0  0  0
    2.1590   57.1830   74.1900 C   0  0  2  0  0  0  0  0  0  0  0  0
    3.0800   58.4710   72.2950 N   0  0  0  0  0  4  0  0  0  0  0  0
   -1.4240   57.3760   75.7950 N   0  0  0  0  0  0  0  0  0  0  0  0
   -1.3920   58.2340   76.8970 C   0  0  0  0  0  0  0  0  0  0  0  0
   -0.3260   58.7290   77.2760 O   0  0  0  0  0  0  0  0  0  0  0  0
   -2.6440   56.6490   75.4260 C   0  0  0  0  0  0  0  0  0  0  0  0
   -2.7010   58.5740   77.6440 C   0  0  0  0  0  0  0  0  0  0  0  0
   -2.7370   60.0150   78.0520 N   0  0  0  0  0  4  0  0  0  0  0  0
    1.7860   55.8870   77.2390 C   0  0  0  0  0  0  0  0  0  0  0  0
    1.1100   55.9120   75.9790 O   0  0  0  0  0  0  0  0  0  0  0  0
   -1.0270   59.9120   74.7150 O   0  0  0  0  0  0  0  0  0  0  0  0
    2.2860   55.9010   73.5780 O   0  0  0  0  0  0  0  0  0  0  0  0
    0.8980   60.3850   72.5050 O   0  0  0  0  0  0  0  0  0  0  0  0
    1.5230   61.6520   72.8220 C   0  0  1  0  0  0  0  0  0  0  0  0
    2.6780   61.8600   71.9750 O   0  0  0  0  0  0  0  0  0  0  0  0
    2.3770   62.1440   70.5920 C   0  0  1  0  0  0  0  0  0  0  0  0
    1.4850   63.3870   70.4880 C   0  0  0  0  0  0  0  0  0  0  0  0
    0.1980   63.1990   71.2880 C   0  0  0  0  0  0  0  0  0  0  0  0
    0.5290   62.8610   72.7370 C   0  0  1  0  0  0  0  0  0  0  0  0
   -0.7370   62.6230   73.4820 N   0  0  0  0  0  4  0  0  0  0  0  0
    3.6970   62.2890   69.7590 C   0  0  2  0  0  0  0  0  0  0  0  0
    4.6570   63.2800   70.4100 C   0  0  0  0  0  0  0  0  0  0  0  0
    3.4330   62.7740   68.3690 N   0  0  0  0  0  4  0  0  0  0  0  0
    1.3989   57.9794   76.0550 H   0  0  0  0  0  0  0  0  0  0  0  0
   -0.5104   56.6820   74.0942 H   0  0  0  0  0  0  0  0  0  0  0  0
   -0.9296   58.5954   73.1065 H   0  0  0  0  0  0  0  0  0  0  0  0
    1.5995   59.8623   74.3696 H   0  0  0  0  0  0  0  0  0  0  0  0
    1.1333   57.6715   72.3209 H   0  0  0  0  0  0  0  0  0  0  0  0
    3.0866   57.4913   74.6946 H   0  0  0  0  0  0  0  0  0  0  0  0
    3.8346   58.6644   72.9688 H   0  0  0  0  0  0  0  0  0  0  0  0
    3.3450   57.6707   71.7032 H   0  0  0  0  0  0  0  0  0  0  0  0
    2.9273   59.3000   71.7032 H   0  0  0  0  0  0  0  0  0  0  0  0
   -3.1729   56.3338   76.3376 H   0  0  0  0  0  0  0  0  0  0  0  0
   -3.2966   57.3056   74.8319 H   0  0  0  0  0  0  0  0  0  0  0  0
   -2.3771   55.7625   74.8319 H   0  0  0  0  0  0  0  0  0  0  0  0
   -3.5551   58.3676   76.9822 H   0  0  0  0  0  0  0  0  0  0  0  0
   -2.7532   57.9550   78.5518 H   0  0  0  0  0  0  0  0  0  0  0  0
   -2.7386   60.0809   79.0799 H   0  0  0  0  0  0  0  0  0  0  0  0
   -1.9078   60.4985   77.6783 H   0  0  0  0  0  0  0  0  0  0  0  0
   -3.5893   60.4564   77.6783 H   0  0  0  0  0  0  0  0  0  0  0  0
    1.0462   55.9144   78.0526 H   0  0  0  0  0  0  0  0  0  0  0  0
    2.3827   54.9662   77.3168 H   0  0  0  0  0  0  0  0  0  0  0  0
    2.4491   56.7612   77.3168 H   0  0  0  0  0  0  0  0  0  0  0  0
   -0.9339   59.7665   75.6898 H   0  0  0  0  0  0  0  0  0  0  0  0
    2.3549   55.2058   74.2795 H   0  0  0  0  0  0  0  0  0  0  0  0
    1.8503   61.6032   73.8711 H   0  0  0  0  0  0  0  0  0  0  0  0
    1.8168   61.3000   70.1633 H   0  0  0  0  0  0  0  0  0  0  0  0
    2.0310   64.2567   70.8823 H   0  0  0  0  0  0  0  0  0  0  0  0
    1.2235   63.5460   69.4314 H   0  0  0  0  0  0  0  0  0  0  0  0
   -0.3898   64.1282   71.2559 H   0  0  0  0  0  0  0  0  0  0  0  0
   -0.3828   62.3746   70.8487 H   0  0  0  0  0  0  0  0  0  0  0  0
    1.0471   63.7084   73.2097 H   0  0  0  0  0  0  0  0  0  0  0  0
   -0.5513   62.6579   74.4945 H   0  0  0  0  0  0  0  0  0  0  0  0
   -1.4234   63.3497   73.2336 H   0  0  0  0  0  0  0  0  0  0  0  0
   -1.1126   61.6967   73.2336 H   0  0  0  0  0  0  0  0  0  0  0  0
    4.1413   61.2832   69.7262 H   0  0  0  0  0  0  0  0  0  0  0  0
    4.5798   63.2003   71.5044 H   0  0  0  0  0  0  0  0  0  0  0  0
    5.6868   63.0522   70.0975 H   0  0  0  0  0  0  0  0  0  0  0  0
    4.3966   64.3020   70.0975 H   0  0  0  0  0  0  0  0  0  0  0  0
    2.9409   63.6780   68.4085 H   0  0  0  0  0  0  0  0  0  0  0  0
    4.3268   62.8911   67.8707 H   0  0  0  0  0  0  0  0  0  0  0  0
    2.8495   62.0869   67.8707 H   0  0  0  0  0  0  0  0  0  0  0  0
  2  1  1  0
  3  2  1  0
  4  3  1  0
  5  4  1  0
  6  1  1  0
  6  5  1  0
  7  5  1  0
  8  2  1  0
  9  8  1  0
 10  9  2  0
 11  8  1  0
 12  9  1  0
 13 12  1  0
 15 14  1  0
 15  1  1  0
 16  3  1  0
 17  6  1  0
 18  4  1  0
 19 18  1  0
 20 19  1  0
 21 20  1  0
 22 21  1  0
 23 22  1  0
 24 23  1  0
 24 19  1  0
 25 24  1  0
 26 21  1  0
 27 26  1  0
 28 26  1  0
  1 29  1  1
  2 30  1  6
  3 31  1  6
  4 32  1  1
  5 33  1  6
  6 34  1  1
  7 35  1  0
  7 36  1  0
  7 37  1  0
 11 38  1  0
 11 39  1  0
 11 40  1  0
 12 41  1  0
 12 42  1  0
 13 43  1  0
 13 44  1  0
 13 45  1  0
 14 46  1  0
 14 47  1  0
 14 48  1  0
 16 49  1  0
 17 50  1  0
 19 51  1  1
 21 52  1  6
 22 53  1  0
 22 54  1  0
 23 55  1  0
 23 56  1  0
 24 57  1  1
 25 58  1  0
 25 59  1  0
 25 60  1  0
 26 61  1  6
 27 62  1  0
 27 63  1  0
 27 64  1  0
 28 65  1  0
 28 66  1  0
 28 67  1  0
M  CHG  4   7   1  13   1  25   1  28   1
M  END
>  <score>  (7) 
-5.684

$$$$
=
     RDKit          3D

 67 68  0  0  0  0  0  0  0  0999 V2000
   -2.3100   58.8260   76.1100 C   0  0  2  0  0  0  0  0  0  0  0  0
   -3.1850   59.6470   75.1210 C   0  0  2  0  0  0  0  0  0  0  0  0
   -2.3070   60.5400   74.1690 C   0  0  2  0  0  0  0  0  0  0  0  0
   -0.8010   60.1180   74.0980 C   0  0  1  0  0  0  0  0  0  0  0  0
   -0.7920   58.5800   74.0260 C   0  0  2  0  0  0  0  0  0  0  0  0
   -1.2740   57.9570   75.3520 C   0  0  2  0  0  0  0  0  0  0  0  0
    0.5360   57.9880   73.6720 N   0  0  0  0  0  4  0  0  0  0  0  0
   -4.3300   60.4000   75.7300 N   0  0  0  0  0  0  0  0  0  0  0  0
   -5.6160   60.0500   75.3090 C   0  0  0  0  0  0  0  0  0  0  0  0
   -5.7920   59.5060   74.2140 O   0  0  0  0  0  0  0  0  0  0  0  0
   -4.1120   61.1910   76.9460 C   0  0  0  0  0  0  0  0  0  0  0  0
   -6.8270   60.3390   76.2230 C   0  0  0  0  0  0  0  0  0  0  0  0
   -8.0320   59.5590   75.7920 N   0  0  0  0  0  4  0  0  0  0  0  0
   -2.7780   57.8750   78.2640 C   0  0  0  0  0  0  0  0  0  0  0  0
   -3.1580   57.9750   76.8890 O   0  0  0  0  0  0  0  0  0  0  0  0
   -2.3770   61.9450   74.4810 O   0  0  0  0  0  0  0  0  0  0  0  0
   -1.7900   56.6770   74.9940 O   0  0  0  0  0  0  0  0  0  0  0  0
   -0.1670   60.7120   72.9290 O   0  0  0  0  0  0  0  0  0  0  0  0
    1.0490   61.4380   73.2330 C   0  0  1  0  0  0  0  0  0  0  0  0
    2.2020   60.6670   72.8210 O   0  0  0  0  0  0  0  0  0  0  0  0
    2.3940   60.5730   71.3930 C   0  0  1  0  0  0  0  0  0  0  0  0
    2.5200   61.9730   70.7810 C   0  0  0  0  0  0  0  0  0  0  0  0
    1.2880   62.8180   71.1010 C   0  0  0  0  0  0  0  0  0  0  0  0
    1.0730   62.8760   72.6100 C   0  0  1  0  0  0  0  0  0  0  0  0
   -0.1660   63.6500   72.8930 N   0  0  0  0  0  4  0  0  0  0  0  0
    3.6310   59.6680   71.0620 C   0  0  2  0  0  0  0  0  0  0  0  0
    3.7880   59.4730   69.5570 C   0  0  0  0  0  0  0  0  0  0  0  0
    3.5130   58.3100   71.6770 N   0  0  0  0  0  4  0  0  0  0  0  0
   -1.7657   59.5271   76.7597 H   0  0  0  0  0  0  0  0  0  0  0  0
   -3.6874   58.8853   74.5067 H   0  0  0  0  0  0  0  0  0  0  0  0
   -2.7588   60.3647   73.1815 H   0  0  0  0  0  0  0  0  0  0  0  0
   -0.2341   60.4680   74.9733 H   0  0  0  0  0  0  0  0  0  0  0  0
   -1.4865   58.3367   73.2084 H   0  0  0  0  0  0  0  0  0  0  0  0
   -0.4447   57.8799   76.0705 H   0  0  0  0  0  0  0  0  0  0  0  0
    1.0505   57.7586   74.5343 H   0  0  0  0  0  0  0  0  0  0  0  0
    0.3934   57.1308   73.1190 H   0  0  0  0  0  0  0  0  0  0  0  0
    1.0782   58.6671   73.1190 H   0  0  0  0  0  0  0  0  0  0  0  0
   -4.2859   60.5599   77.8300 H   0  0  0  0  0  0  0  0  0  0  0  0
   -3.0774   61.5645   76.9599 H   0  0  0  0  0  0  0  0  0  0  0  0
   -4.8092   62.0417   76.9599 H   0  0  0  0  0  0  0  0  0  0  0  0
   -6.5708   60.0611   77.2560 H   0  0  0  0  0  0  0  0  0  0  0  0
   -7.0648   61.4109   76.1563 H   0  0  0  0  0  0  0  0  0  0  0  0
   -8.5425   59.2286   76.6233 H   0  0  0  0  0  0  0  0  0  0  0  0
   -8.6478   60.1622   75.2282 H   0  0  0  0  0  0  0  0  0  0  0  0
   -7.7338   58.7502   75.2282 H   0  0  0  0  0  0  0  0  0  0  0  0
   -3.6449   58.1031   78.9015 H   0  0  0  0  0  0  0  0  0  0  0  0
   -2.4270   56.8539   78.4741 H   0  0  0  0  0  0  0  0  0  0  0  0
   -1.9698   58.5910   78.4741 H   0  0  0  0  0  0  0  0  0  0  0  0
   -2.3830   62.0649   75.4637 H   0  0  0  0  0  0  0  0  0  0  0  0
   -1.9971   56.1634   75.8146 H   0  0  0  0  0  0  0  0  0  0  0  0
    1.0824   61.5805   74.3232 H   0  0  0  0  0  0  0  0  0  0  0  0
    1.5129   60.0942   70.9409 H   0  0  0  0  0  0  0  0  0  0  0  0
    3.4128   62.4671   71.1918 H   0  0  0  0  0  0  0  0  0  0  0  0
    2.6055   61.8739   69.6888 H   0  0  0  0  0  0  0  0  0  0  0  0
    1.4350   63.8373   70.7145 H   0  0  0  0  0  0  0  0  0  0  0  0
    0.4053   62.3633   70.6276 H   0  0  0  0  0  0  0  0  0  0  0  0
    1.9162   63.3952   73.0890 H   0  0  0  0  0  0  0  0  0  0  0  0
   -0.2952   63.7307   73.9117 H   0  0  0  0  0  0  0  0  0  0  0  0
   -0.0846   64.5908   72.4816 H   0  0  0  0  0  0  0  0  0  0  0  0
   -0.9758   63.1643   72.4816 H   0  0  0  0  0  0  0  0  0  0  0  0
    4.5044   60.1918   71.4777 H   0  0  0  0  0  0  0  0  0  0  0  0
    4.4673   58.6293   69.3655 H   0  0  0  0  0  0  0  0  0  0  0  0
    2.8054   59.2613   69.1102 H   0  0  0  0  0  0  0  0  0  0  0  0
    4.2045   60.3878   69.1102 H   0  0  0  0  0  0  0  0  0  0  0  0
    3.5205   58.3961   72.7034 H   0  0  0  0  0  0  0  0  0  0  0  0
    2.6308   57.8721   71.3756 H   0  0  0  0  0  0  0  0  0  0  0  0
    4.3065   57.7265   71.3756 H   0  0  0  0  0  0  0  0  0  0  0  0
  2  1  1  0
  3  2  1  0
  4  3  1  0
  5  4  1  0
  6  1  1  0
  6  5  1  0
  7  5  1  0
  8  2  1  0
  9  8  1  0
 10  9  2  0
 11  8  1  0
 12  9  1  0
 13 12  1  0
 15 14  1  0
 15  1  1  0
 16  3  1  0
 17  6  1  0
 18  4  1  0
 19 18  1  0
 20 19  1  0
 21 20  1  0
 22 21  1  0
 23 22  1  0
 24 23  1  0
 24 19  1  0
 25 24  1  0
 26 21  1  0
 27 26  1  0
 28 26  1  0
  1 29  1  1
  2 30  1  6
  3 31  1  6
  4 32  1  1
  5 33  1  6
  6 34  1  1
  7 35  1  0
  7 36  1  0
  7 37  1  0
 11 38  1  0
 11 39  1  0
 11 40  1  0
 12 41  1  0
 12 42  1  0
 13 43  1  0
 13 44  1  0
 13 45  1  0
 14 46  1  0
 14 47  1  0
 14 48  1  0
 16 49  1  0
 17 50  1  0
 19 51  1  1
 21 52  1  6
 22 53  1  0
 22 54  1  0
 23 55  1  0
 23 56  1  0
 24 57  1  1
 25 58  1  0
 25 59  1  0
 25 60  1  0
 26 61  1  1
 27 62  1  0
 27 63  1  0
 27 64  1  0
 28 65  1  0
 28 66  1  0
 28 67  1  0
M  CHG  4   7   1  13   1  25   1  28   1
M  END
>  <score>  (8) 
-5.603

$$$$
=
     RDKit          3D

 67 68  0  0  0  0  0  0  0  0999 V2000
    1.4480   56.0000   76.6960 C   0  0  2  0  0  0  0  0  0  0  0  0
    0.2620   55.8230   75.7080 C   0  0  2  0  0  0  0  0  0  0  0  0
    0.0120   57.1220   74.8570 C   0  0  2  0  0  0  0  0  0  0  0  0
    1.2140   58.1250   74.8450 C   0  0  1  0  0  0  0  0  0  0  0  0
    2.4830   57.2670   74.6870 C   0  0  2  0  0  0  0  0  0  0  0  0
    2.7410   56.4170   75.9480 C   0  0  2  0  0  0  0  0  0  0  0  0
    3.7200   58.0490   74.3740 N   0  0  0  0  0  4  0  0  0  0  0  0
   -1.0000   55.2620   76.2940 N   0  0  0  0  0  0  0  0  0  0  0  0
   -1.4030   54.0020   75.8460 C   0  0  0  0  0  0  0  0  0  0  0  0
   -1.0320   53.5770   74.7470 O   0  0  0  0  0  0  0  0  0  0  0  0
   -1.5560   55.8540   77.5160 C   0  0  0  0  0  0  0  0  0  0  0  0
   -2.3150   53.1270   76.7350 C   0  0  0  0  0  0  0  0  0  0  0  0
   -3.7190   53.0990   76.2130 N   0  0  0  0  0  4  0  0  0  0  0  0
    1.8160   54.8970   78.7960 C   0  0  0  0  0  0  0  0  0  0  0  0
    1.6780   54.7630   77.3790 O   0  0  0  0  0  0  0  0  0  0  0  0
   -1.1790   57.8350   75.2430 O   0  0  0  0  0  0  0  0  0  0  0  0
    3.4950   55.2960   75.4920 O   0  0  0  0  0  0  0  0  0  0  0  0
    1.0680   59.0710   73.7470 O   0  0  0  0  0  0  0  0  0  0  0  0
    1.3680   60.4390   74.1150 C   0  0  1  0  0  0  0  0  0  0  0  0
    2.5630   60.8850   73.4340 O   0  0  0  0  0  0  0  0  0  0  0  0
    2.4110   61.1050   72.0150 C   0  0  1  0  0  0  0  0  0  0  0  0
    1.3070   62.1360   71.7530 C   0  0  0  0  0  0  0  0  0  0  0  0
   -0.0150   61.6820   72.3700 C   0  0  0  0  0  0  0  0  0  0  0  0
    0.1690   61.4160   73.8600 C   0  0  1  0  0  0  0  0  0  0  0  0
   -1.1140   60.9170   74.4250 N   0  0  0  0  0  4  0  0  0  0  0  0
    3.7780   61.5240   71.3720 C   0  0  2  0  0  0  0  0  0  0  0  0
    4.9280   61.3630   72.3610 C   0  0  0  0  0  0  0  0  0  0  0  0
    3.7730   62.9500   70.9220 N   0  0  0  0  0  4  0  0  0  0  0  0
    1.1896   56.7931   77.4131 H   0  0  0  0  0  0  0  0  0  0  0  0
    0.5950   55.0273   75.0253 H   0  0  0  0  0  0  0  0  0  0  0  0
   -0.1153   56.7281   73.8379 H   0  0  0  0  0  0  0  0  0  0  0  0
    1.2618   58.7214   75.7680 H   0  0  0  0  0  0  0  0  0  0  0  0
    2.2760   56.6224   73.8200 H   0  0  0  0  0  0  0  0  0  0  0  0
    3.2867   56.9994   76.7050 H   0  0  0  0  0  0  0  0  0  0  0  0
    4.1755   58.3369   75.2518 H   0  0  0  0  0  0  0  0  0  0  0  0
    4.3673   57.4633   73.8274 H   0  0  0  0  0  0  0  0  0  0  0  0
    3.4686   58.8850   73.8274 H   0  0  0  0  0  0  0  0  0  0  0  0
   -1.1036   55.3723   78.3954 H   0  0  0  0  0  0  0  0  0  0  0  0
   -1.3359   56.9316   77.5344 H   0  0  0  0  0  0  0  0  0  0  0  0
   -2.6453   55.7019   77.5344 H   0  0  0  0  0  0  0  0  0  0  0  0
   -1.9192   52.1009   76.7539 H   0  0  0  0  0  0  0  0  0  0  0  0
   -2.3294   53.5572   77.7473 H   0  0  0  0  0  0  0  0  0  0  0  0
   -4.3790   53.0858   77.0036 H   0  0  0  0  0  0  0  0  0  0  0  0
   -3.8884   53.9368   75.6383 H   0  0  0  0  0  0  0  0  0  0  0  0
   -3.8548   52.2551   75.6383 H   0  0  0  0  0  0  0  0  0  0  0  0
    1.1141   54.2155   79.2988 H   0  0  0  0  0  0  0  0  0  0  0  0
    2.8457   54.6450   79.0896 H   0  0  0  0  0  0  0  0  0  0  0  0
    1.5943   55.9337   79.0896 H   0  0  0  0  0  0  0  0  0  0  0  0
   -1.2372   57.8699   76.2307 H   0  0  0  0  0  0  0  0  0  0  0  0
    3.8361   54.7889   76.2708 H   0  0  0  0  0  0  0  0  0  0  0  0
    1.5460   60.4549   75.2004 H   0  0  0  0  0  0  0  0  0  0  0  0
    2.1037   60.1641   71.5351 H   0  0  0  0  0  0  0  0  0  0  0  0
    1.6002   63.0992   72.1962 H   0  0  0  0  0  0  0  0  0  0  0  0
    1.1721   62.2405   70.6663 H   0  0  0  0  0  0  0  0  0  0  0  0
   -0.7710   62.4688   72.2311 H   0  0  0  0  0  0  0  0  0  0  0  0
   -0.3449   60.7562   71.8760 H   0  0  0  0  0  0  0  0  0  0  0  0
    0.4288   62.3507   74.3784 H   0  0  0  0  0  0  0  0  0  0  0  0
   -1.0664   60.9355   75.4537 H   0  0  0  0  0  0  0  0  0  0  0  0
   -1.8867   61.5188   74.1062 H   0  0  0  0  0  0  0  0  0  0  0  0
   -1.2770   59.9512   74.1062 H   0  0  0  0  0  0  0  0  0  0  0  0
    3.9167   60.8601   70.5060 H   0  0  0  0  0  0  0  0  0  0  0  0
    4.5385   61.4175   73.3883 H   0  0  0  0  0  0  0  0  0  0  0  0
    5.4129   60.3882   72.2040 H   0  0  0  0  0  0  0  0  0  0  0  0
    5.6620   62.1672   72.2040 H   0  0  0  0  0  0  0  0  0  0  0  0
    3.7708   63.5696   71.7448 H   0  0  0  0  0  0  0  0  0  0  0  0
    4.6133   63.1342   70.3556 H   0  0  0  0  0  0  0  0  0  0  0  0
    2.9314   63.1284   70.3556 H   0  0  0  0  0  0  0  0  0  0  0  0
  2  1  1  0
  3  2  1  0
  4  3  1  0
  5  4  1  0
  6  1  1  0
  6  5  1  0
  7  5  1  0
  8  2  1  0
  9  8  1  0
 10  9  2  0
 11  8  1  0
 12  9  1  0
 13 12  1  0
 15 14  1  0
 15  1  1  0
 16  3  1  0
 17  6  1  0
 18  4  1  0
 19 18  1  0
 20 19  1  0
 21 20  1  0
 22 21  1  0
 23 22  1  0
 24 23  1  0
 24 19  1  0
 25 24  1  0
 26 21  1  0
 27 26  1  0
 28 26  1  0
  1 29  1  1
  2 30  1  6
  3 31  1  6
  4 32  1  1
  5 33  1  6
  6 34  1  1
  7 35  1  0
  7 36  1  0
  7 37  1  0
 11 38  1  0
 11 39  1  0
 11 40  1  0
 12 41  1  0
 12 42  1  0
 13 43  1  0
 13 44  1  0
 13 45  1  0
 14 46  1  0
 14 47  1  0
 14 48  1  0
 16 49  1  0
 17 50  1  0
 19 51  1  1
 21 52  1  6
 22 53  1  0
 22 54  1  0
 23 55  1  0
 23 56  1  0
 24 57  1  1
 25 58  1  0
 25 59  1  0
 25 60  1  0
 26 61  1  6
 27 62  1  0
 27 63  1  0
 27 64  1  0
 28 65  1  0
 28 66  1  0
 28 67  1  0
M  CHG  4   7   1  13   1  25   1  28   1
M  END
>  <score>  (9) 
-5.537

$$$$
